=
 OpenBabel10252414553D

 34 37  0  0  1  0  0  0  0  0999 V2000
  180.2770  176.8210  140.1240 C   0  0  2  0  0  3  0  0  0  0  0  0
  181.2380  176.6410  137.8830 C   0  0  0  0  0  0  0  0  0  0  0  0
  180.3760  178.6970  138.4650 N   0  0  1  0  0  0  0  0  0  0  0  0
  180.1330  177.8660  142.2640 O   0  0  0  0  0  1  0  0  0  0  0  0
  181.2680  175.4410  137.5000 O   0  0  0  0  0  0  0  0  0  0  0  0
  182.2500  177.5790  137.5860 N   0  0  0  0  0  0  0  0  0  0  0  0
  180.1370  177.2480  138.6560 C   0  0  2  0  0  3  0  0  0  0  0  0
  179.9570  175.4710  140.2670 O   0  0  0  0  0  1  0  0  0  0  0  0
  179.9100  179.5120  139.5290 N   0  0  0  0  0  0  0  0  0  0  0  0
  179.4240  177.6440  141.0830 C   0  0  1  0  0  3  0  0  0  0  0  0
  183.1120  177.4660  136.4240 C   0  0  0  0  0  1  0  0  0  0  0  0
  179.8420  181.6600  140.4310 O   0  0  0  0  0  0  0  0  0  0  0  0
  179.8910  180.9460  139.3900 C   0  0  0  0  0  0  0  0  0  0  0  0
  181.8200  178.8600  138.1190 C   0  0  2  0  0  3  0  0  0  0  0  0
  178.9600  178.9720  140.5030 C   0  0  0  0  0  2  0  0  0  0  0  0
  180.8690  183.3530  136.4630 C   0  0  2  0  0  3  0  0  0  0  0  0
  180.3160  182.4720  135.3490 C   0  0  0  0  0  2  0  0  0  0  0  0
  179.9370  181.6050  138.0640 C   0  0  0  0  0  0  0  0  0  0  0  0
  178.9710  181.8870  135.7690 C   0  0  0  0  0  2  0  0  0  0  0  0
  181.0940  182.5180  137.7230 C   0  0  0  0  0  2  0  0  0  0  0  0
  179.0330  181.2610  137.1340 C   0  0  0  0  0  3  0  0  0  0  0  0
  180.0010  184.3970  136.7310 F   0  0  0  0  0  0  0  0  0  0  0  0
  183.4320  180.4820  139.0040 O   0  0  0  0  0  1  0  0  0  0  0  0
  182.7780  179.2770  139.2570 C   0  0  2  0  0  3  0  0  0  0  0  0
  183.7790  178.1930  139.6220 C   0  0  0  0  0  2  0  0  0  0  0  0
  183.4620  177.5780  140.9790 C   0  0  0  0  0  2  0  0  0  0  0  0
  183.4660  178.6430  142.0640 C   0  0  0  0  0  2  0  0  0  0  0  0
  186.3500  179.3760  142.1680 O   0  0  0  0  0  1  0  0  0  0  0  0
  184.4410  178.2950  143.1790 C   0  0  1  0  0  3  0  0  0  0  0  0
  185.8730  178.1520  142.6450 C   0  0  2  0  0  3  0  0  0  0  0  0
  186.2710  177.6970  145.4300 S   0  0  0  0  0  0  0  0  0  0  0  0
  185.5520  179.3580  145.2240 C   0  0  0  0  0  2  0  0  0  0  0  0
  184.3260  179.3230  144.3100 C   0  0  0  0  0  2  0  0  0  0  0  0
  186.8470  177.5880  143.6900 C   0  0  0  0  0  2  0  0  0  0  0  0
  1  8  1  6  0  0  0
  1 10  1  0  0  0  0
  3  7  1  0  0  0  0
  3  9  1  1  0  0  0
  5  2  2  0  0  0  0
  6  2  1  0  0  0  0
  6 14  1  0  0  0  0
  7  2  1  6  0  0  0
  7  1  1  0  0  0  0
  9 15  1  0  0  0  0
 10  4  1  1  0  0  0
 11  6  1  0  0  0  0
 13  9  1  0  0  0  0
 13 12  2  0  0  0  0
 14  3  1  0  0  0  0
 14 24  1  1  0  0  0
 15 10  1  0  0  0  0
 16 22  1  1  0  0  0
 16 20  1  0  0  0  0
 17 19  1  0  0  0  0
 17 16  1  0  0  0  0
 18 13  1  0  0  0  0
 19 21  1  0  0  0  0
 20 18  1  0  0  0  0
 21 18  2  0  0  0  0
 24 23  1  6  0  0  0
 24 25  1  0  0  0  0
 25 26  1  0  0  0  0
 26 27  1  0  0  0  0
 29 27  1  6  0  0  0
 29 33  1  0  0  0  0
 30 28  1  1  0  0  0
 30 29  1  0  0  0  0
 30 34  1  0  0  0  0
 32 31  1  0  0  0  0
 33 32  1  0  0  0  0
 34 31  1  0  0  0  0
M  END
>  <MODEL>
1

>  <REMARK>
 VINA RESULT:      -6.2      0.000      0.000
  Name = 
  6 active torsions:
  status: ('A' for Active; 'I' for Inactive)
    1  A    between atoms: C_3  and  C_13
    2  A    between atoms: C_3  and  C_17
    3  A    between atoms: C_12  and  C_28
    4  A    between atoms: C_17  and  C_29
    5  A    between atoms: C_18  and  C_29
    6  A    between atoms: C_18  and  C_31
                            x       y       z     vdW  Elec       q    Type
                         _______ _______ _______ _____ _____    ______ ____

>  <TORSDO>
F 6

$$$$
=
 OpenBabel10252414553D

 34 37  0  0  1  0  0  0  0  0999 V2000
  180.6910  176.8320  140.0790 C   0  0  2  0  0  3  0  0  0  0  0  0
  181.9350  176.6000  137.9870 C   0  0  0  0  0  0  0  0  0  0  0  0
  180.8450  178.6030  138.3120 N   0  0  1  0  0  0  0  0  0  0  0  0
  180.1980  177.9900  142.1060 O   0  0  0  0  0  1  0  0  0  0  0  0
  182.1080  175.3850  137.6970 O   0  0  0  0  0  0  0  0  0  0  0  0
  182.8970  177.6030  137.7460 N   0  0  0  0  0  0  0  0  0  0  0  0
  180.7010  177.1530  138.5780 C   0  0  2  0  0  3  0  0  0  0  0  0
  180.4640  175.4700  140.2800 O   0  0  0  0  0  1  0  0  0  0  0  0
  180.1860  179.4380  139.2520 N   0  0  0  0  0  0  0  0  0  0  0  0
  179.6620  177.6340  140.8680 C   0  0  1  0  0  3  0  0  0  0  0  0
  183.9040  177.4950  136.7050 C   0  0  0  0  0  1  0  0  0  0  0  0
  179.8350  181.6230  139.9820 O   0  0  0  0  0  0  0  0  0  0  0  0
  180.0710  180.8530  139.0090 C   0  0  0  0  0  0  0  0  0  0  0  0
  182.3030  178.8710  138.1300 C   0  0  2  0  0  3  0  0  0  0  0  0
  179.1690  178.8780  140.1430 C   0  0  0  0  0  2  0  0  0  0  0  0
  179.9610  181.3130  135.1230 C   0  0  2  0  0  3  0  0  0  0  0  0
  180.1050  182.8300  135.1450 C   0  0  0  0  0  2  0  0  0  0  0  0
  180.2280  181.4310  137.6540 C   0  0  0  0  0  0  0  0  0  0  0  0
  181.1490  183.2370  136.1800 C   0  0  0  0  0  2  0  0  0  0  0  0
  179.4840  180.8170  136.4880 C   0  0  0  0  0  2  0  0  0  0  0  0
  180.9050  182.5810  137.5110 C   0  0  0  0  0  3  0  0  0  0  0  0
  181.1650  180.7160  134.7920 F   0  0  0  0  0  0  0  0  0  0  0  0
  183.9630  180.4570  138.9910 O   0  0  0  0  0  1  0  0  0  0  0  0
  183.0760  179.4400  139.3410 C   0  0  2  0  0  3  0  0  0  0  0  0
  183.7850  178.3700  140.1540 C   0  0  0  0  0  2  0  0  0  0  0  0
  185.2490  178.7200  140.3760 C   0  0  0  0  0  2  0  0  0  0  0  0
  185.5480  178.8620  141.8600 C   0  0  0  0  0  2  0  0  0  0  0  0
  188.4750  179.3930  141.7430 O   0  0  0  0  0  1  0  0  0  0  0  0
  186.6510  177.9100  142.2980 C   0  0  1  0  0  3  0  0  0  0  0  0
  187.9340  178.1300  141.4860 C   0  0  2  0  0  3  0  0  0  0  0  0
  188.7560  176.0700  143.2760 S   0  0  0  0  0  0  0  0  0  0  0  0
  188.2360  177.5070  144.2660 C   0  0  0  0  0  2  0  0  0  0  0  0
  186.8730  178.0330  143.8100 C   0  0  0  0  0  2  0  0  0  0  0  0
  188.9950  177.0500  141.7410 C   0  0  0  0  0  2  0  0  0  0  0  0
  1  8  1  6  0  0  0
  1 10  1  0  0  0  0
  3  7  1  0  0  0  0
  3  9  1  1  0  0  0
  5  2  2  0  0  0  0
  6  2  1  0  0  0  0
  6 14  1  0  0  0  0
  7  2  1  6  0  0  0
  7  1  1  0  0  0  0
  9 15  1  0  0  0  0
 10  4  1  1  0  0  0
 11  6  1  0  0  0  0
 13  9  1  0  0  0  0
 13 12  2  0  0  0  0
 14  3  1  0  0  0  0
 14 24  1  1  0  0  0
 15 10  1  0  0  0  0
 16 22  1  1  0  0  0
 16 17  1  0  0  0  0
 16 20  1  0  0  0  0
 17 19  1  0  0  0  0
 18 13  1  0  0  0  0
 19 21  1  0  0  0  0
 20 18  1  0  0  0  0
 21 18  2  0  0  0  0
 24 23  1  6  0  0  0
 24 25  1  0  0  0  0
 25 26  1  0  0  0  0
 26 27  1  0  0  0  0
 29 27  1  6  0  0  0
 29 33  1  0  0  0  0
 30 34  1  0  0  0  0
 30 28  1  1  0  0  0
 30 29  1  0  0  0  0
 31 32  1  0  0  0  0
 33 32  1  0  0  0  0
 34 31  1  0  0  0  0
M  END
>  <MODEL>
2

>  <REMARK>
 VINA RESULT:      -5.9      1.415      1.861
  Name = 
  6 active torsions:
  status: ('A' for Active; 'I' for Inactive)
    1  A    between atoms: C_3  and  C_13
    2  A    between atoms: C_3  and  C_17
    3  A    between atoms: C_12  and  C_28
    4  A    between atoms: C_17  and  C_29
    5  A    between atoms: C_18  and  C_29
    6  A    between atoms: C_18  and  C_31
                            x       y       z     vdW  Elec       q    Type
                         _______ _______ _______ _____ _____    ______ ____

>  <TORSDO>
F 6

$$$$
=
 OpenBabel10252414553D

 34 37  0  0  1  0  0  0  0  0999 V2000
  182.3500  176.0320  137.4850 C   0  0  2  0  0  3  0  0  0  0  0  0
  180.9640  175.4640  139.4180 C   0  0  0  0  0  0  0  0  0  0  0  0
  182.6970  176.9330  139.7970 N   0  0  1  0  0  0  0  0  0  0  0  0
  183.3470  177.6280  136.0180 O   0  0  0  0  0  1  0  0  0  0  0  0
  180.3640  174.3700  139.2370 O   0  0  0  0  0  0  0  0  0  0  0  0
  180.3930  176.5640  140.0910 N   0  0  0  0  0  0  0  0  0  0  0  0
  182.3500  175.7400  138.9920 C   0  0  2  0  0  3  0  0  0  0  0  0
  182.1060  174.8610  136.7670 O   0  0  0  0  0  1  0  0  0  0  0  0
  183.6650  177.7810  139.1990 N   0  0  0  0  0  0  0  0  0  0  0  0
  183.6430  176.6670  136.9850 C   0  0  1  0  0  3  0  0  0  0  0  0
  179.3430  176.4210  141.0840 C   0  0  0  0  0  1  0  0  0  0  0  0
  184.7970  179.8140  139.3280 O   0  0  0  0  0  0  0  0  0  0  0  0
  184.2450  178.8640  139.9510 C   0  0  0  0  0  0  0  0  0  0  0  0
  181.4130  177.5950  140.1740 C   0  0  2  0  0  3  0  0  0  0  0  0
  184.4840  177.2900  138.0900 C   0  0  0  0  0  2  0  0  0  0  0  0
  185.3570  178.8810  143.7040 C   0  0  2  0  0  3  0  0  0  0  0  0
  184.0650  179.4840  144.2430 C   0  0  0  0  0  2  0  0  0  0  0  0
  184.2060  178.8990  141.4320 C   0  0  0  0  0  0  0  0  0  0  0  0
  182.8650  178.8470  143.5480 C   0  0  0  0  0  2  0  0  0  0  0  0
  185.4770  179.1650  142.2070 C   0  0  0  0  0  2  0  0  0  0  0  0
  183.0170  178.8480  142.0530 C   0  0  0  0  0  3  0  0  0  0  0  0
  185.3880  177.5160  143.9350 F   0  0  0  0  0  0  0  0  0  0  0  0
  180.4400  179.8450  140.1010 O   0  0  0  0  0  1  0  0  0  0  0  0
  180.9670  178.8090  139.3300 C   0  0  2  0  0  3  0  0  0  0  0  0
  180.0100  178.4390  138.2090 C   0  0  0  0  0  2  0  0  0  0  0  0
  179.2960  179.6660  137.6590 C   0  0  0  0  0  2  0  0  0  0  0  0
  180.1050  180.3010  136.5380 C   0  0  0  0  0  2  0  0  0  0  0  0
  181.4990  182.4070  138.1140 O   0  0  0  0  0  1  0  0  0  0  0  0
  179.8550  181.7990  136.4530 C   0  0  1  0  0  3  0  0  0  0  0  0
  180.1420  182.4910  137.7920 C   0  0  2  0  0  3  0  0  0  0  0  0
  179.4150  184.7130  136.1630 S   0  0  0  0  0  0  0  0  0  0  0  0
  180.8620  183.9050  135.4070 C   0  0  0  0  0  2  0  0  0  0  0  0
  180.6560  182.3940  135.2900 C   0  0  0  0  0  2  0  0  0  0  0  0
  179.6930  183.9590  137.8140 C   0  0  0  0  0  2  0  0  0  0  0  0
  1  8  1  6  0  0  0
  1  7  1  0  0  0  0
  2  6  1  0  0  0  0
  3  9  1  6  0  0  0
  3 14  1  0  0  0  0
  5  2  2  0  0  0  0
  6 14  1  0  0  0  0
  6 11  1  0  0  0  0
  7  2  1  1  0  0  0
  7  3  1  0  0  0  0
  9 13  1  0  0  0  0
 10  4  1  6  0  0  0
 10  1  1  0  0  0  0
 10 15  1  0  0  0  0
 12 13  2  0  0  0  0
 13 18  1  0  0  0  0
 14 24  1  6  0  0  0
 15  9  1  0  0  0  0
 16 22  1  6  0  0  0
 16 17  1  0  0  0  0
 18 21  2  0  0  0  0
 18 20  1  0  0  0  0
 19 17  1  0  0  0  0
 20 16  1  0  0  0  0
 21 19  1  0  0  0  0
 24 23  1  1  0  0  0
 25 24  1  0  0  0  0
 26 25  1  0  0  0  0
 27 26  1  0  0  0  0
 29 27  1  1  0  0  0
 29 30  1  0  0  0  0
 30 34  1  0  0  0  0
 30 28  1  6  0  0  0
 31 34  1  0  0  0  0
 32 31  1  0  0  0  0
 33 32  1  0  0  0  0
 33 29  1  0  0  0  0
M  END
>  <MODEL>
3

>  <REMARK>
 VINA RESULT:      -5.8      3.445      7.085
  Name = 
  6 active torsions:
  status: ('A' for Active; 'I' for Inactive)
    1  A    between atoms: C_3  and  C_13
    2  A    between atoms: C_3  and  C_17
    3  A    between atoms: C_12  and  C_28
    4  A    between atoms: C_17  and  C_29
    5  A    between atoms: C_18  and  C_29
    6  A    between atoms: C_18  and  C_31
                            x       y       z     vdW  Elec       q    Type
                         _______ _______ _______ _____ _____    ______ ____

>  <TORSDO>
F 6

$$$$
=
 OpenBabel10252414553D

 34 37  0  0  1  0  0  0  0  0999 V2000
  183.6170  179.6890  138.9150 C   0  0  2  0  0  3  0  0  0  0  0  0
  181.2860  180.3330  138.5590 C   0  0  0  0  0  0  0  0  0  0  0  0
  181.8560  178.1840  137.9580 N   0  0  1  0  0  0  0  0  0  0  0  0
  185.2730  178.2360  139.8320 O   0  0  0  0  0  1  0  0  0  0  0  0
  181.1700  181.5860  138.4860 O   0  0  0  0  0  0  0  0  0  0  0  0
  180.3310  179.4970  139.1740 N   0  0  0  0  0  0  0  0  0  0  0  0
  182.4040  179.5600  137.9840 C   0  0  2  0  0  3  0  0  0  0  0  0
  184.1500  180.9760  138.8370 O   0  0  0  0  0  1  0  0  0  0  0  0
  182.8370  177.1630  138.0550 N   0  0  0  0  0  0  0  0  0  0  0  0
  184.7170  178.6730  138.6290 C   0  0  1  0  0  3  0  0  0  0  0  0
  178.9310  179.8590  139.2990 C   0  0  0  0  0  1  0  0  0  0  0  0
  183.2310  174.8770  138.2860 O   0  0  0  0  0  0  0  0  0  0  0  0
  182.4740  175.7850  137.8410 C   0  0  0  0  0  0  0  0  0  0  0  0
  180.7700  178.1260  138.9810 C   0  0  2  0  0  3  0  0  0  0  0  0
  184.2470  177.4750  137.8150 C   0  0  0  0  0  2  0  0  0  0  0  0
  179.7080  175.5010  135.0860 C   0  0  2  0  0  3  0  0  0  0  0  0
  179.0890  174.2160  135.6240 C   0  0  0  0  0  2  0  0  0  0  0  0
  181.2360  175.4040  137.1220 C   0  0  0  0  0  0  0  0  0  0  0  0
  178.9950  174.2830  137.1450 C   0  0  0  0  0  2  0  0  0  0  0  0
  181.1250  175.6640  135.6360 C   0  0  0  0  0  2  0  0  0  0  0  0
  180.2980  174.6960  137.7700 C   0  0  0  0  0  3  0  0  0  0  0  0
  178.9340  176.5950  135.4320 F   0  0  0  0  0  0  0  0  0  0  0  0
  180.2600  176.4830  140.7280 O   0  0  0  0  0  1  0  0  0  0  0  0
  181.1220  177.5140  140.3550 C   0  0  2  0  0  3  0  0  0  0  0  0
  181.2250  178.5500  141.4620 C   0  0  0  0  0  2  0  0  0  0  0  0
  182.6530  178.6700  141.9790 C   0  0  0  0  0  2  0  0  0  0  0  0
  182.6620  178.8910  143.4830 C   0  0  0  0  0  2  0  0  0  0  0  0
  185.3770  179.9540  142.8790 O   0  0  0  0  0  1  0  0  0  0  0  0
  183.9690  178.4200  144.1040 C   0  0  1  0  0  3  0  0  0  0  0  0
  185.1450  178.5990  143.1350 C   0  0  2  0  0  3  0  0  0  0  0  0
  186.4710  177.5530  145.4300 S   0  0  0  0  0  0  0  0  0  0  0  0
  185.6470  179.1050  145.9100 C   0  0  0  0  0  2  0  0  0  0  0  0
  184.1890  179.1260  145.4470 C   0  0  0  0  0  2  0  0  0  0  0  0
  186.4370  177.9370  143.6350 C   0  0  0  0  0  2  0  0  0  0  0  0
  1  8  1  6  0  0  0
  2  6  1  0  0  0  0
  3  7  1  0  0  0  0
  3  9  1  1  0  0  0
  3 14  1  0  0  0  0
  5  2  2  0  0  0  0
  6 11  1  0  0  0  0
  7  2  1  1  0  0  0
  7  1  1  0  0  0  0
 10  1  1  0  0  0  0
 10  4  1  1  0  0  0
 13  9  1  0  0  0  0
 13 12  2  0  0  0  0
 14  6  1  0  0  0  0
 14 24  1  1  0  0  0
 15  9  1  0  0  0  0
 15 10  1  0  0  0  0
 16 22  1  1  0  0  0
 16 17  1  0  0  0  0
 16 20  1  0  0  0  0
 17 19  1  0  0  0  0
 18 21  2  0  0  0  0
 18 13  1  0  0  0  0
 19 21  1  0  0  0  0
 20 18  1  0  0  0  0
 24 23  1  1  0  0  0
 24 25  1  0  0  0  0
 25 26  1  0  0  0  0
 26 27  1  0  0  0  0
 29 27  1  6  0  0  0
 29 33  1  0  0  0  0
 30 28  1  1  0  0  0
 30 34  1  0  0  0  0
 30 29  1  0  0  0  0
 31 32  1  0  0  0  0
 33 32  1  0  0  0  0
 34 31  1  0  0  0  0
M  END
>  <MODEL>
4

>  <REMARK>
 VINA RESULT:      -5.7      2.248      5.010
  Name = 
  6 active torsions:
  status: ('A' for Active; 'I' for Inactive)
    1  A    between atoms: C_3  and  C_13
    2  A    between atoms: C_3  and  C_17
    3  A    between atoms: C_12  and  C_28
    4  A    between atoms: C_17  and  C_29
    5  A    between atoms: C_18  and  C_29
    6  A    between atoms: C_18  and  C_31
                            x       y       z     vdW  Elec       q    Type
                         _______ _______ _______ _____ _____    ______ ____

>  <TORSDO>
F 6

$$$$
=
 OpenBabel10252414553D

 34 37  0  0  1  0  0  0  0  0999 V2000
  180.2090  176.5960  139.1640 C   0  0  2  0  0  3  0  0  0  0  0  0
  181.2470  176.6290  136.9510 C   0  0  0  0  0  0  0  0  0  0  0  0
  180.4870  178.6490  137.7540 N   0  0  1  0  0  0  0  0  0  0  0  0
  180.0410  177.3790  141.4110 O   0  0  0  0  0  1  0  0  0  0  0  0
  181.2200  175.4850  136.4220 O   0  0  0  0  0  0  0  0  0  0  0  0
  182.3240  177.5290  136.8060 N   0  0  0  0  0  0  0  0  0  0  0  0
  180.1540  177.2060  137.7570 C   0  0  2  0  0  3  0  0  0  0  0  0
  179.8030  175.2620  139.1270 O   0  0  0  0  0  1  0  0  0  0  0  0
  180.0270  179.3570  138.8950 N   0  0  0  0  0  0  0  0  0  0  0  0
  179.3690  177.3490  140.1890 C   0  0  1  0  0  3  0  0  0  0  0  0
  183.2240  177.5030  135.6670 C   0  0  0  0  0  1  0  0  0  0  0  0
  180.0510  181.3790  140.0540 O   0  0  0  0  0  0  0  0  0  0  0  0
  180.1000  180.7950  138.9350 C   0  0  0  0  0  0  0  0  0  0  0  0
  181.9500  178.7600  137.4790 C   0  0  2  0  0  3  0  0  0  0  0  0
  179.0090  178.7650  139.7640 C   0  0  0  0  0  2  0  0  0  0  0  0
  179.8780  181.9710  135.2080 C   0  0  2  0  0  3  0  0  0  0  0  0
  180.0970  183.4510  135.5020 C   0  0  0  0  0  2  0  0  0  0  0  0
  180.2390  181.6070  137.7030 C   0  0  0  0  0  0  0  0  0  0  0  0
  181.1950  183.6150  136.5480 C   0  0  0  0  0  2  0  0  0  0  0  0
  179.4260  181.2510  136.4790 C   0  0  0  0  0  2  0  0  0  0  0  0
  180.9660  182.7350  137.7450 C   0  0  0  0  0  3  0  0  0  0  0  0
  181.0390  181.3960  134.7220 F   0  0  0  0  0  0  0  0  0  0  0  0
  183.3900  180.2700  138.7670 O   0  0  0  0  0  1  0  0  0  0  0  0
  182.8850  178.9730  138.6910 C   0  0  2  0  0  3  0  0  0  0  0  0
  184.0120  177.9550  138.7610 C   0  0  0  0  0  2  0  0  0  0  0  0
  185.3750  178.6320  138.7140 C   0  0  0  0  0  2  0  0  0  0  0  0
  186.2780  177.9490  137.6980 C   0  0  0  0  0  2  0  0  0  0  0  0
  188.8300  179.4720  137.5300 O   0  0  0  0  0  1  0  0  0  0  0  0
  187.6070  177.5450  138.3200 C   0  0  1  0  0  3  0  0  0  0  0  0
  188.7910  178.0760  137.5010 C   0  0  2  0  0  3  0  0  0  0  0  0
  190.1390  176.7790  139.6510 S   0  0  0  0  0  0  0  0  0  0  0  0
  189.0680  178.0750  140.3520 C   0  0  0  0  0  2  0  0  0  0  0  0
  187.6490  177.9890  139.7870 C   0  0  0  0  0  2  0  0  0  0  0  0
  190.1400  177.5090  137.9660 C   0  0  0  0  0  2  0  0  0  0  0  0
  1  8  1  6  0  0  0
  1 10  1  0  0  0  0
  3  7  1  0  0  0  0
  3  9  1  1  0  0  0
  5  2  2  0  0  0  0
  6  2  1  0  0  0  0
  6 14  1  0  0  0  0
  7  2  1  6  0  0  0
  7  1  1  0  0  0  0
  9 13  1  0  0  0  0
  9 15  1  0  0  0  0
 10  4  1  1  0  0  0
 11  6  1  0  0  0  0
 13 12  2  0  0  0  0
 14  3  1  0  0  0  0
 14 24  1  1  0  0  0
 15 10  1  0  0  0  0
 16 22  1  1  0  0  0
 16 17  1  0  0  0  0
 16 20  1  0  0  0  0
 17 19  1  0  0  0  0
 18 21  2  0  0  0  0
 18 13  1  0  0  0  0
 19 21  1  0  0  0  0
 20 18  1  0  0  0  0
 24 25  1  0  0  0  0
 24 23  1  6  0  0  0
 26 25  1  0  0  0  0
 27 26  1  0  0  0  0
 29 27  1  6  0  0  0
 29 33  1  0  0  0  0
 30 28  1  1  0  0  0
 30 34  1  0  0  0  0
 30 29  1  0  0  0  0
 31 32  1  0  0  0  0
 33 32  1  0  0  0  0
 34 31  1  0  0  0  0
M  END
>  <MODEL>
5

>  <REMARK>
 VINA RESULT:      -5.5      2.616      3.212
  Name = 
  6 active torsions:
  status: ('A' for Active; 'I' for Inactive)
    1  A    between atoms: C_3  and  C_13
    2  A    between atoms: C_3  and  C_17
    3  A    between atoms: C_12  and  C_28
    4  A    between atoms: C_17  and  C_29
    5  A    between atoms: C_18  and  C_29
    6  A    between atoms: C_18  and  C_31
                            x       y       z     vdW  Elec       q    Type
                         _______ _______ _______ _____ _____    ______ ____

>  <TORSDO>
F 6

$$$$
=
 OpenBabel10252414553D

 34 37  0  0  1  0  0  0  0  0999 V2000
  192.2720  175.0790  136.6140 C   0  0  2  0  0  3  0  0  0  0  0  0
  189.9970  174.2460  136.9460 C   0  0  0  0  0  0  0  0  0  0  0  0
  190.8930  175.4890  138.6660 N   0  0  1  0  0  0  0  0  0  0  0  0
  193.8640  176.8550  136.5450 O   0  0  0  0  0  1  0  0  0  0  0  0
  189.7670  173.2530  136.2050 O   0  0  0  0  0  0  0  0  0  0  0  0
  189.0350  175.2330  137.2480 N   0  0  0  0  0  0  0  0  0  0  0  0
  191.2790  174.5020  137.6320 C   0  0  2  0  0  3  0  0  0  0  0  0
  192.6720  174.0890  135.7160 O   0  0  0  0  0  1  0  0  0  0  0  0
  191.9380  176.3680  139.0550 N   0  0  0  0  0  0  0  0  0  0  0  0
  193.5060  175.7060  137.2520 C   0  0  1  0  0  3  0  0  0  0  0  0
  187.6060  174.9750  137.2180 C   0  0  0  0  0  1  0  0  0  0  0  0
  192.5170  178.2530  140.2960 O   0  0  0  0  0  0  0  0  0  0  0  0
  191.7680  177.2410  140.1870 C   0  0  0  0  0  0  0  0  0  0  0  0
  189.6430  176.1540  138.1910 C   0  0  2  0  0  3  0  0  0  0  0  0
  193.3270  176.0440  138.7260 C   0  0  0  0  0  2  0  0  0  0  0  0
  188.5790  177.6060  142.4270 C   0  0  2  0  0  3  0  0  0  0  0  0
  188.5500  176.1540  142.8890 C   0  0  0  0  0  2  0  0  0  0  0  0
  190.7380  176.9920  141.2220 C   0  0  0  0  0  0  0  0  0  0  0  0
  189.9650  175.6850  143.2150 C   0  0  0  0  0  2  0  0  0  0  0  0
  189.4190  177.7300  141.1560 C   0  0  0  0  0  2  0  0  0  0  0  0
  190.9310  176.0040  142.1090 C   0  0  0  0  0  3  0  0  0  0  0  0
  189.0950  178.4210  143.4200 F   0  0  0  0  0  0  0  0  0  0  0  0
  189.4380  178.5920  138.3600 O   0  0  0  0  0  1  0  0  0  0  0  0
  189.7870  177.5370  137.5180 C   0  0  2  0  0  3  0  0  0  0  0  0
  189.0430  177.6400  136.1970 C   0  0  0  0  0  2  0  0  0  0  0  0
  187.8260  178.5470  136.3130 C   0  0  0  0  0  2  0  0  0  0  0  0
  186.5430  177.7320  136.2820 C   0  0  0  0  0  2  0  0  0  0  0  0
  184.3610  176.1860  137.5910 O   0  0  0  0  0  1  0  0  0  0  0  0
  185.5110  178.2840  137.2540 C   0  0  1  0  0  3  0  0  0  0  0  0
  184.1900  177.5070  137.1670 C   0  0  2  0  0  3  0  0  0  0  0  0
  183.6000  179.3780  139.2340 S   0  0  0  0  0  0  0  0  0  0  0  0
  185.0270  178.3790  139.7650 C   0  0  0  0  0  2  0  0  0  0  0  0
  186.0950  178.3110  138.6710 C   0  0  0  0  0  2  0  0  0  0  0  0
  183.0560  178.1660  137.9660 C   0  0  0  0  0  2  0  0  0  0  0  0
  1  8  1  6  0  0  0
  1 10  1  0  0  0  0
  1  7  1  0  0  0  0
  2  6  1  0  0  0  0
  3  9  1  6  0  0  0
  5  2  2  0  0  0  0
  6 14  1  0  0  0  0
  7  2  1  6  0  0  0
  7  3  1  0  0  0  0
  9 13  1  0  0  0  0
 10  4  1  6  0  0  0
 10 15  1  0  0  0  0
 11  6  1  0  0  0  0
 13 12  2  0  0  0  0
 13 18  1  0  0  0  0
 14 24  1  6  0  0  0
 14  3  1  0  0  0  0
 15  9  1  0  0  0  0
 16 17  1  0  0  0  0
 16 22  1  1  0  0  0
 17 19  1  0  0  0  0
 18 21  2  0  0  0  0
 20 18  1  0  0  0  0
 20 16  1  0  0  0  0
 21 19  1  0  0  0  0
 24 23  1  1  0  0  0
 25 26  1  0  0  0  0
 25 24  1  0  0  0  0
 27 26  1  0  0  0  0
 29 27  1  6  0  0  0
 29 33  1  0  0  0  0
 30 29  1  0  0  0  0
 30 28  1  1  0  0  0
 30 34  1  0  0  0  0
 31 32  1  0  0  0  0
 33 32  1  0  0  0  0
 34 31  1  0  0  0  0
M  END
>  <MODEL>
6

>  <REMARK>
 VINA RESULT:      -5.3      6.600     10.362
  Name = 
  6 active torsions:
  status: ('A' for Active; 'I' for Inactive)
    1  A    between atoms: C_3  and  C_13
    2  A    between atoms: C_3  and  C_17
    3  A    between atoms: C_12  and  C_28
    4  A    between atoms: C_17  and  C_29
    5  A    between atoms: C_18  and  C_29
    6  A    between atoms: C_18  and  C_31
                            x       y       z     vdW  Elec       q    Type
                         _______ _______ _______ _____ _____    ______ ____

>  <TORSDO>
F 6

$$$$
=
 OpenBabel10252414553D

 34 37  0  0  1  0  0  0  0  0999 V2000
  186.7540  175.1730  136.2480 C   0  0  2  0  0  3  0  0  0  0  0  0
  187.0760  177.4960  135.5560 C   0  0  0  0  0  0  0  0  0  0  0  0
  185.1370  177.0310  136.7080 N   0  0  1  0  0  0  0  0  0  0  0  0
  186.3300  173.5240  137.9190 O   0  0  0  0  0  1  0  0  0  0  0  0
  187.8860  177.5720  134.5940 O   0  0  0  0  0  0  0  0  0  0  0  0
  187.0110  178.4470  136.5970 N   0  0  0  0  0  0  0  0  0  0  0  0
  186.0620  176.4360  135.7170 C   0  0  2  0  0  3  0  0  0  0  0  0
  187.5450  174.6010  135.2500 O   0  0  0  0  0  1  0  0  0  0  0  0
  184.4500  176.0820  137.5100 N   0  0  0  0  0  0  0  0  0  0  0  0
  185.7860  174.1250  136.7830 C   0  0  1  0  0  3  0  0  0  0  0  0
  187.4330  179.8260  136.4310 C   0  0  0  0  0  1  0  0  0  0  0  0
  183.0340  175.7560  139.3320 O   0  0  0  0  0  0  0  0  0  0  0  0
  183.3760  176.5030  138.3730 C   0  0  0  0  0  0  0  0  0  0  0  0
  185.9070  178.0660  137.4600 C   0  0  2  0  0  3  0  0  0  0  0  0
  184.4040  174.6760  137.1040 C   0  0  0  0  0  2  0  0  0  0  0  0
  181.8400  180.0460  139.0110 C   0  0  2  0  0  3  0  0  0  0  0  0
  181.7330  180.4330  137.5400 C   0  0  0  0  0  2  0  0  0  0  0  0
  182.6660  177.7880  138.1710 C   0  0  0  0  0  0  0  0  0  0  0  0
  181.2270  179.2450  136.7270 C   0  0  0  0  0  2  0  0  0  0  0  0
  182.8440  178.9050  139.1750 C   0  0  0  0  0  2  0  0  0  0  0  0
  182.0030  177.9920  137.0220 C   0  0  0  0  0  3  0  0  0  0  0  0
  180.6040  179.6690  139.5050 F   0  0  0  0  0  0  0  0  0  0  0  0
  186.0710  178.5310  139.8620 O   0  0  0  0  0  1  0  0  0  0  0  0
  186.4680  177.6660  138.8430 C   0  0  2  0  0  3  0  0  0  0  0  0
  187.9780  177.4920  138.8480 C   0  0  0  0  0  2  0  0  0  0  0  0
  188.6160  178.2110  140.0280 C   0  0  0  0  0  2  0  0  0  0  0  0
  189.6710  177.3340  140.6850 C   0  0  0  0  0  2  0  0  0  0  0  0
  189.9690  175.3100  142.8480 O   0  0  0  0  0  1  0  0  0  0  0  0
  189.7850  177.6230  142.1740 C   0  0  1  0  0  3  0  0  0  0  0  0
  189.2100  176.4720  143.0110 C   0  0  2  0  0  3  0  0  0  0  0  0
  190.1230  178.2420  145.0500 S   0  0  0  0  0  0  0  0  0  0  0  0
  191.5510  177.7820  144.0180 C   0  0  0  0  0  2  0  0  0  0  0  0
  191.2380  177.9520  142.5300 C   0  0  0  0  0  2  0  0  0  0  0  0
  189.1020  176.8160  144.5040 C   0  0  0  0  0  2  0  0  0  0  0  0
  1  8  1  6  0  0  0
  1 10  1  0  0  0  0
  2  6  1  0  0  0  0
  3 14  1  0  0  0  0
  3  9  1  1  0  0  0
  5  2  2  0  0  0  0
  6 14  1  0  0  0  0
  7  2  1  1  0  0  0
  7  1  1  0  0  0  0
  7  3  1  0  0  0  0
  9 13  1  0  0  0  0
 10 15  1  0  0  0  0
 10  4  1  1  0  0  0
 11  6  1  0  0  0  0
 13 12  2  0  0  0  0
 14 24  1  1  0  0  0
 15  9  1  0  0  0  0
 16 20  1  0  0  0  0
 16 22  1  6  0  0  0
 17 16  1  0  0  0  0
 18 13  1  0  0  0  0
 18 20  1  0  0  0  0
 19 21  1  0  0  0  0
 19 17  1  0  0  0  0
 21 18  2  0  0  0  0
 24 25  1  0  0  0  0
 24 23  1  1  0  0  0
 25 26  1  0  0  0  0
 26 27  1  0  0  0  0
 29 27  1  6  0  0  0
 29 33  1  0  0  0  0
 29 30  1  0  0  0  0
 30 28  1  1  0  0  0
 30 34  1  0  0  0  0
 32 31  1  0  0  0  0
 33 32  1  0  0  0  0
 34 31  1  0  0  0  0
M  END
>  <MODEL>
7

>  <REMARK>
 VINA RESULT:      -5.1      3.835      5.790
  Name = 
  6 active torsions:
  status: ('A' for Active; 'I' for Inactive)
    1  A    between atoms: C_3  and  C_13
    2  A    between atoms: C_3  and  C_17
    3  A    between atoms: C_12  and  C_28
    4  A    between atoms: C_17  and  C_29
    5  A    between atoms: C_18  and  C_29
    6  A    between atoms: C_18  and  C_31
                            x       y       z     vdW  Elec       q    Type
                         _______ _______ _______ _____ _____    ______ ____

>  <TORSDO>
F 6

$$$$
=
 OpenBabel10252414553D

 34 37  0  0  1  0  0  0  0  0999 V2000
  180.9660  176.9460  139.8780 C   0  0  2  0  0  3  0  0  0  0  0  0
  183.3300  177.5660  139.9590 C   0  0  0  0  0  0  0  0  0  0  0  0
  182.7840  175.7890  138.5990 N   0  0  1  0  0  0  0  0  0  0  0  0
  178.9540  176.5080  138.6730 O   0  0  0  0  0  1  0  0  0  0  0  0
  183.5920  178.2090  141.0110 O   0  0  0  0  0  0  0  0  0  0  0  0
  183.9200  177.8450  138.7080 N   0  0  0  0  0  0  0  0  0  0  0  0
  182.4070  176.4170  139.8860 C   0  0  2  0  0  3  0  0  0  0  0  0
  180.6290  177.4470  141.1370 O   0  0  0  0  0  1  0  0  0  0  0  0
  181.7300  175.0820  137.9630 N   0  0  0  0  0  0  0  0  0  0  0  0
  179.9350  175.9040  139.4600 C   0  0  1  0  0  3  0  0  0  0  0  0
  185.2200  178.4780  138.5740 C   0  0  0  0  0  1  0  0  0  0  0  0
  181.0470  173.9460  136.0460 O   0  0  0  0  0  0  0  0  0  0  0  0
  182.0010  174.2570  136.8140 C   0  0  0  0  0  0  0  0  0  0  0  0
  183.4370  176.8460  137.7710 C   0  0  2  0  0  3  0  0  0  0  0  0
  180.5320  174.7160  138.7190 C   0  0  0  0  0  2  0  0  0  0  0  0
  185.5200  172.5770  137.1540 C   0  0  2  0  0  3  0  0  0  0  0  0
  185.7630  172.4280  135.6570 C   0  0  0  0  0  2  0  0  0  0  0  0
  183.3650  173.7690  136.5030 C   0  0  0  0  0  0  0  0  0  0  0  0
  185.3140  173.6920  134.9300 C   0  0  0  0  0  2  0  0  0  0  0  0
  184.0270  172.7650  137.4210 C   0  0  0  0  0  2  0  0  0  0  0  0
  183.9270  174.1070  135.3320 C   0  0  0  0  0  3  0  0  0  0  0  0
  186.2340  173.6510  137.6570 F   0  0  0  0  0  0  0  0  0  0  0  0
  183.1980  177.6230  135.4570 O   0  0  0  0  0  1  0  0  0  0  0  0
  182.5690  177.5430  136.6990 C   0  0  2  0  0  3  0  0  0  0  0  0
  182.0680  178.9110  137.1330 C   0  0  0  0  0  2  0  0  0  0  0  0
  180.8880  179.3650  136.2840 C   0  0  0  0  0  2  0  0  0  0  0  0
  179.8400  180.0520  137.1450 C   0  0  0  0  0  2  0  0  0  0  0  0
  181.5790  182.2620  138.1250 O   0  0  0  0  0  1  0  0  0  0  0  0
  179.7070  181.5250  136.7880 C   0  0  1  0  0  3  0  0  0  0  0  0
  180.2050  182.4240  137.9270 C   0  0  2  0  0  3  0  0  0  0  0  0
  179.4800  184.3610  135.9670 S   0  0  0  0  0  0  0  0  0  0  0  0
  180.7570  183.2790  135.2500 C   0  0  0  0  0  2  0  0  0  0  0  0
  180.4140  181.8020  135.4570 C   0  0  0  0  0  2  0  0  0  0  0  0
  179.8850  183.9090  137.7000 C   0  0  0  0  0  2  0  0  0  0  0  0
  1  7  1  0  0  0  0
  1  8  1  1  0  0  0
  2  5  2  0  0  0  0
  3  9  1  6  0  0  0
  3  7  1  0  0  0  0
  6  2  1  0  0  0  0
  7  2  1  6  0  0  0
  9 15  1  0  0  0  0
 10  4  1  6  0  0  0
 10  1  1  0  0  0  0
 11  6  1  0  0  0  0
 12 13  2  0  0  0  0
 13  9  1  0  0  0  0
 14 24  1  6  0  0  0
 14  3  1  0  0  0  0
 14  6  1  0  0  0  0
 15 10  1  0  0  0  0
 16 20  1  0  0  0  0
 16 22  1  6  0  0  0
 17 16  1  0  0  0  0
 18 13  1  0  0  0  0
 18 20  1  0  0  0  0
 19 21  1  0  0  0  0
 19 17  1  0  0  0  0
 21 18  2  0  0  0  0
 24 23  1  6  0  0  0
 24 25  1  0  0  0  0
 26 25  1  0  0  0  0
 26 27  1  0  0  0  0
 29 27  1  1  0  0  0
 29 30  1  0  0  0  0
 30 28  1  6  0  0  0
 31 34  1  0  0  0  0
 32 33  1  0  0  0  0
 32 31  1  0  0  0  0
 33 29  1  0  0  0  0
 34 30  1  0  0  0  0
M  END
>  <MODEL>
8

>  <REMARK>
 VINA RESULT:      -5.0      4.070      7.529
  Name = 
  6 active torsions:
  status: ('A' for Active; 'I' for Inactive)
    1  A    between atoms: C_3  and  C_13
    2  A    between atoms: C_3  and  C_17
    3  A    between atoms: C_12  and  C_28
    4  A    between atoms: C_17  and  C_29
    5  A    between atoms: C_18  and  C_29
    6  A    between atoms: C_18  and  C_31
                            x       y       z     vdW  Elec       q    Type
                         _______ _______ _______ _____ _____    ______ ____

>  <TORSDO>
F 6

$$$$
=
 OpenBabel10252414553D

 34 37  0  0  1  0  0  0  0  0999 V2000
  182.4750  175.3590  138.2060 C   0  0  2  0  0  3  0  0  0  0  0  0
  184.2620  176.9070  137.5830 C   0  0  0  0  0  0  0  0  0  0  0  0
  182.1430  177.7970  137.7300 N   0  0  1  0  0  0  0  0  0  0  0  0
  180.6450  174.7230  139.5990 O   0  0  0  0  0  1  0  0  0  0  0  0
  185.2500  176.2870  137.1050 O   0  0  0  0  0  0  0  0  0  0  0  0
  184.3820  178.0480  138.4050 N   0  0  0  0  0  0  0  0  0  0  0  0
  182.8510  176.5610  137.3280 C   0  0  2  0  0  3  0  0  0  0  0  0
  183.0970  174.2030  137.7340 O   0  0  0  0  0  1  0  0  0  0  0  0
  180.8150  177.5890  138.1850 N   0  0  0  0  0  0  0  0  0  0  0  0
  180.9730  175.1180  138.3020 C   0  0  1  0  0  3  0  0  0  0  0  0
  185.5310  178.9350  138.3590 C   0  0  0  0  0  1  0  0  0  0  0  0
  178.9310  178.5580  139.1570 O   0  0  0  0  0  0  0  0  0  0  0  0
  179.9430  178.7120  138.4170 C   0  0  0  0  0  0  0  0  0  0  0  0
  183.0380  178.5240  138.6800 C   0  0  2  0  0  3  0  0  0  0  0  0
  180.1340  176.3250  137.9040 C   0  0  0  0  0  2  0  0  0  0  0  0
  180.7450  182.5230  138.0240 C   0  0  2  0  0  3  0  0  0  0  0  0
  181.1900  182.4360  136.5690 C   0  0  0  0  0  2  0  0  0  0  0  0
  180.2030  180.0430  137.8190 C   0  0  0  0  0  0  0  0  0  0  0  0
  180.2510  181.5170  135.7930 C   0  0  0  0  0  2  0  0  0  0  0  0
  180.8060  181.1390  138.6690 C   0  0  0  0  0  2  0  0  0  0  0  0
  180.0430  180.2050  136.4960 C   0  0  0  0  0  3  0  0  0  0  0  0
  179.4610  183.0330  138.1090 F   0  0  0  0  0  0  0  0  0  0  0  0
  182.5380  179.5810  140.8350 O   0  0  0  0  0  1  0  0  0  0  0  0
  182.7490  178.3640  140.1890 C   0  0  2  0  0  3  0  0  0  0  0  0
  183.8050  177.5490  140.9170 C   0  0  0  0  0  2  0  0  0  0  0  0
  184.2540  178.2380  142.1980 C   0  0  0  0  0  2  0  0  0  0  0  0
  185.6240  178.8710  142.0170 C   0  0  0  0  0  2  0  0  0  0  0  0
  188.5480  179.4040  141.8390 O   0  0  0  0  0  1  0  0  0  0  0  0
  186.7370  177.8910  142.3570 C   0  0  1  0  0  3  0  0  0  0  0  0
  187.9950  178.1610  141.5190 C   0  0  2  0  0  3  0  0  0  0  0  0
  188.8660  175.9890  143.1460 S   0  0  0  0  0  0  0  0  0  0  0  0
  188.3830  177.3610  144.2430 C   0  0  0  0  0  2  0  0  0  0  0  0
  187.0080  177.9160  143.8650 C   0  0  0  0  0  2  0  0  0  0  0  0
  189.0590  177.0640  141.6700 C   0  0  0  0  0  2  0  0  0  0  0  0
  1  8  1  6  0  0  0
  1 10  1  0  0  0  0
  2  6  1  0  0  0  0
  3  9  1  1  0  0  0
  3 14  1  0  0  0  0
  5  2  2  0  0  0  0
  6 14  1  0  0  0  0
  7  2  1  1  0  0  0
  7  3  1  0  0  0  0
  7  1  1  0  0  0  0
  9 13  1  0  0  0  0
 10  4  1  1  0  0  0
 11  6  1  0  0  0  0
 13 12  2  0  0  0  0
 14 24  1  1  0  0  0
 15  9  1  0  0  0  0
 15 10  1  0  0  0  0
 16 22  1  6  0  0  0
 16 20  1  0  0  0  0
 17 16  1  0  0  0  0
 18 13  1  0  0  0  0
 18 20  1  0  0  0  0
 19 21  1  0  0  0  0
 19 17  1  0  0  0  0
 21 18  2  0  0  0  0
 24 23  1  1  0  0  0
 24 25  1  0  0  0  0
 25 26  1  0  0  0  0
 27 26  1  0  0  0  0
 29 27  1  1  0  0  0
 29 33  1  0  0  0  0
 30 34  1  0  0  0  0
 30 28  1  1  0  0  0
 30 29  1  0  0  0  0
 31 32  1  0  0  0  0
 33 32  1  0  0  0  0
 34 31  1  0  0  0  0
M  END
>  <MODEL>
9

>  <REMARK>
 VINA RESULT:      -4.7      1.892      2.762
  Name = 
  6 active torsions:
  status: ('A' for Active; 'I' for Inactive)
    1  A    between atoms: C_3  and  C_13
    2  A    between atoms: C_3  and  C_17
    3  A    between atoms: C_12  and  C_28
    4  A    between atoms: C_17  and  C_29
    5  A    between atoms: C_18  and  C_29
    6  A    between atoms: C_18  and  C_31
                            x       y       z     vdW  Elec       q    Type
                         _______ _______ _______ _____ _____    ______ ____

>  <TORSDO>
F 6

$$$$
