=
 OpenBabel10262421593D

 30 34  0  0  1  0  0  0  0  0999 V2000
  186.2420  177.8100  143.8110 C   0  0  0  0  0  0  0  0  0  0  0  0
  185.4870  177.8160  146.2930 C   0  0  1  0  0  3  0  0  0  0  0  0
  189.9710  178.1100  146.2950 C   0  0  0  0  0  3  0  0  0  0  0  0
  187.4160  177.7370  143.1950 C   0  0  0  0  0  0  0  0  0  0  0  0
  185.3220  178.4430  143.0050 C   0  0  0  0  0  3  0  0  0  0  0  0
  187.3900  178.2960  141.9770 N   0  0  0  0  0  0  0  0  0  0  0  0
  190.5340  178.2150  145.0810 C   0  0  0  0  0  0  0  0  0  0  0  0
  186.0920  178.7150  141.8580 C   0  0  0  0  0  0  0  0  0  0  0  0
  185.7810  179.1270  147.0280 C   0  0  0  0  0  2  0  0  0  0  0  0
  184.1630  177.8020  145.8510 O   0  0  0  0  0  1  0  0  0  0  0  0
  188.6570  177.4050  146.5290 C   0  0  1  0  0  3  0  0  0  0  0  0
  187.9500  177.9920  147.7580 C   0  0  0  0  0  2  0  0  0  0  0  0
  186.4360  177.5720  145.1570 C   0  0  0  0  0  0  0  0  0  0  0  0
  188.4290  177.5160  144.0500 N   0  0  0  0  0  0  0  0  0  0  0  0
  191.7580  178.8590  144.9580 O   0  0  0  0  0  1  0  0  0  0  0  0
  189.8710  177.6510  143.8450 C   0  0  2  0  0  3  0  0  0  0  0  0
  187.2470  179.3140  147.4440 C   0  0  0  0  0  2  0  0  0  0  0  0
  187.8300  177.4080  145.2650 C   0  0  0  0  0  0  0  0  0  0  0  0
  183.9320  177.8650  140.1080 O   0  0  0  0  0  0  0  0  0  0  0  0
  185.5640  179.4240  140.7310 N   0  0  0  0  0  2  0  0  0  0  0  0
  183.8280  179.9540  138.9850 C   0  0  0  0  0  1  0  0  0  0  0  0
  184.4190  179.0200  139.9770 C   0  0  0  0  0  0  0  0  0  0  0  0
  191.4670  175.7660  144.3660 N   0  0  0  0  0  2  0  0  0  0  0  0
  190.4830  176.3280  143.4970 C   0  0  0  0  0  0  0  0  0  0  0  0
  190.1010  175.7000  142.4730 O   0  0  0  0  0  0  0  0  0  0  0  0
  192.0810  174.4710  144.1140 C   0  0  0  0  0  2  0  0  0  0  0  0
  192.7480  174.0420  145.2460 F   0  0  0  0  0  0  0  0  0  0  0  0
  188.0250  178.2300  139.6100 C   0  0  0  0  0  2  0  0  0  0  0  0
  188.7620  177.1280  140.3270 C   0  0  0  0  0  2  0  0  0  0  0  0
  188.5030  178.4470  141.0390 C   0  0  0  0  0  3  0  0  0  0  0  0
  1 13  1  0  0  0  0
  2 10  1  6  0  0  0
  2  9  1  0  0  0  0
  4  1  2  0  0  0  0
  4 14  1  0  0  0  0
  5  1  1  0  0  0  0
  6  4  1  0  0  0  0
  7  3  2  0  0  0  0
  8  6  1  0  0  0  0
  8  5  2  0  0  0  0
  9 17  1  0  0  0  0
 11  3  1  6  0  0  0
 11 12  1  0  0  0  0
 13 18  2  0  0  0  0
 13  2  1  0  0  0  0
 14 18  1  0  0  0  0
 15  7  1  0  0  0  0
 16 24  1  1  0  0  0
 16 14  1  0  0  0  0
 16  7  1  0  0  0  0
 17 12  1  0  0  0  0
 18 11  1  0  0  0  0
 20  8  1  0  0  0  0
 21 22  1  0  0  0  0
 22 19  2  0  0  0  0
 22 20  1  0  0  0  0
 24 23  1  0  0  0  0
 25 24  2  0  0  0  0
 26 23  1  0  0  0  0
 26 27  1  0  0  0  0
 28 29  1  0  0  0  0
 28 30  1  0  0  0  0
 29 30  1  0  0  0  0
 30  6  1  0  0  0  0
M  END
>  <MODEL>
1

>  <REMARK>
 VINA RESULT:      -8.1      0.000      0.000
  Name = 
  4 active torsions:
  status: ('A' for Active; 'I' for Inactive)
    1  A    between atoms: N_7  and  C_16
    2  A    between atoms: N_8  and  C_30
    3  A    between atoms: N_9  and  C_12
    4  A    between atoms: C_10  and  C_25
                            x       y       z     vdW  Elec       q    Type
                         _______ _______ _______ _____ _____    ______ ____

>  <TORSDO>
F 4

$$$$
=
 OpenBabel10262421593D

 30 34  0  0  1  0  0  0  0  0999 V2000
  187.6980  178.1870  139.4150 C   0  0  0  0  0  0  0  0  0  0  0  0
  185.5900  178.2640  137.9050 C   0  0  1  0  0  3  0  0  0  0  0  0
  188.1220  174.8560  136.4340 C   0  0  0  0  0  3  0  0  0  0  0  0
  188.8400  177.5100  139.3860 C   0  0  0  0  0  0  0  0  0  0  0  0
  187.4050  178.5680  140.7050 C   0  0  0  0  0  3  0  0  0  0  0  0
  189.3870  177.3780  140.6030 N   0  0  0  0  0  0  0  0  0  0  0  0
  189.2200  174.6070  137.1650 C   0  0  0  0  0  0  0  0  0  0  0  0
  188.5070  178.0480  141.4100 C   0  0  0  0  0  0  0  0  0  0  0  0
  184.6860  177.0350  138.0380 C   0  0  0  0  0  2  0  0  0  0  0  0
  185.1040  179.3030  138.7000 O   0  0  0  0  0  1  0  0  0  0  0  0
  187.5010  176.2280  136.3320 C   0  0  1  0  0  3  0  0  0  0  0  0
  185.9970  176.1110  136.0490 C   0  0  0  0  0  2  0  0  0  0  0  0
  187.0220  177.9590  138.2340 C   0  0  0  0  0  0  0  0  0  0  0  0
  188.9700  176.7760  138.2680 N   0  0  0  0  0  0  0  0  0  0  0  0
  189.7420  173.3200  137.1830 O   0  0  0  0  0  1  0  0  0  0  0  0
  189.9040  175.6900  137.9670 C   0  0  2  0  0  3  0  0  0  0  0  0
  185.1960  175.7820  137.3110 C   0  0  0  0  0  2  0  0  0  0  0  0
  187.8520  177.0520  137.5480 C   0  0  0  0  0  0  0  0  0  0  0  0
  187.7520  176.0580  143.3900 O   0  0  0  0  0  0  0  0  0  0  0  0
  188.6280  178.1570  142.8330 N   0  0  0  0  0  2  0  0  0  0  0  0
  188.7420  177.2570  145.1840 C   0  0  0  0  0  1  0  0  0  0  0  0
  188.3560  177.1000  143.7580 C   0  0  0  0  0  0  0  0  0  0  0  0
  192.3960  175.7460  137.5720 N   0  0  0  0  0  2  0  0  0  0  0  0
  191.0930  176.2070  137.2160 C   0  0  0  0  0  0  0  0  0  0  0  0
  190.9400  177.0070  136.2530 O   0  0  0  0  0  0  0  0  0  0  0  0
  193.5950  176.1760  136.8690 C   0  0  0  0  0  2  0  0  0  0  0  0
  194.6290  175.2940  137.1260 F   0  0  0  0  0  0  0  0  0  0  0  0
  191.4390  177.4680  141.9400 C   0  0  0  0  0  2  0  0  0  0  0  0
  191.8270  177.4280  140.4840 C   0  0  0  0  0  2  0  0  0  0  0  0
  190.6080  176.6530  140.9600 C   0  0  0  0  0  3  0  0  0  0  0  0
  1  5  1  0  0  0  0
  2  9  1  0  0  0  0
  2 13  1  0  0  0  0
  2 10  1  1  0  0  0
  3  7  2  0  0  0  0
  4  1  2  0  0  0  0
  4  6  1  0  0  0  0
  5  8  2  0  0  0  0
  6 30  1  0  0  0  0
  6  8  1  0  0  0  0
  7 15  1  0  0  0  0
  7 16  1  0  0  0  0
  8 20  1  0  0  0  0
 11 12  1  1  0  0  0
 11  3  1  0  0  0  0
 11 18  1  0  0  0  0
 12 17  1  0  0  0  0
 13  1  1  0  0  0  0
 14  4  1  0  0  0  0
 16 24  1  6  0  0  0
 16 14  1  0  0  0  0
 17  9  1  0  0  0  0
 18 13  2  0  0  0  0
 18 14  1  0  0  0  0
 19 22  2  0  0  0  0
 20 22  1  0  0  0  0
 22 21  1  0  0  0  0
 24 23  1  0  0  0  0
 25 24  2  0  0  0  0
 26 27  1  0  0  0  0
 26 23  1  0  0  0  0
 29 30  1  0  0  0  0
 29 28  1  0  0  0  0
 30 28  1  0  0  0  0
M  END
>  <MODEL>
2

>  <REMARK>
 VINA RESULT:      -7.7      3.791      7.179
  Name = 
  4 active torsions:
  status: ('A' for Active; 'I' for Inactive)
    1  A    between atoms: N_7  and  C_16
    2  A    between atoms: N_8  and  C_30
    3  A    between atoms: N_9  and  C_12
    4  A    between atoms: C_10  and  C_25
                            x       y       z     vdW  Elec       q    Type
                         _______ _______ _______ _____ _____    ______ ____

>  <TORSDO>
F 4

$$$$
=
 OpenBabel10262421593D

 30 34  0  0  1  0  0  0  0  0999 V2000
  187.7190  178.1820  139.8690 C   0  0  0  0  0  0  0  0  0  0  0  0
  188.2760  178.3760  142.3950 C   0  0  1  0  0  3  0  0  0  0  0  0
  183.7970  178.3000  142.0520 C   0  0  0  0  0  3  0  0  0  0  0  0
  186.6020  178.2530  139.1530 C   0  0  0  0  0  0  0  0  0  0  0  0
  188.6620  177.4320  139.2030 C   0  0  0  0  0  3  0  0  0  0  0  0
  186.6920  177.5810  137.9980 N   0  0  0  0  0  0  0  0  0  0  0  0
  183.3250  178.1080  140.8100 C   0  0  0  0  0  0  0  0  0  0  0  0
  187.9700  177.0910  138.0250 C   0  0  0  0  0  0  0  0  0  0  0  0
  187.8530  177.1560  143.2200 C   0  0  0  0  0  2  0  0  0  0  0  0
  189.6290  178.2840  142.0660 O   0  0  0  0  0  1  0  0  0  0  0  0
  185.1250  178.9600  142.3290 C   0  0  1  0  0  3  0  0  0  0  0  0
  185.7000  178.4590  143.6610 C   0  0  0  0  0  2  0  0  0  0  0  0
  187.4340  178.5560  141.1670 C   0  0  0  0  0  0  0  0  0  0  0  0
  185.5400  178.6030  139.8980 N   0  0  0  0  0  0  0  0  0  0  0  0
  182.0800  177.5150  140.6440 O   0  0  0  0  0  1  0  0  0  0  0  0
  184.1120  178.5200  139.5870 C   0  0  2  0  0  3  0  0  0  0  0  0
  186.3510  177.0800  143.5270 C   0  0  0  0  0  2  0  0  0  0  0  0
  186.0470  178.7970  141.1440 C   0  0  0  0  0  0  0  0  0  0  0  0
  189.1360  177.9380  135.5010 O   0  0  0  0  0  0  0  0  0  0  0  0
  188.5440  176.2530  137.0150 N   0  0  0  0  0  2  0  0  0  0  0  0
  189.9720  175.7740  134.9960 C   0  0  0  0  0  1  0  0  0  0  0  0
  189.2160  176.7290  135.8460 C   0  0  0  0  0  0  0  0  0  0  0  0
  182.1970  180.0300  138.9400 N   0  0  0  0  0  2  0  0  0  0  0  0
  183.6040  179.8310  139.0710 C   0  0  0  0  0  0  0  0  0  0  0  0
  184.4100  180.7630  138.7980 O   0  0  0  0  0  0  0  0  0  0  0  0
  181.6260  181.2860  138.4790 C   0  0  0  0  0  2  0  0  0  0  0  0
  181.3930  181.2220  137.1170 F   0  0  0  0  0  0  0  0  0  0  0  0
  184.7470  176.2300  137.3660 C   0  0  0  0  0  2  0  0  0  0  0  0
  185.8120  176.0410  136.3170 C   0  0  0  0  0  2  0  0  0  0  0  0
  185.6490  177.3960  136.9880 C   0  0  0  0  0  3  0  0  0  0  0  0
  1 13  1  0  0  0  0
  2 10  1  6  0  0  0
  2  9  1  0  0  0  0
  4  1  2  0  0  0  0
  4 14  1  0  0  0  0
  5  1  1  0  0  0  0
  6  8  1  0  0  0  0
  6  4  1  0  0  0  0
  7  3  2  0  0  0  0
  8  5  2  0  0  0  0
  9 17  1  0  0  0  0
 11  3  1  6  0  0  0
 11 12  1  0  0  0  0
 13  2  1  0  0  0  0
 14 18  1  0  0  0  0
 15  7  1  0  0  0  0
 16 24  1  1  0  0  0
 16 14  1  0  0  0  0
 16  7  1  0  0  0  0
 17 12  1  0  0  0  0
 18 13  2  0  0  0  0
 18 11  1  0  0  0  0
 19 22  2  0  0  0  0
 20  8  1  0  0  0  0
 21 22  1  0  0  0  0
 22 20  1  0  0  0  0
 23 24  1  0  0  0  0
 25 24  2  0  0  0  0
 26 23  1  0  0  0  0
 27 26  1  0  0  0  0
 29 30  1  0  0  0  0
 29 28  1  0  0  0  0
 30 28  1  0  0  0  0
 30  6  1  0  0  0  0
M  END
>  <MODEL>
3

>  <REMARK>
 VINA RESULT:      -7.1      4.275      7.331
  Name = 
  4 active torsions:
  status: ('A' for Active; 'I' for Inactive)
    1  A    between atoms: N_7  and  C_16
    2  A    between atoms: N_8  and  C_30
    3  A    between atoms: N_9  and  C_12
    4  A    between atoms: C_10  and  C_25
                            x       y       z     vdW  Elec       q    Type
                         _______ _______ _______ _____ _____    ______ ____

>  <TORSDO>
F 4

$$$$
=
 OpenBabel10262421593D

 30 34  0  0  1  0  0  0  0  0999 V2000
  186.7810  178.5550  141.1460 C   0  0  0  0  0  0  0  0  0  0  0  0
  187.7210  178.5080  138.7290 C   0  0  1  0  0  3  0  0  0  0  0  0
  190.5380  176.1000  141.2680 C   0  0  0  0  0  3  0  0  0  0  0  0
  187.2330  178.1550  142.3290 C   0  0  0  0  0  0  0  0  0  0  0  0
  185.4050  178.5840  141.1490 C   0  0  0  0  0  3  0  0  0  0  0  0
  186.2420  177.8850  143.1900 N   0  0  0  0  0  0  0  0  0  0  0  0
  190.1550  175.9370  142.5440 C   0  0  0  0  0  0  0  0  0  0  0  0
  185.1170  178.1680  142.4630 C   0  0  0  0  0  0  0  0  0  0  0  0
  187.7140  177.1170  138.0870 C   0  0  0  0  0  2  0  0  0  0  0  0
  186.5980  179.2290  138.3180 O   0  0  0  0  0  1  0  0  0  0  0  0
  190.1440  177.3000  140.4430 C   0  0  1  0  0  3  0  0  0  0  0  0
  190.1110  176.9330  138.9530 C   0  0  0  0  0  2  0  0  0  0  0  0
  187.8040  178.4470  140.2260 C   0  0  0  0  0  0  0  0  0  0  0  0
  188.5030  177.7190  142.2700 N   0  0  0  0  0  0  0  0  0  0  0  0
  190.5840  174.8140  143.2400 O   0  0  0  0  0  1  0  0  0  0  0  0
  189.2710  176.9430  143.2440 C   0  0  2  0  0  3  0  0  0  0  0  0
  188.8330  176.1830  138.5710 C   0  0  0  0  0  2  0  0  0  0  0  0
  188.8650  177.9010  140.9730 C   0  0  0  0  0  0  0  0  0  0  0  0
  183.4450  180.1610  143.7590 O   0  0  0  0  0  0  0  0  0  0  0  0
  183.7760  177.9940  142.9360 N   0  0  0  0  0  2  0  0  0  0  0  0
  181.5080  178.7900  143.6920 C   0  0  0  0  0  1  0  0  0  0  0  0
  182.9530  179.0420  143.4550 C   0  0  0  0  0  0  0  0  0  0  0  0
  190.5700  179.0840  143.5630 N   0  0  0  0  0  2  0  0  0  0  0  0
  190.1050  177.8460  144.1020 C   0  0  0  0  0  0  0  0  0  0  0  0
  190.3550  177.5350  145.2980 O   0  0  0  0  0  0  0  0  0  0  0  0
  191.3540  180.0280  144.3440 C   0  0  0  0  0  2  0  0  0  0  0  0
  192.6620  179.5860  144.4360 F   0  0  0  0  0  0  0  0  0  0  0  0
  185.5400  178.2270  145.5140 C   0  0  0  0  0  2  0  0  0  0  0  0
  187.0340  178.4110  145.4400 C   0  0  0  0  0  2  0  0  0  0  0  0
  186.3600  177.3730  144.5560 C   0  0  0  0  0  3  0  0  0  0  0  0
  1  5  1  0  0  0  0
  1  4  2  0  0  0  0
  2 10  1  1  0  0  0
  2 13  1  0  0  0  0
  3  7  2  0  0  0  0
  4  6  1  0  0  0  0
  5  8  2  0  0  0  0
  6 30  1  0  0  0  0
  7 15  1  0  0  0  0
  7 16  1  0  0  0  0
  8 20  1  0  0  0  0
  8  6  1  0  0  0  0
  9 17  1  0  0  0  0
  9  2  1  0  0  0  0
 11 12  1  6  0  0  0
 11 18  1  0  0  0  0
 11  3  1  0  0  0  0
 13 18  2  0  0  0  0
 13  1  1  0  0  0  0
 14  4  1  0  0  0  0
 14 16  1  0  0  0  0
 16 24  1  6  0  0  0
 17 12  1  0  0  0  0
 18 14  1  0  0  0  0
 20 22  1  0  0  0  0
 22 21  1  0  0  0  0
 22 19  2  0  0  0  0
 23 24  1  0  0  0  0
 23 26  1  0  0  0  0
 24 25  2  0  0  0  0
 26 27  1  0  0  0  0
 29 28  1  0  0  0  0
 30 29  1  0  0  0  0
 30 28  1  0  0  0  0
M  END
>  <MODEL>
4

>  <REMARK>
 VINA RESULT:      -7.1      2.162      5.198
  Name = 
  4 active torsions:
  status: ('A' for Active; 'I' for Inactive)
    1  A    between atoms: N_7  and  C_16
    2  A    between atoms: N_8  and  C_30
    3  A    between atoms: N_9  and  C_12
    4  A    between atoms: C_10  and  C_25
                            x       y       z     vdW  Elec       q    Type
                         _______ _______ _______ _____ _____    ______ ____

>  <TORSDO>
F 4

$$$$
=
 OpenBabel10262421593D

 30 34  0  0  1  0  0  0  0  0999 V2000
  188.4820  176.9390  142.5030 C   0  0  0  0  0  0  0  0  0  0  0  0
  190.9260  176.0720  142.4400 C   0  0  1  0  0  3  0  0  0  0  0  0
  190.1850  178.1630  138.5330 C   0  0  0  0  0  3  0  0  0  0  0  0
  187.6670  177.4930  141.6130 C   0  0  0  0  0  0  0  0  0  0  0  0
  188.1120  177.3050  143.7770 C   0  0  0  0  0  3  0  0  0  0  0  0
  186.7240  178.2530  142.1870 N   0  0  0  0  0  0  0  0  0  0  0  0
  188.9880  178.7610  138.4270 C   0  0  0  0  0  0  0  0  0  0  0  0
  186.9920  178.1200  143.5230 C   0  0  0  0  0  0  0  0  0  0  0  0
  191.9790  177.1840  142.4000 C   0  0  0  0  0  2  0  0  0  0  0  0
  190.7600  175.6180  143.7500 O   0  0  0  0  0  1  0  0  0  0  0  0
  190.4190  176.9500  139.4000 C   0  0  1  0  0  3  0  0  0  0  0  0
  191.8810  176.9010  139.8620 C   0  0  0  0  0  2  0  0  0  0  0  0
  189.6160  176.5020  141.8490 C   0  0  0  0  0  0  0  0  0  0  0  0
  188.1990  177.5170  140.3790 N   0  0  0  0  0  0  0  0  0  0  0  0
  188.8540  179.8590  137.5860 O   0  0  0  0  0  1  0  0  0  0  0  0
  187.7830  178.2720  139.1970 C   0  0  2  0  0  3  0  0  0  0  0  0
  192.1510  177.8540  141.0290 C   0  0  0  0  0  2  0  0  0  0  0  0
  189.4020  176.9020  140.5160 C   0  0  0  0  0  0  0  0  0  0  0  0
  186.3910  177.0840  146.1710 O   0  0  0  0  0  0  0  0  0  0  0  0
  186.2760  178.7870  144.5690 N   0  0  0  0  0  2  0  0  0  0  0  0
  185.5590  179.1650  146.9540 C   0  0  0  0  0  1  0  0  0  0  0  0
  186.1140  178.2820  145.8970 C   0  0  0  0  0  0  0  0  0  0  0  0
  185.6330  177.9220  137.9230 N   0  0  0  0  0  2  0  0  0  0  0  0
  186.9170  177.4320  138.3090 C   0  0  0  0  0  0  0  0  0  0  0  0
  187.3360  176.3250  137.8730 O   0  0  0  0  0  0  0  0  0  0  0  0
  184.7490  177.1800  137.0370 C   0  0  0  0  0  2  0  0  0  0  0  0
  184.1060  176.1820  137.7460 F   0  0  0  0  0  0  0  0  0  0  0  0
  184.4080  179.0410  142.3340 C   0  0  0  0  0  2  0  0  0  0  0  0
  184.5310  178.1650  141.1140 C   0  0  0  0  0  2  0  0  0  0  0  0
  185.6950  179.0540  141.5220 C   0  0  0  0  0  3  0  0  0  0  0  0
  1  5  1  0  0  0  0
  2 10  1  1  0  0  0
  4  6  1  0  0  0  0
  4  1  2  0  0  0  0
  6  8  1  0  0  0  0
  7  3  2  0  0  0  0
  7 16  1  0  0  0  0
  8  5  2  0  0  0  0
  8 20  1  0  0  0  0
  9  2  1  0  0  0  0
 11  3  1  1  0  0  0
 11 12  1  0  0  0  0
 11 18  1  0  0  0  0
 12 17  1  0  0  0  0
 13  2  1  0  0  0  0
 13  1  1  0  0  0  0
 14 18  1  0  0  0  0
 14  4  1  0  0  0  0
 15  7  1  0  0  0  0
 16 24  1  6  0  0  0
 16 14  1  0  0  0  0
 17  9  1  0  0  0  0
 18 13  2  0  0  0  0
 20 22  1  0  0  0  0
 22 19  2  0  0  0  0
 22 21  1  0  0  0  0
 23 24  1  0  0  0  0
 25 24  2  0  0  0  0
 26 27  1  0  0  0  0
 26 23  1  0  0  0  0
 29 30  1  0  0  0  0
 29 28  1  0  0  0  0
 30  6  1  0  0  0  0
 30 28  1  0  0  0  0
M  END
>  <MODEL>
5

>  <REMARK>
 VINA RESULT:      -6.9      3.092      6.475
  Name = 
  4 active torsions:
  status: ('A' for Active; 'I' for Inactive)
    1  A    between atoms: N_7  and  C_16
    2  A    between atoms: N_8  and  C_30
    3  A    between atoms: N_9  and  C_12
    4  A    between atoms: C_10  and  C_25
                            x       y       z     vdW  Elec       q    Type
                         _______ _______ _______ _____ _____    ______ ____

>  <TORSDO>
F 4

$$$$
=
 OpenBabel10262421593D

 30 34  0  0  1  0  0  0  0  0999 V2000
  187.9360  177.3040  141.7400 C   0  0  0  0  0  0  0  0  0  0  0  0
  188.7140  176.8850  144.1790 C   0  0  1  0  0  3  0  0  0  0  0  0
  192.4260  177.2830  141.6790 C   0  0  0  0  0  3  0  0  0  0  0  0
  188.5490  177.3620  140.5640 C   0  0  0  0  0  0  0  0  0  0  0  0
  186.7720  178.0380  141.7040 C   0  0  0  0  0  3  0  0  0  0  0  0
  187.8830  178.1120  139.6760 N   0  0  0  0  0  0  0  0  0  0  0  0
  192.2120  177.5990  140.3920 C   0  0  0  0  0  0  0  0  0  0  0  0
  186.7780  178.5120  140.3790 C   0  0  0  0  0  0  0  0  0  0  0  0
  189.4660  178.0650  144.8030 C   0  0  0  0  0  2  0  0  0  0  0  0
  187.3740  176.9110  144.5720 O   0  0  0  0  0  1  0  0  0  0  0  0
  191.4250  176.5180  142.5100 C   0  0  1  0  0  3  0  0  0  0  0  0
  191.5790  176.8780  143.9930 C   0  0  0  0  0  2  0  0  0  0  0  0
  188.8370  176.8540  142.6840 C   0  0  0  0  0  0  0  0  0  0  0  0
  189.8480  177.0280  140.6490 N   0  0  0  0  0  0  0  0  0  0  0  0
  193.1980  178.2840  139.6920 O   0  0  0  0  0  1  0  0  0  0  0  0
  190.9300  177.2290  139.6840 C   0  0  2  0  0  3  0  0  0  0  0  0
  190.9210  178.2170  144.3350 C   0  0  0  0  0  2  0  0  0  0  0  0
  190.0330  176.7080  141.9560 C   0  0  0  0  0  0  0  0  0  0  0  0
  184.2180  177.7400  139.2400 O   0  0  0  0  0  0  0  0  0  0  0  0
  185.7610  179.3840  139.8710 N   0  0  0  0  0  2  0  0  0  0  0  0
  183.4190  179.9740  139.1540 C   0  0  0  0  0  1  0  0  0  0  0  0
  184.4670  178.9600  139.4350 C   0  0  0  0  0  0  0  0  0  0  0  0
  192.4330  175.7360  138.3130 N   0  0  0  0  0  2  0  0  0  0  0  0
  191.1400  175.9970  138.8580 C   0  0  0  0  0  0  0  0  0  0  0  0
  190.1960  175.1780  138.6840 O   0  0  0  0  0  0  0  0  0  0  0  0
  192.7240  174.5440  137.5300 C   0  0  0  0  0  2  0  0  0  0  0  0
  193.8490  173.9170  138.0330 F   0  0  0  0  0  0  0  0  0  0  0  0
  187.0940  178.3090  137.3630 C   0  0  0  0  0  2  0  0  0  0  0  0
  188.1320  177.2170  137.4160 C   0  0  0  0  0  2  0  0  0  0  0  0
  188.2810  178.4410  138.3060 C   0  0  0  0  0  3  0  0  0  0  0  0
  1 13  1  0  0  0  0
  2 10  1  6  0  0  0
  2  9  1  0  0  0  0
  4 14  1  0  0  0  0
  4  1  2  0  0  0  0
  5  1  1  0  0  0  0
  6  8  1  0  0  0  0
  6  4  1  0  0  0  0
  7  3  2  0  0  0  0
  8  5  2  0  0  0  0
 11  3  1  6  0  0  0
 11 12  1  0  0  0  0
 12 17  1  0  0  0  0
 13  2  1  0  0  0  0
 14 18  1  0  0  0  0
 15  7  1  0  0  0  0
 16 24  1  1  0  0  0
 16  7  1  0  0  0  0
 16 14  1  0  0  0  0
 17  9  1  0  0  0  0
 18 11  1  0  0  0  0
 18 13  2  0  0  0  0
 19 22  2  0  0  0  0
 20  8  1  0  0  0  0
 21 22  1  0  0  0  0
 22 20  1  0  0  0  0
 23 24  1  0  0  0  0
 25 24  2  0  0  0  0
 26 27  1  0  0  0  0
 26 23  1  0  0  0  0
 28 29  1  0  0  0  0
 28 30  1  0  0  0  0
 29 30  1  0  0  0  0
 30  6  1  0  0  0  0
M  END
>  <MODEL>
6

>  <REMARK>
 VINA RESULT:      -6.6      2.923      4.057
  Name = 
  4 active torsions:
  status: ('A' for Active; 'I' for Inactive)
    1  A    between atoms: N_7  and  C_16
    2  A    between atoms: N_8  and  C_30
    3  A    between atoms: N_9  and  C_12
    4  A    between atoms: C_10  and  C_25
                            x       y       z     vdW  Elec       q    Type
                         _______ _______ _______ _____ _____    ______ ____

>  <TORSDO>
F 4

$$$$
=
 OpenBabel10262421593D

 30 34  0  0  1  0  0  0  0  0999 V2000
  187.0370  178.6180  140.3810 C   0  0  0  0  0  0  0  0  0  0  0  0
  188.3410  178.4260  138.1460 C   0  0  1  0  0  3  0  0  0  0  0  0
  190.6630  176.1030  141.2120 C   0  0  0  0  0  3  0  0  0  0  0  0
  187.2880  178.2720  141.6380 C   0  0  0  0  0  0  0  0  0  0  0  0
  185.6780  178.6720  140.1660 C   0  0  0  0  0  3  0  0  0  0  0  0
  186.1680  178.0660  142.3450 N   0  0  0  0  0  0  0  0  0  0  0  0
  190.0810  176.0140  142.4180 C   0  0  0  0  0  0  0  0  0  0  0  0
  185.1780  178.3310  141.4370 C   0  0  0  0  0  0  0  0  0  0  0  0
  188.3980  177.0040  137.5800 C   0  0  0  0  0  2  0  0  0  0  0  0
  187.3150  179.1450  137.5290 O   0  0  0  0  0  1  0  0  0  0  0  0
  190.4340  177.2650  140.2770 C   0  0  1  0  0  3  0  0  0  0  0  0
  190.6240  176.8210  138.8200 C   0  0  0  0  0  2  0  0  0  0  0  0
  188.1880  178.4430  139.6380 C   0  0  0  0  0  0  0  0  0  0  0  0
  188.5400  177.8100  141.8000 N   0  0  0  0  0  0  0  0  0  0  0  0
  190.3660  174.9220  143.2270 O   0  0  0  0  0  1  0  0  0  0  0  0
  189.1260  177.0730  142.9200 C   0  0  2  0  0  3  0  0  0  0  0  0
  189.4020  176.0760  138.2790 C   0  0  0  0  0  2  0  0  0  0  0  0
  189.1040  177.9170  140.5690 C   0  0  0  0  0  0  0  0  0  0  0  0
  182.9950  179.4030  139.8450 O   0  0  0  0  0  0  0  0  0  0  0  0
  183.7760  178.2080  141.7010 N   0  0  0  0  0  2  0  0  0  0  0  0
  181.3320  178.2550  141.0910 C   0  0  0  0  0  1  0  0  0  0  0  0
  182.7390  178.6480  140.8200 C   0  0  0  0  0  0  0  0  0  0  0  0
  191.0750  178.5870  143.4430 N   0  0  0  0  0  2  0  0  0  0  0  0
  189.8390  178.0030  143.8520 C   0  0  0  0  0  0  0  0  0  0  0  0
  189.3300  178.3000  144.9680 O   0  0  0  0  0  0  0  0  0  0  0  0
  191.8090  179.5260  144.2770 C   0  0  0  0  0  2  0  0  0  0  0  0
  191.0980  180.7060  144.3910 F   0  0  0  0  0  0  0  0  0  0  0  0
  184.8680  178.2930  144.4100 C   0  0  0  0  0  2  0  0  0  0  0  0
  186.2610  178.8070  144.6710 C   0  0  0  0  0  2  0  0  0  0  0  0
  186.0580  177.6250  143.7360 C   0  0  0  0  0  3  0  0  0  0  0  0
  1  4  2  0  0  0  0
  2 10  1  6  0  0  0
  2 13  1  0  0  0  0
  3  7  2  0  0  0  0
  4 14  1  0  0  0  0
  4  6  1  0  0  0  0
  5  1  1  0  0  0  0
  5  8  2  0  0  0  0
  6 30  1  0  0  0  0
  7 16  1  0  0  0  0
  7 15  1  0  0  0  0
  8 20  1  0  0  0  0
  8  6  1  0  0  0  0
  9  2  1  0  0  0  0
  9 17  1  0  0  0  0
 11 12  1  6  0  0  0
 11 18  1  0  0  0  0
 11  3  1  0  0  0  0
 13  1  1  0  0  0  0
 13 18  2  0  0  0  0
 14 16  1  0  0  0  0
 16 24  1  1  0  0  0
 17 12  1  0  0  0  0
 18 14  1  0  0  0  0
 19 22  2  0  0  0  0
 22 21  1  0  0  0  0
 22 20  1  0  0  0  0
 23 24  1  0  0  0  0
 23 26  1  0  0  0  0
 24 25  2  0  0  0  0
 26 27  1  0  0  0  0
 28 29  1  0  0  0  0
 30 28  1  0  0  0  0
 30 29  1  0  0  0  0
M  END
>  <MODEL>
7

>  <REMARK>
 VINA RESULT:      -6.6      2.504      5.297
  Name = 
  4 active torsions:
  status: ('A' for Active; 'I' for Inactive)
    1  A    between atoms: N_7  and  C_16
    2  A    between atoms: N_8  and  C_30
    3  A    between atoms: N_9  and  C_12
    4  A    between atoms: C_10  and  C_25
                            x       y       z     vdW  Elec       q    Type
                         _______ _______ _______ _____ _____    ______ ____

>  <TORSDO>
F 4

$$$$
=
 OpenBabel10262421593D

 30 34  0  0  1  0  0  0  0  0999 V2000
  187.1850  178.6100  141.4330 C   0  0  0  0  0  0  0  0  0  0  0  0
  184.7330  179.3850  141.7710 C   0  0  1  0  0  3  0  0  0  0  0  0
  184.8830  177.2190  137.8370 C   0  0  0  0  0  3  0  0  0  0  0  0
  187.8580  178.0610  140.4280 C   0  0  0  0  0  0  0  0  0  0  0  0
  187.7800  178.2910  142.6320 C   0  0  0  0  0  3  0  0  0  0  0  0
  188.9150  177.3520  140.8470 N   0  0  0  0  0  0  0  0  0  0  0  0
  186.0670  176.6620  137.5400 C   0  0  0  0  0  0  0  0  0  0  0  0
  188.8730  177.5110  142.2060 C   0  0  0  0  0  0  0  0  0  0  0  0
  183.7340  178.2340  141.9340 C   0  0  0  0  0  2  0  0  0  0  0  0
  185.1010  179.8790  143.0240 O   0  0  0  0  0  1  0  0  0  0  0  0
  184.7510  178.4450  138.7070 C   0  0  1  0  0  3  0  0  0  0  0  0
  183.3870  178.4530  139.4120 C   0  0  0  0  0  2  0  0  0  0  0  0
  185.9390  178.9870  140.9730 C   0  0  0  0  0  0  0  0  0  0  0  0
  187.1260  177.9850  139.3040 N   0  0  0  0  0  0  0  0  0  0  0  0
  186.1010  175.5480  136.7110 O   0  0  0  0  0  1  0  0  0  0  0  0
  187.3650  177.2150  138.0830 C   0  0  2  0  0  3  0  0  0  0  0  0
  183.3590  177.5220  140.6260 C   0  0  0  0  0  2  0  0  0  0  0  0
  185.9390  178.5600  139.6320 C   0  0  0  0  0  0  0  0  0  0  0  0
  191.0480  178.8000  143.6390 O   0  0  0  0  0  0  0  0  0  0  0  0
  189.7830  176.8980  143.1280 N   0  0  0  0  0  2  0  0  0  0  0  0
  191.4790  176.8960  144.9900 C   0  0  0  0  0  1  0  0  0  0  0  0
  190.7580  177.6020  143.9000 C   0  0  0  0  0  0  0  0  0  0  0  0
  188.7680  177.4290  135.9970 N   0  0  0  0  0  2  0  0  0  0  0  0
  188.0330  178.0620  137.0440 C   0  0  0  0  0  0  0  0  0  0  0  0
  187.9090  179.3170  137.0700 O   0  0  0  0  0  0  0  0  0  0  0  0
  189.4160  178.1820  134.9330 C   0  0  0  0  0  2  0  0  0  0  0  0
  190.6140  177.5790  134.5960 F   0  0  0  0  0  0  0  0  0  0  0  0
  191.2810  176.9960  140.3160 C   0  0  0  0  0  2  0  0  0  0  0  0
  190.5880  177.4890  139.0720 C   0  0  0  0  0  2  0  0  0  0  0  0
  189.8480  176.5720  140.0330 C   0  0  0  0  0  3  0  0  0  0  0  0
  1  5  1  0  0  0  0
  2  9  1  0  0  0  0
  2 10  1  1  0  0  0
  4  6  1  0  0  0  0
  4  1  2  0  0  0  0
  6  8  1  0  0  0  0
  7  3  2  0  0  0  0
  7 16  1  0  0  0  0
  8  5  2  0  0  0  0
  8 20  1  0  0  0  0
 11  3  1  1  0  0  0
 11 12  1  0  0  0  0
 11 18  1  0  0  0  0
 12 17  1  0  0  0  0
 13  1  1  0  0  0  0
 13  2  1  0  0  0  0
 14 18  1  0  0  0  0
 14  4  1  0  0  0  0
 15  7  1  0  0  0  0
 16 24  1  6  0  0  0
 16 14  1  0  0  0  0
 17  9  1  0  0  0  0
 18 13  2  0  0  0  0
 19 22  2  0  0  0  0
 20 22  1  0  0  0  0
 22 21  1  0  0  0  0
 23 24  1  0  0  0  0
 24 25  2  0  0  0  0
 26 23  1  0  0  0  0
 27 26  1  0  0  0  0
 29 30  1  0  0  0  0
 29 28  1  0  0  0  0
 30 28  1  0  0  0  0
 30  6  1  0  0  0  0
M  END
>  <MODEL>
8

>  <REMARK>
 VINA RESULT:      -6.6      3.367      6.923
  Name = 
  4 active torsions:
  status: ('A' for Active; 'I' for Inactive)
    1  A    between atoms: N_7  and  C_16
    2  A    between atoms: N_8  and  C_30
    3  A    between atoms: N_9  and  C_12
    4  A    between atoms: C_10  and  C_25
                            x       y       z     vdW  Elec       q    Type
                         _______ _______ _______ _____ _____    ______ ____

>  <TORSDO>
F 4

$$$$
=
 OpenBabel10262421593D

 30 34  0  0  1  0  0  0  0  0999 V2000
  184.0720  178.4860  140.1100 C   0  0  0  0  0  0  0  0  0  0  0  0
  186.0740  178.9810  141.6830 C   0  0  1  0  0  3  0  0  0  0  0  0
  182.3920  178.8770  144.2550 C   0  0  0  0  0  3  0  0  0  0  0  0
  182.7520  178.4730  140.2570 C   0  0  0  0  0  0  0  0  0  0  0  0
  184.4410  177.6580  139.0730 C   0  0  0  0  0  3  0  0  0  0  0  0
  182.1470  177.6650  139.3760 N   0  0  0  0  0  0  0  0  0  0  0  0
  181.2620  178.5370  143.6160 C   0  0  0  0  0  0  0  0  0  0  0  0
  183.1910  177.1790  138.6360 C   0  0  0  0  0  0  0  0  0  0  0  0
  186.3540  177.8710  142.7000 C   0  0  0  0  0  2  0  0  0  0  0  0
  186.9240  178.8470  140.5830 O   0  0  0  0  0  1  0  0  0  0  0  0
  183.5470  179.5620  143.5660 C   0  0  1  0  0  3  0  0  0  0  0  0
  184.8650  179.2240  144.2760 C   0  0  0  0  0  2  0  0  0  0  0  0
  184.6370  179.0140  141.2520 C   0  0  0  0  0  0  0  0  0  0  0  0
  182.3700  178.9130  141.4680 N   0  0  0  0  0  0  0  0  0  0  0  0
  180.2360  177.9330  144.3320 O   0  0  0  0  0  1  0  0  0  0  0  0
  181.0750  178.7970  142.1390 C   0  0  2  0  0  3  0  0  0  0  0  0
  185.3880  177.8370  143.8930 C   0  0  0  0  0  2  0  0  0  0  0  0
  183.5300  179.2540  142.0880 C   0  0  0  0  0  0  0  0  0  0  0  0
  182.7010  177.7350  135.8260 O   0  0  0  0  0  0  0  0  0  0  0  0
  183.0650  176.2230  137.5760 N   0  0  0  0  0  2  0  0  0  0  0  0
  183.0590  175.4820  135.1690 C   0  0  0  0  0  1  0  0  0  0  0  0
  182.9470  176.5540  136.1910 C   0  0  0  0  0  0  0  0  0  0  0  0
  179.8130  180.3720  140.6230 N   0  0  0  0  0  2  0  0  0  0  0  0
  180.2600  180.0380  141.9380 C   0  0  0  0  0  0  0  0  0  0  0  0
  179.9360  180.7540  142.9240 O   0  0  0  0  0  0  0  0  0  0  0  0
  178.9900  181.5410  140.3530 C   0  0  0  0  0  2  0  0  0  0  0  0
  179.6000  182.3310  139.3960 F   0  0  0  0  0  0  0  0  0  0  0  0
  180.3550  176.2080  140.1990 C   0  0  0  0  0  2  0  0  0  0  0  0
  180.5240  175.9600  138.7220 C   0  0  0  0  0  2  0  0  0  0  0  0
  180.7180  177.3630  139.2760 C   0  0  0  0  0  3  0  0  0  0  0  0
  1  4  2  0  0  0  0
  1 13  1  0  0  0  0
  2 10  1  6  0  0  0
  2  9  1  0  0  0  0
  4 14  1  0  0  0  0
  5  1  1  0  0  0  0
  6  4  1  0  0  0  0
  7  3  2  0  0  0  0
  7 15  1  0  0  0  0
  8  5  2  0  0  0  0
  8  6  1  0  0  0  0
  9 17  1  0  0  0  0
 11  3  1  1  0  0  0
 11 12  1  0  0  0  0
 13  2  1  0  0  0  0
 13 18  2  0  0  0  0
 14 18  1  0  0  0  0
 14 16  1  0  0  0  0
 16 24  1  1  0  0  0
 16  7  1  0  0  0  0
 17 12  1  0  0  0  0
 18 11  1  0  0  0  0
 19 22  2  0  0  0  0
 20  8  1  0  0  0  0
 21 22  1  0  0  0  0
 22 20  1  0  0  0  0
 23 24  1  0  0  0  0
 24 25  2  0  0  0  0
 26 23  1  0  0  0  0
 27 26  1  0  0  0  0
 29 30  1  0  0  0  0
 29 28  1  0  0  0  0
 30  6  1  0  0  0  0
 30 28  1  0  0  0  0
M  END
>  <MODEL>
9

>  <REMARK>
 VINA RESULT:      -6.5      5.154      8.131
  Name = 
  4 active torsions:
  status: ('A' for Active; 'I' for Inactive)
    1  A    between atoms: N_7  and  C_16
    2  A    between atoms: N_8  and  C_30
    3  A    between atoms: N_9  and  C_12
    4  A    between atoms: C_10  and  C_25
                            x       y       z     vdW  Elec       q    Type
                         _______ _______ _______ _____ _____    ______ ____

>  <TORSDO>
F 4

$$$$
