=
 OpenBabel10252414583D

 34 39  0  0  0  0  0  0  0  0999 V2000
  185.9420  178.3900  145.8530 C   0  0  0  0  0  0  0  0  0  0  0  0
  187.5060  177.2510  144.3800 C   0  0  0  0  0  0  0  0  0  0  0  0
  185.3600  178.2700  143.4770 C   0  0  0  0  0  0  0  0  0  0  0  0
  184.7130  178.5310  141.1560 C   0  0  0  0  0  0  0  0  0  0  0  0
  188.0980  177.6950  146.6920 C   0  0  0  0  0  3  0  0  0  0  0  0
  188.4030  177.1510  145.4480 C   0  0  0  0  0  3  0  0  0  0  0  0
  186.9540  178.3200  141.5890 N   0  0  0  0  0  0  0  0  0  0  0  0
  186.2880  177.9800  144.5330 C   0  0  0  0  0  0  0  0  0  0  0  0
  188.1130  178.4680  139.4370 N   0  0  0  0  0  2  0  0  0  0  0  0
  185.3770  178.6410  139.6190 S   0  0  0  0  0  0  0  0  0  0  0  0
  186.8580  178.2840  146.9010 C   0  0  0  0  0  3  0  0  0  0  0  0
  184.0180  178.6440  143.8120 C   0  0  0  0  0  0  0  0  0  0  0  0
  184.6660  178.8580  146.1420 C   0  0  0  0  0  3  0  0  0  0  0  0
  187.7890  176.3490  143.2270 C   0  0  0  0  0  1  0  0  0  0  0  0
  183.4220  178.7490  141.4810 N   0  0  0  0  0  0  0  0  0  0  0  0
  183.0360  178.8060  142.7870 C   0  0  0  0  0  0  0  0  0  0  0  0
  186.9350  178.4570  140.2410 C   0  0  0  0  0  0  0  0  0  0  0  0
  185.6980  178.3230  142.1040 C   0  0  0  0  0  0  0  0  0  0  0  0
  183.7090  178.9470  145.1430 C   0  0  0  0  0  3  0  0  0  0  0  0
  179.6170  180.3340  142.6710 C   0  0  0  0  0  0  0  0  0  0  0  0
  178.9310  179.6150  143.6490 C   0  0  0  0  0  3  0  0  0  0  0  0
  181.6010  179.0730  143.0710 C   0  0  0  0  0  0  0  0  0  0  0  0
  179.5990  178.6130  144.3520 C   0  0  0  0  0  3  0  0  0  0  0  0
  180.9230  180.0550  142.4090 N   0  0  0  0  0  0  0  0  0  0  0  0
  180.9390  178.3420  144.0680 C   0  0  0  0  0  2  0  0  0  0  0  0
  179.0290  181.2430  142.0300 O   0  0  0  0  0  0  0  0  0  0  0  0
  189.4350  178.3150  140.0220 C   0  0  0  0  0  2  0  0  0  0  0  0
  192.0770  177.4670  140.7110 F   0  0  0  0  0  0  0  0  0  0  0  0
  190.3170  177.5630  139.0850 C   0  0  0  0  0  0  0  0  0  0  0  0
  191.6030  177.1600  139.4770 C   0  0  0  0  0  0  0  0  0  0  0  0
  191.9320  176.1110  137.3190 C   0  0  0  0  0  3  0  0  0  0  0  0
  190.6490  176.5040  136.9290 C   0  0  0  0  0  3  0  0  0  0  0  0
  189.8420  177.2280  137.8120 C   0  0  0  0  0  3  0  0  0  0  0  0
  192.4080  176.4380  138.5920 C   0  0  0  0  0  3  0  0  0  0  0  0
  1 13  1  0  0  0  0
  1 11  2  0  0  0  0
  2  8  2  0  0  0  0
  2  6  1  0  0  0  0
  3 12  1  0  0  0  0
  3  8  1  0  0  0  0
  4 15  2  0  0  0  0
  4 18  1  0  0  0  0
  5 11  1  0  0  0  0
  6  5  2  0  0  0  0
  7 18  1  0  0  0  0
  8  1  1  0  0  0  0
  9 27  1  0  0  0  0
  9 17  1  0  0  0  0
 10 17  1  0  0  0  0
 10  4  1  0  0  0  0
 12 19  1  0  0  0  0
 14  2  1  0  0  0  0
 15 16  1  0  0  0  0
 16 22  1  0  0  0  0
 16 12  2  0  0  0  0
 17  7  2  0  0  0  0
 18  3  2  0  0  0  0
 19 13  2  0  0  0  0
 20 21  1  0  0  0  0
 21 23  2  0  0  0  0
 22 25  1  0  0  0  0
 24 20  1  0  0  0  0
 24 22  2  0  0  0  0
 25 23  1  0  0  0  0
 26 20  2  0  0  0  0
 29 30  1  0  0  0  0
 29 27  1  0  0  0  0
 30 28  1  0  0  0  0
 31 34  1  0  0  0  0
 32 31  2  0  0  0  0
 32 33  1  0  0  0  0
 33 29  2  0  0  0  0
 34 30  2  0  0  0  0
M  END
>  <MODEL>
1

>  <REMARK>
 VINA RESULT:     -11.9      0.000      0.000
  Name = 
  3 active torsions:
  status: ('A' for Active; 'I' for Inactive)
    1  A    between atoms: C_3  and  C_13
    2  A    between atoms: C_3  and  N_17
    3  A    between atoms: C_12  and  C_28
                            x       y       z     vdW  Elec       q    Type
                         _______ _______ _______ _____ _____    ______ ____

>  <TORSDO>
F 3

$$$$
=
 OpenBabel10252414583D

 34 39  0  0  0  0  0  0  0  0999 V2000
  184.3580  178.7590  144.6570 C   0  0  0  0  0  0  0  0  0  0  0  0
  186.4500  177.6490  145.2070 C   0  0  0  0  0  0  0  0  0  0  0  0
  185.9330  178.3650  142.8230 C   0  0  0  0  0  0  0  0  0  0  0  0
  187.4320  178.3460  140.9200 C   0  0  0  0  0  0  0  0  0  0  0  0
  184.9380  178.3600  146.9680 C   0  0  0  0  0  3  0  0  0  0  0  0
  186.1130  177.7370  146.5620 C   0  0  0  0  0  3  0  0  0  0  0  0
  188.3980  178.3960  142.9970 N   0  0  0  0  0  0  0  0  0  0  0  0
  185.6210  178.2660  144.2220 C   0  0  0  0  0  0  0  0  0  0  0  0
  190.8220  178.4580  142.6560 N   0  0  0  0  0  2  0  0  0  0  0  0
  189.0670  178.3790  140.5430 S   0  0  0  0  0  0  0  0  0  0  0  0
  184.0480  178.8410  146.0150 C   0  0  0  0  0  3  0  0  0  0  0  0
  184.8780  178.6350  141.8920 C   0  0  0  0  0  0  0  0  0  0  0  0
  183.3810  179.1240  143.7390 C   0  0  0  0  0  3  0  0  0  0  0  0
  187.5330  176.6770  144.8840 C   0  0  0  0  0  1  0  0  0  0  0  0
  186.4130  178.4650  140.0440 N   0  0  0  0  0  0  0  0  0  0  0  0
  185.1310  178.6040  140.4860 C   0  0  0  0  0  0  0  0  0  0  0  0
  189.4790  178.4060  142.1800 C   0  0  0  0  0  0  0  0  0  0  0  0
  187.2430  178.3240  142.2880 C   0  0  0  0  0  0  0  0  0  0  0  0
  183.6260  179.0270  142.3780 C   0  0  0  0  0  3  0  0  0  0  0  0
  182.4450  180.1090  138.3520 C   0  0  0  0  0  0  0  0  0  0  0  0
  182.0140  179.0190  137.5940 C   0  0  0  0  0  2  0  0  0  0  0  0
  184.0610  178.7540  139.4640 C   0  0  0  0  0  0  0  0  0  0  0  0
  182.6180  177.7770  137.7850 C   0  0  0  0  0  3  0  0  0  0  0  0
  183.4430  179.9540  139.2630 N   0  0  0  0  0  0  0  0  0  0  0  0
  183.6410  177.6390  138.7250 C   0  0  0  0  0  3  0  0  0  0  0  0
  181.9080  181.2350  138.1950 O   0  0  0  0  0  0  0  0  0  0  0  0
  191.1250  178.4910  144.0770 C   0  0  0  0  0  2  0  0  0  0  0  0
  191.4170  177.8140  146.8400 F   0  0  0  0  0  0  0  0  0  0  0  0
  191.4990  177.1250  144.5430 C   0  0  0  0  0  0  0  0  0  0  0  0
  191.6180  176.8430  145.9130 C   0  0  0  0  0  0  0  0  0  0  0  0
  192.1550  174.5390  145.3910 C   0  0  0  0  0  3  0  0  0  0  0  0
  192.0290  174.8170  144.0270 C   0  0  0  0  0  3  0  0  0  0  0  0
  191.6990  176.1080  143.6040 C   0  0  0  0  0  3  0  0  0  0  0  0
  191.9490  175.5510  146.3330 C   0  0  0  0  0  3  0  0  0  0  0  0
  1 11  2  0  0  0  0
  2  6  1  0  0  0  0
  3  8  1  0  0  0  0
  4 18  2  0  0  0  0
  6  5  2  0  0  0  0
  8  1  1  0  0  0  0
  8  2  2  0  0  0  0
  9 27  1  0  0  0  0
 10  4  1  0  0  0  0
 10 17  1  0  0  0  0
 11  5  1  0  0  0  0
 12 19  1  0  0  0  0
 12  3  2  0  0  0  0
 13  1  1  0  0  0  0
 14  2  1  0  0  0  0
 15 16  2  0  0  0  0
 15  4  1  0  0  0  0
 16 12  1  0  0  0  0
 17  9  1  0  0  0  0
 17  7  2  0  0  0  0
 18  3  1  0  0  0  0
 18  7  1  0  0  0  0
 19 13  2  0  0  0  0
 20 24  1  0  0  0  0
 21 23  1  0  0  0  0
 21 20  1  0  0  0  0
 22 16  1  0  0  0  0
 23 25  2  0  0  0  0
 24 22  2  0  0  0  0
 25 22  1  0  0  0  0
 26 20  2  0  0  0  0
 27 29  1  0  0  0  0
 29 30  1  0  0  0  0
 30 34  2  0  0  0  0
 30 28  1  0  0  0  0
 31 34  1  0  0  0  0
 32 31  2  0  0  0  0
 33 32  1  0  0  0  0
 33 29  2  0  0  0  0
M  END
>  <MODEL>
2

>  <REMARK>
 VINA RESULT:     -10.1      3.059      4.559
  Name = 
  3 active torsions:
  status: ('A' for Active; 'I' for Inactive)
    1  A    between atoms: C_3  and  C_13
    2  A    between atoms: C_3  and  N_17
    3  A    between atoms: C_12  and  C_28
                            x       y       z     vdW  Elec       q    Type
                         _______ _______ _______ _____ _____    ______ ____

>  <TORSDO>
F 3

$$$$
=
 OpenBabel10252414583D

 34 39  0  0  0  0  0  0  0  0999 V2000
  189.3670  177.3620  145.8850 C   0  0  0  0  0  0  0  0  0  0  0  0
  190.7670  176.2130  144.2630 C   0  0  0  0  0  0  0  0  0  0  0  0
  188.6260  177.3820  143.5500 C   0  0  0  0  0  0  0  0  0  0  0  0
  187.8440  177.7820  141.2920 C   0  0  0  0  0  0  0  0  0  0  0  0
  191.5320  176.5180  146.5460 C   0  0  0  0  0  3  0  0  0  0  0  0
  191.7250  176.0170  145.2630 C   0  0  0  0  0  3  0  0  0  0  0  0
  190.0940  177.4360  141.5630 N   0  0  0  0  0  0  0  0  0  0  0  0
  189.6030  176.9960  144.5290 C   0  0  0  0  0  0  0  0  0  0  0  0
  191.1170  177.6230  139.3460 N   0  0  0  0  0  2  0  0  0  0  0  0
  188.4120  177.9290  139.7190 S   0  0  0  0  0  0  0  0  0  0  0  0
  190.3420  177.1600  146.8630 C   0  0  0  0  0  3  0  0  0  0  0  0
  187.3310  177.8090  143.9910 C   0  0  0  0  0  0  0  0  0  0  0  0
  188.1400  177.8810  146.2790 C   0  0  0  0  0  3  0  0  0  0  0  0
  190.9250  175.3520  143.0560 C   0  0  0  0  0  1  0  0  0  0  0  0
  186.5910  178.0520  141.7120 N   0  0  0  0  0  0  0  0  0  0  0  0
  186.2950  178.0680  143.0420 C   0  0  0  0  0  0  0  0  0  0  0  0
  189.9950  177.6360  140.2270 C   0  0  0  0  0  0  0  0  0  0  0  0
  188.8760  177.4810  142.1610 C   0  0  0  0  0  0  0  0  0  0  0  0
  187.1260  178.0660  145.3510 C   0  0  0  0  0  3  0  0  0  0  0  0
  182.6270  178.8030  142.8330 C   0  0  0  0  0  0  0  0  0  0  0  0
  182.2960  179.0730  144.1610 C   0  0  0  0  0  2  0  0  0  0  0  0
  184.8980  178.3970  143.4340 C   0  0  0  0  0  0  0  0  0  0  0  0
  183.2900  179.0080  145.1360 C   0  0  0  0  0  3  0  0  0  0  0  0
  183.9060  178.4790  142.5010 N   0  0  0  0  0  0  0  0  0  0  0  0
  184.5970  178.6740  144.7750 C   0  0  0  0  0  3  0  0  0  0  0  0
  181.7420  178.8600  141.9400 O   0  0  0  0  0  0  0  0  0  0  0  0
  192.4640  177.3750  139.8340 C   0  0  0  0  0  2  0  0  0  0  0  0
  195.0090  176.2340  140.4630 F   0  0  0  0  0  0  0  0  0  0  0  0
  193.1300  176.3530  138.9770 C   0  0  0  0  0  0  0  0  0  0  0  0
  194.3760  175.8160  139.3380 C   0  0  0  0  0  0  0  0  0  0  0  0
  194.3330  174.3990  137.3730 C   0  0  0  0  0  3  0  0  0  0  0  0
  193.0890  174.9270  137.0170 C   0  0  0  0  0  3  0  0  0  0  0  0
  192.4870  175.9010  137.8200 C   0  0  0  0  0  3  0  0  0  0  0  0
  194.9760  174.8430  138.5330 C   0  0  0  0  0  3  0  0  0  0  0  0
  1 13  1  0  0  0  0
  1 11  2  0  0  0  0
  2  8  2  0  0  0  0
  2  6  1  0  0  0  0
  3 12  1  0  0  0  0
  3  8  1  0  0  0  0
  4 15  2  0  0  0  0
  4 18  1  0  0  0  0
  5 11  1  0  0  0  0
  6  5  2  0  0  0  0
  7 18  1  0  0  0  0
  8  1  1  0  0  0  0
  9 27  1  0  0  0  0
  9 17  1  0  0  0  0
 10 17  1  0  0  0  0
 10  4  1  0  0  0  0
 12 19  1  0  0  0  0
 14  2  1  0  0  0  0
 15 16  1  0  0  0  0
 16 22  1  0  0  0  0
 16 12  2  0  0  0  0
 17  7  2  0  0  0  0
 18  3  2  0  0  0  0
 19 13  2  0  0  0  0
 20 21  1  0  0  0  0
 21 23  1  0  0  0  0
 22 25  1  0  0  0  0
 24 20  1  0  0  0  0
 24 22  2  0  0  0  0
 25 23  2  0  0  0  0
 26 20  2  0  0  0  0
 29 30  1  0  0  0  0
 29 27  1  0  0  0  0
 30 28  1  0  0  0  0
 31 34  1  0  0  0  0
 32 31  2  0  0  0  0
 32 33  1  0  0  0  0
 33 29  2  0  0  0  0
 34 30  2  0  0  0  0
M  END
>  <MODEL>
3

>  <REMARK>
 VINA RESULT:      -9.6      2.085      3.343
  Name = 
  3 active torsions:
  status: ('A' for Active; 'I' for Inactive)
    1  A    between atoms: C_3  and  C_13
    2  A    between atoms: C_3  and  N_17
    3  A    between atoms: C_12  and  C_28
                            x       y       z     vdW  Elec       q    Type
                         _______ _______ _______ _____ _____    ______ ____

>  <TORSDO>
F 3

$$$$
=
 OpenBabel10252414583D

 34 39  0  0  0  0  0  0  0  0999 V2000
  186.9450  177.6080  145.0360 C   0  0  0  0  0  0  0  0  0  0  0  0
  184.9680  178.9120  144.4890 C   0  0  0  0  0  0  0  0  0  0  0  0
  186.5960  178.1780  142.6800 C   0  0  0  0  0  0  0  0  0  0  0  0
  186.3200  178.3670  140.2810 C   0  0  0  0  0  0  0  0  0  0  0  0
  185.2770  178.0350  146.7310 C   0  0  0  0  0  3  0  0  0  0  0  0
  184.5390  178.7750  145.8130 C   0  0  0  0  0  3  0  0  0  0  0  0
  184.4100  178.3870  141.5470 N   0  0  0  0  0  0  0  0  0  0  0  0
  186.1390  178.2280  144.0400 C   0  0  0  0  0  0  0  0  0  0  0  0
  182.5250  178.5670  139.9950 N   0  0  0  0  0  2  0  0  0  0  0  0
  185.1250  178.4990  139.1090 S   0  0  0  0  0  0  0  0  0  0  0  0
  186.4920  177.4800  146.3500 C   0  0  0  0  0  3  0  0  0  0  0  0
  187.9570  177.8160  142.4170 C   0  0  0  0  0  0  0  0  0  0  0  0
  188.2260  177.1600  144.7380 C   0  0  0  0  0  3  0  0  0  0  0  0
  184.2920  179.9900  143.7110 C   0  0  0  0  0  1  0  0  0  0  0  0
  187.6330  178.1590  140.0550 N   0  0  0  0  0  0  0  0  0  0  0  0
  188.4790  177.8890  141.0890 C   0  0  0  0  0  0  0  0  0  0  0  0
  183.9180  178.4930  140.2900 C   0  0  0  0  0  0  0  0  0  0  0  0
  185.7670  178.3530  141.5470 C   0  0  0  0  0  0  0  0  0  0  0  0
  188.7370  177.2970  143.4570 C   0  0  0  0  0  3  0  0  0  0  0  0
  191.5960  177.0420  139.1890 C   0  0  0  0  0  0  0  0  0  0  0  0
  192.5830  177.1310  140.1720 C   0  0  0  0  0  2  0  0  0  0  0  0
  189.9100  177.6460  140.7640 C   0  0  0  0  0  0  0  0  0  0  0  0
  192.2180  177.4780  141.4720 C   0  0  0  0  0  3  0  0  0  0  0  0
  190.2960  177.2940  139.5030 N   0  0  0  0  0  0  0  0  0  0  0  0
  190.8790  177.7330  141.7740 C   0  0  0  0  0  3  0  0  0  0  0  0
  191.9070  176.7270  138.0120 O   0  0  0  0  0  0  0  0  0  0  0  0
  181.5230  178.5480  141.0480 C   0  0  0  0  0  2  0  0  0  0  0  0
  179.7840  179.4510  143.1300 F   0  0  0  0  0  0  0  0  0  0  0  0
  180.6070  179.7130  140.8920 C   0  0  0  0  0  0  0  0  0  0  0  0
  179.7810  180.1220  141.9510 C   0  0  0  0  0  0  0  0  0  0  0  0
  178.9320  181.9360  140.5880 C   0  0  0  0  0  3  0  0  0  0  0  0
  179.7590  181.5350  139.5360 C   0  0  0  0  0  3  0  0  0  0  0  0
  180.5970  180.4260  139.6890 C   0  0  0  0  0  3  0  0  0  0  0  0
  178.9430  181.2310  141.7950 C   0  0  0  0  0  3  0  0  0  0  0  0
  1 11  2  0  0  0  0
  2  6  1  0  0  0  0
  3  8  1  0  0  0  0
  4 18  1  0  0  0  0
  6  5  2  0  0  0  0
  7 18  1  0  0  0  0
  8  2  2  0  0  0  0
  8  1  1  0  0  0  0
  9 17  1  0  0  0  0
  9 27  1  0  0  0  0
 10  4  1  0  0  0  0
 10 17  1  0  0  0  0
 11  5  1  0  0  0  0
 12  3  1  0  0  0  0
 12 19  1  0  0  0  0
 13  1  1  0  0  0  0
 14  2  1  0  0  0  0
 15  4  2  0  0  0  0
 15 16  1  0  0  0  0
 16 12  2  0  0  0  0
 17  7  2  0  0  0  0
 18  3  2  0  0  0  0
 19 13  2  0  0  0  0
 20 24  1  0  0  0  0
 20 21  1  0  0  0  0
 21 23  1  0  0  0  0
 22 16  1  0  0  0  0
 22 25  1  0  0  0  0
 23 25  2  0  0  0  0
 24 22  2  0  0  0  0
 26 20  2  0  0  0  0
 29 27  1  0  0  0  0
 29 30  1  0  0  0  0
 30 28  1  0  0  0  0
 31 34  1  0  0  0  0
 32 33  1  0  0  0  0
 32 31  2  0  0  0  0
 33 29  2  0  0  0  0
 34 30  2  0  0  0  0
M  END
>  <MODEL>
4

>  <REMARK>
 VINA RESULT:      -9.5      3.618      8.444
  Name = 
  3 active torsions:
  status: ('A' for Active; 'I' for Inactive)
    1  A    between atoms: C_3  and  C_13
    2  A    between atoms: C_3  and  N_17
    3  A    between atoms: C_12  and  C_28
                            x       y       z     vdW  Elec       q    Type
                         _______ _______ _______ _____ _____    ______ ____

>  <TORSDO>
F 3

$$$$
=
 OpenBabel10252414583D

 34 39  0  0  0  0  0  0  0  0999 V2000
  187.3630  177.7040  138.1040 C   0  0  0  0  0  0  0  0  0  0  0  0
  188.4960  178.1950  140.1980 C   0  0  0  0  0  0  0  0  0  0  0  0
  185.9850  178.5060  139.9630 C   0  0  0  0  0  0  0  0  0  0  0  0
  184.3890  179.0030  141.7170 C   0  0  0  0  0  0  0  0  0  0  0  0
  189.6910  177.1200  138.3790 C   0  0  0  0  0  3  0  0  0  0  0  0
  189.6720  177.6620  139.6600 C   0  0  0  0  0  3  0  0  0  0  0  0
  186.3650  178.0350  142.3590 N   0  0  0  0  0  0  0  0  0  0  0  0
  187.2750  178.1240  139.4620 C   0  0  0  0  0  0  0  0  0  0  0  0
  186.2570  177.7330  144.7870 N   0  0  0  0  0  2  0  0  0  0  0  0
  184.1860  178.8620  143.3770 S   0  0  0  0  0  0  0  0  0  0  0  0
  188.5470  177.1710  137.5930 C   0  0  0  0  0  3  0  0  0  0  0  0
  184.9270  178.7680  139.0330 C   0  0  0  0  0  0  0  0  0  0  0  0
  186.2880  177.8610  137.2390 C   0  0  0  0  0  3  0  0  0  0  0  0
  188.6800  179.0390  141.4140 C   0  0  0  0  0  1  0  0  0  0  0  0
  183.4440  179.3760  140.8300 N   0  0  0  0  0  0  0  0  0  0  0  0
  183.6740  179.2810  139.4910 C   0  0  0  0  0  0  0  0  0  0  0  0
  185.7140  178.1640  143.5400 C   0  0  0  0  0  0  0  0  0  0  0  0
  185.6340  178.5420  141.3340 C   0  0  0  0  0  0  0  0  0  0  0  0
  185.1010  178.4200  137.6890 C   0  0  0  0  0  3  0  0  0  0  0  0
  181.1860  181.3860  137.6430 C   0  0  0  0  0  0  0  0  0  0  0  0
  180.4840  180.4390  136.8960 C   0  0  0  0  0  2  0  0  0  0  0  0
  182.5780  179.6880  138.5710 C   0  0  0  0  0  0  0  0  0  0  0  0
  180.8370  179.0940  136.9980 C   0  0  0  0  0  3  0  0  0  0  0  0
  182.2020  180.9940  138.4580 N   0  0  0  0  0  0  0  0  0  0  0  0
  181.8830  178.7130  137.8400 C   0  0  0  0  0  3  0  0  0  0  0  0
  180.8770  182.6030  137.5640 O   0  0  0  0  0  0  0  0  0  0  0  0
  187.5750  177.1280  144.8740 C   0  0  0  0  0  2  0  0  0  0  0  0
  190.3400  176.6990  145.4610 F   0  0  0  0  0  0  0  0  0  0  0  0
  188.1770  177.4210  146.2050 C   0  0  0  0  0  0  0  0  0  0  0  0
  189.5440  177.2030  146.4380 C   0  0  0  0  0  0  0  0  0  0  0  0
  189.2900  178.0280  148.7020 C   0  0  0  0  0  3  0  0  0  0  0  0
  187.9310  178.2530  148.4690 C   0  0  0  0  0  3  0  0  0  0  0  0
  187.3750  177.9520  147.2210 C   0  0  0  0  0  3  0  0  0  0  0  0
  190.0960  177.5040  147.6870 C   0  0  0  0  0  3  0  0  0  0  0  0
  1  8  1  0  0  0  0
  2 14  1  0  0  0  0
  3 18  1  0  0  0  0
  4 10  1  0  0  0  0
  5  6  2  0  0  0  0
  6  2  1  0  0  0  0
  7 17  2  0  0  0  0
  8  3  1  0  0  0  0
  8  2  2  0  0  0  0
  9 27  1  0  0  0  0
 10 17  1  0  0  0  0
 11  1  2  0  0  0  0
 11  5  1  0  0  0  0
 12 16  1  0  0  0  0
 12  3  2  0  0  0  0
 13 19  2  0  0  0  0
 13  1  1  0  0  0  0
 15  4  1  0  0  0  0
 16 15  2  0  0  0  0
 17  9  1  0  0  0  0
 18  4  2  0  0  0  0
 18  7  1  0  0  0  0
 19 12  1  0  0  0  0
 20 24  1  0  0  0  0
 21 23  1  0  0  0  0
 21 20  1  0  0  0  0
 22 16  1  0  0  0  0
 23 25  2  0  0  0  0
 24 22  2  0  0  0  0
 25 22  1  0  0  0  0
 26 20  2  0  0  0  0
 27 29  1  0  0  0  0
 28 30  1  0  0  0  0
 29 30  2  0  0  0  0
 29 33  1  0  0  0  0
 30 34  1  0  0  0  0
 32 31  1  0  0  0  0
 33 32  2  0  0  0  0
 34 31  2  0  0  0  0
M  END
>  <MODEL>
5

>  <REMARK>
 VINA RESULT:      -9.4      2.891      6.506
  Name = 
  3 active torsions:
  status: ('A' for Active; 'I' for Inactive)
    1  A    between atoms: C_3  and  C_13
    2  A    between atoms: C_3  and  N_17
    3  A    between atoms: C_12  and  C_28
                            x       y       z     vdW  Elec       q    Type
                         _______ _______ _______ _____ _____    ______ ____

>  <TORSDO>
F 3

$$$$
=
 OpenBabel10252414583D

 34 39  0  0  0  0  0  0  0  0999 V2000
  184.8830  178.9320  141.8350 C   0  0  0  0  0  0  0  0  0  0  0  0
  186.3240  178.0690  143.5930 C   0  0  0  0  0  0  0  0  0  0  0  0
  187.0740  178.0670  141.1650 C   0  0  0  0  0  0  0  0  0  0  0  0
  189.2760  177.5410  140.3010 C   0  0  0  0  0  0  0  0  0  0  0  0
  184.2600  179.2180  144.1520 C   0  0  0  0  0  3  0  0  0  0  0  0
  185.4040  178.5300  144.5410 C   0  0  0  0  0  3  0  0  0  0  0  0
  189.1540  178.2000  142.4930 N   0  0  0  0  0  0  0  0  0  0  0  0
  186.1340  178.3630  142.2090 C   0  0  0  0  0  0  0  0  0  0  0  0
  191.4430  178.2150  143.3630 N   0  0  0  0  0  2  0  0  0  0  0  0
  190.8880  177.5010  140.7680 S   0  0  0  0  0  0  0  0  0  0  0  0
  183.9850  179.3890  142.8010 C   0  0  0  0  0  3  0  0  0  0  0  0
  186.6200  178.0390  139.8070 C   0  0  0  0  0  0  0  0  0  0  0  0
  184.5020  179.0000  140.5010 C   0  0  0  0  0  3  0  0  0  0  0  0
  187.3080  177.0690  144.0980 C   0  0  0  0  0  1  0  0  0  0  0  0
  188.8090  177.3840  139.0460 N   0  0  0  0  0  0  0  0  0  0  0  0
  187.4960  177.6150  138.7610 C   0  0  0  0  0  0  0  0  0  0  0  0
  190.4840  178.0010  142.3290 C   0  0  0  0  0  0  0  0  0  0  0  0
  188.4660  177.9050  141.3610 C   0  0  0  0  0  0  0  0  0  0  0  0
  185.3420  178.5260  139.5060 C   0  0  0  0  0  3  0  0  0  0  0  0
  185.9980  176.1400  135.6600 C   0  0  0  0  0  0  0  0  0  0  0  0
  186.2880  177.1050  134.6950 C   0  0  0  0  0  2  0  0  0  0  0  0
  187.0560  177.4470  137.3500 C   0  0  0  0  0  0  0  0  0  0  0  0
  186.9810  178.2550  135.0700 C   0  0  0  0  0  3  0  0  0  0  0  0
  186.3870  176.3270  136.9500 N   0  0  0  0  0  0  0  0  0  0  0  0
  187.3720  178.4280  136.3990 C   0  0  0  0  0  3  0  0  0  0  0  0
  185.3770  175.0950  135.3370 O   0  0  0  0  0  0  0  0  0  0  0  0
  191.0460  178.6560  144.6900 C   0  0  0  0  0  2  0  0  0  0  0  0
  189.0390  178.2660  146.6880 F   0  0  0  0  0  0  0  0  0  0  0  0
  191.0480  177.4970  145.6270 C   0  0  0  0  0  0  0  0  0  0  0  0
  190.0310  177.3470  146.5830 C   0  0  0  0  0  0  0  0  0  0  0  0
  191.0510  175.2840  147.3410 C   0  0  0  0  0  3  0  0  0  0  0  0
  192.0580  175.4290  146.3840 C   0  0  0  0  0  3  0  0  0  0  0  0
  192.0560  176.5330  145.5270 C   0  0  0  0  0  3  0  0  0  0  0  0
  190.0370  176.2420  147.4400 C   0  0  0  0  0  3  0  0  0  0  0  0
  1  8  1  0  0  0  0
  1 11  2  0  0  0  0
  2 14  1  0  0  0  0
  2  6  1  0  0  0  0
  3 18  1  0  0  0  0
  3  8  1  0  0  0  0
  4 10  1  0  0  0  0
  4 18  2  0  0  0  0
  5  6  2  0  0  0  0
  8  2  2  0  0  0  0
  9 27  1  0  0  0  0
 10 17  1  0  0  0  0
 11  5  1  0  0  0  0
 12  3  2  0  0  0  0
 13  1  1  0  0  0  0
 15  4  1  0  0  0  0
 16 15  2  0  0  0  0
 16 12  1  0  0  0  0
 17  7  2  0  0  0  0
 17  9  1  0  0  0  0
 18  7  1  0  0  0  0
 19 12  1  0  0  0  0
 19 13  2  0  0  0  0
 20 24  1  0  0  0  0
 21 23  1  0  0  0  0
 21 20  1  0  0  0  0
 22 16  1  0  0  0  0
 23 25  2  0  0  0  0
 24 22  2  0  0  0  0
 25 22  1  0  0  0  0
 26 20  2  0  0  0  0
 27 29  1  0  0  0  0
 29 30  1  0  0  0  0
 30 28  1  0  0  0  0
 30 34  2  0  0  0  0
 31 34  1  0  0  0  0
 32 31  2  0  0  0  0
 33 29  2  0  0  0  0
 33 32  1  0  0  0  0
M  END
>  <MODEL>
6

>  <REMARK>
 VINA RESULT:      -9.4      3.797      6.934
  Name = 
  3 active torsions:
  status: ('A' for Active; 'I' for Inactive)
    1  A    between atoms: C_3  and  C_13
    2  A    between atoms: C_3  and  N_17
    3  A    between atoms: C_12  and  C_28
                            x       y       z     vdW  Elec       q    Type
                         _______ _______ _______ _____ _____    ______ ____

>  <TORSDO>
F 3

$$$$
=
 OpenBabel10252414583D

 34 39  0  0  0  0  0  0  0  0999 V2000
  187.7010  178.4460  139.2490 C   0  0  0  0  0  0  0  0  0  0  0  0
  185.7910  177.9000  137.8470 C   0  0  0  0  0  0  0  0  0  0  0  0
  185.5050  178.3600  140.3300 C   0  0  0  0  0  0  0  0  0  0  0  0
  183.4290  178.6170  141.5540 C   0  0  0  0  0  0  0  0  0  0  0  0
  187.9670  178.3040  136.8520 C   0  0  0  0  0  3  0  0  0  0  0  0
  186.6250  177.9650  136.7260 C   0  0  0  0  0  3  0  0  0  0  0  0
  183.3520  178.9940  139.2940 N   0  0  0  0  0  0  0  0  0  0  0  0
  186.2940  178.2530  139.1360 C   0  0  0  0  0  0  0  0  0  0  0  0
  181.0480  179.6240  138.7540 N   0  0  0  0  0  2  0  0  0  0  0  0
  181.8180  179.0260  141.3230 S   0  0  0  0  0  0  0  0  0  0  0  0
  188.5100  178.5120  138.1140 C   0  0  0  0  0  3  0  0  0  0  0  0
  186.1610  178.3240  141.6030 C   0  0  0  0  0  0  0  0  0  0  0  0
  188.3110  178.5220  140.4940 C   0  0  0  0  0  3  0  0  0  0  0  0
  184.4900  177.2040  137.6310 C   0  0  0  0  0  1  0  0  0  0  0  0
  184.0430  178.4460  142.7430 N   0  0  0  0  0  0  0  0  0  0  0  0
  185.3950  178.2910  142.8090 C   0  0  0  0  0  0  0  0  0  0  0  0
  182.0700  179.2270  139.6660 C   0  0  0  0  0  0  0  0  0  0  0  0
  184.1130  178.6120  140.3520 C   0  0  0  0  0  0  0  0  0  0  0  0
  187.5560  178.4240  141.6530 C   0  0  0  0  0  3  0  0  0  0  0  0
  186.1250  178.7510  146.4550 C   0  0  0  0  0  0  0  0  0  0  0  0
  187.1930  177.8780  146.6620 C   0  0  0  0  0  3  0  0  0  0  0  0
  186.0060  178.1320  144.1560 C   0  0  0  0  0  0  0  0  0  0  0  0
  187.6760  177.1270  145.5910 C   0  0  0  0  0  3  0  0  0  0  0  0
  185.5640  178.8610  145.2210 N   0  0  0  0  0  0  0  0  0  0  0  0
  187.0860  177.2550  144.3320 C   0  0  0  0  0  2  0  0  0  0  0  0
  185.6800  179.4380  147.4100 O   0  0  0  0  0  0  0  0  0  0  0  0
  181.3190  179.7930  137.3350 C   0  0  0  0  0  2  0  0  0  0  0  0
  180.7210  180.6090  134.6610 F   0  0  0  0  0  0  0  0  0  0  0  0
  181.1080  181.2170  136.9490 C   0  0  0  0  0  0  0  0  0  0  0  0
  180.8050  181.5630  135.6230 C   0  0  0  0  0  0  0  0  0  0  0  0
  180.6690  183.8950  136.2630 C   0  0  0  0  0  3  0  0  0  0  0  0
  180.9630  183.5520  137.5850 C   0  0  0  0  0  3  0  0  0  0  0  0
  181.1800  182.2140  137.9280 C   0  0  0  0  0  3  0  0  0  0  0  0
  180.5900  182.9020  135.2830 C   0  0  0  0  0  3  0  0  0  0  0  0
  1 13  1  0  0  0  0
  2  8  1  0  0  0  0
  3 18  2  0  0  0  0
  3 12  1  0  0  0  0
  4 15  2  0  0  0  0
  5 11  2  0  0  0  0
  6  5  1  0  0  0  0
  6  2  2  0  0  0  0
  7 17  2  0  0  0  0
  7 18  1  0  0  0  0
  8  1  2  0  0  0  0
  8  3  1  0  0  0  0
  9 17  1  0  0  0  0
 10  4  1  0  0  0  0
 11  1  1  0  0  0  0
 12 19  1  0  0  0  0
 12 16  2  0  0  0  0
 13 19  2  0  0  0  0
 14  2  1  0  0  0  0
 15 16  1  0  0  0  0
 16 22  1  0  0  0  0
 17 10  1  0  0  0  0
 18  4  1  0  0  0  0
 20 21  1  0  0  0  0
 20 26  2  0  0  0  0
 22 25  1  0  0  0  0
 22 24  2  0  0  0  0
 23 21  2  0  0  0  0
 24 20  1  0  0  0  0
 25 23  1  0  0  0  0
 27  9  1  0  0  0  0
 28 30  1  0  0  0  0
 29 27  1  0  0  0  0
 29 33  1  0  0  0  0
 30 29  2  0  0  0  0
 31 32  1  0  0  0  0
 32 33  2  0  0  0  0
 34 30  1  0  0  0  0
 34 31  2  0  0  0  0
M  END
>  <MODEL>
7

>  <REMARK>
 VINA RESULT:      -9.2      4.437      7.944
  Name = 
  3 active torsions:
  status: ('A' for Active; 'I' for Inactive)
    1  A    between atoms: C_3  and  C_13
    2  A    between atoms: C_3  and  N_17
    3  A    between atoms: C_12  and  C_28
                            x       y       z     vdW  Elec       q    Type
                         _______ _______ _______ _____ _____    ______ ____

>  <TORSDO>
F 3

$$$$
