=
 OpenBabel10262422013D

 30 34  0  0  1  0  0  0  0  0999 V2000
  182.0050  178.0990  141.6420 C   0  0  1  0  0  3  0  0  0  0  0  0
  179.4970  177.4380  138.9270 C   0  0  0  0  0  2  0  0  0  0  0  0
  181.8500  181.5670  138.0290 C   0  0  0  0  0  1  0  0  0  0  0  0
  183.5570  178.0330  141.4950 C   0  0  2  0  0  3  0  0  0  0  0  0
  181.5280  179.0050  142.7870 C   0  0  0  0  0  2  0  0  0  0  0  0
  184.5740  179.0960  144.9300 N   0  0  0  0  0  2  0  0  0  0  0  0
  187.7690  177.3550  142.8840 C   0  0  0  0  0  2  0  0  0  0  0  0
  183.7240  179.0290  143.7800 C   0  0  0  0  0  0  0  0  0  0  0  0
  185.5940  177.9760  139.9540 C   0  0  0  0  0  2  0  0  0  0  0  0
  184.2790  180.3780  139.3710 O   0  0  0  0  0  1  0  0  0  0  0  0
  182.4370  178.9690  143.9310 N   0  0  0  0  0  0  0  0  0  0  0  0
  184.3010  179.0480  142.3870 C   0  0  1  0  0  3  0  0  0  0  0  0
  179.6050  178.1510  137.7290 O   0  0  0  0  0  0  0  0  0  0  0  0
  186.3060  178.9630  140.8870 C   0  0  2  0  0  3  0  0  0  0  0  0
  188.2530  177.4450  141.4390 C   0  0  0  0  0  2  0  0  0  0  0  0
  180.8760  177.2730  139.5480 C   0  0  0  0  0  2  0  0  0  0  0  0
  182.0270  179.6020  139.5870 C   0  0  1  0  0  3  0  0  0  0  0  0
  178.9310  179.3650  137.9300 C   0  0  0  0  0  2  0  0  0  0  0  0
  181.2630  178.5040  140.3670 C   0  0  2  0  0  3  0  0  0  0  0  0
  183.6160  176.8800  139.4230 F   0  0  0  0  0  0  0  0  0  0  0  0
  183.4830  179.2370  139.2300 C   0  0  2  0  0  3  0  0  0  0  0  0
  184.0570  178.0410  140.0290 C   0  0  1  0  0  0  0  0  0  0  0  0
  187.8240  178.7740  140.8140 C   0  0  0  0  0  2  0  0  0  0  0  0
  186.2510  177.4840  142.9380 C   0  0  0  0  0  2  0  0  0  0  0  0
  181.2720  180.2110  138.3900 C   0  0  1  0  0  3  0  0  0  0  0  0
  179.7870  180.3850  138.6880 C   0  0  0  0  0  2  0  0  0  0  0  0
  185.8190  178.8290  142.3360 C   0  0  2  0  0  3  0  0  0  0  0  0
  184.0720  179.0520  146.1870 O   0  0  0  0  0  0  0  0  0  0  0  0
  184.9870  178.2870  146.9130 C   0  0  0  0  0  2  0  0  0  0  0  0
  186.3840  178.5400  146.3900 C   0  0  0  0  0  1  0  0  0  0  0  0
  1  5  1  1  0  0  0
  2 16  1  0  0  0  0
  3 25  1  0  0  0  0
  4  1  1  0  0  0  0
  4 12  1  0  0  0  0
  5 11  1  0  0  0  0
  6 28  1  0  0  0  0
  7 24  1  0  0  0  0
  8 11  2  0  0  0  0
  8  6  1  0  0  0  0
  9 22  1  0  0  0  0
  9 14  1  0  0  0  0
 12  8  1  0  0  0  0
 13 18  1  0  0  0  0
 13  2  1  0  0  0  0
 14 27  1  0  0  0  0
 15  7  1  0  0  0  0
 16 19  1  0  0  0  0
 17 19  1  0  0  0  0
 18 26  1  0  0  0  0
 19  1  1  0  0  0  0
 20 22  1  0  0  0  0
 21 10  1  0  0  0  0
 21 17  1  0  0  0  0
 21 22  1  0  0  0  0
 22  4  1  0  0  0  0
 23 14  1  0  0  0  0
 23 15  1  0  0  0  0
 25 26  1  0  0  0  0
 25 17  1  0  0  0  0
 27 12  1  0  0  0  0
 27 24  1  0  0  0  0
 28 29  1  0  0  0  0
 30 29  1  0  0  0  0
M  END
>  <MODEL>
1

>  <REMARK>
 VINA RESULT:      -7.3      0.000      0.000
  Name = 
  2 active torsions:
  status: ('A' for Active; 'I' for Inactive)
    1  A    between atoms: N_6  and  O_21
    2  A    between atoms: C_9  and  O_21
                            x       y       z     vdW  Elec       q    Type
                         _______ _______ _______ _____ _____    ______ ____

>  <TORSDO>
F 2

$$$$
=
 OpenBabel10262422013D

 30 34  0  0  1  0  0  0  0  0999 V2000
  181.1050  177.6540  139.3590 C   0  0  1  0  0  3  0  0  0  0  0  0
  179.2310  180.2530  141.3170 C   0  0  0  0  0  2  0  0  0  0  0  0
  183.0250  178.6810  143.8720 C   0  0  0  0  0  1  0  0  0  0  0  0
  182.5240  177.8240  138.7310 C   0  0  2  0  0  3  0  0  0  0  0  0
  180.7250  176.1950  139.6480 C   0  0  0  0  0  2  0  0  0  0  0  0
  183.0190  174.3950  137.3320 N   0  0  0  0  0  2  0  0  0  0  0  0
  185.7810  177.0870  135.7350 C   0  0  0  0  0  2  0  0  0  0  0  0
  182.4930  175.3760  138.2310 C   0  0  0  0  0  0  0  0  0  0  0  0
  184.7090  179.1410  138.6210 C   0  0  0  0  0  2  0  0  0  0  0  0
  184.4970  178.2590  141.2700 O   0  0  0  0  0  1  0  0  0  0  0  0
  181.2690  175.2770  138.6510 N   0  0  0  0  0  0  0  0  0  0  0  0
  183.3470  176.5200  138.7170 C   0  0  1  0  0  3  0  0  0  0  0  0
  179.8590  180.8410  142.4200 O   0  0  0  0  0  0  0  0  0  0  0  0
  185.4850  177.8190  138.5790 C   0  0  2  0  0  3  0  0  0  0  0  0
  186.5880  178.2320  136.3410 C   0  0  0  0  0  2  0  0  0  0  0  0
  180.2790  179.8420  140.2940 C   0  0  0  0  0  2  0  0  0  0  0  0
  182.1320  178.5040  141.5280 C   0  0  1  0  0  3  0  0  0  0  0  0
  179.6270  179.9860  143.5080 C   0  0  0  0  0  2  0  0  0  0  0  0
  180.8710  178.4750  140.6300 C   0  0  2  0  0  3  0  0  0  0  0  0
  182.6550  180.1850  138.9100 F   0  0  0  0  0  0  0  0  0  0  0  0
  183.4070  179.0130  140.8260 C   0  0  2  0  0  3  0  0  0  0  0  0
  183.3210  179.0330  139.2790 C   0  0  1  0  0  0  0  0  0  0  0  0
  186.8120  177.9960  137.8360 C   0  0  0  0  0  2  0  0  0  0  0  0
  184.4380  176.9590  136.4440 C   0  0  0  0  0  2  0  0  0  0  0  0
  181.9400  179.1430  142.9170 C   0  0  1  0  0  3  0  0  0  0  0  0
  180.5850  178.7900  143.5200 C   0  0  0  0  0  2  0  0  0  0  0  0
  184.6590  176.6950  137.9400 C   0  0  2  0  0  3  0  0  0  0  0  0
  182.2550  173.3780  136.8640 O   0  0  0  0  0  0  0  0  0  0  0  0
  183.0820  172.2540  136.9160 C   0  0  0  0  0  2  0  0  0  0  0  0
  184.4860  172.6750  137.2910 C   0  0  0  0  0  1  0  0  0  0  0  0
  1  5  1  1  0  0  0
  1 19  1  0  0  0  0
  2 13  1  0  0  0  0
  4 22  1  0  0  0  0
  4  1  1  0  0  0  0
  6  8  1  0  0  0  0
  7 15  1  0  0  0  0
  7 24  1  0  0  0  0
  8 11  2  0  0  0  0
  8 12  1  0  0  0  0
  9 22  1  0  0  0  0
 11  5  1  0  0  0  0
 12  4  1  0  0  0  0
 13 18  1  0  0  0  0
 14  9  1  0  0  0  0
 15 23  1  0  0  0  0
 16 19  1  0  0  0  0
 16  2  1  0  0  0  0
 17 25  1  0  0  0  0
 18 26  1  0  0  0  0
 19 17  1  0  0  0  0
 20 22  1  0  0  0  0
 21 10  1  0  0  0  0
 21 17  1  0  0  0  0
 22 21  1  0  0  0  0
 23 14  1  0  0  0  0
 24 27  1  0  0  0  0
 25 26  1  0  0  0  0
 25  3  1  0  0  0  0
 27 14  1  0  0  0  0
 27 12  1  0  0  0  0
 28 29  1  0  0  0  0
 28  6  1  0  0  0  0
 29 30  1  0  0  0  0
M  END
>  <MODEL>
2

>  <REMARK>
 VINA RESULT:      -6.4      3.465      5.746
  Name = 
  2 active torsions:
  status: ('A' for Active; 'I' for Inactive)
    1  A    between atoms: N_6  and  O_21
    2  A    between atoms: C_9  and  O_21
                            x       y       z     vdW  Elec       q    Type
                         _______ _______ _______ _____ _____    ______ ____

>  <TORSDO>
F 2

$$$$
=
 OpenBabel10262422013D

 30 34  0  0  1  0  0  0  0  0999 V2000
  187.5400  178.0040  138.0470 C   0  0  1  0  0  3  0  0  0  0  0  0
  190.0040  176.7760  135.4940 C   0  0  0  0  0  2  0  0  0  0  0  0
  187.2310  173.1130  137.0040 C   0  0  0  0  0  1  0  0  0  0  0  0
  185.9970  178.1310  137.8480 C   0  0  2  0  0  3  0  0  0  0  0  0
  187.9660  177.8530  139.5150 C   0  0  0  0  0  2  0  0  0  0  0  0
  185.0030  179.2830  141.2600 N   0  0  0  0  0  2  0  0  0  0  0  0
  181.9230  179.8880  138.5090 C   0  0  0  0  0  2  0  0  0  0  0  0
  185.8140  178.6080  140.2930 C   0  0  0  0  0  0  0  0  0  0  0  0
  183.9240  177.5190  136.4880 C   0  0  0  0  0  2  0  0  0  0  0  0
  184.9770  175.0850  137.3870 O   0  0  0  0  0  1  0  0  0  0  0  0
  187.1060  178.6140  140.4170 N   0  0  0  0  0  0  0  0  0  0  0  0
  185.1900  177.8710  139.1360 C   0  0  1  0  0  3  0  0  0  0  0  0
  189.7850  175.5290  134.8990 O   0  0  0  0  0  0  0  0  0  0  0  0
  183.1520  177.3010  137.7950 C   0  0  2  0  0  3  0  0  0  0  0  0
  181.3830  179.0530  137.3510 C   0  0  0  0  0  2  0  0  0  0  0  0
  188.6710  177.3970  135.8800 C   0  0  0  0  0  2  0  0  0  0  0  0
  187.3010  175.6190  137.1870 C   0  0  1  0  0  3  0  0  0  0  0  0
  190.3450  174.5760  135.7630 C   0  0  0  0  0  2  0  0  0  0  0  0
  188.1950  176.8820  137.2370 C   0  0  2  0  0  3  0  0  0  0  0  0
  185.9790  177.9240  135.4850 F   0  0  0  0  0  0  0  0  0  0  0  0
  185.8750  175.8650  136.6510 C   0  0  2  0  0  3  0  0  0  0  0  0
  185.4490  177.3540  136.6260 C   0  0  1  0  0  0  0  0  0  0  0  0
  181.6580  177.5670  137.5900 C   0  0  0  0  0  2  0  0  0  0  0  0
  183.4220  179.6600  138.6650 C   0  0  0  0  0  2  0  0  0  0  0  0
  187.9510  174.3720  136.5580 C   0  0  1  0  0  3  0  0  0  0  0  0
  189.4220  174.2480  136.9410 C   0  0  0  0  0  2  0  0  0  0  0  0
  183.6990  178.1740  138.9320 C   0  0  2  0  0  3  0  0  0  0  0  0
  185.5510  179.9730  142.2890 O   0  0  0  0  0  0  0  0  0  0  0  0
  184.8550  179.5440  143.4210 C   0  0  0  0  0  2  0  0  0  0  0  0
  185.4350  178.2320  143.9040 C   0  0  0  0  0  1  0  0  0  0  0  0
  1  5  1  1  0  0  0
  2 16  1  0  0  0  0
  4  1  1  0  0  0  0
  4 12  1  0  0  0  0
  5 11  1  0  0  0  0
  6 28  1  0  0  0  0
  7 24  1  0  0  0  0
  8 11  2  0  0  0  0
  8  6  1  0  0  0  0
  9 22  1  0  0  0  0
  9 14  1  0  0  0  0
 12  8  1  0  0  0  0
 13  2  1  0  0  0  0
 13 18  1  0  0  0  0
 14 27  1  0  0  0  0
 15 23  1  0  0  0  0
 15  7  1  0  0  0  0
 16 19  1  0  0  0  0
 17 19  1  0  0  0  0
 18 26  1  0  0  0  0
 19  1  1  0  0  0  0
 20 22  1  0  0  0  0
 21 17  1  0  0  0  0
 21 10  1  0  0  0  0
 22 21  1  0  0  0  0
 22  4  1  0  0  0  0
 23 14  1  0  0  0  0
 24 27  1  0  0  0  0
 25 26  1  0  0  0  0
 25  3  1  0  0  0  0
 25 17  1  0  0  0  0
 27 12  1  0  0  0  0
 28 29  1  0  0  0  0
 29 30  1  0  0  0  0
M  END
>  <MODEL>
3

>  <REMARK>
 VINA RESULT:      -6.3      4.036      7.039
  Name = 
  2 active torsions:
  status: ('A' for Active; 'I' for Inactive)
    1  A    between atoms: N_6  and  O_21
    2  A    between atoms: C_9  and  O_21
                            x       y       z     vdW  Elec       q    Type
                         _______ _______ _______ _____ _____    ______ ____

>  <TORSDO>
F 2

$$$$
=
 OpenBabel10262422013D

 30 34  0  0  1  0  0  0  0  0999 V2000
  183.3420  178.1380  140.3050 C   0  0  1  0  0  3  0  0  0  0  0  0
  180.0520  178.2730  142.1080 C   0  0  0  0  0  2  0  0  0  0  0  0
  179.8560  180.9950  138.1160 C   0  0  0  0  0  1  0  0  0  0  0  0
  183.6110  177.4390  138.9350 C   0  0  2  0  0  3  0  0  0  0  0  0
  184.3300  179.2680  140.6300 C   0  0  0  0  0  2  0  0  0  0  0  0
  187.2040  178.3410  138.4500 N   0  0  0  0  0  2  0  0  0  0  0  0
  186.0600  175.2680  135.8670 C   0  0  0  0  0  2  0  0  0  0  0  0
  185.8700  178.5070  138.9400 C   0  0  0  0  0  0  0  0  0  0  0  0
  182.6660  176.4150  136.7960 C   0  0  0  0  0  2  0  0  0  0  0  0
  181.7820  179.0720  136.8100 O   0  0  0  0  0  1  0  0  0  0  0  0
  185.6730  178.9840  140.1300 N   0  0  0  0  0  0  0  0  0  0  0  0
  184.6800  178.1530  138.0840 C   0  0  1  0  0  3  0  0  0  0  0  0
  178.9330  178.7580  141.4240 O   0  0  0  0  0  0  0  0  0  0  0  0
  183.7650  177.1200  135.9920 C   0  0  2  0  0  3  0  0  0  0  0  0
  184.7970  175.0120  135.0500 C   0  0  0  0  0  2  0  0  0  0  0  0
  181.0140  177.6310  141.1210 C   0  0  0  0  0  2  0  0  0  0  0  0
  181.3830  179.2910  139.1580 C   0  0  1  0  0  3  0  0  0  0  0  0
  178.9610  180.1550  141.5620 C   0  0  0  0  0  2  0  0  0  0  0  0
  181.9200  178.6770  140.4740 C   0  0  2  0  0  3  0  0  0  0  0  0
  181.6160  176.1590  138.8520 F   0  0  0  0  0  0  0  0  0  0  0  0
  181.4220  178.3390  137.9450 C   0  0  2  0  0  3  0  0  0  0  0  0
  182.3310  177.0990  138.1340 C   0  0  1  0  0  0  0  0  0  0  0  0
  184.0950  176.3310  134.7220 C   0  0  0  0  0  2  0  0  0  0  0  0
  185.7110  176.0010  137.1570 C   0  0  0  0  0  2  0  0  0  0  0  0
  180.0360  180.0300  139.2730 C   0  0  1  0  0  3  0  0  0  0  0  0
  179.9310  180.8150  140.5760 C   0  0  0  0  0  2  0  0  0  0  0  0
  185.0310  177.3390  136.8310 C   0  0  2  0  0  3  0  0  0  0  0  0
  188.2830  178.6280  139.2180 O   0  0  0  0  0  0  0  0  0  0  0  0
  189.3850  178.3210  138.4190 C   0  0  0  0  0  2  0  0  0  0  0  0
  189.0590  178.6170  136.9710 C   0  0  0  0  0  1  0  0  0  0  0  0
  1 19  1  0  0  0  0
  1  5  1  6  0  0  0
  3 25  1  0  0  0  0
  4  1  1  0  0  0  0
  6  8  1  0  0  0  0
  6 28  1  0  0  0  0
  7 24  1  0  0  0  0
  8 11  2  0  0  0  0
  9 22  1  0  0  0  0
 10 21  1  0  0  0  0
 11  5  1  0  0  0  0
 12  4  1  0  0  0  0
 12  8  1  0  0  0  0
 13 18  1  0  0  0  0
 13  2  1  0  0  0  0
 14  9  1  0  0  0  0
 14 27  1  0  0  0  0
 15  7  1  0  0  0  0
 16  2  1  0  0  0  0
 17 25  1  0  0  0  0
 17 19  1  0  0  0  0
 19 16  1  0  0  0  0
 21 22  1  0  0  0  0
 21 17  1  0  0  0  0
 22 20  1  0  0  0  0
 22  4  1  0  0  0  0
 23 15  1  0  0  0  0
 23 14  1  0  0  0  0
 25 26  1  0  0  0  0
 26 18  1  0  0  0  0
 27 24  1  0  0  0  0
 27 12  1  0  0  0  0
 29 28  1  0  0  0  0
 30 29  1  0  0  0  0
M  END
>  <MODEL>
4

>  <REMARK>
 VINA RESULT:      -6.0      3.246      5.106
  Name = 
  2 active torsions:
  status: ('A' for Active; 'I' for Inactive)
    1  A    between atoms: N_6  and  O_21
    2  A    between atoms: C_9  and  O_21
                            x       y       z     vdW  Elec       q    Type
                         _______ _______ _______ _____ _____    ______ ____

>  <TORSDO>
F 2

$$$$
=
 OpenBabel10262422013D

 30 34  0  0  1  0  0  0  0  0999 V2000
  192.7000  176.7300  137.5960 C   0  0  1  0  0  3  0  0  0  0  0  0
  195.6920  176.1770  135.3970 C   0  0  0  0  0  2  0  0  0  0  0  0
  193.6180  171.9390  136.4550 C   0  0  0  0  0  1  0  0  0  0  0  0
  191.2080  176.5290  137.1850 C   0  0  2  0  0  3  0  0  0  0  0  0
  192.9490  176.6110  139.1070 C   0  0  0  0  0  2  0  0  0  0  0  0
  189.5370  177.2880  140.4400 N   0  0  0  0  0  2  0  0  0  0  0  0
  186.7960  177.3330  137.2930 C   0  0  0  0  0  2  0  0  0  0  0  0
  190.5990  176.8480  139.5870 C   0  0  0  0  0  0  0  0  0  0  0  0
  189.5210  175.5430  135.5400 C   0  0  0  0  0  2  0  0  0  0  0  0
  190.9550  173.3580  136.5450 O   0  0  0  0  0  1  0  0  0  0  0  0
  191.8300  177.1280  139.8900 N   0  0  0  0  0  0  0  0  0  0  0  0
  190.3130  176.0440  138.3430 C   0  0  1  0  0  3  0  0  0  0  0  0
  195.8350  174.9400  134.7600 O   0  0  0  0  0  0  0  0  0  0  0  0
  188.6480  175.1070  136.7230 C   0  0  2  0  0  3  0  0  0  0  0  0
  186.6120  176.4520  136.0600 C   0  0  0  0  0  2  0  0  0  0  0  0
  194.2160  176.4770  135.6000 C   0  0  0  0  0  2  0  0  0  0  0  0
  193.1090  174.3900  136.6800 C   0  0  1  0  0  3  0  0  0  0  0  0
  196.4710  174.0930  135.6820 C   0  0  0  0  0  2  0  0  0  0  0  0
  193.6880  175.8130  136.8710 C   0  0  2  0  0  3  0  0  0  0  0  0
  191.5510  176.4270  134.8400 F   0  0  0  0  0  0  0  0  0  0  0  0
  191.7490  174.3450  135.9520 C   0  0  2  0  0  3  0  0  0  0  0  0
  191.0120  175.7060  135.8880 C   0  0  1  0  0  0  0  0  0  0  0  0
  187.1740  175.0520  136.3140 C   0  0  0  0  0  2  0  0  0  0  0  0
  188.2730  177.4280  137.6540 C   0  0  0  0  0  2  0  0  0  0  0  0
  194.0950  173.3420  136.1310 C   0  0  1  0  0  3  0  0  0  0  0  0
  195.4930  173.5220  136.7140 C   0  0  0  0  0  2  0  0  0  0  0  0
  188.8330  176.0270  137.9380 C   0  0  2  0  0  3  0  0  0  0  0  0
  189.7770  178.0350  141.5440 O   0  0  0  0  0  0  0  0  0  0  0  0
  188.6890  177.7940  142.3850 C   0  0  0  0  0  2  0  0  0  0  0  0
  188.7700  176.3820  142.9250 C   0  0  0  0  0  1  0  0  0  0  0  0
  1  5  1  1  0  0  0
  2 16  1  0  0  0  0
  4  1  1  0  0  0  0
  4 12  1  0  0  0  0
  5 11  1  0  0  0  0
  6 28  1  0  0  0  0
  7 24  1  0  0  0  0
  8 11  2  0  0  0  0
  8  6  1  0  0  0  0
  9 22  1  0  0  0  0
  9 14  1  0  0  0  0
 12  8  1  0  0  0  0
 13  2  1  0  0  0  0
 13 18  1  0  0  0  0
 14 27  1  0  0  0  0
 15 23  1  0  0  0  0
 15  7  1  0  0  0  0
 16 19  1  0  0  0  0
 17 19  1  0  0  0  0
 18 26  1  0  0  0  0
 19  1  1  0  0  0  0
 20 22  1  0  0  0  0
 21 10  1  0  0  0  0
 21 17  1  0  0  0  0
 22 21  1  0  0  0  0
 22  4  1  0  0  0  0
 23 14  1  0  0  0  0
 24 27  1  0  0  0  0
 25  3  1  0  0  0  0
 25 17  1  0  0  0  0
 25 26  1  0  0  0  0
 27 12  1  0  0  0  0
 28 29  1  0  0  0  0
 29 30  1  0  0  0  0
M  END
>  <MODEL>
5

>  <REMARK>
 VINA RESULT:      -5.9      7.159     10.864
  Name = 
  2 active torsions:
  status: ('A' for Active; 'I' for Inactive)
    1  A    between atoms: N_6  and  O_21
    2  A    between atoms: C_9  and  O_21
                            x       y       z     vdW  Elec       q    Type
                         _______ _______ _______ _____ _____    ______ ____

>  <TORSDO>
F 2

$$$$
=
 OpenBabel10262422013D

 30 34  0  0  1  0  0  0  0  0999 V2000
  185.7090  178.3010  138.4170 C   0  0  1  0  0  3  0  0  0  0  0  0
  187.4950  177.6440  135.1800 C   0  0  0  0  0  2  0  0  0  0  0  0
  186.1280  173.4620  137.1870 C   0  0  0  0  0  1  0  0  0  0  0  0
  184.1860  178.0880  138.6860 C   0  0  2  0  0  3  0  0  0  0  0  0
  186.5770  178.2460  139.6830 C   0  0  0  0  0  2  0  0  0  0  0  0
  184.0420  178.9920  142.3080 N   0  0  0  0  0  2  0  0  0  0  0  0
  180.2240  178.9120  140.6220 C   0  0  0  0  0  2  0  0  0  0  0  0
  184.6490  178.5120  141.1040 C   0  0  0  0  0  0  0  0  0  0  0  0
  181.9760  177.0390  137.9530 C   0  0  0  0  0  2  0  0  0  0  0  0
  183.7330  174.8940  138.3410 O   0  0  0  0  0  1  0  0  0  0  0  0
  185.8880  178.8000  140.8460 N   0  0  0  0  0  0  0  0  0  0  0  0
  183.8750  177.6570  140.1330 C   0  0  1  0  0  3  0  0  0  0  0  0
  187.3720  176.3800  134.5940 O   0  0  0  0  0  0  0  0  0  0  0  0
  181.6940  176.6570  139.4110 C   0  0  2  0  0  3  0  0  0  0  0  0
  179.5490  177.9800  139.6200 C   0  0  0  0  0  2  0  0  0  0  0  0
  186.2390  177.9580  135.9780 C   0  0  0  0  0  2  0  0  0  0  0  0
  185.7250  175.9230  137.5080 C   0  0  1  0  0  3  0  0  0  0  0  0
  188.3510  175.5710  135.1910 C   0  0  0  0  0  2  0  0  0  0  0  0
  186.3100  177.3510  137.3790 C   0  0  2  0  0  3  0  0  0  0  0  0
  183.5050  177.8850  136.4230 F   0  0  0  0  0  0  0  0  0  0  0  0
  184.1860  175.8520  137.4290 C   0  0  2  0  0  3  0  0  0  0  0  0
  183.4720  177.2110  137.6290 C   0  0  1  0  0  0  0  0  0  0  0  0
  180.1860  176.5900  139.6690 C   0  0  0  0  0  2  0  0  0  0  0  0
  181.7150  179.0170  140.3190 C   0  0  0  0  0  2  0  0  0  0  0  0
  186.4020  174.8490  136.6360 C   0  0  1  0  0  3  0  0  0  0  0  0
  187.9120  175.0480  136.5630 C   0  0  0  0  0  2  0  0  0  0  0  0
  182.3630  177.6270  140.3940 C   0  0  2  0  0  3  0  0  0  0  0  0
  184.7170  179.7840  143.1760 O   0  0  0  0  0  0  0  0  0  0  0  0
  184.3040  179.3640  144.4420 C   0  0  0  0  0  2  0  0  0  0  0  0
  182.8480  178.9540  144.3890 C   0  0  0  0  0  1  0  0  0  0  0  0
  1  4  1  0  0  0  0
  1  5  1  1  0  0  0
  2 16  1  0  0  0  0
  4 12  1  0  0  0  0
  5 11  1  0  0  0  0
  6 28  1  0  0  0  0
  8  6  1  0  0  0  0
  9 14  1  0  0  0  0
 11  8  2  0  0  0  0
 12 27  1  0  0  0  0
 12  8  1  0  0  0  0
 13  2  1  0  0  0  0
 13 18  1  0  0  0  0
 14 23  1  0  0  0  0
 14 27  1  0  0  0  0
 15 23  1  0  0  0  0
 15  7  1  0  0  0  0
 16 19  1  0  0  0  0
 18 26  1  0  0  0  0
 19 17  1  0  0  0  0
 19  1  1  0  0  0  0
 20 22  1  0  0  0  0
 21 17  1  0  0  0  0
 21 22  1  0  0  0  0
 21 10  1  0  0  0  0
 22  9  1  0  0  0  0
 22  4  1  0  0  0  0
 24 27  1  0  0  0  0
 24  7  1  0  0  0  0
 25  3  1  0  0  0  0
 25 17  1  0  0  0  0
 26 25  1  0  0  0  0
 28 29  1  0  0  0  0
 30 29  1  0  0  0  0
M  END
>  <MODEL>
6

>  <REMARK>
 VINA RESULT:      -5.8      3.315      6.124
  Name = 
  2 active torsions:
  status: ('A' for Active; 'I' for Inactive)
    1  A    between atoms: N_6  and  O_21
    2  A    between atoms: C_9  and  O_21
                            x       y       z     vdW  Elec       q    Type
                         _______ _______ _______ _____ _____    ______ ____

>  <TORSDO>
F 2

$$$$
=
 OpenBabel10262422013D

 30 34  0  0  1  0  0  0  0  0999 V2000
  183.2510  178.2770  140.0350 C   0  0  1  0  0  3  0  0  0  0  0  0
  180.6830  179.3720  142.5450 C   0  0  0  0  0  2  0  0  0  0  0  0
  179.0070  180.0640  138.0620 C   0  0  0  0  0  1  0  0  0  0  0  0
  183.1480  177.0330  139.0980 C   0  0  2  0  0  3  0  0  0  0  0  0
  184.1800  179.3780  139.5040 C   0  0  0  0  0  2  0  0  0  0  0  0
  186.3130  177.4300  137.1530 N   0  0  0  0  0  2  0  0  0  0  0  0
  184.7210  173.6010  136.6730 C   0  0  0  0  0  2  0  0  0  0  0  0
  185.1860  177.8670  137.9180 C   0  0  0  0  0  0  0  0  0  0  0  0
  181.6880  175.2240  138.0400 C   0  0  0  0  0  2  0  0  0  0  0  0
  180.6060  177.6600  137.1810 O   0  0  0  0  0  1  0  0  0  0  0  0
  185.3230  178.8300  138.7780 N   0  0  0  0  0  0  0  0  0  0  0  0
  183.8280  177.2380  137.7300 C   0  0  1  0  0  3  0  0  0  0  0  0
  179.3670  179.5670  142.1140 O   0  0  0  0  0  0  0  0  0  0  0  0
  182.4130  175.4410  136.7070 C   0  0  2  0  0  3  0  0  0  0  0  0
  183.2960  173.0810  136.4990 C   0  0  0  0  0  2  0  0  0  0  0  0
  181.3490  178.3090  141.6850 C   0  0  0  0  0  2  0  0  0  0  0  0
  180.9350  178.9130  139.1930 C   0  0  1  0  0  3  0  0  0  0  0  0
  179.3050  180.8780  141.6160 C   0  0  0  0  0  2  0  0  0  0  0  0
  181.9070  178.9130  140.3970 C   0  0  2  0  0  3  0  0  0  0  0  0
  181.3540  175.9580  140.2190 F   0  0  0  0  0  0  0  0  0  0  0  0
  180.6850  177.5230  138.5710 C   0  0  2  0  0  3  0  0  0  0  0  0
  181.7210  176.4450  138.9780 C   0  0  1  0  0  0  0  0  0  0  0  0
  182.4070  174.1570  135.8740 C   0  0  0  0  0  2  0  0  0  0  0  0
  184.7200  174.8460  137.5540 C   0  0  0  0  0  2  0  0  0  0  0  0
  179.6260  179.6990  139.3990 C   0  0  1  0  0  3  0  0  0  0  0  0
  179.8560  180.9820  140.1900 C   0  0  0  0  0  2  0  0  0  0  0  0
  183.8500  175.9380  136.9150 C   0  0  2  0  0  3  0  0  0  0  0  0
  187.5440  177.9660  137.3320 O   0  0  0  0  0  0  0  0  0  0  0  0
  188.2700  176.9830  138.0070 C   0  0  0  0  0  2  0  0  0  0  0  0
  188.6810  177.5030  139.3680 C   0  0  0  0  0  1  0  0  0  0  0  0
  1  5  1  6  0  0  0
  1 19  1  0  0  0  0
  3 25  1  0  0  0  0
  4  1  1  0  0  0  0
  6 28  1  0  0  0  0
  6  8  1  0  0  0  0
  7 24  1  0  0  0  0
  8 11  2  0  0  0  0
  9 22  1  0  0  0  0
 10 21  1  0  0  0  0
 11  5  1  0  0  0  0
 12  8  1  0  0  0  0
 12  4  1  0  0  0  0
 13  2  1  0  0  0  0
 14 27  1  0  0  0  0
 14  9  1  0  0  0  0
 15  7  1  0  0  0  0
 16  2  1  0  0  0  0
 17 25  1  0  0  0  0
 17 19  1  0  0  0  0
 18 13  1  0  0  0  0
 19 16  1  0  0  0  0
 21 22  1  0  0  0  0
 21 17  1  0  0  0  0
 22  4  1  0  0  0  0
 22 20  1  0  0  0  0
 23 15  1  0  0  0  0
 23 14  1  0  0  0  0
 25 26  1  0  0  0  0
 26 18  1  0  0  0  0
 27 24  1  0  0  0  0
 27 12  1  0  0  0  0
 28 29  1  0  0  0  0
 29 30  1  0  0  0  0
M  END
>  <MODEL>
7

>  <REMARK>
 VINA RESULT:      -5.5      3.358      5.544
  Name = 
  2 active torsions:
  status: ('A' for Active; 'I' for Inactive)
    1  A    between atoms: N_6  and  O_21
    2  A    between atoms: C_9  and  O_21
                            x       y       z     vdW  Elec       q    Type
                         _______ _______ _______ _____ _____    ______ ____

>  <TORSDO>
F 2

$$$$
=
 OpenBabel10262422013D

 30 34  0  0  1  0  0  0  0  0999 V2000
  183.3840  178.3660  139.6280 C   0  0  1  0  0  3  0  0  0  0  0  0
  180.1830  179.4700  141.2490 C   0  0  0  0  0  2  0  0  0  0  0  0
  180.3400  181.0330  136.6750 C   0  0  0  0  0  1  0  0  0  0  0  0
  183.5210  177.2960  138.4990 C   0  0  2  0  0  3  0  0  0  0  0  0
  184.5380  179.3780  139.6660 C   0  0  0  0  0  2  0  0  0  0  0  0
  187.2010  177.4820  137.8810 N   0  0  0  0  0  2  0  0  0  0  0  0
  185.5590  174.0430  136.1760 C   0  0  0  0  0  2  0  0  0  0  0  0
  185.9160  177.9720  138.2760 C   0  0  0  0  0  0  0  0  0  0  0  0
  182.3950  175.8960  136.6840 C   0  0  0  0  0  2  0  0  0  0  0  0
  181.9280  178.5630  135.9720 O   0  0  0  0  0  1  0  0  0  0  0  0
  185.8140  178.7720  139.2930 N   0  0  0  0  0  0  0  0  0  0  0  0
  184.6720  177.5880  137.5150 C   0  0  1  0  0  3  0  0  0  0  0  0
  179.1410  179.9210  140.4320 O   0  0  0  0  0  0  0  0  0  0  0  0
  183.5760  176.1870  135.7500 C   0  0  2  0  0  3  0  0  0  0  0  0
  184.2580  173.7740  135.4250 C   0  0  0  0  0  2  0  0  0  0  0  0
  181.0200  178.4520  140.4910 C   0  0  0  0  0  2  0  0  0  0  0  0
  181.6060  179.4560  138.1680 C   0  0  1  0  0  3  0  0  0  0  0  0
  179.3840  181.2820  140.1960 C   0  0  0  0  0  2  0  0  0  0  0  0
  182.0640  179.1390  139.6130 C   0  0  2  0  0  3  0  0  0  0  0  0
  181.3520  176.3570  138.7070 F   0  0  0  0  0  0  0  0  0  0  0  0
  181.4790  178.2210  137.2520 C   0  0  2  0  0  3  0  0  0  0  0  0
  182.1910  176.9530  137.7840 C   0  0  1  0  0  0  0  0  0  0  0  0
  183.7600  175.0490  134.7420 C   0  0  0  0  0  2  0  0  0  0  0  0
  185.3470  175.1370  137.2170 C   0  0  0  0  0  2  0  0  0  0  0  0
  180.3890  180.3940  138.0500 C   0  0  1  0  0  3  0  0  0  0  0  0
  180.4270  181.5030  139.0960 C   0  0  0  0  0  2  0  0  0  0  0  0
  184.8740  176.4270  136.5310 C   0  0  2  0  0  3  0  0  0  0  0  0
  188.3230  177.7960  138.5720 O   0  0  0  0  0  0  0  0  0  0  0  0
  189.0990  178.5400  137.6810 C   0  0  0  0  0  2  0  0  0  0  0  0
  189.0560  177.8940  136.3130 C   0  0  0  0  0  1  0  0  0  0  0  0
  1  5  1  6  0  0  0
  3 25  1  0  0  0  0
  4  1  1  0  0  0  0
  6  8  1  0  0  0  0
  6 28  1  0  0  0  0
  7 24  1  0  0  0  0
  8 11  2  0  0  0  0
  9 22  1  0  0  0  0
 10 21  1  0  0  0  0
 11  5  1  0  0  0  0
 12  8  1  0  0  0  0
 12  4  1  0  0  0  0
 13  2  1  0  0  0  0
 14 27  1  0  0  0  0
 14  9  1  0  0  0  0
 15  7  1  0  0  0  0
 16  2  1  0  0  0  0
 17 19  1  0  0  0  0
 18 13  1  0  0  0  0
 19  1  1  0  0  0  0
 19 16  1  0  0  0  0
 21 22  1  0  0  0  0
 21 17  1  0  0  0  0
 22  4  1  0  0  0  0
 22 20  1  0  0  0  0
 23 15  1  0  0  0  0
 23 14  1  0  0  0  0
 25 17  1  0  0  0  0
 25 26  1  0  0  0  0
 26 18  1  0  0  0  0
 27 24  1  0  0  0  0
 27 12  1  0  0  0  0
 29 28  1  0  0  0  0
 30 29  1  0  0  0  0
M  END
>  <MODEL>
8

>  <REMARK>
 VINA RESULT:      -5.5      3.659      5.494
  Name = 
  2 active torsions:
  status: ('A' for Active; 'I' for Inactive)
    1  A    between atoms: N_6  and  O_21
    2  A    between atoms: C_9  and  O_21
                            x       y       z     vdW  Elec       q    Type
                         _______ _______ _______ _____ _____    ______ ____

>  <TORSDO>
F 2

$$$$
=
 OpenBabel10262422013D

 30 34  0  0  1  0  0  0  0  0999 V2000
  180.0040  177.2110  139.8540 C   0  0  1  0  0  3  0  0  0  0  0  0
  178.9730  180.2360  141.8230 C   0  0  0  0  0  2  0  0  0  0  0  0
  183.1830  178.5380  143.4910 C   0  0  0  0  0  1  0  0  0  0  0  0
  181.2010  177.1280  138.8550 C   0  0  2  0  0  3  0  0  0  0  0  0
  179.5980  175.8540  140.4490 C   0  0  0  0  0  2  0  0  0  0  0  0
  180.9980  173.5200  137.9060 N   0  0  0  0  0  2  0  0  0  0  0  0
  183.4200  175.6420  135.2510 C   0  0  0  0  0  2  0  0  0  0  0  0
  180.8270  174.6600  138.7550 C   0  0  0  0  0  0  0  0  0  0  0  0
  183.3710  178.1470  137.9750 C   0  0  0  0  0  2  0  0  0  0  0  0
  183.8320  177.6260  140.6870 O   0  0  0  0  0  1  0  0  0  0  0  0
  179.7640  174.7630  139.4930 N   0  0  0  0  0  0  0  0  0  0  0  0
  181.8750  175.7420  138.8200 C   0  0  1  0  0  3  0  0  0  0  0  0
  179.9300  180.8730  142.6200 O   0  0  0  0  0  0  0  0  0  0  0  0
  183.9900  176.7450  137.9280 C   0  0  2  0  0  3  0  0  0  0  0  0
  184.4570  176.7450  135.4430 C   0  0  0  0  0  2  0  0  0  0  0  0
  179.6560  179.5800  140.6340 C   0  0  0  0  0  2  0  0  0  0  0  0
  181.6610  178.1870  141.5210 C   0  0  1  0  0  3  0  0  0  0  0  0
  179.9400  180.1920  143.8470 C   0  0  0  0  0  2  0  0  0  0  0  0
  180.2020  178.2020  141.0030 C   0  0  2  0  0  3  0  0  0  0  0  0
  181.5730  179.4610  138.6360 F   0  0  0  0  0  0  0  0  0  0  0  0
  182.7280  178.4480  140.4380 C   0  0  2  0  0  3  0  0  0  0  0  0
  182.2170  178.2890  138.9850 C   0  0  1  0  0  0  0  0  0  0  0  0
  185.0680  176.6680  136.8430 C   0  0  0  0  0  2  0  0  0  0  0  0
  182.3220  175.7660  136.3000 C   0  0  0  0  0  2  0  0  0  0  0  0
  181.9180  179.0090  142.7990 C   0  0  1  0  0  3  0  0  0  0  0  0
  180.7600  178.8990  143.7840 C   0  0  0  0  0  2  0  0  0  0  0  0
  182.9280  175.6600  137.7070 C   0  0  2  0  0  3  0  0  0  0  0  0
  180.0510  172.5550  137.8160 O   0  0  0  0  0  0  0  0  0  0  0  0
  180.1340  172.0930  136.5010 C   0  0  0  0  0  2  0  0  0  0  0  0
  179.3420  170.8100  136.3650 C   0  0  0  0  0  1  0  0  0  0  0  0
  1  5  1  1  0  0  0
  1 19  1  0  0  0  0
  2 13  1  0  0  0  0
  4 22  1  0  0  0  0
  4  1  1  0  0  0  0
  6  8  1  0  0  0  0
  7 15  1  0  0  0  0
  7 24  1  0  0  0  0
  8 12  1  0  0  0  0
  8 11  2  0  0  0  0
  9 22  1  0  0  0  0
 11  5  1  0  0  0  0
 12  4  1  0  0  0  0
 13 18  1  0  0  0  0
 14  9  1  0  0  0  0
 15 23  1  0  0  0  0
 16 19  1  0  0  0  0
 16  2  1  0  0  0  0
 17 25  1  0  0  0  0
 19 17  1  0  0  0  0
 20 22  1  0  0  0  0
 21 10  1  0  0  0  0
 21 17  1  0  0  0  0
 22 21  1  0  0  0  0
 23 14  1  0  0  0  0
 24 27  1  0  0  0  0
 25  3  1  0  0  0  0
 25 26  1  0  0  0  0
 26 18  1  0  0  0  0
 27 14  1  0  0  0  0
 27 12  1  0  0  0  0
 28  6  1  0  0  0  0
 29 28  1  0  0  0  0
 30 29  1  0  0  0  0
M  END
>  <MODEL>
9

>  <REMARK>
 VINA RESULT:      -5.1      3.734      6.526
  Name = 
  2 active torsions:
  status: ('A' for Active; 'I' for Inactive)
    1  A    between atoms: N_6  and  O_21
    2  A    between atoms: C_9  and  O_21
                            x       y       z     vdW  Elec       q    Type
                         _______ _______ _______ _____ _____    ______ ____

>  <TORSDO>
F 2

$$$$
