=
 OpenBabel10262422583D

 37 40  0  0  1  0  0  0  0  0999 V2000
  179.8190  177.5660  139.2850 O   0  0  0  0  0  0  0  0  0  0  0  0
  181.0190  181.0920  139.2030 C   0  0  0  0  0  2  0  0  0  0  0  0
  182.5290  175.4070  137.8310 C   0  0  0  0  0  3  0  0  0  0  0  0
  180.6670  178.3580  140.0840 C   0  0  2  0  0  3  0  0  0  0  0  0
  181.8650  176.4870  138.4350 C   0  0  0  0  0  0  0  0  0  0  0  0
  179.8950  179.4800  140.7760 C   0  0  2  0  0  3  0  0  0  0  0  0
  179.5880  175.6610  137.9170 C   0  0  0  0  0  1  0  0  0  0  0  0
  182.5490  177.7100  138.5940 C   0  0  0  0  0  0  0  0  0  0  0  0
  184.4990  176.7730  137.5070 C   0  0  0  0  0  3  0  0  0  0  0  0
  180.4440  176.3210  138.9860 C   0  0  2  0  0  0  0  0  0  0  0  0
  183.8590  177.8490  138.1260 C   0  0  0  0  0  3  0  0  0  0  0  0
  179.6960  180.6830  139.8570 C   0  0  0  0  0  2  0  0  0  0  0  0
  181.8760  178.8630  139.2770 C   0  0  1  0  0  3  0  0  0  0  0  0
  183.8370  175.5450  137.3580 C   0  0  0  0  0  0  0  0  0  0  0  0
  181.5780  180.0060  138.3800 N   0  0  0  0  0  0  0  0  0  0  0  0
  184.4540  174.4480  136.7490 O   0  0  0  0  0  0  0  0  0  0  0  0
  185.1380  173.4450  137.4880 C   0  0  0  0  0  1  0  0  0  0  0  0
  179.6060  174.4630  140.2780 C   0  0  0  0  0  2  0  0  0  0  0  0
  180.4290  175.4420  140.1440 N   0  0  0  0  0  0  0  0  0  0  0  0
  180.6910  179.6660  137.2390 C   0  0  2  0  0  3  0  0  0  0  0  0
  181.4550  179.2410  136.1420 O   0  0  0  0  0  0  0  0  0  0  0  0
  181.6000  177.3250  134.7420 C   0  0  0  0  0  1  0  0  0  0  0  0
  180.6870  178.2630  135.5050 C   0  0  0  0  0  2  0  0  0  0  0  0
  179.8170  180.8570  136.8010 C   0  0  0  0  0  2  0  0  0  0  0  0
  180.5340  181.7350  135.7830 C   0  0  0  0  0  2  0  0  0  0  0  0
  179.9140  183.1210  135.7530 C   0  0  0  0  0  2  0  0  0  0  0  0
  181.4970  184.4190  137.1450 C   0  0  0  0  0  1  0  0  0  0  0  0
  180.9970  184.1820  135.7350 C   0  0  0  0  0  2  0  0  0  0  0  0
  180.6010  179.8810  142.0660 C   0  0  0  0  0  2  0  0  0  0  0  0
  181.0070  178.6560  142.8760 C   0  0  0  0  0  2  0  0  0  0  0  0
  182.7690  178.9380  144.6360 C   0  0  0  0  0  3  0  0  0  0  0  0
  182.4390  178.7400  143.2910 C   0  0  0  0  0  0  0  0  0  0  0  0
  183.4510  178.6520  142.3290 C   0  0  0  0  0  3  0  0  0  0  0  0
  185.7700  178.6660  141.7820 F   0  0  0  0  0  0  0  0  0  0  0  0
  185.1220  178.9470  144.0580 C   0  0  0  0  0  3  0  0  0  0  0  0
  184.7910  178.7540  142.7130 C   0  0  0  0  0  0  0  0  0  0  0  0
  184.1090  179.0400  145.0190 C   0  0  0  0  0  3  0  0  0  0  0  0
  2 12  1  0  0  0  0
  3  5  1  0  0  0  0
  4  1  1  6  0  0  0
  4  6  1  0  0  0  0
  5  8  2  0  0  0  0
  5 10  1  0  0  0  0
  6 29  1  1  0  0  0
  9 11  2  0  0  0  0
 10  7  1  6  0  0  0
 10  1  1  0  0  0  0
 10 19  1  0  0  0  0
 11  8  1  0  0  0  0
 12  6  1  0  0  0  0
 13  8  1  6  0  0  0
 13  4  1  0  0  0  0
 14  9  1  0  0  0  0
 14  3  2  0  0  0  0
 15  2  1  0  0  0  0
 15 13  1  0  0  0  0
 16 14  1  0  0  0  0
 16 17  1  0  0  0  0
 19 18  2  0  0  0  0
 20 24  1  6  0  0  0
 20 15  1  0  0  0  0
 21 20  1  0  0  0  0
 22 23  1  0  0  0  0
 23 21  1  0  0  0  0
 25 24  1  0  0  0  0
 26 25  1  0  0  0  0
 28 26  1  0  0  0  0
 28 27  1  0  0  0  0
 29 30  1  0  0  0  0
 30 32  1  0  0  0  0
 31 37  1  0  0  0  0
 32 31  2  0  0  0  0
 33 36  2  0  0  0  0
 33 32  1  0  0  0  0
 34 36  1  0  0  0  0
 35 37  2  0  0  0  0
 36 35  1  0  0  0  0
M  END
>  <MODEL>
1

>  <REMARK>
 VINA RESULT:      -5.6      0.000      0.000
  Name = 
  12 active torsions:
  status: ('A' for Active; 'I' for Inactive)
    1  A    between atoms: C_1  and  O_5
    2  A    between atoms: C_1  and  C_33
    3  A    between atoms: C_1  and  N_36
    4  A    between atoms: O_3  and  C_32
    5  A    between atoms: O_5  and  C_23
    6  A    between atoms: C_6  and  C_31
    7  A    between atoms: C_14  and  C_37
    8  A    between atoms: C_17  and  C_26
    9  A    between atoms: C_17  and  C_33
   10  A    between atoms: C_24  and  N_28
   11  A    between atoms: C_26  and  C_34
   12  A    between atoms: C_31  and  C_37
                            x       y       z     vdW  Elec       q    Type
                         _______ _______ _______ _____ _____    ______ ____

>  <TORSDO>
F 12

$$$$
=
 OpenBabel10262422583D

 37 40  0  0  1  0  0  0  0  0999 V2000
  180.6860  177.0080  139.5940 O   0  0  0  0  0  0  0  0  0  0  0  0
  183.4900  179.3470  138.8560 C   0  0  0  0  0  2  0  0  0  0  0  0
  181.0150  174.0700  137.2740 C   0  0  0  0  0  3  0  0  0  0  0  0
  182.0500  177.0830  139.9390 C   0  0  2  0  0  3  0  0  0  0  0  0
  181.3260  175.2040  138.0420 C   0  0  0  0  0  0  0  0  0  0  0  0
  182.3340  178.2920  140.8290 C   0  0  2  0  0  3  0  0  0  0  0  0
  178.9710  175.7890  138.5340 C   0  0  0  0  0  1  0  0  0  0  0  0
  182.5690  175.8420  137.8480 C   0  0  0  0  0  0  0  0  0  0  0  0
  183.1290  174.2510  136.1120 C   0  0  0  0  0  3  0  0  0  0  0  0
  180.3670  175.6990  139.1290 C   0  0  2  0  0  0  0  0  0  0  0  0
  183.4610  175.3660  136.8830 C   0  0  0  0  0  3  0  0  0  0  0  0
  182.5080  179.5700  140.0100 C   0  0  0  0  0  2  0  0  0  0  0  0
  182.9420  177.0280  138.6870 C   0  0  1  0  0  3  0  0  0  0  0  0
  181.9040  173.5950  136.3050 C   0  0  0  0  0  0  0  0  0  0  0  0
  183.0160  178.3020  137.9330 N   0  0  0  0  0  0  0  0  0  0  0  0
  181.5460  172.4720  135.5540 O   0  0  0  0  0  0  0  0  0  0  0  0
  181.5630  171.1550  136.0870 C   0  0  0  0  0  1  0  0  0  0  0  0
  179.2230  174.5390  140.9100 C   0  0  0  0  0  2  0  0  0  0  0  0
  180.2960  174.7580  140.2360 N   0  0  0  0  0  0  0  0  0  0  0  0
  181.7460  178.6880  137.2680 C   0  0  2  0  0  3  0  0  0  0  0  0
  181.7800  178.3280  135.9140 O   0  0  0  0  0  0  0  0  0  0  0  0
  180.6620  176.6960  134.5940 C   0  0  0  0  0  1  0  0  0  0  0  0
  180.5220  177.7870  135.6360 C   0  0  0  0  0  2  0  0  0  0  0  0
  181.4670  180.2000  137.3710 C   0  0  0  0  0  2  0  0  0  0  0  0
  180.0160  180.4790  137.7420 C   0  0  0  0  0  2  0  0  0  0  0  0
  179.8400  181.9400  138.1160 C   0  0  0  0  0  2  0  0  0  0  0  0
  179.0090  184.1410  137.3460 C   0  0  0  0  0  1  0  0  0  0  0  0
  178.9850  182.6500  137.0830 C   0  0  0  0  0  2  0  0  0  0  0  0
  183.5560  178.0230  141.6990 C   0  0  0  0  0  2  0  0  0  0  0  0
  183.6280  178.9990  142.8660 C   0  0  0  0  0  2  0  0  0  0  0  0
  185.8480  177.9810  143.4250 C   0  0  0  0  0  3  0  0  0  0  0  0
  184.6560  178.5710  143.8590 C   0  0  0  0  0  0  0  0  0  0  0  0
  184.4150  178.7320  145.2290 C   0  0  0  0  0  3  0  0  0  0  0  0
  185.1330  178.4670  147.4850 F   0  0  0  0  0  0  0  0  0  0  0  0
  186.5600  177.7230  145.7270 C   0  0  0  0  0  3  0  0  0  0  0  0
  185.3660  178.3090  146.1600 C   0  0  0  0  0  0  0  0  0  0  0  0
  186.8000  177.5590  144.3580 C   0  0  0  0  0  3  0  0  0  0  0  0
  2 12  1  0  0  0  0
  3  5  1  0  0  0  0
  4  1  1  6  0  0  0
  4  6  1  0  0  0  0
  5 10  1  0  0  0  0
  6 29  1  6  0  0  0
  8  5  2  0  0  0  0
  9 14  1  0  0  0  0
  9 11  2  0  0  0  0
 10  7  1  6  0  0  0
 10  1  1  0  0  0  0
 10 19  1  0  0  0  0
 11  8  1  0  0  0  0
 12  6  1  0  0  0  0
 13  8  1  6  0  0  0
 13  4  1  0  0  0  0
 14  3  2  0  0  0  0
 15 13  1  0  0  0  0
 15  2  1  0  0  0  0
 16 17  1  0  0  0  0
 16 14  1  0  0  0  0
 19 18  2  0  0  0  0
 20 24  1  6  0  0  0
 20 15  1  0  0  0  0
 21 20  1  0  0  0  0
 22 23  1  0  0  0  0
 23 21  1  0  0  0  0
 24 25  1  0  0  0  0
 25 26  1  0  0  0  0
 28 27  1  0  0  0  0
 28 26  1  0  0  0  0
 29 30  1  0  0  0  0
 30 32  1  0  0  0  0
 31 32  2  0  0  0  0
 31 37  1  0  0  0  0
 32 33  1  0  0  0  0
 33 36  2  0  0  0  0
 35 36  1  0  0  0  0
 36 34  1  0  0  0  0
 37 35  2  0  0  0  0
M  END
>  <MODEL>
2

>  <REMARK>
 VINA RESULT:      -5.2      1.925      2.633
  Name = 
  12 active torsions:
  status: ('A' for Active; 'I' for Inactive)
    1  A    between atoms: C_1  and  O_5
    2  A    between atoms: C_1  and  C_33
    3  A    between atoms: C_1  and  N_36
    4  A    between atoms: O_3  and  C_32
    5  A    between atoms: O_5  and  C_23
    6  A    between atoms: C_6  and  C_31
    7  A    between atoms: C_14  and  C_37
    8  A    between atoms: C_17  and  C_26
    9  A    between atoms: C_17  and  C_33
   10  A    between atoms: C_24  and  N_28
   11  A    between atoms: C_26  and  C_34
   12  A    between atoms: C_31  and  C_37
                            x       y       z     vdW  Elec       q    Type
                         _______ _______ _______ _____ _____    ______ ____

>  <TORSDO>
F 12

$$$$
=
 OpenBabel10262422583D

 37 40  0  0  1  0  0  0  0  0999 V2000
  180.3210  177.6810  138.5910 O   0  0  0  0  0  0  0  0  0  0  0  0
  182.2460  177.8090  135.4040 C   0  0  0  0  0  2  0  0  0  0  0  0
  182.7360  178.2960  141.4040 C   0  0  0  0  0  3  0  0  0  0  0  0
  180.8050  178.7020  137.7490 C   0  0  2  0  0  3  0  0  0  0  0  0
  182.1570  178.2740  140.1250 C   0  0  0  0  0  0  0  0  0  0  0  0
  180.1030  178.6860  136.3930 C   0  0  2  0  0  3  0  0  0  0  0  0
  180.3520  176.6890  140.7290 C   0  0  0  0  0  1  0  0  0  0  0  0
  182.9470  178.6210  139.0090 C   0  0  0  0  0  0  0  0  0  0  0  0
  184.8630  178.9480  140.4530 C   0  0  0  0  0  3  0  0  0  0  0  0
  180.6690  177.9540  139.9460 C   0  0  2  0  0  0  0  0  0  0  0  0
  184.2950  178.9520  139.1780 C   0  0  0  0  0  3  0  0  0  0  0  0
  180.7220  177.6600  135.4450 C   0  0  0  0  0  2  0  0  0  0  0  0
  182.3380  178.6490  137.6390 C   0  0  1  0  0  3  0  0  0  0  0  0
  184.0850  178.6210  141.5740 C   0  0  0  0  0  0  0  0  0  0  0  0
  182.8500  177.5940  136.7300 N   0  0  0  0  0  0  0  0  0  0  0  0
  184.6230  178.6150  142.8640 O   0  0  0  0  0  0  0  0  0  0  0  0
  184.1050  179.4200  143.9150 C   0  0  0  0  0  1  0  0  0  0  0  0
  179.1690  178.8930  141.5870 C   0  0  0  0  0  2  0  0  0  0  0  0
  179.8340  179.0110  140.4930 N   0  0  0  0  0  0  0  0  0  0  0  0
  182.6270  176.2100  137.2200 C   0  0  2  0  0  3  0  0  0  0  0  0
  183.7730  175.7390  137.8760 O   0  0  0  0  0  0  0  0  0  0  0  0
  185.7800  174.7180  137.1150 C   0  0  0  0  0  1  0  0  0  0  0  0
  184.8160  175.8760  136.9570 C   0  0  0  0  0  2  0  0  0  0  0  0
  182.2730  175.2360  136.0810 C   0  0  0  0  0  2  0  0  0  0  0  0
  181.5780  173.9860  136.6070 C   0  0  0  0  0  2  0  0  0  0  0  0
  181.7900  172.8240  135.6530 C   0  0  0  0  0  2  0  0  0  0  0  0
  183.5170  171.7860  137.0890 C   0  0  0  0  0  1  0  0  0  0  0  0
  183.2280  172.3470  135.7130 C   0  0  0  0  0  2  0  0  0  0  0  0
  180.1170  180.0820  135.7810 C   0  0  0  0  0  2  0  0  0  0  0  0
  179.5010  181.1050  136.7270 C   0  0  0  0  0  2  0  0  0  0  0  0
  179.6030  183.1640  135.3020 C   0  0  0  0  0  3  0  0  0  0  0  0
  180.0220  182.4750  136.4460 C   0  0  0  0  0  0  0  0  0  0  0  0
  180.9540  183.0590  137.3110 C   0  0  0  0  0  3  0  0  0  0  0  0
  182.3610  184.8980  137.8740 F   0  0  0  0  0  0  0  0  0  0  0  0
  181.0390  185.0230  135.8950 C   0  0  0  0  0  3  0  0  0  0  0  0
  181.4600  184.3320  137.0360 C   0  0  0  0  0  0  0  0  0  0  0  0
  180.1100  184.4370  135.0280 C   0  0  0  0  0  3  0  0  0  0  0  0
  1 10  1  0  0  0  0
  2 12  1  0  0  0  0
  2 15  1  0  0  0  0
  3 14  1  0  0  0  0
  4  1  1  1  0  0  0
  5  3  2  0  0  0  0
  6 29  1  6  0  0  0
  6  4  1  0  0  0  0
  8 11  2  0  0  0  0
  8  5  1  0  0  0  0
  9 14  2  0  0  0  0
 10  5  1  0  0  0  0
 10 19  1  0  0  0  0
 10  7  1  1  0  0  0
 11  9  1  0  0  0  0
 12  6  1  0  0  0  0
 13  4  1  0  0  0  0
 13  8  1  1  0  0  0
 14 16  1  0  0  0  0
 15 20  1  0  0  0  0
 15 13  1  0  0  0  0
 16 17  1  0  0  0  0
 19 18  2  0  0  0  0
 20 24  1  6  0  0  0
 20 21  1  0  0  0  0
 23 22  1  0  0  0  0
 23 21  1  0  0  0  0
 24 25  1  0  0  0  0
 26 28  1  0  0  0  0
 26 25  1  0  0  0  0
 28 27  1  0  0  0  0
 29 30  1  0  0  0  0
 31 32  1  0  0  0  0
 32 30  1  0  0  0  0
 32 33  2  0  0  0  0
 35 36  2  0  0  0  0
 36 33  1  0  0  0  0
 36 34  1  0  0  0  0
 37 31  2  0  0  0  0
 37 35  1  0  0  0  0
M  END
>  <MODEL>
3

>  <REMARK>
 VINA RESULT:      -4.9      2.295      6.741
  Name = 
  12 active torsions:
  status: ('A' for Active; 'I' for Inactive)
    1  A    between atoms: C_1  and  O_5
    2  A    between atoms: C_1  and  C_33
    3  A    between atoms: C_1  and  N_36
    4  A    between atoms: O_3  and  C_32
    5  A    between atoms: O_5  and  C_23
    6  A    between atoms: C_6  and  C_31
    7  A    between atoms: C_14  and  C_37
    8  A    between atoms: C_17  and  C_26
    9  A    between atoms: C_17  and  C_33
   10  A    between atoms: C_24  and  N_28
   11  A    between atoms: C_26  and  C_34
   12  A    between atoms: C_31  and  C_37
                            x       y       z     vdW  Elec       q    Type
                         _______ _______ _______ _____ _____    ______ ____

>  <TORSDO>
F 12

$$$$
=
 OpenBabel10262422583D

 37 40  0  0  1  0  0  0  0  0999 V2000
  182.1610  179.4810  141.8210 O   0  0  0  0  0  0  0  0  0  0  0  0
  185.6890  178.4320  141.2410 C   0  0  0  0  0  2  0  0  0  0  0  0
  179.9440  177.1190  139.9170 C   0  0  0  0  0  3  0  0  0  0  0  0
  183.0160  178.4950  142.3500 C   0  0  2  0  0  3  0  0  0  0  0  0
  181.0530  177.6560  140.5900 C   0  0  0  0  0  0  0  0  0  0  0  0
  184.1720  179.1180  143.1300 C   0  0  2  0  0  3  0  0  0  0  0  0
  180.1650  179.9670  140.6660 C   0  0  0  0  0  1  0  0  0  0  0  0
  182.2930  176.9880  140.5080 C   0  0  0  0  0  0  0  0  0  0  0  0
  181.3100  175.3150  139.0600 C   0  0  0  0  0  3  0  0  0  0  0  0
  180.9070  178.9070  141.4640 C   0  0  2  0  0  0  0  0  0  0  0  0
  182.4160  175.8260  139.7420 C   0  0  0  0  0  3  0  0  0  0  0  0
  185.3080  179.5570  142.2080 C   0  0  0  0  0  2  0  0  0  0  0  0
  183.4810  177.5190  141.2550 C   0  0  1  0  0  3  0  0  0  0  0  0
  180.0660  175.9590  139.1460 C   0  0  0  0  0  0  0  0  0  0  0  0
  184.5560  178.0470  140.3810 N   0  0  0  0  0  0  0  0  0  0  0  0
  178.9390  175.4680  138.4810 O   0  0  0  0  0  0  0  0  0  0  0  0
  178.9690  174.2900  137.6870 C   0  0  0  0  0  1  0  0  0  0  0  0
  180.1650  179.3350  143.7200 C   0  0  0  0  0  2  0  0  0  0  0  0
  180.1070  178.6300  142.6460 N   0  0  0  0  0  0  0  0  0  0  0  0
  184.1290  179.1630  139.5000 C   0  0  2  0  0  3  0  0  0  0  0  0
  182.9430  178.8250  138.8310 O   0  0  0  0  0  0  0  0  0  0  0  0
  181.3310  179.6840  137.3110 C   0  0  0  0  0  1  0  0  0  0  0  0
  182.5320  179.9910  138.1810 C   0  0  0  0  0  2  0  0  0  0  0  0
  185.1990  179.5270  138.4540 C   0  0  0  0  0  2  0  0  0  0  0  0
  185.6870  178.2970  137.6980 C   0  0  0  0  0  2  0  0  0  0  0  0
  187.1980  178.3310  137.5560 C   0  0  0  0  0  2  0  0  0  0  0  0
  186.7460  175.9520  137.0440 C   0  0  0  0  0  1  0  0  0  0  0  0
  187.7630  176.9240  137.6030 C   0  0  0  0  0  2  0  0  0  0  0  0
  184.6680  178.1450  144.1930 C   0  0  0  0  0  2  0  0  0  0  0  0
  185.1690  178.8850  145.4270 C   0  0  0  0  0  2  0  0  0  0  0  0
  186.7300  178.3040  147.2990 C   0  0  0  0  0  3  0  0  0  0  0  0
  186.4400  178.2870  145.9310 C   0  0  0  0  0  0  0  0  0  0  0  0
  187.3570  177.7360  145.0290 C   0  0  0  0  0  3  0  0  0  0  0  0
  189.4450  176.6610  144.6240 F   0  0  0  0  0  0  0  0  0  0  0  0
  188.8480  177.2100  146.8650 C   0  0  0  0  0  3  0  0  0  0  0  0
  188.5590  177.1970  145.4960 C   0  0  0  0  0  0  0  0  0  0  0  0
  187.9320  177.7650  147.7660 C   0  0  0  0  0  3  0  0  0  0  0  0
  2 12  1  0  0  0  0
  3  5  1  0  0  0  0
  4  1  1  6  0  0  0
  4  6  1  0  0  0  0
  5 10  1  0  0  0  0
  6 29  1  1  0  0  0
  8  5  2  0  0  0  0
  9 14  1  0  0  0  0
  9 11  2  0  0  0  0
 10  7  1  6  0  0  0
 10  1  1  0  0  0  0
 10 19  1  0  0  0  0
 11  8  1  0  0  0  0
 12  6  1  0  0  0  0
 13  8  1  6  0  0  0
 13  4  1  0  0  0  0
 14  3  2  0  0  0  0
 15  2  1  0  0  0  0
 15 13  1  0  0  0  0
 16 14  1  0  0  0  0
 17 16  1  0  0  0  0
 19 18  2  0  0  0  0
 20 24  1  6  0  0  0
 20 15  1  0  0  0  0
 21 20  1  0  0  0  0
 22 23  1  0  0  0  0
 23 21  1  0  0  0  0
 25 24  1  0  0  0  0
 26 28  1  0  0  0  0
 26 25  1  0  0  0  0
 27 28  1  0  0  0  0
 29 30  1  0  0  0  0
 30 32  1  0  0  0  0
 31 37  1  0  0  0  0
 32 31  2  0  0  0  0
 33 36  2  0  0  0  0
 33 32  1  0  0  0  0
 34 36  1  0  0  0  0
 35 37  2  0  0  0  0
 36 35  1  0  0  0  0
M  END
>  <MODEL>
4

>  <REMARK>
 VINA RESULT:      -4.9      2.607      5.205
  Name = 
  12 active torsions:
  status: ('A' for Active; 'I' for Inactive)
    1  A    between atoms: C_1  and  O_5
    2  A    between atoms: C_1  and  C_33
    3  A    between atoms: C_1  and  N_36
    4  A    between atoms: O_3  and  C_32
    5  A    between atoms: O_5  and  C_23
    6  A    between atoms: C_6  and  C_31
    7  A    between atoms: C_14  and  C_37
    8  A    between atoms: C_17  and  C_26
    9  A    between atoms: C_17  and  C_33
   10  A    between atoms: C_24  and  N_28
   11  A    between atoms: C_26  and  C_34
   12  A    between atoms: C_31  and  C_37
                            x       y       z     vdW  Elec       q    Type
                         _______ _______ _______ _____ _____    ______ ____

>  <TORSDO>
F 12

$$$$
=
 OpenBabel10262422583D

 37 40  0  0  1  0  0  0  0  0999 V2000
  188.9780  177.3870  136.4870 O   0  0  0  0  0  0  0  0  0  0  0  0
  191.3360  174.8970  137.9430 C   0  0  0  0  0  2  0  0  0  0  0  0
  185.8480  175.5520  135.5090 C   0  0  0  0  0  3  0  0  0  0  0  0
  189.1350  176.7640  137.7400 C   0  0  2  0  0  3  0  0  0  0  0  0
  187.0590  175.8800  136.1380 C   0  0  0  0  0  0  0  0  0  0  0  0
  190.4310  177.1980  138.4210 C   0  0  2  0  0  3  0  0  0  0  0  0
  187.6030  177.7490  134.6070 C   0  0  0  0  0  1  0  0  0  0  0  0
  187.7210  174.8970  136.9040 C   0  0  0  0  0  0  0  0  0  0  0  0
  185.9930  173.2920  136.3570 C   0  0  0  0  0  3  0  0  0  0  0  0
  187.6210  177.3040  136.0610 C   0  0  2  0  0  0  0  0  0  0  0  0
  187.1880  173.6090  137.0060 C   0  0  0  0  0  3  0  0  0  0  0  0
  191.6320  176.4000  137.9150 C   0  0  0  0  0  2  0  0  0  0  0  0
  188.9930  175.2370  137.6220 C   0  0  1  0  0  3  0  0  0  0  0  0
  185.3150  174.2640  135.6060 C   0  0  0  0  0  0  0  0  0  0  0  0
  190.1920  174.5520  137.0810 N   0  0  0  0  0  0  0  0  0  0  0  0
  184.1140  173.9780  134.9500 O   0  0  0  0  0  0  0  0  0  0  0  0
  182.8620  174.4930  135.3840 C   0  0  0  0  0  1  0  0  0  0  0  0
  186.2820  177.9770  137.9530 C   0  0  0  0  0  2  0  0  0  0  0  0
  186.7870  178.2380  136.8000 N   0  0  0  0  0  0  0  0  0  0  0  0
  190.4680  174.8490  135.6530 C   0  0  2  0  0  3  0  0  0  0  0  0
  189.5660  174.1560  134.8320 O   0  0  0  0  0  0  0  0  0  0  0  0
  189.0310  171.8520  134.5940 C   0  0  0  0  0  1  0  0  0  0  0  0
  190.1300  172.8930  134.6350 C   0  0  0  0  0  2  0  0  0  0  0  0
  191.9030  174.4680  135.2420 C   0  0  0  0  0  2  0  0  0  0  0  0
  192.6470  175.6520  134.6360 C   0  0  0  0  0  2  0  0  0  0  0  0
  194.1460  175.4460  134.7490 C   0  0  0  0  0  2  0  0  0  0  0  0
  195.4220  177.5640  134.8640 C   0  0  0  0  0  1  0  0  0  0  0  0
  194.7530  176.4790  135.6800 C   0  0  0  0  0  2  0  0  0  0  0  0
  190.2900  177.0830  139.9340 C   0  0  0  0  0  2  0  0  0  0  0  0
  188.9500  177.6340  140.4060 C   0  0  0  0  0  2  0  0  0  0  0  0
  187.5460  177.7080  142.4810 C   0  0  0  0  0  3  0  0  0  0  0  0
  188.7760  177.4310  141.8750 C   0  0  0  0  0  0  0  0  0  0  0  0
  189.8550  176.9910  142.6520 C   0  0  0  0  0  3  0  0  0  0  0  0
  190.7430  176.3960  144.7810 F   0  0  0  0  0  0  0  0  0  0  0  0
  188.4690  177.0960  144.6360 C   0  0  0  0  0  3  0  0  0  0  0  0
  189.7000  176.8230  144.0300 C   0  0  0  0  0  0  0  0  0  0  0  0
  187.3920  177.5400  143.8600 C   0  0  0  0  0  3  0  0  0  0  0  0
  3 14  2  0  0  0  0
  3  5  1  0  0  0  0
  4  1  1  6  0  0  0
  4  6  1  0  0  0  0
  5  8  2  0  0  0  0
  6 29  1  1  0  0  0
  8 11  1  0  0  0  0
  9 11  2  0  0  0  0
 10  7  1  6  0  0  0
 10  5  1  0  0  0  0
 10  1  1  0  0  0  0
 10 19  1  0  0  0  0
 12  2  1  0  0  0  0
 12  6  1  0  0  0  0
 13  8  1  6  0  0  0
 13  4  1  0  0  0  0
 14  9  1  0  0  0  0
 15 13  1  0  0  0  0
 15  2  1  0  0  0  0
 16 17  1  0  0  0  0
 16 14  1  0  0  0  0
 19 18  2  0  0  0  0
 20 24  1  6  0  0  0
 20 15  1  0  0  0  0
 21 20  1  0  0  0  0
 22 23  1  0  0  0  0
 23 21  1  0  0  0  0
 25 26  1  0  0  0  0
 25 24  1  0  0  0  0
 26 28  1  0  0  0  0
 27 28  1  0  0  0  0
 29 30  1  0  0  0  0
 30 32  1  0  0  0  0
 31 37  1  0  0  0  0
 32 31  2  0  0  0  0
 32 33  1  0  0  0  0
 33 36  2  0  0  0  0
 36 35  1  0  0  0  0
 36 34  1  0  0  0  0
 37 35  2  0  0  0  0
M  END
>  <MODEL>
5

>  <REMARK>
 VINA RESULT:      -4.7      5.673      9.203
  Name = 
  12 active torsions:
  status: ('A' for Active; 'I' for Inactive)
    1  A    between atoms: C_1  and  O_5
    2  A    between atoms: C_1  and  C_33
    3  A    between atoms: C_1  and  N_36
    4  A    between atoms: O_3  and  C_32
    5  A    between atoms: O_5  and  C_23
    6  A    between atoms: C_6  and  C_31
    7  A    between atoms: C_14  and  C_37
    8  A    between atoms: C_17  and  C_26
    9  A    between atoms: C_17  and  C_33
   10  A    between atoms: C_24  and  N_28
   11  A    between atoms: C_26  and  C_34
   12  A    between atoms: C_31  and  C_37
                            x       y       z     vdW  Elec       q    Type
                         _______ _______ _______ _____ _____    ______ ____

>  <TORSDO>
F 12

$$$$
=
 OpenBabel10262422583D

 37 40  0  0  1  0  0  0  0  0999 V2000
  183.8160  177.2110  138.7280 O   0  0  0  0  0  0  0  0  0  0  0  0
  185.6580  179.3740  141.1390 C   0  0  0  0  0  2  0  0  0  0  0  0
  180.9280  179.2060  137.3860 C   0  0  0  0  0  3  0  0  0  0  0  0
  184.7730  178.2410  138.6270 C   0  0  2  0  0  3  0  0  0  0  0  0
  182.1600  178.8720  137.9720 C   0  0  0  0  0  0  0  0  0  0  0  0
  186.1160  177.8140  139.2160 C   0  0  2  0  0  3  0  0  0  0  0  0
  181.6440  176.4610  138.2060 C   0  0  0  0  0  1  0  0  0  0  0  0
  182.9000  179.8770  138.6300 C   0  0  0  0  0  0  0  0  0  0  0  0
  181.1590  181.4900  138.1500 C   0  0  0  0  0  3  0  0  0  0  0  0
  182.7320  177.4570  137.8370 C   0  0  2  0  0  0  0  0  0  0  0  0
  182.3950  181.1770  138.7200 C   0  0  0  0  0  3  0  0  0  0  0  0
  186.1490  177.9810  140.7340 C   0  0  0  0  0  2  0  0  0  0  0  0
  184.2380  179.5540  139.2250 C   0  0  1  0  0  3  0  0  0  0  0  0
  180.4200  180.5050  137.4780 C   0  0  0  0  0  0  0  0  0  0  0  0
  184.2690  179.6080  140.7070 N   0  0  0  0  0  0  0  0  0  0  0  0
  179.1830  180.7890  136.8920 O   0  0  0  0  0  0  0  0  0  0  0  0
  179.0290  181.7390  135.8460 C   0  0  0  0  0  1  0  0  0  0  0  0
  182.9590  176.0260  135.9060 C   0  0  0  0  0  2  0  0  0  0  0  0
  183.1150  177.1750  136.4630 N   0  0  0  0  0  0  0  0  0  0  0  0
  183.3210  178.6760  141.3680 C   0  0  2  0  0  3  0  0  0  0  0  0
  182.0600  179.2760  141.4930 O   0  0  0  0  0  0  0  0  0  0  0  0
  179.8200  178.7960  140.8600 C   0  0  0  0  0  1  0  0  0  0  0  0
  181.1350  178.2380  141.3630 C   0  0  0  0  0  2  0  0  0  0  0  0
  183.8040  178.2440  142.7650 C   0  0  0  0  0  2  0  0  0  0  0  0
  183.5020  179.3040  143.8170 C   0  0  0  0  0  2  0  0  0  0  0  0
  183.8650  178.7940  145.2000 C   0  0  0  0  0  2  0  0  0  0  0  0
  186.1610  177.8720  145.1290 C   0  0  0  0  0  1  0  0  0  0  0  0
  185.3250  179.0780  145.5000 C   0  0  0  0  0  2  0  0  0  0  0  0
  187.2470  178.5890  138.5510 C   0  0  0  0  0  2  0  0  0  0  0  0
  188.5660  178.3790  139.2840 C   0  0  0  0  0  2  0  0  0  0  0  0
  190.7000  177.1000  138.9810 C   0  0  0  0  0  3  0  0  0  0  0  0
  189.3440  177.2610  138.6730 C   0  0  0  0  0  0  0  0  0  0  0  0
  188.7250  176.3920  137.7680 C   0  0  0  0  0  3  0  0  0  0  0  0
  188.8600  174.5170  136.3030 F   0  0  0  0  0  0  0  0  0  0  0  0
  190.8130  175.1950  137.4880 C   0  0  0  0  0  3  0  0  0  0  0  0
  189.4590  175.3590  137.1780 C   0  0  0  0  0  0  0  0  0  0  0  0
  191.4330  176.0670  138.3900 C   0  0  0  0  0  3  0  0  0  0  0  0
  3 14  2  0  0  0  0
  3  5  1  0  0  0  0
  4  1  1  1  0  0  0
  4  6  1  0  0  0  0
  4 13  1  0  0  0  0
  5  8  2  0  0  0  0
  6 29  1  6  0  0  0
  6 12  1  0  0  0  0
  8 11  1  0  0  0  0
  9 11  2  0  0  0  0
 10  5  1  0  0  0  0
 10  7  1  1  0  0  0
 10  1  1  0  0  0  0
 12  2  1  0  0  0  0
 13  8  1  1  0  0  0
 13 15  1  0  0  0  0
 14  9  1  0  0  0  0
 15  2  1  0  0  0  0
 15 20  1  0  0  0  0
 16 14  1  0  0  0  0
 17 16  1  0  0  0  0
 18 19  2  0  0  0  0
 19 10  1  0  0  0  0
 20 21  1  0  0  0  0
 20 24  1  1  0  0  0
 22 23  1  0  0  0  0
 23 21  1  0  0  0  0
 24 25  1  0  0  0  0
 25 26  1  0  0  0  0
 26 28  1  0  0  0  0
 27 28  1  0  0  0  0
 29 30  1  0  0  0  0
 32 31  1  0  0  0  0
 32 30  1  0  0  0  0
 33 32  2  0  0  0  0
 34 36  1  0  0  0  0
 35 37  1  0  0  0  0
 36 35  2  0  0  0  0
 36 33  1  0  0  0  0
 37 31  2  0  0  0  0
M  END
>  <MODEL>
6

>  <REMARK>
 VINA RESULT:      -4.4      3.233      7.096
  Name = 
  12 active torsions:
  status: ('A' for Active; 'I' for Inactive)
    1  A    between atoms: C_1  and  O_5
    2  A    between atoms: C_1  and  C_33
    3  A    between atoms: C_1  and  N_36
    4  A    between atoms: O_3  and  C_32
    5  A    between atoms: O_5  and  C_23
    6  A    between atoms: C_6  and  C_31
    7  A    between atoms: C_14  and  C_37
    8  A    between atoms: C_17  and  C_26
    9  A    between atoms: C_17  and  C_33
   10  A    between atoms: C_24  and  N_28
   11  A    between atoms: C_26  and  C_34
   12  A    between atoms: C_31  and  C_37
                            x       y       z     vdW  Elec       q    Type
                         _______ _______ _______ _____ _____    ______ ____

>  <TORSDO>
F 12

$$$$
=
 OpenBabel10262422583D

 37 40  0  0  1  0  0  0  0  0999 V2000
  190.2990  174.8660  137.7740 O   0  0  0  0  0  0  0  0  0  0  0  0
  192.0240  177.6850  139.4950 C   0  0  0  0  0  2  0  0  0  0  0  0
  187.1560  176.2280  136.2300 C   0  0  0  0  0  3  0  0  0  0  0  0
  191.1370  175.9260  137.3750 C   0  0  2  0  0  3  0  0  0  0  0  0
  188.4430  176.1510  136.7860 C   0  0  0  0  0  0  0  0  0  0  0  0
  192.5450  175.7700  137.9450 C   0  0  2  0  0  3  0  0  0  0  0  0
  188.1940  173.8240  137.5940 C   0  0  0  0  0  1  0  0  0  0  0  0
  189.1060  177.3440  137.1450 C   0  0  0  0  0  0  0  0  0  0  0  0
  187.1850  178.6380  136.4420 C   0  0  0  0  0  3  0  0  0  0  0  0
  189.1520  174.8010  136.9310 C   0  0  2  0  0  0  0  0  0  0  0  0
  188.4740  178.5780  136.9750 C   0  0  0  0  0  3  0  0  0  0  0  0
  192.6360  176.2860  139.3800 C   0  0  0  0  0  2  0  0  0  0  0  0
  190.4990  177.2890  137.6980 C   0  0  1  0  0  3  0  0  0  0  0  0
  186.5200  177.4620  136.0640 C   0  0  0  0  0  0  0  0  0  0  0  0
  190.5980  177.6870  139.1230 N   0  0  0  0  0  0  0  0  0  0  0  0
  185.2320  177.4900  135.5210 O   0  0  0  0  0  0  0  0  0  0  0  0
  184.0680  177.2230  136.2920 C   0  0  0  0  0  1  0  0  0  0  0  0
  189.7940  173.0070  135.4490 C   0  0  0  0  0  2  0  0  0  0  0  0
  189.4940  174.2440  135.6320 N   0  0  0  0  0  0  0  0  0  0  0  0
  189.7870  176.8510  140.0450 C   0  0  2  0  0  3  0  0  0  0  0  0
  188.4290  177.1770  139.9240 O   0  0  0  0  0  0  0  0  0  0  0  0
  186.8820  178.6290  140.9970 C   0  0  0  0  0  1  0  0  0  0  0  0
  188.2960  178.4500  140.4840 C   0  0  0  0  0  2  0  0  0  0  0  0
  190.2080  177.0240  141.5160 C   0  0  0  0  0  2  0  0  0  0  0  0
  189.7060  175.8760  142.3830 C   0  0  0  0  0  2  0  0  0  0  0  0
  188.6480  176.3720  143.3530 C   0  0  0  0  0  2  0  0  0  0  0  0
  188.1960  177.7960  145.3250 C   0  0  0  0  0  1  0  0  0  0  0  0
  189.2740  177.2690  144.4030 C   0  0  0  0  0  2  0  0  0  0  0  0
  193.5540  176.4690  137.0420 C   0  0  0  0  0  2  0  0  0  0  0  0
  194.0020  175.5580  135.9060 C   0  0  0  0  0  2  0  0  0  0  0  0
  196.3110  175.8870  134.9900 C   0  0  0  0  0  3  0  0  0  0  0  0
  195.4750  175.3220  135.9590 C   0  0  0  0  0  0  0  0  0  0  0  0
  196.0160  174.5080  136.9610 C   0  0  0  0  0  3  0  0  0  0  0  0
  197.9160  173.4820  137.9680 F   0  0  0  0  0  0  0  0  0  0  0  0
  198.2290  174.8360  136.0320 C   0  0  0  0  0  3  0  0  0  0  0  0
  197.3920  174.2670  136.9980 C   0  0  0  0  0  0  0  0  0  0  0  0
  197.6880  175.6450  135.0270 C   0  0  0  0  0  3  0  0  0  0  0  0
  3  5  1  0  0  0  0
  4 13  1  0  0  0  0
  4  1  1  1  0  0  0
  4  6  1  0  0  0  0
  5 10  1  0  0  0  0
  5  8  2  0  0  0  0
  6 29  1  6  0  0  0
  6 12  1  0  0  0  0
  9 11  2  0  0  0  0
 10  7  1  1  0  0  0
 10  1  1  0  0  0  0
 11  8  1  0  0  0  0
 12  2  1  0  0  0  0
 13  8  1  1  0  0  0
 13 15  1  0  0  0  0
 14  3  2  0  0  0  0
 14  9  1  0  0  0  0
 15  2  1  0  0  0  0
 15 20  1  0  0  0  0
 16 14  1  0  0  0  0
 16 17  1  0  0  0  0
 18 19  2  0  0  0  0
 19 10  1  0  0  0  0
 20 24  1  1  0  0  0
 21 20  1  0  0  0  0
 21 23  1  0  0  0  0
 23 22  1  0  0  0  0
 24 25  1  0  0  0  0
 25 26  1  0  0  0  0
 26 28  1  0  0  0  0
 28 27  1  0  0  0  0
 30 32  1  0  0  0  0
 30 29  1  0  0  0  0
 31 37  2  0  0  0  0
 31 32  1  0  0  0  0
 32 33  2  0  0  0  0
 33 36  1  0  0  0  0
 35 36  2  0  0  0  0
 36 34  1  0  0  0  0
 37 35  1  0  0  0  0
M  END
>  <MODEL>
7

>  <REMARK>
 VINA RESULT:      -4.4      7.491     11.333
  Name = 
  12 active torsions:
  status: ('A' for Active; 'I' for Inactive)
    1  A    between atoms: C_1  and  O_5
    2  A    between atoms: C_1  and  C_33
    3  A    between atoms: C_1  and  N_36
    4  A    between atoms: O_3  and  C_32
    5  A    between atoms: O_5  and  C_23
    6  A    between atoms: C_6  and  C_31
    7  A    between atoms: C_14  and  C_37
    8  A    between atoms: C_17  and  C_26
    9  A    between atoms: C_17  and  C_33
   10  A    between atoms: C_24  and  N_28
   11  A    between atoms: C_26  and  C_34
   12  A    between atoms: C_31  and  C_37
                            x       y       z     vdW  Elec       q    Type
                         _______ _______ _______ _____ _____    ______ ____

>  <TORSDO>
F 12

$$$$
=
 OpenBabel10262422583D

 37 40  0  0  1  0  0  0  0  0999 V2000
  181.2830  177.8300  137.0890 O   0  0  0  0  0  0  0  0  0  0  0  0
  182.7530  178.2100  140.4920 C   0  0  0  0  0  2  0  0  0  0  0  0
  179.9600  181.1870  136.0410 C   0  0  0  0  0  3  0  0  0  0  0  0
  182.5040  178.3030  137.6100 C   0  0  2  0  0  3  0  0  0  0  0  0
  180.6980  180.1930  136.7030 C   0  0  0  0  0  0  0  0  0  0  0  0
  183.3060  177.1790  138.2620 C   0  0  2  0  0  3  0  0  0  0  0  0
  179.3330  178.3070  135.8560 C   0  0  0  0  0  1  0  0  0  0  0  0
  181.4480  180.5430  137.8450 C   0  0  0  0  0  0  0  0  0  0  0  0
  180.6720  182.8290  137.6680 C   0  0  0  0  0  3  0  0  0  0  0  0
  180.7530  178.7630  136.1530 C   0  0  2  0  0  0  0  0  0  0  0  0
  181.4280  181.8560  138.3240 C   0  0  0  0  0  3  0  0  0  0  0  0
  182.8420  176.9070  139.6920 C   0  0  0  0  0  2  0  0  0  0  0  0
  182.2790  179.5070  138.5420 C   0  0  1  0  0  3  0  0  0  0  0  0
  179.9350  182.5000  136.5210 C   0  0  0  0  0  0  0  0  0  0  0  0
  181.7880  179.1490  139.8950 N   0  0  0  0  0  0  0  0  0  0  0  0
  179.1750  183.4540  135.8380 O   0  0  0  0  0  0  0  0  0  0  0  0
  179.7340  184.6550  135.3230 C   0  0  0  0  0  1  0  0  0  0  0  0
  182.4030  177.8470  134.6480 C   0  0  0  0  0  2  0  0  0  0  0  0
  181.4840  178.7110  134.8970 N   0  0  0  0  0  0  0  0  0  0  0  0
  180.4060  178.6070  139.9150 C   0  0  2  0  0  3  0  0  0  0  0  0
  179.5020  179.6030  140.3130 O   0  0  0  0  0  0  0  0  0  0  0  0
  179.0250  180.1350  142.5810 C   0  0  0  0  0  1  0  0  0  0  0  0
  180.0510  180.1700  141.4670 C   0  0  0  0  0  2  0  0  0  0  0  0
  180.2630  177.4020  140.8630 C   0  0  0  0  0  2  0  0  0  0  0  0
  178.9330  176.6850  140.6640 C   0  0  0  0  0  2  0  0  0  0  0  0
  179.1650  175.2130  140.3760 C   0  0  0  0  0  2  0  0  0  0  0  0
  179.9450  173.5650  138.7010 C   0  0  0  0  0  1  0  0  0  0  0  0
  179.8480  175.0400  139.0330 C   0  0  0  0  0  2  0  0  0  0  0  0
  184.7940  177.5050  138.2170 C   0  0  0  0  0  2  0  0  0  0  0  0
  185.4770  176.8050  137.0490 C   0  0  0  0  0  2  0  0  0  0  0  0
  187.7950  175.8600  137.1630 C   0  0  0  0  0  3  0  0  0  0  0  0
  186.9580  176.9800  137.1120 C   0  0  0  0  0  0  0  0  0  0  0  0
  187.5080  178.2660  137.1530 C   0  0  0  0  0  3  0  0  0  0  0  0
  189.4250  179.6760  137.2730 F   0  0  0  0  0  0  0  0  0  0  0  0
  189.7310  177.3120  137.2820 C   0  0  0  0  0  3  0  0  0  0  0  0
  188.8930  178.4310  137.2360 C   0  0  0  0  0  0  0  0  0  0  0  0
  189.1810  176.0260  137.2470 C   0  0  0  0  0  3  0  0  0  0  0  0
  3 14  2  0  0  0  0
  3  5  1  0  0  0  0
  4  1  1  1  0  0  0
  4  6  1  0  0  0  0
  4 13  1  0  0  0  0
  5  8  2  0  0  0  0
  6 29  1  1  0  0  0
  6 12  1  0  0  0  0
  8 11  1  0  0  0  0
  9 11  2  0  0  0  0
 10  7  1  6  0  0  0
 10  5  1  0  0  0  0
 10  1  1  0  0  0  0
 12  2  1  0  0  0  0
 13  8  1  6  0  0  0
 13 15  1  0  0  0  0
 14  9  1  0  0  0  0
 15 20  1  0  0  0  0
 15  2  1  0  0  0  0
 16 14  1  0  0  0  0
 17 16  1  0  0  0  0
 18 19  2  0  0  0  0
 19 10  1  0  0  0  0
 20 21  1  0  0  0  0
 20 24  1  1  0  0  0
 21 23  1  0  0  0  0
 23 22  1  0  0  0  0
 25 24  1  0  0  0  0
 26 25  1  0  0  0  0
 27 28  1  0  0  0  0
 28 26  1  0  0  0  0
 30 32  1  0  0  0  0
 30 29  1  0  0  0  0
 31 37  1  0  0  0  0
 32 33  1  0  0  0  0
 32 31  2  0  0  0  0
 33 36  2  0  0  0  0
 36 34  1  0  0  0  0
 36 35  1  0  0  0  0
 37 35  2  0  0  0  0
M  END
>  <MODEL>
8

>  <REMARK>
 VINA RESULT:      -4.1      2.470      6.860
  Name = 
  12 active torsions:
  status: ('A' for Active; 'I' for Inactive)
    1  A    between atoms: C_1  and  O_5
    2  A    between atoms: C_1  and  C_33
    3  A    between atoms: C_1  and  N_36
    4  A    between atoms: O_3  and  C_32
    5  A    between atoms: O_5  and  C_23
    6  A    between atoms: C_6  and  C_31
    7  A    between atoms: C_14  and  C_37
    8  A    between atoms: C_17  and  C_26
    9  A    between atoms: C_17  and  C_33
   10  A    between atoms: C_24  and  N_28
   11  A    between atoms: C_26  and  C_34
   12  A    between atoms: C_31  and  C_37
                            x       y       z     vdW  Elec       q    Type
                         _______ _______ _______ _____ _____    ______ ____

>  <TORSDO>
F 12

$$$$
=
 OpenBabel10262422583D

 37 40  0  0  1  0  0  0  0  0999 V2000
  188.3620  178.4400  137.9220 O   0  0  0  0  0  0  0  0  0  0  0  0
  190.8510  176.0020  139.2430 C   0  0  0  0  0  2  0  0  0  0  0  0
  185.7760  176.5000  136.0060 C   0  0  0  0  0  3  0  0  0  0  0  0
  188.4240  177.5640  139.0240 C   0  0  2  0  0  3  0  0  0  0  0  0
  186.8030  176.8240  136.9080 C   0  0  0  0  0  0  0  0  0  0  0  0
  189.5080  177.9880  140.0130 C   0  0  2  0  0  3  0  0  0  0  0  0
  187.2550  179.0560  135.9350 C   0  0  0  0  0  1  0  0  0  0  0  0
  187.4930  175.7810  137.5610 C   0  0  0  0  0  0  0  0  0  0  0  0
  186.1670  174.1420  136.3720 C   0  0  0  0  0  3  0  0  0  0  0  0
  187.1210  178.2860  137.2390 C   0  0  2  0  0  0  0  0  0  0  0  0
  187.1760  174.4480  137.2880 C   0  0  0  0  0  3  0  0  0  0  0  0
  190.8890  177.4940  139.5880 C   0  0  0  0  0  2  0  0  0  0  0  0
  188.5630  176.1030  138.5620 C   0  0  1  0  0  3  0  0  0  0  0  0
  185.4600  175.1680  135.7270 C   0  0  0  0  0  0  0  0  0  0  0  0
  189.9300  175.7260  138.1270 N   0  0  0  0  0  0  0  0  0  0  0  0
  184.4410  174.8930  134.8110 O   0  0  0  0  0  0  0  0  0  0  0  0
  183.1890  174.3430  135.1980 C   0  0  0  0  0  1  0  0  0  0  0  0
  185.3100  178.2660  138.8340 C   0  0  0  0  0  2  0  0  0  0  0  0
  186.0370  178.9030  137.9860 N   0  0  0  0  0  0  0  0  0  0  0  0
  190.3700  176.3850  136.8720 C   0  0  2  0  0  3  0  0  0  0  0  0
  189.7760  175.7620  135.7650 O   0  0  0  0  0  0  0  0  0  0  0  0
  189.8160  177.9110  134.7480 C   0  0  0  0  0  1  0  0  0  0  0  0
  190.2400  176.4600  134.6470 C   0  0  0  0  0  2  0  0  0  0  0  0
  191.9000  176.3500  136.6970 C   0  0  0  0  0  2  0  0  0  0  0  0
  192.4120  174.9270  136.5120 C   0  0  0  0  0  2  0  0  0  0  0  0
  193.5360  174.6390  137.4910 C   0  0  0  0  0  2  0  0  0  0  0  0
  195.5210  173.3300  136.8040 C   0  0  0  0  0  1  0  0  0  0  0  0
  194.8780  174.7010  136.7860 C   0  0  0  0  0  2  0  0  0  0  0  0
  189.1540  177.5020  141.4140 C   0  0  0  0  0  2  0  0  0  0  0  0
  187.7270  177.8820  141.7860 C   0  0  0  0  0  2  0  0  0  0  0  0
  186.2380  177.9970  143.7990 C   0  0  0  0  0  3  0  0  0  0  0  0
  187.5010  177.7380  143.2540 C   0  0  0  0  0  0  0  0  0  0  0  0
  188.5610  177.3740  144.0920 C   0  0  0  0  0  3  0  0  0  0  0  0
  189.3830  176.9070  146.2800 F   0  0  0  0  0  0  0  0  0  0  0  0
  187.0940  177.5160  146.0140 C   0  0  0  0  0  3  0  0  0  0  0  0
  188.3570  177.2620  145.4700 C   0  0  0  0  0  0  0  0  0  0  0  0
  186.0350  177.8850  145.1770 C   0  0  0  0  0  3  0  0  0  0  0  0
  2 12  1  0  0  0  0
  3  5  1  0  0  0  0
  4  1  1  6  0  0  0
  4  6  1  0  0  0  0
  5 10  1  0  0  0  0
  5  8  2  0  0  0  0
  6 29  1  1  0  0  0
  9 11  2  0  0  0  0
 10  7  1  6  0  0  0
 10  1  1  0  0  0  0
 10 19  1  0  0  0  0
 11  8  1  0  0  0  0
 12  6  1  0  0  0  0
 13  8  1  6  0  0  0
 13  4  1  0  0  0  0
 14  3  2  0  0  0  0
 14  9  1  0  0  0  0
 15 13  1  0  0  0  0
 15  2  1  0  0  0  0
 16 17  1  0  0  0  0
 16 14  1  0  0  0  0
 19 18  2  0  0  0  0
 20 24  1  6  0  0  0
 20 15  1  0  0  0  0
 21 20  1  0  0  0  0
 23 22  1  0  0  0  0
 23 21  1  0  0  0  0
 25 24  1  0  0  0  0
 25 26  1  0  0  0  0
 28 27  1  0  0  0  0
 28 26  1  0  0  0  0
 29 30  1  0  0  0  0
 30 32  1  0  0  0  0
 31 37  1  0  0  0  0
 32 31  2  0  0  0  0
 32 33  1  0  0  0  0
 33 36  2  0  0  0  0
 36 35  1  0  0  0  0
 36 34  1  0  0  0  0
 37 35  2  0  0  0  0
M  END
>  <MODEL>
9

>  <REMARK>
 VINA RESULT:      -4.1      5.253      8.727
  Name = 
  12 active torsions:
  status: ('A' for Active; 'I' for Inactive)
    1  A    between atoms: C_1  and  O_5
    2  A    between atoms: C_1  and  C_33
    3  A    between atoms: C_1  and  N_36
    4  A    between atoms: O_3  and  C_32
    5  A    between atoms: O_5  and  C_23
    6  A    between atoms: C_6  and  C_31
    7  A    between atoms: C_14  and  C_37
    8  A    between atoms: C_17  and  C_26
    9  A    between atoms: C_17  and  C_33
   10  A    between atoms: C_24  and  N_28
   11  A    between atoms: C_26  and  C_34
   12  A    between atoms: C_31  and  C_37
                            x       y       z     vdW  Elec       q    Type
                         _______ _______ _______ _____ _____    ______ ____

>  <TORSDO>
F 12

$$$$
