=
 OpenBabel10262419433D

 25 28  0  0  1  0  0  0  0  0999 V2000
  186.9990  177.9730  145.6160 C   0  0  0  0  0  0  0  0  0  0  0  0
  188.2870  177.5190  145.3350 C   0  0  0  0  0  0  0  0  0  0  0  0
  187.4560  178.1090  147.9880 C   0  0  0  0  0  3  0  0  0  0  0  0
  185.9130  178.2290  144.8190 C   0  0  1  0  0  3  0  0  0  0  0  0
  183.4350  178.9100  143.7950 C   0  0  0  0  0  3  0  0  0  0  0  0
  188.7620  177.6520  147.7360 C   0  0  0  0  0  3  0  0  0  0  0  0
  184.9130  178.6570  145.6670 C   0  0  0  0  0  0  0  0  0  0  0  0
  183.6550  179.0080  145.1820 C   0  0  0  0  0  3  0  0  0  0  0  0
  190.4790  176.8950  146.1310 C   0  0  0  0  0  0  0  0  0  0  0  0
  191.4900  176.6860  147.2080 C   0  0  0  0  0  1  0  0  0  0  0  0
  188.6850  177.2350  144.0680 N   0  0  0  0  0  0  0  0  0  0  0  0
  184.4630  178.4720  142.9330 C   0  0  0  0  0  3  0  0  0  0  0  0
  186.5930  178.2600  146.9040 C   0  0  0  0  0  0  0  0  0  0  0  0
  185.3100  178.6840  146.9600 N   0  0  0  0  0  0  0  0  0  0  0  0
  190.8250  176.6250  144.8440 N   0  0  0  0  0  0  0  0  0  0  0  0
  185.7260  178.1230  143.4420 C   0  0  0  0  0  3  0  0  0  0  0  0
  189.9470  176.7990  143.8200 C   0  0  0  0  0  0  0  0  0  0  0  0
  189.1850  177.3550  146.4180 C   0  0  0  0  0  0  0  0  0  0  0  0
  190.3550  176.4660  142.4300 C   0  0  0  0  0  2  0  0  0  0  0  0
  189.3220  176.8960  141.5030 N   0  0  0  0  0  2  0  0  0  0  0  0
  189.6340  177.3980  140.2010 C   0  0  0  0  0  0  0  0  0  0  0  0
  190.8320  177.4850  139.8200 O   0  0  0  0  0  0  0  0  0  0  0  0
  188.5420  177.8390  139.2870 C   0  0  1  0  0  3  0  0  0  0  0  0
  187.5810  178.5560  140.0000 O   0  0  0  0  0  1  0  0  0  0  0  0
  189.1060  178.7060  138.1780 C   0  0  0  0  0  1  0  0  0  0  0  0
  1 13  1  0  0  0  0
  2  1  2  0  0  0  0
  2 18  1  0  0  0  0
  4 16  1  6  0  0  0
  4  1  1  0  0  0  0
  4  7  1  0  0  0  0
  5  8  2  0  0  0  0
  6  3  1  0  0  0  0
  7 14  2  0  0  0  0
  8  7  1  0  0  0  0
  9 18  1  0  0  0  0
  9 10  1  0  0  0  0
 11  2  1  0  0  0  0
 12 16  2  0  0  0  0
 12  5  1  0  0  0  0
 13 14  1  0  0  0  0
 13  3  2  0  0  0  0
 15  9  2  0  0  0  0
 17 11  2  0  0  0  0
 17 15  1  0  0  0  0
 18  6  2  0  0  0  0
 19 17  1  0  0  0  0
 20 19  1  0  0  0  0
 21 20  1  0  0  0  0
 22 21  2  0  0  0  0
 23 25  1  6  0  0  0
 23 24  1  0  0  0  0
 23 21  1  0  0  0  0
M  END
>  <MODEL>
1

>  <REMARK>
 VINA RESULT:     -11.1      0.000      0.000
  Name = 
  3 active torsions:
  status: ('A' for Active; 'I' for Inactive)
    1  A    between atoms: C_2  and  C_21
    2  A    between atoms: C_6  and  N_15
    3  A    between atoms: C_6  and  C_23
                            x       y       z     vdW  Elec       q    Type
                         _______ _______ _______ _____ _____    ______ ____

>  <TORSDO>
F 3

$$$$
=
 OpenBabel10262419433D

 25 28  0  0  1  0  0  0  0  0999 V2000
  185.6830  178.2130  144.7270 C   0  0  0  0  0  0  0  0  0  0  0  0
  187.0070  177.7730  144.7590 C   0  0  0  0  0  0  0  0  0  0  0  0
  185.6520  178.6150  147.1120 C   0  0  0  0  0  3  0  0  0  0  0  0
  184.7770  178.3470  143.7060 C   0  0  0  0  0  0  0  0  0  0  0  0
  182.5490  178.8350  142.1410 C   0  0  0  0  0  3  0  0  0  0  0  0
  186.9870  178.1760  147.1780 C   0  0  0  0  0  3  0  0  0  0  0  0
  183.6220  178.8300  144.2850 C   0  0  0  0  0  0  0  0  0  0  0  0
  182.4840  179.0860  143.5240 C   0  0  0  0  0  2  0  0  0  0  0  0
  188.9990  177.3100  146.0400 C   0  0  0  0  0  0  0  0  0  0  0  0
  189.7750  177.2490  147.3130 C   0  0  0  0  0  1  0  0  0  0  0  0
  187.6540  177.3710  143.6360 N   0  0  0  0  0  0  0  0  0  0  0  0
  183.7340  178.3410  141.5540 C   0  0  0  0  0  3  0  0  0  0  0  0
  185.0230  178.6210  145.8690 C   0  0  0  0  0  0  0  0  0  0  0  0
  183.7500  179.0070  145.6210 N   0  0  0  0  0  0  0  0  0  0  0  0
  189.6010  176.9160  144.8850 N   0  0  0  0  0  0  0  0  0  0  0  0
  184.8730  178.0900  142.3390 C   0  0  0  0  0  3  0  0  0  0  0  0
  188.9450  176.9520  143.6940 C   0  0  0  0  0  0  0  0  0  0  0  0
  187.6690  177.7550  146.0100 C   0  0  0  0  0  0  0  0  0  0  0  0
  189.6280  176.4870  142.4580 C   0  0  0  0  0  2  0  0  0  0  0  0
  189.0560  177.1580  141.3040 N   0  0  0  0  0  2  0  0  0  0  0  0
  189.5720  176.9690  139.9850 C   0  0  0  0  0  0  0  0  0  0  0  0
  190.5560  176.2050  139.7870 O   0  0  0  0  0  0  0  0  0  0  0  0
  188.9610  177.6870  138.8300 C   0  0  1  0  0  3  0  0  0  0  0  0
  188.8260  179.0430  139.1280 O   0  0  0  0  0  1  0  0  0  0  0  0
  189.8230  177.5200  137.5930 C   0  0  0  0  0  1  0  0  0  0  0  0
  1  2  2  0  0  0  0
  1 13  1  0  0  0  0
  2 18  1  0  0  0  0
  3  6  1  0  0  0  0
  4  7  1  0  0  0  0
  4  1  1  0  0  0  0
  5  8  1  0  0  0  0
  7 14  2  0  0  0  0
  8  7  1  0  0  0  0
  9 10  1  0  0  0  0
 11 17  2  0  0  0  0
 11  2  1  0  0  0  0
 12  5  2  0  0  0  0
 12 16  1  0  0  0  0
 13  3  2  0  0  0  0
 14 13  1  0  0  0  0
 15  9  2  0  0  0  0
 16  4  2  0  0  0  0
 17 15  1  0  0  0  0
 18  9  1  0  0  0  0
 18  6  2  0  0  0  0
 19 17  1  0  0  0  0
 20 19  1  0  0  0  0
 21 20  1  0  0  0  0
 22 21  2  0  0  0  0
 23 25  1  6  0  0  0
 23 24  1  0  0  0  0
 23 21  1  0  0  0  0
M  END
>  <MODEL>
2

>  <REMARK>
 VINA RESULT:     -10.4      1.076      1.534
  Name = 
  3 active torsions:
  status: ('A' for Active; 'I' for Inactive)
    1  A    between atoms: C_2  and  C_21
    2  A    between atoms: C_6  and  N_15
    3  A    between atoms: C_6  and  C_23
                            x       y       z     vdW  Elec       q    Type
                         _______ _______ _______ _____ _____    ______ ____

>  <TORSDO>
F 3

$$$$
=
 OpenBabel10262419433D

 25 28  0  0  1  0  0  0  0  0999 V2000
  187.8150  177.7180  145.5690 C   0  0  0  0  0  0  0  0  0  0  0  0
  186.9500  178.0750  144.5340 C   0  0  0  0  0  0  0  0  0  0  0  0
  186.1120  178.0780  147.2490 C   0  0  0  0  0  3  0  0  0  0  0  0
  189.1270  177.3220  145.5840 C   0  0  0  0  0  0  0  0  0  0  0  0
  191.6730  176.4910  146.2770 C   0  0  0  0  0  3  0  0  0  0  0  0
  185.2170  178.4440  146.2280 C   0  0  0  0  0  3  0  0  0  0  0  0
  189.4420  177.1040  146.9090 C   0  0  0  0  0  0  0  0  0  0  0  0
  190.7150  176.6850  147.2900 C   0  0  0  0  0  3  0  0  0  0  0  0
  184.7610  178.8070  143.8290 C   0  0  0  0  0  0  0  0  0  0  0  0
  183.3510  179.2180  144.0900 C   0  0  0  0  0  1  0  0  0  0  0  0
  187.3510  178.0750  143.2360 N   0  0  0  0  0  0  0  0  0  0  0  0
  191.3440  176.7150  144.9230 C   0  0  0  0  0  3  0  0  0  0  0  0
  187.4090  177.7190  146.8890 C   0  0  2  0  0  3  0  0  0  0  0  0
  188.3970  177.3430  147.7340 N   0  0  0  0  0  0  0  0  0  0  0  0
  185.2140  178.7910  142.5460 N   0  0  0  0  0  0  0  0  0  0  0  0
  190.0540  177.1370  144.5590 C   0  0  0  0  0  3  0  0  0  0  0  0
  186.4880  178.4220  142.2460 C   0  0  0  0  0  0  0  0  0  0  0  0
  185.6260  178.4460  144.8720 C   0  0  0  0  0  0  0  0  0  0  0  0
  186.9520  178.4450  140.8340 C   0  0  0  0  0  2  0  0  0  0  0  0
  188.2330  177.7660  140.7320 N   0  0  0  0  0  2  0  0  0  0  0  0
  189.1840  178.0910  139.7150 C   0  0  0  0  0  0  0  0  0  0  0  0
  188.9290  178.9860  138.8650 O   0  0  0  0  0  0  0  0  0  0  0  0
  190.4820  177.3610  139.6420 C   0  0  1  0  0  3  0  0  0  0  0  0
  190.4970  176.3180  140.5690 O   0  0  0  0  0  1  0  0  0  0  0  0
  190.6920  176.8060  138.2460 C   0  0  0  0  0  1  0  0  0  0  0  0
  1  4  2  0  0  0  0
  1 13  1  0  0  0  0
  2 18  2  0  0  0  0
  2  1  1  0  0  0  0
  4  7  1  0  0  0  0
  5  8  2  0  0  0  0
  6  3  2  0  0  0  0
  7  8  1  0  0  0  0
  7 14  2  0  0  0  0
  9 10  1  0  0  0  0
  9 18  1  0  0  0  0
 11  2  1  0  0  0  0
 12  5  1  0  0  0  0
 13  3  1  1  0  0  0
 13 14  1  0  0  0  0
 15  9  2  0  0  0  0
 16 12  2  0  0  0  0
 16  4  1  0  0  0  0
 17 15  1  0  0  0  0
 17 11  2  0  0  0  0
 18  6  1  0  0  0  0
 19 17  1  0  0  0  0
 20 19  1  0  0  0  0
 21 20  1  0  0  0  0
 22 21  2  0  0  0  0
 23 25  1  6  0  0  0
 23 21  1  0  0  0  0
 23 24  1  0  0  0  0
M  END
>  <MODEL>
3

>  <REMARK>
 VINA RESULT:     -10.2      1.603      4.646
  Name = 
  3 active torsions:
  status: ('A' for Active; 'I' for Inactive)
    1  A    between atoms: C_2  and  C_21
    2  A    between atoms: C_6  and  N_15
    3  A    between atoms: C_6  and  C_23
                            x       y       z     vdW  Elec       q    Type
                         _______ _______ _______ _____ _____    ______ ____

>  <TORSDO>
F 3

$$$$
=
 OpenBabel10262419433D

 25 28  0  0  1  0  0  0  0  0999 V2000
  186.9280  177.8370  144.4960 C   0  0  0  0  0  0  0  0  0  0  0  0
  188.0910  177.4800  143.8140 C   0  0  0  0  0  0  0  0  0  0  0  0
  187.9850  177.5510  146.6540 C   0  0  0  0  0  3  0  0  0  0  0  0
  185.6780  178.2020  144.0660 C   0  0  1  0  0  3  0  0  0  0  0  0
  183.0340  178.9860  143.8580 C   0  0  0  0  0  3  0  0  0  0  0  0
  189.1730  177.1860  145.9950 C   0  0  0  0  0  3  0  0  0  0  0  0
  184.9390  178.4380  145.2070 C   0  0  0  0  0  0  0  0  0  0  0  0
  183.6050  178.8340  145.1350 C   0  0  0  0  0  3  0  0  0  0  0  0
  190.4020  176.7860  143.8910 C   0  0  0  0  0  0  0  0  0  0  0  0
  191.6530  176.4140  144.6140 C   0  0  0  0  0  1  0  0  0  0  0  0
  188.1430  177.4450  142.4580 N   0  0  0  0  0  0  0  0  0  0  0  0
  183.7950  178.7420  142.6950 C   0  0  0  0  0  3  0  0  0  0  0  0
  186.8740  177.8710  145.8760 C   0  0  0  0  0  0  0  0  0  0  0  0
  185.6570  178.2410  146.3370 N   0  0  0  0  0  0  0  0  0  0  0  0
  190.3990  176.7670  142.5310 N   0  0  0  0  0  0  0  0  0  0  0  0
  185.1400  178.3440  142.7890 C   0  0  0  0  0  3  0  0  0  0  0  0
  189.2890  177.0980  141.8180 C   0  0  0  0  0  0  0  0  0  0  0  0
  189.2350  177.1480  144.5810 C   0  0  0  0  0  0  0  0  0  0  0  0
  189.3180  177.0370  140.3330 C   0  0  0  0  0  2  0  0  0  0  0  0
  190.6590  177.3400  139.8590 N   0  0  0  0  0  2  0  0  0  0  0  0
  191.3850  176.4430  139.0170 C   0  0  0  0  0  0  0  0  0  0  0  0
  190.8750  175.3470  138.6610 O   0  0  0  0  0  0  0  0  0  0  0  0
  192.7630  176.7900  138.5640 C   0  0  1  0  0  3  0  0  0  0  0  0
  193.5580  177.1200  139.6610 O   0  0  0  0  0  1  0  0  0  0  0  0
  193.3790  175.6200  137.8210 C   0  0  0  0  0  1  0  0  0  0  0  0
  1 13  1  0  0  0  0
  2  1  2  0  0  0  0
  2 18  1  0  0  0  0
  4 16  1  6  0  0  0
  4  1  1  0  0  0  0
  4  7  1  0  0  0  0
  5  8  2  0  0  0  0
  6  3  1  0  0  0  0
  7 14  2  0  0  0  0
  8  7  1  0  0  0  0
  9 18  1  0  0  0  0
  9 10  1  0  0  0  0
 11  2  1  0  0  0  0
 12 16  2  0  0  0  0
 12  5  1  0  0  0  0
 13 14  1  0  0  0  0
 13  3  2  0  0  0  0
 15  9  2  0  0  0  0
 17 11  2  0  0  0  0
 17 15  1  0  0  0  0
 18  6  2  0  0  0  0
 19 17  1  0  0  0  0
 20 19  1  0  0  0  0
 21 20  1  0  0  0  0
 22 21  2  0  0  0  0
 23 25  1  1  0  0  0
 23 21  1  0  0  0  0
 23 24  1  0  0  0  0
M  END
>  <MODEL>
4

>  <REMARK>
 VINA RESULT:     -10.0      1.783      2.443
  Name = 
  3 active torsions:
  status: ('A' for Active; 'I' for Inactive)
    1  A    between atoms: C_2  and  C_21
    2  A    between atoms: C_6  and  N_15
    3  A    between atoms: C_6  and  C_23
                            x       y       z     vdW  Elec       q    Type
                         _______ _______ _______ _____ _____    ______ ____

>  <TORSDO>
F 3

$$$$
=
 OpenBabel10262419433D

 25 28  0  0  1  0  0  0  0  0999 V2000
  189.3380  177.4860  143.8610 C   0  0  0  0  0  0  0  0  0  0  0  0
  188.7930  177.7980  142.6160 C   0  0  0  0  0  0  0  0  0  0  0  0
  191.4720  176.8890  142.8900 C   0  0  0  0  0  3  0  0  0  0  0  0
  188.8220  177.5180  145.1310 C   0  0  1  0  0  3  0  0  0  0  0  0
  188.3950  177.3640  147.8600 C   0  0  0  0  0  3  0  0  0  0  0  0
  190.9500  177.1950  141.6200 C   0  0  0  0  0  3  0  0  0  0  0  0
  189.8380  177.0960  145.9640 C   0  0  0  0  0  0  0  0  0  0  0  0
  189.6540  177.0080  147.3420 C   0  0  0  0  0  3  0  0  0  0  0  0
  189.0640  177.9590  140.2230 C   0  0  0  0  0  0  0  0  0  0  0  0
  189.8540  177.8250  138.9640 C   0  0  0  0  0  1  0  0  0  0  0  0
  187.5130  178.2310  142.4840 N   0  0  0  0  0  0  0  0  0  0  0  0
  187.3600  177.7960  147.0030 C   0  0  0  0  0  3  0  0  0  0  0  0
  190.6390  177.0440  143.9970 C   0  0  0  0  0  0  0  0  0  0  0  0
  190.9700  176.7970  145.2850 N   0  0  0  0  0  0  0  0  0  0  0  0
  187.7760  178.3890  140.1470 N   0  0  0  0  0  0  0  0  0  0  0  0
  187.5660  177.8780  145.6150 C   0  0  0  0  0  3  0  0  0  0  0  0
  187.0070  178.5330  141.2590 C   0  0  0  0  0  0  0  0  0  0  0  0
  189.6170  177.6480  141.4740 C   0  0  0  0  0  0  0  0  0  0  0  0
  185.5950  178.9780  141.1310 C   0  0  0  0  0  2  0  0  0  0  0  0
  185.0420  179.2300  142.4510 N   0  0  0  0  0  2  0  0  0  0  0  0
  183.6660  178.9890  142.7550 C   0  0  0  0  0  0  0  0  0  0  0  0
  182.8840  178.5490  141.8700 O   0  0  0  0  0  0  0  0  0  0  0  0
  183.1400  179.2730  144.1210 C   0  0  1  0  0  3  0  0  0  0  0  0
  181.9190  178.6230  144.3060 O   0  0  0  0  0  1  0  0  0  0  0  0
  184.1300  178.8060  145.1710 C   0  0  0  0  0  1  0  0  0  0  0  0
  1 13  2  0  0  0  0
  1  4  1  0  0  0  0
  2  1  1  0  0  0  0
  3 13  1  0  0  0  0
  4 16  1  1  0  0  0
  4  7  1  0  0  0  0
  6  3  2  0  0  0  0
  7  8  1  0  0  0  0
  8  5  2  0  0  0  0
  9 18  1  0  0  0  0
 10  9  1  0  0  0  0
 11  2  1  0  0  0  0
 12  5  1  0  0  0  0
 13 14  1  0  0  0  0
 14  7  2  0  0  0  0
 15  9  2  0  0  0  0
 15 17  1  0  0  0  0
 16 12  2  0  0  0  0
 17 11  2  0  0  0  0
 18  6  1  0  0  0  0
 18  2  2  0  0  0  0
 19 17  1  0  0  0  0
 19 20  1  0  0  0  0
 20 21  1  0  0  0  0
 21 23  1  0  0  0  0
 22 21  2  0  0  0  0
 23 24  1  0  0  0  0
 23 25  1  1  0  0  0
M  END
>  <MODEL>
5

>  <REMARK>
 VINA RESULT:      -9.9      2.454      5.880
  Name = 
  3 active torsions:
  status: ('A' for Active; 'I' for Inactive)
    1  A    between atoms: C_2  and  C_21
    2  A    between atoms: C_6  and  N_15
    3  A    between atoms: C_6  and  C_23
                            x       y       z     vdW  Elec       q    Type
                         _______ _______ _______ _____ _____    ______ ____

>  <TORSDO>
F 3

$$$$
=
 OpenBabel10262419433D

 25 28  0  0  1  0  0  0  0  0999 V2000
  186.0340  178.4140  144.6150 C   0  0  0  0  0  0  0  0  0  0  0  0
  186.1260  178.4630  143.2240 C   0  0  0  0  0  0  0  0  0  0  0  0
  183.6740  178.9460  144.5790 C   0  0  0  0  0  3  0  0  0  0  0  0
  186.9580  178.1600  145.5960 C   0  0  1  0  0  3  0  0  0  0  0  0
  188.2970  177.7430  147.9800 C   0  0  0  0  0  3  0  0  0  0  0  0
  183.7350  179.0030  143.1750 C   0  0  0  0  0  3  0  0  0  0  0  0
  186.2770  178.2520  146.7920 C   0  0  0  0  0  0  0  0  0  0  0  0
  186.9240  178.0480  148.0090 C   0  0  0  0  0  3  0  0  0  0  0  0
  185.0490  178.8160  141.0930 C   0  0  0  0  0  0  0  0  0  0  0  0
  183.8670  179.1330  140.2390 C   0  0  0  0  0  1  0  0  0  0  0  0
  187.2970  178.2340  142.5770 N   0  0  0  0  0  0  0  0  0  0  0  0
  188.9880  177.6490  146.7530 C   0  0  0  0  0  3  0  0  0  0  0  0
  184.8440  178.6490  145.2750 C   0  0  0  0  0  0  0  0  0  0  0  0
  184.9700  178.5540  146.6190 N   0  0  0  0  0  0  0  0  0  0  0  0
  186.2470  178.5790  140.4950 N   0  0  0  0  0  0  0  0  0  0  0  0
  188.3180  177.8580  145.5350 C   0  0  0  0  0  3  0  0  0  0  0  0
  187.3590  178.2830  141.2210 C   0  0  0  0  0  0  0  0  0  0  0  0
  184.9520  178.7650  142.4920 C   0  0  0  0  0  0  0  0  0  0  0  0
  188.6560  178.0580  140.5300 C   0  0  0  0  0  2  0  0  0  0  0  0
  189.7480  178.2580  141.4680 N   0  0  0  0  0  2  0  0  0  0  0  0
  190.4750  177.1620  142.0280 C   0  0  0  0  0  0  0  0  0  0  0  0
  190.1810  175.9760  141.7200 O   0  0  0  0  0  0  0  0  0  0  0  0
  191.5810  177.4130  142.9960 C   0  0  1  0  0  3  0  0  0  0  0  0
  191.4470  178.6840  143.5550 O   0  0  0  0  0  1  0  0  0  0  0  0
  191.5630  176.3680  144.0940 C   0  0  0  0  0  1  0  0  0  0  0  0
  1 13  2  0  0  0  0
  1  4  1  0  0  0  0
  2  1  1  0  0  0  0
  3 13  1  0  0  0  0
  4 16  1  6  0  0  0
  4  7  1  0  0  0  0
  5  8  2  0  0  0  0
  6  3  2  0  0  0  0
  7  8  1  0  0  0  0
  9 18  1  0  0  0  0
 10  9  1  0  0  0  0
 11  2  1  0  0  0  0
 12  5  1  0  0  0  0
 13 14  1  0  0  0  0
 14  7  2  0  0  0  0
 15  9  2  0  0  0  0
 15 17  1  0  0  0  0
 16 12  2  0  0  0  0
 17 11  2  0  0  0  0
 18  6  1  0  0  0  0
 18  2  2  0  0  0  0
 19 17  1  0  0  0  0
 19 20  1  0  0  0  0
 20 21  1  0  0  0  0
 21 23  1  0  0  0  0
 22 21  2  0  0  0  0
 23 24  1  0  0  0  0
 23 25  1  1  0  0  0
M  END
>  <MODEL>
6

>  <REMARK>
 VINA RESULT:      -9.8      1.694      4.885
  Name = 
  3 active torsions:
  status: ('A' for Active; 'I' for Inactive)
    1  A    between atoms: C_2  and  C_21
    2  A    between atoms: C_6  and  N_15
    3  A    between atoms: C_6  and  C_23
                            x       y       z     vdW  Elec       q    Type
                         _______ _______ _______ _____ _____    ______ ____

>  <TORSDO>
F 3

$$$$
=
 OpenBabel10262419433D

 25 28  0  0  1  0  0  0  0  0999 V2000
  186.4240  178.3180  142.8170 C   0  0  0  0  0  0  0  0  0  0  0  0
  187.5480  178.0980  142.0210 C   0  0  0  0  0  0  0  0  0  0  0  0
  185.0420  178.8290  140.8980 C   0  0  0  0  0  3  0  0  0  0  0  0
  186.2230  178.2600  144.1720 C   0  0  1  0  0  3  0  0  0  0  0  0
  185.1910  178.3130  146.7370 C   0  0  0  0  0  3  0  0  0  0  0  0
  186.1580  178.6140  140.0690 C   0  0  0  0  0  3  0  0  0  0  0  0
  184.8960  178.5800  144.3730 C   0  0  0  0  0  0  0  0  0  0  0  0
  184.3470  178.6160  145.6520 C   0  0  0  0  0  3  0  0  0  0  0  0
  188.5440  178.0310  139.8230 C   0  0  0  0  0  0  0  0  0  0  0  0
  188.4950  178.1740  138.3390 C   0  0  0  0  0  1  0  0  0  0  0  0
  188.7460  177.7490  142.5570 N   0  0  0  0  0  0  0  0  0  0  0  0
  186.5470  177.9850  146.5250 C   0  0  0  0  0  3  0  0  0  0  0  0
  185.2060  178.6740  142.2730 C   0  0  0  0  0  0  0  0  0  0  0  0
  184.2480  178.8410  143.2140 N   0  0  0  0  0  0  0  0  0  0  0  0
  189.7200  177.6840  140.4110 N   0  0  0  0  0  0  0  0  0  0  0  0
  187.0820  177.9540  145.2260 C   0  0  0  0  0  3  0  0  0  0  0  0
  189.8250  177.5360  141.7590 C   0  0  0  0  0  0  0  0  0  0  0  0
  187.4100  178.2500  140.6200 C   0  0  0  0  0  0  0  0  0  0  0  0
  191.1360  177.1840  142.3660 C   0  0  0  0  0  2  0  0  0  0  0  0
  191.0930  177.4340  143.7970 N   0  0  0  0  0  2  0  0  0  0  0  0
  191.5120  176.4550  144.7500 C   0  0  0  0  0  0  0  0  0  0  0  0
  191.9340  175.3310  144.3670 O   0  0  0  0  0  0  0  0  0  0  0  0
  191.4410  176.7510  146.2100 C   0  0  1  0  0  3  0  0  0  0  0  0
  190.1090  176.7920  146.6240 O   0  0  0  0  0  1  0  0  0  0  0  0
  192.1870  175.6910  146.9960 C   0  0  0  0  0  1  0  0  0  0  0  0
  1  4  1  0  0  0  0
  2 11  1  0  0  0  0
  2  1  1  0  0  0  0
  3 13  1  0  0  0  0
  4  7  1  0  0  0  0
  4 16  1  6  0  0  0
  6 18  1  0  0  0  0
  6  3  2  0  0  0  0
  7  8  1  0  0  0  0
  8  5  2  0  0  0  0
  9 15  2  0  0  0  0
  9 18  1  0  0  0  0
 10  9  1  0  0  0  0
 12  5  1  0  0  0  0
 13  1  2  0  0  0  0
 13 14  1  0  0  0  0
 14  7  2  0  0  0  0
 15 17  1  0  0  0  0
 16 12  2  0  0  0  0
 17 19  1  0  0  0  0
 17 11  2  0  0  0  0
 18  2  2  0  0  0  0
 19 20  1  0  0  0  0
 20 21  1  0  0  0  0
 21 23  1  0  0  0  0
 22 21  2  0  0  0  0
 23 24  1  0  0  0  0
 23 25  1  1  0  0  0
M  END
>  <MODEL>
7

>  <REMARK>
 VINA RESULT:      -9.5      2.285      5.253
  Name = 
  3 active torsions:
  status: ('A' for Active; 'I' for Inactive)
    1  A    between atoms: C_2  and  C_21
    2  A    between atoms: C_6  and  N_15
    3  A    between atoms: C_6  and  C_23
                            x       y       z     vdW  Elec       q    Type
                         _______ _______ _______ _____ _____    ______ ____

>  <TORSDO>
F 3

$$$$
=
 OpenBabel10262419433D

 25 28  0  0  1  0  0  0  0  0999 V2000
  187.7560  177.7980  144.5880 C   0  0  0  0  0  0  0  0  0  0  0  0
  188.4960  177.7370  143.4070 C   0  0  0  0  0  0  0  0  0  0  0  0
  189.6580  177.1410  145.9320 C   0  0  0  0  0  3  0  0  0  0  0  0
  186.4470  178.1130  144.8450 C   0  0  0  0  0  0  0  0  0  0  0  0
  183.9860  178.6300  145.9990 C   0  0  0  0  0  3  0  0  0  0  0  0
  190.4300  177.0700  144.7580 C   0  0  0  0  0  3  0  0  0  0  0  0
  186.2900  177.9990  146.2110 C   0  0  0  0  0  0  0  0  0  0  0  0
  185.0640  178.2530  146.8210 C   0  0  0  0  0  3  0  0  0  0  0  0
  190.5990  177.3000  142.3060 C   0  0  0  0  0  0  0  0  0  0  0  0
  192.0400  176.9110  142.3020 C   0  0  0  0  0  1  0  0  0  0  0  0
  187.9410  178.0200  142.2010 N   0  0  0  0  0  0  0  0  0  0  0  0
  184.1530  178.7460  144.6020 C   0  0  0  0  0  3  0  0  0  0  0  0
  188.3190  177.5090  145.8160 C   0  0  2  0  0  3  0  0  0  0  0  0
  187.4330  177.6270  146.8320 N   0  0  0  0  0  0  0  0  0  0  0  0
  189.9940  177.5940  141.1240 N   0  0  0  0  0  0  0  0  0  0  0  0
  185.3990  178.4860  144.0050 C   0  0  0  0  0  3  0  0  0  0  0  0
  188.6850  177.9570  141.0660 C   0  0  0  0  0  0  0  0  0  0  0  0
  189.8590  177.3640  143.4960 C   0  0  0  0  0  0  0  0  0  0  0  0
  188.0530  178.2430  139.7510 C   0  0  0  0  0  2  0  0  0  0  0  0
  186.6650  178.6250  139.9500 N   0  0  0  0  0  2  0  0  0  0  0  0
  185.6980  178.5360  138.9020 C   0  0  0  0  0  0  0  0  0  0  0  0
  186.0300  178.1210  137.7590 O   0  0  0  0  0  0  0  0  0  0  0  0
  184.2860  178.9490  139.1480 C   0  0  1  0  0  3  0  0  0  0  0  0
  184.1790  180.3390  139.0930 O   0  0  0  0  0  1  0  0  0  0  0  0
  183.3700  178.3250  138.1140 C   0  0  0  0  0  1  0  0  0  0  0  0
  1  4  2  0  0  0  0
  1 13  1  0  0  0  0
  2 18  2  0  0  0  0
  2  1  1  0  0  0  0
  4  7  1  0  0  0  0
  5  8  2  0  0  0  0
  6  3  2  0  0  0  0
  7  8  1  0  0  0  0
  7 14  2  0  0  0  0
  9 18  1  0  0  0  0
 10  9  1  0  0  0  0
 11  2  1  0  0  0  0
 12  5  1  0  0  0  0
 13  3  1  6  0  0  0
 13 14  1  0  0  0  0
 15  9  2  0  0  0  0
 16 12  2  0  0  0  0
 16  4  1  0  0  0  0
 17 15  1  0  0  0  0
 17 11  2  0  0  0  0
 18  6  1  0  0  0  0
 19 20  1  0  0  0  0
 19 17  1  0  0  0  0
 21 23  1  0  0  0  0
 21 20  1  0  0  0  0
 22 21  2  0  0  0  0
 23 25  1  6  0  0  0
 24 23  1  0  0  0  0
M  END
>  <MODEL>
8

>  <REMARK>
 VINA RESULT:      -9.4      2.109      3.322
  Name = 
  3 active torsions:
  status: ('A' for Active; 'I' for Inactive)
    1  A    between atoms: C_2  and  C_21
    2  A    between atoms: C_6  and  N_15
    3  A    between atoms: C_6  and  C_23
                            x       y       z     vdW  Elec       q    Type
                         _______ _______ _______ _____ _____    ______ ____

>  <TORSDO>
F 3

$$$$
=
 OpenBabel10262419433D

 25 28  0  0  1  0  0  0  0  0999 V2000
  187.1940  178.2040  141.8080 C   0  0  0  0  0  0  0  0  0  0  0  0
  186.7350  178.1860  143.1250 C   0  0  0  0  0  0  0  0  0  0  0  0
  185.0610  178.9780  140.9690 C   0  0  0  0  0  3  0  0  0  0  0  0
  188.4050  177.8910  141.2450 C   0  0  0  0  0  0  0  0  0  0  0  0
  190.5330  177.4300  139.5390 C   0  0  0  0  0  3  0  0  0  0  0  0
  184.5690  178.9690  142.2870 C   0  0  0  0  0  3  0  0  0  0  0  0
  188.2590  178.1050  139.8890 C   0  0  0  0  0  0  0  0  0  0  0  0
  189.3120  177.8810  139.0050 C   0  0  0  0  0  2  0  0  0  0  0  0
  184.9370  178.5530  144.6920 C   0  0  0  0  0  0  0  0  0  0  0  0
  183.5390  178.9400  145.0420 C   0  0  0  0  0  1  0  0  0  0  0  0
  187.5340  177.8060  144.1550 N   0  0  0  0  0  0  0  0  0  0  0  0
  190.6760  177.2140  140.9270 C   0  0  0  0  0  3  0  0  0  0  0  0
  186.3820  178.5890  140.7590 C   0  0  0  0  0  0  0  0  0  0  0  0
  187.0180  178.5360  139.5660 N   0  0  0  0  0  0  0  0  0  0  0  0
  185.7790  178.1630  145.6870 N   0  0  0  0  0  0  0  0  0  0  0  0
  189.6010  177.4450  141.8030 C   0  0  0  0  0  3  0  0  0  0  0  0
  187.0650  177.8010  145.4290 C   0  0  0  0  0  0  0  0  0  0  0  0
  185.3960  178.5750  143.3670 C   0  0  0  0  0  0  0  0  0  0  0  0
  187.9450  177.3550  146.5410 C   0  0  0  0  0  2  0  0  0  0  0  0
  189.2360  176.9540  146.0080 N   0  0  0  0  0  2  0  0  0  0  0  0
  190.4290  177.0050  146.7940 C   0  0  0  0  0  0  0  0  0  0  0  0
  190.3910  177.4090  147.9870 O   0  0  0  0  0  0  0  0  0  0  0  0
  191.7340  176.5930  146.2020 C   0  0  1  0  0  3  0  0  0  0  0  0
  192.1820  175.4170  146.8040 O   0  0  0  0  0  1  0  0  0  0  0  0
  191.5870  176.3780  144.7090 C   0  0  0  0  0  1  0  0  0  0  0  0
  1  2  2  0  0  0  0
  2 18  1  0  0  0  0
  2 11  1  0  0  0  0
  3  6  1  0  0  0  0
  4 16  2  0  0  0  0
  4  1  1  0  0  0  0
  5 12  2  0  0  0  0
  6 18  2  0  0  0  0
  7  4  1  0  0  0  0
  8  5  1  0  0  0  0
  8  7  1  0  0  0  0
  9 10  1  0  0  0  0
  9 15  2  0  0  0  0
 11 17  2  0  0  0  0
 12 16  1  0  0  0  0
 13  3  2  0  0  0  0
 13  1  1  0  0  0  0
 14  7  2  0  0  0  0
 14 13  1  0  0  0  0
 17 15  1  0  0  0  0
 17 19  1  0  0  0  0
 18  9  1  0  0  0  0
 20 19  1  0  0  0  0
 20 21  1  0  0  0  0
 21 22  2  0  0  0  0
 23 25  1  6  0  0  0
 23 21  1  0  0  0  0
 23 24  1  0  0  0  0
M  END
>  <MODEL>
9

>  <REMARK>
 VINA RESULT:      -9.4      2.658      6.365
  Name = 
  3 active torsions:
  status: ('A' for Active; 'I' for Inactive)
    1  A    between atoms: C_2  and  C_21
    2  A    between atoms: C_6  and  N_15
    3  A    between atoms: C_6  and  C_23
                            x       y       z     vdW  Elec       q    Type
                         _______ _______ _______ _____ _____    ______ ____

>  <TORSDO>
F 3

$$$$
