=
 OpenBabel10262423113D

 34 39  0  0  1  0  0  0  0  0999 V2000
  187.2760  177.8300  145.3600 C   0  0  0  0  0  0  0  0  0  0  0  0
  184.9790  178.6670  145.5910 C   0  0  0  0  0  0  0  0  0  0  0  0
  186.4180  178.5700  147.5270 C   0  0  0  0  0  3  0  0  0  0  0  0
  188.2960  177.0450  143.2710 O   0  0  0  0  0  1  0  0  0  0  0  0
  189.5710  177.0330  145.3100 C   0  0  0  0  0  0  0  0  0  0  0  0
  189.6630  177.2660  146.6440 N   0  0  0  0  0  0  0  0  0  0  0  0
  187.4540  178.0540  146.7480 C   0  0  0  0  0  0  0  0  0  0  0  0
  188.3740  177.3030  144.6370 C   0  0  0  0  0  0  0  0  0  0  0  0
  188.6400  177.7610  147.3380 N   0  0  0  0  0  0  0  0  0  0  0  0
  183.7330  178.9800  145.0390 C   0  0  0  0  0  3  0  0  0  0  0  0
  183.4910  178.7830  143.6790 C   0  0  0  0  0  0  0  0  0  0  0  0
  184.5060  178.2660  142.8640 C   0  0  0  0  0  3  0  0  0  0  0  0
  185.1880  178.8760  146.9520 C   0  0  0  0  0  3  0  0  0  0  0  0
  185.7530  177.9520  143.4080 C   0  0  0  0  0  3  0  0  0  0  0  0
  186.0160  178.1430  144.7750 C   0  0  0  0  0  0  0  0  0  0  0  0
  182.1450  179.1280  143.1220 C   0  0  0  0  0  3  0  0  0  0  0  0
  181.0330  178.5790  143.9970 C   0  0  0  0  0  1  0  0  0  0  0  0
  181.9930  178.6150  141.7020 C   0  0  0  0  0  1  0  0  0  0  0  0
  190.7410  176.4480  144.5940 C   0  0  0  0  0  2  0  0  0  0  0  0
  191.3430  177.4570  143.7410 N   0  0  0  0  0  2  0  0  0  0  0  0
  191.8600  176.7650  142.5700 C   0  0  0  0  0  2  0  0  0  0  0  0
  190.0000  175.9680  138.2890 C   0  0  0  0  0  3  0  0  0  0  0  0
  192.6920  177.4800  140.2900 C   0  0  0  0  0  2  0  0  0  0  0  0
  191.8620  175.9640  136.8910 C   0  0  0  0  0  0  0  0  0  0  0  0
  192.7280  175.7870  135.8500 C   0  0  0  0  0  0  0  0  0  0  0  0
  190.5540  175.6590  137.0730 N   0  0  0  0  0  0  0  0  0  0  0  0
  193.9540  176.2510  136.2020 N   0  0  0  0  0  0  0  0  0  0  0  0
  190.7610  176.5610  139.2680 N   0  0  0  0  0  0  0  0  0  0  0  0
  192.4230  175.1930  134.5940 N   0  0  0  0  0  1  0  0  0  0  0  0
  192.6570  176.5700  137.8930 C   0  0  0  0  0  0  0  0  0  0  0  0
  192.0650  176.8650  139.1040 C   0  0  0  0  0  0  0  0  0  0  0  0
  193.9150  176.7310  137.4480 N   0  0  0  0  0  0  0  0  0  0  0  0
  191.5250  177.5250  141.2900 C   0  0  1  0  0  3  0  0  0  0  0  0
  190.2950  176.9200  140.5890 C   0  0  0  0  0  2  0  0  0  0  0  0
  1  7  1  0  0  0  0
  2 13  2  0  0  0  0
  4  8  1  0  0  0  0
  5  6  1  0  0  0  0
  6  9  2  0  0  0  0
  7  9  1  0  0  0  0
  7  3  2  0  0  0  0
  8  5  2  0  0  0  0
  8  1  1  0  0  0  0
 10  2  1  0  0  0  0
 11 10  2  0  0  0  0
 12 14  2  0  0  0  0
 12 11  1  0  0  0  0
 13  3  1  0  0  0  0
 14 15  1  0  0  0  0
 15  1  2  0  0  0  0
 15  2  1  0  0  0  0
 16 11  1  0  0  0  0
 16 17  1  0  0  0  0
 18 16  1  0  0  0  0
 19  5  1  0  0  0  0
 20 19  1  0  0  0  0
 21 20  1  0  0  0  0
 22 28  1  0  0  0  0
 23 33  1  0  0  0  0
 24 26  1  0  0  0  0
 24 30  1  0  0  0  0
 25 27  1  0  0  0  0
 25 24  2  0  0  0  0
 26 22  2  0  0  0  0
 27 32  2  0  0  0  0
 28 34  1  0  0  0  0
 29 25  1  0  0  0  0
 30 31  2  0  0  0  0
 31 28  1  0  0  0  0
 31 23  1  0  0  0  0
 32 30  1  0  0  0  0
 33 21  1  1  0  0  0
 34 33  1  0  0  0  0
M  END
>  <MODEL>
1

>  <REMARK>
 VINA RESULT:     -10.6      0.000      0.000
  Name = 
  5 active torsions:
  status: ('A' for Active; 'I' for Inactive)
    1  A    between atoms: C_3  and  C_25
    2  A    between atoms: N_8  and  C_17
    3  A    between atoms: N_8  and  C_18
    4  A    between atoms: C_10  and  C_17
    5  A    between atoms: C_18  and  C_30
                            x       y       z     vdW  Elec       q    Type
                         _______ _______ _______ _____ _____    ______ ____

>  <TORSDO>
F 5

$$$$
=
 OpenBabel10262423113D

 34 39  0  0  1  0  0  0  0  0999 V2000
  185.8500  178.2640  144.6370 C   0  0  0  0  0  0  0  0  0  0  0  0
  187.7000  177.8690  146.2030 C   0  0  0  0  0  0  0  0  0  0  0  0
  185.5400  178.5410  147.0470 C   0  0  0  0  0  3  0  0  0  0  0  0
  185.9850  178.0410  142.1970 O   0  0  0  0  0  1  0  0  0  0  0  0
  183.9140  178.6950  143.2320 C   0  0  0  0  0  0  0  0  0  0  0  0
  183.1950  178.9920  144.3440 N   0  0  0  0  0  0  0  0  0  0  0  0
  185.0300  178.5820  145.7490 C   0  0  0  0  0  0  0  0  0  0  0  0
  185.2610  178.3290  143.3510 C   0  0  0  0  0  0  0  0  0  0  0  0
  183.7350  178.9360  145.5600 N   0  0  0  0  0  0  0  0  0  0  0  0
  189.0290  177.5170  146.4580 C   0  0  0  0  0  3  0  0  0  0  0  0
  189.8900  177.1950  145.4080 C   0  0  0  0  0  0  0  0  0  0  0  0
  189.4150  177.2250  144.0900 C   0  0  0  0  0  3  0  0  0  0  0  0
  186.8660  178.1850  147.2730 C   0  0  0  0  0  3  0  0  0  0  0  0
  188.0890  177.5740  143.8290 C   0  0  0  0  0  3  0  0  0  0  0  0
  187.2070  177.9020  144.8720 C   0  0  0  0  0  0  0  0  0  0  0  0
  191.3080  176.8250  145.7170 C   0  0  0  0  0  3  0  0  0  0  0  0
  191.8450  175.8260  144.7090 C   0  0  0  0  0  1  0  0  0  0  0  0
  191.4320  176.2680  147.1230 C   0  0  0  0  0  1  0  0  0  0  0  0
  183.2630  178.8060  141.8950 C   0  0  0  0  0  2  0  0  0  0  0  0
  183.6180  177.6560  141.0840 N   0  0  0  0  0  2  0  0  0  0  0  0
  182.7940  177.7160  139.8850 C   0  0  0  0  0  2  0  0  0  0  0  0
  185.8630  176.3290  136.5570 C   0  0  0  0  0  3  0  0  0  0  0  0
  184.9670  178.7820  139.1480 C   0  0  0  0  0  2  0  0  0  0  0  0
  187.8980  177.1560  137.3300 C   0  0  0  0  0  0  0  0  0  0  0  0
  189.2230  177.3930  137.5560 C   0  0  0  0  0  0  0  0  0  0  0  0
  187.2330  176.3200  136.4950 N   0  0  0  0  0  0  0  0  0  0  0  0
  189.3520  178.3240  138.5360 N   0  0  0  0  0  0  0  0  0  0  0  0
  185.2130  177.1600  137.4380 N   0  0  0  0  0  0  0  0  0  0  0  0
  190.3160  176.7630  136.8970 N   0  0  0  0  0  1  0  0  0  0  0  0
  187.2400  178.0120  138.2440 C   0  0  0  0  0  0  0  0  0  0  0  0
  185.8610  177.9940  138.2770 C   0  0  0  0  0  0  0  0  0  0  0  0
  188.1440  178.7050  138.9590 N   0  0  0  0  0  0  0  0  0  0  0  0
  183.5750  178.2990  138.7110 C   0  0  1  0  0  3  0  0  0  0  0  0
  183.7800  177.2490  137.6030 C   0  0  0  0  0  2  0  0  0  0  0  0
  1 15  2  0  0  0  0
  1  7  1  0  0  0  0
  2 10  1  0  0  0  0
  2 13  2  0  0  0  0
  3 13  1  0  0  0  0
  4  8  1  0  0  0  0
  5  8  2  0  0  0  0
  5  6  1  0  0  0  0
  6  9  2  0  0  0  0
  7  3  2  0  0  0  0
  8  1  1  0  0  0  0
  9  7  1  0  0  0  0
 11 16  1  0  0  0  0
 11 10  2  0  0  0  0
 12 11  1  0  0  0  0
 14 12  2  0  0  0  0
 14 15  1  0  0  0  0
 15  2  1  0  0  0  0
 16 18  1  0  0  0  0
 17 16  1  0  0  0  0
 19  5  1  0  0  0  0
 20 19  1  0  0  0  0
 21 20  1  0  0  0  0
 22 28  1  0  0  0  0
 24 25  2  0  0  0  0
 24 30  1  0  0  0  0
 25 27  1  0  0  0  0
 26 22  2  0  0  0  0
 26 24  1  0  0  0  0
 27 32  2  0  0  0  0
 28 34  1  0  0  0  0
 28 31  1  0  0  0  0
 29 25  1  0  0  0  0
 30 31  2  0  0  0  0
 30 32  1  0  0  0  0
 31 23  1  0  0  0  0
 33 23  1  0  0  0  0
 33 21  1  1  0  0  0
 34 33  1  0  0  0  0
M  END
>  <MODEL>
2

>  <REMARK>
 VINA RESULT:     -10.6      3.101      6.147
  Name = 
  5 active torsions:
  status: ('A' for Active; 'I' for Inactive)
    1  A    between atoms: C_3  and  C_25
    2  A    between atoms: N_8  and  C_17
    3  A    between atoms: N_8  and  C_18
    4  A    between atoms: C_10  and  C_17
    5  A    between atoms: C_18  and  C_30
                            x       y       z     vdW  Elec       q    Type
                         _______ _______ _______ _____ _____    ______ ____

>  <TORSDO>
F 5

$$$$
=
 OpenBabel10262423113D

 34 39  0  0  1  0  0  0  0  0999 V2000
  187.9220  177.9770  141.8730 C   0  0  0  0  0  0  0  0  0  0  0  0
  187.3850  177.8320  144.2640 C   0  0  0  0  0  0  0  0  0  0  0  0
  185.6820  178.5160  142.6950 C   0  0  0  0  0  3  0  0  0  0  0  0
  190.1090  177.4810  140.8780 O   0  0  0  0  0  1  0  0  0  0  0  0
  188.2800  178.1720  139.4770 C   0  0  0  0  0  0  0  0  0  0  0  0
  186.9900  178.5680  139.3340 N   0  0  0  0  0  0  0  0  0  0  0  0
  186.5860  178.3890  141.6400 C   0  0  0  0  0  0  0  0  0  0  0  0
  188.7790  177.8730  140.7500 C   0  0  0  0  0  0  0  0  0  0  0  0
  186.1720  178.6710  140.3790 N   0  0  0  0  0  0  0  0  0  0  0  0
  187.7580  177.5610  145.5850 C   0  0  0  0  0  3  0  0  0  0  0  0
  189.0580  177.1530  145.8840 C   0  0  0  0  0  0  0  0  0  0  0  0
  189.9940  177.0150  144.8510 C   0  0  0  0  0  3  0  0  0  0  0  0
  186.0790  178.2380  143.9990 C   0  0  0  0  0  3  0  0  0  0  0  0
  189.6280  177.2820  143.5300 C   0  0  0  0  0  3  0  0  0  0  0  0
  188.3250  177.6950  143.2090 C   0  0  0  0  0  0  0  0  0  0  0  0
  189.4240  176.8730  147.3090 C   0  0  0  0  0  3  0  0  0  0  0  0
  188.8790  177.9460  148.2340 C   0  0  0  0  0  1  0  0  0  0  0  0
  190.9270  176.7540  147.4740 C   0  0  0  0  0  1  0  0  0  0  0  0
  189.1570  178.1060  138.2720 C   0  0  0  0  0  2  0  0  0  0  0  0
  188.8610  176.9010  137.5200 N   0  0  0  0  0  2  0  0  0  0  0  0
  189.9490  175.9680  137.7720 C   0  0  0  0  0  2  0  0  0  0  0  0
  193.8260  174.5120  135.4770 C   0  0  0  0  0  3  0  0  0  0  0  0
  192.3880  176.3560  138.3180 C   0  0  0  0  0  2  0  0  0  0  0  0
  195.4150  174.3390  137.1700 C   0  0  0  0  0  0  0  0  0  0  0  0
  196.5120  174.0290  137.9210 C   0  0  0  0  0  0  0  0  0  0  0  0
  195.0410  174.0380  135.9030 N   0  0  0  0  0  0  0  0  0  0  0  0
  196.3750  174.5640  139.1600 N   0  0  0  0  0  0  0  0  0  0  0  0
  193.0370  175.2580  136.3200 N   0  0  0  0  0  0  0  0  0  0  0  0
  197.6270  173.2500  137.5000 N   0  0  0  0  0  1  0  0  0  0  0  0
  194.6090  175.1020  138.0490 C   0  0  0  0  0  0  0  0  0  0  0  0
  193.3930  175.5610  137.5850 C   0  0  0  0  0  0  0  0  0  0  0  0
  195.2150  175.2210  139.2430 N   0  0  0  0  0  0  0  0  0  0  0  0
  191.2770  176.5240  137.2690 C   0  0  1  0  0  3  0  0  0  0  0  0
  191.7370  175.7980  135.9910 C   0  0  0  0  0  2  0  0  0  0  0  0
  1 15  2  0  0  0  0
  2 10  1  0  0  0  0
  3 13  1  0  0  0  0
  5  8  2  0  0  0  0
  6  5  1  0  0  0  0
  6  9  2  0  0  0  0
  7  1  1  0  0  0  0
  7  3  2  0  0  0  0
  8  4  1  0  0  0  0
  8  1  1  0  0  0  0
  9  7  1  0  0  0  0
 10 11  2  0  0  0  0
 11 16  1  0  0  0  0
 12 11  1  0  0  0  0
 13  2  2  0  0  0  0
 14 12  2  0  0  0  0
 15 14  1  0  0  0  0
 15  2  1  0  0  0  0
 16 18  1  0  0  0  0
 16 17  1  0  0  0  0
 19  5  1  0  0  0  0
 20 21  1  0  0  0  0
 20 19  1  0  0  0  0
 22 26  2  0  0  0  0
 22 28  1  0  0  0  0
 24 25  2  0  0  0  0
 24 30  1  0  0  0  0
 25 27  1  0  0  0  0
 26 24  1  0  0  0  0
 27 32  2  0  0  0  0
 28 31  1  0  0  0  0
 29 25  1  0  0  0  0
 30 32  1  0  0  0  0
 31 30  2  0  0  0  0
 31 23  1  0  0  0  0
 33 21  1  1  0  0  0
 33 23  1  0  0  0  0
 34 28  1  0  0  0  0
 34 33  1  0  0  0  0
M  END
>  <MODEL>
3

>  <REMARK>
 VINA RESULT:     -10.4      2.951      5.399
  Name = 
  5 active torsions:
  status: ('A' for Active; 'I' for Inactive)
    1  A    between atoms: C_3  and  C_25
    2  A    between atoms: N_8  and  C_17
    3  A    between atoms: N_8  and  C_18
    4  A    between atoms: C_10  and  C_17
    5  A    between atoms: C_18  and  C_30
                            x       y       z     vdW  Elec       q    Type
                         _______ _______ _______ _____ _____    ______ ____

>  <TORSDO>
F 5

$$$$
=
 OpenBabel10262423113D

 34 39  0  0  1  0  0  0  0  0999 V2000
  185.7310  178.2520  144.5690 C   0  0  0  0  0  0  0  0  0  0  0  0
  187.6660  177.9000  146.0380 C   0  0  0  0  0  0  0  0  0  0  0  0
  185.5530  178.5810  146.9860 C   0  0  0  0  0  3  0  0  0  0  0  0
  185.7310  177.9750  142.1310 O   0  0  0  0  0  1  0  0  0  0  0  0
  183.7170  178.6420  143.2650 C   0  0  0  0  0  0  0  0  0  0  0  0
  183.0590  178.9620  144.4080 N   0  0  0  0  0  0  0  0  0  0  0  0
  184.9720  178.5910  145.7180 C   0  0  0  0  0  0  0  0  0  0  0  0
  185.0700  178.2860  143.3170 C   0  0  0  0  0  0  0  0  0  0  0  0
  183.6660  178.9340  145.5930 N   0  0  0  0  0  0  0  0  0  0  0  0
  189.0100  177.5610  146.2270 C   0  0  0  0  0  3  0  0  0  0  0  0
  189.8130  177.2190  145.1380 C   0  0  0  0  0  0  0  0  0  0  0  0
  189.2660  177.2180  143.8480 C   0  0  0  0  0  3  0  0  0  0  0  0
  186.8920  178.2370  147.1460 C   0  0  0  0  0  3  0  0  0  0  0  0
  187.9260  177.5540  143.6530 C   0  0  0  0  0  3  0  0  0  0  0  0
  187.1010  177.9020  144.7360 C   0  0  0  0  0  0  0  0  0  0  0  0
  191.2480  176.8620  145.3760 C   0  0  0  0  0  3  0  0  0  0  0  0
  191.7220  175.8120  144.3880 C   0  0  0  0  0  1  0  0  0  0  0  0
  191.4620  176.3770  146.7980 C   0  0  0  0  0  1  0  0  0  0  0  0
  182.9930  178.7210  141.9640 C   0  0  0  0  0  2  0  0  0  0  0  0
  181.5620  178.7440  142.2040 N   0  0  0  0  0  2  0  0  0  0  0  0
  180.9620  179.4930  141.1100 C   0  0  0  0  0  2  0  0  0  0  0  0
  179.3120  175.0570  140.9580 C   0  0  0  0  0  3  0  0  0  0  0  0
  180.3280  178.0740  139.1130 C   0  0  0  0  0  2  0  0  0  0  0  0
  180.0740  174.2750  138.9020 C   0  0  0  0  0  0  0  0  0  0  0  0
  180.4570  173.4950  137.8480 C   0  0  0  0  0  0  0  0  0  0  0  0
  179.5600  173.9960  140.1240 N   0  0  0  0  0  0  0  0  0  0  0  0
  180.9420  174.2860  136.8570 N   0  0  0  0  0  0  0  0  0  0  0  0
  179.5840  176.3410  140.5480 N   0  0  0  0  0  0  0  0  0  0  0  0
  180.3890  172.0750  137.7830 N   0  0  0  0  0  1  0  0  0  0  0  0
  180.3620  175.5910  138.4700 C   0  0  0  0  0  0  0  0  0  0  0  0
  180.1000  176.6330  139.3370 C   0  0  0  0  0  0  0  0  0  0  0  0
  180.8850  175.5670  137.2320 N   0  0  0  0  0  0  0  0  0  0  0  0
  179.8520  178.6900  140.4390 C   0  0  1  0  0  3  0  0  0  0  0  0
  179.3790  177.5330  141.3390 C   0  0  0  0  0  2  0  0  0  0  0  0
  1 15  2  0  0  0  0
  1  7  1  0  0  0  0
  2 10  1  0  0  0  0
  2 13  2  0  0  0  0
  3 13  1  0  0  0  0
  4  8  1  0  0  0  0
  5  8  2  0  0  0  0
  5  6  1  0  0  0  0
  6  9  2  0  0  0  0
  7  3  2  0  0  0  0
  8  1  1  0  0  0  0
  9  7  1  0  0  0  0
 11 16  1  0  0  0  0
 11 10  2  0  0  0  0
 12 11  1  0  0  0  0
 14 12  2  0  0  0  0
 14 15  1  0  0  0  0
 15  2  1  0  0  0  0
 16 18  1  0  0  0  0
 17 16  1  0  0  0  0
 19 20  1  0  0  0  0
 19  5  1  0  0  0  0
 21 20  1  0  0  0  0
 23 31  1  0  0  0  0
 23 33  1  0  0  0  0
 24 26  1  0  0  0  0
 25 24  2  0  0  0  0
 26 22  2  0  0  0  0
 27 32  2  0  0  0  0
 27 25  1  0  0  0  0
 28 22  1  0  0  0  0
 28 34  1  0  0  0  0
 29 25  1  0  0  0  0
 30 24  1  0  0  0  0
 30 31  2  0  0  0  0
 31 28  1  0  0  0  0
 32 30  1  0  0  0  0
 33 21  1  1  0  0  0
 33 34  1  0  0  0  0
M  END
>  <MODEL>
4

>  <REMARK>
 VINA RESULT:     -10.3      5.718      9.100
  Name = 
  5 active torsions:
  status: ('A' for Active; 'I' for Inactive)
    1  A    between atoms: C_3  and  C_25
    2  A    between atoms: N_8  and  C_17
    3  A    between atoms: N_8  and  C_18
    4  A    between atoms: C_10  and  C_17
    5  A    between atoms: C_18  and  C_30
                            x       y       z     vdW  Elec       q    Type
                         _______ _______ _______ _____ _____    ______ ____

>  <TORSDO>
F 5

$$$$
=
 OpenBabel10262423113D

 34 39  0  0  1  0  0  0  0  0999 V2000
  186.8470  177.8070  144.5140 C   0  0  0  0  0  0  0  0  0  0  0  0
  184.6210  178.6060  145.1720 C   0  0  0  0  0  0  0  0  0  0  0  0
  186.3300  178.3070  146.8510 C   0  0  0  0  0  3  0  0  0  0  0  0
  187.5360  177.2530  142.2250 O   0  0  0  0  0  1  0  0  0  0  0  0
  189.1000  177.0280  144.0390 C   0  0  0  0  0  0  0  0  0  0  0  0
  189.3910  177.1170  145.3620 N   0  0  0  0  0  0  0  0  0  0  0  0
  187.2320  177.8810  145.8770 C   0  0  0  0  0  0  0  0  0  0  0  0
  187.8190  177.3640  143.5840 C   0  0  0  0  0  0  0  0  0  0  0  0
  188.4890  177.5320  146.2480 N   0  0  0  0  0  0  0  0  0  0  0  0
  183.3100  178.9720  144.8490 C   0  0  0  0  0  3  0  0  0  0  0  0
  182.8670  178.9190  143.5260 C   0  0  0  0  0  0  0  0  0  0  0  0
  183.7430  178.4960  142.5190 C   0  0  0  0  0  3  0  0  0  0  0  0
  185.0320  178.6680  146.5010 C   0  0  0  0  0  3  0  0  0  0  0  0
  185.0530  178.1310  142.8350 C   0  0  0  0  0  3  0  0  0  0  0  0
  185.5180  178.1750  144.1600 C   0  0  0  0  0  0  0  0  0  0  0  0
  181.4570  179.3170  143.2160 C   0  0  0  0  0  3  0  0  0  0  0  0
  180.4690  178.5450  144.0710 C   0  0  0  0  0  1  0  0  0  0  0  0
  181.1440  179.1160  141.7440 C   0  0  0  0  0  1  0  0  0  0  0  0
  190.1430  176.5270  143.0980 C   0  0  0  0  0  2  0  0  0  0  0  0
  190.4000  177.5280  142.0790 N   0  0  0  0  0  2  0  0  0  0  0  0
  191.1390  176.8670  141.0150 C   0  0  0  0  0  2  0  0  0  0  0  0
  187.2560  178.0020  138.5550 C   0  0  0  0  0  3  0  0  0  0  0  0
  190.5160  176.2980  138.6290 C   0  0  0  0  0  2  0  0  0  0  0  0
  187.0480  176.2420  137.0440 C   0  0  0  0  0  0  0  0  0  0  0  0
  186.5870  175.3310  136.1380 C   0  0  0  0  0  0  0  0  0  0  0  0
  186.4820  177.3090  137.6590 N   0  0  0  0  0  0  0  0  0  0  0  0
  187.5670  174.4320  135.8660 N   0  0  0  0  0  0  0  0  0  0  0  0
  188.5500  177.6100  138.8030 N   0  0  0  0  0  0  0  0  0  0  0  0
  185.2820  175.2940  135.5710 N   0  0  0  0  0  1  0  0  0  0  0  0
  188.3780  175.8270  137.2940 C   0  0  0  0  0  0  0  0  0  0  0  0
  189.1260  176.5490  138.2020 C   0  0  0  0  0  0  0  0  0  0  0  0
  188.6630  174.7320  136.5690 N   0  0  0  0  0  0  0  0  0  0  0  0
  190.7530  177.4250  139.6480 C   0  0  1  0  0  3  0  0  0  0  0  0
  189.4550  178.2500  139.7310 C   0  0  0  0  0  2  0  0  0  0  0  0
  1  7  1  0  0  0  0
  2 13  2  0  0  0  0
  4  8  1  0  0  0  0
  5  6  1  0  0  0  0
  6  9  2  0  0  0  0
  7  9  1  0  0  0  0
  7  3  2  0  0  0  0
  8  5  2  0  0  0  0
  8  1  1  0  0  0  0
 10  2  1  0  0  0  0
 11 10  2  0  0  0  0
 12 14  2  0  0  0  0
 12 11  1  0  0  0  0
 13  3  1  0  0  0  0
 14 15  1  0  0  0  0
 15  1  2  0  0  0  0
 15  2  1  0  0  0  0
 16 11  1  0  0  0  0
 16 17  1  0  0  0  0
 18 16  1  0  0  0  0
 19  5  1  0  0  0  0
 20 19  1  0  0  0  0
 21 20  1  0  0  0  0
 22 28  1  0  0  0  0
 23 33  1  0  0  0  0
 24 30  1  0  0  0  0
 24 26  1  0  0  0  0
 25 24  2  0  0  0  0
 26 22  2  0  0  0  0
 27 25  1  0  0  0  0
 27 32  2  0  0  0  0
 28 34  1  0  0  0  0
 29 25  1  0  0  0  0
 30 31  2  0  0  0  0
 31 23  1  0  0  0  0
 31 28  1  0  0  0  0
 32 30  1  0  0  0  0
 33 34  1  0  0  0  0
 33 21  1  1  0  0  0
M  END
>  <MODEL>
5

>  <REMARK>
 VINA RESULT:     -10.3      2.062      2.952
  Name = 
  5 active torsions:
  status: ('A' for Active; 'I' for Inactive)
    1  A    between atoms: C_3  and  C_25
    2  A    between atoms: N_8  and  C_17
    3  A    between atoms: N_8  and  C_18
    4  A    between atoms: C_10  and  C_17
    5  A    between atoms: C_18  and  C_30
                            x       y       z     vdW  Elec       q    Type
                         _______ _______ _______ _____ _____    ______ ____

>  <TORSDO>
F 5

$$$$
=
 OpenBabel10262423113D

 34 39  0  0  1  0  0  0  0  0999 V2000
  186.5120  178.2530  142.3750 C   0  0  0  0  0  0  0  0  0  0  0  0
  188.4580  177.8010  143.8020 C   0  0  0  0  0  0  0  0  0  0  0  0
  188.7710  178.1940  141.4400 C   0  0  0  0  0  3  0  0  0  0  0  0
  184.1820  178.3440  143.1410 O   0  0  0  0  0  1  0  0  0  0  0  0
  184.7010  178.7160  140.8220 C   0  0  0  0  0  0  0  0  0  0  0  0
  185.6080  178.7970  139.8150 N   0  0  0  0  0  0  0  0  0  0  0  0
  187.3970  178.3620  141.2730 C   0  0  0  0  0  0  0  0  0  0  0  0
  185.1300  178.4360  142.1250 C   0  0  0  0  0  0  0  0  0  0  0  0
  186.9100  178.6280  140.0350 N   0  0  0  0  0  0  0  0  0  0  0  0
  189.0150  177.5190  145.0530 C   0  0  0  0  0  3  0  0  0  0  0  0
  188.2000  177.3970  146.1800 C   0  0  0  0  0  0  0  0  0  0  0  0
  186.8150  177.5580  146.0510 C   0  0  0  0  0  3  0  0  0  0  0  0
  189.2990  177.9160  142.6970 C   0  0  0  0  0  3  0  0  0  0  0  0
  186.2530  177.8410  144.8050 C   0  0  0  0  0  3  0  0  0  0  0  0
  187.0560  177.9670  143.6600 C   0  0  0  0  0  0  0  0  0  0  0  0
  188.8300  177.0930  147.5040 C   0  0  0  0  0  3  0  0  0  0  0  0
  188.6630  178.2520  148.4680 C   0  0  0  0  0  1  0  0  0  0  0  0
  190.3010  176.7530  147.3440 C   0  0  0  0  0  1  0  0  0  0  0  0
  183.2520  178.8840  140.5090 C   0  0  0  0  0  2  0  0  0  0  0  0
  183.0580  178.8510  139.0710 N   0  0  0  0  0  2  0  0  0  0  0  0
  182.2280  177.6900  138.7850 C   0  0  0  0  0  2  0  0  0  0  0  0
  184.5730  173.7520  137.5940 C   0  0  0  0  0  3  0  0  0  0  0  0
  184.1470  177.3820  137.1650 C   0  0  0  0  0  2  0  0  0  0  0  0
  186.6890  174.5420  137.0280 C   0  0  0  0  0  0  0  0  0  0  0  0
  188.0210  174.6600  136.7520 C   0  0  0  0  0  0  0  0  0  0  0  0
  185.8980  173.4910  137.3530 N   0  0  0  0  0  0  0  0  0  0  0  0
  188.3160  175.9630  136.5140 N   0  0  0  0  0  0  0  0  0  0  0  0
  184.0910  175.0370  137.5040 N   0  0  0  0  0  0  0  0  0  0  0  0
  188.9730  173.6030  136.7310 N   0  0  0  0  0  1  0  0  0  0  0  0
  186.2060  175.8680  136.9370 C   0  0  0  0  0  0  0  0  0  0  0  0
  184.8670  176.0930  137.1870 C   0  0  0  0  0  0  0  0  0  0  0  0
  187.2110  176.7050  136.6260 N   0  0  0  0  0  0  0  0  0  0  0  0
  182.7150  176.9620  137.5350 C   0  0  1  0  0  3  0  0  0  0  0  0
  182.7240  175.4370  137.7470 C   0  0  0  0  0  2  0  0  0  0  0  0
  1 15  2  0  0  0  0
  2 10  1  0  0  0  0
  3 13  1  0  0  0  0
  5  8  2  0  0  0  0
  6  9  2  0  0  0  0
  6  5  1  0  0  0  0
  7  3  2  0  0  0  0
  7  1  1  0  0  0  0
  8  1  1  0  0  0  0
  8  4  1  0  0  0  0
  9  7  1  0  0  0  0
 10 11  2  0  0  0  0
 11 16  1  0  0  0  0
 12 11  1  0  0  0  0
 13  2  2  0  0  0  0
 14 12  2  0  0  0  0
 15  2  1  0  0  0  0
 15 14  1  0  0  0  0
 16 17  1  0  0  0  0
 18 16  1  0  0  0  0
 19  5  1  0  0  0  0
 20 19  1  0  0  0  0
 21 20  1  0  0  0  0
 23 31  1  0  0  0  0
 23 33  1  0  0  0  0
 24 26  1  0  0  0  0
 25 24  2  0  0  0  0
 26 22  2  0  0  0  0
 27 32  2  0  0  0  0
 27 25  1  0  0  0  0
 28 22  1  0  0  0  0
 28 34  1  0  0  0  0
 29 25  1  0  0  0  0
 30 24  1  0  0  0  0
 30 31  2  0  0  0  0
 31 28  1  0  0  0  0
 32 30  1  0  0  0  0
 33 34  1  0  0  0  0
 33 21  1  1  0  0  0
M  END
>  <MODEL>
6

>  <REMARK>
 VINA RESULT:     -10.2      3.678      6.760
  Name = 
  5 active torsions:
  status: ('A' for Active; 'I' for Inactive)
    1  A    between atoms: C_3  and  C_25
    2  A    between atoms: N_8  and  C_17
    3  A    between atoms: N_8  and  C_18
    4  A    between atoms: C_10  and  C_17
    5  A    between atoms: C_18  and  C_30
                            x       y       z     vdW  Elec       q    Type
                         _______ _______ _______ _____ _____    ______ ____

>  <TORSDO>
F 5

$$$$
=
 OpenBabel10262423113D

 34 39  0  0  1  0  0  0  0  0999 V2000
  189.1310  177.5660  144.0140 C   0  0  0  0  0  0  0  0  0  0  0  0
  190.9370  177.5050  142.3510 C   0  0  0  0  0  0  0  0  0  0  0  0
  191.4700  177.8090  144.6860 C   0  0  0  0  0  3  0  0  0  0  0  0
  186.7380  177.3450  143.5180 O   0  0  0  0  0  1  0  0  0  0  0  0
  187.4730  177.6480  145.7880 C   0  0  0  0  0  0  0  0  0  0  0  0
  188.4710  177.8300  146.6900 N   0  0  0  0  0  0  0  0  0  0  0  0
  190.1160  177.7500  145.0170 C   0  0  0  0  0  0  0  0  0  0  0  0
  187.7780  177.5180  144.4280 C   0  0  0  0  0  0  0  0  0  0  0  0
  189.7480  177.8780  146.3160 N   0  0  0  0  0  0  0  0  0  0  0  0
  191.3750  177.3870  141.0290 C   0  0  0  0  0  3  0  0  0  0  0  0
  190.4570  177.2050  139.9930 C   0  0  0  0  0  0  0  0  0  0  0  0
  189.0880  177.1420  140.2850 C   0  0  0  0  0  3  0  0  0  0  0  0
  191.8780  177.6860  143.3620 C   0  0  0  0  0  3  0  0  0  0  0  0
  188.6450  177.2580  141.6030 C   0  0  0  0  0  3  0  0  0  0  0  0
  189.5530  177.4420  142.6590 C   0  0  0  0  0  0  0  0  0  0  0  0
  190.9600  177.0840  138.5870 C   0  0  0  0  0  3  0  0  0  0  0  0
  189.8930  177.4860  137.5870 C   0  0  0  0  0  1  0  0  0  0  0  0
  191.4420  175.6740  138.3000 C   0  0  0  0  0  1  0  0  0  0  0  0
  186.0590  177.6350  146.2640 C   0  0  0  0  0  2  0  0  0  0  0  0
  185.4350  178.9120  145.9720 N   0  0  0  0  0  2  0  0  0  0  0  0
  184.0790  178.6280  145.5280 C   0  0  0  0  0  2  0  0  0  0  0  0
  181.9430  178.2690  141.3170 C   0  0  0  0  0  3  0  0  0  0  0  0
  184.7950  179.5240  143.2730 C   0  0  0  0  0  2  0  0  0  0  0  0
  183.7170  178.3430  139.8110 C   0  0  0  0  0  0  0  0  0  0  0  0
  184.5130  178.2390  138.7070 C   0  0  0  0  0  0  0  0  0  0  0  0
  182.4130  178.0570  140.0470 N   0  0  0  0  0  0  0  0  0  0  0  0
  185.7720  178.6370  139.0210 N   0  0  0  0  0  0  0  0  0  0  0  0
  182.7790  178.7510  142.2960 N   0  0  0  0  0  0  0  0  0  0  0  0
  184.1160  177.7690  137.4240 N   0  0  0  0  0  1  0  0  0  0  0  0
  184.5880  178.8350  140.8110 C   0  0  0  0  0  0  0  0  0  0  0  0
  184.0800  179.0360  142.0780 C   0  0  0  0  0  0  0  0  0  0  0  0
  185.8220  179.0030  140.3050 N   0  0  0  0  0  0  0  0  0  0  0  0
  183.6920  179.5090  144.3440 C   0  0  1  0  0  3  0  0  0  0  0  0
  182.4040  179.0010  143.6690 C   0  0  0  0  0  2  0  0  0  0  0  0
  1  8  1  0  0  0  0
  1  7  2  0  0  0  0
  2 15  1  0  0  0  0
  2 13  1  0  0  0  0
  3  7  1  0  0  0  0
  4  8  1  0  0  0  0
  5 19  1  0  0  0  0
  5  6  1  0  0  0  0
  7  9  1  0  0  0  0
  8  5  2  0  0  0  0
  9  6  2  0  0  0  0
 10  2  2  0  0  0  0
 11 12  2  0  0  0  0
 11 10  1  0  0  0  0
 12 14  1  0  0  0  0
 13  3  2  0  0  0  0
 14 15  2  0  0  0  0
 15  1  1  0  0  0  0
 16 11  1  0  0  0  0
 17 16  1  0  0  0  0
 18 16  1  0  0  0  0
 20 19  1  0  0  0  0
 21 20  1  0  0  0  0
 22 28  1  0  0  0  0
 23 33  1  0  0  0  0
 24 26  1  0  0  0  0
 24 30  1  0  0  0  0
 25 27  1  0  0  0  0
 25 24  2  0  0  0  0
 26 22  2  0  0  0  0
 27 32  2  0  0  0  0
 28 34  1  0  0  0  0
 29 25  1  0  0  0  0
 30 31  2  0  0  0  0
 31 28  1  0  0  0  0
 31 23  1  0  0  0  0
 32 30  1  0  0  0  0
 33 21  1  1  0  0  0
 34 33  1  0  0  0  0
M  END
>  <MODEL>
7

>  <REMARK>
 VINA RESULT:     -10.1      3.206      7.411
  Name = 
  5 active torsions:
  status: ('A' for Active; 'I' for Inactive)
    1  A    between atoms: C_3  and  C_25
    2  A    between atoms: N_8  and  C_17
    3  A    between atoms: N_8  and  C_18
    4  A    between atoms: C_10  and  C_17
    5  A    between atoms: C_18  and  C_30
                            x       y       z     vdW  Elec       q    Type
                         _______ _______ _______ _____ _____    ______ ____

>  <TORSDO>
F 5

$$$$
=
 OpenBabel10262423113D

 34 39  0  0  1  0  0  0  0  0999 V2000
  187.4700  178.1060  139.5570 C   0  0  0  0  0  0  0  0  0  0  0  0
  188.8610  177.0040  137.8600 C   0  0  0  0  0  0  0  0  0  0  0  0
  186.6630  177.8080  137.2680 C   0  0  0  0  0  3  0  0  0  0  0  0
  188.1160  178.4820  141.8940 O   0  0  0  0  0  1  0  0  0  0  0  0
  185.9650  179.2180  141.1080 C   0  0  0  0  0  0  0  0  0  0  0  0
  185.0490  179.3290  140.1130 N   0  0  0  0  0  0  0  0  0  0  0  0
  186.4650  178.2680  138.5700 C   0  0  0  0  0  0  0  0  0  0  0  0
  187.1950  178.5980  140.8560 C   0  0  0  0  0  0  0  0  0  0  0  0
  185.2930  178.8710  138.8860 N   0  0  0  0  0  0  0  0  0  0  0  0
  190.0470  176.3690  137.4790 C   0  0  0  0  0  3  0  0  0  0  0  0
  191.0760  176.1760  138.4020 C   0  0  0  0  0  0  0  0  0  0  0  0
  190.9150  176.6240  139.7200 C   0  0  0  0  0  3  0  0  0  0  0  0
  187.8540  177.1810  136.9150 C   0  0  0  0  0  3  0  0  0  0  0  0
  189.7340  177.2600  140.1070 C   0  0  0  0  0  3  0  0  0  0  0  0
  188.6870  177.4630  139.1930 C   0  0  0  0  0  0  0  0  0  0  0  0
  192.3310  175.4900  137.9600 C   0  0  0  0  0  3  0  0  0  0  0  0
  193.1760  176.4030  137.0910 C   0  0  0  0  0  1  0  0  0  0  0  0
  192.0190  174.2040  137.2190 C   0  0  0  0  0  1  0  0  0  0  0  0
  185.6220  179.7220  142.4690 C   0  0  0  0  0  2  0  0  0  0  0  0
  184.9110  178.6930  143.2050 N   0  0  0  0  0  2  0  0  0  0  0  0
  184.9830  179.0540  144.6120 C   0  0  0  0  0  2  0  0  0  0  0  0
  187.8100  178.2480  148.3240 C   0  0  0  0  0  3  0  0  0  0  0  0
  186.8100  177.3300  144.9040 C   0  0  0  0  0  2  0  0  0  0  0  0
  189.7380  177.3820  147.3480 C   0  0  0  0  0  0  0  0  0  0  0  0
  191.0140  176.9710  147.0900 C   0  0  0  0  0  0  0  0  0  0  0  0
  189.1390  177.9290  148.4330 N   0  0  0  0  0  0  0  0  0  0  0  0
  191.0920  176.5180  145.8130 N   0  0  0  0  0  0  0  0  0  0  0  0
  187.1340  178.0150  147.1500 N   0  0  0  0  0  0  0  0  0  0  0  0
  192.1130  177.0200  147.9940 N   0  0  0  0  0  1  0  0  0  0  0  0
  189.0540  177.1410  146.1330 C   0  0  0  0  0  0  0  0  0  0  0  0
  187.7170  177.4760  146.0600 C   0  0  0  0  0  0  0  0  0  0  0  0
  189.8970  176.6200  145.2250 N   0  0  0  0  0  0  0  0  0  0  0  0
  185.4870  177.8870  145.4550 C   0  0  1  0  0  3  0  0  0  0  0  0
  185.7420  178.3200  146.9110 C   0  0  0  0  0  2  0  0  0  0  0  0
  1  8  2  0  0  0  0
  2 15  1  0  0  0  0
  3  7  1  0  0  0  0
  5 19  1  0  0  0  0
  6  5  2  0  0  0  0
  7  9  2  0  0  0  0
  7  1  1  0  0  0  0
  8  5  1  0  0  0  0
  8  4  1  0  0  0  0
  9  6  1  0  0  0  0
 10  2  2  0  0  0  0
 10 11  1  0  0  0  0
 11 12  2  0  0  0  0
 12 14  1  0  0  0  0
 13  3  2  0  0  0  0
 13  2  1  0  0  0  0
 15  1  1  0  0  0  0
 15 14  2  0  0  0  0
 16 11  1  0  0  0  0
 17 16  1  0  0  0  0
 18 16  1  0  0  0  0
 19 20  1  0  0  0  0
 20 21  1  0  0  0  0
 22 26  2  0  0  0  0
 23 33  1  0  0  0  0
 23 31  1  0  0  0  0
 24 26  1  0  0  0  0
 25 24  2  0  0  0  0
 25 29  1  0  0  0  0
 27 25  1  0  0  0  0
 28 22  1  0  0  0  0
 30 24  1  0  0  0  0
 31 30  2  0  0  0  0
 31 28  1  0  0  0  0
 32 27  2  0  0  0  0
 32 30  1  0  0  0  0
 33 21  1  6  0  0  0
 33 34  1  0  0  0  0
 34 28  1  0  0  0  0
M  END
>  <MODEL>
8

>  <REMARK>
 VINA RESULT:     -10.1      3.556      9.071
  Name = 
  5 active torsions:
  status: ('A' for Active; 'I' for Inactive)
    1  A    between atoms: C_3  and  C_25
    2  A    between atoms: N_8  and  C_17
    3  A    between atoms: N_8  and  C_18
    4  A    between atoms: C_10  and  C_17
    5  A    between atoms: C_18  and  C_30
                            x       y       z     vdW  Elec       q    Type
                         _______ _______ _______ _____ _____    ______ ____

>  <TORSDO>
F 5

$$$$
=
 OpenBabel10262423113D

 34 39  0  0  1  0  0  0  0  0999 V2000
  189.6950  177.4970  142.4860 C   0  0  0  0  0  0  0  0  0  0  0  0
  188.7750  177.7800  144.7450 C   0  0  0  0  0  0  0  0  0  0  0  0
  191.1610  177.5630  144.4430 C   0  0  0  0  0  3  0  0  0  0  0  0
  188.3760  177.4030  140.4190 O   0  0  0  0  0  1  0  0  0  0  0  0
  190.7720  177.2130  140.3260 C   0  0  0  0  0  0  0  0  0  0  0  0
  191.9760  177.1670  140.9520 N   0  0  0  0  0  0  0  0  0  0  0  0
  190.9890  177.4480  143.0630 C   0  0  0  0  0  0  0  0  0  0  0  0
  189.6020  177.3720  141.0790 C   0  0  0  0  0  0  0  0  0  0  0  0
  192.0790  177.2830  142.2740 N   0  0  0  0  0  0  0  0  0  0  0  0
  187.6880  177.9450  145.6080 C   0  0  0  0  0  3  0  0  0  0  0  0
  186.3860  177.9990  145.1050 C   0  0  0  0  0  0  0  0  0  0  0  0
  186.1730  177.8870  143.7250 C   0  0  0  0  0  3  0  0  0  0  0  0
  190.0610  177.7290  145.2790 C   0  0  0  0  0  3  0  0  0  0  0  0
  187.2550  177.7230  142.8580 C   0  0  0  0  0  3  0  0  0  0  0  0
  188.5710  177.6650  143.3450 C   0  0  0  0  0  0  0  0  0  0  0  0
  185.2450  178.1750  146.0580 C   0  0  0  0  0  3  0  0  0  0  0  0
  184.0610  178.8370  145.3780 C   0  0  0  0  0  1  0  0  0  0  0  0
  185.6670  178.9810  147.2730 C   0  0  0  0  0  1  0  0  0  0  0  0
  190.7170  177.0460  138.8450 C   0  0  0  0  0  2  0  0  0  0  0  0
  190.6540  175.6340  138.5160 N   0  0  0  0  0  2  0  0  0  0  0  0
  191.2060  175.4880  137.1770 C   0  0  0  0  0  2  0  0  0  0  0  0
  186.7700  176.4800  135.8500 C   0  0  0  0  0  3  0  0  0  0  0  0
  189.2340  173.9370  136.8510 C   0  0  0  0  0  2  0  0  0  0  0  0
  185.5200  174.8030  136.8720 C   0  0  0  0  0  0  0  0  0  0  0  0
  184.5170  174.0520  137.4140 C   0  0  0  0  0  0  0  0  0  0  0  0
  185.5470  176.0080  136.2530 N   0  0  0  0  0  0  0  0  0  0  0  0
  185.0410  172.9180  137.9460 N   0  0  0  0  0  0  0  0  0  0  0  0
  187.9080  175.7430  136.0770 N   0  0  0  0  0  0  0  0  0  0  0  0
  183.1350  174.3910  137.4480 N   0  0  0  0  0  1  0  0  0  0  0  0
  186.6850  174.0370  137.1160 C   0  0  0  0  0  0  0  0  0  0  0  0
  187.8980  174.5450  136.6960 C   0  0  0  0  0  0  0  0  0  0  0  0
  186.3650  172.9050  137.7660 N   0  0  0  0  0  0  0  0  0  0  0  0
  190.1480  174.9870  136.1990 C   0  0  1  0  0  3  0  0  0  0  0  0
  189.2490  176.1400  135.7130 C   0  0  0  0  0  2  0  0  0  0  0  0
  1  7  1  0  0  0  0
  1 15  2  0  0  0  0
  2 13  2  0  0  0  0
  2 10  1  0  0  0  0
  3 13  1  0  0  0  0
  4  8  1  0  0  0  0
  5  6  1  0  0  0  0
  5  8  2  0  0  0  0
  6  9  2  0  0  0  0
  7  3  2  0  0  0  0
  8  1  1  0  0  0  0
  9  7  1  0  0  0  0
 11 10  2  0  0  0  0
 11 16  1  0  0  0  0
 12 11  1  0  0  0  0
 14 15  1  0  0  0  0
 14 12  2  0  0  0  0
 15  2  1  0  0  0  0
 16 18  1  0  0  0  0
 17 16  1  0  0  0  0
 19  5  1  0  0  0  0
 20 19  1  0  0  0  0
 21 20  1  0  0  0  0
 22 28  1  0  0  0  0
 22 26  2  0  0  0  0
 24 30  1  0  0  0  0
 24 25  2  0  0  0  0
 25 29  1  0  0  0  0
 25 27  1  0  0  0  0
 26 24  1  0  0  0  0
 28 31  1  0  0  0  0
 30 32  1  0  0  0  0
 31 23  1  0  0  0  0
 31 30  2  0  0  0  0
 32 27  2  0  0  0  0
 33 23  1  0  0  0  0
 33 21  1  1  0  0  0
 34 28  1  0  0  0  0
 34 33  1  0  0  0  0
M  END
>  <MODEL>
9

>  <REMARK>
 VINA RESULT:     -10.0      3.013      5.581
  Name = 
  5 active torsions:
  status: ('A' for Active; 'I' for Inactive)
    1  A    between atoms: C_3  and  C_25
    2  A    between atoms: N_8  and  C_17
    3  A    between atoms: N_8  and  C_18
    4  A    between atoms: C_10  and  C_17
    5  A    between atoms: C_18  and  C_30
                            x       y       z     vdW  Elec       q    Type
                         _______ _______ _______ _____ _____    ______ ____

>  <TORSDO>
F 5

$$$$
