=
 OpenBabel10262419583D

 25 28  0  0  1  0  0  0  0  0999 V2000
  187.1870  178.2850  145.8880 N   0  0  0  0  0  0  0  0  0  0  0  0
  188.5510  177.8400  145.7570 C   0  0  0  0  0  0  0  0  0  0  0  0
  187.3830  178.2770  148.3400 C   0  0  0  0  0  3  0  0  0  0  0  0
  186.0910  178.0750  144.9520 C   0  0  1  0  0  3  0  0  0  0  0  0
  183.5940  179.2580  144.1100 C   0  0  0  0  0  3  0  0  0  0  0  0
  188.6680  177.9340  148.2210 C   0  0  0  0  0  3  0  0  0  0  0  0
  184.8980  178.2610  145.8540 C   0  0  2  0  0  3  0  0  0  0  0  0
  183.5980  178.6380  145.2970 C   0  0  0  0  0  3  0  0  0  0  0  0
  184.8690  179.5920  143.4200 C   0  0  0  0  0  3  0  0  0  0  0  0
  186.6170  178.4360  147.1500 N   0  0  0  0  0  0  0  0  0  0  0  0
  185.2250  178.4610  147.0890 N   0  0  0  0  0  2  0  0  0  0  0  0
  186.0430  179.0970  143.8450 C   0  0  0  0  0  3  0  0  0  0  0  0
  189.2830  177.6940  146.8900 C   0  0  0  0  0  0  0  0  0  0  0  0
  189.1180  177.5710  144.4180 C   0  0  0  0  0  0  0  0  0  0  0  0
  189.3030  176.1620  142.4500 C   0  0  0  0  0  3  0  0  0  0  0  0
  190.0110  178.4800  143.8390 C   0  0  0  0  0  3  0  0  0  0  0  0
  190.5490  178.2320  142.5730 C   0  0  0  0  0  3  0  0  0  0  0  0
  188.7660  176.4100  143.7150 C   0  0  0  0  0  3  0  0  0  0  0  0
  190.1990  177.0710  141.8690 C   0  0  0  0  0  0  0  0  0  0  0  0
  190.7660  176.8100  140.5350 C   0  0  0  0  0  0  0  0  0  0  0  0
  190.1540  176.0750  139.7160 O   0  0  0  0  0  0  0  0  0  0  0  0
  192.0130  177.3860  140.1560 N   0  0  0  0  0  1  0  0  0  0  0  0
  190.7350  177.3170  146.8600 C   0  0  0  0  0  2  0  0  0  0  0  0
  190.9480  175.9050  147.3870 C   0  0  0  0  0  2  0  0  0  0  0  0
  192.4100  175.6740  147.7190 C   0  0  0  0  0  1  0  0  0  0  0  0
  1 10  1  0  0  0  0
  2  1  1  0  0  0  0
  2 13  2  0  0  0  0
  4 12  1  6  0  0  0
  4  7  1  0  0  0  0
  4  1  1  0  0  0  0
  5  8  2  0  0  0  0
  6  3  2  0  0  0  0
  7  8  1  6  0  0  0
  7 11  1  0  0  0  0
  9 12  2  0  0  0  0
  9  5  1  0  0  0  0
 10  3  1  0  0  0  0
 11 10  1  0  0  0  0
 13  6  1  0  0  0  0
 14  2  1  0  0  0  0
 15 18  1  0  0  0  0
 16 14  1  0  0  0  0
 17 16  2  0  0  0  0
 18 14  2  0  0  0  0
 19 15  2  0  0  0  0
 19 17  1  0  0  0  0
 20 19  1  0  0  0  0
 21 20  2  0  0  0  0
 22 20  1  0  0  0  0
 23 13  1  0  0  0  0
 23 24  1  0  0  0  0
 24 25  1  0  0  0  0
M  END
>  <MODEL>
1

>  <REMARK>
 VINA RESULT:      -8.9      0.000      0.000
  Name = 
  4 active torsions:
  status: ('A' for Active; 'I' for Inactive)
    1  A    between atoms: C_2  and  C_25
    2  A    between atoms: C_3  and  C_6
    3  A    between atoms: C_13  and  C_14
    4  A    between atoms: C_14  and  C_24
                            x       y       z     vdW  Elec       q    Type
                         _______ _______ _______ _____ _____    ______ ____

>  <TORSDO>
F 4

$$$$
=
 OpenBabel10262419583D

 25 28  0  0  1  0  0  0  0  0999 V2000
  186.1440  178.1220  145.0860 N   0  0  0  0  0  0  0  0  0  0  0  0
  186.0380  178.0990  143.6510 C   0  0  0  0  0  0  0  0  0  0  0  0
  183.7850  178.7900  145.2870 C   0  0  0  0  0  3  0  0  0  0  0  0
  187.3410  178.3520  145.8850 C   0  0  1  0  0  3  0  0  0  0  0  0
  188.4730  177.7400  148.4710 C   0  0  0  0  0  3  0  0  0  0  0  0
  183.6640  178.7010  143.9600 C   0  0  0  0  0  3  0  0  0  0  0  0
  186.7370  178.7870  147.1950 C   0  0  2  0  0  3  0  0  0  0  0  0
  187.4920  178.6520  148.4420 C   0  0  0  0  0  3  0  0  0  0  0  0
  188.7380  176.8690  147.2950 C   0  0  0  0  0  3  0  0  0  0  0  0
  185.0580  178.5160  145.8650 N   0  0  0  0  0  0  0  0  0  0  0  0
  185.4470  178.8740  147.1540 N   0  0  0  0  0  2  0  0  0  0  0  0
  188.1650  177.1090  146.1040 C   0  0  0  0  0  3  0  0  0  0  0  0
  184.8250  178.3540  143.0990 C   0  0  0  0  0  0  0  0  0  0  0  0
  187.2240  177.7900  142.8230 C   0  0  0  0  0  0  0  0  0  0  0  0
  188.7470  178.3640  141.0220 C   0  0  0  0  0  3  0  0  0  0  0  0
  187.9610  176.6230  143.0610 C   0  0  0  0  0  3  0  0  0  0  0  0
  189.0830  176.3280  142.2830 C   0  0  0  0  0  3  0  0  0  0  0  0
  187.6250  178.6600  141.8000 C   0  0  0  0  0  3  0  0  0  0  0  0
  189.4850  177.1950  141.2580 C   0  0  0  0  0  0  0  0  0  0  0  0
  190.6690  176.8830  140.4390 C   0  0  0  0  0  0  0  0  0  0  0  0
  190.5820  176.0750  139.4760 O   0  0  0  0  0  0  0  0  0  0  0  0
  191.9250  177.4900  140.7270 N   0  0  0  0  0  1  0  0  0  0  0  0
  184.5860  178.2750  141.6200 C   0  0  0  0  0  2  0  0  0  0  0  0
  183.1000  178.3380  141.2980 C   0  0  0  0  0  2  0  0  0  0  0  0
  182.7630  177.4110  140.1450 C   0  0  0  0  0  1  0  0  0  0  0  0
  1 10  1  0  0  0  0
  1  4  1  0  0  0  0
  2  1  1  0  0  0  0
  3 10  1  0  0  0  0
  4 12  1  1  0  0  0
  4  7  1  0  0  0  0
  6  3  2  0  0  0  0
  7  8  1  1  0  0  0
  8  5  2  0  0  0  0
  9  5  1  0  0  0  0
 10 11  1  0  0  0  0
 11  7  1  0  0  0  0
 12  9  2  0  0  0  0
 13  2  2  0  0  0  0
 13  6  1  0  0  0  0
 14 16  1  0  0  0  0
 14  2  1  0  0  0  0
 15 19  2  0  0  0  0
 15 18  1  0  0  0  0
 17 16  2  0  0  0  0
 18 14  2  0  0  0  0
 19 17  1  0  0  0  0
 20 22  1  0  0  0  0
 20 19  1  0  0  0  0
 21 20  2  0  0  0  0
 23 13  1  0  0  0  0
 24 23  1  0  0  0  0
 25 24  1  0  0  0  0
M  END
>  <MODEL>
2

>  <REMARK>
 VINA RESULT:      -8.5      1.608      4.941
  Name = 
  4 active torsions:
  status: ('A' for Active; 'I' for Inactive)
    1  A    between atoms: C_2  and  C_25
    2  A    between atoms: C_3  and  C_6
    3  A    between atoms: C_13  and  C_14
    4  A    between atoms: C_14  and  C_24
                            x       y       z     vdW  Elec       q    Type
                         _______ _______ _______ _____ _____    ______ ____

>  <TORSDO>
F 4

$$$$
=
 OpenBabel10262419583D

 25 28  0  0  1  0  0  0  0  0999 V2000
  184.6380  178.5770  142.9650 N   0  0  0  0  0  0  0  0  0  0  0  0
  185.8520  178.2530  143.6670 C   0  0  0  0  0  0  0  0  0  0  0  0
  183.4370  178.8580  145.0940 C   0  0  0  0  0  3  0  0  0  0  0  0
  184.2510  178.1620  141.6230 C   0  0  1  0  0  3  0  0  0  0  0  0
  182.6210  179.0010  139.3900 C   0  0  0  0  0  3  0  0  0  0  0  0
  184.5780  178.6280  145.7490 C   0  0  0  0  0  3  0  0  0  0  0  0
  182.7550  178.3310  141.6860 C   0  0  2  0  0  3  0  0  0  0  0  0
  181.9760  178.5190  140.4600 C   0  0  0  0  0  3  0  0  0  0  0  0
  184.0580  179.3780  139.4720 C   0  0  0  0  0  3  0  0  0  0  0  0
  183.4590  178.8110  143.6700 N   0  0  0  0  0  0  0  0  0  0  0  0
  182.3360  178.6960  142.8540 N   0  0  0  0  0  2  0  0  0  0  0  0
  184.8070  179.0470  140.5370 C   0  0  0  0  0  3  0  0  0  0  0  0
  185.8330  178.3030  145.0230 C   0  0  0  0  0  0  0  0  0  0  0  0
  187.0720  177.8940  142.9130 C   0  0  0  0  0  0  0  0  0  0  0  0
  188.9310  176.3860  142.5020 C   0  0  0  0  0  3  0  0  0  0  0  0
  187.5310  178.7230  141.8840 C   0  0  0  0  0  3  0  0  0  0  0  0
  188.6830  178.3880  141.1670 C   0  0  0  0  0  3  0  0  0  0  0  0
  187.7790  176.7220  143.2190 C   0  0  0  0  0  3  0  0  0  0  0  0
  189.3910  177.2180  141.4710 C   0  0  0  0  0  0  0  0  0  0  0  0
  190.6050  176.8650  140.7150 C   0  0  0  0  0  0  0  0  0  0  0  0
  190.5550  176.0030  139.7980 O   0  0  0  0  0  0  0  0  0  0  0  0
  191.8490  177.4930  141.0130 N   0  0  0  0  0  1  0  0  0  0  0  0
  187.0640  178.0650  145.8490 C   0  0  0  0  0  2  0  0  0  0  0  0
  186.7810  178.2670  147.3300 C   0  0  0  0  0  2  0  0  0  0  0  0
  187.9830  177.8650  148.1640 C   0  0  0  0  0  1  0  0  0  0  0  0
  1  2  1  0  0  0  0
  1 10  1  0  0  0  0
  2 13  2  0  0  0  0
  3  6  2  0  0  0  0
  4 12  1  6  0  0  0
  4  7  1  0  0  0  0
  4  1  1  0  0  0  0
  5  9  1  0  0  0  0
  5  8  2  0  0  0  0
  7  8  1  6  0  0  0
  7 11  1  0  0  0  0
  9 12  2  0  0  0  0
 10  3  1  0  0  0  0
 11 10  1  0  0  0  0
 13  6  1  0  0  0  0
 13 23  1  0  0  0  0
 14 18  1  0  0  0  0
 14  2  1  0  0  0  0
 15 18  2  0  0  0  0
 16 14  2  0  0  0  0
 17 19  2  0  0  0  0
 17 16  1  0  0  0  0
 19 15  1  0  0  0  0
 20 22  1  0  0  0  0
 20 19  1  0  0  0  0
 21 20  2  0  0  0  0
 23 24  1  0  0  0  0
 24 25  1  0  0  0  0
M  END
>  <MODEL>
3

>  <REMARK>
 VINA RESULT:      -8.1      2.489      3.707
  Name = 
  4 active torsions:
  status: ('A' for Active; 'I' for Inactive)
    1  A    between atoms: C_2  and  C_25
    2  A    between atoms: C_3  and  C_6
    3  A    between atoms: C_13  and  C_14
    4  A    between atoms: C_14  and  C_24
                            x       y       z     vdW  Elec       q    Type
                         _______ _______ _______ _____ _____    ______ ____

>  <TORSDO>
F 4

$$$$
=
 OpenBabel10262419583D

 25 28  0  0  1  0  0  0  0  0999 V2000
  186.6260  178.4570  140.3940 N   0  0  0  0  0  0  0  0  0  0  0  0
  186.6070  178.2220  141.8140 C   0  0  0  0  0  0  0  0  0  0  0  0
  184.2290  179.0120  140.4170 C   0  0  0  0  0  3  0  0  0  0  0  0
  187.5280  177.8760  139.4100 C   0  0  1  0  0  3  0  0  0  0  0  0
  188.7010  178.4280  136.8280 C   0  0  0  0  0  3  0  0  0  0  0  0
  184.2240  178.8640  141.7440 C   0  0  0  0  0  3  0  0  0  0  0  0
  186.7330  178.0560  138.1420 C   0  0  2  0  0  3  0  0  0  0  0  0
  187.4050  178.0890  136.8420 C   0  0  0  0  0  3  0  0  0  0  0  0
  189.4030  178.8070  138.0830 C   0  0  0  0  0  3  0  0  0  0  0  0
  185.4500  178.7840  139.7200 N   0  0  0  0  0  0  0  0  0  0  0  0
  185.5630  178.5680  138.3480 N   0  0  0  0  0  2  0  0  0  0  0  0
  188.8370  178.6130  139.2860 C   0  0  0  0  0  3  0  0  0  0  0  0
  185.4450  178.4450  142.4790 C   0  0  0  0  0  0  0  0  0  0  0  0
  187.8310  177.7660  142.5070 C   0  0  0  0  0  0  0  0  0  0  0  0
  190.0170  178.2330  143.4550 C   0  0  0  0  0  3  0  0  0  0  0  0
  187.9670  176.4240  142.8820 C   0  0  0  0  0  3  0  0  0  0  0  0
  189.1210  175.9880  143.5380 C   0  0  0  0  0  3  0  0  0  0  0  0
  188.8630  178.6690  142.7980 C   0  0  0  0  0  3  0  0  0  0  0  0
  190.1540  176.8890  143.8290 C   0  0  0  0  0  0  0  0  0  0  0  0
  191.3700  176.4290  144.5220 C   0  0  0  0  0  0  0  0  0  0  0  0
  192.0650  175.4970  144.0370 O   0  0  0  0  0  0  0  0  0  0  0  0
  191.7740  177.0320  145.7480 N   0  0  0  0  0  1  0  0  0  0  0  0
  185.3390  178.3100  143.9700 C   0  0  0  0  0  2  0  0  0  0  0  0
  184.5630  179.4720  144.5740 C   0  0  0  0  0  2  0  0  0  0  0  0
  183.2040  179.0090  145.0650 C   0  0  0  0  0  1  0  0  0  0  0  0
  1  2  1  0  0  0  0
  2 13  2  0  0  0  0
  2 14  1  0  0  0  0
  3  6  2  0  0  0  0
  4 12  1  6  0  0  0
  4  1  1  0  0  0  0
  5  8  2  0  0  0  0
  5  9  1  0  0  0  0
  6 13  1  0  0  0  0
  7  8  1  6  0  0  0
  7 11  1  0  0  0  0
  7  4  1  0  0  0  0
  9 12  2  0  0  0  0
 10  1  1  0  0  0  0
 10  3  1  0  0  0  0
 11 10  1  0  0  0  0
 13 23  1  0  0  0  0
 14 18  2  0  0  0  0
 14 16  1  0  0  0  0
 15 19  2  0  0  0  0
 16 17  2  0  0  0  0
 17 19  1  0  0  0  0
 18 15  1  0  0  0  0
 19 20  1  0  0  0  0
 20 22  1  0  0  0  0
 21 20  2  0  0  0  0
 23 24  1  0  0  0  0
 24 25  1  0  0  0  0
M  END
>  <MODEL>
4

>  <REMARK>
 VINA RESULT:      -7.7      3.509      6.342
  Name = 
  4 active torsions:
  status: ('A' for Active; 'I' for Inactive)
    1  A    between atoms: C_2  and  C_25
    2  A    between atoms: C_3  and  C_6
    3  A    between atoms: C_13  and  C_14
    4  A    between atoms: C_14  and  C_24
                            x       y       z     vdW  Elec       q    Type
                         _______ _______ _______ _____ _____    ______ ____

>  <TORSDO>
F 4

$$$$
=
 OpenBabel10262419583D

 25 28  0  0  1  0  0  0  0  0999 V2000
  189.5450  177.6370  139.9580 N   0  0  0  0  0  0  0  0  0  0  0  0
  188.6570  177.8730  141.0670 C   0  0  0  0  0  0  0  0  0  0  0  0
  187.7390  178.1280  138.3610 C   0  0  0  0  0  3  0  0  0  0  0  0
  190.7250  176.7840  139.9320 C   0  0  1  0  0  3  0  0  0  0  0  0
  193.2610  176.4930  138.5790 C   0  0  0  0  0  3  0  0  0  0  0  0
  186.9330  178.4160  139.3860 C   0  0  0  0  0  3  0  0  0  0  0  0
  190.8700  176.5320  138.4530 C   0  0  2  0  0  3  0  0  0  0  0  0
  192.1660  176.1550  137.8870 C   0  0  0  0  0  3  0  0  0  0  0  0
  193.1540  177.2690  139.8430 C   0  0  0  0  0  3  0  0  0  0  0  0
  189.0690  177.7080  138.6500 N   0  0  0  0  0  0  0  0  0  0  0  0
  189.9190  177.0630  137.7550 N   0  0  0  0  0  2  0  0  0  0  0  0
  191.9690  177.4650  140.4450 C   0  0  0  0  0  3  0  0  0  0  0  0
  187.3910  178.2780  140.7930 C   0  0  0  0  0  0  0  0  0  0  0  0
  189.1360  177.6860  142.4540 C   0  0  0  0  0  0  0  0  0  0  0  0
  190.4290  178.4530  144.3600 C   0  0  0  0  0  3  0  0  0  0  0  0
  188.7450  176.5580  143.1850 C   0  0  0  0  0  3  0  0  0  0  0  0
  189.1940  176.3780  144.4960 C   0  0  0  0  0  3  0  0  0  0  0  0
  189.9800  178.6340  143.0490 C   0  0  0  0  0  3  0  0  0  0  0  0
  190.0390  177.3230  145.0930 C   0  0  0  0  0  0  0  0  0  0  0  0
  190.5110  177.1330  146.4760 C   0  0  0  0  0  0  0  0  0  0  0  0
  189.7260  177.3050  147.4460 O   0  0  0  0  0  0  0  0  0  0  0  0
  191.8600  176.7530  146.7320 N   0  0  0  0  0  1  0  0  0  0  0  0
  186.4130  178.6310  141.8740 C   0  0  0  0  0  2  0  0  0  0  0  0
  185.0570  179.0030  141.2900 C   0  0  0  0  0  2  0  0  0  0  0  0
  183.9410  178.6110  142.2400 C   0  0  0  0  0  1  0  0  0  0  0  0
  1  2  1  0  0  0  0
  2 14  1  0  0  0  0
  3 10  1  0  0  0  0
  3  6  2  0  0  0  0
  4  1  1  0  0  0  0
  4 12  1  6  0  0  0
  5  9  1  0  0  0  0
  6 13  1  0  0  0  0
  7  8  1  6  0  0  0
  7  4  1  0  0  0  0
  8  5  2  0  0  0  0
  9 12  2  0  0  0  0
 10  1  1  0  0  0  0
 11  7  1  0  0  0  0
 11 10  1  0  0  0  0
 13  2  2  0  0  0  0
 13 23  1  0  0  0  0
 14 18  2  0  0  0  0
 14 16  1  0  0  0  0
 15 19  2  0  0  0  0
 16 17  2  0  0  0  0
 17 19  1  0  0  0  0
 18 15  1  0  0  0  0
 19 20  1  0  0  0  0
 20 22  1  0  0  0  0
 20 21  2  0  0  0  0
 24 23  1  0  0  0  0
 24 25  1  0  0  0  0
M  END
>  <MODEL>
5

>  <REMARK>
 VINA RESULT:      -7.7      3.211      7.598
  Name = 
  4 active torsions:
  status: ('A' for Active; 'I' for Inactive)
    1  A    between atoms: C_2  and  C_25
    2  A    between atoms: C_3  and  C_6
    3  A    between atoms: C_13  and  C_14
    4  A    between atoms: C_14  and  C_24
                            x       y       z     vdW  Elec       q    Type
                         _______ _______ _______ _____ _____    ______ ____

>  <TORSDO>
F 4

$$$$
=
 OpenBabel10262419583D

 25 28  0  0  1  0  0  0  0  0999 V2000
  187.1350  177.8800  145.4730 N   0  0  0  0  0  0  0  0  0  0  0  0
  186.5940  177.9810  144.1430 C   0  0  0  0  0  0  0  0  0  0  0  0
  184.9340  178.3880  146.4460 C   0  0  0  0  0  3  0  0  0  0  0  0
  188.5120  178.1080  145.8910 C   0  0  1  0  0  3  0  0  0  0  0  0
  190.4000  177.3330  147.9350 C   0  0  0  0  0  3  0  0  0  0  0  0
  184.4130  178.4120  145.2170 C   0  0  0  0  0  3  0  0  0  0  0  0
  188.3280  178.3870  147.3610 C   0  0  2  0  0  3  0  0  0  0  0  0
  189.4320  178.1840  148.3000 C   0  0  0  0  0  3  0  0  0  0  0  0
  190.3170  176.5880  146.6510 C   0  0  0  0  0  3  0  0  0  0  0  0
  186.3290  178.1380  146.5800 N   0  0  0  0  0  0  0  0  0  0  0  0
  187.0860  178.4000  147.7210 N   0  0  0  0  0  2  0  0  0  0  0  0
  189.3980  176.9000  145.7210 C   0  0  0  0  0  3  0  0  0  0  0  0
  185.2630  178.2130  144.0140 C   0  0  0  0  0  0  0  0  0  0  0  0
  187.4780  177.8180  142.9680 C   0  0  0  0  0  0  0  0  0  0  0  0
  189.1530  176.5530  141.7480 C   0  0  0  0  0  3  0  0  0  0  0  0
  187.4750  178.7780  141.9490 C   0  0  0  0  0  3  0  0  0  0  0  0
  188.3070  178.6280  140.8370 C   0  0  0  0  0  3  0  0  0  0  0  0
  188.3210  176.7030  142.8610 C   0  0  0  0  0  3  0  0  0  0  0  0
  189.1520  177.5150  140.7280 C   0  0  0  0  0  0  0  0  0  0  0  0
  190.0280  177.3570  139.5540 C   0  0  0  0  0  0  0  0  0  0  0  0
  189.5990  177.6220  138.3990 O   0  0  0  0  0  0  0  0  0  0  0  0
  191.3690  176.9030  139.7110 N   0  0  0  0  0  1  0  0  0  0  0  0
  184.5840  178.2530  142.6770 C   0  0  0  0  0  2  0  0  0  0  0  0
  183.1270  178.6720  142.8110 C   0  0  0  0  0  2  0  0  0  0  0  0
  182.4330  178.6280  141.4630 C   0  0  0  0  0  1  0  0  0  0  0  0
  1  4  1  0  0  0  0
  1 10  1  0  0  0  0
  2  1  1  0  0  0  0
  3 10  1  0  0  0  0
  4 12  1  1  0  0  0
  4  7  1  0  0  0  0
  5  8  2  0  0  0  0
  6  3  2  0  0  0  0
  7 11  1  0  0  0  0
  7  8  1  1  0  0  0
  9  5  1  0  0  0  0
 10 11  1  0  0  0  0
 12  9  2  0  0  0  0
 13  2  2  0  0  0  0
 13  6  1  0  0  0  0
 14  2  1  0  0  0  0
 15 18  2  0  0  0  0
 16 14  2  0  0  0  0
 17 16  1  0  0  0  0
 18 14  1  0  0  0  0
 19 17  2  0  0  0  0
 19 15  1  0  0  0  0
 20 22  1  0  0  0  0
 20 19  1  0  0  0  0
 21 20  2  0  0  0  0
 23 24  1  0  0  0  0
 23 13  1  0  0  0  0
 25 24  1  0  0  0  0
M  END
>  <MODEL>
6

>  <REMARK>
 VINA RESULT:      -7.5      1.442      4.891
  Name = 
  4 active torsions:
  status: ('A' for Active; 'I' for Inactive)
    1  A    between atoms: C_2  and  C_25
    2  A    between atoms: C_3  and  C_6
    3  A    between atoms: C_13  and  C_14
    4  A    between atoms: C_14  and  C_24
                            x       y       z     vdW  Elec       q    Type
                         _______ _______ _______ _____ _____    ______ ____

>  <TORSDO>
F 4

$$$$
=
 OpenBabel10262419583D

 25 28  0  0  1  0  0  0  0  0999 V2000
  186.8070  178.2590  145.4180 N   0  0  0  0  0  0  0  0  0  0  0  0
  188.1340  177.7850  145.1200 C   0  0  0  0  0  0  0  0  0  0  0  0
  187.2910  178.2070  147.8290 C   0  0  0  0  0  3  0  0  0  0  0  0
  185.6030  178.0910  144.6150 C   0  0  1  0  0  3  0  0  0  0  0  0
  183.0550  179.3460  144.0910 C   0  0  0  0  0  3  0  0  0  0  0  0
  188.5430  177.8360  147.5540 C   0  0  0  0  0  3  0  0  0  0  0  0
  184.5300  178.2910  145.6540 C   0  0  2  0  0  3  0  0  0  0  0  0
  183.1830  178.7080  145.2610 C   0  0  0  0  0  3  0  0  0  0  0  0
  184.2470  179.6610  143.2590 C   0  0  0  0  0  3  0  0  0  0  0  0
  186.3940  178.4040  146.7400 N   0  0  0  0  0  0  0  0  0  0  0  0
  185.0060  178.4620  146.8450 N   0  0  0  0  0  2  0  0  0  0  0  0
  185.4510  179.1320  143.5350 C   0  0  0  0  0  3  0  0  0  0  0  0
  188.9910  177.6030  146.1560 C   0  0  0  0  0  0  0  0  0  0  0  0
  188.5320  177.5240  143.7190 C   0  0  0  0  0  0  0  0  0  0  0  0
  189.1890  175.9790  141.9660 C   0  0  0  0  0  3  0  0  0  0  0  0
  188.6260  178.5830  142.8080 C   0  0  0  0  0  3  0  0  0  0  0  0
  189.0000  178.3420  141.4840 C   0  0  0  0  0  3  0  0  0  0  0  0
  188.8140  176.2200  143.2900 C   0  0  0  0  0  3  0  0  0  0  0  0
  189.2840  177.0390  141.0530 C   0  0  0  0  0  0  0  0  0  0  0  0
  189.6780  176.7860  139.6560 C   0  0  0  0  0  0  0  0  0  0  0  0
  190.6710  176.0550  139.3970 O   0  0  0  0  0  0  0  0  0  0  0  0
  188.9410  177.3650  138.5820 N   0  0  0  0  0  1  0  0  0  0  0  0
  190.4190  177.1920  145.9500 C   0  0  0  0  0  2  0  0  0  0  0  0
  191.2430  178.3330  145.3710 C   0  0  0  0  0  2  0  0  0  0  0  0
  191.9190  177.9050  144.0830 C   0  0  0  0  0  1  0  0  0  0  0  0
  1 10  1  0  0  0  0
  2  1  1  0  0  0  0
  2 13  2  0  0  0  0
  4 12  1  6  0  0  0
  4  1  1  0  0  0  0
  4  7  1  0  0  0  0
  5  8  2  0  0  0  0
  6  3  2  0  0  0  0
  7  8  1  6  0  0  0
  7 11  1  0  0  0  0
  9 12  2  0  0  0  0
  9  5  1  0  0  0  0
 10 11  1  0  0  0  0
 10  3  1  0  0  0  0
 13  6  1  0  0  0  0
 14  2  1  0  0  0  0
 15 18  2  0  0  0  0
 16 14  2  0  0  0  0
 17 16  1  0  0  0  0
 18 14  1  0  0  0  0
 19 17  2  0  0  0  0
 19 15  1  0  0  0  0
 20 19  1  0  0  0  0
 21 20  2  0  0  0  0
 22 20  1  0  0  0  0
 23 13  1  0  0  0  0
 24 23  1  0  0  0  0
 25 24  1  0  0  0  0
M  END
>  <MODEL>
7

>  <REMARK>
 VINA RESULT:      -7.4      1.302      1.518
  Name = 
  4 active torsions:
  status: ('A' for Active; 'I' for Inactive)
    1  A    between atoms: C_2  and  C_25
    2  A    between atoms: C_3  and  C_6
    3  A    between atoms: C_13  and  C_14
    4  A    between atoms: C_14  and  C_24
                            x       y       z     vdW  Elec       q    Type
                         _______ _______ _______ _____ _____    ______ ____

>  <TORSDO>
F 4

$$$$
=
 OpenBabel10262419583D

 25 28  0  0  1  0  0  0  0  0999 V2000
  187.9230  177.9320  141.2170 N   0  0  0  0  0  0  0  0  0  0  0  0
  189.3190  177.5830  141.2850 C   0  0  0  0  0  0  0  0  0  0  0  0
  188.0850  178.2550  138.7840 C   0  0  0  0  0  3  0  0  0  0  0  0
  187.1010  178.5120  142.2700 C   0  0  1  0  0  3  0  0  0  0  0  0
  184.3560  178.6570  143.1600 C   0  0  0  0  0  3  0  0  0  0  0  0
  189.3610  177.8630  138.8330 C   0  0  0  0  0  3  0  0  0  0  0  0
  185.9830  179.1210  141.4650 C   0  0  2  0  0  3  0  0  0  0  0  0
  184.6790  179.3780  142.0780 C   0  0  0  0  0  3  0  0  0  0  0  0
  185.2720  177.6030  143.6750 C   0  0  0  0  0  3  0  0  0  0  0  0
  187.3530  178.3120  140.0040 N   0  0  0  0  0  0  0  0  0  0  0  0
  186.1530  178.9960  140.1880 N   0  0  0  0  0  2  0  0  0  0  0  0
  186.5310  177.4880  143.2190 C   0  0  0  0  0  3  0  0  0  0  0  0
  190.0160  177.5220  140.1230 C   0  0  0  0  0  0  0  0  0  0  0  0
  189.9470  177.2900  142.5910 C   0  0  0  0  0  0  0  0  0  0  0  0
  190.7510  175.6930  144.2340 C   0  0  0  0  0  3  0  0  0  0  0  0
  190.3440  178.3370  143.4300 C   0  0  0  0  0  3  0  0  0  0  0  0
  190.9400  178.0650  144.6650 C   0  0  0  0  0  3  0  0  0  0  0  0
  190.1550  175.9650  143.0000 C   0  0  0  0  0  3  0  0  0  0  0  0
  191.1480  176.7420  145.0760 C   0  0  0  0  0  0  0  0  0  0  0  0
  191.7770  176.4560  146.3770 C   0  0  0  0  0  0  0  0  0  0  0  0
  191.6690  177.2740  147.3300 O   0  0  0  0  0  0  0  0  0  0  0  0
  192.5140  175.2530  146.5730 N   0  0  0  0  0  1  0  0  0  0  0  0
  191.4510  177.0880  140.0730 C   0  0  0  0  0  2  0  0  0  0  0  0
  191.7660  176.3750  138.7660 C   0  0  0  0  0  2  0  0  0  0  0  0
  193.1670  176.7170  138.2940 C   0  0  0  0  0  1  0  0  0  0  0  0
  1  2  1  0  0  0  0
  1  4  1  0  0  0  0
  2 14  1  0  0  0  0
  3  6  2  0  0  0  0
  3 10  1  0  0  0  0
  4 12  1  1  0  0  0
  5  9  1  0  0  0  0
  6 13  1  0  0  0  0
  7  8  1  1  0  0  0
  7  4  1  0  0  0  0
  8  5  2  0  0  0  0
 10 11  1  0  0  0  0
 10  1  1  0  0  0  0
 11  7  1  0  0  0  0
 12  9  2  0  0  0  0
 13  2  2  0  0  0  0
 14 18  2  0  0  0  0
 14 16  1  0  0  0  0
 15 19  2  0  0  0  0
 16 17  2  0  0  0  0
 17 19  1  0  0  0  0
 18 15  1  0  0  0  0
 19 20  1  0  0  0  0
 20 22  1  0  0  0  0
 20 21  2  0  0  0  0
 23 13  1  0  0  0  0
 24 23  1  0  0  0  0
 25 24  1  0  0  0  0
M  END
>  <MODEL>
8

>  <REMARK>
 VINA RESULT:      -7.4      3.302      5.674
  Name = 
  4 active torsions:
  status: ('A' for Active; 'I' for Inactive)
    1  A    between atoms: C_2  and  C_25
    2  A    between atoms: C_3  and  C_6
    3  A    between atoms: C_13  and  C_14
    4  A    between atoms: C_14  and  C_24
                            x       y       z     vdW  Elec       q    Type
                         _______ _______ _______ _____ _____    ______ ____

>  <TORSDO>
F 4

$$$$
=
 OpenBabel10262419583D

 25 28  0  0  1  0  0  0  0  0999 V2000
  189.6950  177.5090  142.5530 N   0  0  0  0  0  0  0  0  0  0  0  0
  188.5480  177.8170  141.7390 C   0  0  0  0  0  0  0  0  0  0  0  0
  191.0730  177.1590  140.5450 C   0  0  0  0  0  3  0  0  0  0  0  0
  189.7040  176.9630  143.9040 C   0  0  1  0  0  3  0  0  0  0  0  0
  191.3200  176.9070  146.2980 C   0  0  0  0  0  3  0  0  0  0  0  0
  190.0310  177.5140  139.7880 C   0  0  0  0  0  3  0  0  0  0  0  0
  191.0910  176.3790  143.9720 C   0  0  2  0  0  3  0  0  0  0  0  0
  191.7450  176.1670  145.2650 C   0  0  0  0  0  3  0  0  0  0  0  0
  190.2630  177.9380  146.1130 C   0  0  0  0  0  3  0  0  0  0  0  0
  190.8980  177.1340  141.9580 N   0  0  0  0  0  0  0  0  0  0  0  0
  191.7410  176.4870  142.8590 N   0  0  0  0  0  2  0  0  0  0  0  0
  189.5510  178.0110  144.9760 C   0  0  0  0  0  3  0  0  0  0  0  0
  188.7150  177.8470  140.3920 C   0  0  0  0  0  0  0  0  0  0  0  0
  187.2430  178.1040  142.3730 C   0  0  0  0  0  0  0  0  0  0  0  0
  185.6240  177.7100  144.1390 C   0  0  0  0  0  3  0  0  0  0  0  0
  186.3820  179.0530  141.8090 C   0  0  0  0  0  3  0  0  0  0  0  0
  185.1490  179.3280  142.4050 C   0  0  0  0  0  3  0  0  0  0  0  0
  186.8580  177.4340  143.5430 C   0  0  0  0  0  3  0  0  0  0  0  0
  184.7610  178.6590  143.5730 C   0  0  0  0  0  0  0  0  0  0  0  0
  183.4610  178.9510  144.2020 C   0  0  0  0  0  0  0  0  0  0  0  0
  183.3790  179.1200  145.4470 O   0  0  0  0  0  0  0  0  0  0  0  0
  182.2800  179.0440  143.4080 N   0  0  0  0  0  1  0  0  0  0  0  0
  187.6080  178.2380  139.4580 C   0  0  0  0  0  2  0  0  0  0  0  0
  187.7530  177.5450  138.1110 C   0  0  0  0  0  2  0  0  0  0  0  0
  187.7290  178.5600  136.9830 C   0  0  0  0  0  1  0  0  0  0  0  0
  1  4  1  0  0  0  0
  2 14  1  0  0  0  0
  2  1  1  0  0  0  0
  3 10  1  0  0  0  0
  4  7  1  0  0  0  0
  4 12  1  1  0  0  0
  6 13  1  0  0  0  0
  6  3  2  0  0  0  0
  7  8  1  1  0  0  0
  8  5  2  0  0  0  0
  9  5  1  0  0  0  0
 10  1  1  0  0  0  0
 10 11  1  0  0  0  0
 11  7  1  0  0  0  0
 12  9  2  0  0  0  0
 13  2  2  0  0  0  0
 14 18  1  0  0  0  0
 16 14  2  0  0  0  0
 16 17  1  0  0  0  0
 17 19  2  0  0  0  0
 18 15  2  0  0  0  0
 19 15  1  0  0  0  0
 19 20  1  0  0  0  0
 20 21  2  0  0  0  0
 22 20  1  0  0  0  0
 23 13  1  0  0  0  0
 24 23  1  0  0  0  0
 25 24  1  0  0  0  0
M  END
>  <MODEL>
9

>  <REMARK>
 VINA RESULT:      -7.2      3.015      7.171
  Name = 
  4 active torsions:
  status: ('A' for Active; 'I' for Inactive)
    1  A    between atoms: C_2  and  C_25
    2  A    between atoms: C_3  and  C_6
    3  A    between atoms: C_13  and  C_14
    4  A    between atoms: C_14  and  C_24
                            x       y       z     vdW  Elec       q    Type
                         _______ _______ _______ _____ _____    ______ ____

>  <TORSDO>
F 4

$$$$
