=
 OpenBabel10262420023D

 27 30  0  0  1  0  0  0  0  0999 V2000
  182.8570  180.2190  138.3520 C   0  0  0  0  0  2  0  0  0  0  0  0
  184.0100  178.9890  140.3190 C   0  0  0  0  0  0  0  0  0  0  0  0
  181.6510  178.9970  140.9800 N   0  0  0  0  0  2  0  0  0  0  0  0
  185.3340  178.8190  144.2830 C   0  0  0  0  0  3  0  0  0  0  0  0
  184.8950  178.7050  146.6510 O   0  0  0  0  0  1  0  0  0  0  0  0
  185.3660  178.9720  140.6520 C   0  0  0  0  0  3  0  0  0  0  0  0
  182.5880  178.8300  143.7790 C   0  0  0  0  0  3  0  0  0  0  0  0
  179.7360  181.2530  140.6980 C   0  0  0  0  0  2  0  0  0  0  0  0
  183.0570  178.7680  145.0930 C   0  0  0  0  0  3  0  0  0  0  0  0
  178.9310  181.7490  139.5030 C   0  0  0  0  0  2  0  0  0  0  0  0
  183.0410  178.9520  141.3490 C   0  0  0  0  0  0  0  0  0  0  0  0
  183.6740  179.0160  138.8510 C   0  0  1  0  0  3  0  0  0  0  0  0
  184.4300  178.7640  145.3450 C   0  0  0  0  0  0  0  0  0  0  0  0
  184.8690  178.8800  142.9650 C   0  0  0  0  0  0  0  0  0  0  0  0
  181.4340  179.9280  138.3380 N   0  0  0  0  0  2  0  0  0  0  0  0
  183.4790  178.8920  142.6960 C   0  0  0  0  0  0  0  0  0  0  0  0
  179.3720  179.8220  141.0610 C   0  0  0  0  0  2  0  0  0  0  0  0
  185.7630  178.9220  141.9470 N   0  0  0  0  0  0  0  0  0  0  0  0
  179.2690  181.0080  138.2110 C   0  0  0  0  0  2  0  0  0  0  0  0
  180.7460  181.1150  137.8630 C   0  0  0  0  0  2  0  0  0  0  0  0
  180.5070  179.2050  141.8560 C   0  0  0  0  0  2  0  0  0  0  0  0
  183.8960  174.7830  137.7890 C   0  0  0  0  0  2  0  0  0  0  0  0
  183.4130  177.6430  138.2170 C   0  0  0  0  0  3  0  0  0  0  0  0
  183.0490  176.6050  139.2820 C   0  0  0  0  0  2  0  0  0  0  0  0
  182.7170  175.2680  138.6260 C   0  0  0  0  0  2  0  0  0  0  0  0
  184.2330  175.8120  136.7130 C   0  0  0  0  0  2  0  0  0  0  0  0
  184.5780  177.1510  137.3550 C   0  0  0  0  0  2  0  0  0  0  0  0
  1 12  1  0  0  0  0
  2  6  2  0  0  0  0
  2 11  1  0  0  0  0
  3 11  1  0  0  0  0
  3 21  1  0  0  0  0
  4 13  2  0  0  0  0
  6 18  1  0  0  0  0
  7  9  2  0  0  0  0
  8 17  1  0  0  0  0
  9 13  1  0  0  0  0
 10  8  1  0  0  0  0
 11 16  2  0  0  0  0
 12 23  1  1  0  0  0
 12  2  1  0  0  0  0
 13  5  1  0  0  0  0
 14  4  1  0  0  0  0
 15  1  1  0  0  0  0
 16 14  1  0  0  0  0
 16  7  1  0  0  0  0
 17 21  1  0  0  0  0
 18 14  2  0  0  0  0
 19 10  1  0  0  0  0
 20 19  1  0  0  0  0
 20 15  1  0  0  0  0
 22 25  1  0  0  0  0
 23 24  1  0  0  0  0
 25 24  1  0  0  0  0
 26 27  1  0  0  0  0
 26 22  1  0  0  0  0
 27 23  1  0  0  0  0
M  END
>  <MODEL>
1

>  <REMARK>
 VINA RESULT:      -7.3      0.000      0.000
  Name = 
  1 active torsions:
  status: ('A' for Active; 'I' for Inactive)
    1  A    between atoms: C_9  and  C_15
                            x       y       z     vdW  Elec       q    Type
                         _______ _______ _______ _____ _____    ______ ____

>  <TORSDO>
F 1

$$$$
=
 OpenBabel10262420023D

 27 30  0  0  1  0  0  0  0  0999 V2000
  191.8790  177.3540  138.9050 C   0  0  0  0  0  2  0  0  0  0  0  0
  189.2890  177.4020  138.9500 C   0  0  0  0  0  0  0  0  0  0  0  0
  189.7830  175.1980  138.0020 N   0  0  0  0  0  2  0  0  0  0  0  0
  185.5790  177.6240  137.0330 C   0  0  0  0  0  3  0  0  0  0  0  0
  183.8790  176.6750  135.6110 O   0  0  0  0  0  1  0  0  0  0  0  0
  188.4470  178.5080  139.0810 C   0  0  0  0  0  3  0  0  0  0  0  0
  187.1410  175.3360  136.6850 C   0  0  0  0  0  3  0  0  0  0  0  0
  191.8750  174.5600  135.9890 C   0  0  0  0  0  2  0  0  0  0  0  0
  185.8950  175.4330  136.0610 C   0  0  0  0  0  3  0  0  0  0  0  0
  193.3750  174.3300  136.1300 C   0  0  0  0  0  2  0  0  0  0  0  0
  188.8870  176.3140  138.1410 C   0  0  0  0  0  0  0  0  0  0  0  0
  190.5810  177.4400  139.7250 C   0  0  1  0  0  3  0  0  0  0  0  0
  185.1150  176.5780  136.2330 C   0  0  0  0  0  0  0  0  0  0  0  0
  186.8250  177.5310  137.6610 C   0  0  0  0  0  0  0  0  0  0  0  0
  192.3580  175.9860  138.8070 N   0  0  0  0  0  2  0  0  0  0  0  0
  187.6290  176.3780  137.4880 C   0  0  0  0  0  0  0  0  0  0  0  0
  191.0760  173.5430  136.7900 C   0  0  0  0  0  2  0  0  0  0  0  0
  187.2530  178.5520  138.4430 N   0  0  0  0  0  0  0  0  0  0  0  0
  193.8830  174.5860  137.5480 C   0  0  0  0  0  2  0  0  0  0  0  0
  193.5750  176.0010  138.0150 C   0  0  0  0  0  2  0  0  0  0  0  0
  189.6890  174.0960  137.0560 C   0  0  0  0  0  2  0  0  0  0  0  0
  190.1470  176.6540  144.0020 C   0  0  0  0  0  2  0  0  0  0  0  0
  190.5370  176.7550  141.0970 C   0  0  0  0  0  3  0  0  0  0  0  0
  189.1420  176.8510  141.7170 C   0  0  0  0  0  2  0  0  0  0  0  0
  189.0980  176.0970  143.0430 C   0  0  0  0  0  2  0  0  0  0  0  0
  191.5380  176.5290  143.3860 C   0  0  0  0  0  2  0  0  0  0  0  0
  191.5980  177.2860  142.0640 C   0  0  0  0  0  2  0  0  0  0  0  0
  1 12  1  0  0  0  0
  2  6  1  0  0  0  0
  2 12  1  0  0  0  0
  3 11  1  0  0  0  0
  4 14  1  0  0  0  0
  5 13  1  0  0  0  0
  7 16  1  0  0  0  0
  8 10  1  0  0  0  0
  8 17  1  0  0  0  0
  9 13  1  0  0  0  0
  9  7  2  0  0  0  0
 10 19  1  0  0  0  0
 11  2  2  0  0  0  0
 12 23  1  1  0  0  0
 13  4  2  0  0  0  0
 14 18  1  0  0  0  0
 15  1  1  0  0  0  0
 16 14  2  0  0  0  0
 16 11  1  0  0  0  0
 17 21  1  0  0  0  0
 18  6  2  0  0  0  0
 19 20  1  0  0  0  0
 20 15  1  0  0  0  0
 21  3  1  0  0  0  0
 23 24  1  0  0  0  0
 23 27  1  0  0  0  0
 24 25  1  0  0  0  0
 25 22  1  0  0  0  0
 26 22  1  0  0  0  0
 27 26  1  0  0  0  0
M  END
>  <MODEL>
2

>  <REMARK>
 VINA RESULT:      -7.0      6.113      9.985
  Name = 
  1 active torsions:
  status: ('A' for Active; 'I' for Inactive)
    1  A    between atoms: C_9  and  C_15
                            x       y       z     vdW  Elec       q    Type
                         _______ _______ _______ _____ _____    ______ ____

>  <TORSDO>
F 1

$$$$
=
 OpenBabel10262420023D

 27 30  0  0  1  0  0  0  0  0999 V2000
  181.8830  177.4770  137.2250 C   0  0  0  0  0  2  0  0  0  0  0  0
  182.2740  178.6520  139.5010 C   0  0  0  0  0  0  0  0  0  0  0  0
  184.5260  178.5430  138.5420 N   0  0  0  0  0  2  0  0  0  0  0  0
  183.7220  178.6850  143.4250 C   0  0  0  0  0  3  0  0  0  0  0  0
  185.5470  178.6800  145.0000 O   0  0  0  0  0  1  0  0  0  0  0  0
  181.4250  178.6950  140.6080 C   0  0  0  0  0  3  0  0  0  0  0  0
  185.5490  178.6140  141.3150 C   0  0  0  0  0  3  0  0  0  0  0  0
  185.7280  176.2460  137.0890 C   0  0  0  0  0  2  0  0  0  0  0  0
  186.0060  178.6310  142.6340 C   0  0  0  0  0  3  0  0  0  0  0  0
  185.5860  175.7800  135.6450 C   0  0  0  0  0  2  0  0  0  0  0  0
  183.6740  178.6130  139.6990 C   0  0  0  0  0  0  0  0  0  0  0  0
  181.6190  178.6800  138.1450 C   0  0  1  0  0  3  0  0  0  0  0  0
  185.0930  178.6650  143.6890 C   0  0  0  0  0  0  0  0  0  0  0  0
  183.2600  178.6680  142.1050 C   0  0  0  0  0  0  0  0  0  0  0  0
  183.0000  177.7250  136.3290 N   0  0  0  0  0  2  0  0  0  0  0  0
  184.1760  178.6270  141.0260 C   0  0  0  0  0  0  0  0  0  0  0  0
  186.3110  177.6480  137.1680 C   0  0  0  0  0  2  0  0  0  0  0  0
  181.9250  178.6990  141.8680 N   0  0  0  0  0  0  0  0  0  0  0  0
  184.5540  176.5880  134.8590 C   0  0  0  0  0  2  0  0  0  0  0  0
  183.1790  176.5400  135.5090 C   0  0  0  0  0  2  0  0  0  0  0  0
  185.9540  178.2630  138.5080 C   0  0  0  0  0  2  0  0  0  0  0  0
  180.1350  182.5880  136.8680 C   0  0  0  0  0  2  0  0  0  0  0  0
  181.4980  180.0720  137.5090 C   0  0  0  0  0  3  0  0  0  0  0  0
  181.2660  181.1460  138.5740 C   0  0  0  0  0  2  0  0  0  0  0  0
  181.2270  182.5300  137.9320 C   0  0  0  0  0  2  0  0  0  0  0  0
  180.3910  181.5310  135.7960 C   0  0  0  0  0  2  0  0  0  0  0  0
  180.4220  180.1420  136.4240 C   0  0  0  0  0  2  0  0  0  0  0  0
  1 12  1  0  0  0  0
  2 11  2  0  0  0  0
  2  6  1  0  0  0  0
  3 11  1  0  0  0  0
  4 13  1  0  0  0  0
  6 18  2  0  0  0  0
  7  9  1  0  0  0  0
  8 17  1  0  0  0  0
  9 13  2  0  0  0  0
 10  8  1  0  0  0  0
 11 16  1  0  0  0  0
 12 23  1  6  0  0  0
 12  2  1  0  0  0  0
 13  5  1  0  0  0  0
 14  4  2  0  0  0  0
 15  1  1  0  0  0  0
 16  7  2  0  0  0  0
 16 14  1  0  0  0  0
 17 21  1  0  0  0  0
 18 14  1  0  0  0  0
 19 20  1  0  0  0  0
 19 10  1  0  0  0  0
 20 15  1  0  0  0  0
 21  3  1  0  0  0  0
 22 25  1  0  0  0  0
 23 24  1  0  0  0  0
 25 24  1  0  0  0  0
 26 27  1  0  0  0  0
 26 22  1  0  0  0  0
 27 23  1  0  0  0  0
M  END
>  <MODEL>
3

>  <REMARK>
 VINA RESULT:      -6.8      1.889      5.216
  Name = 
  1 active torsions:
  status: ('A' for Active; 'I' for Inactive)
    1  A    between atoms: C_9  and  C_15
                            x       y       z     vdW  Elec       q    Type
                         _______ _______ _______ _____ _____    ______ ____

>  <TORSDO>
F 1

$$$$
=
 OpenBabel10262420023D

 27 30  0  0  1  0  0  0  0  0999 V2000
  180.5640  178.2760  138.9430 C   0  0  0  0  0  2  0  0  0  0  0  0
  181.4620  179.1730  141.2020 C   0  0  0  0  0  0  0  0  0  0  0  0
  183.4870  179.0020  139.8330 N   0  0  0  0  0  2  0  0  0  0  0  0
  183.5860  178.6850  144.7720 C   0  0  0  0  0  3  0  0  0  0  0  0
  185.6550  178.3810  145.9710 O   0  0  0  0  0  1  0  0  0  0  0  0
  180.8320  179.1600  142.4480 C   0  0  0  0  0  3  0  0  0  0  0  0
  184.9920  178.7040  142.3600 C   0  0  0  0  0  3  0  0  0  0  0  0
  184.1940  176.7900  137.9790 C   0  0  0  0  0  2  0  0  0  0  0  0
  185.6760  178.5490  143.5670 C   0  0  0  0  0  3  0  0  0  0  0  0
  183.7540  176.4900  136.5510 C   0  0  0  0  0  2  0  0  0  0  0  0
  182.8650  179.0120  141.1310 C   0  0  0  0  0  0  0  0  0  0  0  0
  180.5800  179.3920  140.0010 C   0  0  1  0  0  3  0  0  0  0  0  0
  184.9740  178.5370  144.7730 C   0  0  0  0  0  0  0  0  0  0  0  0
  182.8950  178.8420  143.5660 C   0  0  0  0  0  0  0  0  0  0  0  0
  181.5200  178.5360  137.8800 N   0  0  0  0  0  2  0  0  0  0  0  0
  183.5950  178.8480  142.3350 C   0  0  0  0  0  0  0  0  0  0  0  0
  184.9080  178.1290  138.0730 C   0  0  0  0  0  2  0  0  0  0  0  0
  181.5480  178.9950  143.5870 N   0  0  0  0  0  0  0  0  0  0  0  0
  182.6760  177.4500  136.0490 C   0  0  0  0  0  2  0  0  0  0  0  0
  181.4420  177.4340  136.9370 C   0  0  0  0  0  2  0  0  0  0  0  0
  184.8530  178.6230  139.5070 C   0  0  0  0  0  2  0  0  0  0  0  0
  179.8510  182.9780  137.6110 C   0  0  0  0  0  2  0  0  0  0  0  0
  180.4740  180.8480  139.5280 C   0  0  0  0  0  3  0  0  0  0  0  0
  179.0280  181.2140  139.1860 C   0  0  0  0  0  2  0  0  0  0  0  0
  178.9320  182.6860  138.7940 C   0  0  0  0  0  2  0  0  0  0  0  0
  181.2940  182.6350  137.9710 C   0  0  0  0  0  2  0  0  0  0  0  0
  181.4060  181.1640  138.3550 C   0  0  0  0  0  2  0  0  0  0  0  0
  1 12  1  0  0  0  0
  2  6  1  0  0  0  0
  3 11  1  0  0  0  0
  4 13  1  0  0  0  0
  6 18  2  0  0  0  0
  7  9  1  0  0  0  0
  8 17  1  0  0  0  0
  9 13  2  0  0  0  0
 10  8  1  0  0  0  0
 11  2  2  0  0  0  0
 11 16  1  0  0  0  0
 12 23  1  6  0  0  0
 12  2  1  0  0  0  0
 13  5  1  0  0  0  0
 14 18  1  0  0  0  0
 14  4  2  0  0  0  0
 15  1  1  0  0  0  0
 16  7  2  0  0  0  0
 16 14  1  0  0  0  0
 17 21  1  0  0  0  0
 19 10  1  0  0  0  0
 19 20  1  0  0  0  0
 20 15  1  0  0  0  0
 21  3  1  0  0  0  0
 22 26  1  0  0  0  0
 22 25  1  0  0  0  0
 24 23  1  0  0  0  0
 25 24  1  0  0  0  0
 26 27  1  0  0  0  0
 27 23  1  0  0  0  0
M  END
>  <MODEL>
4

>  <REMARK>
 VINA RESULT:      -6.6      1.450      4.785
  Name = 
  1 active torsions:
  status: ('A' for Active; 'I' for Inactive)
    1  A    between atoms: C_9  and  C_15
                            x       y       z     vdW  Elec       q    Type
                         _______ _______ _______ _____ _____    ______ ____

>  <TORSDO>
F 1

$$$$
=
 OpenBabel10262420023D

 27 30  0  0  1  0  0  0  0  0999 V2000
  184.8590  179.7510  143.0930 C   0  0  0  0  0  2  0  0  0  0  0  0
  186.2470  178.6820  141.1840 C   0  0  0  0  0  0  0  0  0  0  0  0
  186.7990  177.2820  143.1170 N   0  0  0  0  0  2  0  0  0  0  0  0
  189.8860  177.8660  139.2920 C   0  0  0  0  0  3  0  0  0  0  0  0
  192.0230  176.7520  139.2200 O   0  0  0  0  0  1  0  0  0  0  0  0
  186.5840  179.2350  139.9470 C   0  0  0  0  0  3  0  0  0  0  0  0
  189.3510  176.6700  141.7570 C   0  0  0  0  0  3  0  0  0  0  0  0
  187.3380  178.2140  145.8870 C   0  0  0  0  0  2  0  0  0  0  0  0
  190.5560  176.4100  141.1010 C   0  0  0  0  0  3  0  0  0  0  0  0
  186.3980  178.6110  147.0200 C   0  0  0  0  0  2  0  0  0  0  0  0
  187.1600  177.8180  141.8320 C   0  0  0  0  0  0  0  0  0  0  0  0
  184.8880  179.0340  141.7340 C   0  0  1  0  0  3  0  0  0  0  0  0
  190.8250  177.0090  139.8700 C   0  0  0  0  0  0  0  0  0  0  0  0
  188.6770  178.1290  139.9450 C   0  0  0  0  0  0  0  0  0  0  0  0
  184.6980  178.8110  144.1890 N   0  0  0  0  0  2  0  0  0  0  0  0
  188.3960  177.5330  141.1980 C   0  0  0  0  0  0  0  0  0  0  0  0
  187.1240  176.7690  145.4640 C   0  0  0  0  0  2  0  0  0  0  0  0
  187.7740  178.9550  139.3620 N   0  0  0  0  0  0  0  0  0  0  0  0
  184.9300  178.6280  146.5940 C   0  0  0  0  0  2  0  0  0  0  0  0
  184.6890  179.5720  145.4260 C   0  0  0  0  0  2  0  0  0  0  0  0
  187.6580  176.5770  144.0570 C   0  0  0  0  0  2  0  0  0  0  0  0
  181.4420  177.0190  139.9550 C   0  0  0  0  0  2  0  0  0  0  0  0
  183.7770  178.0240  141.4170 C   0  0  0  0  0  3  0  0  0  0  0  0
  183.8990  177.5020  139.9840 C   0  0  0  0  0  2  0  0  0  0  0  0
  182.8340  176.4430  139.7130 C   0  0  0  0  0  2  0  0  0  0  0  0
  181.3220  177.5120  141.3950 C   0  0  0  0  0  2  0  0  0  0  0  0
  182.3740  178.5790  141.6760 C   0  0  0  0  0  2  0  0  0  0  0  0
  1 15  1  0  0  0  0
  2 12  1  0  0  0  0
  2 11  1  0  0  0  0
  3 21  1  0  0  0  0
  4 13  2  0  0  0  0
  4 14  1  0  0  0  0
  5 13  1  0  0  0  0
  6  2  2  0  0  0  0
  8 10  1  0  0  0  0
  9  7  2  0  0  0  0
 11  3  1  0  0  0  0
 12 23  1  1  0  0  0
 12  1  1  0  0  0  0
 13  9  1  0  0  0  0
 14 16  1  0  0  0  0
 15 20  1  0  0  0  0
 16  7  1  0  0  0  0
 16 11  2  0  0  0  0
 17  8  1  0  0  0  0
 18 14  2  0  0  0  0
 18  6  1  0  0  0  0
 19 10  1  0  0  0  0
 20 19  1  0  0  0  0
 21 17  1  0  0  0  0
 22 26  1  0  0  0  0
 23 27  1  0  0  0  0
 24 23  1  0  0  0  0
 25 22  1  0  0  0  0
 25 24  1  0  0  0  0
 26 27  1  0  0  0  0
M  END
>  <MODEL>
5

>  <REMARK>
 VINA RESULT:      -6.0      3.561      6.692
  Name = 
  1 active torsions:
  status: ('A' for Active; 'I' for Inactive)
    1  A    between atoms: C_9  and  C_15
                            x       y       z     vdW  Elec       q    Type
                         _______ _______ _______ _____ _____    ______ ____

>  <TORSDO>
F 1

$$$$
=
 OpenBabel10262420023D

 27 30  0  0  1  0  0  0  0  0999 V2000
  181.8070  176.6300  139.8430 C   0  0  0  0  0  2  0  0  0  0  0  0
  183.8300  177.9410  138.8940 C   0  0  0  0  0  0  0  0  0  0  0  0
  183.0690  176.6320  136.9680 N   0  0  0  0  0  2  0  0  0  0  0  0
  187.7620  178.1230  137.4800 C   0  0  0  0  0  3  0  0  0  0  0  0
  189.4310  177.6180  135.8160 O   0  0  0  0  0  1  0  0  0  0  0  0
  184.8460  178.5910  139.5980 C   0  0  0  0  0  3  0  0  0  0  0  0
  185.8390  176.8010  135.9480 C   0  0  0  0  0  3  0  0  0  0  0  0
  182.1810  173.7960  136.9910 C   0  0  0  0  0  2  0  0  0  0  0  0
  187.1570  176.8810  135.4970 C   0  0  0  0  0  3  0  0  0  0  0  0
  180.8500  173.1580  137.3710 C   0  0  0  0  0  2  0  0  0  0  0  0
  184.1280  177.3160  137.6610 C   0  0  0  0  0  0  0  0  0  0  0  0
  182.4520  177.9840  139.5030 C   0  0  1  0  0  3  0  0  0  0  0  0
  188.1200  177.5400  136.2630 C   0  0  0  0  0  0  0  0  0  0  0  0
  186.4420  178.0460  137.9370 C   0  0  0  0  0  0  0  0  0  0  0  0
  180.9590  176.1570  138.7620 N   0  0  0  0  0  2  0  0  0  0  0  0
  185.4580  177.3740  137.1720 C   0  0  0  0  0  0  0  0  0  0  0  0
  182.0240  174.7650  135.8290 C   0  0  0  0  0  2  0  0  0  0  0  0
  186.1120  178.6280  139.1160 N   0  0  0  0  0  0  0  0  0  0  0  0
  179.8520  174.1650  137.9420 C   0  0  0  0  0  2  0  0  0  0  0  0
  180.4020  174.8780  139.1670 C   0  0  0  0  0  2  0  0  0  0  0  0
  183.1900  175.7350  135.8280 C   0  0  0  0  0  2  0  0  0  0  0  0
  180.3070  181.7690  139.0940 C   0  0  0  0  0  2  0  0  0  0  0  0
  181.5500  179.1150  138.9930 C   0  0  0  0  0  3  0  0  0  0  0  0
  182.3590  180.3840  138.7180 C   0  0  0  0  0  2  0  0  0  0  0  0
  181.4590  181.4720  138.1380 C   0  0  0  0  0  2  0  0  0  0  0  0
  179.4900  180.5040  139.3390 C   0  0  0  0  0  2  0  0  0  0  0  0
  180.3760  179.4110  139.9290 C   0  0  0  0  0  2  0  0  0  0  0  0
  2 12  1  0  0  0  0
  2  6  1  0  0  0  0
  3 11  1  0  0  0  0
  4 14  1  0  0  0  0
  5 13  1  0  0  0  0
  7 16  1  0  0  0  0
  8 10  1  0  0  0  0
  9  7  2  0  0  0  0
  9 13  1  0  0  0  0
 10 19  1  0  0  0  0
 11  2  2  0  0  0  0
 12 23  1  6  0  0  0
 12  1  1  0  0  0  0
 13  4  2  0  0  0  0
 14 18  1  0  0  0  0
 15 20  1  0  0  0  0
 15  1  1  0  0  0  0
 16 11  1  0  0  0  0
 16 14  2  0  0  0  0
 17  8  1  0  0  0  0
 18  6  2  0  0  0  0
 19 20  1  0  0  0  0
 21 17  1  0  0  0  0
 21  3  1  0  0  0  0
 22 26  1  0  0  0  0
 23 27  1  0  0  0  0
 24 23  1  0  0  0  0
 25 24  1  0  0  0  0
 25 22  1  0  0  0  0
 26 27  1  0  0  0  0
M  END
>  <MODEL>
6

>  <REMARK>
 VINA RESULT:      -5.7      3.552      6.660
  Name = 
  1 active torsions:
  status: ('A' for Active; 'I' for Inactive)
    1  A    between atoms: C_9  and  C_15
                            x       y       z     vdW  Elec       q    Type
                         _______ _______ _______ _____ _____    ______ ____

>  <TORSDO>
F 1

$$$$
=
 OpenBabel10262420023D

 27 30  0  0  1  0  0  0  0  0999 V2000
  180.9980  177.5010  139.9260 C   0  0  0  0  0  2  0  0  0  0  0  0
  183.1180  178.4530  138.7820 C   0  0  0  0  0  0  0  0  0  0  0  0
  182.3180  176.7960  137.1650 N   0  0  0  0  0  2  0  0  0  0  0  0
  187.0830  178.0950  137.4970 C   0  0  0  0  0  3  0  0  0  0  0  0
  188.7510  177.1420  136.0420 O   0  0  0  0  0  1  0  0  0  0  0  0
  184.1580  179.1840  139.3610 C   0  0  0  0  0  3  0  0  0  0  0  0
  185.1130  176.5790  136.2270 C   0  0  0  0  0  3  0  0  0  0  0  0
  181.2530  174.0900  137.7780 C   0  0  0  0  0  2  0  0  0  0  0  0
  186.4430  176.4830  135.8150 C   0  0  0  0  0  3  0  0  0  0  0  0
  179.8770  173.6280  138.2430 C   0  0  0  0  0  2  0  0  0  0  0  0
  183.4030  177.5550  137.7270 C   0  0  0  0  0  0  0  0  0  0  0  0
  181.7340  178.7070  139.3190 C   0  0  1  0  0  3  0  0  0  0  0  0
  187.4290  177.2390  136.4510 C   0  0  0  0  0  0  0  0  0  0  0  0
  185.7520  178.1960  137.9140 C   0  0  0  0  0  0  0  0  0  0  0  0
  180.1450  176.8490  138.9460 N   0  0  0  0  0  2  0  0  0  0  0  0
  184.7430  177.4280  137.2820 C   0  0  0  0  0  0  0  0  0  0  0  0
  181.1810  174.7860  136.4270 C   0  0  0  0  0  2  0  0  0  0  0  0
  185.4340  179.0420  138.9250 N   0  0  0  0  0  0  0  0  0  0  0  0
  178.9320  174.7900  138.5450 C   0  0  0  0  0  2  0  0  0  0  0  0
  179.5000  175.7250  139.6020 C   0  0  0  0  0  2  0  0  0  0  0  0
  182.4050  175.6650  136.2540 C   0  0  0  0  0  2  0  0  0  0  0  0
  180.5390  182.1900  136.9660 C   0  0  0  0  0  2  0  0  0  0  0  0
  180.9150  179.7470  138.5430 C   0  0  0  0  0  3  0  0  0  0  0  0
  181.3710  179.8320  137.0850 C   0  0  0  0  0  2  0  0  0  0  0  0
  180.4950  180.8130  136.3110 C   0  0  0  0  0  2  0  0  0  0  0  0
  180.0560  182.0990  138.4110 C   0  0  0  0  0  2  0  0  0  0  0  0
  180.9310  181.1300  139.1980 C   0  0  0  0  0  2  0  0  0  0  0  0
  2 12  1  0  0  0  0
  2  6  1  0  0  0  0
  3 11  1  0  0  0  0
  4 14  1  0  0  0  0
  5 13  1  0  0  0  0
  7 16  1  0  0  0  0
  8 10  1  0  0  0  0
  9  7  2  0  0  0  0
  9 13  1  0  0  0  0
 10 19  1  0  0  0  0
 11  2  2  0  0  0  0
 12 23  1  6  0  0  0
 12  1  1  0  0  0  0
 13  4  2  0  0  0  0
 14 18  1  0  0  0  0
 15 20  1  0  0  0  0
 15  1  1  0  0  0  0
 16 11  1  0  0  0  0
 16 14  2  0  0  0  0
 17  8  1  0  0  0  0
 18  6  2  0  0  0  0
 19 20  1  0  0  0  0
 21 17  1  0  0  0  0
 21  3  1  0  0  0  0
 22 26  1  0  0  0  0
 23 27  1  0  0  0  0
 24 23  1  0  0  0  0
 25 22  1  0  0  0  0
 25 24  1  0  0  0  0
 26 27  1  0  0  0  0
M  END
>  <MODEL>
7

>  <REMARK>
 VINA RESULT:      -5.3      3.616      6.414
  Name = 
  1 active torsions:
  status: ('A' for Active; 'I' for Inactive)
    1  A    between atoms: C_9  and  C_15
                            x       y       z     vdW  Elec       q    Type
                         _______ _______ _______ _____ _____    ______ ____

>  <TORSDO>
F 1

$$$$
=
 OpenBabel10262420023D

 27 30  0  0  1  0  0  0  0  0999 V2000
  189.6280  176.9820  136.7010 C   0  0  0  0  0  2  0  0  0  0  0  0
  187.1860  177.0710  137.5600 C   0  0  0  0  0  0  0  0  0  0  0  0
  187.5520  174.6770  137.1860 N   0  0  0  0  0  2  0  0  0  0  0  0
  183.0590  176.7440  136.9620 C   0  0  0  0  0  3  0  0  0  0  0  0
  181.0920  175.4290  136.5020 O   0  0  0  0  0  1  0  0  0  0  0  0
  186.3330  178.1740  137.6290 C   0  0  0  0  0  3  0  0  0  0  0  0
  184.6300  174.4400  136.8090 C   0  0  0  0  0  3  0  0  0  0  0  0
  188.9640  173.4380  134.8830 C   0  0  0  0  0  2  0  0  0  0  0  0
  183.2490  174.3590  136.6190 C   0  0  0  0  0  3  0  0  0  0  0  0
  190.4470  173.2440  134.5940 C   0  0  0  0  0  2  0  0  0  0  0  0
  186.6490  175.7940  137.2760 C   0  0  0  0  0  0  0  0  0  0  0  0
  188.6460  177.3270  137.8320 C   0  0  1  0  0  3  0  0  0  0  0  0
  182.4640  175.5100  136.6930 C   0  0  0  0  0  0  0  0  0  0  0  0
  184.4420  176.8310  137.1540 C   0  0  0  0  0  0  0  0  0  0  0  0
  190.1700  175.6430  136.8540 N   0  0  0  0  0  2  0  0  0  0  0  0
  185.2500  175.6710  137.0730 C   0  0  0  0  0  0  0  0  0  0  0  0
  188.5440  172.7200  136.1560 C   0  0  0  0  0  2  0  0  0  0  0  0
  185.0000  178.0370  137.4250 N   0  0  0  0  0  0  0  0  0  0  0  0
  191.3460  173.9120  135.6340 C   0  0  0  0  0  2  0  0  0  0  0  0
  191.0760  175.4040  135.7440 C   0  0  0  0  0  2  0  0  0  0  0  0
  187.2650  173.3430  136.6820 C   0  0  0  0  0  2  0  0  0  0  0  0
  190.0530  177.9020  141.9290 C   0  0  0  0  0  2  0  0  0  0  0  0
  189.0890  177.0890  139.2820 C   0  0  0  0  0  3  0  0  0  0  0  0
  188.1840  177.8350  140.2640 C   0  0  0  0  0  2  0  0  0  0  0  0
  188.5920  177.5240  141.7020 C   0  0  0  0  0  2  0  0  0  0  0  0
  190.9500  177.1330  140.9630 C   0  0  0  0  0  2  0  0  0  0  0  0
  190.5590  177.4430  139.5220 C   0  0  0  0  0  2  0  0  0  0  0  0
  1 15  1  0  0  0  0
  1 12  1  0  0  0  0
  2  6  1  0  0  0  0
  2 12  1  0  0  0  0
  3 11  1  0  0  0  0
  4 14  1  0  0  0  0
  5 13  1  0  0  0  0
  7 16  1  0  0  0  0
  8 17  1  0  0  0  0
  9 13  1  0  0  0  0
  9  7  2  0  0  0  0
 10  8  1  0  0  0  0
 10 19  1  0  0  0  0
 11  2  2  0  0  0  0
 12 23  1  1  0  0  0
 13  4  2  0  0  0  0
 14 18  1  0  0  0  0
 16 14  2  0  0  0  0
 16 11  1  0  0  0  0
 17 21  1  0  0  0  0
 18  6  2  0  0  0  0
 19 20  1  0  0  0  0
 20 15  1  0  0  0  0
 21  3  1  0  0  0  0
 23 27  1  0  0  0  0
 23 24  1  0  0  0  0
 24 25  1  0  0  0  0
 25 22  1  0  0  0  0
 26 22  1  0  0  0  0
 27 26  1  0  0  0  0
M  END
>  <MODEL>
8

>  <REMARK>
 VINA RESULT:      -5.2      5.050      8.978
  Name = 
  1 active torsions:
  status: ('A' for Active; 'I' for Inactive)
    1  A    between atoms: C_9  and  C_15
                            x       y       z     vdW  Elec       q    Type
                         _______ _______ _______ _____ _____    ______ ____

>  <TORSDO>
F 1

$$$$
=
 OpenBabel10262420023D

 27 30  0  0  1  0  0  0  0  0999 V2000
  183.3600  177.1180  138.9280 C   0  0  0  0  0  2  0  0  0  0  0  0
  182.8150  179.6310  139.2400 C   0  0  0  0  0  0  0  0  0  0  0  0
  180.6090  178.5710  139.3520 N   0  0  0  0  0  2  0  0  0  0  0  0
  181.2340  183.2520  137.8670 C   0  0  0  0  0  3  0  0  0  0  0  0
  179.3610  184.6320  137.2370 O   0  0  0  0  0  1  0  0  0  0  0  0
  183.6210  180.7330  138.9460 C   0  0  0  0  0  3  0  0  0  0  0  0
  179.4890  181.1450  138.4260 C   0  0  0  0  0  3  0  0  0  0  0  0
  179.6110  176.3660  137.6290 C   0  0  0  0  0  2  0  0  0  0  0  0
  178.9880  182.3670  137.9720 C   0  0  0  0  0  3  0  0  0  0  0  0
  179.8320  174.8590  137.6880 C   0  0  0  0  0  2  0  0  0  0  0  0
  181.4150  179.7290  139.0670 C   0  0  0  0  0  0  0  0  0  0  0  0
  183.5140  178.4020  139.7600 C   0  0  1  0  0  3  0  0  0  0  0  0
  179.8600  183.4190  137.6900 C   0  0  0  0  0  0  0  0  0  0  0  0
  181.7420  182.0310  138.3230 C   0  0  0  0  0  0  0  0  0  0  0  0
  182.2610  176.2980  139.4110 N   0  0  0  0  0  2  0  0  0  0  0  0
  180.8680  180.9530  138.6040 C   0  0  0  0  0  0  0  0  0  0  0  0
  178.9350  176.8810  138.8900 C   0  0  0  0  0  2  0  0  0  0  0  0
  183.0790  181.8910  138.4980 N   0  0  0  0  0  0  0  0  0  0  0  0
  180.8360  174.4490  138.7650 C   0  0  0  0  0  2  0  0  0  0  0  0
  182.1870  175.1190  138.5670 C   0  0  0  0  0  2  0  0  0  0  0  0
  179.2050  178.3670  139.0300 C   0  0  0  0  0  2  0  0  0  0  0  0
  183.7000  179.3110  144.0300 C   0  0  0  0  0  2  0  0  0  0  0  0
  183.5660  178.2800  141.2890 C   0  0  0  0  0  3  0  0  0  0  0  0
  182.3670  178.9750  141.9380 C   0  0  0  0  0  2  0  0  0  0  0  0
  182.3940  178.7760  143.4510 C   0  0  0  0  0  2  0  0  0  0  0  0
  184.8880  178.5920  143.3960 C   0  0  0  0  0  2  0  0  0  0  0  0
  184.8790  178.7920  141.8850 C   0  0  0  0  0  2  0  0  0  0  0  0
  1 15  1  0  0  0  0
  1 12  1  0  0  0  0
  2 12  1  0  0  0  0
  4 14  1  0  0  0  0
  5 13  1  0  0  0  0
  6  2  2  0  0  0  0
  7 16  1  0  0  0  0
  8 10  1  0  0  0  0
  8 17  1  0  0  0  0
  9  7  2  0  0  0  0
 10 19  1  0  0  0  0
 11  2  1  0  0  0  0
 11  3  1  0  0  0  0
 12 23  1  1  0  0  0
 13  4  2  0  0  0  0
 13  9  1  0  0  0  0
 14 18  2  0  0  0  0
 14 16  1  0  0  0  0
 16 11  2  0  0  0  0
 17 21  1  0  0  0  0
 18  6  1  0  0  0  0
 20 19  1  0  0  0  0
 20 15  1  0  0  0  0
 21  3  1  0  0  0  0
 23 27  1  0  0  0  0
 23 24  1  0  0  0  0
 24 25  1  0  0  0  0
 25 22  1  0  0  0  0
 26 22  1  0  0  0  0
 27 26  1  0  0  0  0
M  END
>  <MODEL>
9

>  <REMARK>
 VINA RESULT:      -5.1      3.025      6.062
  Name = 
  1 active torsions:
  status: ('A' for Active; 'I' for Inactive)
    1  A    between atoms: C_9  and  C_15
                            x       y       z     vdW  Elec       q    Type
                         _______ _______ _______ _____ _____    ______ ____

>  <TORSDO>
F 1

$$$$
