=
 OpenBabel10262420343D

 55 60  0  0  1  0  0  0  0  0999 V2000
  187.1310  177.7830  138.4040 C   0  0  0  0  0  0  0  0  0  0  0  0
  185.4240  177.1320  135.0910 C   0  0  0  0  0  1  0  0  0  0  0  0
  182.3480  175.3250  138.5110 C   0  0  0  0  0  3  0  0  0  0  0  0
  181.0050  175.0030  138.7290 C   0  0  0  0  0  3  0  0  0  0  0  0
  181.9250  177.5270  139.3980 C   0  0  0  0  0  0  0  0  0  0  0  0
  180.5810  177.1850  139.5570 C   0  0  0  0  0  3  0  0  0  0  0  0
  184.6320  176.4650  137.2670 O   0  0  0  0  0  0  0  0  0  0  0  0
  180.1520  175.9360  139.2340 N   0  0  0  0  0  0  0  0  0  0  0  0
  182.8100  176.6040  138.8100 C   0  0  0  0  0  0  0  0  0  0  0  0
  186.1200  178.7010  139.0760 C   0  0  0  0  0  2  0  0  0  0  0  0
  183.8110  179.0840  139.9900 C   0  0  2  0  0  3  0  0  0  0  0  0
  182.3880  178.8140  139.8160 N   0  0  0  0  0  2  0  0  0  0  0  0
  186.8970  177.2530  137.1670 C   0  0  0  0  0  0  0  0  0  0  0  0
  185.5010  177.3450  136.5990 C   0  0  1  0  0  3  0  0  0  0  0  0
  184.2620  176.9480  138.5580 C   0  0  2  0  0  3  0  0  0  0  0  0
  184.6200  178.4440  138.8530 C   0  0  2  0  0  3  0  0  0  0  0  0
  189.6280  177.4370  138.5140 C   0  0  0  0  0  3  0  0  0  0  0  0
  189.5190  177.1810  141.2890 C   0  0  0  0  0  0  0  0  0  0  0  0
  188.3500  177.4060  140.5570 C   0  0  0  0  0  3  0  0  0  0  0  0
  190.7980  177.2070  139.2410 C   0  0  0  0  0  3  0  0  0  0  0  0
  188.3940  177.5630  139.1680 C   0  0  0  0  0  0  0  0  0  0  0  0
  189.4610  177.0560  142.6620 O   0  0  0  0  0  1  0  0  0  0  0  0
  190.7470  177.0900  140.6350 C   0  0  0  0  0  3  0  0  0  0  0  0
  185.5960  179.4230  141.7690 C   0  0  0  0  0  2  0  0  0  0  0  0
  185.0210  179.1850  144.2400 C   0  0  2  0  0  3  0  0  0  0  0  0
  183.2370  178.7400  142.5000 C   0  0  0  0  0  2  0  0  0  0  0  0
  183.6520  179.5980  143.6900 C   0  0  0  0  0  2  0  0  0  0  0  0
  186.0660  178.9460  143.1390 C   0  0  0  0  0  2  0  0  0  0  0  0
  184.3080  178.6910  141.3940 C   0  0  1  0  0  3  0  0  0  0  0  0
  184.8920  177.9280  145.0910 C   0  0  0  0  0  2  0  0  0  0  0  0
  185.7570  178.0150  146.3430 C   0  0  0  0  0  2  0  0  0  0  0  0
  187.1660  177.5190  146.0800 C   0  0  0  0  0  1  0  0  0  0  0  0
  187.9040  176.4500  136.4150 C   0  0  0  0  0  3  0  0  0  0  0  0
  187.9970  175.1210  136.4390 C   0  0  0  0  0  0  0  0  0  0  0  0
  187.1380  174.3620  137.2230 O   0  0  0  0  0  1  0  0  0  0  0  0
  189.0950  174.4640  135.6640 C   0  0  0  0  0  2  0  0  0  0  0  0
  190.3920  175.2540  135.7010 C   0  0  2  0  0  3  0  0  0  0  0  0
  190.4000  176.2410  134.7270 F   0  0  0  0  0  0  0  0  0  0  0  0
  191.4960  174.3900  135.5700 O   0  0  0  0  0  0  0  0  0  0  0  0
  192.6400  175.1110  135.9840 C   0  0  1  0  0  3  0  0  0  0  0  0
  192.2710  176.2580  136.7100 O   0  0  0  0  0  1  0  0  0  0  0  0
  195.8770  172.3920  134.6860 C   0  0  0  0  0  2  0  0  0  0  0  0
  195.4570  173.4830  139.1050 O   0  0  0  0  0  0  0  0  0  0  0  0
  193.6160  174.2020  136.7730 C   0  0  1  0  0  0  0  0  0  0  0  0
  195.4610  175.8100  136.4510 O   0  0  0  0  0  1  0  0  0  0  0  0
  194.8250  174.9780  137.3830 C   0  0  2  0  0  3  0  0  0  0  0  0
  194.7800  173.4200  134.9150 C   0  0  0  0  0  2  0  0  0  0  0  0
  197.2690  173.9640  137.6930 C   0  0  1  0  0  3  0  0  0  0  0  0
  196.7930  172.2580  135.9070 C   0  0  0  0  0  2  0  0  0  0  0  0
  195.8180  174.0840  138.1000 C   0  0  0  0  0  0  0  0  0  0  0  0
  192.8930  173.7300  137.8520 F   0  0  0  0  0  0  0  0  0  0  0  0
  197.4420  173.5940  136.2190 C   0  0  0  0  0  2  0  0  0  0  0  0
  193.9980  173.0570  136.0220 O   0  0  0  0  0  0  0  0  0  0  0  0
  197.9580  175.2150  137.9630 N   0  0  0  0  0  2  0  0  0  0  0  0
  198.4030  175.1640  139.3440 C   0  0  0  0  0  1  0  0  0  0  0  0
  1 10  1  0  0  0  0
  1 21  1  0  0  0  0
  3  4  2  0  0  0  0
  3  9  1  0  0  0  0
  4  8  1  0  0  0  0
  5  6  1  0  0  0  0
  5 12  1  0  0  0  0
  8  6  2  0  0  0  0
  9  5  2  0  0  0  0
 11 12  1  1  0  0  0
 11 29  1  0  0  0  0
 13  1  2  0  0  0  0
 14  2  1  6  0  0  0
 14 13  1  0  0  0  0
 14  7  1  0  0  0  0
 15  7  1  6  0  0  0
 15  9  1  0  0  0  0
 15 16  1  0  0  0  0
 16 10  1  1  0  0  0
 16 11  1  0  0  0  0
 17 21  2  0  0  0  0
 17 20  1  0  0  0  0
 18 22  1  0  0  0  0
 19 18  2  0  0  0  0
 20 23  2  0  0  0  0
 21 19  1  0  0  0  0
 23 18  1  0  0  0  0
 24 28  1  0  0  0  0
 25 30  1  6  0  0  0
 26 27  1  0  0  0  0
 27 25  1  0  0  0  0
 28 25  1  0  0  0  0
 29 24  1  1  0  0  0
 29 26  1  0  0  0  0
 30 31  1  0  0  0  0
 32 31  1  0  0  0  0
 33 34  2  0  0  0  0
 33 13  1  0  0  0  0
 34 35  1  0  0  0  0
 36 37  1  0  0  0  0
 36 34  1  0  0  0  0
 37 38  1  6  0  0  0
 39 37  1  0  0  0  0
 39 40  1  0  0  0  0
 40 41  1  1  0  0  0
 40 44  1  0  0  0  0
 42 47  1  0  0  0  0
 42 49  1  0  0  0  0
 44 46  1  0  0  0  0
 44 51  1  1  0  0  0
 46 45  1  6  0  0  0
 46 50  1  0  0  0  0
 47 53  1  0  0  0  0
 48 54  1  6  0  0  0
 48 50  1  0  0  0  0
 49 52  1  0  0  0  0
 50 43  2  0  0  0  0
 52 48  1  0  0  0  0
 53 44  1  0  0  0  0
 54 55  1  0  0  0  0
M  END
>  <MODEL>
1

>  <REMARK>
 VINA RESULT:      -8.4      0.000      0.000
  Name = 
  11 active torsions:
  status: ('A' for Active; 'I' for Inactive)
    1  A    between atoms: C_2  and  C_44
    2  A    between atoms: C_4  and  C_37
    3  A    between atoms: C_6  and  C_20
    4  A    between atoms: C_7  and  C_8
    5  A    between atoms: C_7  and  O_22
    6  A    between atoms: C_8  and  C_35
    7  A    between atoms: C_10  and  C_18
    8  A    between atoms: C_10  and  C_32
    9  A    between atoms: N_11  and  C_29
   10  A    between atoms: C_20  and  O_22
   11  A    between atoms: C_33  and  C_52
                            x       y       z     vdW  Elec       q    Type
                         _______ _______ _______ _____ _____    ______ ____

>  <TORSDO>
F 11

$$$$
=
 OpenBabel10262420343D

 55 60  0  0  1  0  0  0  0  0999 V2000
  185.2920  178.6450  139.4820 C   0  0  0  0  0  0  0  0  0  0  0  0
  186.8830  177.8490  136.1440 C   0  0  0  0  0  1  0  0  0  0  0  0
  182.3920  175.7960  135.9600 C   0  0  0  0  0  3  0  0  0  0  0  0
  181.4110  175.3630  135.0630 C   0  0  0  0  0  3  0  0  0  0  0  0
  181.3220  177.9560  136.0280 C   0  0  0  0  0  0  0  0  0  0  0  0
  180.3890  177.5030  135.0950 C   0  0  0  0  0  3  0  0  0  0  0  0
  184.7170  177.1210  136.9090 O   0  0  0  0  0  0  0  0  0  0  0  0
  180.4420  176.2220  134.6430 N   0  0  0  0  0  0  0  0  0  0  0  0
  182.3760  177.1100  136.4220 C   0  0  0  0  0  0  0  0  0  0  0  0
  184.0940  179.4760  139.0420 C   0  0  0  0  0  2  0  0  0  0  0  0
  181.9370  179.6660  137.7690 C   0  0  2  0  0  3  0  0  0  0  0  0
  181.2130  179.2780  136.5630 N   0  0  0  0  0  2  0  0  0  0  0  0
  186.1480  178.0960  138.5710 C   0  0  0  0  0  0  0  0  0  0  0  0
  185.7330  178.0690  137.1200 C   0  0  1  0  0  3  0  0  0  0  0  0
  183.4490  177.5740  137.3830 C   0  0  2  0  0  3  0  0  0  0  0  0
  183.3610  179.0950  137.7450 C   0  0  2  0  0  3  0  0  0  0  0  0
  186.7450  178.3240  141.5200 C   0  0  0  0  0  3  0  0  0  0  0  0
  184.5160  178.4400  143.1900 C   0  0  0  0  0  0  0  0  0  0  0  0
  184.3640  178.5620  141.8050 C   0  0  0  0  0  3  0  0  0  0  0  0
  186.9000  178.1960  142.9020 C   0  0  0  0  0  3  0  0  0  0  0  0
  185.4770  178.5320  140.9590 C   0  0  0  0  0  0  0  0  0  0  0  0
  183.4090  178.4990  144.0130 O   0  0  0  0  0  1  0  0  0  0  0  0
  185.7830  178.2660  143.7420 C   0  0  0  0  0  3  0  0  0  0  0  0
  179.6610  179.5950  138.9000 C   0  0  0  0  0  2  0  0  0  0  0  0
  179.1500  177.8330  140.6680 C   0  0  2  0  0  3  0  0  0  0  0  0
  181.4620  177.9300  139.6420 C   0  0  0  0  0  2  0  0  0  0  0  0
  180.2090  177.0860  139.8520 C   0  0  0  0  0  2  0  0  0  0  0  0
  178.9560  179.2890  140.2170 C   0  0  0  0  0  2  0  0  0  0  0  0
  181.1560  179.3190  139.0510 C   0  0  1  0  0  3  0  0  0  0  0  0
  179.5090  177.8090  142.1480 C   0  0  0  0  0  2  0  0  0  0  0  0
  179.4360  179.2030  142.7600 C   0  0  0  0  0  2  0  0  0  0  0  0
  179.5570  179.1530  144.2710 C   0  0  0  0  0  1  0  0  0  0  0  0
  187.3990  177.3790  138.9510 C   0  0  0  0  0  3  0  0  0  0  0  0
  188.6180  177.9170  138.9640 C   0  0  0  0  0  0  0  0  0  0  0  0
  188.8150  179.2390  138.5830 O   0  0  0  0  0  1  0  0  0  0  0  0
  189.7830  177.0510  139.3240 C   0  0  0  0  0  2  0  0  0  0  0  0
  190.5750  177.5940  140.5010 C   0  0  2  0  0  3  0  0  0  0  0  0
  191.8810  177.8770  140.1330 F   0  0  0  0  0  0  0  0  0  0  0  0
  190.5270  176.6910  141.5810 O   0  0  0  0  0  0  0  0  0  0  0  0
  190.6750  177.4510  142.7640 C   0  0  1  0  0  3  0  0  0  0  0  0
  190.2070  178.7640  142.5760 O   0  0  0  0  0  1  0  0  0  0  0  0
  192.3050  175.5240  146.3950 C   0  0  0  0  0  2  0  0  0  0  0  0
  187.8240  176.3710  146.0860 O   0  0  0  0  0  0  0  0  0  0  0  0
  189.9940  176.7480  143.9670 C   0  0  1  0  0  0  0  0  0  0  0  0
  190.3670  178.7210  145.4020 O   0  0  0  0  0  1  0  0  0  0  0  0
  189.4320  177.7470  145.0260 C   0  0  2  0  0  3  0  0  0  0  0  0
  191.9580  176.2870  145.1270 C   0  0  0  0  0  2  0  0  0  0  0  0
  189.3300  177.2680  147.6460 C   0  0  1  0  0  3  0  0  0  0  0  0
  191.1540  175.5530  147.4080 C   0  0  0  0  0  2  0  0  0  0  0  0
  188.8220  177.0650  146.2360 C   0  0  0  0  0  0  0  0  0  0  0  0
  188.8910  176.1020  143.4410 F   0  0  0  0  0  0  0  0  0  0  0  0
  190.8280  176.9870  147.7820 C   0  0  0  0  0  2  0  0  0  0  0  0
  190.8180  175.7340  144.5240 O   0  0  0  0  0  0  0  0  0  0  0  0
  189.0520  178.6290  148.0740 N   0  0  0  0  0  2  0  0  0  0  0  0
  187.7810  178.6010  148.7750 C   0  0  0  0  0  1  0  0  0  0  0  0
  1 21  1  0  0  0  0
  3  9  1  0  0  0  0
  4  3  2  0  0  0  0
  5  9  2  0  0  0  0
  5 12  1  0  0  0  0
  6  5  1  0  0  0  0
  7 14  1  0  0  0  0
  7 15  1  0  0  0  0
  8  4  1  0  0  0  0
  8  6  2  0  0  0  0
 10  1  1  0  0  0  0
 11 12  1  6  0  0  0
 11 29  1  0  0  0  0
 13 33  1  0  0  0  0
 13  1  2  0  0  0  0
 14  2  1  6  0  0  0
 14 13  1  0  0  0  0
 15  9  1  6  0  0  0
 15 16  1  0  0  0  0
 16 11  1  0  0  0  0
 16 10  1  1  0  0  0
 17 20  1  0  0  0  0
 18 23  1  0  0  0  0
 18 22  1  0  0  0  0
 19 18  2  0  0  0  0
 20 23  2  0  0  0  0
 21 17  2  0  0  0  0
 21 19  1  0  0  0  0
 24 28  1  0  0  0  0
 25 30  1  1  0  0  0
 26 27  1  0  0  0  0
 27 25  1  0  0  0  0
 28 25  1  0  0  0  0
 29 24  1  6  0  0  0
 29 26  1  0  0  0  0
 30 31  1  0  0  0  0
 31 32  1  0  0  0  0
 33 34  2  0  0  0  0
 34 36  1  0  0  0  0
 35 34  1  0  0  0  0
 36 37  1  0  0  0  0
 37 38  1  6  0  0  0
 37 39  1  0  0  0  0
 39 40  1  0  0  0  0
 40 41  1  6  0  0  0
 40 44  1  0  0  0  0
 42 49  1  0  0  0  0
 43 50  2  0  0  0  0
 44 51  1  6  0  0  0
 44 53  1  0  0  0  0
 44 46  1  0  0  0  0
 46 45  1  1  0  0  0
 46 50  1  0  0  0  0
 47 42  1  0  0  0  0
 48 52  1  0  0  0  0
 48 54  1  6  0  0  0
 49 52  1  0  0  0  0
 50 48  1  0  0  0  0
 53 47  1  0  0  0  0
 54 55  1  0  0  0  0
M  END
>  <MODEL>
2

>  <REMARK>
 VINA RESULT:      -7.5      4.634      7.188
  Name = 
  11 active torsions:
  status: ('A' for Active; 'I' for Inactive)
    1  A    between atoms: C_2  and  C_44
    2  A    between atoms: C_4  and  C_37
    3  A    between atoms: C_6  and  C_20
    4  A    between atoms: C_7  and  C_8
    5  A    between atoms: C_7  and  O_22
    6  A    between atoms: C_8  and  C_35
    7  A    between atoms: C_10  and  C_18
    8  A    between atoms: C_10  and  C_32
    9  A    between atoms: N_11  and  C_29
   10  A    between atoms: C_20  and  O_22
   11  A    between atoms: C_33  and  C_52
                            x       y       z     vdW  Elec       q    Type
                         _______ _______ _______ _____ _____    ______ ____

>  <TORSDO>
F 11

$$$$
=
 OpenBabel10262420343D

 55 60  0  0  1  0  0  0  0  0999 V2000
  184.2660  178.2030  138.4070 C   0  0  0  0  0  0  0  0  0  0  0  0
  185.4740  176.8280  135.0960 C   0  0  0  0  0  1  0  0  0  0  0  0
  181.3780  174.2700  136.1450 C   0  0  0  0  0  3  0  0  0  0  0  0
  180.3600  173.5200  135.5470 C   0  0  0  0  0  3  0  0  0  0  0  0
  180.0040  176.2390  135.9290 C   0  0  0  0  0  0  0  0  0  0  0  0
  179.0310  175.4680  135.2920 C   0  0  0  0  0  3  0  0  0  0  0  0
  183.5780  176.0500  136.3650 O   0  0  0  0  0  0  0  0  0  0  0  0
  179.2190  174.1330  135.1260 N   0  0  0  0  0  0  0  0  0  0  0  0
  181.2230  175.6440  136.3060 C   0  0  0  0  0  0  0  0  0  0  0  0
  182.9040  178.7560  138.0120 C   0  0  0  0  0  2  0  0  0  0  0  0
  180.5850  178.3770  137.1230 C   0  0  2  0  0  3  0  0  0  0  0  0
  179.7670  177.6280  136.1750 N   0  0  0  0  0  2  0  0  0  0  0  0
  185.0600  177.5580  137.5020 C   0  0  0  0  0  0  0  0  0  0  0  0
  184.4530  177.1370  136.1860 C   0  0  1  0  0  3  0  0  0  0  0  0
  182.3350  176.4490  136.9420 C   0  0  2  0  0  3  0  0  0  0  0  0
  182.0630  177.9910  136.9770 C   0  0  2  0  0  3  0  0  0  0  0  0
  185.9870  178.8440  140.1380 C   0  0  0  0  0  3  0  0  0  0  0  0
  184.1260  178.5030  142.1860 C   0  0  0  0  0  0  0  0  0  0  0  0
  183.7580  178.2760  140.8570 C   0  0  0  0  0  3  0  0  0  0  0  0
  186.3600  179.0670  141.4650 C   0  0  0  0  0  3  0  0  0  0  0  0
  184.6740  178.4690  139.8180 C   0  0  0  0  0  0  0  0  0  0  0  0
  183.2010  178.3340  143.1970 O   0  0  0  0  0  1  0  0  0  0  0  0
  185.4240  178.9070  142.4930 C   0  0  0  0  0  3  0  0  0  0  0  0
  180.7620  177.1400  139.3370 C   0  0  0  0  0  2  0  0  0  0  0  0
  180.2680  178.3380  141.5310 C   0  0  2  0  0  3  0  0  0  0  0  0
  179.9810  179.5810  139.3440 C   0  0  0  0  0  2  0  0  0  0  0  0
  180.7190  179.5280  140.6780 C   0  0  0  0  0  2  0  0  0  0  0  0
  180.1550  177.0310  140.7320 C   0  0  0  0  0  2  0  0  0  0  0  0
  180.0570  178.2550  138.5650 C   0  0  1  0  0  3  0  0  0  0  0  0
  178.9310  178.6400  142.1950 C   0  0  0  0  0  2  0  0  0  0  0  0
  179.0500  179.7920  143.1860 C   0  0  0  0  0  2  0  0  0  0  0  0
  179.3040  179.2890  144.5940 C   0  0  0  0  0  1  0  0  0  0  0  0
  186.4490  177.1070  137.8050 C   0  0  0  0  0  3  0  0  0  0  0  0
  187.5550  177.8050  137.5480 C   0  0  0  0  0  0  0  0  0  0  0  0
  187.4840  179.0480  136.9300 O   0  0  0  0  0  1  0  0  0  0  0  0
  188.8820  177.1940  137.8690 C   0  0  0  0  0  2  0  0  0  0  0  0
  189.4920  177.7530  139.1430 C   0  0  2  0  0  3  0  0  0  0  0  0
  190.8750  177.7950  139.0540 F   0  0  0  0  0  0  0  0  0  0  0  0
  189.0690  177.0040  140.2580 O   0  0  0  0  0  0  0  0  0  0  0  0
  190.2330  176.6010  140.9530 C   0  0  1  0  0  3  0  0  0  0  0  0
  191.3520  176.6120  140.1010 O   0  0  0  0  0  1  0  0  0  0  0  0
  187.7930  177.1960  144.5930 C   0  0  0  0  0  2  0  0  0  0  0  0
  192.1000  178.7220  144.4660 O   0  0  0  0  0  0  0  0  0  0  0  0
  190.4490  177.4630  142.2230 C   0  0  1  0  0  0  0  0  0  0  0  0
  191.0900  175.4710  143.5330 O   0  0  0  0  0  1  0  0  0  0  0  0
  191.4170  176.8060  143.2560 C   0  0  2  0  0  3  0  0  0  0  0  0
  188.4980  176.8000  143.3050 C   0  0  0  0  0  2  0  0  0  0  0  0
  191.2180  177.0850  145.8990 C   0  0  1  0  0  3  0  0  0  0  0  0
  188.7850  177.6740  145.6600 C   0  0  0  0  0  2  0  0  0  0  0  0
  191.5810  177.6140  144.5290 C   0  0  0  0  0  0  0  0  0  0  0  0
  191.0890  178.6080  141.7890 F   0  0  0  0  0  0  0  0  0  0  0  0
  189.7790  176.5710  145.9740 C   0  0  0  0  0  2  0  0  0  0  0  0
  189.2170  177.8880  142.7910 O   0  0  0  0  0  0  0  0  0  0  0  0
  192.1340  176.0180  146.2690 N   0  0  0  0  0  2  0  0  0  0  0  0
  192.1120  175.9250  147.7180 C   0  0  0  0  0  1  0  0  0  0  0  0
  1 21  1  0  0  0  0
  3  9  1  0  0  0  0
  4  3  2  0  0  0  0
  5 12  1  0  0  0  0
  5  9  2  0  0  0  0
  6  5  1  0  0  0  0
  7 15  1  0  0  0  0
  8  6  2  0  0  0  0
  8  4  1  0  0  0  0
 10  1  1  0  0  0  0
 11 12  1  6  0  0  0
 11 29  1  0  0  0  0
 13 33  1  0  0  0  0
 13  1  2  0  0  0  0
 14  2  1  6  0  0  0
 14  7  1  0  0  0  0
 14 13  1  0  0  0  0
 15  9  1  6  0  0  0
 15 16  1  0  0  0  0
 16 11  1  0  0  0  0
 16 10  1  1  0  0  0
 17 20  1  0  0  0  0
 18 23  1  0  0  0  0
 18 22  1  0  0  0  0
 19 18  2  0  0  0  0
 20 23  2  0  0  0  0
 21 17  2  0  0  0  0
 21 19  1  0  0  0  0
 24 28  1  0  0  0  0
 25 30  1  6  0  0  0
 26 27  1  0  0  0  0
 27 25  1  0  0  0  0
 28 25  1  0  0  0  0
 29 24  1  1  0  0  0
 29 26  1  0  0  0  0
 30 31  1  0  0  0  0
 31 32  1  0  0  0  0
 34 33  2  0  0  0  0
 34 36  1  0  0  0  0
 35 34  1  0  0  0  0
 36 37  1  0  0  0  0
 37 38  1  6  0  0  0
 37 39  1  0  0  0  0
 39 40  1  0  0  0  0
 40 41  1  6  0  0  0
 40 44  1  0  0  0  0
 42 49  1  0  0  0  0
 43 50  2  0  0  0  0
 44 51  1  6  0  0  0
 44 53  1  0  0  0  0
 44 46  1  0  0  0  0
 46 45  1  1  0  0  0
 46 50  1  0  0  0  0
 47 42  1  0  0  0  0
 48 52  1  0  0  0  0
 48 54  1  6  0  0  0
 49 52  1  0  0  0  0
 50 48  1  0  0  0  0
 53 47  1  0  0  0  0
 54 55  1  0  0  0  0
M  END
>  <MODEL>
3

>  <REMARK>
 VINA RESULT:      -7.5      4.277      6.480
  Name = 
  11 active torsions:
  status: ('A' for Active; 'I' for Inactive)
    1  A    between atoms: C_2  and  C_44
    2  A    between atoms: C_4  and  C_37
    3  A    between atoms: C_6  and  C_20
    4  A    between atoms: C_7  and  C_8
    5  A    between atoms: C_7  and  O_22
    6  A    between atoms: C_8  and  C_35
    7  A    between atoms: C_10  and  C_18
    8  A    between atoms: C_10  and  C_32
    9  A    between atoms: N_11  and  C_29
   10  A    between atoms: C_20  and  O_22
   11  A    between atoms: C_33  and  C_52
                            x       y       z     vdW  Elec       q    Type
                         _______ _______ _______ _____ _____    ______ ____

>  <TORSDO>
F 11

$$$$
=
 OpenBabel10262420343D

 55 60  0  0  1  0  0  0  0  0999 V2000
  184.3720  176.8210  137.0310 C   0  0  0  0  0  0  0  0  0  0  0  0
  187.0980  175.1250  135.0310 C   0  0  0  0  0  1  0  0  0  0  0  0
  184.0780  171.4810  136.4540 C   0  0  0  0  0  3  0  0  0  0  0  0
  183.6780  170.1840  136.1210 C   0  0  0  0  0  3  0  0  0  0  0  0
  182.2800  172.3430  135.0980 C   0  0  0  0  0  0  0  0  0  0  0  0
  181.9410  171.0350  134.7490 C   0  0  0  0  0  3  0  0  0  0  0  0
  185.2730  174.0410  136.1730 O   0  0  0  0  0  0  0  0  0  0  0  0
  182.6320  169.9880  135.2720 N   0  0  0  0  0  0  0  0  0  0  0  0
  183.4040  172.5740  135.9150 C   0  0  0  0  0  0  0  0  0  0  0  0
  183.1450  176.4820  136.1950 C   0  0  0  0  0  2  0  0  0  0  0  0
  181.5990  174.7630  135.2130 C   0  0  2  0  0  3  0  0  0  0  0  0
  181.5000  173.4370  134.6110 N   0  0  0  0  0  2  0  0  0  0  0  0
  185.6120  176.3610  136.6910 C   0  0  0  0  0  0  0  0  0  0  0  0
  185.7130  175.2710  135.6520 C   0  0  1  0  0  3  0  0  0  0  0  0
  183.8510  173.9750  136.2710 C   0  0  2  0  0  3  0  0  0  0  0  0
  183.0630  175.1020  135.5220 C   0  0  2  0  0  3  0  0  0  0  0  0
  184.3400  177.2950  139.5090 C   0  0  0  0  0  3  0  0  0  0  0  0
  183.3230  179.8520  139.0580 C   0  0  0  0  0  0  0  0  0  0  0  0
  183.5830  178.9980  137.9810 C   0  0  0  0  0  3  0  0  0  0  0  0
  184.0760  178.1420  140.5870 C   0  0  0  0  0  3  0  0  0  0  0  0
  184.1180  177.7240  138.1920 C   0  0  0  0  0  0  0  0  0  0  0  0
  182.8210  181.1170  138.8300 O   0  0  0  0  0  1  0  0  0  0  0  0
  183.5770  179.4300  140.3620 C   0  0  0  0  0  3  0  0  0  0  0  0
  179.9210  173.6210  136.7450 C   0  0  0  0  0  2  0  0  0  0  0  0
  179.6940  174.3420  139.1790 C   0  0  2  0  0  3  0  0  0  0  0  0
  181.3050  175.5740  137.6630 C   0  0  0  0  0  2  0  0  0  0  0  0
  181.1540  174.7310  138.9250 C   0  0  0  0  0  2  0  0  0  0  0  0
  178.9700  173.8590  137.9130 C   0  0  0  0  0  2  0  0  0  0  0  0
  180.6620  174.9190  136.4260 C   0  0  1  0  0  3  0  0  0  0  0  0
  178.9310  175.5160  139.7780 C   0  0  0  0  0  2  0  0  0  0  0  0
  179.6410  176.0710  141.0070 C   0  0  0  0  0  2  0  0  0  0  0  0
  179.7860  177.5780  140.9310 C   0  0  0  0  0  1  0  0  0  0  0  0
  186.8590  176.7620  137.4030 C   0  0  0  0  0  3  0  0  0  0  0  0
  187.5340  177.8920  137.1910 C   0  0  0  0  0  0  0  0  0  0  0  0
  187.1120  178.8010  136.2290 O   0  0  0  0  0  1  0  0  0  0  0  0
  188.7970  178.1290  137.9540 C   0  0  0  0  0  2  0  0  0  0  0  0
  188.6240  177.9270  139.4510 C   0  0  2  0  0  3  0  0  0  0  0  0
  187.7970  178.9010  139.9900 F   0  0  0  0  0  0  0  0  0  0  0  0
  189.8790  177.9030  140.0890 O   0  0  0  0  0  0  0  0  0  0  0  0
  189.7590  177.0440  141.2060 C   0  0  1  0  0  3  0  0  0  0  0  0
  190.5280  175.8800  141.0250 O   0  0  0  0  0  1  0  0  0  0  0  0
  187.6710  177.3700  145.0900 C   0  0  0  0  0  2  0  0  0  0  0  0
  191.9930  178.8080  144.7030 O   0  0  0  0  0  0  0  0  0  0  0  0
  190.1130  177.7870  142.5210 C   0  0  1  0  0  0  0  0  0  0  0  0
  190.8090  175.6740  143.5920 O   0  0  0  0  0  1  0  0  0  0  0  0
  191.1490  177.0210  143.4010 C   0  0  2  0  0  3  0  0  0  0  0  0
  188.2470  177.0730  143.7150 C   0  0  0  0  0  2  0  0  0  0  0  0
  191.1950  177.0720  146.0650 C   0  0  1  0  0  3  0  0  0  0  0  0
  188.7680  177.7310  146.1000 C   0  0  0  0  0  2  0  0  0  0  0  0
  191.4490  177.7110  144.7180 C   0  0  0  0  0  0  0  0  0  0  0  0
  190.7450  178.9520  142.1290 F   0  0  0  0  0  0  0  0  0  0  0  0
  189.7540  176.5850  146.2270 C   0  0  0  0  0  2  0  0  0  0  0  0
  188.9490  178.1870  143.2320 O   0  0  0  0  0  0  0  0  0  0  0  0
  192.1080  175.9570  146.2580 N   0  0  0  0  0  2  0  0  0  0  0  0
  192.0230  175.5780  147.6560 C   0  0  0  0  0  1  0  0  0  0  0  0
  1 21  1  0  0  0  0
  4  3  1  0  0  0  0
  5  9  1  0  0  0  0
  6  5  2  0  0  0  0
  6  8  1  0  0  0  0
  7 15  1  0  0  0  0
  8  4  2  0  0  0  0
  9  3  2  0  0  0  0
 10  1  1  0  0  0  0
 11 12  1  1  0  0  0
 11 16  1  0  0  0  0
 11 29  1  0  0  0  0
 12  5  1  0  0  0  0
 13  1  2  0  0  0  0
 13 33  1  0  0  0  0
 14  2  1  1  0  0  0
 14  7  1  0  0  0  0
 14 13  1  0  0  0  0
 15  9  1  6  0  0  0
 16 10  1  1  0  0  0
 16 15  1  0  0  0  0
 17 20  1  0  0  0  0
 18 23  1  0  0  0  0
 19 21  1  0  0  0  0
 19 18  2  0  0  0  0
 21 17  2  0  0  0  0
 22 18  1  0  0  0  0
 23 20  2  0  0  0  0
 24 28  1  0  0  0  0
 25 30  1  6  0  0  0
 26 27  1  0  0  0  0
 27 25  1  0  0  0  0
 28 25  1  0  0  0  0
 29 24  1  1  0  0  0
 29 26  1  0  0  0  0
 30 31  1  0  0  0  0
 32 31  1  0  0  0  0
 34 33  2  0  0  0  0
 34 36  1  0  0  0  0
 35 34  1  0  0  0  0
 36 37  1  0  0  0  0
 37 38  1  1  0  0  0
 37 39  1  0  0  0  0
 39 40  1  0  0  0  0
 40 41  1  6  0  0  0
 40 44  1  0  0  0  0
 42 49  1  0  0  0  0
 43 50  2  0  0  0  0
 44 51  1  6  0  0  0
 44 53  1  0  0  0  0
 44 46  1  0  0  0  0
 46 45  1  1  0  0  0
 46 50  1  0  0  0  0
 47 42  1  0  0  0  0
 48 52  1  0  0  0  0
 48 54  1  6  0  0  0
 49 52  1  0  0  0  0
 50 48  1  0  0  0  0
 53 47  1  0  0  0  0
 54 55  1  0  0  0  0
M  END
>  <MODEL>
4

>  <REMARK>
 VINA RESULT:      -7.3      4.765      7.533
  Name = 
  11 active torsions:
  status: ('A' for Active; 'I' for Inactive)
    1  A    between atoms: C_2  and  C_44
    2  A    between atoms: C_4  and  C_37
    3  A    between atoms: C_6  and  C_20
    4  A    between atoms: C_7  and  C_8
    5  A    between atoms: C_7  and  O_22
    6  A    between atoms: C_8  and  C_35
    7  A    between atoms: C_10  and  C_18
    8  A    between atoms: C_10  and  C_32
    9  A    between atoms: N_11  and  C_29
   10  A    between atoms: C_20  and  O_22
   11  A    between atoms: C_33  and  C_52
                            x       y       z     vdW  Elec       q    Type
                         _______ _______ _______ _____ _____    ______ ____

>  <TORSDO>
F 11

$$$$
=
 OpenBabel10262420343D

 55 60  0  0  1  0  0  0  0  0999 V2000
  184.1740  176.5460  136.9150 C   0  0  0  0  0  0  0  0  0  0  0  0
  186.5250  174.7020  134.5950 C   0  0  0  0  0  1  0  0  0  0  0  0
  183.5770  171.2170  136.4890 C   0  0  0  0  0  3  0  0  0  0  0  0
  183.0800  169.9350  136.2390 C   0  0  0  0  0  3  0  0  0  0  0  0
  181.6480  172.1400  135.3750 C   0  0  0  0  0  0  0  0  0  0  0  0
  181.2090  170.8440  135.1010 C   0  0  0  0  0  3  0  0  0  0  0  0
  184.8300  173.7170  135.9970 O   0  0  0  0  0  0  0  0  0  0  0  0
  181.9200  169.7750  135.5450 N   0  0  0  0  0  0  0  0  0  0  0  0
  182.8820  172.3310  136.0250 C   0  0  0  0  0  0  0  0  0  0  0  0
  182.8310  176.2510  136.2620 C   0  0  0  0  0  2  0  0  0  0  0  0
  181.0920  174.5900  135.5340 C   0  0  2  0  0  3  0  0  0  0  0  0
  180.8550  173.2620  134.9770 N   0  0  0  0  0  2  0  0  0  0  0  0
  185.3350  176.0260  136.4180 C   0  0  0  0  0  0  0  0  0  0  0  0
  185.2460  174.9190  135.3970 C   0  0  1  0  0  3  0  0  0  0  0  0
  183.4330  173.7160  136.2900 C   0  0  2  0  0  3  0  0  0  0  0  0
  182.5990  174.8670  135.6330 C   0  0  2  0  0  3  0  0  0  0  0  0
  184.0820  176.9890  139.3980 C   0  0  0  0  0  3  0  0  0  0  0  0
  183.9700  179.7400  138.9530 C   0  0  0  0  0  0  0  0  0  0  0  0
  184.0370  178.8550  137.8730 C   0  0  0  0  0  3  0  0  0  0  0  0
  184.0100  177.8700  140.4790 C   0  0  0  0  0  3  0  0  0  0  0  0
  184.1210  177.4750  138.0820 C   0  0  0  0  0  0  0  0  0  0  0  0
  183.9150  181.1000  138.7280 O   0  0  0  0  0  1  0  0  0  0  0  0
  183.9650  179.2510  140.2580 C   0  0  0  0  0  3  0  0  0  0  0  0
  179.9060  173.4810  137.4910 C   0  0  0  0  0  2  0  0  0  0  0  0
  179.9240  174.5660  139.7960 C   0  0  2  0  0  3  0  0  0  0  0  0
  181.0310  175.7550  137.8550 C   0  0  0  0  0  2  0  0  0  0  0  0
  181.2310  175.1290  139.2310 C   0  0  0  0  0  2  0  0  0  0  0  0
  179.1170  173.7640  138.7640 C   0  0  0  0  0  2  0  0  0  0  0  0
  180.3390  174.8040  136.8610 C   0  0  1  0  0  3  0  0  0  0  0  0
  179.0580  175.6910  140.3490 C   0  0  0  0  0  2  0  0  0  0  0  0
  179.9050  176.8840  140.7770 C   0  0  0  0  0  2  0  0  0  0  0  0
  179.4700  178.1550  140.0730 C   0  0  0  0  0  1  0  0  0  0  0  0
  186.6840  176.3810  136.9450 C   0  0  0  0  0  3  0  0  0  0  0  0
  187.4320  177.3970  136.5160 C   0  0  0  0  0  0  0  0  0  0  0  0
  186.9930  178.2160  135.4830 O   0  0  0  0  0  1  0  0  0  0  0  0
  188.7880  177.5950  137.1140 C   0  0  0  0  0  2  0  0  0  0  0  0
  188.8450  178.7860  138.0560 C   0  0  2  0  0  3  0  0  0  0  0  0
  189.4120  179.8860  137.4310 F   0  0  0  0  0  0  0  0  0  0  0  0
  189.5390  178.4470  139.2340 O   0  0  0  0  0  0  0  0  0  0  0  0
  188.6410  178.6310  140.3110 C   0  0  1  0  0  3  0  0  0  0  0  0
  187.3100  178.6410  139.8560 O   0  0  0  0  0  1  0  0  0  0  0  0
  190.9230  178.7540  144.0970 C   0  0  0  0  0  2  0  0  0  0  0  0
  188.0800  175.2730  143.2660 O   0  0  0  0  0  0  0  0  0  0  0  0
  188.8780  177.5740  141.4200 C   0  0  1  0  0  0  0  0  0  0  0  0
  187.2440  178.6830  142.9020 O   0  0  0  0  0  1  0  0  0  0  0  0
  187.6800  177.4430  142.4120 C   0  0  2  0  0  3  0  0  0  0  0  0
  190.1520  178.9480  142.8010 C   0  0  0  0  0  2  0  0  0  0  0  0
  187.9220  176.8480  144.9990 C   0  0  1  0  0  3  0  0  0  0  0  0
  190.3040  177.6540  144.9670 C   0  0  0  0  0  2  0  0  0  0  0  0
  187.9330  176.4580  143.5370 C   0  0  0  0  0  0  0  0  0  0  0  0
  188.9530  176.3600  140.7640 F   0  0  0  0  0  0  0  0  0  0  0  0
  188.8690  178.0090  145.3090 C   0  0  0  0  0  2  0  0  0  0  0  0
  190.1320  177.7540  142.0650 O   0  0  0  0  0  0  0  0  0  0  0  0
  186.5710  177.2050  145.3990 N   0  0  0  0  0  2  0  0  0  0  0  0
  186.6890  178.1340  146.5080 C   0  0  0  0  0  1  0  0  0  0  0  0
  1 21  1  0  0  0  0
  4  3  1  0  0  0  0
  5  9  1  0  0  0  0
  6  5  2  0  0  0  0
  6  8  1  0  0  0  0
  8  4  2  0  0  0  0
  9 15  1  0  0  0  0
  9  3  2  0  0  0  0
 10  1  1  0  0  0  0
 11 12  1  1  0  0  0
 11 16  1  0  0  0  0
 11 29  1  0  0  0  0
 12  5  1  0  0  0  0
 13  1  2  0  0  0  0
 13 33  1  0  0  0  0
 14  2  1  1  0  0  0
 14  7  1  0  0  0  0
 14 13  1  0  0  0  0
 15  7  1  6  0  0  0
 16 10  1  1  0  0  0
 16 15  1  0  0  0  0
 17 20  1  0  0  0  0
 18 23  1  0  0  0  0
 19 21  1  0  0  0  0
 19 18  2  0  0  0  0
 21 17  2  0  0  0  0
 22 18  1  0  0  0  0
 23 20  2  0  0  0  0
 24 28  1  0  0  0  0
 25 30  1  6  0  0  0
 26 27  1  0  0  0  0
 27 25  1  0  0  0  0
 28 25  1  0  0  0  0
 29 24  1  1  0  0  0
 29 26  1  0  0  0  0
 30 31  1  0  0  0  0
 32 31  1  0  0  0  0
 34 33  2  0  0  0  0
 34 36  1  0  0  0  0
 35 34  1  0  0  0  0
 36 37  1  0  0  0  0
 37 38  1  6  0  0  0
 37 39  1  0  0  0  0
 39 40  1  0  0  0  0
 40 41  1  6  0  0  0
 40 44  1  0  0  0  0
 42 49  1  0  0  0  0
 43 50  2  0  0  0  0
 44 51  1  6  0  0  0
 44 53  1  0  0  0  0
 44 46  1  0  0  0  0
 46 45  1  1  0  0  0
 46 50  1  0  0  0  0
 47 42  1  0  0  0  0
 48 52  1  0  0  0  0
 48 54  1  6  0  0  0
 49 52  1  0  0  0  0
 50 48  1  0  0  0  0
 53 47  1  0  0  0  0
 54 55  1  0  0  0  0
M  END
>  <MODEL>
5

>  <REMARK>
 VINA RESULT:      -7.2      4.927      7.639
  Name = 
  11 active torsions:
  status: ('A' for Active; 'I' for Inactive)
    1  A    between atoms: C_2  and  C_44
    2  A    between atoms: C_4  and  C_37
    3  A    between atoms: C_6  and  C_20
    4  A    between atoms: C_7  and  C_8
    5  A    between atoms: C_7  and  O_22
    6  A    between atoms: C_8  and  C_35
    7  A    between atoms: C_10  and  C_18
    8  A    between atoms: C_10  and  C_32
    9  A    between atoms: N_11  and  C_29
   10  A    between atoms: C_20  and  O_22
   11  A    between atoms: C_33  and  C_52
                            x       y       z     vdW  Elec       q    Type
                         _______ _______ _______ _____ _____    ______ ____

>  <TORSDO>
F 11

$$$$
=
 OpenBabel10262420343D

 55 60  0  0  1  0  0  0  0  0999 V2000
  185.7060  178.6420  139.7420 C   0  0  0  0  0  0  0  0  0  0  0  0
  186.7820  178.0100  136.1700 C   0  0  0  0  0  1  0  0  0  0  0  0
  182.2860  175.9920  136.5450 C   0  0  0  0  0  3  0  0  0  0  0  0
  181.1800  175.6100  135.7810 C   0  0  0  0  0  3  0  0  0  0  0  0
  181.2650  178.1510  136.8780 C   0  0  0  0  0  0  0  0  0  0  0  0
  180.2000  177.7510  136.0700 C   0  0  0  0  0  3  0  0  0  0  0  0
  184.7420  177.2540  137.2070 O   0  0  0  0  0  0  0  0  0  0  0  0
  180.1700  176.4950  135.5520 N   0  0  0  0  0  0  0  0  0  0  0  0
  182.3550  177.2800  137.0690 C   0  0  0  0  0  0  0  0  0  0  0  0
  184.4680  179.5010  139.5240 C   0  0  0  0  0  2  0  0  0  0  0  0
  182.1500  179.7670  138.5930 C   0  0  2  0  0  3  0  0  0  0  0  0
  181.2530  179.4440  137.4880 N   0  0  0  0  0  2  0  0  0  0  0  0
  186.4130  178.1360  138.6890 C   0  0  0  0  0  0  0  0  0  0  0  0
  185.7900  178.1860  137.3150 C   0  0  1  0  0  3  0  0  0  0  0  0
  183.5630  177.6890  137.8840 C   0  0  2  0  0  3  0  0  0  0  0  0
  183.5480  179.1900  138.3320 C   0  0  2  0  0  3  0  0  0  0  0  0
  185.1470  178.4310  142.1930 C   0  0  0  0  0  3  0  0  0  0  0  0
  187.8500  178.2010  142.8400 C   0  0  0  0  0  0  0  0  0  0  0  0
  187.4570  178.3620  141.5080 C   0  0  0  0  0  3  0  0  0  0  0  0
  185.5360  178.2750  143.5260 C   0  0  0  0  0  3  0  0  0  0  0  0
  186.1040  178.4520  141.1670 C   0  0  0  0  0  0  0  0  0  0  0  0
  189.1890  178.0870  143.1560 O   0  0  0  0  0  1  0  0  0  0  0  0
  186.8920  178.1480  143.8510 C   0  0  0  0  0  3  0  0  0  0  0  0
  180.3290  180.1870  140.3170 C   0  0  0  0  0  2  0  0  0  0  0  0
  179.4690  178.2850  141.7790 C   0  0  2  0  0  3  0  0  0  0  0  0
  181.3530  177.8430  140.1470 C   0  0  0  0  0  2  0  0  0  0  0  0
  179.9270  177.4880  140.5550 C   0  0  0  0  0  2  0  0  0  0  0  0
  179.8320  179.7750  141.6990 C   0  0  0  0  0  2  0  0  0  0  0  0
  181.5610  179.3570  139.9560 C   0  0  1  0  0  3  0  0  0  0  0  0
  180.0630  177.6900  143.0500 C   0  0  0  0  0  2  0  0  0  0  0  0
  180.6210  178.7760  143.9630 C   0  0  0  0  0  2  0  0  0  0  0  0
  182.1340  178.7070  144.0470 C   0  0  0  0  0  1  0  0  0  0  0  0
  187.6970  177.3940  138.8440 C   0  0  0  0  0  3  0  0  0  0  0  0
  188.9120  177.9270  138.7140 C   0  0  0  0  0  0  0  0  0  0  0  0
  189.0680  179.2680  138.3850 O   0  0  0  0  0  1  0  0  0  0  0  0
  190.1060  177.0370  138.8530 C   0  0  0  0  0  2  0  0  0  0  0  0
  190.7920  176.7650  137.5250 C   0  0  2  0  0  3  0  0  0  0  0  0
  190.2300  175.6670  136.8920 F   0  0  0  0  0  0  0  0  0  0  0  0
  192.1780  176.5990  137.7150 O   0  0  0  0  0  0  0  0  0  0  0  0
  192.6500  175.7980  136.6490 C   0  0  1  0  0  3  0  0  0  0  0  0
  193.4320  176.5590  135.7610 O   0  0  0  0  0  1  0  0  0  0  0  0
  194.7990  172.5240  134.5960 C   0  0  0  0  0  2  0  0  0  0  0  0
  195.2050  173.0260  139.1210 O   0  0  0  0  0  0  0  0  0  0  0  0
  193.4030  174.5520  137.1810 C   0  0  1  0  0  0  0  0  0  0  0  0
  195.5860  175.6280  136.7670 O   0  0  0  0  0  1  0  0  0  0  0  0
  194.8440  174.8730  137.6870 C   0  0  2  0  0  3  0  0  0  0  0  0
  194.0780  173.7660  135.0960 C   0  0  0  0  0  2  0  0  0  0  0  0
  196.9100  173.1980  137.5190 C   0  0  1  0  0  3  0  0  0  0  0  0
  195.7680  171.9680  135.6470 C   0  0  0  0  0  2  0  0  0  0  0  0
  195.6100  173.6480  138.1470 C   0  0  0  0  0  0  0  0  0  0  0  0
  192.6990  174.1420  138.2970 F   0  0  0  0  0  0  0  0  0  0  0  0
  196.8050  173.0170  136.0030 C   0  0  0  0  0  2  0  0  0  0  0  0
  193.3530  173.4700  136.2600 O   0  0  0  0  0  0  0  0  0  0  0  0
  197.9570  174.1620  137.8190 N   0  0  0  0  0  2  0  0  0  0  0  0
  199.0600  173.8840  136.9170 C   0  0  0  0  0  1  0  0  0  0  0  0
  1 21  1  0  0  0  0
  3  9  1  0  0  0  0
  4  3  2  0  0  0  0
  5  9  2  0  0  0  0
  5 12  1  0  0  0  0
  6  5  1  0  0  0  0
  7 14  1  0  0  0  0
  7 15  1  0  0  0  0
  8  4  1  0  0  0  0
  8  6  2  0  0  0  0
 10  1  1  0  0  0  0
 11 12  1  6  0  0  0
 11 29  1  0  0  0  0
 13 33  1  0  0  0  0
 13  1  2  0  0  0  0
 14  2  1  6  0  0  0
 14 13  1  0  0  0  0
 15  9  1  6  0  0  0
 15 16  1  0  0  0  0
 16 11  1  0  0  0  0
 16 10  1  1  0  0  0
 17 20  1  0  0  0  0
 18 22  1  0  0  0  0
 18 23  1  0  0  0  0
 19 18  2  0  0  0  0
 20 23  2  0  0  0  0
 21 19  1  0  0  0  0
 21 17  2  0  0  0  0
 24 28  1  0  0  0  0
 25 30  1  1  0  0  0
 26 27  1  0  0  0  0
 27 25  1  0  0  0  0
 28 25  1  0  0  0  0
 29 26  1  6  0  0  0
 29 24  1  0  0  0  0
 30 31  1  0  0  0  0
 31 32  1  0  0  0  0
 34 33  2  0  0  0  0
 34 36  1  0  0  0  0
 35 34  1  0  0  0  0
 37 38  1  1  0  0  0
 37 39  1  0  0  0  0
 37 36  1  0  0  0  0
 40 41  1  6  0  0  0
 40 44  1  0  0  0  0
 40 39  1  0  0  0  0
 42 47  1  0  0  0  0
 42 49  1  0  0  0  0
 44 46  1  0  0  0  0
 44 51  1  1  0  0  0
 46 45  1  6  0  0  0
 46 50  1  0  0  0  0
 47 53  1  0  0  0  0
 48 54  1  6  0  0  0
 48 50  1  0  0  0  0
 49 52  1  0  0  0  0
 50 43  2  0  0  0  0
 52 48  1  0  0  0  0
 53 44  1  0  0  0  0
 55 54  1  0  0  0  0
M  END
>  <MODEL>
6

>  <REMARK>
 VINA RESULT:      -7.1      1.862      3.215
  Name = 
  11 active torsions:
  status: ('A' for Active; 'I' for Inactive)
    1  A    between atoms: C_2  and  C_44
    2  A    between atoms: C_4  and  C_37
    3  A    between atoms: C_6  and  C_20
    4  A    between atoms: C_7  and  C_8
    5  A    between atoms: C_7  and  O_22
    6  A    between atoms: C_8  and  C_35
    7  A    between atoms: C_10  and  C_18
    8  A    between atoms: C_10  and  C_32
    9  A    between atoms: N_11  and  C_29
   10  A    between atoms: C_20  and  O_22
   11  A    between atoms: C_33  and  C_52
                            x       y       z     vdW  Elec       q    Type
                         _______ _______ _______ _____ _____    ______ ____

>  <TORSDO>
F 11

$$$$
=
 OpenBabel10262420343D

 55 60  0  0  1  0  0  0  0  0999 V2000
  187.2500  177.8770  138.3580 C   0  0  0  0  0  0  0  0  0  0  0  0
  186.2010  179.4910  141.6140 C   0  0  0  0  0  1  0  0  0  0  0  0
  189.4090  175.9570  142.8950 C   0  0  0  0  0  3  0  0  0  0  0  0
  190.2930  175.5820  143.9110 C   0  0  0  0  0  3  0  0  0  0  0  0
  191.2220  177.1000  141.7900 C   0  0  0  0  0  0  0  0  0  0  0  0
  192.0630  176.7490  142.8470 C   0  0  0  0  0  3  0  0  0  0  0  0
  187.6780  177.6030  141.3610 O   0  0  0  0  0  0  0  0  0  0  0  0
  191.5910  175.9920  143.8730 N   0  0  0  0  0  0  0  0  0  0  0  0
  189.8590  176.7510  141.8440 C   0  0  0  0  0  0  0  0  0  0  0  0
  188.7440  178.1700  138.3560 C   0  0  0  0  0  2  0  0  0  0  0  0
  191.0060  177.9100  139.4170 C   0  0  2  0  0  3  0  0  0  0  0  0
  191.7430  177.8260  140.6740 N   0  0  0  0  0  2  0  0  0  0  0  0
  186.4530  178.2530  139.4010 C   0  0  0  0  0  0  0  0  0  0  0  0
  187.1130  178.6980  140.6840 C   0  0  1  0  0  3  0  0  0  0  0  0
  188.8920  177.1620  140.7550 C   0  0  2  0  0  3  0  0  0  0  0  0
  189.5110  178.1280  139.6880 C   0  0  2  0  0  3  0  0  0  0  0  0
  185.6640  177.7500  136.3990 C   0  0  0  0  0  3  0  0  0  0  0  0
  186.7880  175.3330  135.5820 C   0  0  0  0  0  0  0  0  0  0  0  0
  187.2700  175.9820  136.7220 C   0  0  0  0  0  3  0  0  0  0  0  0
  185.1760  177.1010  135.2630 C   0  0  0  0  0  3  0  0  0  0  0  0
  186.7330  177.2080  137.1280 C   0  0  0  0  0  0  0  0  0  0  0  0
  187.3480  174.1370  135.1800 O   0  0  0  0  0  1  0  0  0  0  0  0
  185.7470  175.8940  134.8450 C   0  0  0  0  0  3  0  0  0  0  0  0
  190.6570  176.8850  137.1170 C   0  0  0  0  0  2  0  0  0  0  0  0
  192.4280  175.3620  136.0980 C   0  0  2  0  0  3  0  0  0  0  0  0
  192.7720  176.2800  138.4320 C   0  0  0  0  0  2  0  0  0  0  0  0
  193.3120  176.2210  137.0070 C   0  0  0  0  0  2  0  0  0  0  0  0
  190.9280  175.6420  136.2760 C   0  0  0  0  0  2  0  0  0  0  0  0
  191.2950  176.7110  138.4950 C   0  0  1  0  0  3  0  0  0  0  0  0
  192.6970  173.8830  136.3430 C   0  0  0  0  0  2  0  0  0  0  0  0
  191.5630  173.0170  135.8060 C   0  0  0  0  0  2  0  0  0  0  0  0
  192.0920  171.8510  134.9930 C   0  0  0  0  0  1  0  0  0  0  0  0
  184.9700  178.0990  139.3980 C   0  0  0  0  0  3  0  0  0  0  0  0
  184.0980  179.0740  139.1400 C   0  0  0  0  0  0  0  0  0  0  0  0
  184.5350  180.3640  138.8680 O   0  0  0  0  0  1  0  0  0  0  0  0
  182.6360  178.7700  139.2230 C   0  0  0  0  0  2  0  0  0  0  0  0
  182.3350  177.5740  140.1100 C   0  0  2  0  0  3  0  0  0  0  0  0
  182.6680  177.8380  141.4300 F   0  0  0  0  0  0  0  0  0  0  0  0
  182.9990  176.4290  139.6280 O   0  0  0  0  0  0  0  0  0  0  0  0
  182.0160  175.5940  139.0470 C   0  0  1  0  0  3  0  0  0  0  0  0
  180.7330  176.1480  139.2060 O   0  0  0  0  0  1  0  0  0  0  0  0
  184.7710  172.7020  137.1490 C   0  0  0  0  0  2  0  0  0  0  0  0
  181.7000  174.9290  134.5990 O   0  0  0  0  0  0  0  0  0  0  0  0
  182.3490  175.2910  137.5630 C   0  0  1  0  0  0  0  0  0  0  0  0
  180.9680  173.2450  137.6140 O   0  0  0  0  0  1  0  0  0  0  0  0
  181.2850  174.3880  136.8650 C   0  0  2  0  0  3  0  0  0  0  0  0
  183.8470  173.5630  137.9960 C   0  0  0  0  0  2  0  0  0  0  0  0
  181.8330  172.6130  134.9540 C   0  0  1  0  0  3  0  0  0  0  0  0
  184.2230  172.5080  135.7300 C   0  0  0  0  0  2  0  0  0  0  0  0
  181.6390  174.0340  135.4330 C   0  0  0  0  0  0  0  0  0  0  0  0
  182.2880  176.5100  136.9140 F   0  0  0  0  0  0  0  0  0  0  0  0
  182.8600  171.8430  135.7860 C   0  0  0  0  0  2  0  0  0  0  0  0
  183.6820  174.8240  137.4040 O   0  0  0  0  0  0  0  0  0  0  0  0
  180.5610  171.9100  134.9820 N   0  0  0  0  0  2  0  0  0  0  0  0
  180.8430  170.5410  135.3740 C   0  0  0  0  0  1  0  0  0  0  0  0
  1 13  2  0  0  0  0
  3  4  1  0  0  0  0
  5  9  1  0  0  0  0
  5  6  2  0  0  0  0
  6  8  1  0  0  0  0
  8  4  2  0  0  0  0
  9  3  2  0  0  0  0
 10  1  1  0  0  0  0
 11 16  1  0  0  0  0
 11 12  1  1  0  0  0
 12  5  1  0  0  0  0
 13 14  1  0  0  0  0
 14  7  1  0  0  0  0
 14  2  1  1  0  0  0
 15  7  1  1  0  0  0
 15  9  1  0  0  0  0
 16 10  1  6  0  0  0
 16 15  1  0  0  0  0
 17 21  1  0  0  0  0
 18 19  1  0  0  0  0
 19 21  2  0  0  0  0
 20 17  2  0  0  0  0
 21  1  1  0  0  0  0
 22 18  1  0  0  0  0
 23 20  1  0  0  0  0
 23 18  2  0  0  0  0
 25 28  1  0  0  0  0
 25 30  1  1  0  0  0
 25 27  1  0  0  0  0
 26 29  1  0  0  0  0
 27 26  1  0  0  0  0
 28 24  1  0  0  0  0
 29 24  1  6  0  0  0
 29 11  1  0  0  0  0
 31 30  1  0  0  0  0
 32 31  1  0  0  0  0
 33 13  1  0  0  0  0
 34 36  1  0  0  0  0
 34 33  2  0  0  0  0
 35 34  1  0  0  0  0
 36 37  1  0  0  0  0
 37 38  1  1  0  0  0
 39 37  1  0  0  0  0
 40 41  1  6  0  0  0
 40 39  1  0  0  0  0
 42 47  1  0  0  0  0
 43 50  2  0  0  0  0
 44 51  1  6  0  0  0
 44 40  1  0  0  0  0
 46 44  1  0  0  0  0
 46 45  1  1  0  0  0
 48 54  1  1  0  0  0
 48 50  1  0  0  0  0
 48 52  1  0  0  0  0
 49 52  1  0  0  0  0
 49 42  1  0  0  0  0
 50 46  1  0  0  0  0
 53 44  1  0  0  0  0
 53 47  1  0  0  0  0
 54 55  1  0  0  0  0
M  END
>  <MODEL>
7

>  <REMARK>
 VINA RESULT:      -6.7      3.969     10.231
  Name = 
  11 active torsions:
  status: ('A' for Active; 'I' for Inactive)
    1  A    between atoms: C_2  and  C_44
    2  A    between atoms: C_4  and  C_37
    3  A    between atoms: C_6  and  C_20
    4  A    between atoms: C_7  and  C_8
    5  A    between atoms: C_7  and  O_22
    6  A    between atoms: C_8  and  C_35
    7  A    between atoms: C_10  and  C_18
    8  A    between atoms: C_10  and  C_32
    9  A    between atoms: N_11  and  C_29
   10  A    between atoms: C_20  and  O_22
   11  A    between atoms: C_33  and  C_52
                            x       y       z     vdW  Elec       q    Type
                         _______ _______ _______ _____ _____    ______ ____

>  <TORSDO>
F 11

$$$$
=
 OpenBabel10262420343D

 55 60  0  0  1  0  0  0  0  0999 V2000
  184.1300  178.3530  140.4280 C   0  0  0  0  0  0  0  0  0  0  0  0
  186.9300  179.8130  142.5100 C   0  0  0  0  0  1  0  0  0  0  0  0
  189.1460  176.7540  139.3230 C   0  0  0  0  0  3  0  0  0  0  0  0
  190.3730  176.5070  138.7000 C   0  0  0  0  0  3  0  0  0  0  0  0
  188.5160  178.1340  137.4480 C   0  0  0  0  0  0  0  0  0  0  0  0
  189.7700  177.9040  136.8810 C   0  0  0  0  0  3  0  0  0  0  0  0
  187.1480  178.1450  140.7840 O   0  0  0  0  0  0  0  0  0  0  0  0
  190.6620  177.0910  137.5050 N   0  0  0  0  0  0  0  0  0  0  0  0
  188.2210  177.6020  138.7180 C   0  0  0  0  0  0  0  0  0  0  0  0
  184.5110  178.8490  139.0390 C   0  0  0  0  0  2  0  0  0  0  0  0
  186.1410  178.9040  137.1290 C   0  0  2  0  0  3  0  0  0  0  0  0
  187.5500  178.9230  136.7490 N   0  0  0  0  0  2  0  0  0  0  0  0
  184.9110  178.6180  141.5160 C   0  0  0  0  0  0  0  0  0  0  0  0
  186.3040  179.1520  141.2870 C   0  0  1  0  0  3  0  0  0  0  0  0
  186.9000  177.8740  139.4050 C   0  0  2  0  0  3  0  0  0  0  0  0
  185.9990  178.9150  138.6570 C   0  0  2  0  0  3  0  0  0  0  0  0
  182.6610  176.3780  139.8720 C   0  0  0  0  0  3  0  0  0  0  0  0
  180.5130  177.5330  141.2240 C   0  0  0  0  0  0  0  0  0  0  0  0
  181.7400  178.1980  141.1560 C   0  0  0  0  0  3  0  0  0  0  0  0
  181.4340  175.7130  139.9330 C   0  0  0  0  0  3  0  0  0  0  0  0
  182.8330  177.6180  140.5040 C   0  0  0  0  0  0  0  0  0  0  0  0
  179.4520  178.1080  141.8940 O   0  0  0  0  0  1  0  0  0  0  0  0
  180.3590  176.2850  140.6210 C   0  0  0  0  0  3  0  0  0  0  0  0
  186.1770  177.1300  135.3080 C   0  0  0  0  0  2  0  0  0  0  0  0
  184.9190  174.9350  135.6160 C   0  0  2  0  0  3  0  0  0  0  0  0
  184.7730  176.7140  137.4110 C   0  0  0  0  0  2  0  0  0  0  0  0
  185.1960  175.2860  137.0800 C   0  0  0  0  0  2  0  0  0  0  0  0
  185.3410  176.0430  134.6390 C   0  0  0  0  0  2  0  0  0  0  0  0
  185.3740  177.7540  136.4480 C   0  0  1  0  0  3  0  0  0  0  0  0
  183.4410  174.6250  135.4170 C   0  0  0  0  0  2  0  0  0  0  0  0
  182.9140  173.7070  136.5140 C   0  0  0  0  0  2  0  0  0  0  0  0
  183.4300  172.2910  136.3480 C   0  0  0  0  0  1  0  0  0  0  0  0
  184.5220  178.2620  142.9110 C   0  0  0  0  0  3  0  0  0  0  0  0
  183.9870  179.1020  143.7960 C   0  0  0  0  0  0  0  0  0  0  0  0
  183.7680  180.4350  143.4700 O   0  0  0  0  0  1  0  0  0  0  0  0
  183.6950  178.6030  145.1750 C   0  0  0  0  0  2  0  0  0  0  0  0
  184.7680  178.9910  146.1790 C   0  0  2  0  0  3  0  0  0  0  0  0
  185.5590  180.0190  145.6870 F   0  0  0  0  0  0  0  0  0  0  0  0
  185.5410  177.8670  146.5280 O   0  0  0  0  0  0  0  0  0  0  0  0
  186.8140  178.3440  146.9180 C   0  0  1  0  0  3  0  0  0  0  0  0
  186.8110  178.7280  148.2710 O   0  0  0  0  0  1  0  0  0  0  0  0
  187.9130  176.2080  143.2050 C   0  0  0  0  0  2  0  0  0  0  0  0
  190.7110  176.0780  146.8170 O   0  0  0  0  0  0  0  0  0  0  0  0
  187.9190  177.3030  146.6020 C   0  0  1  0  0  0  0  0  0  0  0  0
  189.2920  179.0190  145.4780 O   0  0  0  0  0  1  0  0  0  0  0  0
  189.3240  177.9440  146.3780 C   0  0  2  0  0  3  0  0  0  0  0  0
  187.4160  177.0900  144.3390 C   0  0  0  0  0  2  0  0  0  0  0  0
  191.1670  176.9930  144.7050 C   0  0  1  0  0  3  0  0  0  0  0  0
  189.3770  175.7980  143.4040 C   0  0  0  0  0  2  0  0  0  0  0  0
  190.3950  176.9380  146.0040 C   0  0  0  0  0  0  0  0  0  0  0  0
  188.0380  176.5320  147.7440 F   0  0  0  0  0  0  0  0  0  0  0  0
  190.2570  177.0320  143.4760 C   0  0  0  0  0  2  0  0  0  0  0  0
  187.5290  176.4140  145.5640 O   0  0  0  0  0  0  0  0  0  0  0  0
  192.0360  178.1580  144.7020 N   0  0  0  0  0  2  0  0  0  0  0  0
  191.6420  178.9770  143.5690 C   0  0  0  0  0  1  0  0  0  0  0  0
  1 21  1  0  0  0  0
  1 13  2  0  0  0  0
  4  3  2  0  0  0  0
  5  9  2  0  0  0  0
  6  5  1  0  0  0  0
  6  8  2  0  0  0  0
  7 14  1  0  0  0  0
  8  4  1  0  0  0  0
  9  3  1  0  0  0  0
 10  1  1  0  0  0  0
 11 12  1  1  0  0  0
 11 16  1  0  0  0  0
 12  5  1  0  0  0  0
 13 33  1  0  0  0  0
 14 13  1  0  0  0  0
 14  2  1  1  0  0  0
 15  9  1  6  0  0  0
 15  7  1  0  0  0  0
 16 10  1  6  0  0  0
 16 15  1  0  0  0  0
 17 20  2  0  0  0  0
 17 21  1  0  0  0  0
 18 22  1  0  0  0  0
 19 18  1  0  0  0  0
 20 23  1  0  0  0  0
 21 19  2  0  0  0  0
 23 18  2  0  0  0  0
 25 30  1  1  0  0  0
 25 27  1  0  0  0  0
 27 26  1  0  0  0  0
 28 24  1  0  0  0  0
 28 25  1  0  0  0  0
 29 24  1  6  0  0  0
 29 11  1  0  0  0  0
 29 26  1  0  0  0  0
 30 31  1  0  0  0  0
 32 31  1  0  0  0  0
 33 34  2  0  0  0  0
 34 36  1  0  0  0  0
 35 34  1  0  0  0  0
 36 37  1  0  0  0  0
 37 38  1  6  0  0  0
 37 39  1  0  0  0  0
 39 40  1  0  0  0  0
 40 41  1  1  0  0  0
 42 49  1  0  0  0  0
 42 47  1  0  0  0  0
 44 40  1  0  0  0  0
 44 51  1  1  0  0  0
 46 45  1  6  0  0  0
 46 44  1  0  0  0  0
 47 53  1  0  0  0  0
 48 54  1  1  0  0  0
 48 50  1  0  0  0  0
 49 52  1  0  0  0  0
 50 46  1  0  0  0  0
 50 43  2  0  0  0  0
 52 48  1  0  0  0  0
 53 44  1  0  0  0  0
 55 54  1  0  0  0  0
M  END
>  <MODEL>
8

>  <REMARK>
 VINA RESULT:      -6.3      5.089      9.244
  Name = 
  11 active torsions:
  status: ('A' for Active; 'I' for Inactive)
    1  A    between atoms: C_2  and  C_44
    2  A    between atoms: C_4  and  C_37
    3  A    between atoms: C_6  and  C_20
    4  A    between atoms: C_7  and  C_8
    5  A    between atoms: C_7  and  O_22
    6  A    between atoms: C_8  and  C_35
    7  A    between atoms: C_10  and  C_18
    8  A    between atoms: C_10  and  C_32
    9  A    between atoms: N_11  and  C_29
   10  A    between atoms: C_20  and  O_22
   11  A    between atoms: C_33  and  C_52
                            x       y       z     vdW  Elec       q    Type
                         _______ _______ _______ _____ _____    ______ ____

>  <TORSDO>
F 11

$$$$
=
 OpenBabel10262420343D

 55 60  0  0  1  0  0  0  0  0999 V2000
  181.8460  177.6620  138.7850 C   0  0  0  0  0  0  0  0  0  0  0  0
  184.3640  180.4670  139.1000 C   0  0  0  0  0  1  0  0  0  0  0  0
  186.9390  176.5990  137.4190 C   0  0  0  0  0  3  0  0  0  0  0  0
  188.1040  176.2660  136.7200 C   0  0  0  0  0  3  0  0  0  0  0  0
  185.7350  176.6120  135.3300 C   0  0  0  0  0  0  0  0  0  0  0  0
  186.9270  176.3280  134.6620 C   0  0  0  0  0  3  0  0  0  0  0  0
  184.8250  178.1960  138.4380 O   0  0  0  0  0  0  0  0  0  0  0  0
  188.0770  176.1480  135.3640 N   0  0  0  0  0  0  0  0  0  0  0  0
  185.7520  176.8120  136.7230 C   0  0  0  0  0  0  0  0  0  0  0  0
  181.9080  177.3830  137.2890 C   0  0  0  0  0  2  0  0  0  0  0  0
  183.2200  176.6700  135.2690 C   0  0  2  0  0  3  0  0  0  0  0  0
  184.5130  176.7190  134.5950 N   0  0  0  0  0  2  0  0  0  0  0  0
  182.6480  178.6020  139.3660 C   0  0  0  0  0  0  0  0  0  0  0  0
  183.8030  179.1540  138.5660 C   0  0  1  0  0  3  0  0  0  0  0  0
  184.4990  177.1840  137.4860 C   0  0  2  0  0  3  0  0  0  0  0  0
  183.2640  177.4820  136.5700 C   0  0  2  0  0  3  0  0  0  0  0  0
  179.9220  177.5060  140.4100 C   0  0  0  0  0  3  0  0  0  0  0  0
  179.8480  174.7320  140.1320 C   0  0  0  0  0  0  0  0  0  0  0  0
  180.7900  175.4850  139.4250 C   0  0  0  0  0  3  0  0  0  0  0  0
  178.9820  176.7570  141.1220 C   0  0  0  0  0  3  0  0  0  0  0  0
  180.8210  176.8790  139.5340 C   0  0  0  0  0  0  0  0  0  0  0  0
  179.8140  173.3600  139.9910 O   0  0  0  0  0  1  0  0  0  0  0  0
  178.9360  175.3660  140.9750 C   0  0  0  0  0  3  0  0  0  0  0  0
  182.8610  174.7640  136.9150 C   0  0  0  0  0  2  0  0  0  0  0  0
  180.9570  173.1050  136.5760 C   0  0  2  0  0  3  0  0  0  0  0  0
  181.3390  174.9250  134.8590 C   0  0  0  0  0  2  0  0  0  0  0  0
  180.3660  174.3290  135.8710 C   0  0  0  0  0  2  0  0  0  0  0  0
  182.4100  173.3120  137.0280 C   0  0  0  0  0  2  0  0  0  0  0  0
  182.7230  175.2240  135.4640 C   0  0  1  0  0  3  0  0  0  0  0  0
  180.8810  171.8840  135.6680 C   0  0  0  0  0  2  0  0  0  0  0  0
  180.3800  170.6600  136.4260 C   0  0  0  0  0  2  0  0  0  0  0  0
  179.1830  170.0320  135.7370 C   0  0  0  0  0  1  0  0  0  0  0  0
  182.5420  178.9990  140.7990 C   0  0  0  0  0  3  0  0  0  0  0  0
  183.2530  178.4720  141.7960 C   0  0  0  0  0  0  0  0  0  0  0  0
  184.1660  177.4520  141.5550 O   0  0  0  0  0  1  0  0  0  0  0  0
  182.9960  178.9450  143.1910 C   0  0  0  0  0  2  0  0  0  0  0  0
  184.2730  179.3070  143.9310 C   0  0  2  0  0  3  0  0  0  0  0  0
  185.0550  180.1710  143.1790 F   0  0  0  0  0  0  0  0  0  0  0  0
  184.9820  178.1420  144.2830 O   0  0  0  0  0  0  0  0  0  0  0  0
  186.3570  178.4670  144.2470 C   0  0  1  0  0  3  0  0  0  0  0  0
  186.8550  178.6770  145.5460 O   0  0  0  0  0  1  0  0  0  0  0  0
  187.9380  178.3370  140.1190 C   0  0  0  0  0  2  0  0  0  0  0  0
  189.2710  175.2010  143.1660 O   0  0  0  0  0  0  0  0  0  0  0  0
  187.1630  177.3920  143.4720 C   0  0  1  0  0  0  0  0  0  0  0  0
  189.2500  178.6830  143.7430 O   0  0  0  0  0  1  0  0  0  0  0  0
  188.6870  177.4010  143.8120 C   0  0  2  0  0  3  0  0  0  0  0  0
  187.3740  178.6150  141.5030 C   0  0  0  0  0  2  0  0  0  0  0  0
  190.6200  176.7880  142.0840 C   0  0  1  0  0  3  0  0  0  0  0  0
  189.0820  177.3160  140.1660 C   0  0  0  0  0  2  0  0  0  0  0  0
  189.4900  176.3960  143.0090 C   0  0  0  0  0  0  0  0  0  0  0  0
  186.6870  176.1760  143.9250 F   0  0  0  0  0  0  0  0  0  0  0  0
  190.2030  177.8340  141.0490 C   0  0  0  0  0  2  0  0  0  0  0  0
  186.8920  177.4290  142.0780 O   0  0  0  0  0  0  0  0  0  0  0  0
  191.7360  177.2970  142.8640 N   0  0  0  0  0  2  0  0  0  0  0  0
  191.7230  176.5900  144.1320 C   0  0  0  0  0  1  0  0  0  0  0  0
  1 13  2  0  0  0  0
  1 21  1  0  0  0  0
  4  3  2  0  0  0  0
  5  9  2  0  0  0  0
  6  5  1  0  0  0  0
  6  8  2  0  0  0  0
  7 14  1  0  0  0  0
  8  4  1  0  0  0  0
  9  3  1  0  0  0  0
 10  1  1  0  0  0  0
 11 12  1  1  0  0  0
 11 29  1  0  0  0  0
 11 16  1  0  0  0  0
 12  5  1  0  0  0  0
 13 33  1  0  0  0  0
 14  2  1  1  0  0  0
 14 13  1  0  0  0  0
 15  9  1  6  0  0  0
 15  7  1  0  0  0  0
 16 10  1  1  0  0  0
 16 15  1  0  0  0  0
 17 20  1  0  0  0  0
 18 23  1  0  0  0  0
 19 21  1  0  0  0  0
 19 18  2  0  0  0  0
 21 17  2  0  0  0  0
 22 18  1  0  0  0  0
 23 20  2  0  0  0  0
 24 28  1  0  0  0  0
 25 30  1  6  0  0  0
 25 28  1  0  0  0  0
 26 27  1  0  0  0  0
 27 25  1  0  0  0  0
 29 26  1  1  0  0  0
 29 24  1  0  0  0  0
 30 31  1  0  0  0  0
 32 31  1  0  0  0  0
 33 34  2  0  0  0  0
 34 36  1  0  0  0  0
 35 34  1  0  0  0  0
 36 37  1  0  0  0  0
 37 38  1  6  0  0  0
 37 39  1  0  0  0  0
 40 39  1  0  0  0  0
 40 41  1  1  0  0  0
 42 49  1  0  0  0  0
 42 47  1  0  0  0  0
 44 46  1  0  0  0  0
 44 51  1  1  0  0  0
 44 40  1  0  0  0  0
 46 45  1  6  0  0  0
 47 53  1  0  0  0  0
 48 54  1  1  0  0  0
 48 50  1  0  0  0  0
 49 52  1  0  0  0  0
 50 43  2  0  0  0  0
 50 46  1  0  0  0  0
 52 48  1  0  0  0  0
 53 44  1  0  0  0  0
 54 55  1  0  0  0  0
M  END
>  <MODEL>
9

>  <REMARK>
 VINA RESULT:      -6.2      4.981      8.868
  Name = 
  11 active torsions:
  status: ('A' for Active; 'I' for Inactive)
    1  A    between atoms: C_2  and  C_44
    2  A    between atoms: C_4  and  C_37
    3  A    between atoms: C_6  and  C_20
    4  A    between atoms: C_7  and  C_8
    5  A    between atoms: C_7  and  O_22
    6  A    between atoms: C_8  and  C_35
    7  A    between atoms: C_10  and  C_18
    8  A    between atoms: C_10  and  C_32
    9  A    between atoms: N_11  and  C_29
   10  A    between atoms: C_20  and  O_22
   11  A    between atoms: C_33  and  C_52
                            x       y       z     vdW  Elec       q    Type
                         _______ _______ _______ _____ _____    ______ ____

>  <TORSDO>
F 11

$$$$
