=
 OpenBabel10262420223D

 55 62  0  0  1  0  0  0  0  0999 V2000
  187.0120  178.0200  142.8120 C   0  0  0  0  0  3  0  0  0  0  0  0
  184.5060  178.7450  143.8270 C   0  0  0  0  0  0  0  0  0  0  0  0
  184.8390  179.0500  142.5040 C   0  0  0  0  0  3  0  0  0  0  0  0
  186.6790  177.7160  144.1330 C   0  0  0  0  0  3  0  0  0  0  0  0
  186.0970  178.6870  141.9890 C   0  0  0  0  0  0  0  0  0  0  0  0
  185.4270  178.0750  144.6420 C   0  0  0  0  0  3  0  0  0  0  0  0
  183.1650  179.1150  144.3600 C   0  0  0  0  0  2  0  0  0  0  0  0
  182.0730  178.4400  143.5520 C   0  0  0  0  0  2  0  0  0  0  0  0
  181.1110  179.4840  143.0270 C   0  0  0  0  0  2  0  0  0  0  0  0
  181.0930  179.4640  141.5090 C   0  0  0  0  0  2  0  0  0  0  0  0
  181.0990  178.0930  141.0260 N   0  0  0  0  0  2  0  0  0  0  0  0
  179.4500  177.7930  137.8600 C   0  0  2  0  0  3  0  0  0  0  0  0
  183.5800  177.4840  137.3120 C   0  0  0  0  0  1  0  0  0  0  0  0
  182.1280  177.8900  137.5210 C   0  0  2  0  0  0  0  0  0  0  0  0
  182.0740  178.0240  139.9460 C   0  0  1  0  0  3  0  0  0  0  0  0
  180.6780  181.5100  138.0610 C   0  0  0  0  0  2  0  0  0  0  0  0
  180.5340  180.4880  136.1840 C   0  0  0  0  0  2  0  0  0  0  0  0
  182.0710  179.3830  137.9000 C   0  0  1  0  0  3  0  0  0  0  0  0
  181.5770  177.1820  138.7670 C   0  0  1  0  0  3  0  0  0  0  0  0
  179.3360  176.0790  136.0490 C   0  0  0  0  0  1  0  0  0  0  0  0
  179.4730  179.3010  138.1750 C   0  0  0  0  0  2  0  0  0  0  0  0
  180.5060  181.9400  136.6160 C   0  0  0  0  0  2  0  0  0  0  0  0
  183.6940  179.7190  139.6070 F   0  0  0  0  0  0  0  0  0  0  0  0
  180.7020  180.0530  137.6310 C   0  0  0  0  0  0  0  0  0  0  0  0
  180.1560  177.0130  138.8150 O   0  0  0  0  0  0  0  0  0  0  0  0
  181.3660  177.5010  136.2440 C   0  0  0  0  0  2  0  0  0  0  0  0
  182.3620  179.4170  139.4030 C   0  0  2  0  0  3  0  0  0  0  0  0
  179.8500  177.4540  136.4240 C   0  0  2  0  0  3  0  0  0  0  0  0
  186.4660  178.9800  140.6750 O   0  0  0  0  0  0  0  0  0  0  0  0
  186.6260  177.9780  139.6750 C   0  0  0  0  0  2  0  0  0  0  0  0
  187.4390  178.5150  138.4980 C   0  0  2  0  0  3  0  0  0  0  0  0
  188.3750  178.0190  136.2310 C   0  0  0  0  0  2  0  0  0  0  0  0
  188.3260  175.7060  135.2880 N   0  0  1  0  0  0  0  0  0  0  0  0
  187.4290  176.1430  137.5750 C   0  0  0  0  0  2  0  0  0  0  0  0
  187.3160  175.3240  136.2860 C   0  0  0  0  0  2  0  0  0  0  0  0
  188.2400  177.1430  134.9830 C   0  0  0  0  0  2  0  0  0  0  0  0
  187.3140  177.6330  137.2530 C   0  0  1  0  0  3  0  0  0  0  0  0
  189.6650  175.3640  135.7680 C   0  0  0  0  0  3  0  0  0  0  0  0
  190.6950  175.7160  134.7110 C   0  0  0  0  0  2  0  0  0  0  0  0
  190.2590  174.2790  134.8880 C   0  0  0  0  0  2  0  0  0  0  0  0
  188.8340  178.7140  138.8830 N   0  0  0  0  0  2  0  0  0  0  0  0
  189.1910  177.6910  139.8550 C   0  0  0  0  0  2  0  0  0  0  0  0
  192.8310  177.1000  140.8410 C   0  0  0  0  0  3  0  0  0  0  0  0
  193.3950  176.8270  139.5920 C   0  0  0  0  0  3  0  0  0  0  0  0
  190.6580  177.3900  139.7980 C   0  0  0  0  0  0  0  0  0  0  0  0
  191.2310  177.1140  138.5520 C   0  0  0  0  0  3  0  0  0  0  0  0
  192.5940  176.8350  138.4480 C   0  0  0  0  0  3  0  0  0  0  0  0
  191.4660  177.3890  140.9560 C   0  0  0  0  0  0  0  0  0  0  0  0
  190.9010  177.6890  142.3090 C   0  0  0  0  0  2  0  0  0  0  0  0
  190.5570  176.4280  143.0410 C   0  0  0  0  0  0  0  0  0  0  0  0
  190.0590  175.4630  142.4050 O   0  0  0  0  0  0  0  0  0  0  0  0
  190.7670  176.3030  144.4500 N   0  0  0  0  0  2  0  0  0  0  0  0
  191.4240  177.3260  145.2510 C   0  0  0  0  0  2  0  0  0  0  0  0
  191.1590  176.9980  147.4160 C   0  0  0  0  0  1  0  0  0  0  0  0
  192.0330  176.7390  146.3600 O   0  0  0  0  0  0  0  0  0  0  0  0
  1  4  1  0  0  0  0
  2  7  1  0  0  0  0
  2  6  1  0  0  0  0
  3  2  2  0  0  0  0
  4  6  2  0  0  0  0
  5  3  1  0  0  0  0
  5  1  2  0  0  0  0
  8  7  1  0  0  0  0
  9  8  1  0  0  0  0
 10  9  1  0  0  0  0
 11 10  1  0  0  0  0
 12 21  1  1  0  0  0
 12 25  1  0  0  0  0
 14 13  1  6  0  0  0
 14 18  1  0  0  0  0
 14 19  1  0  0  0  0
 15 11  1  1  0  0  0
 17 22  1  0  0  0  0
 17 24  1  0  0  0  0
 18 24  1  1  0  0  0
 18 27  1  0  0  0  0
 19 25  1  6  0  0  0
 19 15  1  0  0  0  0
 22 16  1  0  0  0  0
 24 16  1  0  0  0  0
 24 21  1  0  0  0  0
 26 28  1  0  0  0  0
 26 14  1  0  0  0  0
 27 23  1  6  0  0  0
 27 15  1  0  0  0  0
 28 20  1  1  0  0  0
 28 12  1  0  0  0  0
 29  5  1  0  0  0  0
 30 29  1  0  0  0  0
 31 41  1  0  0  0  0
 31 30  1  1  0  0  0
 32 37  1  0  0  0  0
 33 38  1  1  0  0  0
 33 35  1  0  0  0  0
 35 34  1  0  0  0  0
 36 33  1  0  0  0  0
 36 32  1  0  0  0  0
 37 34  1  0  0  0  0
 37 31  1  1  0  0  0
 39 40  1  0  0  0  0
 39 38  1  0  0  0  0
 40 38  1  0  0  0  0
 41 42  1  0  0  0  0
 43 48  1  0  0  0  0
 44 43  2  0  0  0  0
 45 42  1  0  0  0  0
 45 48  2  0  0  0  0
 46 45  1  0  0  0  0
 47 46  2  0  0  0  0
 47 44  1  0  0  0  0
 48 49  1  0  0  0  0
 49 50  1  0  0  0  0
 50 52  1  0  0  0  0
 51 50  2  0  0  0  0
 52 53  1  0  0  0  0
 53 55  1  0  0  0  0
 55 54  1  0  0  0  0
M  END
>  <MODEL>
1

>  <REMARK>
 VINA RESULT:      -7.1      0.000      0.000
  Name = 
  18 active torsions:
  status: ('A' for Active; 'I' for Inactive)
    1  A    between atoms: O_2  and  C_28
    2  A    between atoms: O_2  and  C_44
    3  A    between atoms: C_4  and  O_37
    4  A    between atoms: C_4  and  N_40
    5  A    between atoms: C_5  and  C_45
    6  A    between atoms: C_7  and  N_22
    7  A    between atoms: C_8  and  N_22
    8  A    between atoms: C_8  and  C_43
    9  A    between atoms: C_10  and  N_32
   10  A    between atoms: C_16  and  C_36
   11  A    between atoms: C_26  and  C_45
   12  A    between atoms: C_27  and  C_54
   13  A    between atoms: C_28  and  C_49
   14  A    between atoms: N_33  and  C_36
   15  A    between atoms: N_33  and  C_49
   16  A    between atoms: C_43  and  C_51
   17  A    between atoms: C_49  and  C_52
   18  A    between atoms: C_51  and  C_54
                            x       y       z     vdW  Elec       q    Type
                         _______ _______ _______ _____ _____    ______ ____

>  <TORSDO>
F 18

$$$$
=
 OpenBabel10262420223D

 55 62  0  0  1  0  0  0  0  0999 V2000
  191.5950  177.2920  143.3300 C   0  0  0  0  0  3  0  0  0  0  0  0
  188.8510  177.0220  143.8110 C   0  0  0  0  0  0  0  0  0  0  0  0
  189.3250  177.1250  142.4990 C   0  0  0  0  0  3  0  0  0  0  0  0
  191.1220  177.1890  144.6400 C   0  0  0  0  0  3  0  0  0  0  0  0
  190.7040  177.2590  142.2530 C   0  0  0  0  0  0  0  0  0  0  0  0
  189.7520  177.0530  144.8820 C   0  0  0  0  0  3  0  0  0  0  0  0
  187.3920  176.8590  144.0630 C   0  0  0  0  0  2  0  0  0  0  0  0
  186.6630  178.1600  143.7900 C   0  0  0  0  0  2  0  0  0  0  0  0
  185.4230  177.8850  142.9670 C   0  0  0  0  0  2  0  0  0  0  0  0
  185.1160  179.0710  142.0690 C   0  0  0  0  0  2  0  0  0  0  0  0
  183.7490  178.9890  141.5810 N   0  0  0  0  0  2  0  0  0  0  0  0
  180.4450  178.4100  140.3250 C   0  0  2  0  0  3  0  0  0  0  0  0
  183.2430  176.8320  137.6550 C   0  0  0  0  0  1  0  0  0  0  0  0
  182.2890  177.6670  138.4980 C   0  0  2  0  0  0  0  0  0  0  0  0
  183.8040  178.3910  140.2540 C   0  0  1  0  0  3  0  0  0  0  0  0
  181.7620  181.5670  138.4110 C   0  0  0  0  0  2  0  0  0  0  0  0
  180.3850  180.2060  137.4940 C   0  0  0  0  0  2  0  0  0  0  0  0
  182.5860  179.1610  138.2650 C   0  0  1  0  0  3  0  0  0  0  0  0
  182.6140  177.4640  139.9850 C   0  0  1  0  0  3  0  0  0  0  0  0
  179.0880  176.4140  139.6900 C   0  0  0  0  0  1  0  0  0  0  0  0
  180.7630  179.8810  139.9930 C   0  0  0  0  0  2  0  0  0  0  0  0
  180.7370  181.6670  137.2970 C   0  0  0  0  0  2  0  0  0  0  0  0
  184.9430  179.4300  138.4560 F   0  0  0  0  0  0  0  0  0  0  0  0
  181.4090  180.1040  138.6140 C   0  0  0  0  0  0  0  0  0  0  0  0
  181.5440  177.7170  140.9000 O   0  0  0  0  0  0  0  0  0  0  0  0
  180.8640  177.2110  138.1440 C   0  0  0  0  0  2  0  0  0  0  0  0
  183.7710  179.4730  139.1840 C   0  0  2  0  0  3  0  0  0  0  0  0
  179.8130  177.6370  139.1680 C   0  0  2  0  0  3  0  0  0  0  0  0
  191.2110  177.3710  140.9570 O   0  0  0  0  0  0  0  0  0  0  0  0
  190.7390  176.5770  139.8710 C   0  0  0  0  0  2  0  0  0  0  0  0
  190.8970  177.3240  138.5480 C   0  0  2  0  0  3  0  0  0  0  0  0
  189.6140  177.3760  136.4010 C   0  0  0  0  0  2  0  0  0  0  0  0
  187.1480  176.9760  136.3570 N   0  0  1  0  0  0  0  0  0  0  0  0
  188.3950  176.8620  138.5150 C   0  0  0  0  0  2  0  0  0  0  0  0
  187.0860  177.2190  137.8060 C   0  0  0  0  0  2  0  0  0  0  0  0
  188.2690  177.7130  135.7520 C   0  0  0  0  0  2  0  0  0  0  0  0
  189.5500  177.6490  137.8980 C   0  0  1  0  0  3  0  0  0  0  0  0
  187.2750  175.5430  136.0900 C   0  0  0  0  0  3  0  0  0  0  0  0
  187.2590  175.2960  134.5940 C   0  0  0  0  0  2  0  0  0  0  0  0
  186.0140  175.0380  135.4130 C   0  0  0  0  0  2  0  0  0  0  0  0
  191.7730  176.5860  137.6410 N   0  0  0  0  0  2  0  0  0  0  0  0
  191.9680  175.2480  138.1810 C   0  0  0  0  0  2  0  0  0  0  0  0
  192.7360  172.6310  135.5110 C   0  0  0  0  0  3  0  0  0  0  0  0
  191.4450  172.2980  135.0970 C   0  0  0  0  0  3  0  0  0  0  0  0
  191.8190  174.2130  137.1070 C   0  0  0  0  0  0  0  0  0  0  0  0
  190.5290  173.8730  136.6870 C   0  0  0  0  0  3  0  0  0  0  0  0
  190.3410  172.9200  135.6850 C   0  0  0  0  0  3  0  0  0  0  0  0
  192.9370  173.5910  136.5100 C   0  0  0  0  0  0  0  0  0  0  0  0
  194.3360  173.9300  136.9170 C   0  0  0  0  0  2  0  0  0  0  0  0
  194.9340  172.8390  137.7520 C   0  0  0  0  0  0  0  0  0  0  0  0
  194.5070  171.6620  137.6250 O   0  0  0  0  0  0  0  0  0  0  0  0
  195.9670  173.1100  138.7040 N   0  0  0  0  0  2  0  0  0  0  0  0
  196.5890  174.4170  138.8530 C   0  0  0  0  0  2  0  0  0  0  0  0
  197.3110  175.3690  140.7080 C   0  0  0  0  0  1  0  0  0  0  0  0
  196.1420  175.0210  140.0290 O   0  0  0  0  0  0  0  0  0  0  0  0
  1  4  1  0  0  0  0
  2  7  1  0  0  0  0
  2  6  1  0  0  0  0
  3  2  2  0  0  0  0
  4  6  2  0  0  0  0
  5  3  1  0  0  0  0
  5  1  2  0  0  0  0
  8  7  1  0  0  0  0
  9  8  1  0  0  0  0
 10  9  1  0  0  0  0
 11 10  1  0  0  0  0
 12 21  1  6  0  0  0
 12 25  1  0  0  0  0
 14 13  1  6  0  0  0
 14 19  1  0  0  0  0
 15 11  1  1  0  0  0
 16 24  1  0  0  0  0
 17 24  1  0  0  0  0
 18 14  1  0  0  0  0
 18 24  1  1  0  0  0
 18 27  1  0  0  0  0
 19 15  1  0  0  0  0
 19 25  1  1  0  0  0
 22 17  1  0  0  0  0
 22 16  1  0  0  0  0
 24 21  1  0  0  0  0
 26 14  1  0  0  0  0
 26 28  1  0  0  0  0
 27 23  1  6  0  0  0
 27 15  1  0  0  0  0
 28 20  1  1  0  0  0
 28 12  1  0  0  0  0
 29  5  1  0  0  0  0
 30 29  1  0  0  0  0
 31 30  1  1  0  0  0
 32 37  1  0  0  0  0
 33 38  1  1  0  0  0
 33 35  1  0  0  0  0
 35 34  1  0  0  0  0
 36 33  1  0  0  0  0
 36 32  1  0  0  0  0
 37 34  1  0  0  0  0
 37 31  1  1  0  0  0
 39 40  1  0  0  0  0
 39 38  1  0  0  0  0
 40 38  1  0  0  0  0
 41 42  1  0  0  0  0
 41 31  1  0  0  0  0
 43 48  1  0  0  0  0
 44 43  2  0  0  0  0
 44 47  1  0  0  0  0
 45 42  1  0  0  0  0
 46 45  1  0  0  0  0
 47 46  2  0  0  0  0
 48 49  1  0  0  0  0
 48 45  2  0  0  0  0
 49 50  1  0  0  0  0
 50 52  1  0  0  0  0
 51 50  2  0  0  0  0
 52 53  1  0  0  0  0
 53 55  1  0  0  0  0
 55 54  1  0  0  0  0
M  END
>  <MODEL>
2

>  <REMARK>
 VINA RESULT:      -7.0      2.633      4.440
  Name = 
  18 active torsions:
  status: ('A' for Active; 'I' for Inactive)
    1  A    between atoms: O_2  and  C_28
    2  A    between atoms: O_2  and  C_44
    3  A    between atoms: C_4  and  O_37
    4  A    between atoms: C_4  and  N_40
    5  A    between atoms: C_5  and  C_45
    6  A    between atoms: C_7  and  N_22
    7  A    between atoms: C_8  and  N_22
    8  A    between atoms: C_8  and  C_43
    9  A    between atoms: C_10  and  N_32
   10  A    between atoms: C_16  and  C_36
   11  A    between atoms: C_26  and  C_45
   12  A    between atoms: C_27  and  C_54
   13  A    between atoms: C_28  and  C_49
   14  A    between atoms: N_33  and  C_36
   15  A    between atoms: N_33  and  C_49
   16  A    between atoms: C_43  and  C_51
   17  A    between atoms: C_49  and  C_52
   18  A    between atoms: C_51  and  C_54
                            x       y       z     vdW  Elec       q    Type
                         _______ _______ _______ _____ _____    ______ ____

>  <TORSDO>
F 18

$$$$
=
 OpenBabel10262420223D

 55 62  0  0  1  0  0  0  0  0999 V2000
  187.4120  178.0740  136.0010 C   0  0  0  0  0  3  0  0  0  0  0  0
  185.8630  175.7980  135.4920 C   0  0  0  0  0  0  0  0  0  0  0  0
  186.7910  175.7940  136.5380 C   0  0  0  0  0  3  0  0  0  0  0  0
  186.4860  178.0790  134.9560 C   0  0  0  0  0  3  0  0  0  0  0  0
  187.5710  176.9360  136.7980 C   0  0  0  0  0  0  0  0  0  0  0  0
  185.7100  176.9440  134.7020 C   0  0  0  0  0  3  0  0  0  0  0  0
  185.0270  174.5930  135.2350 C   0  0  0  0  0  2  0  0  0  0  0  0
  184.3190  174.1630  136.5050 C   0  0  0  0  0  2  0  0  0  0  0  0
  182.9130  173.7100  136.1750 C   0  0  0  0  0  2  0  0  0  0  0  0
  181.9000  174.6770  136.7600 C   0  0  0  0  0  2  0  0  0  0  0  0
  182.4200  175.2690  137.9820 N   0  0  0  0  0  2  0  0  0  0  0  0
  183.3300  178.1100  139.9630 C   0  0  2  0  0  3  0  0  0  0  0  0
  179.4010  177.0000  140.8470 C   0  0  0  0  0  1  0  0  0  0  0  0
  180.7110  177.5380  140.2880 C   0  0  2  0  0  0  0  0  0  0  0  0
  181.2760  175.7460  138.7470 C   0  0  1  0  0  3  0  0  0  0  0  0
  181.2770  179.5430  136.9480 C   0  0  0  0  0  2  0  0  0  0  0  0
  181.2480  180.4980  138.8650 C   0  0  0  0  0  2  0  0  0  0  0  0
  180.4710  178.0640  138.8600 C   0  0  1  0  0  3  0  0  0  0  0  0
  181.6910  176.3740  140.0820 C   0  0  1  0  0  3  0  0  0  0  0  0
  183.4630  178.6330  142.4010 C   0  0  0  0  0  1  0  0  0  0  0  0
  182.9970  178.6690  138.5670 C   0  0  0  0  0  2  0  0  0  0  0  0
  181.0020  180.9520  137.4400 C   0  0  0  0  0  2  0  0  0  0  0  0
  179.2460  176.3820  137.7050 F   0  0  0  0  0  0  0  0  0  0  0  0
  181.5270  179.0860  138.3750 C   0  0  0  0  0  0  0  0  0  0  0  0
  183.0800  176.7170  140.0820 O   0  0  0  0  0  0  0  0  0  0  0  0
  181.2370  178.5720  141.2960 C   0  0  0  0  0  2  0  0  0  0  0  0
  180.5290  176.8200  137.9690 C   0  0  2  0  0  3  0  0  0  0  0  0
  182.7160  178.9100  141.1120 C   0  0  2  0  0  3  0  0  0  0  0  0
  188.5110  176.9640  137.8300 O   0  0  0  0  0  0  0  0  0  0  0  0
  189.6780  177.7810  137.7900 C   0  0  0  0  0  2  0  0  0  0  0  0
  190.8490  177.0840  138.4810 C   0  0  2  0  0  3  0  0  0  0  0  0
  193.1400  176.5670  137.6190 C   0  0  0  0  0  2  0  0  0  0  0  0
  193.7520  174.2640  136.8680 N   0  0  1  0  0  0  0  0  0  0  0  0
  191.4700  174.7210  137.7700 C   0  0  0  0  0  2  0  0  0  0  0  0
  192.3260  173.9160  136.7880 C   0  0  0  0  0  2  0  0  0  0  0  0
  193.9490  175.7060  136.6450 C   0  0  0  0  0  2  0  0  0  0  0  0
  191.6620  176.2160  137.5170 C   0  0  1  0  0  3  0  0  0  0  0  0
  194.2970  173.8680  138.1660 C   0  0  0  0  0  3  0  0  0  0  0  0
  195.7970  174.0900  138.1820 C   0  0  0  0  0  2  0  0  0  0  0  0
  195.2440  172.6970  137.9830 C   0  0  0  0  0  2  0  0  0  0  0  0
  190.3860  176.3220  139.6370 N   0  0  0  0  0  2  0  0  0  0  0  0
  190.7190  177.0710  140.8410 C   0  0  0  0  0  2  0  0  0  0  0  0
  188.3020  177.2260  143.7910 C   0  0  0  0  0  3  0  0  0  0  0  0
  187.1680  177.7520  143.1670 C   0  0  0  0  0  3  0  0  0  0  0  0
  189.4990  177.3000  141.6810 C   0  0  0  0  0  0  0  0  0  0  0  0
  188.3590  177.8270  141.0650 C   0  0  0  0  0  3  0  0  0  0  0  0
  187.1970  178.0520  141.8040 C   0  0  0  0  0  3  0  0  0  0  0  0
  189.4700  176.9900  143.0570 C   0  0  0  0  0  0  0  0  0  0  0  0
  190.6610  176.4140  143.7590 C   0  0  0  0  0  2  0  0  0  0  0  0
  191.4460  177.4830  144.4540 C   0  0  0  0  0  0  0  0  0  0  0  0
  191.8170  178.4960  143.8050 O   0  0  0  0  0  0  0  0  0  0  0  0
  191.7990  177.3700  145.8360 N   0  0  0  0  0  2  0  0  0  0  0  0
  191.3340  176.2860  146.6890 C   0  0  0  0  0  2  0  0  0  0  0  0
  189.2890  176.8330  147.3100 C   0  0  0  0  0  1  0  0  0  0  0  0
  190.6090  176.8080  147.7620 O   0  0  0  0  0  0  0  0  0  0  0  0
  1  5  1  0  0  0  0
  2  3  1  0  0  0  0
  3  5  2  0  0  0  0
  4  1  2  0  0  0  0
  5 29  1  0  0  0  0
  6  4  1  0  0  0  0
  6  2  2  0  0  0  0
  7  2  1  0  0  0  0
  7  8  1  0  0  0  0
  9  8  1  0  0  0  0
  9 10  1  0  0  0  0
 10 11  1  0  0  0  0
 12 21  1  6  0  0  0
 12 25  1  0  0  0  0
 12 28  1  0  0  0  0
 14 13  1  1  0  0  0
 14 26  1  0  0  0  0
 15 11  1  6  0  0  0
 15 19  1  0  0  0  0
 16 22  1  0  0  0  0
 16 24  1  0  0  0  0
 18 24  1  6  0  0  0
 18 14  1  0  0  0  0
 19 25  1  6  0  0  0
 19 14  1  0  0  0  0
 22 17  1  0  0  0  0
 24 21  1  0  0  0  0
 24 17  1  0  0  0  0
 27 23  1  1  0  0  0
 27 15  1  0  0  0  0
 27 18  1  0  0  0  0
 28 26  1  0  0  0  0
 28 20  1  1  0  0  0
 30 29  1  0  0  0  0
 31 30  1  6  0  0  0
 31 41  1  0  0  0  0
 33 38  1  1  0  0  0
 35 33  1  0  0  0  0
 35 34  1  0  0  0  0
 36 33  1  0  0  0  0
 36 32  1  0  0  0  0
 37 32  1  0  0  0  0
 37 34  1  0  0  0  0
 37 31  1  1  0  0  0
 38 39  1  0  0  0  0
 40 38  1  0  0  0  0
 40 39  1  0  0  0  0
 41 42  1  0  0  0  0
 42 45  1  0  0  0  0
 44 43  1  0  0  0  0
 45 48  1  0  0  0  0
 46 45  2  0  0  0  0
 46 47  1  0  0  0  0
 47 44  2  0  0  0  0
 48 49  1  0  0  0  0
 48 43  2  0  0  0  0
 49 50  1  0  0  0  0
 50 52  1  0  0  0  0
 51 50  2  0  0  0  0
 52 53  1  0  0  0  0
 53 55  1  0  0  0  0
 54 55  1  0  0  0  0
M  END
>  <MODEL>
3

>  <REMARK>
 VINA RESULT:      -7.0      2.431      5.262
  Name = 
  18 active torsions:
  status: ('A' for Active; 'I' for Inactive)
    1  A    between atoms: O_2  and  C_28
    2  A    between atoms: O_2  and  C_44
    3  A    between atoms: C_4  and  O_37
    4  A    between atoms: C_4  and  N_40
    5  A    between atoms: C_5  and  C_45
    6  A    between atoms: C_7  and  N_22
    7  A    between atoms: C_8  and  N_22
    8  A    between atoms: C_8  and  C_43
    9  A    between atoms: C_10  and  N_32
   10  A    between atoms: C_16  and  C_36
   11  A    between atoms: C_26  and  C_45
   12  A    between atoms: C_27  and  C_54
   13  A    between atoms: C_28  and  C_49
   14  A    between atoms: N_33  and  C_36
   15  A    between atoms: N_33  and  C_49
   16  A    between atoms: C_43  and  C_51
   17  A    between atoms: C_49  and  C_52
   18  A    between atoms: C_51  and  C_54
                            x       y       z     vdW  Elec       q    Type
                         _______ _______ _______ _____ _____    ______ ____

>  <TORSDO>
F 18

$$$$
=
 OpenBabel10262420223D

 55 62  0  0  1  0  0  0  0  0999 V2000
  187.6680  178.3840  136.8790 C   0  0  0  0  0  3  0  0  0  0  0  0
  186.4480  176.0260  135.9900 C   0  0  0  0  0  0  0  0  0  0  0  0
  187.0290  176.0770  137.2610 C   0  0  0  0  0  3  0  0  0  0  0  0
  187.0880  178.3340  135.6110 C   0  0  0  0  0  3  0  0  0  0  0  0
  187.6430  177.2600  137.7120 C   0  0  0  0  0  0  0  0  0  0  0  0
  186.4760  177.1580  135.1650 C   0  0  0  0  0  3  0  0  0  0  0  0
  185.7820  174.7770  135.5270 C   0  0  0  0  0  2  0  0  0  0  0  0
  184.6720  174.3870  136.4820 C   0  0  0  0  0  2  0  0  0  0  0  0
  183.4120  175.1500  136.1370 C   0  0  0  0  0  2  0  0  0  0  0  0
  182.3250  174.8580  137.1570 C   0  0  0  0  0  2  0  0  0  0  0  0
  181.5810  176.0710  137.4570 N   0  0  0  0  0  2  0  0  0  0  0  0
  180.1950  179.3700  137.5880 C   0  0  2  0  0  3  0  0  0  0  0  0
  184.0980  179.4420  139.0740 C   0  0  0  0  0  1  0  0  0  0  0  0
  182.6060  179.3140  138.8030 C   0  0  2  0  0  0  0  0  0  0  0  0
  182.5010  176.9860  138.1170 C   0  0  1  0  0  3  0  0  0  0  0  0
  179.8190  177.9250  141.2120 C   0  0  0  0  0  2  0  0  0  0  0  0
  180.0990  180.0220  140.8760 C   0  0  0  0  0  2  0  0  0  0  0  0
  181.9510  178.5230  139.9520 C   0  0  1  0  0  3  0  0  0  0  0  0
  182.3870  178.4150  137.5780 C   0  0  1  0  0  3  0  0  0  0  0  0
  180.7820  181.6050  136.6430 C   0  0  0  0  0  1  0  0  0  0  0  0
  179.6070  178.6250  138.8010 C   0  0  0  0  0  2  0  0  0  0  0  0
  179.4880  179.1880  141.9850 C   0  0  0  0  0  2  0  0  0  0  0  0
  183.3000  176.5950  140.3130 F   0  0  0  0  0  0  0  0  0  0  0  0
  180.4290  178.7570  140.0970 C   0  0  0  0  0  0  0  0  0  0  0  0
  181.1550  178.6050  136.8740 O   0  0  0  0  0  0  0  0  0  0  0  0
  182.0660  180.7370  138.5870 C   0  0  0  0  0  2  0  0  0  0  0  0
  182.2030  177.0520  139.6090 C   0  0  2  0  0  3  0  0  0  0  0  0
  180.6980  180.7770  137.9100 C   0  0  2  0  0  3  0  0  0  0  0  0
  188.2390  177.3440  138.9720 O   0  0  0  0  0  0  0  0  0  0  0  0
  189.3540  178.1890  139.2450 C   0  0  0  0  0  2  0  0  0  0  0  0
  190.6090  177.3580  139.5070 C   0  0  2  0  0  3  0  0  0  0  0  0
  192.6830  176.8990  138.1840 C   0  0  0  0  0  2  0  0  0  0  0  0
  192.8810  174.8620  136.7510 N   0  0  1  0  0  0  0  0  0  0  0  0
  190.8140  175.2510  138.0940 C   0  0  0  0  0  2  0  0  0  0  0  0
  191.4220  174.6850  136.8080 C   0  0  0  0  0  2  0  0  0  0  0  0
  193.2400  176.2830  136.8990 C   0  0  0  0  0  2  0  0  0  0  0  0
  191.1700  176.7310  138.2280 C   0  0  1  0  0  3  0  0  0  0  0  0
  193.5280  174.0610  137.7900 C   0  0  0  0  0  3  0  0  0  0  0  0
  195.0300  174.2620  137.7330 C   0  0  0  0  0  2  0  0  0  0  0  0
  194.4140  173.0120  137.1460 C   0  0  0  0  0  2  0  0  0  0  0  0
  190.3580  176.3540  140.5370 N   0  0  0  0  0  2  0  0  0  0  0  0
  189.3050  176.8500  141.4120 C   0  0  0  0  0  2  0  0  0  0  0  0
  189.4060  177.0320  145.2240 C   0  0  0  0  0  3  0  0  0  0  0  0
  190.7830  177.1240  145.4410 C   0  0  0  0  0  3  0  0  0  0  0  0
  189.7880  176.9410  142.8280 C   0  0  0  0  0  0  0  0  0  0  0  0
  191.1650  177.0320  143.0550 C   0  0  0  0  0  3  0  0  0  0  0  0
  191.6620  177.1240  144.3560 C   0  0  0  0  0  3  0  0  0  0  0  0
  188.8970  176.9460  143.9220 C   0  0  0  0  0  0  0  0  0  0  0  0
  187.4150  176.8620  143.7300 C   0  0  0  0  0  2  0  0  0  0  0  0
  186.6910  177.6830  144.7530 C   0  0  0  0  0  0  0  0  0  0  0  0
  187.0180  177.5850  145.9650 O   0  0  0  0  0  0  0  0  0  0  0  0
  185.6250  178.5630  144.3850 N   0  0  0  0  0  2  0  0  0  0  0  0
  185.2420  178.8150  143.0030 C   0  0  0  0  0  2  0  0  0  0  0  0
  183.1170  179.0160  143.5600 C   0  0  0  0  0  1  0  0  0  0  0  0
  183.9810  178.2710  142.7560 O   0  0  0  0  0  0  0  0  0  0  0  0
  1  5  1  0  0  0  0
  2  3  1  0  0  0  0
  3  5  2  0  0  0  0
  4  1  2  0  0  0  0
  5 29  1  0  0  0  0
  6  4  1  0  0  0  0
  6  2  2  0  0  0  0
  7  2  1  0  0  0  0
  7  8  1  0  0  0  0
  9  8  1  0  0  0  0
  9 10  1  0  0  0  0
 10 11  1  0  0  0  0
 12 28  1  0  0  0  0
 12 21  1  1  0  0  0
 14 13  1  1  0  0  0
 14 18  1  0  0  0  0
 15 11  1  6  0  0  0
 15 27  1  0  0  0  0
 16 22  1  0  0  0  0
 17 22  1  0  0  0  0
 18 24  1  6  0  0  0
 19 25  1  1  0  0  0
 19 15  1  0  0  0  0
 19 14  1  0  0  0  0
 21 24  1  0  0  0  0
 24 17  1  0  0  0  0
 24 16  1  0  0  0  0
 25 12  1  0  0  0  0
 26 14  1  0  0  0  0
 27 18  1  0  0  0  0
 27 23  1  1  0  0  0
 28 20  1  6  0  0  0
 28 26  1  0  0  0  0
 29 30  1  0  0  0  0
 31 30  1  6  0  0  0
 31 41  1  0  0  0  0
 32 37  1  0  0  0  0
 33 35  1  0  0  0  0
 33 36  1  0  0  0  0
 33 38  1  1  0  0  0
 34 37  1  0  0  0  0
 35 34  1  0  0  0  0
 36 32  1  0  0  0  0
 37 31  1  1  0  0  0
 39 38  1  0  0  0  0
 40 39  1  0  0  0  0
 40 38  1  0  0  0  0
 41 42  1  0  0  0  0
 42 45  1  0  0  0  0
 43 44  1  0  0  0  0
 45 46  2  0  0  0  0
 45 48  1  0  0  0  0
 46 47  1  0  0  0  0
 47 44  2  0  0  0  0
 48 43  2  0  0  0  0
 49 48  1  0  0  0  0
 49 50  1  0  0  0  0
 50 51  2  0  0  0  0
 52 50  1  0  0  0  0
 53 52  1  0  0  0  0
 55 53  1  0  0  0  0
 55 54  1  0  0  0  0
M  END
>  <MODEL>
4

>  <REMARK>
 VINA RESULT:      -6.7      2.235      5.303
  Name = 
  18 active torsions:
  status: ('A' for Active; 'I' for Inactive)
    1  A    between atoms: O_2  and  C_28
    2  A    between atoms: O_2  and  C_44
    3  A    between atoms: C_4  and  O_37
    4  A    between atoms: C_4  and  N_40
    5  A    between atoms: C_5  and  C_45
    6  A    between atoms: C_7  and  N_22
    7  A    between atoms: C_8  and  N_22
    8  A    between atoms: C_8  and  C_43
    9  A    between atoms: C_10  and  N_32
   10  A    between atoms: C_16  and  C_36
   11  A    between atoms: C_26  and  C_45
   12  A    between atoms: C_27  and  C_54
   13  A    between atoms: C_28  and  C_49
   14  A    between atoms: N_33  and  C_36
   15  A    between atoms: N_33  and  C_49
   16  A    between atoms: C_43  and  C_51
   17  A    between atoms: C_49  and  C_52
   18  A    between atoms: C_51  and  C_54
                            x       y       z     vdW  Elec       q    Type
                         _______ _______ _______ _____ _____    ______ ____

>  <TORSDO>
F 18

$$$$
=
 OpenBabel10262420223D

 55 62  0  0  1  0  0  0  0  0999 V2000
  189.3420  178.5840  138.5330 C   0  0  0  0  0  3  0  0  0  0  0  0
  188.6780  176.9000  136.3970 C   0  0  0  0  0  0  0  0  0  0  0  0
  188.9920  176.3560  137.6460 C   0  0  0  0  0  3  0  0  0  0  0  0
  189.0280  179.1280  137.2860 C   0  0  0  0  0  3  0  0  0  0  0  0
  189.3250  177.1980  138.7230 C   0  0  0  0  0  0  0  0  0  0  0  0
  188.6950  178.2890  136.2180 C   0  0  0  0  0  3  0  0  0  0  0  0
  188.3070  176.0030  135.2670 C   0  0  0  0  0  2  0  0  0  0  0  0
  187.0810  175.1860  135.6250 C   0  0  0  0  0  2  0  0  0  0  0  0
  185.8490  176.0630  135.5600 C   0  0  0  0  0  2  0  0  0  0  0  0
  184.7240  175.3340  134.8480 C   0  0  0  0  0  2  0  0  0  0  0  0
  183.4390  175.8960  135.2340 N   0  0  0  0  0  2  0  0  0  0  0  0
  180.0850  176.5160  136.3230 C   0  0  2  0  0  3  0  0  0  0  0  0
  182.5680  176.0740  139.6530 C   0  0  0  0  0  1  0  0  0  0  0  0
  181.6670  175.9370  138.4340 C   0  0  2  0  0  0  0  0  0  0  0  0
  183.3460  175.7950  136.6830 C   0  0  1  0  0  3  0  0  0  0  0  0
  180.5770  172.6360  136.5850 C   0  0  0  0  0  2  0  0  0  0  0  0
  179.2720  173.6830  137.9230 C   0  0  0  0  0  2  0  0  0  0  0  0
  181.7010  174.4760  137.9430 C   0  0  1  0  0  3  0  0  0  0  0  0
  182.2730  176.7230  137.2630 C   0  0  1  0  0  3  0  0  0  0  0  0
  178.9390  178.2360  137.7220 C   0  0  0  0  0  1  0  0  0  0  0  0
  180.1250  175.0260  135.9320 C   0  0  0  0  0  2  0  0  0  0  0  0
  179.3690  172.2560  137.4210 C   0  0  0  0  0  2  0  0  0  0  0  0
  183.9910  173.8370  137.8500 F   0  0  0  0  0  0  0  0  0  0  0  0
  180.4800  174.0680  137.0830 C   0  0  0  0  0  0  0  0  0  0  0  0
  181.3550  177.1470  136.2500 O   0  0  0  0  0  0  0  0  0  0  0  0
  180.2830  176.4680  138.8390 C   0  0  0  0  0  2  0  0  0  0  0  0
  182.9710  174.3780  137.0930 C   0  0  2  0  0  3  0  0  0  0  0  0
  179.3770  176.7880  137.6500 C   0  0  2  0  0  3  0  0  0  0  0  0
  189.6500  176.6890  139.9810 O   0  0  0  0  0  0  0  0  0  0  0  0
  188.7890  176.8110  141.1100 C   0  0  0  0  0  2  0  0  0  0  0  0
  189.2910  177.8980  142.0580 C   0  0  2  0  0  3  0  0  0  0  0  0
  190.7030  178.3200  144.0810 C   0  0  0  0  0  2  0  0  0  0  0  0
  191.9470  176.4650  145.2020 N   0  0  1  0  0  0  0  0  0  0  0  0
  190.5090  175.9880  143.2180 C   0  0  0  0  0  2  0  0  0  0  0  0
  191.7740  175.6300  144.0030 C   0  0  0  0  0  2  0  0  0  0  0  0
  191.9590  177.8930  144.8440 C   0  0  0  0  0  2  0  0  0  0  0  0
  190.5410  177.4660  142.8310 C   0  0  1  0  0  3  0  0  0  0  0  0
  190.8830  176.1890  146.1670 C   0  0  0  0  0  3  0  0  0  0  0  0
  190.9920  177.1460  147.3390 C   0  0  0  0  0  2  0  0  0  0  0  0
  191.4930  175.7260  147.4770 C   0  0  0  0  0  2  0  0  0  0  0  0
  188.2250  178.3350  142.9550 N   0  0  0  0  0  2  0  0  0  0  0  0
  187.8710  177.2190  143.8220 C   0  0  0  0  0  2  0  0  0  0  0  0
  185.0370  178.4680  146.0540 C   0  0  0  0  0  3  0  0  0  0  0  0
  185.7040  178.5840  147.2760 C   0  0  0  0  0  3  0  0  0  0  0  0
  187.0860  177.6940  145.0070 C   0  0  0  0  0  0  0  0  0  0  0  0
  187.7460  177.8130  146.2350 C   0  0  0  0  0  3  0  0  0  0  0  0
  187.0590  178.2570  147.3660 C   0  0  0  0  0  3  0  0  0  0  0  0
  185.7190  178.0300  144.9120 C   0  0  0  0  0  0  0  0  0  0  0  0
  184.9730  177.9310  143.6180 C   0  0  0  0  0  2  0  0  0  0  0  0
  184.6040  179.2890  143.1030 C   0  0  0  0  0  0  0  0  0  0  0  0
  184.1580  180.1510  143.9050 O   0  0  0  0  0  0  0  0  0  0  0  0
  184.7310  179.6210  141.7180 N   0  0  0  0  0  2  0  0  0  0  0  0
  185.3260  178.7250  140.7360 C   0  0  0  0  0  2  0  0  0  0  0  0
  185.4550  178.2770  138.5800 C   0  0  0  0  0  1  0  0  0  0  0  0
  185.3280  179.3350  139.4810 O   0  0  0  0  0  0  0  0  0  0  0  0
  1  5  1  0  0  0  0
  2  3  1  0  0  0  0
  3  5  2  0  0  0  0
  4  1  2  0  0  0  0
  5 29  1  0  0  0  0
  6  2  2  0  0  0  0
  6  4  1  0  0  0  0
  7  8  1  0  0  0  0
  7  2  1  0  0  0  0
  9  8  1  0  0  0  0
 10 11  1  0  0  0  0
 10  9  1  0  0  0  0
 12 21  1  1  0  0  0
 12 28  1  0  0  0  0
 14 26  1  0  0  0  0
 14 13  1  1  0  0  0
 15 11  1  6  0  0  0
 15 27  1  0  0  0  0
 15 19  1  0  0  0  0
 16 24  1  0  0  0  0
 16 22  1  0  0  0  0
 18 24  1  6  0  0  0
 18 14  1  0  0  0  0
 19 25  1  6  0  0  0
 19 14  1  0  0  0  0
 21 24  1  0  0  0  0
 22 17  1  0  0  0  0
 24 17  1  0  0  0  0
 25 12  1  0  0  0  0
 27 23  1  1  0  0  0
 27 18  1  0  0  0  0
 28 20  1  6  0  0  0
 28 26  1  0  0  0  0
 29 30  1  0  0  0  0
 31 30  1  1  0  0  0
 31 41  1  0  0  0  0
 32 36  1  0  0  0  0
 33 38  1  1  0  0  0
 34 35  1  0  0  0  0
 35 33  1  0  0  0  0
 36 33  1  0  0  0  0
 37 31  1  1  0  0  0
 37 34  1  0  0  0  0
 37 32  1  0  0  0  0
 38 39  1  0  0  0  0
 38 40  1  0  0  0  0
 39 40  1  0  0  0  0
 41 42  1  0  0  0  0
 42 45  1  0  0  0  0
 43 44  1  0  0  0  0
 44 47  2  0  0  0  0
 45 46  2  0  0  0  0
 46 47  1  0  0  0  0
 48 45  1  0  0  0  0
 48 43  2  0  0  0  0
 49 48  1  0  0  0  0
 50 49  1  0  0  0  0
 50 51  2  0  0  0  0
 52 50  1  0  0  0  0
 53 52  1  0  0  0  0
 54 55  1  0  0  0  0
 55 53  1  0  0  0  0
M  END
>  <MODEL>
5

>  <REMARK>
 VINA RESULT:      -6.7      2.594      7.496
  Name = 
  18 active torsions:
  status: ('A' for Active; 'I' for Inactive)
    1  A    between atoms: O_2  and  C_28
    2  A    between atoms: O_2  and  C_44
    3  A    between atoms: C_4  and  O_37
    4  A    between atoms: C_4  and  N_40
    5  A    between atoms: C_5  and  C_45
    6  A    between atoms: C_7  and  N_22
    7  A    between atoms: C_8  and  N_22
    8  A    between atoms: C_8  and  C_43
    9  A    between atoms: C_10  and  N_32
   10  A    between atoms: C_16  and  C_36
   11  A    between atoms: C_26  and  C_45
   12  A    between atoms: C_27  and  C_54
   13  A    between atoms: C_28  and  C_49
   14  A    between atoms: N_33  and  C_36
   15  A    between atoms: N_33  and  C_49
   16  A    between atoms: C_43  and  C_51
   17  A    between atoms: C_49  and  C_52
   18  A    between atoms: C_51  and  C_54
                            x       y       z     vdW  Elec       q    Type
                         _______ _______ _______ _____ _____    ______ ____

>  <TORSDO>
F 18

$$$$
=
 OpenBabel10262420223D

 55 62  0  0  1  0  0  0  0  0999 V2000
  192.0020  177.3930  141.0620 C   0  0  0  0  0  3  0  0  0  0  0  0
  189.3840  177.2220  142.0390 C   0  0  0  0  0  0  0  0  0  0  0  0
  189.6280  177.1000  140.6680 C   0  0  0  0  0  3  0  0  0  0  0  0
  191.7580  177.5150  142.4320 C   0  0  0  0  0  3  0  0  0  0  0  0
  190.9430  177.1840  140.1730 C   0  0  0  0  0  0  0  0  0  0  0  0
  190.4520  177.4290  142.9220 C   0  0  0  0  0  3  0  0  0  0  0  0
  187.9920  177.1130  142.5590 C   0  0  0  0  0  2  0  0  0  0  0  0
  187.1360  178.2370  142.0100 C   0  0  0  0  0  2  0  0  0  0  0  0
  185.7610  178.1840  142.6410 C   0  0  0  0  0  2  0  0  0  0  0  0
  184.8560  179.2290  142.0150 C   0  0  0  0  0  2  0  0  0  0  0  0
  183.5900  178.6280  141.6260 N   0  0  0  0  0  2  0  0  0  0  0  0
  180.3860  178.1770  140.0920 C   0  0  2  0  0  3  0  0  0  0  0  0
  183.3730  176.8660  137.4830 C   0  0  0  0  0  1  0  0  0  0  0  0
  182.3570  177.6150  138.3340 C   0  0  2  0  0  0  0  0  0  0  0  0
  183.7410  178.1630  140.2540 C   0  0  1  0  0  3  0  0  0  0  0  0
  181.8120  181.5050  138.5920 C   0  0  0  0  0  2  0  0  0  0  0  0
  180.5120  180.2410  137.4520 C   0  0  0  0  0  2  0  0  0  0  0  0
  182.6600  179.1250  138.2690 C   0  0  1  0  0  3  0  0  0  0  0  0
  182.5790  177.2670  139.8130 C   0  0  1  0  0  3  0  0  0  0  0  0
  179.0890  176.2530  139.1720 C   0  0  0  0  0  1  0  0  0  0  0  0
  180.7160  179.6730  139.9280 C   0  0  0  0  0  2  0  0  0  0  0  0
  180.8660  181.7140  137.4230 C   0  0  0  0  0  2  0  0  0  0  0  0
  184.9960  179.3720  138.6500 F   0  0  0  0  0  0  0  0  0  0  0  0
  181.4560  180.0290  138.6250 C   0  0  0  0  0  0  0  0  0  0  0  0
  181.4460  177.4310  140.6720 O   0  0  0  0  0  0  0  0  0  0  0  0
  180.9630  177.1970  137.8390 C   0  0  0  0  0  2  0  0  0  0  0  0
  183.7760  179.3450  139.2950 C   0  0  2  0  0  3  0  0  0  0  0  0
  179.8400  177.5210  138.8240 C   0  0  2  0  0  3  0  0  0  0  0  0
  191.2230  177.0720  138.8100 O   0  0  0  0  0  0  0  0  0  0  0  0
  192.3370  176.3400  138.3070 C   0  0  0  0  0  2  0  0  0  0  0  0
  191.9760  175.6340  137.0010 C   0  0  2  0  0  3  0  0  0  0  0  0
  193.9380  175.2240  135.5040 C   0  0  0  0  0  2  0  0  0  0  0  0
  195.8020  173.7120  136.1960 N   0  0  1  0  0  0  0  0  0  0  0  0
  193.8910  174.1320  137.7450 C   0  0  0  0  0  2  0  0  0  0  0  0
  194.9440  173.1400  137.2430 C   0  0  0  0  0  2  0  0  0  0  0  0
  194.9920  174.2030  135.0690 C   0  0  0  0  0  2  0  0  0  0  0  0
  193.0390  174.6190  136.5730 C   0  0  1  0  0  3  0  0  0  0  0  0
  196.6190  174.7930  136.7470 C   0  0  0  0  0  3  0  0  0  0  0  0
  197.6520  175.2290  135.7250 C   0  0  0  0  0  2  0  0  0  0  0  0
  198.0590  174.3300  136.8700 C   0  0  0  0  0  2  0  0  0  0  0  0
  191.7000  176.6060  135.9470 N   0  0  0  0  0  2  0  0  0  0  0  0
  190.4660  176.2180  135.2780 C   0  0  0  0  0  2  0  0  0  0  0  0
  187.1090  176.1690  137.0940 C   0  0  0  0  0  3  0  0  0  0  0  0
  187.0740  177.4680  137.6060 C   0  0  0  0  0  3  0  0  0  0  0  0
  189.2720  176.6220  136.0890 C   0  0  0  0  0  0  0  0  0  0  0  0
  189.2280  177.9210  136.6060 C   0  0  0  0  0  3  0  0  0  0  0  0
  188.1340  178.3440  137.3610 C   0  0  0  0  0  3  0  0  0  0  0  0
  188.1990  175.7360  136.3290 C   0  0  0  0  0  0  0  0  0  0  0  0
  188.1940  174.3410  135.7870 C   0  0  0  0  0  2  0  0  0  0  0  0
  188.5480  173.3480  136.8510 C   0  0  0  0  0  0  0  0  0  0  0  0
  189.7120  173.3480  137.3310 O   0  0  0  0  0  0  0  0  0  0  0  0
  187.5970  172.3890  137.3220 N   0  0  0  0  0  2  0  0  0  0  0  0
  186.2050  172.3750  136.8980 C   0  0  0  0  0  2  0  0  0  0  0  0
  184.1780  173.1980  137.1860 C   0  0  0  0  0  1  0  0  0  0  0  0
  185.4300  173.1110  137.7960 O   0  0  0  0  0  0  0  0  0  0  0  0
  1  4  1  0  0  0  0
  2  7  1  0  0  0  0
  2  6  1  0  0  0  0
  3  2  2  0  0  0  0
  4  6  2  0  0  0  0
  5  3  1  0  0  0  0
  5  1  2  0  0  0  0
  8  7  1  0  0  0  0
  8  9  1  0  0  0  0
 10  9  1  0  0  0  0
 11 10  1  0  0  0  0
 12 21  1  6  0  0  0
 12 25  1  0  0  0  0
 14 13  1  6  0  0  0
 14 19  1  0  0  0  0
 15 11  1  1  0  0  0
 16 24  1  0  0  0  0
 17 24  1  0  0  0  0
 18 14  1  0  0  0  0
 18 24  1  1  0  0  0
 18 27  1  0  0  0  0
 19 15  1  0  0  0  0
 19 25  1  1  0  0  0
 22 17  1  0  0  0  0
 22 16  1  0  0  0  0
 24 21  1  0  0  0  0
 26 14  1  0  0  0  0
 26 28  1  0  0  0  0
 27 23  1  6  0  0  0
 27 15  1  0  0  0  0
 28 20  1  1  0  0  0
 28 12  1  0  0  0  0
 29  5  1  0  0  0  0
 30 29  1  0  0  0  0
 31 30  1  1  0  0  0
 32 37  1  0  0  0  0
 33 38  1  1  0  0  0
 33 35  1  0  0  0  0
 35 34  1  0  0  0  0
 36 32  1  0  0  0  0
 36 33  1  0  0  0  0
 37 31  1  1  0  0  0
 37 34  1  0  0  0  0
 38 40  1  0  0  0  0
 39 38  1  0  0  0  0
 39 40  1  0  0  0  0
 41 31  1  0  0  0  0
 42 41  1  0  0  0  0
 42 45  1  0  0  0  0
 43 44  1  0  0  0  0
 45 48  1  0  0  0  0
 45 46  2  0  0  0  0
 46 47  1  0  0  0  0
 47 44  2  0  0  0  0
 48 43  2  0  0  0  0
 49 48  1  0  0  0  0
 49 50  1  0  0  0  0
 50 52  1  0  0  0  0
 50 51  2  0  0  0  0
 53 52  1  0  0  0  0
 53 55  1  0  0  0  0
 54 55  1  0  0  0  0
M  END
>  <MODEL>
6

>  <REMARK>
 VINA RESULT:      -6.6      2.814      5.652
  Name = 
  18 active torsions:
  status: ('A' for Active; 'I' for Inactive)
    1  A    between atoms: O_2  and  C_28
    2  A    between atoms: O_2  and  C_44
    3  A    between atoms: C_4  and  O_37
    4  A    between atoms: C_4  and  N_40
    5  A    between atoms: C_5  and  C_45
    6  A    between atoms: C_7  and  N_22
    7  A    between atoms: C_8  and  N_22
    8  A    between atoms: C_8  and  C_43
    9  A    between atoms: C_10  and  N_32
   10  A    between atoms: C_16  and  C_36
   11  A    between atoms: C_26  and  C_45
   12  A    between atoms: C_27  and  C_54
   13  A    between atoms: C_28  and  C_49
   14  A    between atoms: N_33  and  C_36
   15  A    between atoms: N_33  and  C_49
   16  A    between atoms: C_43  and  C_51
   17  A    between atoms: C_49  and  C_52
   18  A    between atoms: C_51  and  C_54
                            x       y       z     vdW  Elec       q    Type
                         _______ _______ _______ _____ _____    ______ ____

>  <TORSDO>
F 18

$$$$
=
 OpenBabel10262420223D

 55 62  0  0  1  0  0  0  0  0999 V2000
  190.7460  176.6790  144.1690 C   0  0  0  0  0  3  0  0  0  0  0  0
  188.0520  177.3430  144.5430 C   0  0  0  0  0  0  0  0  0  0  0  0
  188.4930  176.8840  143.2980 C   0  0  0  0  0  3  0  0  0  0  0  0
  190.3060  177.1370  145.4120 C   0  0  0  0  0  3  0  0  0  0  0  0
  189.8460  176.5480  143.1060 C   0  0  0  0  0  0  0  0  0  0  0  0
  188.9610  177.4680  145.6020 C   0  0  0  0  0  3  0  0  0  0  0  0
  186.6150  177.6780  144.7450 C   0  0  0  0  0  2  0  0  0  0  0  0
  185.9850  178.1070  143.4350 C   0  0  0  0  0  2  0  0  0  0  0  0
  184.4900  178.2590  143.6150 C   0  0  0  0  0  2  0  0  0  0  0  0
  183.9280  179.2000  142.5640 C   0  0  0  0  0  2  0  0  0  0  0  0
  182.8960  178.5290  141.7900 N   0  0  0  0  0  2  0  0  0  0  0  0
  180.3560  177.5630  139.4580 C   0  0  2  0  0  3  0  0  0  0  0  0
  184.1170  176.9670  137.7420 C   0  0  0  0  0  1  0  0  0  0  0  0
  182.7890  177.4690  138.2900 C   0  0  2  0  0  0  0  0  0  0  0  0
  183.4880  178.1700  140.5090 C   0  0  1  0  0  3  0  0  0  0  0  0
  181.4520  181.1710  138.3870 C   0  0  0  0  0  2  0  0  0  0  0  0
  180.7660  179.7440  136.9440 C   0  0  0  0  0  2  0  0  0  0  0  0
  182.8000  179.0100  138.3060 C   0  0  1  0  0  3  0  0  0  0  0  0
  182.6790  177.0950  139.7750 C   0  0  1  0  0  3  0  0  0  0  0  0
  179.7430  175.4790  138.2290 C   0  0  0  0  0  1  0  0  0  0  0  0
  180.4210  179.1010  139.3860 C   0  0  0  0  0  2  0  0  0  0  0  0
  180.8240  181.2570  137.0090 C   0  0  0  0  0  2  0  0  0  0  0  0
  184.8610  179.6710  139.2950 F   0  0  0  0  0  0  0  0  0  0  0  0
  181.3930  179.6540  138.3270 C   0  0  0  0  0  0  0  0  0  0  0  0
  181.3510  177.0000  140.3010 O   0  0  0  0  0  0  0  0  0  0  0  0
  181.6820  176.8230  137.4420 C   0  0  0  0  0  2  0  0  0  0  0  0
  183.5430  179.3830  139.5920 C   0  0  2  0  0  3  0  0  0  0  0  0
  180.3000  176.8810  138.0910 C   0  0  2  0  0  3  0  0  0  0  0  0
  190.3220  176.0930  141.8750 O   0  0  0  0  0  0  0  0  0  0  0  0
  190.5510  176.9590  140.7660 C   0  0  0  0  0  2  0  0  0  0  0  0
  190.0640  176.3160  139.4690 C   0  0  2  0  0  3  0  0  0  0  0  0
  192.5040  176.5960  138.9910 C   0  0  0  0  0  2  0  0  0  0  0  0
  193.6070  175.3570  137.1230 N   0  0  1  0  0  0  0  0  0  0  0  0
  191.1820  175.0070  137.5960 C   0  0  0  0  0  2  0  0  0  0  0  0
  192.2890  175.0700  136.5390 C   0  0  0  0  0  2  0  0  0  0  0  0
  193.5740  176.6100  137.8960 C   0  0  0  0  0  2  0  0  0  0  0  0
  191.1380  176.3180  138.3780 C   0  0  1  0  0  3  0  0  0  0  0  0
  194.0380  174.2450  137.9690 C   0  0  0  0  0  3  0  0  0  0  0  0
  195.4350  174.5110  138.4970 C   0  0  0  0  0  2  0  0  0  0  0  0
  195.2360  173.5600  137.3390 C   0  0  0  0  0  2  0  0  0  0  0  0
  188.8280  176.9460  139.0130 N   0  0  0  0  0  2  0  0  0  0  0  0
  188.2380  176.1030  137.9830 C   0  0  0  0  0  2  0  0  0  0  0  0
  186.6380  177.1860  134.6900 C   0  0  0  0  0  3  0  0  0  0  0  0
  186.6500  178.5740  134.8430 C   0  0  0  0  0  3  0  0  0  0  0  0
  187.6740  176.9360  136.8720 C   0  0  0  0  0  0  0  0  0  0  0  0
  187.6800  178.3280  137.0160 C   0  0  0  0  0  3  0  0  0  0  0  0
  187.1710  179.1450  136.0060 C   0  0  0  0  0  3  0  0  0  0  0  0
  187.1530  176.3570  135.6940 C   0  0  0  0  0  0  0  0  0  0  0  0
  187.1360  174.8750  135.4890 C   0  0  0  0  0  2  0  0  0  0  0  0
  188.4880  174.3700  135.0870 C   0  0  0  0  0  0  0  0  0  0  0  0
  189.3320  175.1770  134.6160 O   0  0  0  0  0  0  0  0  0  0  0  0
  188.8360  172.9880  135.2130 N   0  0  0  0  0  2  0  0  0  0  0  0
  187.9640  172.0020  135.8340 C   0  0  0  0  0  2  0  0  0  0  0  0
  186.0160  171.1030  135.3220 C   0  0  0  0  0  1  0  0  0  0  0  0
  187.3190  171.2540  134.8480 O   0  0  0  0  0  0  0  0  0  0  0  0
  1  4  1  0  0  0  0
  2  7  1  0  0  0  0
  2  6  1  0  0  0  0
  3  2  2  0  0  0  0
  4  6  2  0  0  0  0
  5  3  1  0  0  0  0
  5  1  2  0  0  0  0
  8  9  1  0  0  0  0
  8  7  1  0  0  0  0
 10  9  1  0  0  0  0
 11 10  1  0  0  0  0
 12 21  1  6  0  0  0
 12 25  1  0  0  0  0
 14 13  1  6  0  0  0
 14 18  1  0  0  0  0
 14 19  1  0  0  0  0
 15 11  1  1  0  0  0
 17 22  1  0  0  0  0
 17 24  1  0  0  0  0
 18 24  1  1  0  0  0
 18 27  1  0  0  0  0
 19 25  1  1  0  0  0
 19 15  1  0  0  0  0
 22 16  1  0  0  0  0
 24 16  1  0  0  0  0
 24 21  1  0  0  0  0
 26 28  1  0  0  0  0
 26 14  1  0  0  0  0
 27 23  1  6  0  0  0
 27 15  1  0  0  0  0
 28 20  1  1  0  0  0
 28 12  1  0  0  0  0
 29  5  1  0  0  0  0
 30 29  1  0  0  0  0
 31 30  1  1  0  0  0
 33 36  1  0  0  0  0
 33 38  1  1  0  0  0
 34 37  1  0  0  0  0
 35 33  1  0  0  0  0
 35 34  1  0  0  0  0
 36 32  1  0  0  0  0
 37 32  1  0  0  0  0
 37 31  1  1  0  0  0
 38 39  1  0  0  0  0
 40 38  1  0  0  0  0
 40 39  1  0  0  0  0
 41 31  1  0  0  0  0
 42 41  1  0  0  0  0
 43 44  2  0  0  0  0
 43 48  1  0  0  0  0
 44 47  1  0  0  0  0
 45 46  1  0  0  0  0
 45 42  1  0  0  0  0
 47 46  2  0  0  0  0
 48 45  2  0  0  0  0
 49 48  1  0  0  0  0
 50 52  1  0  0  0  0
 50 49  1  0  0  0  0
 51 50  2  0  0  0  0
 52 53  1  0  0  0  0
 55 54  1  0  0  0  0
 55 53  1  0  0  0  0
M  END
>  <MODEL>
7

>  <REMARK>
 VINA RESULT:      -6.5      2.485      5.386
  Name = 
  18 active torsions:
  status: ('A' for Active; 'I' for Inactive)
    1  A    between atoms: O_2  and  C_28
    2  A    between atoms: O_2  and  C_44
    3  A    between atoms: C_4  and  O_37
    4  A    between atoms: C_4  and  N_40
    5  A    between atoms: C_5  and  C_45
    6  A    between atoms: C_7  and  N_22
    7  A    between atoms: C_8  and  N_22
    8  A    between atoms: C_8  and  C_43
    9  A    between atoms: C_10  and  N_32
   10  A    between atoms: C_16  and  C_36
   11  A    between atoms: C_26  and  C_45
   12  A    between atoms: C_27  and  C_54
   13  A    between atoms: C_28  and  C_49
   14  A    between atoms: N_33  and  C_36
   15  A    between atoms: N_33  and  C_49
   16  A    between atoms: C_43  and  C_51
   17  A    between atoms: C_49  and  C_52
   18  A    between atoms: C_51  and  C_54
                            x       y       z     vdW  Elec       q    Type
                         _______ _______ _______ _____ _____    ______ ____

>  <TORSDO>
F 18

$$$$
=
 OpenBabel10262420223D

 55 62  0  0  1  0  0  0  0  0999 V2000
  190.9300  177.3130  142.3720 C   0  0  0  0  0  3  0  0  0  0  0  0
  188.5370  177.6900  143.7760 C   0  0  0  0  0  0  0  0  0  0  0  0
  188.5470  177.7560  142.3790 C   0  0  0  0  0  3  0  0  0  0  0  0
  190.9210  177.2470  143.7660 C   0  0  0  0  0  3  0  0  0  0  0  0
  189.7470  177.5660  141.6690 C   0  0  0  0  0  0  0  0  0  0  0  0
  189.7270  177.4330  144.4690 C   0  0  0  0  0  3  0  0  0  0  0  0
  187.2600  177.8720  144.5200 C   0  0  0  0  0  2  0  0  0  0  0  0
  186.0880  177.4130  143.6750 C   0  0  0  0  0  2  0  0  0  0  0  0
  184.9930  178.4570  143.7160 C   0  0  0  0  0  2  0  0  0  0  0  0
  184.8690  179.1410  142.3660 C   0  0  0  0  0  2  0  0  0  0  0  0
  183.5370  178.9370  141.8210 N   0  0  0  0  0  2  0  0  0  0  0  0
  180.3500  178.4040  140.2770 C   0  0  2  0  0  3  0  0  0  0  0  0
  183.3420  176.6920  137.9170 C   0  0  0  0  0  1  0  0  0  0  0  0
  182.3350  177.5700  138.6470 C   0  0  2  0  0  0  0  0  0  0  0  0
  183.6990  178.3050  140.5190 C   0  0  1  0  0  3  0  0  0  0  0  0
  181.9180  181.4790  138.4200 C   0  0  0  0  0  2  0  0  0  0  0  0
  180.5980  180.1260  137.4100 C   0  0  0  0  0  2  0  0  0  0  0  0
  182.6910  179.0510  138.4070 C   0  0  1  0  0  3  0  0  0  0  0  0
  182.5160  177.3980  140.1620 C   0  0  1  0  0  3  0  0  0  0  0  0
  179.0070  176.4230  139.5660 C   0  0  0  0  0  1  0  0  0  0  0  0
  180.7340  179.8570  139.9420 C   0  0  0  0  0  2  0  0  0  0  0  0
  181.0030  181.5740  137.2130 C   0  0  0  0  0  2  0  0  0  0  0  0
  185.0260  179.2700  138.8100 F   0  0  0  0  0  0  0  0  0  0  0  0
  181.5110  180.0290  138.6230 C   0  0  0  0  0  0  0  0  0  0  0  0
  181.3730  177.7000  140.9670 O   0  0  0  0  0  0  0  0  0  0  0  0
  180.9380  177.1390  138.1730 C   0  0  0  0  0  2  0  0  0  0  0  0
  183.7930  179.3590  139.4250 C   0  0  2  0  0  3  0  0  0  0  0  0
  179.8080  177.6160  139.0840 C   0  0  2  0  0  3  0  0  0  0  0  0
  189.7940  177.6320  140.2760 O   0  0  0  0  0  0  0  0  0  0  0  0
  190.8750  177.1020  139.5130 C   0  0  0  0  0  2  0  0  0  0  0  0
  190.3550  176.2250  138.3760 C   0  0  2  0  0  3  0  0  0  0  0  0
  192.7940  176.2220  137.8180 C   0  0  0  0  0  2  0  0  0  0  0  0
  193.7090  174.7520  136.0160 N   0  0  1  0  0  0  0  0  0  0  0  0
  191.2770  174.6830  136.5730 C   0  0  0  0  0  2  0  0  0  0  0  0
  192.3500  174.5610  135.4880 C   0  0  0  0  0  2  0  0  0  0  0  0
  193.8240  176.0520  136.6980 C   0  0  0  0  0  2  0  0  0  0  0  0
  191.3890  176.0430  137.2610 C   0  0  1  0  0  3  0  0  0  0  0  0
  194.0540  173.6630  136.9290 C   0  0  0  0  0  3  0  0  0  0  0  0
  195.3980  173.9400  137.5750 C   0  0  0  0  0  2  0  0  0  0  0  0
  195.3010  172.9570  136.4300 C   0  0  0  0  0  2  0  0  0  0  0  0
  189.0900  176.7420  137.8620 N   0  0  0  0  0  2  0  0  0  0  0  0
  188.2070  175.6130  137.6010 C   0  0  0  0  0  2  0  0  0  0  0  0
  185.6270  175.3520  134.8000 C   0  0  0  0  0  3  0  0  0  0  0  0
  185.3270  176.7010  134.6000 C   0  0  0  0  0  3  0  0  0  0  0  0
  187.1970  175.9590  136.5500 C   0  0  0  0  0  0  0  0  0  0  0  0
  186.8890  177.3080  136.3420 C   0  0  0  0  0  3  0  0  0  0  0  0
  185.9590  177.6790  135.3710 C   0  0  0  0  0  3  0  0  0  0  0  0
  186.5640  174.9690  135.7670 C   0  0  0  0  0  0  0  0  0  0  0  0
  186.8680  173.5140  135.9440 C   0  0  0  0  0  2  0  0  0  0  0  0
  185.9040  172.8730  136.8940 C   0  0  0  0  0  0  0  0  0  0  0  0
  185.8410  173.2880  138.0810 O   0  0  0  0  0  0  0  0  0  0  0  0
  185.0630  171.7900  136.4870 N   0  0  0  0  0  2  0  0  0  0  0  0
  184.9960  171.3080  135.1150 C   0  0  0  0  0  2  0  0  0  0  0  0
  183.1830  170.4750  136.0560 C   0  0  0  0  0  1  0  0  0  0  0  0
  183.6970  170.8860  134.8260 O   0  0  0  0  0  0  0  0  0  0  0  0
  1  4  1  0  0  0  0
  2  6  1  0  0  0  0
  2  7  1  0  0  0  0
  3  2  2  0  0  0  0
  4  6  2  0  0  0  0
  5  1  2  0  0  0  0
  5  3  1  0  0  0  0
  8  9  1  0  0  0  0
  8  7  1  0  0  0  0
 10  9  1  0  0  0  0
 11 10  1  0  0  0  0
 12 21  1  6  0  0  0
 12 25  1  0  0  0  0
 14 13  1  6  0  0  0
 14 19  1  0  0  0  0
 15 11  1  1  0  0  0
 16 24  1  0  0  0  0
 17 24  1  0  0  0  0
 18 24  1  1  0  0  0
 18 14  1  0  0  0  0
 18 27  1  0  0  0  0
 19 15  1  0  0  0  0
 19 25  1  1  0  0  0
 22 17  1  0  0  0  0
 22 16  1  0  0  0  0
 24 21  1  0  0  0  0
 26 14  1  0  0  0  0
 26 28  1  0  0  0  0
 27 23  1  6  0  0  0
 27 15  1  0  0  0  0
 28 20  1  1  0  0  0
 28 12  1  0  0  0  0
 29  5  1  0  0  0  0
 30 29  1  0  0  0  0
 31 30  1  1  0  0  0
 33 36  1  0  0  0  0
 33 38  1  1  0  0  0
 34 37  1  0  0  0  0
 35 33  1  0  0  0  0
 35 34  1  0  0  0  0
 36 32  1  0  0  0  0
 37 32  1  0  0  0  0
 37 31  1  1  0  0  0
 38 39  1  0  0  0  0
 40 38  1  0  0  0  0
 40 39  1  0  0  0  0
 41 31  1  0  0  0  0
 42 41  1  0  0  0  0
 43 48  1  0  0  0  0
 44 43  2  0  0  0  0
 44 47  1  0  0  0  0
 45 42  1  0  0  0  0
 46 45  1  0  0  0  0
 47 46  2  0  0  0  0
 48 49  1  0  0  0  0
 48 45  2  0  0  0  0
 49 50  1  0  0  0  0
 50 51  2  0  0  0  0
 52 50  1  0  0  0  0
 53 52  1  0  0  0  0
 55 53  1  0  0  0  0
 55 54  1  0  0  0  0
M  END
>  <MODEL>
8

>  <REMARK>
 VINA RESULT:      -6.4      2.724      5.778
  Name = 
  18 active torsions:
  status: ('A' for Active; 'I' for Inactive)
    1  A    between atoms: O_2  and  C_28
    2  A    between atoms: O_2  and  C_44
    3  A    between atoms: C_4  and  O_37
    4  A    between atoms: C_4  and  N_40
    5  A    between atoms: C_5  and  C_45
    6  A    between atoms: C_7  and  N_22
    7  A    between atoms: C_8  and  N_22
    8  A    between atoms: C_8  and  C_43
    9  A    between atoms: C_10  and  N_32
   10  A    between atoms: C_16  and  C_36
   11  A    between atoms: C_26  and  C_45
   12  A    between atoms: C_27  and  C_54
   13  A    between atoms: C_28  and  C_49
   14  A    between atoms: N_33  and  C_36
   15  A    between atoms: N_33  and  C_49
   16  A    between atoms: C_43  and  C_51
   17  A    between atoms: C_49  and  C_52
   18  A    between atoms: C_51  and  C_54
                            x       y       z     vdW  Elec       q    Type
                         _______ _______ _______ _____ _____    ______ ____

>  <TORSDO>
F 18

$$$$
=
 OpenBabel10262420223D

 55 62  0  0  1  0  0  0  0  0999 V2000
  189.5570  177.8620  140.5600 C   0  0  0  0  0  3  0  0  0  0  0  0
  189.2690  176.4260  138.1750 C   0  0  0  0  0  0  0  0  0  0  0  0
  188.2340  177.2540  138.6230 C   0  0  0  0  0  3  0  0  0  0  0  0
  190.5900  177.0350  140.1130 C   0  0  0  0  0  3  0  0  0  0  0  0
  188.3760  177.9780  139.8210 C   0  0  0  0  0  0  0  0  0  0  0  0
  190.4480  176.3190  138.9220 C   0  0  0  0  0  3  0  0  0  0  0  0
  189.1200  175.6770  136.8960 C   0  0  0  0  0  2  0  0  0  0  0  0
  190.4460  175.6210  136.1620 C   0  0  0  0  0  2  0  0  0  0  0  0
  190.6990  174.2090  135.6770 C   0  0  0  0  0  2  0  0  0  0  0  0
  192.1400  174.0620  135.2220 C   0  0  0  0  0  2  0  0  0  0  0  0
  192.7590  172.9220  135.8790 N   0  0  0  0  0  2  0  0  0  0  0  0
  196.2620  172.4130  135.3370 C   0  0  2  0  0  3  0  0  0  0  0  0
  195.6630  174.0000  139.1540 C   0  0  0  0  0  1  0  0  0  0  0  0
  195.8500  173.7040  137.6730 C   0  0  2  0  0  0  0  0  0  0  0  0
  193.5300  173.4410  137.0000 C   0  0  1  0  0  3  0  0  0  0  0  0
  195.6320  176.2210  134.6530 C   0  0  0  0  0  2  0  0  0  0  0  0
  197.5040  175.5270  135.4310 C   0  0  0  0  0  2  0  0  0  0  0  0
  195.4620  174.9520  136.8560 C   0  0  1  0  0  3  0  0  0  0  0  0
  194.8230  172.6520  137.2310 C   0  0  1  0  0  3  0  0  0  0  0  0
  198.0800  171.1070  136.4400 C   0  0  0  0  0  1  0  0  0  0  0  0
  195.9130  173.7180  134.5960 C   0  0  0  0  0  2  0  0  0  0  0  0
  197.0570  176.7440  134.6460 C   0  0  0  0  0  2  0  0  0  0  0  0
  193.3650  175.6980  137.6990 F   0  0  0  0  0  0  0  0  0  0  0  0
  196.0770  174.9980  135.4370 C   0  0  0  0  0  0  0  0  0  0  0  0
  195.1720  171.8820  136.0760 O   0  0  0  0  0  0  0  0  0  0  0  0
  197.2970  173.2190  137.4930 C   0  0  0  0  0  2  0  0  0  0  0  0
  193.9360  174.8850  136.7400 C   0  0  2  0  0  3  0  0  0  0  0  0
  197.5420  172.4960  136.1690 C   0  0  2  0  0  3  0  0  0  0  0  0
  187.3620  178.8090  140.3010 O   0  0  0  0  0  0  0  0  0  0  0  0
  186.0880  178.9180  139.6700 C   0  0  0  0  0  2  0  0  0  0  0  0
  185.0560  178.0470  140.3830 C   0  0  2  0  0  3  0  0  0  0  0  0
  182.5670  177.9650  140.6200 C   0  0  0  0  0  2  0  0  0  0  0  0
  181.0690  179.0010  138.9100 N   0  0  1  0  0  0  0  0  0  0  0  0
  183.5470  179.1530  138.6580 C   0  0  0  0  0  2  0  0  0  0  0  0
  182.1890  179.0430  137.9590 C   0  0  0  0  0  2  0  0  0  0  0  0
  181.2370  177.8940  139.8650 C   0  0  0  0  0  2  0  0  0  0  0  0
  183.7240  177.9880  139.6310 C   0  0  1  0  0  3  0  0  0  0  0  0
  180.9600  180.2760  139.6180 C   0  0  0  0  0  3  0  0  0  0  0  0
  179.5670  180.4230  140.2010 C   0  0  0  0  0  2  0  0  0  0  0  0
  179.9320  181.1550  138.9300 C   0  0  0  0  0  2  0  0  0  0  0  0
  184.8790  178.4830  141.7650 N   0  0  0  0  0  2  0  0  0  0  0  0
  185.7280  177.6610  142.6160 C   0  0  0  0  0  2  0  0  0  0  0  0
  186.3780  178.1160  146.3500 C   0  0  0  0  0  3  0  0  0  0  0  0
  185.2570  178.8640  146.7180 C   0  0  0  0  0  3  0  0  0  0  0  0
  185.5950  178.0670  144.0530 C   0  0  0  0  0  0  0  0  0  0  0  0
  184.4760  178.8170  144.4300 C   0  0  0  0  0  3  0  0  0  0  0  0
  184.3060  179.2140  145.7570 C   0  0  0  0  0  3  0  0  0  0  0  0
  186.5550  177.7070  145.0230 C   0  0  0  0  0  0  0  0  0  0  0  0
  187.7630  176.8960  144.6700 C   0  0  0  0  0  2  0  0  0  0  0  0
  189.0000  177.7410  144.6800 C   0  0  0  0  0  0  0  0  0  0  0  0
  189.1520  178.6210  143.7930 O   0  0  0  0  0  0  0  0  0  0  0  0
  190.0210  177.5570  145.6650 N   0  0  0  0  0  2  0  0  0  0  0  0
  189.8900  176.6340  146.7840 C   0  0  0  0  0  2  0  0  0  0  0  0
  191.8790  175.7660  147.1800 C   0  0  0  0  0  1  0  0  0  0  0  0
  190.9970  176.7520  147.6250 O   0  0  0  0  0  0  0  0  0  0  0  0
  2  3  2  0  0  0  0
  2  6  1  0  0  0  0
  3  5  1  0  0  0  0
  4  1  1  0  0  0  0
  5 29  1  0  0  0  0
  5  1  2  0  0  0  0
  6  4  2  0  0  0  0
  7  2  1  0  0  0  0
  8  7  1  0  0  0  0
  9  8  1  0  0  0  0
 10  9  1  0  0  0  0
 10 11  1  0  0  0  0
 12 21  1  1  0  0  0
 12 25  1  0  0  0  0
 12 28  1  0  0  0  0
 14 13  1  1  0  0  0
 15 11  1  6  0  0  0
 15 19  1  0  0  0  0
 16 24  1  0  0  0  0
 17 24  1  0  0  0  0
 18 24  1  6  0  0  0
 18 14  1  0  0  0  0
 19 25  1  6  0  0  0
 19 14  1  0  0  0  0
 21 24  1  0  0  0  0
 22 16  1  0  0  0  0
 22 17  1  0  0  0  0
 26 14  1  0  0  0  0
 27 18  1  0  0  0  0
 27 15  1  0  0  0  0
 27 23  1  1  0  0  0
 28 20  1  1  0  0  0
 28 26  1  0  0  0  0
 30 29  1  0  0  0  0
 31 30  1  6  0  0  0
 31 41  1  0  0  0  0
 33 38  1  1  0  0  0
 33 36  1  0  0  0  0
 34 37  1  0  0  0  0
 35 34  1  0  0  0  0
 35 33  1  0  0  0  0
 36 32  1  0  0  0  0
 37 31  1  1  0  0  0
 37 32  1  0  0  0  0
 38 39  1  0  0  0  0
 40 38  1  0  0  0  0
 40 39  1  0  0  0  0
 41 42  1  0  0  0  0
 42 45  1  0  0  0  0
 43 44  1  0  0  0  0
 45 46  2  0  0  0  0
 45 48  1  0  0  0  0
 46 47  1  0  0  0  0
 47 44  2  0  0  0  0
 48 43  2  0  0  0  0
 49 50  1  0  0  0  0
 49 48  1  0  0  0  0
 50 52  1  0  0  0  0
 51 50  2  0  0  0  0
 52 53  1  0  0  0  0
 53 55  1  0  0  0  0
 54 55  1  0  0  0  0
M  END
>  <MODEL>
9

>  <REMARK>
 VINA RESULT:      -6.2      3.696     10.928
  Name = 
  18 active torsions:
  status: ('A' for Active; 'I' for Inactive)
    1  A    between atoms: O_2  and  C_28
    2  A    between atoms: O_2  and  C_44
    3  A    between atoms: C_4  and  O_37
    4  A    between atoms: C_4  and  N_40
    5  A    between atoms: C_5  and  C_45
    6  A    between atoms: C_7  and  N_22
    7  A    between atoms: C_8  and  N_22
    8  A    between atoms: C_8  and  C_43
    9  A    between atoms: C_10  and  N_32
   10  A    between atoms: C_16  and  C_36
   11  A    between atoms: C_26  and  C_45
   12  A    between atoms: C_27  and  C_54
   13  A    between atoms: C_28  and  C_49
   14  A    between atoms: N_33  and  C_36
   15  A    between atoms: N_33  and  C_49
   16  A    between atoms: C_43  and  C_51
   17  A    between atoms: C_49  and  C_52
   18  A    between atoms: C_51  and  C_54
                            x       y       z     vdW  Elec       q    Type
                         _______ _______ _______ _____ _____    ______ ____

>  <TORSDO>
F 18

$$$$
