=
 OpenBabel10262420133D

 27 30  0  0  1  0  0  0  0  0999 V2000
  187.6890  178.6460  142.2530 C   0  0  0  0  0  2  0  0  0  0  0  0
  187.6900  177.0070  144.2420 C   0  0  1  0  0  3  0  0  0  0  0  0
  188.7310  175.2860  142.8880 O   0  0  0  0  0  1  0  0  0  0  0  0
  190.9210  177.3570  139.5450 C   0  0  0  0  0  2  0  0  0  0  0  0
  189.5860  177.8220  139.0400 C   0  0  0  0  0  0  0  0  0  0  0  0
  190.0720  177.2670  143.3540 C   0  0  2  0  0  3  0  0  0  0  0  0
  186.9010  177.6220  143.0680 C   0  0  1  0  0  3  0  0  0  0  0  0
  188.6090  177.9000  141.3060 C   0  0  1  0  0  3  0  0  0  0  0  0
  188.9810  176.2930  143.8240 C   0  0  1  0  0  3  0  0  0  0  0  0
  190.7840  176.7410  140.9400 C   0  0  0  0  0  2  0  0  0  0  0  0
  189.2710  177.6320  137.8770 O   0  0  0  0  0  0  0  0  0  0  0  0
  188.6770  178.5950  139.9500 C   0  0  0  0  0  2  0  0  0  0  0  0
  190.0250  177.6950  141.8700 C   0  0  2  0  0  3  0  0  0  0  0  0
  183.9850  178.8460  145.1970 C   0  0  0  0  0  3  0  0  0  0  0  0
  185.5550  178.1340  143.4860 C   0  0  0  0  0  0  0  0  0  0  0  0
  184.5590  178.2950  142.5160 C   0  0  0  0  0  3  0  0  0  0  0  0
  183.2840  178.7370  142.8820 C   0  0  0  0  0  3  0  0  0  0  0  0
  182.9970  179.0120  144.2230 C   0  0  0  0  0  3  0  0  0  0  0  0
  185.2600  178.4060  144.8310 C   0  0  0  0  0  3  0  0  0  0  0  0
  188.0990  177.6350  146.6580 C   0  0  0  0  0  0  0  0  0  0  0  0
  187.9690  177.9940  145.2800 N   0  0  0  0  0  2  0  0  0  0  0  0
  188.0430  176.4250  147.0100 O   0  0  0  0  0  0  0  0  0  0  0  0
  189.5210  178.3360  148.4870 N   0  0  0  0  0  2  0  0  0  0  0  0
  188.1680  178.1500  149.0250 C   0  0  0  0  0  2  0  0  0  0  0  0
  188.3420  178.6940  147.6810 C   0  0  2  0  0  3  0  0  0  0  0  0
  191.5000  176.7270  145.1960 O   0  0  0  0  0  1  0  0  0  0  0  0
  191.4590  176.8290  143.8060 C   0  0  0  0  0  2  0  0  0  0  0  0
  1  7  1  0  0  0  0
  2 21  1  1  0  0  0
  4 10  1  0  0  0  0
  5  4  1  0  0  0  0
  5 12  1  0  0  0  0
  6 27  1  6  0  0  0
  6  9  1  0  0  0  0
  7 15  1  1  0  0  0
  7  2  1  0  0  0  0
  8 12  1  6  0  0  0
  8 13  1  0  0  0  0
  8  1  1  0  0  0  0
  9  3  1  6  0  0  0
  9  2  1  0  0  0  0
 11  5  2  0  0  0  0
 13 10  1  6  0  0  0
 13  6  1  0  0  0  0
 15 19  2  0  0  0  0
 16 17  2  0  0  0  0
 16 15  1  0  0  0  0
 17 18  1  0  0  0  0
 18 14  2  0  0  0  0
 19 14  1  0  0  0  0
 20 22  2  0  0  0  0
 21 20  1  0  0  0  0
 23 24  1  0  0  0  0
 25 20  1  6  0  0  0
 25 23  1  0  0  0  0
 25 24  1  0  0  0  0
 27 26  1  0  0  0  0
M  END
>  <MODEL>
1

>  <REMARK>
 VINA RESULT:      -8.7      0.000      0.000
  Name = 
  4 active torsions:
  status: ('A' for Active; 'I' for Inactive)
    1  A    between atoms: C_2  and  N_6
    2  A    between atoms: C_5  and  C_17
    3  A    between atoms: C_9  and  C_15
    4  A    between atoms: C_12  and  C_14
                            x       y       z     vdW  Elec       q    Type
                         _______ _______ _______ _____ _____    ______ ____

>  <TORSDO>
F 4

$$$$
=
 OpenBabel10262420133D

 27 30  0  0  1  0  0  0  0  0999 V2000
  187.3560  177.0860  143.8820 C   0  0  0  0  0  2  0  0  0  0  0  0
  188.7110  178.2610  142.0310 C   0  0  1  0  0  3  0  0  0  0  0  0
  190.0780  179.3950  143.6810 O   0  0  0  0  0  1  0  0  0  0  0  0
  189.9460  176.9330  147.4470 C   0  0  0  0  0  2  0  0  0  0  0  0
  188.4810  177.2500  147.5300 C   0  0  0  0  0  0  0  0  0  0  0  0
  190.3010  176.9710  143.5590 C   0  0  2  0  0  3  0  0  0  0  0  0
  187.4420  178.2590  142.9070 C   0  0  1  0  0  3  0  0  0  0  0  0
  188.2390  177.3910  145.0770 C   0  0  1  0  0  3  0  0  0  0  0  0
  190.0230  178.2910  142.8250 C   0  0  1  0  0  3  0  0  0  0  0  0
  190.5140  177.3640  146.0920 C   0  0  0  0  0  2  0  0  0  0  0  0
  188.0110  177.7080  148.5580 O   0  0  0  0  0  0  0  0  0  0  0  0
  187.5850  176.9210  146.3720 C   0  0  0  0  0  2  0  0  0  0  0  0
  189.6550  176.8040  144.9530 C   0  0  2  0  0  3  0  0  0  0  0  0
  185.0420  179.0410  140.0490 C   0  0  0  0  0  3  0  0  0  0  0  0
  186.1880  178.4300  142.1020 C   0  0  0  0  0  0  0  0  0  0  0  0
  184.9510  178.2090  142.7180 C   0  0  0  0  0  3  0  0  0  0  0  0
  183.7640  178.3950  142.0020 C   0  0  0  0  0  3  0  0  0  0  0  0
  183.8100  178.8110  140.6680 C   0  0  0  0  0  3  0  0  0  0  0  0
  186.2280  178.8540  140.7650 C   0  0  0  0  0  3  0  0  0  0  0  0
  189.1390  177.3010  139.7300 C   0  0  0  0  0  0  0  0  0  0  0  0
  188.7160  177.1480  141.0860 N   0  0  0  0  0  2  0  0  0  0  0  0
  189.5910  178.4060  139.3230 O   0  0  0  0  0  0  0  0  0  0  0  0
  190.4390  175.6060  138.5910 N   0  0  0  0  0  2  0  0  0  0  0  0
  189.8010  176.4380  137.5640 C   0  0  0  0  0  2  0  0  0  0  0  0
  189.0810  176.1360  138.7990 C   0  0  2  0  0  3  0  0  0  0  0  0
  191.9540  175.2770  143.9070 O   0  0  0  0  0  1  0  0  0  0  0  0
  191.7820  176.6120  143.5420 C   0  0  0  0  0  2  0  0  0  0  0  0
  2 21  1  1  0  0  0
  2  9  1  0  0  0  0
  2  7  1  0  0  0  0
  4  5  1  0  0  0  0
  5 11  2  0  0  0  0
  6 27  1  1  0  0  0
  6 13  1  0  0  0  0
  7 15  1  6  0  0  0
  7  1  1  0  0  0  0
  8  1  1  6  0  0  0
  8 12  1  0  0  0  0
  9  6  1  0  0  0  0
  9  3  1  1  0  0  0
 10  4  1  0  0  0  0
 12  5  1  0  0  0  0
 13  8  1  0  0  0  0
 13 10  1  1  0  0  0
 14 18  2  0  0  0  0
 14 19  1  0  0  0  0
 15 16  1  0  0  0  0
 17 16  2  0  0  0  0
 18 17  1  0  0  0  0
 19 15  2  0  0  0  0
 20 21  1  0  0  0  0
 22 20  2  0  0  0  0
 23 25  1  0  0  0  0
 24 23  1  0  0  0  0
 24 25  1  0  0  0  0
 25 20  1  1  0  0  0
 27 26  1  0  0  0  0
M  END
>  <MODEL>
2

>  <REMARK>
 VINA RESULT:      -8.7      2.306      5.832
  Name = 
  4 active torsions:
  status: ('A' for Active; 'I' for Inactive)
    1  A    between atoms: C_2  and  N_6
    2  A    between atoms: C_5  and  C_17
    3  A    between atoms: C_9  and  C_15
    4  A    between atoms: C_12  and  C_14
                            x       y       z     vdW  Elec       q    Type
                         _______ _______ _______ _____ _____    ______ ____

>  <TORSDO>
F 4

$$$$
=
 OpenBabel10262420133D

 27 30  0  0  1  0  0  0  0  0999 V2000
  188.1710  177.1370  141.5800 C   0  0  0  0  0  2  0  0  0  0  0  0
  190.5370  177.5160  140.6320 C   0  0  1  0  0  3  0  0  0  0  0  0
  191.2250  178.6470  142.6640 O   0  0  0  0  0  1  0  0  0  0  0  0
  188.5400  177.2010  145.9740 C   0  0  0  0  0  2  0  0  0  0  0  0
  187.3990  177.8580  145.2520 C   0  0  0  0  0  0  0  0  0  0  0  0
  190.7030  176.2740  142.8590 C   0  0  2  0  0  3  0  0  0  0  0  0
  189.0770  178.0060  140.7110 C   0  0  1  0  0  3  0  0  0  0  0  0
  188.4190  177.4920  143.0340 C   0  0  1  0  0  3  0  0  0  0  0  0
  191.2420  177.4220  141.9910 C   0  0  1  0  0  3  0  0  0  0  0  0
  189.7890  177.1700  145.0900 C   0  0  0  0  0  2  0  0  0  0  0  0
  186.6660  178.6330  145.8440 O   0  0  0  0  0  0  0  0  0  0  0  0
  187.1150  177.4920  143.8250 C   0  0  0  0  0  2  0  0  0  0  0  0
  189.4540  176.5810  143.7150 C   0  0  2  0  0  3  0  0  0  0  0  0
  186.6750  178.0980  137.7500 C   0  0  0  0  0  3  0  0  0  0  0  0
  188.4880  178.2750  139.3580 C   0  0  0  0  0  0  0  0  0  0  0  0
  189.2760  178.9040  138.3880 C   0  0  0  0  0  3  0  0  0  0  0  0
  188.7660  179.1360  137.1070 C   0  0  0  0  0  3  0  0  0  0  0  0
  187.4660  178.7330  136.7880 C   0  0  0  0  0  3  0  0  0  0  0  0
  187.1860  177.8670  139.0310 C   0  0  0  0  0  3  0  0  0  0  0  0
  191.4050  176.1110  138.7160 C   0  0  0  0  0  0  0  0  0  0  0  0
  190.6430  176.2470  139.9170 N   0  0  0  0  0  2  0  0  0  0  0  0
  192.0740  177.0830  138.2710 O   0  0  0  0  0  0  0  0  0  0  0  0
  192.8410  174.4020  137.7780 N   0  0  0  0  0  2  0  0  0  0  0  0
  192.0370  174.9550  136.6810 C   0  0  0  0  0  2  0  0  0  0  0  0
  191.4410  174.7980  138.0050 C   0  0  2  0  0  3  0  0  0  0  0  0
  191.4990  174.2430  143.8410 O   0  0  0  0  0  1  0  0  0  0  0  0
  191.8120  175.5880  143.6470 C   0  0  0  0  0  2  0  0  0  0  0  0
  2 21  1  1  0  0  0
  2  7  1  0  0  0  0
  2  9  1  0  0  0  0
  5 11  2  0  0  0  0
  5  4  1  0  0  0  0
  6 27  1  1  0  0  0
  6 13  1  0  0  0  0
  7 15  1  6  0  0  0
  7  1  1  0  0  0  0
  8  1  1  6  0  0  0
  8 13  1  0  0  0  0
  8 12  1  0  0  0  0
  9  3  1  1  0  0  0
  9  6  1  0  0  0  0
 10  4  1  0  0  0  0
 12  5  1  0  0  0  0
 13 10  1  1  0  0  0
 14 19  1  0  0  0  0
 16 15  1  0  0  0  0
 17 16  2  0  0  0  0
 18 17  1  0  0  0  0
 18 14  2  0  0  0  0
 19 15  2  0  0  0  0
 20 21  1  0  0  0  0
 22 20  2  0  0  0  0
 23 25  1  0  0  0  0
 24 23  1  0  0  0  0
 24 25  1  0  0  0  0
 25 20  1  1  0  0  0
 27 26  1  0  0  0  0
M  END
>  <MODEL>
3

>  <REMARK>
 VINA RESULT:      -7.6      3.029      6.752
  Name = 
  4 active torsions:
  status: ('A' for Active; 'I' for Inactive)
    1  A    between atoms: C_2  and  N_6
    2  A    between atoms: C_5  and  C_17
    3  A    between atoms: C_9  and  C_15
    4  A    between atoms: C_12  and  C_14
                            x       y       z     vdW  Elec       q    Type
                         _______ _______ _______ _____ _____    ______ ____

>  <TORSDO>
F 4

$$$$
=
 OpenBabel10262420133D

 27 30  0  0  1  0  0  0  0  0999 V2000
  189.9520  176.3210  140.2130 C   0  0  0  0  0  2  0  0  0  0  0  0
  188.6530  178.4860  140.7310 C   0  0  1  0  0  3  0  0  0  0  0  0
  189.2350  179.4120  138.5660 O   0  0  0  0  0  1  0  0  0  0  0  0
  190.1050  175.9520  135.8220 C   0  0  0  0  0  2  0  0  0  0  0  0
  191.2820  175.6330  136.6980 C   0  0  0  0  0  0  0  0  0  0  0  0
  187.7710  177.4630  138.5620 C   0  0  2  0  0  3  0  0  0  0  0  0
  189.9690  177.6950  140.8790 C   0  0  1  0  0  3  0  0  0  0  0  0
  190.1770  176.5080  138.7240 C   0  0  1  0  0  3  0  0  0  0  0  0
  188.2360  178.7410  139.2770 C   0  0  1  0  0  3  0  0  0  0  0  0
  189.2140  177.0070  136.4820 C   0  0  0  0  0  2  0  0  0  0  0  0
  192.3890  175.4900  136.2070 O   0  0  0  0  0  0  0  0  0  0  0  0
  191.0740  175.4070  138.1660 C   0  0  0  0  0  2  0  0  0  0  0  0
  188.8710  176.5910  137.9170 C   0  0  2  0  0  3  0  0  0  0  0  0
  191.0580  178.7230  144.3860 C   0  0  0  0  0  3  0  0  0  0  0  0
  190.4470  177.6390  142.3000 C   0  0  0  0  0  0  0  0  0  0  0  0
  190.8190  176.4040  142.8420 C   0  0  0  0  0  3  0  0  0  0  0  0
  191.3020  176.3260  144.1520 C   0  0  0  0  0  3  0  0  0  0  0  0
  191.4210  177.4860  144.9240 C   0  0  0  0  0  3  0  0  0  0  0  0
  190.5750  178.8010  143.0770 C   0  0  0  0  0  3  0  0  0  0  0  0
  186.3840  178.5810  141.8450 C   0  0  0  0  0  0  0  0  0  0  0  0
  187.5610  177.8610  141.4700 N   0  0  0  0  0  2  0  0  0  0  0  0
  186.2260  179.7780  141.4810 O   0  0  0  0  0  0  0  0  0  0  0  0
  184.0510  177.9370  141.8910 N   0  0  0  0  0  2  0  0  0  0  0  0
  184.2800  178.8530  143.0150 C   0  0  0  0  0  2  0  0  0  0  0  0
  185.3190  177.8990  142.6380 C   0  0  2  0  0  3  0  0  0  0  0  0
  185.7830  178.7320  138.1550 O   0  0  0  0  0  1  0  0  0  0  0  0
  186.5980  177.7300  137.6260 C   0  0  0  0  0  2  0  0  0  0  0  0
  1  7  1  0  0  0  0
  2  7  1  0  0  0  0
  2 21  1  6  0  0  0
  4 10  1  0  0  0  0
  4  5  1  0  0  0  0
  5 12  1  0  0  0  0
  6 27  1  6  0  0  0
  6  9  1  0  0  0  0
  7 15  1  1  0  0  0
  8 12  1  6  0  0  0
  8  1  1  0  0  0  0
  9  3  1  6  0  0  0
  9  2  1  0  0  0  0
 11  5  2  0  0  0  0
 13 10  1  6  0  0  0
 13  6  1  0  0  0  0
 13  8  1  0  0  0  0
 14 18  1  0  0  0  0
 15 16  2  0  0  0  0
 15 19  1  0  0  0  0
 16 17  1  0  0  0  0
 17 18  2  0  0  0  0
 19 14  2  0  0  0  0
 21 20  1  0  0  0  0
 22 20  2  0  0  0  0
 23 25  1  0  0  0  0
 23 24  1  0  0  0  0
 25 20  1  6  0  0  0
 25 24  1  0  0  0  0
 27 26  1  0  0  0  0
M  END
>  <MODEL>
4

>  <REMARK>
 VINA RESULT:      -7.3      3.322      5.918
  Name = 
  4 active torsions:
  status: ('A' for Active; 'I' for Inactive)
    1  A    between atoms: C_2  and  N_6
    2  A    between atoms: C_5  and  C_17
    3  A    between atoms: C_9  and  C_15
    4  A    between atoms: C_12  and  C_14
                            x       y       z     vdW  Elec       q    Type
                         _______ _______ _______ _____ _____    ______ ____

>  <TORSDO>
F 4

$$$$
=
 OpenBabel10262420133D

 27 30  0  0  1  0  0  0  0  0999 V2000
  187.3410  177.0950  143.3390 C   0  0  0  0  0  2  0  0  0  0  0  0
  186.6530  178.8520  141.5830 C   0  0  1  0  0  3  0  0  0  0  0  0
  188.8970  179.7720  141.5520 O   0  0  0  0  0  1  0  0  0  0  0  0
  191.6940  176.5250  142.9270 C   0  0  0  0  0  2  0  0  0  0  0  0
  191.0140  176.5900  144.2640 C   0  0  0  0  0  0  0  0  0  0  0  0
  188.6370  177.5020  140.7040 C   0  0  2  0  0  3  0  0  0  0  0  0
  186.7060  178.4580  143.0730 C   0  0  1  0  0  3  0  0  0  0  0  0
  188.8490  177.2480  143.2770 C   0  0  1  0  0  3  0  0  0  0  0  0
  188.0250  178.8980  140.8980 C   0  0  1  0  0  3  0  0  0  0  0  0
  190.9150  177.3340  141.8870 C   0  0  0  0  0  2  0  0  0  0  0  0
  191.6740  176.7250  145.2810 O   0  0  0  0  0  0  0  0  0  0  0  0
  189.5270  176.4020  144.3500 C   0  0  0  0  0  2  0  0  0  0  0  0
  189.4370  176.9260  141.8940 C   0  0  2  0  0  3  0  0  0  0  0  0
  183.0110  179.1540  143.7090 C   0  0  0  0  0  3  0  0  0  0  0  0
  185.3800  178.6170  143.7560 C   0  0  0  0  0  0  0  0  0  0  0  0
  185.3070  178.4510  145.1430 C   0  0  0  0  0  3  0  0  0  0  0  0
  184.0910  178.6280  145.8110 C   0  0  0  0  0  3  0  0  0  0  0  0
  182.9430  178.9790  145.0930 C   0  0  0  0  0  3  0  0  0  0  0  0
  184.2260  178.9760  143.0410 C   0  0  0  0  0  3  0  0  0  0  0  0
  184.8210  178.5230  139.8700 C   0  0  0  0  0  0  0  0  0  0  0  0
  185.7390  177.9980  140.8310 N   0  0  0  0  0  2  0  0  0  0  0  0
  184.8240  179.7530  139.5910 O   0  0  0  0  0  0  0  0  0  0  0  0
  184.4270  177.2680  137.8370 N   0  0  0  0  0  2  0  0  0  0  0  0
  183.3440  178.2510  137.9680 C   0  0  0  0  0  2  0  0  0  0  0  0
  183.8810  177.6050  139.1630 C   0  0  2  0  0  3  0  0  0  0  0  0
  189.0640  178.4710  138.5580 O   0  0  0  0  0  1  0  0  0  0  0  0
  189.3760  177.3850  139.3760 C   0  0  0  0  0  2  0  0  0  0  0  0
  2 21  1  6  0  0  0
  2  7  1  0  0  0  0
  4  5  1  0  0  0  0
  5 12  1  0  0  0  0
  5 11  2  0  0  0  0
  6 27  1  6  0  0  0
  6  9  1  0  0  0  0
  6 13  1  0  0  0  0
  7  1  1  0  0  0  0
  7 15  1  6  0  0  0
  8  1  1  6  0  0  0
  8 12  1  0  0  0  0
  9  3  1  1  0  0  0
  9  2  1  0  0  0  0
 10  4  1  0  0  0  0
 13 10  1  1  0  0  0
 13  8  1  0  0  0  0
 14 18  1  0  0  0  0
 15 16  2  0  0  0  0
 16 17  1  0  0  0  0
 18 17  2  0  0  0  0
 19 14  2  0  0  0  0
 19 15  1  0  0  0  0
 20 21  1  0  0  0  0
 22 20  2  0  0  0  0
 23 24  1  0  0  0  0
 23 25  1  0  0  0  0
 24 25  1  0  0  0  0
 25 20  1  1  0  0  0
 26 27  1  0  0  0  0
M  END
>  <MODEL>
5

>  <REMARK>
 VINA RESULT:      -7.1      2.688      5.582
  Name = 
  4 active torsions:
  status: ('A' for Active; 'I' for Inactive)
    1  A    between atoms: C_2  and  N_6
    2  A    between atoms: C_5  and  C_17
    3  A    between atoms: C_9  and  C_15
    4  A    between atoms: C_12  and  C_14
                            x       y       z     vdW  Elec       q    Type
                         _______ _______ _______ _____ _____    ______ ____

>  <TORSDO>
F 4

$$$$
=
 OpenBabel10262420133D

 27 30  0  0  1  0  0  0  0  0999 V2000
  186.1230  177.5030  142.7270 C   0  0  0  0  0  2  0  0  0  0  0  0
  187.3470  178.6280  140.7570 C   0  0  1  0  0  3  0  0  0  0  0  0
  188.8440  179.7790  142.2790 O   0  0  0  0  0  1  0  0  0  0  0  0
  188.9720  177.3890  146.0910 C   0  0  0  0  0  2  0  0  0  0  0  0
  187.5200  177.7230  146.2770 C   0  0  0  0  0  0  0  0  0  0  0  0
  189.0350  177.3510  142.1870 C   0  0  2  0  0  3  0  0  0  0  0  0
  186.1470  178.6560  141.7260 C   0  0  1  0  0  3  0  0  0  0  0  0
  187.0960  177.8200  143.8470 C   0  0  1  0  0  3  0  0  0  0  0  0
  188.7140  178.6600  141.4510 C   0  0  1  0  0  3  0  0  0  0  0  0
  189.4410  177.7890  144.6890 C   0  0  0  0  0  2  0  0  0  0  0  0
  187.1330  178.2050  147.3280 O   0  0  0  0  0  0  0  0  0  0  0  0
  186.5360  177.3820  145.1960 C   0  0  0  0  0  2  0  0  0  0  0  0
  188.4930  177.2160  143.6280 C   0  0  2  0  0  3  0  0  0  0  0  0
  183.5340  179.5590  139.0990 C   0  0  0  0  0  3  0  0  0  0  0  0
  184.8380  178.8260  141.0140 C   0  0  0  0  0  0  0  0  0  0  0  0
  183.6560  178.4690  141.6720 C   0  0  0  0  0  3  0  0  0  0  0  0
  182.4190  178.6490  141.0460 C   0  0  0  0  0  3  0  0  0  0  0  0
  182.3580  179.1930  139.7600 C   0  0  0  0  0  3  0  0  0  0  0  0
  184.7710  179.3780  139.7250 C   0  0  0  0  0  3  0  0  0  0  0  0
  187.7820  177.5650  138.5040 C   0  0  0  0  0  0  0  0  0  0  0  0
  187.2710  177.4980  139.8370 N   0  0  0  0  0  2  0  0  0  0  0  0
  188.3830  178.5980  138.1020 O   0  0  0  0  0  0  0  0  0  0  0  0
  187.1650  176.8460  136.2750 N   0  0  0  0  0  2  0  0  0  0  0  0
  186.2370  176.2100  137.2180 C   0  0  0  0  0  2  0  0  0  0  0  0
  187.6370  176.3900  137.5940 C   0  0  2  0  0  3  0  0  0  0  0  0
  190.7960  176.5920  140.7570 O   0  0  0  0  0  1  0  0  0  0  0  0
  190.5070  176.9760  142.0670 C   0  0  0  0  0  2  0  0  0  0  0  0
  2 21  1  1  0  0  0
  2  9  1  0  0  0  0
  2  7  1  0  0  0  0
  4  5  1  0  0  0  0
  5 11  2  0  0  0  0
  6 27  1  1  0  0  0
  6 13  1  0  0  0  0
  7 15  1  6  0  0  0
  7  1  1  0  0  0  0
  8  1  1  6  0  0  0
  8 12  1  0  0  0  0
  9  6  1  0  0  0  0
  9  3  1  1  0  0  0
 10  4  1  0  0  0  0
 12  5  1  0  0  0  0
 13  8  1  0  0  0  0
 13 10  1  1  0  0  0
 14 19  2  0  0  0  0
 14 18  1  0  0  0  0
 15 16  2  0  0  0  0
 17 16  1  0  0  0  0
 18 17  2  0  0  0  0
 19 15  1  0  0  0  0
 20 21  1  0  0  0  0
 22 20  2  0  0  0  0
 23 24  1  0  0  0  0
 23 25  1  0  0  0  0
 24 25  1  0  0  0  0
 25 20  1  1  0  0  0
 26 27  1  0  0  0  0
M  END
>  <MODEL>
6

>  <REMARK>
 VINA RESULT:      -6.7      2.969      6.189
  Name = 
  4 active torsions:
  status: ('A' for Active; 'I' for Inactive)
    1  A    between atoms: C_2  and  N_6
    2  A    between atoms: C_5  and  C_17
    3  A    between atoms: C_9  and  C_15
    4  A    between atoms: C_12  and  C_14
                            x       y       z     vdW  Elec       q    Type
                         _______ _______ _______ _____ _____    ______ ____

>  <TORSDO>
F 4

$$$$
=
 OpenBabel10262420133D

 27 30  0  0  1  0  0  0  0  0999 V2000
  190.9060  177.8570  142.6970 C   0  0  0  0  0  2  0  0  0  0  0  0
  189.0540  176.7470  141.2900 C   0  0  1  0  0  3  0  0  0  0  0  0
  188.3800  175.3710  143.1700 O   0  0  0  0  0  1  0  0  0  0  0  0
  189.6780  177.5010  146.9170 C   0  0  0  0  0  2  0  0  0  0  0  0
  191.0970  177.2920  146.4710 C   0  0  0  0  0  0  0  0  0  0  0  0
  188.0240  177.7730  143.3920 C   0  0  2  0  0  3  0  0  0  0  0  0
  190.5440  176.7700  141.6870 C   0  0  1  0  0  3  0  0  0  0  0  0
  190.4960  177.3830  144.0790 C   0  0  1  0  0  3  0  0  0  0  0  0
  188.0940  176.5460  142.4690 C   0  0  1  0  0  3  0  0  0  0  0  0
  188.7030  177.1460  145.7920 C   0  0  0  0  0  2  0  0  0  0  0  0
  191.9080  176.7840  147.2280 O   0  0  0  0  0  0  0  0  0  0  0  0
  191.5310  177.7880  145.1240 C   0  0  0  0  0  2  0  0  0  0  0  0
  189.0980  177.8680  144.4990 C   0  0  2  0  0  3  0  0  0  0  0  0
  192.0520  175.9910  138.2720 C   0  0  0  0  0  3  0  0  0  0  0  0
  191.4560  176.7670  140.4960 C   0  0  0  0  0  0  0  0  0  0  0  0
  192.6450  177.5030  140.5500 C   0  0  0  0  0  3  0  0  0  0  0  0
  193.5300  177.4900  139.4670 C   0  0  0  0  0  3  0  0  0  0  0  0
  193.2340  176.7340  138.3290 C   0  0  0  0  0  3  0  0  0  0  0  0
  191.1660  176.0050  139.3540 C   0  0  0  0  0  3  0  0  0  0  0  0
  188.3070  177.8680  139.1490 C   0  0  0  0  0  0  0  0  0  0  0  0
  188.6800  177.9330  140.5270 N   0  0  0  0  0  2  0  0  0  0  0  0
  188.2240  176.7540  138.5630 O   0  0  0  0  0  0  0  0  0  0  0  0
  186.7700  178.9050  137.5930 N   0  0  0  0  0  2  0  0  0  0  0  0
  188.0990  178.9080  136.9700 C   0  0  0  0  0  2  0  0  0  0  0  0
  187.9760  179.1210  138.4100 C   0  0  2  0  0  3  0  0  0  0  0  0
  185.6980  177.9310  142.8590 O   0  0  0  0  0  1  0  0  0  0  0  0
  186.6120  178.0160  143.9090 C   0  0  0  0  0  2  0  0  0  0  0  0
  2 21  1  1  0  0  0
  2  7  1  0  0  0  0
  2  9  1  0  0  0  0
  5  4  1  0  0  0  0
  5 11  2  0  0  0  0
  6 27  1  1  0  0  0
  6 13  1  0  0  0  0
  7 15  1  6  0  0  0
  7  1  1  0  0  0  0
  8  1  1  6  0  0  0
  8 13  1  0  0  0  0
  8 12  1  0  0  0  0
  9  3  1  1  0  0  0
  9  6  1  0  0  0  0
 10  4  1  0  0  0  0
 12  5  1  0  0  0  0
 13 10  1  1  0  0  0
 14 18  2  0  0  0  0
 14 19  1  0  0  0  0
 15 16  1  0  0  0  0
 17 16  2  0  0  0  0
 18 17  1  0  0  0  0
 19 15  2  0  0  0  0
 20 21  1  0  0  0  0
 22 20  2  0  0  0  0
 23 25  1  0  0  0  0
 24 23  1  0  0  0  0
 24 25  1  0  0  0  0
 25 20  1  1  0  0  0
 26 27  1  0  0  0  0
M  END
>  <MODEL>
7

>  <REMARK>
 VINA RESULT:      -6.4      2.618      7.409
  Name = 
  4 active torsions:
  status: ('A' for Active; 'I' for Inactive)
    1  A    between atoms: C_2  and  N_6
    2  A    between atoms: C_5  and  C_17
    3  A    between atoms: C_9  and  C_15
    4  A    between atoms: C_12  and  C_14
                            x       y       z     vdW  Elec       q    Type
                         _______ _______ _______ _____ _____    ______ ____

>  <TORSDO>
F 4

$$$$
=
 OpenBabel10262420133D

 27 30  0  0  1  0  0  0  0  0999 V2000
  183.1500  177.3370  140.1390 C   0  0  0  0  0  2  0  0  0  0  0  0
  181.9450  179.5110  140.8210 C   0  0  1  0  0  3  0  0  0  0  0  0
  182.2700  180.4450  138.6070 O   0  0  0  0  0  1  0  0  0  0  0  0
  182.7680  176.9960  135.7590 C   0  0  0  0  0  2  0  0  0  0  0  0
  184.0390  176.6600  136.4850 C   0  0  0  0  0  0  0  0  0  0  0  0
  180.7970  178.5100  138.7690 C   0  0  2  0  0  3  0  0  0  0  0  0
  183.2610  178.7070  140.8060 C   0  0  1  0  0  3  0  0  0  0  0  0
  183.1960  177.5310  138.6350 C   0  0  1  0  0  3  0  0  0  0  0  0
  181.3570  179.7790  139.4290 C   0  0  1  0  0  3  0  0  0  0  0  0
  181.9740  178.0540  136.5280 C   0  0  0  0  0  2  0  0  0  0  0  0
  185.0780  176.5100  135.8630 O   0  0  0  0  0  0  0  0  0  0  0  0
  184.0070  176.4260  137.9670 C   0  0  0  0  0  2  0  0  0  0  0  0
  181.8030  177.6320  137.9920 C   0  0  2  0  0  3  0  0  0  0  0  0
  183.8470  178.9590  144.5650 C   0  0  0  0  0  3  0  0  0  0  0  0
  183.9060  178.6360  142.1580 C   0  0  0  0  0  0  0  0  0  0  0  0
  185.2470  178.2490  142.2500 C   0  0  0  0  0  3  0  0  0  0  0  0
  185.8850  178.2080  143.4940 C   0  0  0  0  0  3  0  0  0  0  0  0
  185.1850  178.5630  144.6510 C   0  0  0  0  0  3  0  0  0  0  0  0
  183.2100  178.9980  143.3220 C   0  0  0  0  0  3  0  0  0  0  0  0
  179.9280  179.6520  142.3410 C   0  0  0  0  0  0  0  0  0  0  0  0
  180.9430  178.8910  141.6830 N   0  0  0  0  0  2  0  0  0  0  0  0
  179.8270  180.8920  142.1370 O   0  0  0  0  0  0  0  0  0  0  0  0
  178.9560  179.6350  144.5580 N   0  0  0  0  0  2  0  0  0  0  0  0
  179.6580  178.3590  144.3730 C   0  0  0  0  0  2  0  0  0  0  0  0
  178.9570  178.9680  143.2450 C   0  0  2  0  0  3  0  0  0  0  0  0
  178.9320  179.9730  138.4410 O   0  0  0  0  0  1  0  0  0  0  0  0
  179.5220  178.7940  137.9840 C   0  0  0  0  0  2  0  0  0  0  0  0
  1  7  1  0  0  0  0
  2 21  1  1  0  0  0
  4  5  1  0  0  0  0
  4 10  1  0  0  0  0
  5 12  1  0  0  0  0
  6 27  1  6  0  0  0
  6  9  1  0  0  0  0
  7  2  1  0  0  0  0
  7 15  1  1  0  0  0
  8 12  1  6  0  0  0
  8  1  1  0  0  0  0
  9  3  1  6  0  0  0
  9  2  1  0  0  0  0
 11  5  2  0  0  0  0
 13 10  1  6  0  0  0
 13  8  1  0  0  0  0
 13  6  1  0  0  0  0
 14 18  1  0  0  0  0
 15 16  2  0  0  0  0
 15 19  1  0  0  0  0
 16 17  1  0  0  0  0
 17 18  2  0  0  0  0
 19 14  2  0  0  0  0
 21 20  1  0  0  0  0
 22 20  2  0  0  0  0
 24 23  1  0  0  0  0
 25 20  1  6  0  0  0
 25 24  1  0  0  0  0
 25 23  1  0  0  0  0
 27 26  1  0  0  0  0
M  END
>  <MODEL>
8

>  <REMARK>
 VINA RESULT:      -6.3      5.448      8.136
  Name = 
  4 active torsions:
  status: ('A' for Active; 'I' for Inactive)
    1  A    between atoms: C_2  and  N_6
    2  A    between atoms: C_5  and  C_17
    3  A    between atoms: C_9  and  C_15
    4  A    between atoms: C_12  and  C_14
                            x       y       z     vdW  Elec       q    Type
                         _______ _______ _______ _____ _____    ______ ____

>  <TORSDO>
F 4

$$$$
=
 OpenBabel10262420133D

 27 30  0  0  1  0  0  0  0  0999 V2000
  187.2450  177.5240  141.0010 C   0  0  0  0  0  2  0  0  0  0  0  0
  187.1630  178.2060  138.5170 C   0  0  1  0  0  3  0  0  0  0  0  0
  189.2770  179.3770  138.7180 O   0  0  0  0  0  1  0  0  0  0  0  0
  191.4920  177.5560  142.1880 C   0  0  0  0  0  2  0  0  0  0  0  0
  190.4030  178.0810  143.0790 C   0  0  0  0  0  0  0  0  0  0  0  0
  189.3420  176.9550  138.9840 C   0  0  2  0  0  3  0  0  0  0  0  0
  186.7200  178.5120  139.9620 C   0  0  1  0  0  3  0  0  0  0  0  0
  188.6850  177.8810  141.3180 C   0  0  1  0  0  3  0  0  0  0  0  0
  188.6850  178.1750  138.3220 C   0  0  1  0  0  3  0  0  0  0  0  0
  191.0950  177.6940  140.7160 C   0  0  0  0  0  2  0  0  0  0  0  0
  190.6840  178.7500  144.0590 O   0  0  0  0  0  0  0  0  0  0  0  0
  188.9760  177.7080  142.8050 C   0  0  0  0  0  2  0  0  0  0  0  0
  189.7050  177.0920  140.4800 C   0  0  2  0  0  3  0  0  0  0  0  0
  183.1440  179.6020  139.2070 C   0  0  0  0  0  3  0  0  0  0  0  0
  185.2400  178.7310  140.0740 C   0  0  0  0  0  0  0  0  0  0  0  0
  184.5800  178.3230  141.2380 C   0  0  0  0  0  3  0  0  0  0  0  0
  183.2070  178.5460  141.3840 C   0  0  0  0  0  3  0  0  0  0  0  0
  182.4900  179.1850  140.3690 C   0  0  0  0  0  3  0  0  0  0  0  0
  184.5160  179.3780  139.0600 C   0  0  0  0  0  3  0  0  0  0  0  0
  186.0950  176.8430  136.6740 C   0  0  0  0  0  0  0  0  0  0  0  0
  186.5630  176.9730  138.0180 N   0  0  0  0  0  2  0  0  0  0  0  0
  186.2530  177.7840  135.8500 O   0  0  0  0  0  0  0  0  0  0  0  0
  183.9980  175.7750  136.1060 N   0  0  0  0  0  2  0  0  0  0  0  0
  184.5510  175.0720  137.2700 C   0  0  0  0  0  2  0  0  0  0  0  0
  185.4500  175.5710  136.2330 C   0  0  2  0  0  3  0  0  0  0  0  0
  190.5960  175.0210  138.3430 O   0  0  0  0  0  1  0  0  0  0  0  0
  190.4830  176.3970  138.1430 C   0  0  0  0  0  2  0  0  0  0  0  0
  2 21  1  1  0  0  0
  2  7  1  0  0  0  0
  4  5  1  0  0  0  0
  5 11  2  0  0  0  0
  6 27  1  6  0  0  0
  6 13  1  0  0  0  0
  7 15  1  6  0  0  0
  7  1  1  0  0  0  0
  8  1  1  1  0  0  0
  8 12  1  0  0  0  0
  9  2  1  0  0  0  0
  9  3  1  1  0  0  0
  9  6  1  0  0  0  0
 10  4  1  0  0  0  0
 12  5  1  0  0  0  0
 13 10  1  6  0  0  0
 13  8  1  0  0  0  0
 14 18  1  0  0  0  0
 15 16  2  0  0  0  0
 16 17  1  0  0  0  0
 18 17  2  0  0  0  0
 19 14  2  0  0  0  0
 19 15  1  0  0  0  0
 20 21  1  0  0  0  0
 22 20  2  0  0  0  0
 23 25  1  0  0  0  0
 23 24  1  0  0  0  0
 25 20  1  1  0  0  0
 25 24  1  0  0  0  0
 27 26  1  0  0  0  0
M  END
>  <MODEL>
9

>  <REMARK>
 VINA RESULT:      -6.0      3.736      6.643
  Name = 
  4 active torsions:
  status: ('A' for Active; 'I' for Inactive)
    1  A    between atoms: C_2  and  N_6
    2  A    between atoms: C_5  and  C_17
    3  A    between atoms: C_9  and  C_15
    4  A    between atoms: C_12  and  C_14
                            x       y       z     vdW  Elec       q    Type
                         _______ _______ _______ _____ _____    ______ ____

>  <TORSDO>
F 4

$$$$
