=
 OpenBabel10262423133D

 34 38  0  0  1  0  0  0  0  0999 V2000
  185.4990  178.2740  142.3630 C   0  0  2  0  0  3  0  0  0  0  0  0
  185.5600  179.4040  146.0400 C   0  0  0  0  0  2  0  0  0  0  0  0
  183.8100  179.5920  144.3090 C   0  0  0  0  0  2  0  0  0  0  0  0
  183.4320  177.7060  141.0480 C   0  0  0  0  0  3  0  0  0  0  0  0
  181.2360  178.4040  141.7940 C   0  0  0  0  0  3  0  0  0  0  0  0
  182.0480  177.7550  140.8580 C   0  0  0  0  0  3  0  0  0  0  0  0
  183.1900  178.9480  143.1150 C   0  0  0  0  0  0  0  0  0  0  0  0
  184.0070  178.2980  142.1780 C   0  0  0  0  0  0  0  0  0  0  0  0
  181.8070  179.0060  142.9200 C   0  0  0  0  0  3  0  0  0  0  0  0
  186.2310  178.4200  146.9890 C   0  0  0  0  0  2  0  0  0  0  0  0
  187.3800  177.7730  146.3510 N   0  0  0  0  0  0  0  0  0  0  0  0
  186.8220  176.6270  145.6340 C   0  0  0  0  0  2  0  0  0  0  0  0
  184.8900  178.6810  144.8810 C   0  0  1  0  0  3  0  0  0  0  0  0
  186.6390  176.9360  144.1480 C   0  0  0  0  0  2  0  0  0  0  0  0
  185.9620  178.2790  143.8370 C   0  0  1  0  0  3  0  0  0  0  0  0
  188.2580  177.2610  147.4130 C   0  0  0  0  0  3  0  0  0  0  0  0
  189.6850  177.0880  146.9160 C   0  0  0  0  0  1  0  0  0  0  0  0
  188.3000  178.2140  148.5990 C   0  0  0  0  0  1  0  0  0  0  0  0
  186.1710  179.3920  141.5720 C   0  0  0  0  0  2  0  0  0  0  0  0
  186.8580  178.8740  140.4670 O   0  0  0  0  0  0  0  0  0  0  0  0
  188.0570  178.3780  140.9850 C   0  0  0  0  0  2  0  0  0  0  0  0
  189.0440  176.7090  137.6560 C   0  0  0  0  0  2  0  0  0  0  0  0
  190.1660  177.5820  140.1270 N   0  0  0  0  0  0  0  0  0  0  0  0
  192.7570  176.0660  137.1410 C   0  0  0  0  0  0  0  0  0  0  0  0
  191.3790  176.1610  136.8940 C   0  0  0  0  0  3  0  0  0  0  0  0
  190.5270  176.6840  137.8710 C   0  0  0  0  0  0  0  0  0  0  0  0
  192.4160  176.9730  139.3660 C   0  0  0  0  0  3  0  0  0  0  0  0
  191.0470  177.0830  139.1130 C   0  0  0  0  0  0  0  0  0  0  0  0
  193.2690  176.4680  138.3800 C   0  0  0  0  0  3  0  0  0  0  0  0
  188.9200  177.8580  139.8840 C   0  0  0  0  0  0  0  0  0  0  0  0
  188.3840  177.8210  138.4760 C   0  0  0  0  0  2  0  0  0  0  0  0
  193.6950  175.5360  136.1050 C   0  0  1  0  0  3  0  0  0  0  0  0
  193.4030  176.1450  134.7460 C   0  0  0  0  0  1  0  0  0  0  0  0
  195.0200  175.7920  136.4700 O   0  0  0  0  0  1  0  0  0  0  0  0
  1 19  1  6  0  0  0
  1 15  1  0  0  0  0
  2 10  1  0  0  0  0
  4  8  1  0  0  0  0
  5  9  2  0  0  0  0
  6  4  2  0  0  0  0
  6  5  1  0  0  0  0
  7  3  1  0  0  0  0
  8  1  1  0  0  0  0
  8  7  2  0  0  0  0
  9  7  1  0  0  0  0
 11 10  1  0  0  0  0
 11 16  1  0  0  0  0
 12 11  1  0  0  0  0
 13  3  1  6  0  0  0
 13  2  1  0  0  0  0
 14 12  1  0  0  0  0
 15 14  1  1  0  0  0
 15 13  1  0  0  0  0
 16 18  1  0  0  0  0
 17 16  1  0  0  0  0
 20 21  1  0  0  0  0
 20 19  1  0  0  0  0
 22 26  1  0  0  0  0
 22 31  1  0  0  0  0
 24 29  1  0  0  0  0
 25 24  2  0  0  0  0
 25 26  1  0  0  0  0
 26 28  2  0  0  0  0
 28 27  1  0  0  0  0
 28 23  1  0  0  0  0
 29 27  2  0  0  0  0
 30 23  2  0  0  0  0
 30 21  1  0  0  0  0
 31 30  1  0  0  0  0
 32 33  1  6  0  0  0
 32 34  1  0  0  0  0
 32 24  1  0  0  0  0
M  END
>  <MODEL>
1

>  <REMARK>
 VINA RESULT:      -9.3      0.000      0.000
  Name = 
  6 active torsions:
  status: ('A' for Active; 'I' for Inactive)
    1  A    between atoms: C_1  and  C_9
    2  A    between atoms: C_3  and  N_25
    3  A    between atoms: C_7  and  C_11
    4  A    between atoms: O_8  and  C_9
    5  A    between atoms: O_8  and  C_18
    6  A    between atoms: C_18  and  C_30
                            x       y       z     vdW  Elec       q    Type
                         _______ _______ _______ _____ _____    ______ ____

>  <TORSDO>
F 6

$$$$
=
 OpenBabel10262423133D

 34 38  0  0  1  0  0  0  0  0999 V2000
  180.1440  179.2990  140.3280 C   0  0  2  0  0  3  0  0  0  0  0  0
  181.9200  182.1460  138.4470 C   0  0  0  0  0  2  0  0  0  0  0  0
  182.6900  179.8880  139.0830 C   0  0  0  0  0  2  0  0  0  0  0  0
  180.6710  176.8510  140.0980 C   0  0  0  0  0  3  0  0  0  0  0  0
  182.7580  176.0990  139.1250 C   0  0  0  0  0  3  0  0  0  0  0  0
  181.5230  175.8100  139.7150 C   0  0  0  0  0  3  0  0  0  0  0  0
  182.2870  178.4670  139.2930 C   0  0  0  0  0  0  0  0  0  0  0  0
  181.0470  178.1800  139.8840 C   0  0  0  0  0  0  0  0  0  0  0  0
  183.1430  177.4270  138.9180 C   0  0  0  0  0  3  0  0  0  0  0  0
  181.0340  182.8960  137.4610 C   0  0  0  0  0  2  0  0  0  0  0  0
  179.6700  183.0310  137.9750 N   0  0  0  0  0  0  0  0  0  0  0  0
  178.9890  181.8000  137.5770 C   0  0  0  0  0  2  0  0  0  0  0  0
  181.5000  180.6880  138.5650 C   0  0  1  0  0  3  0  0  0  0  0  0
  178.9310  180.7980  138.7310 C   0  0  0  0  0  2  0  0  0  0  0  0
  180.2540  180.5850  139.4810 C   0  0  1  0  0  3  0  0  0  0  0  0
  179.0300  184.1520  137.2720 C   0  0  0  0  0  3  0  0  0  0  0  0
  179.7310  185.4680  137.5750 C   0  0  0  0  0  1  0  0  0  0  0  0
  179.0700  183.9500  135.7650 C   0  0  0  0  0  1  0  0  0  0  0  0
  180.3290  179.6010  141.8130 C   0  0  0  0  0  2  0  0  0  0  0  0
  181.1580  178.6450  142.4130 O   0  0  0  0  0  0  0  0  0  0  0  0
  181.6240  179.2520  143.5820 C   0  0  0  0  0  2  0  0  0  0  0  0
  185.1790  177.9670  142.8370 C   0  0  0  0  0  2  0  0  0  0  0  0
  183.5280  178.8200  144.9990 N   0  0  0  0  0  0  0  0  0  0  0  0
  187.5830  177.8880  145.7820 C   0  0  0  0  0  0  0  0  0  0  0  0
  187.0830  177.8050  144.4740 C   0  0  0  0  0  3  0  0  0  0  0  0
  185.7500  178.1360  144.2120 C   0  0  0  0  0  0  0  0  0  0  0  0
  185.3960  178.5860  146.5700 C   0  0  0  0  0  3  0  0  0  0  0  0
  184.9030  178.5200  145.2640 C   0  0  0  0  0  0  0  0  0  0  0  0
  186.7340  178.2730  146.8270 C   0  0  0  0  0  3  0  0  0  0  0  0
  183.0670  178.9340  143.7890 C   0  0  0  0  0  0  0  0  0  0  0  0
  184.0010  178.9170  142.6060 C   0  0  0  0  0  2  0  0  0  0  0  0
  189.0100  177.5660  146.0880 C   0  0  1  0  0  3  0  0  0  0  0  0
  189.1290  176.8330  147.4120 C   0  0  0  0  0  1  0  0  0  0  0  0
  189.5680  176.7980  145.0620 O   0  0  0  0  0  1  0  0  0  0  0  0
  1 19  1  1  0  0  0
  3  7  1  0  0  0  0
  5  6  1  0  0  0  0
  6  4  2  0  0  0  0
  7  8  2  0  0  0  0
  8  4  1  0  0  0  0
  8  1  1  0  0  0  0
  9  5  2  0  0  0  0
  9  7  1  0  0  0  0
 10 11  1  0  0  0  0
 10  2  1  0  0  0  0
 12 11  1  0  0  0  0
 12 14  1  0  0  0  0
 13  2  1  1  0  0  0
 13  3  1  0  0  0  0
 13 15  1  0  0  0  0
 15 14  1  6  0  0  0
 15  1  1  0  0  0  0
 16 17  1  0  0  0  0
 16 11  1  0  0  0  0
 18 16  1  0  0  0  0
 19 20  1  0  0  0  0
 20 21  1  0  0  0  0
 21 30  1  0  0  0  0
 22 26  1  0  0  0  0
 23 28  1  0  0  0  0
 24 32  1  0  0  0  0
 24 29  1  0  0  0  0
 25 24  2  0  0  0  0
 26 25  1  0  0  0  0
 26 28  2  0  0  0  0
 27 29  2  0  0  0  0
 28 27  1  0  0  0  0
 30 23  2  0  0  0  0
 31 22  1  0  0  0  0
 31 30  1  0  0  0  0
 32 33  1  1  0  0  0
 34 32  1  0  0  0  0
M  END
>  <MODEL>
2

>  <REMARK>
 VINA RESULT:      -9.1      5.393      9.293
  Name = 
  6 active torsions:
  status: ('A' for Active; 'I' for Inactive)
    1  A    between atoms: C_1  and  C_9
    2  A    between atoms: C_3  and  N_25
    3  A    between atoms: C_7  and  C_11
    4  A    between atoms: O_8  and  C_9
    5  A    between atoms: O_8  and  C_18
    6  A    between atoms: C_18  and  C_30
                            x       y       z     vdW  Elec       q    Type
                         _______ _______ _______ _____ _____    ______ ____

>  <TORSDO>
F 6

$$$$
=
 OpenBabel10262423133D

 34 38  0  0  1  0  0  0  0  0999 V2000
  185.2040  177.9630  138.6110 C   0  0  2  0  0  3  0  0  0  0  0  0
  184.0260  176.8770  135.1130 C   0  0  0  0  0  2  0  0  0  0  0  0
  186.1270  177.9310  135.8690 C   0  0  0  0  0  2  0  0  0  0  0  0
  187.6010  178.1480  139.3490 C   0  0  0  0  0  3  0  0  0  0  0  0
  189.4080  178.2440  137.7390 C   0  0  0  0  0  3  0  0  0  0  0  0
  188.9670  178.2470  139.0660 C   0  0  0  0  0  3  0  0  0  0  0  0
  187.1210  178.0330  136.9760 C   0  0  0  0  0  0  0  0  0  0  0  0
  186.6750  178.0360  138.3070 C   0  0  0  0  0  0  0  0  0  0  0  0
  188.4850  178.1430  136.6930 C   0  0  0  0  0  3  0  0  0  0  0  0
  183.2700  175.5560  135.0880 C   0  0  0  0  0  2  0  0  0  0  0  0
  182.4280  175.4060  136.2760 N   0  0  0  0  0  0  0  0  0  0  0  0
  183.3050  174.8290  137.2940 C   0  0  0  0  0  2  0  0  0  0  0  0
  185.0690  176.8920  136.2210 C   0  0  1  0  0  3  0  0  0  0  0  0
  183.8280  175.9020  138.2510 C   0  0  0  0  0  2  0  0  0  0  0  0
  184.3740  177.1700  137.5780 C   0  0  1  0  0  3  0  0  0  0  0  0
  181.3800  174.4230  135.9680 C   0  0  0  0  0  3  0  0  0  0  0  0
  181.8880  172.9990  136.1410 C   0  0  0  0  0  1  0  0  0  0  0  0
  180.1790  174.5940  136.8870 C   0  0  0  0  0  1  0  0  0  0  0  0
  184.6170  179.3540  138.8360 C   0  0  0  0  0  2  0  0  0  0  0  0
  184.7330  179.7300  140.1800 O   0  0  0  0  0  0  0  0  0  0  0  0
  183.9380  178.8200  140.8800 C   0  0  0  0  0  2  0  0  0  0  0  0
  184.2930  179.1230  144.7040 C   0  0  0  0  0  2  0  0  0  0  0  0
  185.7130  178.2260  142.4010 N   0  0  0  0  0  0  0  0  0  0  0  0
  187.4380  177.6140  146.2200 C   0  0  0  0  0  0  0  0  0  0  0  0
  186.1770  178.2190  146.1060 C   0  0  0  0  0  3  0  0  0  0  0  0
  185.5970  178.3990  144.8470 C   0  0  0  0  0  0  0  0  0  0  0  0
  187.5550  177.4170  143.8030 C   0  0  0  0  0  3  0  0  0  0  0  0
  186.2920  178.0040  143.6920 C   0  0  0  0  0  0  0  0  0  0  0  0
  188.1250  177.2200  145.0650 C   0  0  0  0  0  3  0  0  0  0  0  0
  184.4810  178.6110  142.2540 C   0  0  0  0  0  0  0  0  0  0  0  0
  183.5520  178.6850  143.4390 C   0  0  0  0  0  2  0  0  0  0  0  0
  188.0700  177.3850  147.5540 C   0  0  1  0  0  3  0  0  0  0  0  0
  189.5780  177.2650  147.4260 C   0  0  0  0  0  1  0  0  0  0  0  0
  187.7450  178.4220  148.4330 O   0  0  0  0  0  1  0  0  0  0  0  0
  1 19  1  6  0  0  0
  3 13  1  0  0  0  0
  3  7  1  0  0  0  0
  5  6  2  0  0  0  0
  6  4  1  0  0  0  0
  7  8  1  0  0  0  0
  8  1  1  0  0  0  0
  8  4  2  0  0  0  0
  9  7  2  0  0  0  0
  9  5  1  0  0  0  0
 10  2  1  0  0  0  0
 10 11  1  0  0  0  0
 11 12  1  0  0  0  0
 12 14  1  0  0  0  0
 13  2  1  6  0  0  0
 13 15  1  0  0  0  0
 15 14  1  1  0  0  0
 15  1  1  0  0  0  0
 16 17  1  0  0  0  0
 16 11  1  0  0  0  0
 16 18  1  0  0  0  0
 19 20  1  0  0  0  0
 20 21  1  0  0  0  0
 21 30  1  0  0  0  0
 22 26  1  0  0  0  0
 23 28  1  0  0  0  0
 24 32  1  0  0  0  0
 25 24  1  0  0  0  0
 26 25  2  0  0  0  0
 27 29  1  0  0  0  0
 28 27  2  0  0  0  0
 28 26  1  0  0  0  0
 29 24  2  0  0  0  0
 30 23  2  0  0  0  0
 30 31  1  0  0  0  0
 31 22  1  0  0  0  0
 32 33  1  6  0  0  0
 32 34  1  0  0  0  0
M  END
>  <MODEL>
3

>  <REMARK>
 VINA RESULT:      -9.1      3.703      9.227
  Name = 
  6 active torsions:
  status: ('A' for Active; 'I' for Inactive)
    1  A    between atoms: C_1  and  C_9
    2  A    between atoms: C_3  and  N_25
    3  A    between atoms: C_7  and  C_11
    4  A    between atoms: O_8  and  C_9
    5  A    between atoms: O_8  and  C_18
    6  A    between atoms: C_18  and  C_30
                            x       y       z     vdW  Elec       q    Type
                         _______ _______ _______ _____ _____    ______ ____

>  <TORSDO>
F 6

$$$$
=
 OpenBabel10262423133D

 34 38  0  0  1  0  0  0  0  0999 V2000
  182.8470  178.8570  138.9580 C   0  0  2  0  0  3  0  0  0  0  0  0
  182.8890  176.0350  136.3440 C   0  0  0  0  0  2  0  0  0  0  0  0
  181.3950  177.9820  136.6130 C   0  0  0  0  0  2  0  0  0  0  0  0
  181.9150  181.1650  138.5960 C   0  0  0  0  0  3  0  0  0  0  0  0
  180.4040  181.6370  136.7620 C   0  0  0  0  0  3  0  0  0  0  0  0
  181.1150  182.0670  137.8870 C   0  0  0  0  0  3  0  0  0  0  0  0
  181.2990  179.4060  137.0460 C   0  0  0  0  0  0  0  0  0  0  0  0
  182.0130  179.8340  138.1750 C   0  0  0  0  0  0  0  0  0  0  0  0
  180.4920  180.3060  136.3430 C   0  0  0  0  0  3  0  0  0  0  0  0
  184.2820  175.6260  135.8840 C   0  0  0  0  0  2  0  0  0  0  0  0
  185.2400  175.6810  136.9900 N   0  0  0  0  0  0  0  0  0  0  0  0
  185.7090  177.0650  137.0200 C   0  0  0  0  0  2  0  0  0  0  0  0
  182.8410  177.5120  136.7070 C   0  0  1  0  0  3  0  0  0  0  0  0
  184.9830  177.8760  138.0940 C   0  0  0  0  0  2  0  0  0  0  0  0
  183.4560  177.7150  138.1160 C   0  0  1  0  0  3  0  0  0  0  0  0
  186.3810  174.8210  136.6430 C   0  0  0  0  0  3  0  0  0  0  0  0
  187.6960  175.4360  137.0990 C   0  0  0  0  0  1  0  0  0  0  0  0
  186.2620  173.4560  137.3050 C   0  0  0  0  0  1  0  0  0  0  0  0
  182.0740  178.3070  140.1540 C   0  0  0  0  0  2  0  0  0  0  0  0
  182.9520  177.7880  141.1140 O   0  0  0  0  0  0  0  0  0  0  0  0
  183.7860  178.8540  141.4570 C   0  0  0  0  0  2  0  0  0  0  0  0
  184.3730  179.0160  145.2610 C   0  0  0  0  0  2  0  0  0  0  0  0
  185.6690  178.2540  142.8400 N   0  0  0  0  0  0  0  0  0  0  0  0
  187.6470  177.5440  146.5170 C   0  0  0  0  0  0  0  0  0  0  0  0
  186.3650  178.1150  146.5060 C   0  0  0  0  0  3  0  0  0  0  0  0
  185.7030  178.3270  145.2940 C   0  0  0  0  0  0  0  0  0  0  0  0
  187.6170  177.4460  144.0920 C   0  0  0  0  0  3  0  0  0  0  0  0
  186.3340  177.9990  144.0830 C   0  0  0  0  0  0  0  0  0  0  0  0
  188.2700  177.2170  145.3060 C   0  0  0  0  0  3  0  0  0  0  0  0
  184.4200  178.6070  142.7860 C   0  0  0  0  0  0  0  0  0  0  0  0
  183.5660  178.6060  144.0270 C   0  0  0  0  0  2  0  0  0  0  0  0
  188.3680  177.2810  147.7990 C   0  0  1  0  0  3  0  0  0  0  0  0
  189.8680  177.2160  147.5730 C   0  0  0  0  0  1  0  0  0  0  0  0
  188.0680  178.2710  148.7390 O   0  0  0  0  0  1  0  0  0  0  0  0
  1 19  1  1  0  0  0
  3 13  1  0  0  0  0
  3  7  1  0  0  0  0
  5  6  1  0  0  0  0
  6  4  2  0  0  0  0
  7  8  2  0  0  0  0
  8  4  1  0  0  0  0
  8  1  1  0  0  0  0
  9  5  2  0  0  0  0
  9  7  1  0  0  0  0
 10  2  1  0  0  0  0
 10 11  1  0  0  0  0
 11 12  1  0  0  0  0
 12 14  1  0  0  0  0
 13  2  1  1  0  0  0
 13 15  1  0  0  0  0
 15 14  1  6  0  0  0
 15  1  1  0  0  0  0
 16 11  1  0  0  0  0
 16 17  1  0  0  0  0
 16 18  1  0  0  0  0
 19 20  1  0  0  0  0
 20 21  1  0  0  0  0
 21 30  1  0  0  0  0
 22 26  1  0  0  0  0
 23 28  1  0  0  0  0
 24 32  1  0  0  0  0
 25 24  1  0  0  0  0
 26 25  2  0  0  0  0
 27 29  1  0  0  0  0
 28 27  2  0  0  0  0
 28 26  1  0  0  0  0
 29 24  2  0  0  0  0
 30 23  2  0  0  0  0
 30 31  1  0  0  0  0
 31 22  1  0  0  0  0
 32 33  1  6  0  0  0
 32 34  1  0  0  0  0
M  END
>  <MODEL>
4

>  <REMARK>
 VINA RESULT:      -9.0      3.854      8.618
  Name = 
  6 active torsions:
  status: ('A' for Active; 'I' for Inactive)
    1  A    between atoms: C_1  and  C_9
    2  A    between atoms: C_3  and  N_25
    3  A    between atoms: C_7  and  C_11
    4  A    between atoms: O_8  and  C_9
    5  A    between atoms: O_8  and  C_18
    6  A    between atoms: C_18  and  C_30
                            x       y       z     vdW  Elec       q    Type
                         _______ _______ _______ _____ _____    ______ ____

>  <TORSDO>
F 6

$$$$
=
 OpenBabel10262423133D

 34 38  0  0  1  0  0  0  0  0999 V2000
  183.3950  179.0960  138.7850 C   0  0  2  0  0  3  0  0  0  0  0  0
  181.9200  175.5600  139.1380 C   0  0  0  0  0  2  0  0  0  0  0  0
  180.9390  177.7840  139.5730 C   0  0  0  0  0  2  0  0  0  0  0  0
  182.0680  181.1930  138.3770 C   0  0  0  0  0  3  0  0  0  0  0  0
  179.6800  181.2680  138.7760 C   0  0  0  0  0  3  0  0  0  0  0  0
  180.8630  181.9020  138.3820 C   0  0  0  0  0  3  0  0  0  0  0  0
  180.9040  179.2140  139.1520 C   0  0  0  0  0  0  0  0  0  0  0  0
  182.0920  179.8470  138.7570 C   0  0  0  0  0  0  0  0  0  0  0  0
  179.7010  179.9260  139.1660 C   0  0  0  0  0  3  0  0  0  0  0  0
  182.3120  174.6020  138.0220 C   0  0  0  0  0  2  0  0  0  0  0  0
  183.6910  174.8330  137.5890 N   0  0  0  0  0  0  0  0  0  0  0  0
  183.6030  175.8910  136.5830 C   0  0  0  0  0  2  0  0  0  0  0  0
  181.8370  176.9920  138.6300 C   0  0  1  0  0  3  0  0  0  0  0  0
  183.9510  177.2560  137.1800 C   0  0  0  0  0  2  0  0  0  0  0  0
  183.2660  177.5800  138.5150 C   0  0  1  0  0  3  0  0  0  0  0  0
  184.1670  173.6120  136.9230 C   0  0  0  0  0  3  0  0  0  0  0  0
  185.3720  173.0230  137.6410 C   0  0  0  0  0  1  0  0  0  0  0  0
  183.0850  172.5430  136.8960 C   0  0  0  0  0  1  0  0  0  0  0  0
  184.1580  179.3610  140.0800 C   0  0  0  0  0  2  0  0  0  0  0  0
  184.1010  178.2460  140.9250 O   0  0  0  0  0  0  0  0  0  0  0  0
  183.4110  178.6850  142.0580 C   0  0  0  0  0  2  0  0  0  0  0  0
  184.5420  178.9130  145.7330 C   0  0  0  0  0  2  0  0  0  0  0  0
  185.4880  178.1430  143.1570 N   0  0  0  0  0  0  0  0  0  0  0  0
  187.9960  177.5260  146.5120 C   0  0  0  0  0  0  0  0  0  0  0  0
  186.7140  178.0700  146.6830 C   0  0  0  0  0  3  0  0  0  0  0  0
  185.8780  178.2520  145.5780 C   0  0  0  0  0  0  0  0  0  0  0  0
  187.6160  177.3940  144.1190 C   0  0  0  0  0  3  0  0  0  0  0  0
  186.3330  177.9190  144.2920 C   0  0  0  0  0  0  0  0  0  0  0  0
  188.4440  177.1950  145.2270 C   0  0  0  0  0  3  0  0  0  0  0  0
  184.2370  178.4700  143.2820 C   0  0  0  0  0  0  0  0  0  0  0  0
  183.5730  178.4690  144.6350 C   0  0  0  0  0  2  0  0  0  0  0  0
  188.9030  177.2970  147.6780 C   0  0  1  0  0  3  0  0  0  0  0  0
  190.2450  176.7530  147.2230 C   0  0  0  0  0  1  0  0  0  0  0  0
  189.0850  178.4830  148.3950 O   0  0  0  0  0  1  0  0  0  0  0  0
  1 19  1  1  0  0  0
  4  6  2  0  0  0  0
  4  8  1  0  0  0  0
  5  9  2  0  0  0  0
  6  5  1  0  0  0  0
  7  9  1  0  0  0  0
  7  3  1  0  0  0  0
  8  1  1  0  0  0  0
  8  7  2  0  0  0  0
 10  2  1  0  0  0  0
 11 10  1  0  0  0  0
 12 14  1  0  0  0  0
 12 11  1  0  0  0  0
 13  2  1  1  0  0  0
 13  3  1  0  0  0  0
 15 14  1  6  0  0  0
 15 13  1  0  0  0  0
 15  1  1  0  0  0  0
 16 11  1  0  0  0  0
 16 17  1  0  0  0  0
 18 16  1  0  0  0  0
 19 20  1  0  0  0  0
 20 21  1  0  0  0  0
 21 30  1  0  0  0  0
 23 30  2  0  0  0  0
 23 28  1  0  0  0  0
 24 25  1  0  0  0  0
 24 32  1  0  0  0  0
 26 22  1  0  0  0  0
 26 25  2  0  0  0  0
 27 28  2  0  0  0  0
 27 29  1  0  0  0  0
 28 26  1  0  0  0  0
 29 24  2  0  0  0  0
 30 31  1  0  0  0  0
 31 22  1  0  0  0  0
 32 33  1  6  0  0  0
 32 34  1  0  0  0  0
M  END
>  <MODEL>
5

>  <REMARK>
 VINA RESULT:      -9.0      4.767      8.407
  Name = 
  6 active torsions:
  status: ('A' for Active; 'I' for Inactive)
    1  A    between atoms: C_1  and  C_9
    2  A    between atoms: C_3  and  N_25
    3  A    between atoms: C_7  and  C_11
    4  A    between atoms: O_8  and  C_9
    5  A    between atoms: O_8  and  C_18
    6  A    between atoms: C_18  and  C_30
                            x       y       z     vdW  Elec       q    Type
                         _______ _______ _______ _____ _____    ______ ____

>  <TORSDO>
F 6

$$$$
=
 OpenBabel10262423133D

 34 38  0  0  1  0  0  0  0  0999 V2000
  183.5920  178.1990  138.8220 C   0  0  2  0  0  3  0  0  0  0  0  0
  185.1860  175.8440  136.2310 C   0  0  0  0  0  2  0  0  0  0  0  0
  182.9800  176.9510  136.2840 C   0  0  0  0  0  2  0  0  0  0  0  0
  181.8160  179.9120  138.3350 C   0  0  0  0  0  3  0  0  0  0  0  0
  180.5060  179.8220  136.2990 C   0  0  0  0  0  3  0  0  0  0  0  0
  180.8080  180.4360  137.5190 C   0  0  0  0  0  3  0  0  0  0  0  0
  182.2260  178.1670  136.7040 C   0  0  0  0  0  0  0  0  0  0  0  0
  182.5310  178.7810  137.9280 C   0  0  0  0  0  0  0  0  0  0  0  0
  181.2110  178.6850  135.8930 C   0  0  0  0  0  3  0  0  0  0  0  0
  186.6670  176.0960  135.9820 C   0  0  0  0  0  2  0  0  0  0  0  0
  187.3530  176.4770  137.2170 N   0  0  0  0  0  0  0  0  0  0  0  0
  187.1740  177.9240  137.3220 C   0  0  0  0  0  2  0  0  0  0  0  0
  184.4620  177.1330  136.5900 C   0  0  1  0  0  3  0  0  0  0  0  0
  186.0350  178.2760  138.2810 C   0  0  0  0  0  2  0  0  0  0  0  0
  184.7370  177.4820  138.0750 C   0  0  1  0  0  3  0  0  0  0  0  0
  188.7870  176.2080  137.0400 C   0  0  0  0  0  3  0  0  0  0  0  0
  189.4040  177.1440  136.0110 C   0  0  0  0  0  1  0  0  0  0  0  0
  189.5470  176.3990  138.3450 C   0  0  0  0  0  1  0  0  0  0  0  0
  182.9800  177.2940  139.8880 C   0  0  0  0  0  2  0  0  0  0  0  0
  182.7620  178.0040  141.0760 O   0  0  0  0  0  0  0  0  0  0  0  0
  183.8910  178.8120  141.2270 C   0  0  0  0  0  2  0  0  0  0  0  0
  184.4910  179.0260  145.0270 C   0  0  0  0  0  2  0  0  0  0  0  0
  185.7640  178.1940  142.6160 N   0  0  0  0  0  0  0  0  0  0  0  0
  187.7340  177.5020  146.3000 C   0  0  0  0  0  0  0  0  0  0  0  0
  186.4650  178.1010  146.2830 C   0  0  0  0  0  3  0  0  0  0  0  0
  185.8050  178.3080  145.0680 C   0  0  0  0  0  0  0  0  0  0  0  0
  187.6970  177.3640  143.8770 C   0  0  0  0  0  3  0  0  0  0  0  0
  186.4260  177.9450  143.8620 C   0  0  0  0  0  0  0  0  0  0  0  0
  188.3470  177.1410  145.0940 C   0  0  0  0  0  3  0  0  0  0  0  0
  184.5220  178.5740  142.5580 C   0  0  0  0  0  0  0  0  0  0  0  0
  183.6720  178.6130  143.8010 C   0  0  0  0  0  2  0  0  0  0  0  0
  188.4520  177.2450  147.5850 C   0  0  1  0  0  3  0  0  0  0  0  0
  189.9410  177.0690  147.3480 C   0  0  0  0  0  1  0  0  0  0  0  0
  188.2310  178.2920  148.4850 O   0  0  0  0  0  1  0  0  0  0  0  0
  1 19  1  1  0  0  0
  3 13  1  0  0  0  0
  3  7  1  0  0  0  0
  5  6  1  0  0  0  0
  6  4  2  0  0  0  0
  7  8  2  0  0  0  0
  8  4  1  0  0  0  0
  8  1  1  0  0  0  0
  9  5  2  0  0  0  0
  9  7  1  0  0  0  0
 10  2  1  0  0  0  0
 10 11  1  0  0  0  0
 11 12  1  0  0  0  0
 12 14  1  0  0  0  0
 13  2  1  1  0  0  0
 13 15  1  0  0  0  0
 15 14  1  6  0  0  0
 15  1  1  0  0  0  0
 16 11  1  0  0  0  0
 16 18  1  0  0  0  0
 17 16  1  0  0  0  0
 19 20  1  0  0  0  0
 20 21  1  0  0  0  0
 21 30  1  0  0  0  0
 22 26  1  0  0  0  0
 23 28  1  0  0  0  0
 24 32  1  0  0  0  0
 25 24  1  0  0  0  0
 26 25  2  0  0  0  0
 27 29  1  0  0  0  0
 28 27  2  0  0  0  0
 28 26  1  0  0  0  0
 29 24  2  0  0  0  0
 30 23  2  0  0  0  0
 30 31  1  0  0  0  0
 31 22  1  0  0  0  0
 32 33  1  6  0  0  0
 32 34  1  0  0  0  0
M  END
>  <MODEL>
6

>  <REMARK>
 VINA RESULT:      -8.9      3.272      8.351
  Name = 
  6 active torsions:
  status: ('A' for Active; 'I' for Inactive)
    1  A    between atoms: C_1  and  C_9
    2  A    between atoms: C_3  and  N_25
    3  A    between atoms: C_7  and  C_11
    4  A    between atoms: O_8  and  C_9
    5  A    between atoms: O_8  and  C_18
    6  A    between atoms: C_18  and  C_30
                            x       y       z     vdW  Elec       q    Type
                         _______ _______ _______ _____ _____    ______ ____

>  <TORSDO>
F 6

$$$$
=
 OpenBabel10262423133D

 34 38  0  0  1  0  0  0  0  0999 V2000
  184.3200  177.8780  138.6740 C   0  0  2  0  0  3  0  0  0  0  0  0
  181.2110  176.9610  136.6020 C   0  0  0  0  0  2  0  0  0  0  0  0
  183.5210  177.5030  135.9180 C   0  0  0  0  0  2  0  0  0  0  0  0
  186.7040  177.5040  137.9660 C   0  0  0  0  0  3  0  0  0  0  0  0
  187.2780  177.0870  135.6500 C   0  0  0  0  0  3  0  0  0  0  0  0
  187.6670  177.2550  136.9830 C   0  0  0  0  0  3  0  0  0  0  0  0
  184.9640  177.4080  136.2830 C   0  0  0  0  0  0  0  0  0  0  0  0
  185.3510  177.5770  137.6210 C   0  0  0  0  0  0  0  0  0  0  0  0
  185.9270  177.1680  135.2990 C   0  0  0  0  0  3  0  0  0  0  0  0
  180.3500  175.8650  137.2150 C   0  0  0  0  0  2  0  0  0  0  0  0
  180.3110  175.9770  138.6740 N   0  0  0  0  0  0  0  0  0  0  0  0
  181.4880  175.2480  139.1440 C   0  0  0  0  0  2  0  0  0  0  0  0
  182.6790  176.7700  136.9560 C   0  0  1  0  0  3  0  0  0  0  0  0
  182.6390  176.2010  139.4690 C   0  0  0  0  0  2  0  0  0  0  0  0
  182.9280  177.2670  138.4030 C   0  0  1  0  0  3  0  0  0  0  0  0
  179.1160  175.2660  139.1510 C   0  0  0  0  0  3  0  0  0  0  0  0
  179.0510  173.8530  138.5900 C   0  0  0  0  0  1  0  0  0  0  0  0
  179.1120  175.1560  140.6690 C   0  0  0  0  0  1  0  0  0  0  0  0
  184.2210  179.3790  138.9340 C   0  0  0  0  0  2  0  0  0  0  0  0
  184.9080  179.7260  140.1040 O   0  0  0  0  0  0  0  0  0  0  0  0
  184.2540  179.0370  141.1270 C   0  0  0  0  0  2  0  0  0  0  0  0
  187.3370  177.4900  142.8430 C   0  0  0  0  0  2  0  0  0  0  0  0
  184.8280  178.7000  143.4460 N   0  0  0  0  0  0  0  0  0  0  0  0
  187.4130  177.6790  146.6400 C   0  0  0  0  0  0  0  0  0  0  0  0
  187.8100  177.4500  145.3140 C   0  0  0  0  0  3  0  0  0  0  0  0
  186.9660  177.8090  144.2590 C   0  0  0  0  0  0  0  0  0  0  0  0
  185.3040  178.5820  145.8490 C   0  0  0  0  0  3  0  0  0  0  0  0
  185.7060  178.3690  144.5280 C   0  0  0  0  0  0  0  0  0  0  0  0
  186.1570  178.2390  146.9020 C   0  0  0  0  0  3  0  0  0  0  0  0
  185.2200  178.6770  142.2070 C   0  0  0  0  0  0  0  0  0  0  0  0
  186.6700  178.4590  141.8630 C   0  0  0  0  0  2  0  0  0  0  0  0
  188.3050  177.3290  147.7880 C   0  0  1  0  0  3  0  0  0  0  0  0
  189.7430  177.1760  147.3290 C   0  0  0  0  0  1  0  0  0  0  0  0
  188.2210  178.3050  148.7850 O   0  0  0  0  0  1  0  0  0  0  0  0
  1 19  1  6  0  0  0
  2 13  1  0  0  0  0
  2 10  1  0  0  0  0
  3  7  1  0  0  0  0
  5  6  1  0  0  0  0
  6  4  2  0  0  0  0
  7  8  2  0  0  0  0
  8  4  1  0  0  0  0
  8  1  1  0  0  0  0
  9  5  2  0  0  0  0
  9  7  1  0  0  0  0
 10 11  1  0  0  0  0
 11 12  1  0  0  0  0
 11 16  1  0  0  0  0
 12 14  1  0  0  0  0
 13  3  1  6  0  0  0
 13 15  1  0  0  0  0
 15  1  1  0  0  0  0
 15 14  1  1  0  0  0
 16 18  1  0  0  0  0
 17 16  1  0  0  0  0
 19 20  1  0  0  0  0
 20 21  1  0  0  0  0
 21 30  1  0  0  0  0
 22 26  1  0  0  0  0
 23 28  1  0  0  0  0
 24 29  1  0  0  0  0
 24 32  1  0  0  0  0
 25 24  2  0  0  0  0
 26 28  2  0  0  0  0
 26 25  1  0  0  0  0
 27 29  2  0  0  0  0
 28 27  1  0  0  0  0
 30 23  2  0  0  0  0
 31 30  1  0  0  0  0
 31 22  1  0  0  0  0
 32 33  1  6  0  0  0
 32 34  1  0  0  0  0
M  END
>  <MODEL>
7

>  <REMARK>
 VINA RESULT:      -8.8      3.696      8.913
  Name = 
  6 active torsions:
  status: ('A' for Active; 'I' for Inactive)
    1  A    between atoms: C_1  and  C_9
    2  A    between atoms: C_3  and  N_25
    3  A    between atoms: C_7  and  C_11
    4  A    between atoms: O_8  and  C_9
    5  A    between atoms: O_8  and  C_18
    6  A    between atoms: C_18  and  C_30
                            x       y       z     vdW  Elec       q    Type
                         _______ _______ _______ _____ _____    ______ ____

>  <TORSDO>
F 6

$$$$
=
 OpenBabel10262423133D

 34 38  0  0  1  0  0  0  0  0999 V2000
  185.5500  178.1930  142.3480 C   0  0  2  0  0  3  0  0  0  0  0  0
  185.2700  179.6920  145.8800 C   0  0  0  0  0  2  0  0  0  0  0  0
  183.7010  179.7150  143.9740 C   0  0  0  0  0  2  0  0  0  0  0  0
  183.6120  177.5090  140.8990 C   0  0  0  0  0  3  0  0  0  0  0  0
  181.3650  178.2950  141.3500 C   0  0  0  0  0  3  0  0  0  0  0  0
  182.2530  177.5480  140.5690 C   0  0  0  0  0  3  0  0  0  0  0  0
  183.1900  178.9570  142.7960 C   0  0  0  0  0  0  0  0  0  0  0  0
  184.0830  178.2080  142.0150 C   0  0  0  0  0  0  0  0  0  0  0  0
  181.8330  179.0040  142.4600 C   0  0  0  0  0  3  0  0  0  0  0  0
  185.8290  178.8050  146.9850 C   0  0  0  0  0  2  0  0  0  0  0  0
  187.0220  178.0880  146.5330 N   0  0  0  0  0  0  0  0  0  0  0  0
  186.5180  176.8790  145.8830 C   0  0  0  0  0  2  0  0  0  0  0  0
  184.7040  178.8600  144.7400 C   0  0  1  0  0  3  0  0  0  0  0  0
  186.4860  177.0370  144.3620 C   0  0  0  0  0  2  0  0  0  0  0  0
  185.8670  178.3460  143.8520 C   0  0  1  0  0  3  0  0  0  0  0  0
  187.7840  177.6810  147.7230 C   0  0  0  0  0  3  0  0  0  0  0  0
  188.5310  176.3780  147.4830 C   0  0  0  0  0  1  0  0  0  0  0  0
  188.8140  178.7350  148.1030 C   0  0  0  0  0  1  0  0  0  0  0  0
  186.3150  179.2200  141.5180 C   0  0  0  0  0  2  0  0  0  0  0  0
  186.9410  178.6080  140.4260 O   0  0  0  0  0  0  0  0  0  0  0  0
  188.2520  179.0870  140.4430 C   0  0  0  0  0  2  0  0  0  0  0  0
  190.0730  175.9990  141.8540 C   0  0  0  0  0  2  0  0  0  0  0  0
  189.2800  178.6400  142.5780 N   0  0  0  0  0  0  0  0  0  0  0  0
  191.6090  176.3940  145.3100 C   0  0  0  0  0  0  0  0  0  0  0  0
  191.2680  175.8490  144.0630 C   0  0  0  0  0  3  0  0  0  0  0  0
  190.5190  176.6000  143.1520 C   0  0  0  0  0  0  0  0  0  0  0  0
  190.4050  178.4250  144.7470 C   0  0  0  0  0  3  0  0  0  0  0  0
  190.0810  177.8880  143.4980 C   0  0  0  0  0  0  0  0  0  0  0  0
  191.1700  177.6800  145.6490 C   0  0  0  0  0  3  0  0  0  0  0  0
  189.0950  178.2550  141.3510 C   0  0  0  0  0  0  0  0  0  0  0  0
  189.8510  177.0780  140.7910 C   0  0  0  0  0  2  0  0  0  0  0  0
  192.4310  175.6250  146.2940 C   0  0  1  0  0  3  0  0  0  0  0  0
  191.8520  175.7430  147.6920 C   0  0  0  0  0  1  0  0  0  0  0  0
  192.5080  174.2800  145.9190 O   0  0  0  0  0  1  0  0  0  0  0  0
  1 19  1  6  0  0  0
  1 15  1  0  0  0  0
  2 10  1  0  0  0  0
  4  8  1  0  0  0  0
  5  9  2  0  0  0  0
  6  4  2  0  0  0  0
  6  5  1  0  0  0  0
  7  3  1  0  0  0  0
  8  1  1  0  0  0  0
  8  7  2  0  0  0  0
  9  7  1  0  0  0  0
 11 10  1  0  0  0  0
 11 16  1  0  0  0  0
 12 11  1  0  0  0  0
 13  3  1  6  0  0  0
 13  2  1  0  0  0  0
 14 12  1  0  0  0  0
 15 14  1  1  0  0  0
 15 13  1  0  0  0  0
 16 18  1  0  0  0  0
 17 16  1  0  0  0  0
 20 21  1  0  0  0  0
 20 19  1  0  0  0  0
 21 30  1  0  0  0  0
 22 26  1  0  0  0  0
 23 28  1  0  0  0  0
 24 29  1  0  0  0  0
 24 32  1  0  0  0  0
 25 24  2  0  0  0  0
 26 28  2  0  0  0  0
 26 25  1  0  0  0  0
 27 29  2  0  0  0  0
 28 27  1  0  0  0  0
 30 23  2  0  0  0  0
 31 30  1  0  0  0  0
 31 22  1  0  0  0  0
 32 33  1  1  0  0  0
 34 32  1  0  0  0  0
M  END
>  <MODEL>
8

>  <REMARK>
 VINA RESULT:      -8.8      2.930      4.471
  Name = 
  6 active torsions:
  status: ('A' for Active; 'I' for Inactive)
    1  A    between atoms: C_1  and  C_9
    2  A    between atoms: C_3  and  N_25
    3  A    between atoms: C_7  and  C_11
    4  A    between atoms: O_8  and  C_9
    5  A    between atoms: O_8  and  C_18
    6  A    between atoms: C_18  and  C_30
                            x       y       z     vdW  Elec       q    Type
                         _______ _______ _______ _____ _____    ______ ____

>  <TORSDO>
F 6

$$$$
=
 OpenBabel10262423133D

 34 38  0  0  1  0  0  0  0  0999 V2000
  190.9210  176.8270  138.4700 C   0  0  2  0  0  3  0  0  0  0  0  0
  191.8070  173.5740  136.6170 C   0  0  0  0  0  2  0  0  0  0  0  0
  189.7470  174.9350  136.6220 C   0  0  0  0  0  2  0  0  0  0  0  0
  189.2320  178.5250  137.7040 C   0  0  0  0  0  3  0  0  0  0  0  0
  187.5630  177.9760  136.0360 C   0  0  0  0  0  3  0  0  0  0  0  0
  188.1360  178.8970  136.9190 C   0  0  0  0  0  3  0  0  0  0  0  0
  189.1870  176.3140  136.7140 C   0  0  0  0  0  0  0  0  0  0  0  0
  189.7640  177.2360  137.6010 C   0  0  0  0  0  0  0  0  0  0  0  0
  188.0850  176.6820  135.9370 C   0  0  0  0  0  3  0  0  0  0  0  0
  193.2310  173.5250  136.0800 C   0  0  0  0  0  2  0  0  0  0  0  0
  194.1640  174.1800  136.9990 N   0  0  0  0  0  0  0  0  0  0  0  0
  194.1270  175.5960  136.6350 C   0  0  0  0  0  2  0  0  0  0  0  0
  191.2700  174.9970  136.6240 C   0  0  1  0  0  3  0  0  0  0  0  0
  193.2190  176.3890  137.5770 C   0  0  0  0  0  2  0  0  0  0  0  0
  191.8450  175.7580  137.8460 C   0  0  1  0  0  3  0  0  0  0  0  0
  195.5140  173.6730  136.7110 C   0  0  0  0  0  3  0  0  0  0  0  0
  196.4630  174.8020  136.3400 C   0  0  0  0  0  1  0  0  0  0  0  0
  196.1020  172.9610  137.9210 C   0  0  0  0  0  1  0  0  0  0  0  0
  190.4460  176.4020  139.8570 C   0  0  0  0  0  2  0  0  0  0  0  0
  190.7150  177.4010  140.8010 O   0  0  0  0  0  0  0  0  0  0  0  0
  190.6120  176.7660  142.0400 C   0  0  0  0  0  2  0  0  0  0  0  0
  187.9860  177.1340  144.8350 C   0  0  0  0  0  2  0  0  0  0  0  0
  188.3460  177.5930  142.0450 N   0  0  0  0  0  0  0  0  0  0  0  0
  184.7300  178.8410  143.8620 C   0  0  0  0  0  0  0  0  0  0  0  0
  185.7370  178.2430  144.6360 C   0  0  0  0  0  3  0  0  0  0  0  0
  186.9390  177.8530  144.0410 C   0  0  0  0  0  0  0  0  0  0  0  0
  186.1190  178.6090  141.8860 C   0  0  0  0  0  3  0  0  0  0  0  0
  187.1280  178.0290  142.6600 C   0  0  0  0  0  0  0  0  0  0  0  0
  184.9250  179.0160  142.4870 C   0  0  0  0  0  3  0  0  0  0  0  0
  189.3710  177.2050  142.7430 C   0  0  0  0  0  0  0  0  0  0  0  0
  189.3800  177.3540  144.2430 C   0  0  0  0  0  2  0  0  0  0  0  0
  183.4450  179.2920  144.4770 C   0  0  1  0  0  3  0  0  0  0  0  0
  182.2580  178.6360  143.7940 C   0  0  0  0  0  1  0  0  0  0  0  0
  183.4300  179.0030  145.8440 O   0  0  0  0  0  1  0  0  0  0  0  0
  1 19  1  1  0  0  0
  3 13  1  0  0  0  0
  3  7  1  0  0  0  0
  5  6  1  0  0  0  0
  6  4  2  0  0  0  0
  7  8  2  0  0  0  0
  8  4  1  0  0  0  0
  8  1  1  0  0  0  0
  9  5  2  0  0  0  0
  9  7  1  0  0  0  0
 10  2  1  0  0  0  0
 10 11  1  0  0  0  0
 12 11  1  0  0  0  0
 12 14  1  0  0  0  0
 13  2  1  1  0  0  0
 13 15  1  0  0  0  0
 15 14  1  6  0  0  0
 15  1  1  0  0  0  0
 16 11  1  0  0  0  0
 16 18  1  0  0  0  0
 17 16  1  0  0  0  0
 19 20  1  0  0  0  0
 20 21  1  0  0  0  0
 21 30  1  0  0  0  0
 23 28  1  0  0  0  0
 23 30  2  0  0  0  0
 24 32  1  0  0  0  0
 24 25  1  0  0  0  0
 26 25  2  0  0  0  0
 26 22  1  0  0  0  0
 27 29  1  0  0  0  0
 27 28  2  0  0  0  0
 28 26  1  0  0  0  0
 29 24  2  0  0  0  0
 30 31  1  0  0  0  0
 31 22  1  0  0  0  0
 32 33  1  6  0  0  0
 32 34  1  0  0  0  0
M  END
>  <MODEL>
9

>  <REMARK>
 VINA RESULT:      -8.7      2.455      9.801
  Name = 
  6 active torsions:
  status: ('A' for Active; 'I' for Inactive)
    1  A    between atoms: C_1  and  C_9
    2  A    between atoms: C_3  and  N_25
    3  A    between atoms: C_7  and  C_11
    4  A    between atoms: O_8  and  C_9
    5  A    between atoms: O_8  and  C_18
    6  A    between atoms: C_18  and  C_30
                            x       y       z     vdW  Elec       q    Type
                         _______ _______ _______ _____ _____    ______ ____

>  <TORSDO>
F 6

$$$$
