=
 OpenBabel10262419533D

 25 28  0  0  1  0  0  0  0  0999 V2000
  186.9210  178.1310  145.7030 C   0  0  0  0  0  0  0  0  0  0  0  0
  188.2550  177.7990  145.4840 C   0  0  0  0  0  0  0  0  0  0  0  0
  187.2560  178.2610  148.0470 N   0  0  0  0  0  0  0  0  0  0  0  0
  185.8450  178.3190  144.8710 C   0  0  0  0  0  0  0  0  0  0  0  0
  190.1410  176.9060  144.0820 C   0  0  2  0  0  3  0  0  0  0  0  0
  183.3550  178.8210  143.7760 C   0  0  0  0  0  3  0  0  0  0  0  0
  188.5470  177.9500  147.8730 N   0  0  0  0  0  0  0  0  0  0  0  0
  184.7830  178.6410  145.6950 C   0  0  0  0  0  0  0  0  0  0  0  0
  183.5170  178.8990  145.1710 C   0  0  0  0  0  3  0  0  0  0  0  0
  188.8040  177.6440  144.0930 C   0  0  0  0  0  2  0  0  0  0  0  0
  184.4440  178.4910  142.9410 C   0  0  0  0  0  3  0  0  0  0  0  0
  186.4440  178.3520  146.9700 C   0  0  0  0  0  0  0  0  0  0  0  0
  185.1300  178.6680  147.0020 N   0  0  0  0  0  2  0  0  0  0  0  0
  190.5310  177.3190  146.5260 C   0  0  1  0  0  3  0  0  0  0  0  0
  185.7130  178.2340  143.4870 C   0  0  0  0  0  3  0  0  0  0  0  0
  191.0860  177.5160  145.1140 C   0  0  0  0  0  2  0  0  0  0  0  0
  189.0840  177.7260  146.6310 C   0  0  0  0  0  0  0  0  0  0  0  0
  190.3260  176.9840  140.2140 C   0  0  0  0  0  0  0  0  0  0  0  0
  189.3630  176.9810  139.1690 N   0  0  0  0  0  1  0  0  0  0  0  0
  191.5520  177.0190  139.9270 O   0  0  0  0  0  0  0  0  0  0  0  0
  190.7480  176.9450  142.7210 C   0  0  0  0  0  0  0  0  0  0  0  0
  189.8880  176.9460  141.5770 N   0  0  0  0  0  2  0  0  0  0  0  0
  192.0030  176.9780  142.5880 O   0  0  0  0  0  0  0  0  0  0  0  0
  190.6750  175.9850  146.9110 O   0  0  0  0  0  0  0  0  0  0  0  0
  192.0220  175.8530  147.2570 C   0  0  0  0  0  1  0  0  0  0  0  0
  1 12  1  0  0  0  0
  2  1  2  0  0  0  0
  2 17  1  0  0  0  0
  4  8  1  0  0  0  0
  4  1  1  0  0  0  0
  5 21  1  6  0  0  0
  5 10  1  0  0  0  0
  5 16  1  0  0  0  0
  6  9  1  0  0  0  0
  7  3  1  0  0  0  0
  8 13  1  0  0  0  0
  9  8  2  0  0  0  0
 10  2  1  0  0  0  0
 11 15  1  0  0  0  0
 11  6  2  0  0  0  0
 12 13  1  0  0  0  0
 12  3  2  0  0  0  0
 14 17  1  0  0  0  0
 14 24  1  6  0  0  0
 15  4  2  0  0  0  0
 16 14  1  0  0  0  0
 17  7  2  0  0  0  0
 18 22  1  0  0  0  0
 19 18  1  0  0  0  0
 20 18  2  0  0  0  0
 22 21  1  0  0  0  0
 23 21  2  0  0  0  0
 24 25  1  0  0  0  0
M  END
>  <MODEL>
1

>  <REMARK>
 VINA RESULT:     -10.9      0.000      0.000
  Name = 
  2 active torsions:
  status: ('A' for Active; 'I' for Inactive)
    1  A    between atoms: C_6  and  C_15
    2  A    between atoms: O_13  and  C_20
                            x       y       z     vdW  Elec       q    Type
                         _______ _______ _______ _____ _____    ______ ____

>  <TORSDO>
F 2

$$$$
=
 OpenBabel10262419533D

 25 28  0  0  1  0  0  0  0  0999 V2000
  185.7640  178.3500  144.9140 C   0  0  0  0  0  0  0  0  0  0  0  0
  187.1220  178.0500  144.9760 C   0  0  0  0  0  0  0  0  0  0  0  0
  185.6620  178.7310  147.2530 N   0  0  0  0  0  0  0  0  0  0  0  0
  184.8550  178.4100  143.8870 C   0  0  0  0  0  0  0  0  0  0  0  0
  189.2510  177.0950  144.0410 C   0  0  2  0  0  3  0  0  0  0  0  0
  182.5980  178.7000  142.3130 C   0  0  0  0  0  3  0  0  0  0  0  0
  186.9690  178.4550  147.3480 N   0  0  0  0  0  0  0  0  0  0  0  0
  183.6540  178.7720  144.4660 C   0  0  0  0  0  0  0  0  0  0  0  0
  182.5010  178.9260  143.6980 C   0  0  0  0  0  3  0  0  0  0  0  0
  187.9200  177.7760  143.7310 C   0  0  0  0  0  2  0  0  0  0  0  0
  183.8290  178.3300  141.7280 C   0  0  0  0  0  3  0  0  0  0  0  0
  185.0590  178.6800  146.0440 C   0  0  0  0  0  0  0  0  0  0  0  0
  183.7550  178.9460  145.8040 N   0  0  0  0  0  2  0  0  0  0  0  0
  189.1780  177.7690  146.4560 C   0  0  1  0  0  3  0  0  0  0  0  0
  184.9810  178.1800  142.5180 C   0  0  0  0  0  3  0  0  0  0  0  0
  189.9790  177.8430  145.1540 C   0  0  0  0  0  2  0  0  0  0  0  0
  187.7290  178.1280  146.2550 C   0  0  0  0  0  0  0  0  0  0  0  0
  190.2360  177.4310  140.3100 C   0  0  0  0  0  0  0  0  0  0  0  0
  189.5680  177.8810  139.1390 N   0  0  0  0  0  1  0  0  0  0  0  0
  191.4250  177.0250  140.2280 O   0  0  0  0  0  0  0  0  0  0  0  0
  190.0960  177.0190  142.8140 C   0  0  0  0  0  0  0  0  0  0  0  0
  189.5450  177.4430  141.5640 N   0  0  0  0  0  2  0  0  0  0  0  0
  191.2800  176.5870  142.8880 O   0  0  0  0  0  0  0  0  0  0  0  0
  189.2760  176.4870  147.0010 O   0  0  0  0  0  0  0  0  0  0  0  0
  190.6110  176.3630  147.3920 C   0  0  0  0  0  1  0  0  0  0  0  0
  1  2  2  0  0  0  0
  1 12  1  0  0  0  0
  2 17  1  0  0  0  0
  3  7  1  0  0  0  0
  4  8  1  0  0  0  0
  4  1  1  0  0  0  0
  5 21  1  6  0  0  0
  5 16  1  0  0  0  0
  6  9  1  0  0  0  0
  8 13  1  0  0  0  0
  9  8  2  0  0  0  0
 10  5  1  0  0  0  0
 10  2  1  0  0  0  0
 11  6  2  0  0  0  0
 11 15  1  0  0  0  0
 12  3  2  0  0  0  0
 13 12  1  0  0  0  0
 14 24  1  6  0  0  0
 15  4  2  0  0  0  0
 16 14  1  0  0  0  0
 17 14  1  0  0  0  0
 17  7  2  0  0  0  0
 18 22  1  0  0  0  0
 19 18  1  0  0  0  0
 20 18  2  0  0  0  0
 21 23  2  0  0  0  0
 22 21  1  0  0  0  0
 24 25  1  0  0  0  0
M  END
>  <MODEL>
2

>  <REMARK>
 VINA RESULT:     -10.4      0.957      1.340
  Name = 
  2 active torsions:
  status: ('A' for Active; 'I' for Inactive)
    1  A    between atoms: C_6  and  C_15
    2  A    between atoms: O_13  and  C_20
                            x       y       z     vdW  Elec       q    Type
                         _______ _______ _______ _____ _____    ______ ____

>  <TORSDO>
F 2

$$$$
=
 OpenBabel10262419533D

 25 28  0  0  1  0  0  0  0  0999 V2000
  187.2220  177.8290  144.4770 C   0  0  0  0  0  0  0  0  0  0  0  0
  188.3170  177.5720  143.6570 C   0  0  0  0  0  0  0  0  0  0  0  0
  188.4670  177.3220  146.4300 N   0  0  0  0  0  0  0  0  0  0  0  0
  185.9320  178.2320  144.2330 C   0  0  0  0  0  0  0  0  0  0  0  0
  189.3880  177.0960  141.4320 C   0  0  2  0  0  3  0  0  0  0  0  0
  183.2820  179.0040  144.4140 C   0  0  0  0  0  3  0  0  0  0  0  0
  189.5430  177.0720  145.6720 N   0  0  0  0  0  0  0  0  0  0  0  0
  185.3230  178.3160  145.4710 C   0  0  0  0  0  0  0  0  0  0  0  0
  183.9890  178.7030  145.5920 C   0  0  0  0  0  3  0  0  0  0  0  0
  188.2520  177.8000  142.1710 C   0  0  0  0  0  2  0  0  0  0  0  0
  183.9110  178.9150  143.1530 C   0  0  0  0  0  3  0  0  0  0  0  0
  187.3110  177.6980  145.8400 C   0  0  0  0  0  0  0  0  0  0  0  0
  186.1580  177.9900  146.4840 N   0  0  0  0  0  2  0  0  0  0  0  0
  190.7530  176.8350  143.5210 C   0  0  1  0  0  3  0  0  0  0  0  0
  185.2560  178.5240  143.0500 C   0  0  0  0  0  3  0  0  0  0  0  0
  190.7230  177.4080  142.1020 C   0  0  0  0  0  2  0  0  0  0  0  0
  189.5190  177.1940  144.3060 C   0  0  0  0  0  0  0  0  0  0  0  0
  188.0510  178.3060  138.0050 C   0  0  0  0  0  0  0  0  0  0  0  0
  186.7700  178.6660  137.5040 N   0  0  0  0  0  1  0  0  0  0  0  0
  189.0510  178.3580  137.2410 O   0  0  0  0  0  0  0  0  0  0  0  0
  189.4090  177.5040  139.9980 C   0  0  0  0  0  0  0  0  0  0  0  0
  188.1830  177.8910  139.3680 N   0  0  0  0  0  2  0  0  0  0  0  0
  190.4960  177.5050  139.3570 O   0  0  0  0  0  0  0  0  0  0  0  0
  190.8920  175.4460  143.4700 O   0  0  0  0  0  0  0  0  0  0  0  0
  192.0220  175.1690  144.2410 C   0  0  0  0  0  1  0  0  0  0  0  0
  1 12  1  0  0  0  0
  2 17  1  0  0  0  0
  2  1  2  0  0  0  0
  4  1  1  0  0  0  0
  4  8  1  0  0  0  0
  5 21  1  6  0  0  0
  5 16  1  0  0  0  0
  5 10  1  0  0  0  0
  6  9  1  0  0  0  0
  7  3  1  0  0  0  0
  8  9  2  0  0  0  0
  8 13  1  0  0  0  0
 10  2  1  0  0  0  0
 11  6  2  0  0  0  0
 12  3  2  0  0  0  0
 12 13  1  0  0  0  0
 14 24  1  6  0  0  0
 14 17  1  0  0  0  0
 15 11  1  0  0  0  0
 15  4  2  0  0  0  0
 16 14  1  0  0  0  0
 17  7  2  0  0  0  0
 18 22  1  0  0  0  0
 19 18  1  0  0  0  0
 20 18  2  0  0  0  0
 22 21  1  0  0  0  0
 23 21  2  0  0  0  0
 24 25  1  0  0  0  0
M  END
>  <MODEL>
3

>  <REMARK>
 VINA RESULT:      -9.7      1.786      2.466
  Name = 
  2 active torsions:
  status: ('A' for Active; 'I' for Inactive)
    1  A    between atoms: C_6  and  C_15
    2  A    between atoms: O_13  and  C_20
                            x       y       z     vdW  Elec       q    Type
                         _______ _______ _______ _____ _____    ______ ____

>  <TORSDO>
F 2

$$$$
=
 OpenBabel10262419533D

 25 28  0  0  1  0  0  0  0  0999 V2000
  189.6580  177.3300  143.3060 C   0  0  0  0  0  0  0  0  0  0  0  0
  188.7900  177.4580  144.3870 C   0  0  0  0  0  0  0  0  0  0  0  0
  191.4140  176.5680  144.7060 N   0  0  0  0  0  0  0  0  0  0  0  0
  189.5270  177.5500  141.9580 C   0  0  0  0  0  0  0  0  0  0  0  0
  186.7010  178.3110  145.4940 C   0  0  2  0  0  3  0  0  0  0  0  0
  189.9070  177.7930  139.2280 C   0  0  0  0  0  3  0  0  0  0  0  0
  190.6050  176.6730  145.7680 N   0  0  0  0  0  0  0  0  0  0  0  0
  190.7520  177.2340  141.4020 C   0  0  0  0  0  0  0  0  0  0  0  0
  190.9720  177.3460  140.0310 C   0  0  0  0  0  3  0  0  0  0  0  0
  187.3510  177.8480  144.1930 C   0  0  0  0  0  2  0  0  0  0  0  0
  188.6580  178.1160  139.8020 C   0  0  0  0  0  3  0  0  0  0  0  0
  190.9470  176.8940  143.4800 C   0  0  0  0  0  0  0  0  0  0  0  0
  191.6500  176.8230  142.3270 N   0  0  0  0  0  2  0  0  0  0  0  0
  188.4790  177.2450  146.9080 C   0  0  1  0  0  3  0  0  0  0  0  0
  188.4540  177.9960  141.1870 C   0  0  0  0  0  3  0  0  0  0  0  0
  186.9790  177.3050  146.6080 C   0  0  0  0  0  2  0  0  0  0  0  0
  189.3040  177.0940  145.6570 C   0  0  0  0  0  0  0  0  0  0  0  0
  183.3210  178.7110  143.6460 C   0  0  0  0  0  0  0  0  0  0  0  0
  182.9270  178.7340  142.2800 N   0  0  0  0  0  1  0  0  0  0  0  0
  182.4480  178.8430  144.5450 O   0  0  0  0  0  0  0  0  0  0  0  0
  185.2330  178.4990  145.3070 C   0  0  0  0  0  0  0  0  0  0  0  0
  184.7030  178.5400  143.9790 N   0  0  0  0  0  2  0  0  0  0  0  0
  184.4770  178.6170  146.3110 O   0  0  0  0  0  0  0  0  0  0  0  0
  188.8710  178.3950  147.5960 O   0  0  0  0  0  0  0  0  0  0  0  0
  188.3370  178.2470  148.8780 C   0  0  0  0  0  1  0  0  0  0  0  0
  1 12  1  0  0  0  0
  1  2  2  0  0  0  0
  2 17  1  0  0  0  0
  3  7  1  0  0  0  0
  4  1  1  0  0  0  0
  5 21  1  6  0  0  0
  5 16  1  0  0  0  0
  6 11  2  0  0  0  0
  6  9  1  0  0  0  0
  8  4  1  0  0  0  0
  8 13  1  0  0  0  0
  9  8  2  0  0  0  0
 10  2  1  0  0  0  0
 10  5  1  0  0  0  0
 11 15  1  0  0  0  0
 12  3  2  0  0  0  0
 13 12  1  0  0  0  0
 14 24  1  6  0  0  0
 15  4  2  0  0  0  0
 16 14  1  0  0  0  0
 17  7  2  0  0  0  0
 17 14  1  0  0  0  0
 18 22  1  0  0  0  0
 18 20  2  0  0  0  0
 19 18  1  0  0  0  0
 21 23  2  0  0  0  0
 22 21  1  0  0  0  0
 24 25  1  0  0  0  0
M  END
>  <MODEL>
4

>  <REMARK>
 VINA RESULT:      -9.7      3.030      5.918
  Name = 
  2 active torsions:
  status: ('A' for Active; 'I' for Inactive)
    1  A    between atoms: C_6  and  C_15
    2  A    between atoms: O_13  and  C_20
                            x       y       z     vdW  Elec       q    Type
                         _______ _______ _______ _____ _____    ______ ____

>  <TORSDO>
F 2

$$$$
=
 OpenBabel10262419533D

 25 28  0  0  1  0  0  0  0  0999 V2000
  187.3670  177.8350  144.6820 C   0  0  0  0  0  0  0  0  0  0  0  0
  188.4170  177.6040  143.7990 C   0  0  0  0  0  0  0  0  0  0  0  0
  188.7310  177.3410  146.5580 N   0  0  0  0  0  0  0  0  0  0  0  0
  186.0580  178.2140  144.5150 C   0  0  0  0  0  0  0  0  0  0  0  0
  189.3690  177.1630  141.5140 C   0  0  2  0  0  3  0  0  0  0  0  0
  183.4070  178.9340  144.8520 C   0  0  0  0  0  3  0  0  0  0  0  0
  189.7660  177.1170  145.7380 N   0  0  0  0  0  0  0  0  0  0  0  0
  185.5180  178.2800  145.7860 C   0  0  0  0  0  0  0  0  0  0  0  0
  184.1870  178.6400  145.9860 C   0  0  0  0  0  3  0  0  0  0  0  0
  188.2630  177.8400  142.3210 C   0  0  0  0  0  2  0  0  0  0  0  0
  183.9650  178.8640  143.5570 C   0  0  0  0  0  3  0  0  0  0  0  0
  187.5350  177.6980  146.0360 C   0  0  0  0  0  0  0  0  0  0  0  0
  186.4170  177.9650  146.7470 N   0  0  0  0  0  2  0  0  0  0  0  0
  190.8550  176.9160  143.5200 C   0  0  1  0  0  3  0  0  0  0  0  0
  185.3100  178.5000  143.3740 C   0  0  0  0  0  3  0  0  0  0  0  0
  190.7340  177.4960  142.1090 C   0  0  0  0  0  2  0  0  0  0  0  0
  189.6610  177.2470  144.3760 C   0  0  0  0  0  0  0  0  0  0  0  0
  190.1220  177.1590  137.7150 C   0  0  0  0  0  0  0  0  0  0  0  0
  190.9520  176.3800  136.8630 N   0  0  0  0  0  1  0  0  0  0  0  0
  189.4290  178.0890  137.2230 O   0  0  0  0  0  0  0  0  0  0  0  0
  189.3000  177.5780  140.0840 C   0  0  0  0  0  0  0  0  0  0  0  0
  190.0880  176.8750  139.1180 N   0  0  0  0  0  2  0  0  0  0  0  0
  188.5550  178.5360  139.7380 O   0  0  0  0  0  0  0  0  0  0  0  0
  191.0180  175.5310  143.4510 O   0  0  0  0  0  0  0  0  0  0  0  0
  192.0550  175.2450  144.3410 C   0  0  0  0  0  1  0  0  0  0  0  0
  1 12  1  0  0  0  0
  2 17  1  0  0  0  0
  2  1  2  0  0  0  0
  4  1  1  0  0  0  0
  4  8  1  0  0  0  0
  5 21  1  6  0  0  0
  5 16  1  0  0  0  0
  5 10  1  0  0  0  0
  6  9  1  0  0  0  0
  7  3  1  0  0  0  0
  8  9  2  0  0  0  0
  8 13  1  0  0  0  0
 10  2  1  0  0  0  0
 11  6  2  0  0  0  0
 12  3  2  0  0  0  0
 12 13  1  0  0  0  0
 14 24  1  6  0  0  0
 14 17  1  0  0  0  0
 15 11  1  0  0  0  0
 15  4  2  0  0  0  0
 16 14  1  0  0  0  0
 17  7  2  0  0  0  0
 18 22  1  0  0  0  0
 19 18  1  0  0  0  0
 20 18  2  0  0  0  0
 22 21  1  0  0  0  0
 23 21  2  0  0  0  0
 24 25  1  0  0  0  0
M  END
>  <MODEL>
5

>  <REMARK>
 VINA RESULT:      -9.5      1.725      2.422
  Name = 
  2 active torsions:
  status: ('A' for Active; 'I' for Inactive)
    1  A    between atoms: C_6  and  C_15
    2  A    between atoms: O_13  and  C_20
                            x       y       z     vdW  Elec       q    Type
                         _______ _______ _______ _____ _____    ______ ____

>  <TORSDO>
F 2

$$$$
=
 OpenBabel10262419533D

 25 28  0  0  1  0  0  0  0  0999 V2000
  188.0820  177.5050  145.6730 C   0  0  0  0  0  0  0  0  0  0  0  0
  187.3020  177.8300  144.5670 C   0  0  0  0  0  0  0  0  0  0  0  0
  186.2530  177.8090  147.1520 N   0  0  0  0  0  0  0  0  0  0  0  0
  189.3960  177.1400  145.8280 C   0  0  0  0  0  0  0  0  0  0  0  0
  186.9880  178.5070  142.1670 C   0  0  2  0  0  3  0  0  0  0  0  0
  191.8750  176.3800  146.7940 C   0  0  0  0  0  3  0  0  0  0  0  0
  185.4710  178.1200  146.1100 N   0  0  0  0  0  0  0  0  0  0  0  0
  189.5760  176.9430  147.1840 C   0  0  0  0  0  0  0  0  0  0  0  0
  190.8130  176.5590  147.6990 C   0  0  0  0  0  3  0  0  0  0  0  0
  187.8520  177.7460  143.1700 C   0  0  0  0  0  2  0  0  0  0  0  0
  191.6840  176.5840  145.4100 C   0  0  0  0  0  3  0  0  0  0  0  0
  187.5530  177.5030  146.9390 C   0  0  0  0  0  0  0  0  0  0  0  0
  188.4460  177.1610  147.8940 N   0  0  0  0  0  2  0  0  0  0  0  0
  185.0120  178.5520  143.7120 C   0  0  1  0  0  3  0  0  0  0  0  0
  190.4300  176.9710  144.9090 C   0  0  0  0  0  3  0  0  0  0  0  0
  185.5220  178.1190  142.3350 C   0  0  0  0  0  2  0  0  0  0  0  0
  185.9400  178.1310  144.8210 C   0  0  0  0  0  0  0  0  0  0  0  0
  189.2450  177.2120  139.2970 C   0  0  0  0  0  0  0  0  0  0  0  0
  190.4800  176.5110  139.2390 N   0  0  0  0  0  1  0  0  0  0  0  0
  188.6640  177.5350  138.2270 O   0  0  0  0  0  0  0  0  0  0  0  0
  187.4480  178.2400  140.7730 C   0  0  0  0  0  0  0  0  0  0  0  0
  188.6810  177.5400  140.5720 N   0  0  0  0  0  2  0  0  0  0  0  0
  186.7550  178.6280  139.7930 O   0  0  0  0  0  0  0  0  0  0  0  0
  184.8410  179.9380  143.7400 O   0  0  0  0  0  0  0  0  0  0  0  0
  183.4760  180.1280  143.9680 C   0  0  0  0  0  1  0  0  0  0  0  0
  1  4  1  0  0  0  0
  1 12  1  0  0  0  0
  2 17  1  0  0  0  0
  2  1  2  0  0  0  0
  4  8  1  0  0  0  0
  5 21  1  6  0  0  0
  5 16  1  0  0  0  0
  5 10  1  0  0  0  0
  6  9  1  0  0  0  0
  7  3  1  0  0  0  0
  8  9  2  0  0  0  0
  8 13  1  0  0  0  0
 10  2  1  0  0  0  0
 11  6  2  0  0  0  0
 12  3  2  0  0  0  0
 12 13  1  0  0  0  0
 14 24  1  6  0  0  0
 14 17  1  0  0  0  0
 15 11  1  0  0  0  0
 15  4  2  0  0  0  0
 16 14  1  0  0  0  0
 17  7  2  0  0  0  0
 18 22  1  0  0  0  0
 19 18  1  0  0  0  0
 20 18  2  0  0  0  0
 22 21  1  0  0  0  0
 23 21  2  0  0  0  0
 24 25  1  0  0  0  0
M  END
>  <MODEL>
6

>  <REMARK>
 VINA RESULT:      -9.4      2.338      5.147
  Name = 
  2 active torsions:
  status: ('A' for Active; 'I' for Inactive)
    1  A    between atoms: C_6  and  C_15
    2  A    between atoms: O_13  and  C_20
                            x       y       z     vdW  Elec       q    Type
                         _______ _______ _______ _____ _____    ______ ____

>  <TORSDO>
F 2

$$$$
=
 OpenBabel10262419533D

 25 28  0  0  1  0  0  0  0  0999 V2000
  187.1670  178.2800  141.3160 C   0  0  0  0  0  0  0  0  0  0  0  0
  186.4510  178.4720  142.4950 C   0  0  0  0  0  0  0  0  0  0  0  0
  185.4150  179.2020  140.0100 N   0  0  0  0  0  0  0  0  0  0  0  0
  188.4100  177.7670  141.0380 C   0  0  0  0  0  0  0  0  0  0  0  0
  185.9980  178.0630  144.9340 C   0  0  2  0  0  3  0  0  0  0  0  0
  190.7390  176.8760  139.8410 C   0  0  0  0  0  3  0  0  0  0  0  0
  184.7010  179.4070  141.1240 N   0  0  0  0  0  0  0  0  0  0  0  0
  188.5540  177.8500  139.6660 C   0  0  0  0  0  0  0  0  0  0  0  0
  189.7160  177.4090  139.0360 C   0  0  0  0  0  3  0  0  0  0  0  0
  187.0560  178.1620  143.8370 C   0  0  0  0  0  2  0  0  0  0  0  0
  190.5840  176.7930  141.2420 C   0  0  0  0  0  3  0  0  0  0  0  0
  186.6420  178.6410  140.1010 C   0  0  0  0  0  0  0  0  0  0  0  0
  187.4700  178.3900  139.0630 N   0  0  0  0  0  2  0  0  0  0  0  0
  184.2840  179.2810  143.5650 C   0  0  1  0  0  3  0  0  0  0  0  0
  189.4050  177.2430  141.8600 C   0  0  0  0  0  3  0  0  0  0  0  0
  185.0690  179.2730  144.8790 C   0  0  0  0  0  2  0  0  0  0  0  0
  185.1750  179.0750  142.3680 C   0  0  0  0  0  0  0  0  0  0  0  0
  188.7380  177.3190  147.5690 C   0  0  0  0  0  0  0  0  0  0  0  0
  190.0710  176.8310  147.5110 N   0  0  0  0  0  1  0  0  0  0  0  0
  188.2310  177.6080  148.6860 O   0  0  0  0  0  0  0  0  0  0  0  0
  186.6450  177.9540  146.2730 C   0  0  0  0  0  0  0  0  0  0  0  0
  187.9900  177.4740  146.3580 N   0  0  0  0  0  2  0  0  0  0  0  0
  186.0080  178.2830  147.3120 O   0  0  0  0  0  0  0  0  0  0  0  0
  183.2980  178.2920  143.5950 O   0  0  0  0  0  0  0  0  0  0  0  0
  182.0900  178.9900  143.6580 C   0  0  0  0  0  1  0  0  0  0  0  0
  1  2  2  0  0  0  0
  2 10  1  0  0  0  0
  3 12  2  0  0  0  0
  3  7  1  0  0  0  0
  4  1  1  0  0  0  0
  4 15  1  0  0  0  0
  5 21  1  1  0  0  0
  6 11  1  0  0  0  0
  7 17  2  0  0  0  0
  8  4  2  0  0  0  0
  9  8  1  0  0  0  0
  9  6  2  0  0  0  0
 10  5  1  0  0  0  0
 11 15  2  0  0  0  0
 12  1  1  0  0  0  0
 13  8  1  0  0  0  0
 13 12  1  0  0  0  0
 14 24  1  1  0  0  0
 14 16  1  0  0  0  0
 16  5  1  0  0  0  0
 17  2  1  0  0  0  0
 17 14  1  0  0  0  0
 18 20  2  0  0  0  0
 19 18  1  0  0  0  0
 21 22  1  0  0  0  0
 21 23  2  0  0  0  0
 22 18  1  0  0  0  0
 24 25  1  0  0  0  0
M  END
>  <MODEL>
7

>  <REMARK>
 VINA RESULT:      -9.3      3.079      7.037
  Name = 
  2 active torsions:
  status: ('A' for Active; 'I' for Inactive)
    1  A    between atoms: C_6  and  C_15
    2  A    between atoms: O_13  and  C_20
                            x       y       z     vdW  Elec       q    Type
                         _______ _______ _______ _____ _____    ______ ____

>  <TORSDO>
F 2

$$$$
=
 OpenBabel10262419533D

 25 28  0  0  1  0  0  0  0  0999 V2000
  189.4830  177.4570  144.0190 C   0  0  0  0  0  0  0  0  0  0  0  0
  189.4250  177.5720  142.6330 C   0  0  0  0  0  0  0  0  0  0  0  0
  191.7850  176.8930  143.9550 N   0  0  0  0  0  0  0  0  0  0  0  0
  188.5580  177.6220  145.0200 C   0  0  0  0  0  0  0  0  0  0  0  0
  188.1950  177.7080  140.4450 C   0  0  2  0  0  3  0  0  0  0  0  0
  187.2170  177.7940  147.4340 C   0  0  0  0  0  3  0  0  0  0  0  0
  191.7680  177.0010  142.6200 N   0  0  0  0  0  0  0  0  0  0  0  0
  189.2310  177.3700  146.2010 C   0  0  0  0  0  0  0  0  0  0  0  0
  188.5810  177.4490  147.4310 C   0  0  0  0  0  3  0  0  0  0  0  0
  188.1720  178.0300  141.9370 C   0  0  0  0  0  2  0  0  0  0  0  0
  186.5360  178.0490  146.2240 C   0  0  0  0  0  3  0  0  0  0  0  0
  190.6500  177.1190  144.6540 C   0  0  0  0  0  0  0  0  0  0  0  0
  190.5310  177.0560  146.0000 N   0  0  0  0  0  2  0  0  0  0  0  0
  190.6820  177.3830  140.4240 C   0  0  1  0  0  3  0  0  0  0  0  0
  187.2080  177.9650  144.9930 C   0  0  0  0  0  3  0  0  0  0  0  0
  189.5120  178.1690  139.8270 C   0  0  0  0  0  2  0  0  0  0  0  0
  190.6340  177.3440  141.9290 C   0  0  0  0  0  0  0  0  0  0  0  0
  184.6110  179.0880  139.9360 C   0  0  0  0  0  0  0  0  0  0  0  0
  183.4500  179.1710  140.7500 N   0  0  0  0  0  1  0  0  0  0  0  0
  184.5770  179.5370  138.7590 O   0  0  0  0  0  0  0  0  0  0  0  0
  187.0370  178.3480  139.7560 C   0  0  0  0  0  0  0  0  0  0  0  0
  185.8020  178.4940  140.4650 N   0  0  0  0  0  2  0  0  0  0  0  0
  187.1520  178.7510  138.5660 O   0  0  0  0  0  0  0  0  0  0  0  0
  190.6870  176.0820  139.9180 O   0  0  0  0  0  0  0  0  0  0  0  0
  191.1230  176.2100  138.5970 C   0  0  0  0  0  1  0  0  0  0  0  0
  1 12  1  0  0  0  0
  1  4  1  0  0  0  0
  2  1  2  0  0  0  0
  3 12  2  0  0  0  0
  4  8  1  0  0  0  0
  5 21  1  6  0  0  0
  5 10  1  0  0  0  0
  7  3  1  0  0  0  0
  8  9  2  0  0  0  0
  9  6  1  0  0  0  0
 10  2  1  0  0  0  0
 11  6  2  0  0  0  0
 12 13  1  0  0  0  0
 13  8  1  0  0  0  0
 14 24  1  6  0  0  0
 14 17  1  0  0  0  0
 15  4  2  0  0  0  0
 15 11  1  0  0  0  0
 16 14  1  0  0  0  0
 16  5  1  0  0  0  0
 17  7  2  0  0  0  0
 17  2  1  0  0  0  0
 18 22  1  0  0  0  0
 18 19  1  0  0  0  0
 20 18  2  0  0  0  0
 21 22  1  0  0  0  0
 23 21  2  0  0  0  0
 25 24  1  0  0  0  0
M  END
>  <MODEL>
8

>  <REMARK>
 VINA RESULT:      -9.3      2.898      5.405
  Name = 
  2 active torsions:
  status: ('A' for Active; 'I' for Inactive)
    1  A    between atoms: C_6  and  C_15
    2  A    between atoms: O_13  and  C_20
                            x       y       z     vdW  Elec       q    Type
                         _______ _______ _______ _____ _____    ______ ____

>  <TORSDO>
F 2

$$$$
=
 OpenBabel10262419533D

 25 28  0  0  1  0  0  0  0  0999 V2000
  186.8560  178.1820  142.6170 C   0  0  0  0  0  0  0  0  0  0  0  0
  188.1460  177.6880  142.4470 C   0  0  0  0  0  0  0  0  0  0  0  0
  186.5910  178.5140  140.2840 N   0  0  0  0  0  0  0  0  0  0  0  0
  186.0570  178.3800  143.7160 C   0  0  0  0  0  0  0  0  0  0  0  0
  190.4280  177.0450  143.2830 C   0  0  2  0  0  3  0  0  0  0  0  0
  184.0090  179.0030  145.4680 C   0  0  0  0  0  3  0  0  0  0  0  0
  187.8270  178.0380  140.0830 N   0  0  0  0  0  0  0  0  0  0  0  0
  184.8710  178.8970  143.2320 C   0  0  0  0  0  0  0  0  0  0  0  0
  183.8220  179.2200  144.0910 C   0  0  0  0  0  3  0  0  0  0  0  0
  188.9410  177.1580  143.6090 C   0  0  0  0  0  2  0  0  0  0  0  0
  185.2240  178.4750  145.9560 C   0  0  0  0  0  3  0  0  0  0  0  0
  186.1050  178.5880  141.5440 C   0  0  0  0  0  0  0  0  0  0  0  0
  184.8760  179.0350  141.8860 N   0  0  0  0  0  2  0  0  0  0  0  0
  190.0230  177.1460  140.8100 C   0  0  1  0  0  3  0  0  0  0  0  0
  186.2710  178.1550  145.0750 C   0  0  0  0  0  3  0  0  0  0  0  0
  190.6220  176.3230  141.9530 C   0  0  0  0  0  2  0  0  0  0  0  0
  188.6220  177.6090  141.1140 C   0  0  0  0  0  0  0  0  0  0  0  0
  191.7890  176.3340  146.8390 C   0  0  0  0  0  0  0  0  0  0  0  0
  191.7040  177.0010  148.0920 N   0  0  0  0  0  1  0  0  0  0  0  0
  192.4310  175.2530  146.7550 O   0  0  0  0  0  0  0  0  0  0  0  0
  191.1500  176.3360  144.3790 C   0  0  0  0  0  0  0  0  0  0  0  0
  191.1450  176.9010  145.6940 N   0  0  0  0  0  2  0  0  0  0  0  0
  191.7530  175.2530  144.1420 O   0  0  0  0  0  0  0  0  0  0  0  0
  190.8370  178.2490  140.5410 O   0  0  0  0  0  0  0  0  0  0  0  0
  192.0840  177.7070  140.2230 C   0  0  0  0  0  1  0  0  0  0  0  0
  1  4  1  0  0  0  0
  2  1  2  0  0  0  0
  2 10  1  0  0  0  0
  3 12  2  0  0  0  0
  4 15  1  0  0  0  0
  5 10  1  0  0  0  0
  5 21  1  1  0  0  0
  6 11  1  0  0  0  0
  7  3  1  0  0  0  0
  7 17  2  0  0  0  0
  8  4  2  0  0  0  0
  8  9  1  0  0  0  0
  9  6  2  0  0  0  0
 12 13  1  0  0  0  0
 12  1  1  0  0  0  0
 13  8  1  0  0  0  0
 14 24  1  1  0  0  0
 14 17  1  0  0  0  0
 14 16  1  0  0  0  0
 15 11  2  0  0  0  0
 16  5  1  0  0  0  0
 17  2  1  0  0  0  0
 18 19  1  0  0  0  0
 20 18  2  0  0  0  0
 21 22  1  0  0  0  0
 22 18  1  0  0  0  0
 23 21  2  0  0  0  0
 25 24  1  0  0  0  0
M  END
>  <MODEL>
9

>  <REMARK>
 VINA RESULT:      -9.2      2.080      4.923
  Name = 
  2 active torsions:
  status: ('A' for Active; 'I' for Inactive)
    1  A    between atoms: C_6  and  C_15
    2  A    between atoms: O_13  and  C_20
                            x       y       z     vdW  Elec       q    Type
                         _______ _______ _______ _____ _____    ______ ____

>  <TORSDO>
F 2

$$$$
