=
 OpenBabel10262421583D

 30 34  0  0  1  0  0  0  0  0999 V2000
  188.7590  177.8550  140.5360 C   0  0  1  0  0  3  0  0  0  0  0  0
  190.2280  178.0010  138.7200 C   0  0  0  0  0  2  0  0  0  0  0  0
  184.7380  178.0820  139.3190 C   0  0  0  0  0  0  0  0  0  0  0  0
  187.6470  178.0370  142.8000 C   0  0  2  0  0  3  0  0  0  0  0  0
  188.5770  177.2150  141.9170 C   0  0  2  0  0  3  0  0  0  0  0  0
  189.9310  176.8810  145.2490 C   0  0  0  0  0  2  0  0  0  0  0  0
  185.2560  179.9210  143.2870 C   0  0  0  0  0  2  0  0  0  0  0  0
  189.4410  177.7430  144.0830 C   0  0  1  0  0  3  0  0  0  0  0  0
  190.4130  175.7870  142.7660 C   0  0  0  0  0  2  0  0  0  0  0  0
  183.9650  178.5360  141.6000 C   0  0  1  0  0  3  0  0  0  0  0  0
  183.9620  177.7450  140.3150 C   0  0  0  0  0  0  0  0  0  0  0  0
  189.8550  177.2080  142.7040 C   0  0  1  0  0  3  0  0  0  0  0  0
  188.0410  177.8590  144.1320 O   0  0  0  0  0  0  0  0  0  0  0  0
  189.3520  177.9840  137.4740 C   0  0  0  0  0  2  0  0  0  0  0  0
  183.1560  177.9320  142.5730 O   0  0  0  0  0  0  0  0  0  0  0  0
  183.0380  179.4390  144.4670 C   0  0  0  0  0  2  0  0  0  0  0  0
  191.6010  175.7030  143.7300 C   0  0  0  0  0  2  0  0  0  0  0  0
  189.6950  177.0910  139.7240 N   0  0  0  0  0  2  0  0  0  0  0  0
  185.6170  178.3840  138.3900 C   0  0  0  0  0  3  0  0  0  0  0  0
  187.7680  179.6500  136.8720 O   0  0  0  0  0  0  0  0  0  0  0  0
  191.3900  176.4850  145.0360 C   0  0  0  0  0  2  0  0  0  0  0  0
  187.4180  177.8690  139.8920 C   0  0  0  0  0  3  0  0  0  0  0  0
  186.1760  177.6500  142.6160 C   0  0  0  0  0  2  0  0  0  0  0  0
  183.1060  176.6610  140.1680 O   0  0  0  0  0  1  0  0  0  0  0  0
  185.3630  178.8740  142.1690 C   0  0  2  0  0  3  0  0  0  0  0  0
  182.4340  178.9940  143.1310 C   0  0  0  0  0  2  0  0  0  0  0  0
  185.0160  180.0390  145.6610 O   0  0  0  0  0  1  0  0  0  0  0  0
  188.0540  178.7160  137.6660 C   0  0  0  0  0  0  0  0  0  0  0  0
  187.0660  178.2950  138.6790 C   0  0  0  0  0  0  0  0  0  0  0  0
  184.5670  179.3570  144.5310 C   0  0  2  0  0  3  0  0  0  0  0  0
  1 22  1  6  0  0  0
  1  5  1  0  0  0  0
  2 18  1  0  0  0  0
  3 11  2  0  0  0  0
  4 23  1  1  0  0  0
  4 13  1  0  0  0  0
  5 12  1  0  0  0  0
  5  4  1  0  0  0  0
  7 30  1  0  0  0  0
  8 13  1  0  0  0  0
  8  6  1  0  0  0  0
  9 17  1  0  0  0  0
 10 25  1  0  0  0  0
 10 15  1  0  0  0  0
 11 10  1  0  0  0  0
 12  9  1  0  0  0  0
 12  8  1  0  0  0  0
 14 28  1  0  0  0  0
 14  2  1  0  0  0  0
 15 26  1  0  0  0  0
 16 30  1  0  0  0  0
 17 21  1  0  0  0  0
 18  1  1  0  0  0  0
 19 29  1  0  0  0  0
 19  3  2  0  0  0  0
 20 28  2  0  0  0  0
 21  6  1  0  0  0  0
 24 11  1  0  0  0  0
 25 23  1  0  0  0  0
 25  7  1  0  0  0  0
 26 16  1  0  0  0  0
 28 29  1  0  0  0  0
 29 22  2  0  0  0  0
 30 27  1  0  0  0  0
M  END
>  <MODEL>
1

>  <REMARK>
 VINA RESULT:      -8.6      0.000      0.000
  Name = 
  0 active torsions:
  status: ('A' for Active; 'I' for Inactive)
                            x       y       z     vdW  Elec       q    Type
                         _______ _______ _______ _____ _____    ______ ____

>  <TORSDO>
F 0

$$$$
=
 OpenBabel10262421583D

 30 34  0  0  1  0  0  0  0  0999 V2000
  186.7840  178.5450  141.1280 C   0  0  1  0  0  3  0  0  0  0  0  0
  189.1150  178.7220  141.0330 C   0  0  0  0  0  2  0  0  0  0  0  0
  185.1460  177.4400  137.4130 C   0  0  0  0  0  0  0  0  0  0  0  0
  184.3280  178.8610  141.6430 C   0  0  2  0  0  3  0  0  0  0  0  0
  185.6200  178.1630  142.0490 C   0  0  2  0  0  3  0  0  0  0  0  0
  183.9290  178.8640  145.1640 C   0  0  0  0  0  2  0  0  0  0  0  0
  182.3840  180.0910  139.5910 C   0  0  0  0  0  2  0  0  0  0  0  0
  184.4940  179.3170  143.8150 C   0  0  1  0  0  3  0  0  0  0  0  0
  186.1710  177.4750  144.3630 C   0  0  0  0  0  2  0  0  0  0  0  0
  182.8870  178.1080  138.0930 C   0  0  1  0  0  3  0  0  0  0  0  0
  183.8910  177.1090  137.5710 C   0  0  0  0  0  0  0  0  0  0  0  0
  185.8310  178.6540  143.4520 C   0  0  1  0  0  3  0  0  0  0  0  0
  183.5590  179.0600  142.7960 O   0  0  0  0  0  0  0  0  0  0  0  0
  189.5140  178.2270  139.6490 C   0  0  0  0  0  2  0  0  0  0  0  0
  181.6360  177.5110  138.3020 O   0  0  0  0  0  0  0  0  0  0  0  0
  180.0700  179.2710  138.8700 C   0  0  0  0  0  2  0  0  0  0  0  0
  186.1910  177.9040  145.8340 C   0  0  0  0  0  2  0  0  0  0  0  0
  188.0230  177.9170  141.5620 N   0  0  0  0  0  2  0  0  0  0  0  0
  186.4150  177.7800  137.3810 C   0  0  0  0  0  3  0  0  0  0  0  0
  188.9280  179.2540  137.5880 O   0  0  0  0  0  0  0  0  0  0  0  0
  185.0340  178.8400  146.2170 C   0  0  0  0  0  2  0  0  0  0  0  0
  186.4220  178.0720  139.7640 C   0  0  0  0  0  3  0  0  0  0  0  0
  183.5390  178.0650  140.5990 C   0  0  0  0  0  2  0  0  0  0  0  0
  183.4820  175.8280  137.2250 O   0  0  0  0  0  1  0  0  0  0  0  0
  183.3350  178.9140  139.3350 C   0  0  2  0  0  3  0  0  0  0  0  0
  180.7210  178.4280  137.7690 C   0  0  0  0  0  2  0  0  0  0  0  0
  180.4020  180.6030  140.8230 O   0  0  0  0  0  1  0  0  0  0  0  0
  188.5210  178.6060  138.5880 C   0  0  0  0  0  0  0  0  0  0  0  0
  187.1200  178.1420  138.6310 C   0  0  0  0  0  0  0  0  0  0  0  0
  181.0000  179.6180  140.0380 C   0  0  2  0  0  3  0  0  0  0  0  0
  1 22  1  6  0  0  0
  1 18  1  0  0  0  0
  1  5  1  0  0  0  0
  2 18  1  0  0  0  0
  3 11  2  0  0  0  0
  4 23  1  6  0  0  0
  4  5  1  0  0  0  0
  4 13  1  0  0  0  0
  5 12  1  0  0  0  0
  6 21  1  0  0  0  0
  7 30  1  0  0  0  0
  8  6  1  0  0  0  0
  9 17  1  0  0  0  0
 10 15  1  0  0  0  0
 10 25  1  0  0  0  0
 11 10  1  0  0  0  0
 12  8  1  0  0  0  0
 12  9  1  0  0  0  0
 13  8  1  0  0  0  0
 14  2  1  0  0  0  0
 16 30  1  0  0  0  0
 17 21  1  0  0  0  0
 19  3  2  0  0  0  0
 19 29  1  0  0  0  0
 20 28  2  0  0  0  0
 24 11  1  0  0  0  0
 25  7  1  0  0  0  0
 25 23  1  0  0  0  0
 26 15  1  0  0  0  0
 26 16  1  0  0  0  0
 28 29  1  0  0  0  0
 28 14  1  0  0  0  0
 29 22  2  0  0  0  0
 30 27  1  0  0  0  0
M  END
>  <MODEL>
2

>  <REMARK>
 VINA RESULT:      -8.5      2.407      4.172
  Name = 
  0 active torsions:
  status: ('A' for Active; 'I' for Inactive)
                            x       y       z     vdW  Elec       q    Type
                         _______ _______ _______ _____ _____    ______ ____

>  <TORSDO>
F 0

$$$$
=
 OpenBabel10262421583D

 30 34  0  0  1  0  0  0  0  0999 V2000
  184.8950  178.6540  143.1740 C   0  0  1  0  0  3  0  0  0  0  0  0
  183.7230  179.2210  145.1180 C   0  0  0  0  0  2  0  0  0  0  0  0
  188.5570  176.7730  144.0440 C   0  0  0  0  0  0  0  0  0  0  0  0
  185.9010  178.6050  140.8540 C   0  0  2  0  0  3  0  0  0  0  0  0
  184.7120  178.2070  141.7190 C   0  0  2  0  0  3  0  0  0  0  0  0
  183.2830  179.0290  138.5050 C   0  0  0  0  0  2  0  0  0  0  0  0
  188.8910  179.1770  140.3690 C   0  0  0  0  0  2  0  0  0  0  0  0
  184.1560  179.3810  139.7120 C   0  0  1  0  0  3  0  0  0  0  0  0
  182.3950  177.9550  140.8830 C   0  0  0  0  0  2  0  0  0  0  0  0
  189.3970  177.1240  141.7680 C   0  0  1  0  0  3  0  0  0  0  0  0
  189.0500  176.2530  142.9510 C   0  0  0  0  0  0  0  0  0  0  0  0
  183.5700  178.9170  141.0540 C   0  0  1  0  0  3  0  0  0  0  0  0
  185.4380  178.8250  139.5510 O   0  0  0  0  0  0  0  0  0  0  0  0
  184.5130  178.6150  146.2710 C   0  0  0  0  0  2  0  0  0  0  0  0
  189.7900  176.3530  140.6650 O   0  0  0  0  0  0  0  0  0  0  0  0
  190.5720  177.8740  138.9490 C   0  0  0  0  0  2  0  0  0  0  0  0
  181.2900  178.5820  140.0260 C   0  0  0  0  0  2  0  0  0  0  0  0
  183.7270  178.3190  143.9750 N   0  0  0  0  0  2  0  0  0  0  0  0
  187.9550  177.3210  145.0760 C   0  0  0  0  0  3  0  0  0  0  0  0
  186.7180  179.2270  146.9130 O   0  0  0  0  0  0  0  0  0  0  0  0
  181.8190  179.3460  138.8020 C   0  0  0  0  0  2  0  0  0  0  0  0
  186.0920  177.9400  143.6930 C   0  0  0  0  0  3  0  0  0  0  0  0
  187.0080  177.5450  140.8620 C   0  0  0  0  0  2  0  0  0  0  0  0
  189.2800  174.8850  142.8990 O   0  0  0  0  0  1  0  0  0  0  0  0
  188.3210  178.1610  141.3680 C   0  0  2  0  0  3  0  0  0  0  0  0
  190.9200  177.0120  140.1670 C   0  0  0  0  0  2  0  0  0  0  0  0
  189.1000  179.5020  138.0120 O   0  0  0  0  0  1  0  0  0  0  0  0
  185.9980  178.6630  146.0470 C   0  0  0  0  0  0  0  0  0  0  0  0
  186.6360  177.9720  144.9090 C   0  0  0  0  0  0  0  0  0  0  0  0
  189.1930  178.5370  139.0130 C   0  0  2  0  0  3  0  0  0  0  0  0
  1 22  1  1  0  0  0
  1 18  1  0  0  0  0
  2 14  1  0  0  0  0
  3 19  2  0  0  0  0
  4 23  1  6  0  0  0
  4  5  1  0  0  0  0
  5  1  1  0  0  0  0
  6 21  1  0  0  0  0
  6  8  1  0  0  0  0
  7 25  1  0  0  0  0
  8 12  1  0  0  0  0
  9 12  1  0  0  0  0
 10 11  1  0  0  0  0
 11  3  2  0  0  0  0
 12  5  1  0  0  0  0
 13  8  1  0  0  0  0
 13  4  1  0  0  0  0
 15 10  1  0  0  0  0
 16 30  1  0  0  0  0
 16 26  1  0  0  0  0
 17  9  1  0  0  0  0
 18  2  1  0  0  0  0
 21 17  1  0  0  0  0
 22 29  2  0  0  0  0
 23 25  1  0  0  0  0
 24 11  1  0  0  0  0
 25 10  1  0  0  0  0
 26 15  1  0  0  0  0
 27 30  1  0  0  0  0
 28 14  1  0  0  0  0
 28 20  2  0  0  0  0
 29 19  1  0  0  0  0
 29 28  1  0  0  0  0
 30  7  1  0  0  0  0
M  END
>  <MODEL>
3

>  <REMARK>
 VINA RESULT:      -8.4      2.356      7.460
  Name = 
  0 active torsions:
  status: ('A' for Active; 'I' for Inactive)
                            x       y       z     vdW  Elec       q    Type
                         _______ _______ _______ _____ _____    ______ ____

>  <TORSDO>
F 0

$$$$
=
 OpenBabel10262421583D

 30 34  0  0  1  0  0  0  0  0999 V2000
  187.0380  177.8230  141.8460 C   0  0  1  0  0  3  0  0  0  0  0  0
  185.1900  178.1350  143.2460 C   0  0  0  0  0  2  0  0  0  0  0  0
  186.1270  178.6960  137.8320 C   0  0  0  0  0  0  0  0  0  0  0  0
  189.1570  176.9880  140.7450 C   0  0  2  0  0  3  0  0  0  0  0  0
  188.5670  177.9230  141.7940 C   0  0  2  0  0  3  0  0  0  0  0  0
  191.6800  176.7780  143.2230 C   0  0  0  0  0  2  0  0  0  0  0  0
  189.1010  175.4570  138.0700 C   0  0  0  0  0  2  0  0  0  0  0  0
  190.3200  176.5000  142.5780 C   0  0  1  0  0  3  0  0  0  0  0  0
  189.7380  178.6280  143.8580 C   0  0  0  0  0  2  0  0  0  0  0  0
  188.1370  177.5530  137.0190 C   0  0  1  0  0  3  0  0  0  0  0  0
  187.2330  178.7550  137.1370 C   0  0  0  0  0  0  0  0  0  0  0  0
  189.2040  177.4370  143.0630 C   0  0  1  0  0  3  0  0  0  0  0  0
  190.4280  176.5940  141.1790 O   0  0  0  0  0  0  0  0  0  0  0  0
  184.1050  178.7500  142.3720 C   0  0  0  0  0  2  0  0  0  0  0  0
  189.3210  177.8700  136.3380 O   0  0  0  0  0  0  0  0  0  0  0  0
  190.5390  175.8050  135.9830 C   0  0  0  0  0  2  0  0  0  0  0  0
  190.5740  178.1600  145.0540 C   0  0  0  0  0  2  0  0  0  0  0  0
  186.4930  178.6770  142.8910 N   0  0  0  0  0  2  0  0  0  0  0  0
  185.0890  178.6280  138.6350 C   0  0  0  0  0  3  0  0  0  0  0  0
  183.0570  177.6980  140.5170 O   0  0  0  0  0  0  0  0  0  0  0  0
  191.5170  176.9920  144.7260 C   0  0  0  0  0  2  0  0  0  0  0  0
  186.5360  178.2590  140.5150 C   0  0  0  0  0  3  0  0  0  0  0  0
  189.2370  177.6400  139.3610 C   0  0  0  0  0  2  0  0  0  0  0  0
  187.5550  179.9350  136.4810 O   0  0  0  0  0  1  0  0  0  0  0  0
  188.4370  176.8130  138.3430 C   0  0  2  0  0  3  0  0  0  0  0  0
  189.5060  176.8040  135.4500 C   0  0  0  0  0  2  0  0  0  0  0  0
  191.2790  174.5030  137.8410 O   0  0  0  0  0  1  0  0  0  0  0  0
  184.1130  178.2120  140.9690 C   0  0  0  0  0  0  0  0  0  0  0  0
  185.2810  178.3750  140.0810 C   0  0  0  0  0  0  0  0  0  0  0  0
  190.5130  175.6170  137.5040 C   0  0  2  0  0  3  0  0  0  0  0  0
  1 22  1  6  0  0  0
  1 18  1  0  0  0  0
  3 19  2  0  0  0  0
  4 23  1  6  0  0  0
  4 13  1  0  0  0  0
  4  5  1  0  0  0  0
  5  1  1  0  0  0  0
  5 12  1  0  0  0  0
  6 21  1  0  0  0  0
  7 25  1  0  0  0  0
  8 12  1  0  0  0  0
  8  6  1  0  0  0  0
  9 17  1  0  0  0  0
 10 11  1  0  0  0  0
 10 25  1  0  0  0  0
 11  3  2  0  0  0  0
 12  9  1  0  0  0  0
 13  8  1  0  0  0  0
 14  2  1  0  0  0  0
 15 10  1  0  0  0  0
 16 30  1  0  0  0  0
 18  2  1  0  0  0  0
 19 29  1  0  0  0  0
 20 28  2  0  0  0  0
 21 17  1  0  0  0  0
 24 11  1  0  0  0  0
 25 23  1  0  0  0  0
 26 16  1  0  0  0  0
 26 15  1  0  0  0  0
 28 14  1  0  0  0  0
 29 22  2  0  0  0  0
 29 28  1  0  0  0  0
 30 27  1  0  0  0  0
 30  7  1  0  0  0  0
M  END
>  <MODEL>
4

>  <REMARK>
 VINA RESULT:      -8.0      2.127      5.876
  Name = 
  0 active torsions:
  status: ('A' for Active; 'I' for Inactive)
                            x       y       z     vdW  Elec       q    Type
                         _______ _______ _______ _____ _____    ______ ____

>  <TORSDO>
F 0

$$$$
=
 OpenBabel10262421583D

 30 34  0  0  1  0  0  0  0  0999 V2000
  186.9320  178.3290  145.5250 C   0  0  1  0  0  3  0  0  0  0  0  0
  186.7330  178.8370  147.8000 C   0  0  0  0  0  2  0  0  0  0  0  0
  190.5020  176.2630  144.6900 C   0  0  0  0  0  0  0  0  0  0  0  0
  186.8540  178.3620  142.9970 C   0  0  2  0  0  3  0  0  0  0  0  0
  186.1240  177.9660  144.2740 C   0  0  2  0  0  3  0  0  0  0  0  0
  183.5150  179.0110  142.0040 C   0  0  0  0  0  2  0  0  0  0  0  0
  189.3830  178.8420  141.3010 C   0  0  0  0  0  2  0  0  0  0  0  0
  184.8370  179.2650  142.7330 C   0  0  1  0  0  3  0  0  0  0  0  0
  183.6600  177.8490  144.4990 C   0  0  0  0  0  2  0  0  0  0  0  0
  190.3140  176.7000  142.2850 C   0  0  1  0  0  3  0  0  0  0  0  0
  190.4530  175.7820  143.4750 C   0  0  0  0  0  0  0  0  0  0  0  0
  184.8500  178.7550  144.1830 C   0  0  1  0  0  3  0  0  0  0  0  0
  185.8940  178.6690  142.0240 O   0  0  0  0  0  0  0  0  0  0  0  0
  187.9010  178.1410  148.4860 C   0  0  0  0  0  2  0  0  0  0  0  0
  190.1570  175.9730  141.0970 O   0  0  0  0  0  0  0  0  0  0  0  0
  190.2230  177.5510  139.2590 C   0  0  0  0  0  2  0  0  0  0  0  0
  182.3350  178.5630  144.2160 C   0  0  0  0  0  2  0  0  0  0  0  0
  186.1980  177.9980  146.7370 N   0  0  0  0  0  2  0  0  0  0  0  0
  190.4280  176.7790  145.8960 C   0  0  0  0  0  3  0  0  0  0  0  0
  190.2010  178.6320  148.1430 O   0  0  0  0  0  0  0  0  0  0  0  0
  182.3370  179.3690  142.9070 C   0  0  0  0  0  2  0  0  0  0  0  0
  188.1930  177.5420  145.4610 C   0  0  0  0  0  3  0  0  0  0  0  0
  187.7950  177.2610  142.4990 C   0  0  0  0  0  2  0  0  0  0  0  0
  190.5600  174.4100  143.2870 O   0  0  0  0  0  1  0  0  0  0  0  0
  189.2330  177.7970  142.4150 C   0  0  2  0  0  3  0  0  0  0  0  0
  191.0040  176.6130  140.1840 C   0  0  0  0  0  2  0  0  0  0  0  0
  188.5890  179.2820  139.0910 O   0  0  0  0  0  1  0  0  0  0  0  0
  189.1500  178.1430  147.6510 C   0  0  0  0  0  0  0  0  0  0  0  0
  189.2030  177.4880  146.3290 C   0  0  0  0  0  0  0  0  0  0  0  0
  189.0420  178.2630  139.9270 C   0  0  2  0  0  3  0  0  0  0  0  0
  1 22  1  6  0  0  0
  1 18  1  0  0  0  0
  2 14  1  0  0  0  0
  3 19  2  0  0  0  0
  4 23  1  6  0  0  0
  4  5  1  0  0  0  0
  5  1  1  0  0  0  0
  6  8  1  0  0  0  0
  6 21  1  0  0  0  0
  7 25  1  0  0  0  0
  8 12  1  0  0  0  0
 10 25  1  0  0  0  0
 10 11  1  0  0  0  0
 11  3  2  0  0  0  0
 12  5  1  0  0  0  0
 12  9  1  0  0  0  0
 13  8  1  0  0  0  0
 13  4  1  0  0  0  0
 15 10  1  0  0  0  0
 16 30  1  0  0  0  0
 16 26  1  0  0  0  0
 17  9  1  0  0  0  0
 18  2  1  0  0  0  0
 19 29  1  0  0  0  0
 21 17  1  0  0  0  0
 22 29  2  0  0  0  0
 24 11  1  0  0  0  0
 25 23  1  0  0  0  0
 26 15  1  0  0  0  0
 27 30  1  0  0  0  0
 28 20  2  0  0  0  0
 28 14  1  0  0  0  0
 29 28  1  0  0  0  0
 30  7  1  0  0  0  0
M  END
>  <MODEL>
5

>  <REMARK>
 VINA RESULT:      -8.0      2.639      7.526
  Name = 
  0 active torsions:
  status: ('A' for Active; 'I' for Inactive)
                            x       y       z     vdW  Elec       q    Type
                         _______ _______ _______ _____ _____    ______ ____

>  <TORSDO>
F 0

$$$$
=
 OpenBabel10262421583D

 30 34  0  0  1  0  0  0  0  0999 V2000
  187.5060  177.6680  139.8000 C   0  0  1  0  0  3  0  0  0  0  0  0
  188.0250  177.0600  137.6010 C   0  0  0  0  0  2  0  0  0  0  0  0
  190.9430  177.8780  142.2180 C   0  0  0  0  0  0  0  0  0  0  0  0
  186.4100  177.9640  142.0600 C   0  0  2  0  0  3  0  0  0  0  0  0
  186.5430  178.5100  140.6440 C   0  0  2  0  0  3  0  0  0  0  0  0
  183.0910  179.0910  141.5400 C   0  0  0  0  0  2  0  0  0  0  0  0
  187.4750  176.5400  144.5790 C   0  0  0  0  0  2  0  0  0  0  0  0
  184.2980  178.1600  141.3890 C   0  0  1  0  0  3  0  0  0  0  0  0
  184.7640  179.7530  139.4510 C   0  0  0  0  0  2  0  0  0  0  0  0
  189.6200  177.8590  144.2810 C   0  0  1  0  0  3  0  0  0  0  0  0
  190.6440  178.4590  143.3510 C   0  0  0  0  0  0  0  0  0  0  0  0
  185.1350  178.4350  140.1300 C   0  0  1  0  0  3  0  0  0  0  0  0
  185.1220  178.2610  142.5230 O   0  0  0  0  0  0  0  0  0  0  0  0
  189.5460  177.0370  137.5240 C   0  0  0  0  0  2  0  0  0  0  0  0
  189.3640  178.7030  145.3710 O   0  0  0  0  0  0  0  0  0  0  0  0
  187.9240  177.5030  146.9060 C   0  0  0  0  0  2  0  0  0  0  0  0
  183.2730  179.7890  139.0980 C   0  0  0  0  0  2  0  0  0  0  0  0
  187.5780  178.1670  138.4340 N   0  0  0  0  0  2  0  0  0  0  0  0
  191.1260  177.3250  141.0400 C   0  0  0  0  0  3  0  0  0  0  0  0
  190.9720  175.5590  138.7180 O   0  0  0  0  0  0  0  0  0  0  0  0
  182.3650  179.2330  140.2050 C   0  0  0  0  0  2  0  0  0  0  0  0
  188.8410  177.7660  140.4510 C   0  0  0  0  0  3  0  0  0  0  0  0
  187.4690  178.5360  143.0070 C   0  0  0  0  0  2  0  0  0  0  0  0
  191.3050  179.6280  143.7040 O   0  0  0  0  0  1  0  0  0  0  0  0
  188.3040  177.3970  143.6120 C   0  0  2  0  0  3  0  0  0  0  0  0
  189.3540  177.8460  146.4780 C   0  0  0  0  0  2  0  0  0  0  0  0
  185.7540  176.7830  146.2180 O   0  0  0  0  0  1  0  0  0  0  0  0
  190.1850  176.5390  138.7880 C   0  0  0  0  0  0  0  0  0  0  0  0
  190.0050  177.2360  140.0770 C   0  0  0  0  0  0  0  0  0  0  0  0
  186.9310  177.3640  145.7470 C   0  0  2  0  0  3  0  0  0  0  0  0
  1 22  1  1  0  0  0
  1  5  1  0  0  0  0
  2 18  1  0  0  0  0
  3 11  2  0  0  0  0
  4 13  1  0  0  0  0
  4 23  1  1  0  0  0
  5  4  1  0  0  0  0
  7 30  1  0  0  0  0
  8  6  1  0  0  0  0
  8 13  1  0  0  0  0
  9 12  1  0  0  0  0
 10 15  1  0  0  0  0
 11 24  1  0  0  0  0
 11 10  1  0  0  0  0
 12  5  1  0  0  0  0
 12  8  1  0  0  0  0
 14  2  1  0  0  0  0
 14 28  1  0  0  0  0
 15 26  1  0  0  0  0
 17  9  1  0  0  0  0
 17 21  1  0  0  0  0
 18  1  1  0  0  0  0
 19  3  2  0  0  0  0
 20 28  2  0  0  0  0
 21  6  1  0  0  0  0
 23 25  1  0  0  0  0
 25 10  1  0  0  0  0
 25  7  1  0  0  0  0
 26 16  1  0  0  0  0
 28 29  1  0  0  0  0
 29 22  2  0  0  0  0
 29 19  1  0  0  0  0
 30 27  1  0  0  0  0
 30 16  1  0  0  0  0
M  END
>  <MODEL>
6

>  <REMARK>
 VINA RESULT:      -7.3      2.157      5.676
  Name = 
  0 active torsions:
  status: ('A' for Active; 'I' for Inactive)
                            x       y       z     vdW  Elec       q    Type
                         _______ _______ _______ _____ _____    ______ ____

>  <TORSDO>
F 0

$$$$
=
 OpenBabel10262421583D

 30 34  0  0  1  0  0  0  0  0999 V2000
  184.6340  177.9490  140.8460 C   0  0  1  0  0  3  0  0  0  0  0  0
  182.4100  177.6950  140.1630 C   0  0  0  0  0  2  0  0  0  0  0  0
  187.2380  178.3740  137.5680 C   0  0  0  0  0  0  0  0  0  0  0  0
  186.8510  177.8030  142.0520 C   0  0  2  0  0  3  0  0  0  0  0  0
  185.5160  178.5300  141.9560 C   0  0  2  0  0  3  0  0  0  0  0  0
  186.2880  178.4780  145.4850 C   0  0  0  0  0  2  0  0  0  0  0  0
  189.2440  176.2600  140.8700 C   0  0  0  0  0  2  0  0  0  0  0  0
  186.0960  177.7630  144.1450 C   0  0  1  0  0  3  0  0  0  0  0  0
  184.3800  179.6290  143.8620 C   0  0  0  0  0  2  0  0  0  0  0  0
  189.2130  177.9090  138.9440 C   0  0  1  0  0  3  0  0  0  0  0  0
  188.4120  178.7630  137.9930 C   0  0  0  0  0  0  0  0  0  0  0  0
  184.9230  178.3090  143.3170 C   0  0  1  0  0  3  0  0  0  0  0  0
  187.2770  177.8470  143.3860 O   0  0  0  0  0  0  0  0  0  0  0  0
  182.4110  177.9080  138.6550 C   0  0  0  0  0  2  0  0  0  0  0  0
  190.3760  178.5680  139.3650 O   0  0  0  0  0  0  0  0  0  0  0  0
  191.6860  176.9900  140.6560 C   0  0  0  0  0  2  0  0  0  0  0  0
  183.9550  179.4860  145.3270 C   0  0  0  0  0  2  0  0  0  0  0  0
  183.3400  178.6150  140.8040 N   0  0  0  0  0  2  0  0  0  0  0  0
  186.0160  178.0010  137.2610 C   0  0  0  0  0  3  0  0  0  0  0  0
  183.5030  176.5250  137.0610 O   0  0  0  0  0  0  0  0  0  0  0  0
  184.9420  178.6710  146.1780 C   0  0  0  0  0  2  0  0  0  0  0  0
  185.3610  178.1650  139.5660 C   0  0  0  0  0  3  0  0  0  0  0  0
  187.9120  178.4080  141.1270 C   0  0  0  0  0  2  0  0  0  0  0  0
  188.9310  179.9660  137.5320 O   0  0  0  0  0  1  0  0  0  0  0  0
  188.4270  177.3410  140.1490 C   0  0  2  0  0  3  0  0  0  0  0  0
  191.3770  177.5920  139.2820 C   0  0  0  0  0  2  0  0  0  0  0  0
  190.8070  176.0440  142.6640 O   0  0  0  0  0  1  0  0  0  0  0  0
  183.6430  177.3620  137.9910 C   0  0  0  0  0  0  0  0  0  0  0  0
  184.9920  177.8630  138.3210 C   0  0  0  0  0  0  0  0  0  0  0  0
  190.4680  176.8470  141.5750 C   0  0  2  0  0  3  0  0  0  0  0  0
  1 22  1  6  0  0  0
  1  5  1  0  0  0  0
  2 18  1  0  0  0  0
  3 11  2  0  0  0  0
  4 23  1  6  0  0  0
  4 13  1  0  0  0  0
  5  4  1  0  0  0  0
  5 12  1  0  0  0  0
  6 21  1  0  0  0  0
  7 30  1  0  0  0  0
  8  6  1  0  0  0  0
  9 17  1  0  0  0  0
 10 15  1  0  0  0  0
 10 25  1  0  0  0  0
 11 10  1  0  0  0  0
 12  9  1  0  0  0  0
 12  8  1  0  0  0  0
 13  8  1  0  0  0  0
 14  2  1  0  0  0  0
 16 30  1  0  0  0  0
 17 21  1  0  0  0  0
 18  1  1  0  0  0  0
 19  3  2  0  0  0  0
 19 29  1  0  0  0  0
 20 28  2  0  0  0  0
 24 11  1  0  0  0  0
 25  7  1  0  0  0  0
 25 23  1  0  0  0  0
 26 15  1  0  0  0  0
 26 16  1  0  0  0  0
 28 29  1  0  0  0  0
 28 14  1  0  0  0  0
 29 22  2  0  0  0  0
 30 27  1  0  0  0  0
M  END
>  <MODEL>
7

>  <REMARK>
 VINA RESULT:      -6.5      2.296      5.826
  Name = 
  0 active torsions:
  status: ('A' for Active; 'I' for Inactive)
                            x       y       z     vdW  Elec       q    Type
                         _______ _______ _______ _____ _____    ______ ____

>  <TORSDO>
F 0

$$$$
=
 OpenBabel10262421583D

 30 34  0  0  1  0  0  0  0  0999 V2000
  188.3840  177.1260  139.2470 C   0  0  1  0  0  3  0  0  0  0  0  0
  190.0470  177.1400  140.8920 C   0  0  0  0  0  2  0  0  0  0  0  0
  184.9370  179.1950  140.4890 C   0  0  0  0  0  0  0  0  0  0  0  0
  186.8220  176.5080  137.3560 C   0  0  2  0  0  3  0  0  0  0  0  0
  188.1600  177.1340  137.7300 C   0  0  2  0  0  3  0  0  0  0  0  0
  188.7820  175.4130  134.6160 C   0  0  0  0  0  2  0  0  0  0  0  0
  183.8550  175.8340  137.8560 C   0  0  0  0  0  2  0  0  0  0  0  0
  188.2710  175.4280  136.0590 C   0  0  1  0  0  3  0  0  0  0  0  0
  190.1650  177.1230  136.2770 C   0  0  0  0  0  2  0  0  0  0  0  0
  183.5750  178.2060  138.7070 C   0  0  1  0  0  3  0  0  0  0  0  0
  184.1460  179.3790  139.4640 C   0  0  0  0  0  0  0  0  0  0  0  0
  189.1440  176.2560  137.0140 C   0  0  1  0  0  3  0  0  0  0  0  0
  186.9540  175.9190  136.0930 O   0  0  0  0  0  0  0  0  0  0  0  0
  189.5340  178.0560  141.9950 C   0  0  0  0  0  2  0  0  0  0  0  0
  182.8600  178.6270  137.5770 O   0  0  0  0  0  0  0  0  0  0  0  0
  181.7800  176.6790  136.6230 C   0  0  0  0  0  2  0  0  0  0  0  0
  191.0580  176.2710  135.3700 C   0  0  0  0  0  2  0  0  0  0  0  0
  189.6900  177.6730  139.5850 N   0  0  0  0  0  2  0  0  0  0  0  0
  185.8180  178.9650  141.4360 C   0  0  0  0  0  3  0  0  0  0  0  0
  187.6140  177.6650  143.3390 O   0  0  0  0  0  0  0  0  0  0  0  0
  190.2920  175.1890  134.5940 C   0  0  0  0  0  2  0  0  0  0  0  0
  187.3090  177.9650  139.8410 C   0  0  0  0  0  3  0  0  0  0  0  0
  185.6800  177.5300  137.3580 C   0  0  0  0  0  2  0  0  0  0  0  0
  183.8120  180.6750  139.0940 O   0  0  0  0  0  1  0  0  0  0  0  0
  184.5860  177.0930  138.3440 C   0  0  2  0  0  3  0  0  0  0  0  0
  181.6910  177.8570  137.5980 C   0  0  0  0  0  2  0  0  0  0  0  0
  183.0800  174.8430  135.8250 O   0  0  0  0  0  1  0  0  0  0  0  0
  188.0490  177.9520  142.1930 C   0  0  0  0  0  0  0  0  0  0  0  0
  187.0950  178.2880  141.1170 C   0  0  0  0  0  0  0  0  0  0  0  0
  183.1750  176.0570  136.5050 C   0  0  2  0  0  3  0  0  0  0  0  0
  1 18  1  0  0  0  0
  1 22  1  1  0  0  0
  2 14  1  0  0  0  0
  3 19  2  0  0  0  0
  4 23  1  6  0  0  0
  4  5  1  0  0  0  0
  5  1  1  0  0  0  0
  6  8  1  0  0  0  0
  7 25  1  0  0  0  0
  8 13  1  0  0  0  0
  8 12  1  0  0  0  0
  9 12  1  0  0  0  0
 10 11  1  0  0  0  0
 11  3  2  0  0  0  0
 12  5  1  0  0  0  0
 13  4  1  0  0  0  0
 14 28  1  0  0  0  0
 15 26  1  0  0  0  0
 15 10  1  0  0  0  0
 16 26  1  0  0  0  0
 17  9  1  0  0  0  0
 18  2  1  0  0  0  0
 21  6  1  0  0  0  0
 21 17  1  0  0  0  0
 22 29  2  0  0  0  0
 23 25  1  0  0  0  0
 24 11  1  0  0  0  0
 25 10  1  0  0  0  0
 27 30  1  0  0  0  0
 28 20  2  0  0  0  0
 29 19  1  0  0  0  0
 29 28  1  0  0  0  0
 30 16  1  0  0  0  0
 30  7  1  0  0  0  0
M  END
>  <MODEL>
8

>  <REMARK>
 VINA RESULT:      -6.5      2.607      6.162
  Name = 
  0 active torsions:
  status: ('A' for Active; 'I' for Inactive)
                            x       y       z     vdW  Elec       q    Type
                         _______ _______ _______ _____ _____    ______ ____

>  <TORSDO>
F 0

$$$$
=
 OpenBabel10262421583D

 30 34  0  0  1  0  0  0  0  0999 V2000
  190.7940  176.4070  139.5920 C   0  0  1  0  0  3  0  0  0  0  0  0
  191.7450  176.8620  141.6810 C   0  0  0  0  0  2  0  0  0  0  0  0
  187.0390  178.2530  139.1460 C   0  0  0  0  0  0  0  0  0  0  0  0
  190.0540  175.3310  137.4260 C   0  0  2  0  0  3  0  0  0  0  0  0
  191.1350  176.1510  138.1200 C   0  0  2  0  0  3  0  0  0  0  0  0
  192.9230  174.0400  135.7970 C   0  0  0  0  0  2  0  0  0  0  0  0
  187.1430  174.4220  136.9770 C   0  0  0  0  0  2  0  0  0  0  0  0
  191.9240  174.2260  136.9410 C   0  0  1  0  0  3  0  0  0  0  0  0
  193.5280  176.1320  137.4860 C   0  0  0  0  0  2  0  0  0  0  0  0
  186.4640  176.8520  137.2190 C   0  0  1  0  0  3  0  0  0  0  0  0
  186.6670  178.1850  137.8950 C   0  0  0  0  0  0  0  0  0  0  0  0
  192.3510  175.2850  137.9680 C   0  0  1  0  0  3  0  0  0  0  0  0
  190.6630  174.5690  136.4210 O   0  0  0  0  0  0  0  0  0  0  0  0
  190.8250  177.8780  142.3440 C   0  0  0  0  0  2  0  0  0  0  0  0
  186.1890  177.0100  135.8530 O   0  0  0  0  0  0  0  0  0  0  0  0
  185.6190  174.8290  134.9640 C   0  0  0  0  0  2  0  0  0  0  0  0
  194.7280  175.2520  137.1230 C   0  0  0  0  0  2  0  0  0  0  0  0
  191.8610  177.1400  140.2570 N   0  0  0  0  0  2  0  0  0  0  0  0
  187.5270  178.2730  140.3660 C   0  0  0  0  0  3  0  0  0  0  0  0
  188.5680  177.4950  142.9820 O   0  0  0  0  0  0  0  0  0  0  0  0
  194.3470  173.9830  136.3440 C   0  0  0  0  0  2  0  0  0  0  0  0
  189.5390  177.2060  139.6080 C   0  0  0  0  0  3  0  0  0  0  0  0
  188.9430  176.2080  136.8400 C   0  0  0  0  0  2  0  0  0  0  0  0
  186.4300  179.3630  137.1970 O   0  0  0  0  0  1  0  0  0  0  0  0
  187.5870  175.8140  137.4450 C   0  0  2  0  0  3  0  0  0  0  0  0
  185.1290  176.1290  135.6090 C   0  0  0  0  0  2  0  0  0  0  0  0
  187.2030  173.0450  135.0260 O   0  0  0  0  0  1  0  0  0  0  0  0
  189.3750  177.6440  142.0280 C   0  0  0  0  0  0  0  0  0  0  0  0
  188.8630  177.7000  140.6440 C   0  0  0  0  0  0  0  0  0  0  0  0
  186.9890  174.3530  135.4570 C   0  0  2  0  0  3  0  0  0  0  0  0
  1 22  1  6  0  0  0
  1 18  1  0  0  0  0
  2 14  1  0  0  0  0
  3 19  2  0  0  0  0
  4 23  1  6  0  0  0
  4  5  1  0  0  0  0
  5  1  1  0  0  0  0
  6 21  1  0  0  0  0
  6  8  1  0  0  0  0
  7 25  1  0  0  0  0
  8 12  1  0  0  0  0
  9 12  1  0  0  0  0
 10 25  1  0  0  0  0
 10 11  1  0  0  0  0
 11  3  2  0  0  0  0
 12  5  1  0  0  0  0
 13  8  1  0  0  0  0
 13  4  1  0  0  0  0
 15 10  1  0  0  0  0
 16 30  1  0  0  0  0
 16 26  1  0  0  0  0
 17  9  1  0  0  0  0
 18  2  1  0  0  0  0
 19 29  1  0  0  0  0
 21 17  1  0  0  0  0
 22 29  2  0  0  0  0
 23 25  1  0  0  0  0
 24 11  1  0  0  0  0
 26 15  1  0  0  0  0
 27 30  1  0  0  0  0
 28 14  1  0  0  0  0
 28 20  2  0  0  0  0
 29 28  1  0  0  0  0
 30  7  1  0  0  0  0
M  END
>  <MODEL>
9

>  <REMARK>
 VINA RESULT:      -6.4      3.509      6.878
  Name = 
  0 active torsions:
  status: ('A' for Active; 'I' for Inactive)
                            x       y       z     vdW  Elec       q    Type
                         _______ _______ _______ _____ _____    ______ ____

>  <TORSDO>
F 0

$$$$
