=
 OpenBabel10252415103D

 34 38  0  0  1  0  0  0  0  0999 V2000
  191.5980  174.6380  135.6090 N   0  0  0  0  0  0  0  0  0  0  0  0
  194.1460  177.1750  136.2280 O   0  0  0  0  0  0  0  0  0  0  0  0
  192.7460  176.1790  137.8940 N   0  0  0  0  0  0  0  0  0  0  0  0
  191.8680  177.5160  139.8840 C   0  0  2  0  0  3  0  0  0  0  0  0
  194.0590  174.8060  136.1870 C   0  0  1  0  0  3  0  0  0  0  0  0
  195.2780  175.2250  135.4150 C   0  0  0  0  0  2  0  0  0  0  0  0
  194.0660  176.5390  139.7960 O   0  0  0  0  0  0  0  0  0  0  0  0
  193.9270  176.0570  137.0330 C   0  0  1  0  0  3  0  0  0  0  0  0
  192.9720  174.5940  135.1230 C   0  0  0  0  0  2  0  0  0  0  0  0
  191.3700  176.0250  137.4270 C   0  0  1  0  0  3  0  0  0  0  0  0
  191.2900  173.5280  136.5230 C   0  0  0  0  0  1  0  0  0  0  0  0
  195.1460  176.7510  135.3300 C   0  0  0  0  0  2  0  0  0  0  0  0
  190.5310  177.1830  139.3880 N   0  0  0  0  0  2  0  0  0  0  0  0
  190.5310  177.2010  137.9270 C   0  0  2  0  0  3  0  0  0  0  0  0
  192.9480  176.6820  139.2290 C   0  0  0  0  0  0  0  0  0  0  0  0
  191.2910  175.9130  136.0230 O   0  0  0  0  0  0  0  0  0  0  0  0
  186.9990  176.0790  137.0520 C   0  0  0  0  0  0  0  0  0  0  0  0
  186.5350  177.1970  136.3530 C   0  0  0  0  0  3  0  0  0  0  0  0
  189.1330  177.1790  137.3990 C   0  0  0  0  0  0  0  0  0  0  0  0
  187.3730  178.2980  136.1710 C   0  0  0  0  0  3  0  0  0  0  0  0
  188.2950  176.0680  137.5730 C   0  0  0  0  0  3  0  0  0  0  0  0
  188.6670  178.2900  136.6930 C   0  0  0  0  0  3  0  0  0  0  0  0
  186.1870  175.0100  137.2320 F   0  0  0  0  0  0  0  0  0  0  0  0
  191.8970  177.3920  141.7110 S   0  0  0  0  0  0  0  0  0  0  0  0
  190.2160  176.7140  141.8320 C   0  0  0  0  0  2  0  0  0  0  0  0
  190.0190  176.0610  143.1880 C   0  0  0  0  0  2  0  0  0  0  0  0
  190.5430  176.9750  144.2880 C   0  0  0  0  0  2  0  0  0  0  0  0
  190.9170  176.8010  147.1050 O   0  0  0  0  0  0  0  0  0  0  0  0
  189.5100  177.2510  145.2820 N   0  0  0  0  0  0  0  0  0  0  0  0
  189.7540  177.0540  146.6890 C   0  0  0  0  0  0  0  0  0  0  0  0
  187.4430  177.8810  147.1620 C   0  0  0  0  0  2  0  0  0  0  0  0
  187.0880  177.4720  145.7370 C   0  0  0  0  0  2  0  0  0  0  0  0
  188.2470  177.8300  144.8130 C   0  0  0  0  0  2  0  0  0  0  0  0
  188.6170  177.0500  147.6670 C   0  0  0  0  0  2  0  0  0  0  0  0
  1 16  1  0  0  0  0
  1 11  1  0  0  0  0
  3 15  1  0  0  0  0
  4 24  1  1  0  0  0
  5  9  1  6  0  0  0
  5  8  1  0  0  0  0
  6  5  1  0  0  0  0
  8  2  1  6  0  0  0
  8  3  1  0  0  0  0
  9  1  1  0  0  0  0
 10 16  1  6  0  0  0
 10  3  1  0  0  0  0
 10 14  1  0  0  0  0
 12  6  1  0  0  0  0
 12  2  1  0  0  0  0
 13  4  1  0  0  0  0
 14 19  1  6  0  0  0
 14 13  1  0  0  0  0
 15  7  2  0  0  0  0
 15  4  1  0  0  0  0
 17 23  1  0  0  0  0
 17 21  1  0  0  0  0
 18 17  2  0  0  0  0
 19 21  2  0  0  0  0
 20 18  1  0  0  0  0
 20 22  2  0  0  0  0
 22 19  1  0  0  0  0
 24 25  1  0  0  0  0
 25 26  1  0  0  0  0
 26 27  1  0  0  0  0
 27 29  1  0  0  0  0
 29 30  1  0  0  0  0
 30 28  2  0  0  0  0
 30 34  1  0  0  0  0
 31 34  1  0  0  0  0
 32 31  1  0  0  0  0
 33 29  1  0  0  0  0
 33 32  1  0  0  0  0
M  END
>  <MODEL>
1

>  <REMARK>
 VINA RESULT:      -7.7      0.000      0.000
  Name = 
  6 active torsions:
  status: ('A' for Active; 'I' for Inactive)
    1  A    between atoms: C_3  and  N_13
    2  A    between atoms: C_3  and  C_17
    3  A    between atoms: C_5  and  S_18
    4  A    between atoms: C_12  and  C_28
    5  A    between atoms: C_17  and  C_29
    6  A    between atoms: S_18  and  C_29
                            x       y       z     vdW  Elec       q    Type
                         _______ _______ _______ _____ _____    ______ ____

>  <TORSDO>
F 6

$$$$
=
 OpenBabel10252415103D

 34 38  0  0  1  0  0  0  0  0999 V2000
  191.4710  174.6410  135.6760 N   0  0  0  0  0  0  0  0  0  0  0  0
  194.1180  177.0780  136.2800 O   0  0  0  0  0  0  0  0  0  0  0  0
  192.6830  176.1450  137.9520 N   0  0  0  0  0  0  0  0  0  0  0  0
  191.8620  177.5240  139.9380 C   0  0  2  0  0  3  0  0  0  0  0  0
  193.9380  174.7140  136.2490 C   0  0  1  0  0  3  0  0  0  0  0  0
  195.1700  175.0820  135.4730 C   0  0  0  0  0  2  0  0  0  0  0  0
  194.0190  176.4600  139.8500 O   0  0  0  0  0  0  0  0  0  0  0  0
  193.8570  175.9730  137.0900 C   0  0  1  0  0  3  0  0  0  0  0  0
  192.8410  174.5410  135.1870 C   0  0  0  0  0  2  0  0  0  0  0  0
  191.3000  176.0440  137.4880 C   0  0  1  0  0  3  0  0  0  0  0  0
  191.1210  173.5480  136.5940 C   0  0  0  0  0  1  0  0  0  0  0  0
  195.0980  176.6110  135.3820 C   0  0  0  0  0  2  0  0  0  0  0  0
  190.5110  177.2420  139.4460 N   0  0  0  0  0  2  0  0  0  0  0  0
  190.5100  177.2540  137.9850 C   0  0  2  0  0  3  0  0  0  0  0  0
  192.9070  176.6450  139.2850 C   0  0  0  0  0  0  0  0  0  0  0  0
  191.2150  175.9290  136.0850 O   0  0  0  0  0  0  0  0  0  0  0  0
  186.9450  176.2570  137.0940 C   0  0  0  0  0  0  0  0  0  0  0  0
  186.5140  177.4020  136.4180 C   0  0  0  0  0  3  0  0  0  0  0  0
  189.1110  177.2840  137.4590 C   0  0  0  0  0  0  0  0  0  0  0  0
  187.3840  178.4810  136.2570 C   0  0  0  0  0  3  0  0  0  0  0  0
  188.2400  176.1960  137.6120 C   0  0  0  0  0  3  0  0  0  0  0  0
  188.6790  178.4230  136.7760 C   0  0  0  0  0  3  0  0  0  0  0  0
  186.1000  175.2100  137.2540 F   0  0  0  0  0  0  0  0  0  0  0  0
  191.8890  177.4060  141.7650 S   0  0  0  0  0  0  0  0  0  0  0  0
  190.1680  176.8380  141.8950 C   0  0  0  0  0  2  0  0  0  0  0  0
  189.4170  177.6920  142.8990 C   0  0  0  0  0  2  0  0  0  0  0  0
  188.5230  176.8140  143.7660 C   0  0  0  0  0  2  0  0  0  0  0  0
  187.9360  177.5580  146.4510 O   0  0  0  0  0  0  0  0  0  0  0  0
  187.3240  177.5330  144.1860 N   0  0  0  0  0  0  0  0  0  0  0  0
  187.0570  177.7940  145.5780 C   0  0  0  0  0  0  0  0  0  0  0  0
  184.9760  179.0070  144.9070 C   0  0  0  0  0  2  0  0  0  0  0  0
  185.0050  178.1860  143.6230 C   0  0  0  0  0  2  0  0  0  0  0  0
  186.4460  178.0680  143.1390 C   0  0  0  0  0  2  0  0  0  0  0  0
  185.7010  178.2580  146.0210 C   0  0  0  0  0  2  0  0  0  0  0  0
  1 16  1  0  0  0  0
  1 11  1  0  0  0  0
  3 15  1  0  0  0  0
  4 24  1  1  0  0  0
  5  9  1  6  0  0  0
  5  8  1  0  0  0  0
  6  5  1  0  0  0  0
  8  2  1  6  0  0  0
  8  3  1  0  0  0  0
  9  1  1  0  0  0  0
 10 16  1  6  0  0  0
 10  3  1  0  0  0  0
 10 14  1  0  0  0  0
 12  6  1  0  0  0  0
 12  2  1  0  0  0  0
 13  4  1  0  0  0  0
 14 19  1  6  0  0  0
 14 13  1  0  0  0  0
 15  7  2  0  0  0  0
 15  4  1  0  0  0  0
 17 23  1  0  0  0  0
 17 21  1  0  0  0  0
 18 17  2  0  0  0  0
 19 21  2  0  0  0  0
 20 18  1  0  0  0  0
 20 22  2  0  0  0  0
 22 19  1  0  0  0  0
 24 25  1  0  0  0  0
 25 26  1  0  0  0  0
 26 27  1  0  0  0  0
 27 29  1  0  0  0  0
 29 30  1  0  0  0  0
 30 34  1  0  0  0  0
 30 28  2  0  0  0  0
 31 34  1  0  0  0  0
 32 31  1  0  0  0  0
 33 32  1  0  0  0  0
 33 29  1  0  0  0  0
M  END
>  <MODEL>
2

>  <REMARK>
 VINA RESULT:      -7.6      1.177      1.471
  Name = 
  6 active torsions:
  status: ('A' for Active; 'I' for Inactive)
    1  A    between atoms: C_3  and  N_13
    2  A    between atoms: C_3  and  C_17
    3  A    between atoms: C_5  and  S_18
    4  A    between atoms: C_12  and  C_28
    5  A    between atoms: C_17  and  C_29
    6  A    between atoms: S_18  and  C_29
                            x       y       z     vdW  Elec       q    Type
                         _______ _______ _______ _____ _____    ______ ____

>  <TORSDO>
F 6

$$$$
=
 OpenBabel10252415103D

 34 38  0  0  1  0  0  0  0  0999 V2000
  185.3650  176.2260  136.3370 N   0  0  0  0  0  0  0  0  0  0  0  0
  188.3990  178.2070  135.9130 O   0  0  0  0  0  0  0  0  0  0  0  0
  187.6320  177.2700  137.9770 N   0  0  0  0  0  0  0  0  0  0  0  0
  187.9330  178.4890  140.1990 C   0  0  2  0  0  3  0  0  0  0  0  0
  187.8250  175.9080  135.8240 C   0  0  1  0  0  3  0  0  0  0  0  0
  188.6790  176.2050  134.6250 C   0  0  0  0  0  2  0  0  0  0  0  0
  189.6550  177.1730  139.1520 O   0  0  0  0  0  0  0  0  0  0  0  0
  188.3060  177.0540  136.6920 C   0  0  1  0  0  3  0  0  0  0  0  0
  186.3800  176.0110  135.3140 C   0  0  0  0  0  2  0  0  0  0  0  0
  186.1840  177.4060  138.1310 C   0  0  1  0  0  3  0  0  0  0  0  0
  185.2380  175.0830  137.2540 C   0  0  0  0  0  1  0  0  0  0  0  0
  188.8360  177.7300  134.6610 C   0  0  0  0  0  2  0  0  0  0  0  0
  186.4730  178.4470  140.3050 N   0  0  0  0  0  2  0  0  0  0  0  0
  185.8810  178.6380  138.9820 C   0  0  2  0  0  3  0  0  0  0  0  0
  188.4580  177.5690  139.1180 C   0  0  0  0  0  0  0  0  0  0  0  0
  185.5180  177.4770  136.8900 O   0  0  0  0  0  0  0  0  0  0  0  0
  182.4860  180.3530  138.7990 C   0  0  0  0  0  0  0  0  0  0  0  0
  181.6670  179.3750  139.3720 C   0  0  0  0  0  3  0  0  0  0  0  0
  184.4160  178.9150  139.0960 C   0  0  0  0  0  0  0  0  0  0  0  0
  182.2260  178.1740  139.8130 C   0  0  0  0  0  3  0  0  0  0  0  0
  183.8560  180.1250  138.6630 C   0  0  0  0  0  3  0  0  0  0  0  0
  183.5960  177.9440  139.6750 C   0  0  0  0  0  3  0  0  0  0  0  0
  181.9450  181.5170  138.3680 F   0  0  0  0  0  0  0  0  0  0  0  0
  188.6790  178.1460  141.8360 S   0  0  0  0  0  0  0  0  0  0  0  0
  187.0870  177.8320  142.6530 C   0  0  0  0  0  2  0  0  0  0  0  0
  187.2750  176.8400  143.7860 C   0  0  0  0  0  2  0  0  0  0  0  0
  188.7460  176.7580  144.1700 C   0  0  0  0  0  2  0  0  0  0  0  0
  191.2810  176.8810  145.4620 O   0  0  0  0  0  0  0  0  0  0  0  0
  188.9540  177.1690  145.5560 N   0  0  0  0  0  0  0  0  0  0  0  0
  190.2600  177.1200  146.1630 C   0  0  0  0  0  0  0  0  0  0  0  0
  189.2740  178.0580  148.2600 C   0  0  0  0  0  2  0  0  0  0  0  0
  187.9340  177.5060  147.7840 C   0  0  0  0  0  2  0  0  0  0  0  0
  187.8090  177.7290  146.2810 C   0  0  0  0  0  2  0  0  0  0  0  0
  190.4160  177.2530  147.6490 C   0  0  0  0  0  2  0  0  0  0  0  0
  1 16  1  0  0  0  0
  1 11  1  0  0  0  0
  3 10  1  0  0  0  0
  3 15  1  0  0  0  0
  4 13  1  0  0  0  0
  4 24  1  1  0  0  0
  5  6  1  6  0  0  0
  5  8  1  0  0  0  0
  6 12  1  0  0  0  0
  8  2  1  6  0  0  0
  8  3  1  0  0  0  0
  9  5  1  0  0  0  0
  9  1  1  0  0  0  0
 10 16  1  6  0  0  0
 10 14  1  0  0  0  0
 12  2  1  0  0  0  0
 14 19  1  1  0  0  0
 14 13  1  0  0  0  0
 15  7  2  0  0  0  0
 15  4  1  0  0  0  0
 17 18  1  0  0  0  0
 18 20  2  0  0  0  0
 19 22  2  0  0  0  0
 21 17  2  0  0  0  0
 21 19  1  0  0  0  0
 22 20  1  0  0  0  0
 23 17  1  0  0  0  0
 24 25  1  0  0  0  0
 25 26  1  0  0  0  0
 26 27  1  0  0  0  0
 27 29  1  0  0  0  0
 28 30  2  0  0  0  0
 29 30  1  0  0  0  0
 29 33  1  0  0  0  0
 30 34  1  0  0  0  0
 32 31  1  0  0  0  0
 33 32  1  0  0  0  0
 34 31  1  0  0  0  0
M  END
>  <MODEL>
3

>  <REMARK>
 VINA RESULT:      -7.4      3.743      4.998
  Name = 
  6 active torsions:
  status: ('A' for Active; 'I' for Inactive)
    1  A    between atoms: C_3  and  N_13
    2  A    between atoms: C_3  and  C_17
    3  A    between atoms: C_5  and  S_18
    4  A    between atoms: C_12  and  C_28
    5  A    between atoms: C_17  and  C_29
    6  A    between atoms: S_18  and  C_29
                            x       y       z     vdW  Elec       q    Type
                         _______ _______ _______ _____ _____    ______ ____

>  <TORSDO>
F 6

$$$$
=
 OpenBabel10252415103D

 34 38  0  0  1  0  0  0  0  0999 V2000
  181.2390  176.7920  139.7940 N   0  0  0  0  0  0  0  0  0  0  0  0
  182.0010  179.2010  137.1620 O   0  0  0  0  0  0  0  0  0  0  0  0
  183.5860  177.7490  138.2150 N   0  0  0  0  0  0  0  0  0  0  0  0
  185.9830  178.4930  138.6830 C   0  0  2  0  0  3  0  0  0  0  0  0
  181.3640  176.9190  137.2670 C   0  0  1  0  0  3  0  0  0  0  0  0
  180.5110  177.5770  136.2200 C   0  0  0  0  0  2  0  0  0  0  0  0
  185.2300  177.6720  136.5490 O   0  0  0  0  0  0  0  0  0  0  0  0
  182.5140  177.9060  137.2250 C   0  0  1  0  0  3  0  0  0  0  0  0
  180.5070  176.9370  138.5420 C   0  0  0  0  0  2  0  0  0  0  0  0
  183.3640  177.6570  139.6570 C   0  0  1  0  0  3  0  0  0  0  0  0
  181.8750  175.4720  139.9240 C   0  0  0  0  0  1  0  0  0  0  0  0
  180.8510  179.0660  136.3580 C   0  0  0  0  0  2  0  0  0  0  0  0
  185.6800  178.2360  140.0920 N   0  0  0  0  0  2  0  0  0  0  0  0
  184.3010  178.6270  140.3760 C   0  0  2  0  0  3  0  0  0  0  0  0
  184.9420  177.9030  137.7550 C   0  0  0  0  0  0  0  0  0  0  0  0
  182.0200  177.9040  140.0090 O   0  0  0  0  0  0  0  0  0  0  0  0
  184.7970  178.3980  144.1450 C   0  0  0  0  0  0  0  0  0  0  0  0
  183.5250  178.7590  144.5990 C   0  0  0  0  0  3  0  0  0  0  0  0
  184.0600  178.6760  141.8500 C   0  0  0  0  0  0  0  0  0  0  0  0
  182.5220  179.0690  143.6780 C   0  0  0  0  0  3  0  0  0  0  0  0
  185.0640  178.3550  142.7750 C   0  0  0  0  0  3  0  0  0  0  0  0
  182.7890  179.0280  142.3090 C   0  0  0  0  0  3  0  0  0  0  0  0
  185.7720  178.1000  145.0360 F   0  0  0  0  0  0  0  0  0  0  0  0
  187.6760  177.9080  138.2990 S   0  0  0  0  0  0  0  0  0  0  0  0
  188.2380  177.9650  140.0260 C   0  0  0  0  0  2  0  0  0  0  0  0
  189.7420  177.7760  140.0850 C   0  0  0  0  0  2  0  0  0  0  0  0
  190.0910  176.6610  141.0620 C   0  0  0  0  0  2  0  0  0  0  0  0
  188.1870  175.9060  143.0410 O   0  0  0  0  0  0  0  0  0  0  0  0
  190.0880  177.1460  142.4400 N   0  0  0  0  0  0  0  0  0  0  0  0
  189.0360  176.7840  143.3570 C   0  0  0  0  0  0  0  0  0  0  0  0
  190.2020  178.0920  145.1410 C   0  0  0  0  0  2  0  0  0  0  0  0
  190.8630  178.8850  144.0190 C   0  0  0  0  0  2  0  0  0  0  0  0
  191.2410  177.9320  142.8910 C   0  0  0  0  0  2  0  0  0  0  0  0
  188.8760  177.5120  144.6590 C   0  0  0  0  0  2  0  0  0  0  0  0
  1 11  1  0  0  0  0
  1 16  1  0  0  0  0
  3 10  1  0  0  0  0
  4 24  1  6  0  0  0
  4 13  1  0  0  0  0
  5  6  1  6  0  0  0
  5  9  1  0  0  0  0
  6 12  1  0  0  0  0
  7 15  2  0  0  0  0
  8  2  1  1  0  0  0
  8  5  1  0  0  0  0
  8  3  1  0  0  0  0
  9  1  1  0  0  0  0
 10 16  1  6  0  0  0
 10 14  1  0  0  0  0
 12  2  1  0  0  0  0
 13 14  1  0  0  0  0
 14 19  1  1  0  0  0
 15  3  1  0  0  0  0
 15  4  1  0  0  0  0
 17 18  1  0  0  0  0
 17 23  1  0  0  0  0
 19 22  2  0  0  0  0
 19 21  1  0  0  0  0
 20 18  2  0  0  0  0
 21 17  2  0  0  0  0
 22 20  1  0  0  0  0
 24 25  1  0  0  0  0
 25 26  1  0  0  0  0
 26 27  1  0  0  0  0
 27 29  1  0  0  0  0
 28 30  2  0  0  0  0
 29 33  1  0  0  0  0
 29 30  1  0  0  0  0
 30 34  1  0  0  0  0
 32 31  1  0  0  0  0
 33 32  1  0  0  0  0
 34 31  1  0  0  0  0
M  END
>  <MODEL>
4

>  <REMARK>
 VINA RESULT:      -7.4      5.254      8.458
  Name = 
  6 active torsions:
  status: ('A' for Active; 'I' for Inactive)
    1  A    between atoms: C_3  and  N_13
    2  A    between atoms: C_3  and  C_17
    3  A    between atoms: C_5  and  S_18
    4  A    between atoms: C_12  and  C_28
    5  A    between atoms: C_17  and  C_29
    6  A    between atoms: S_18  and  C_29
                            x       y       z     vdW  Elec       q    Type
                         _______ _______ _______ _____ _____    ______ ____

>  <TORSDO>
F 6

$$$$
=
 OpenBabel10252415103D

 34 38  0  0  1  0  0  0  0  0999 V2000
  190.0420  174.4710  136.0820 N   0  0  0  0  0  0  0  0  0  0  0  0
  192.4220  176.7750  137.6110 O   0  0  0  0  0  0  0  0  0  0  0  0
  190.3910  176.0090  138.6170 N   0  0  0  0  0  0  0  0  0  0  0  0
  188.9710  177.5270  140.1000 C   0  0  2  0  0  3  0  0  0  0  0  0
  192.0970  174.4270  137.5630 C   0  0  1  0  0  3  0  0  0  0  0  0
  193.5560  174.6850  137.3170 C   0  0  0  0  0  2  0  0  0  0  0  0
  190.9130  176.3360  140.8770 O   0  0  0  0  0  0  0  0  0  0  0  0
  191.7900  175.7270  138.2800 C   0  0  1  0  0  3  0  0  0  0  0  0
  191.4830  174.2680  136.1640 C   0  0  0  0  0  2  0  0  0  0  0  0
  189.2890  175.9660  137.6570 C   0  0  1  0  0  3  0  0  0  0  0  0
  189.2870  173.4450  136.8170 C   0  0  0  0  0  1  0  0  0  0  0  0
  193.6360  176.2090  137.1720 C   0  0  0  0  0  2  0  0  0  0  0  0
  187.8970  177.3010  139.1300 N   0  0  0  0  0  2  0  0  0  0  0  0
  188.4590  177.2430  137.7820 C   0  0  2  0  0  3  0  0  0  0  0  0
  190.1200  176.5580  139.9220 C   0  0  0  0  0  0  0  0  0  0  0  0
  189.7420  175.7900  136.3320 O   0  0  0  0  0  0  0  0  0  0  0  0
  185.1700  176.7570  135.9260 C   0  0  0  0  0  0  0  0  0  0  0  0
  185.4050  177.5140  134.7740 C   0  0  0  0  0  3  0  0  0  0  0  0
  187.3760  177.3300  136.7560 C   0  0  0  0  0  0  0  0  0  0  0  0
  186.6280  178.1680  134.6120 C   0  0  0  0  0  3  0  0  0  0  0  0
  186.1520  176.6640  136.9140 C   0  0  0  0  0  3  0  0  0  0  0  0
  187.6090  178.0780  135.6000 C   0  0  0  0  0  3  0  0  0  0  0  0
  183.9840  176.1240  136.0860 F   0  0  0  0  0  0  0  0  0  0  0  0
  188.2850  177.4960  141.7980 S   0  0  0  0  0  0  0  0  0  0  0  0
  189.5010  178.6700  142.4620 C   0  0  0  0  0  2  0  0  0  0  0  0
  190.0480  178.1560  143.7810 C   0  0  0  0  0  2  0  0  0  0  0  0
  189.1860  177.0100  144.2930 C   0  0  0  0  0  2  0  0  0  0  0  0
  186.4940  177.6810  144.9340 O   0  0  0  0  0  0  0  0  0  0  0  0
  188.6950  177.2790  145.6410 N   0  0  0  0  0  0  0  0  0  0  0  0
  187.3360  177.6990  145.8730 C   0  0  0  0  0  0  0  0  0  0  0  0
  187.8060  177.7200  148.3290 C   0  0  0  0  0  2  0  0  0  0  0  0
  189.2770  177.8910  147.9660 C   0  0  0  0  0  2  0  0  0  0  0  0
  189.6000  177.0120  146.7640 C   0  0  0  0  0  2  0  0  0  0  0  0
  186.9260  178.2550  147.2040 C   0  0  0  0  0  2  0  0  0  0  0  0
  1  9  1  0  0  0  0
  1 16  1  0  0  0  0
  1 11  1  0  0  0  0
  3 15  1  0  0  0  0
  4 24  1  1  0  0  0
  5  9  1  6  0  0  0
  5  8  1  0  0  0  0
  6  5  1  0  0  0  0
  8  2  1  6  0  0  0
  8  3  1  0  0  0  0
 10 16  1  6  0  0  0
 10 14  1  0  0  0  0
 10  3  1  0  0  0  0
 12  6  1  0  0  0  0
 12  2  1  0  0  0  0
 13  4  1  0  0  0  0
 14 19  1  6  0  0  0
 14 13  1  0  0  0  0
 15  4  1  0  0  0  0
 15  7  2  0  0  0  0
 17 23  1  0  0  0  0
 17 21  1  0  0  0  0
 18 17  2  0  0  0  0
 19 21  2  0  0  0  0
 20 18  1  0  0  0  0
 20 22  2  0  0  0  0
 22 19  1  0  0  0  0
 24 25  1  0  0  0  0
 25 26  1  0  0  0  0
 26 27  1  0  0  0  0
 27 29  1  0  0  0  0
 28 30  2  0  0  0  0
 29 30  1  0  0  0  0
 29 33  1  0  0  0  0
 30 34  1  0  0  0  0
 32 31  1  0  0  0  0
 33 32  1  0  0  0  0
 34 31  1  0  0  0  0
M  END
>  <MODEL>
5

>  <REMARK>
 VINA RESULT:      -7.4      1.880      2.442
  Name = 
  6 active torsions:
  status: ('A' for Active; 'I' for Inactive)
    1  A    between atoms: C_3  and  N_13
    2  A    between atoms: C_3  and  C_17
    3  A    between atoms: C_5  and  S_18
    4  A    between atoms: C_12  and  C_28
    5  A    between atoms: C_17  and  C_29
    6  A    between atoms: S_18  and  C_29
                            x       y       z     vdW  Elec       q    Type
                         _______ _______ _______ _____ _____    ______ ____

>  <TORSDO>
F 6

$$$$
=
 OpenBabel10252415103D

 34 38  0  0  1  0  0  0  0  0999 V2000
  180.0080  178.7520  136.2940 N   0  0  0  0  0  0  0  0  0  0  0  0
  180.4170  181.3150  138.8580 O   0  0  0  0  0  0  0  0  0  0  0  0
  182.0830  179.7250  138.2070 N   0  0  0  0  0  0  0  0  0  0  0  0
  183.6990  178.7050  139.9010 C   0  0  2  0  0  3  0  0  0  0  0  0
  180.7950  181.1490  136.5230 C   0  0  1  0  0  3  0  0  0  0  0  0
  180.0890  182.4510  136.7730 C   0  0  0  0  0  2  0  0  0  0  0  0
  184.0140  180.8650  138.8860 O   0  0  0  0  0  0  0  0  0  0  0  0
  181.3840  180.9800  137.9100 C   0  0  1  0  0  3  0  0  0  0  0  0
  179.6810  180.1640  136.1390 C   0  0  0  0  0  2  0  0  0  0  0  0
  181.5130  178.3960  137.9940 C   0  0  1  0  0  3  0  0  0  0  0  0
  181.0700  178.3170  135.3750 C   0  0  0  0  0  1  0  0  0  0  0  0
  179.7180  182.3820  138.2600 C   0  0  0  0  0  2  0  0  0  0  0  0
  183.1370  177.4120  139.5050 N   0  0  0  0  0  2  0  0  0  0  0  0
  181.7040  177.5550  139.2560 C   0  0  2  0  0  3  0  0  0  0  0  0
  183.3200  179.8130  138.9420 C   0  0  0  0  0  0  0  0  0  0  0  0
  180.1520  178.4510  137.6290 O   0  0  0  0  0  0  0  0  0  0  0  0
  179.6930  174.4320  140.0910 C   0  0  0  0  0  0  0  0  0  0  0  0
  179.8780  173.6820  138.9260 C   0  0  0  0  0  3  0  0  0  0  0  0
  181.0490  176.2160  139.1620 C   0  0  0  0  0  0  0  0  0  0  0  0
  180.6540  174.1970  137.8850 C   0  0  0  0  0  3  0  0  0  0  0  0
  180.2780  175.6940  140.2110 C   0  0  0  0  0  3  0  0  0  0  0  0
  181.2370  175.4590  138.0030 C   0  0  0  0  0  3  0  0  0  0  0  0
  178.9380  173.9350  141.1000 F   0  0  0  0  0  0  0  0  0  0  0  0
  185.5110  178.5510  140.1120 S   0  0  0  0  0  0  0  0  0  0  0  0
  185.5090  179.1860  141.8140 C   0  0  0  0  0  2  0  0  0  0  0  0
  186.1010  178.1520  142.7530 C   0  0  0  0  0  2  0  0  0  0  0  0
  185.4460  178.2550  144.1240 C   0  0  0  0  0  2  0  0  0  0  0  0
  184.9440  178.6420  146.9000 O   0  0  0  0  0  0  0  0  0  0  0  0
  186.4020  177.9680  145.1890 N   0  0  0  0  0  0  0  0  0  0  0  0
  186.1030  178.2760  146.5650 C   0  0  0  0  0  0  0  0  0  0  0  0
  188.3160  177.3100  147.2170 C   0  0  0  0  0  2  0  0  0  0  0  0
  188.7730  177.5970  145.7910 C   0  0  0  0  0  2  0  0  0  0  0  0
  187.6380  177.2660  144.8280 C   0  0  0  0  0  2  0  0  0  0  0  0
  187.1860  178.2590  147.6030 C   0  0  0  0  0  2  0  0  0  0  0  0
  1 16  1  0  0  0  0
  3 15  1  0  0  0  0
  4 24  1  6  0  0  0
  5  9  1  1  0  0  0
  5  6  1  0  0  0  0
  5  8  1  0  0  0  0
  6 12  1  0  0  0  0
  7 15  2  0  0  0  0
  8  3  1  0  0  0  0
  8  2  1  1  0  0  0
  9  1  1  0  0  0  0
 10 16  1  1  0  0  0
 10  3  1  0  0  0  0
 10 14  1  0  0  0  0
 11  1  1  0  0  0  0
 12  2  1  0  0  0  0
 13  4  1  0  0  0  0
 14 19  1  6  0  0  0
 14 13  1  0  0  0  0
 15  4  1  0  0  0  0
 17 21  1  0  0  0  0
 17 23  1  0  0  0  0
 18 17  2  0  0  0  0
 19 21  2  0  0  0  0
 20 22  2  0  0  0  0
 20 18  1  0  0  0  0
 22 19  1  0  0  0  0
 24 25  1  0  0  0  0
 25 26  1  0  0  0  0
 26 27  1  0  0  0  0
 27 29  1  0  0  0  0
 29 30  1  0  0  0  0
 30 28  2  0  0  0  0
 30 34  1  0  0  0  0
 31 34  1  0  0  0  0
 32 31  1  0  0  0  0
 33 29  1  0  0  0  0
 33 32  1  0  0  0  0
M  END
>  <MODEL>
6

>  <REMARK>
 VINA RESULT:      -7.4      7.404      9.568
  Name = 
  6 active torsions:
  status: ('A' for Active; 'I' for Inactive)
    1  A    between atoms: C_3  and  N_13
    2  A    between atoms: C_3  and  C_17
    3  A    between atoms: C_5  and  S_18
    4  A    between atoms: C_12  and  C_28
    5  A    between atoms: C_17  and  C_29
    6  A    between atoms: S_18  and  C_29
                            x       y       z     vdW  Elec       q    Type
                         _______ _______ _______ _____ _____    ______ ____

>  <TORSDO>
F 6

$$$$
=
 OpenBabel10252415103D

 34 38  0  0  1  0  0  0  0  0999 V2000
  182.0340  178.1450  141.1470 N   0  0  0  0  0  0  0  0  0  0  0  0
  183.4470  180.8070  139.0900 O   0  0  0  0  0  0  0  0  0  0  0  0
  184.5780  178.7960  139.7250 N   0  0  0  0  0  0  0  0  0  0  0  0
  187.0770  178.7690  140.2450 C   0  0  2  0  0  3  0  0  0  0  0  0
  182.2340  178.8050  138.7090 C   0  0  1  0  0  3  0  0  0  0  0  0
  181.6010  179.8810  137.8730 C   0  0  0  0  0  2  0  0  0  0  0  0
  186.1750  178.6760  138.0160 O   0  0  0  0  0  0  0  0  0  0  0  0
  183.6030  179.4440  138.8410 C   0  0  1  0  0  3  0  0  0  0  0  0
  181.3890  178.7550  139.9910 C   0  0  0  0  0  2  0  0  0  0  0  0
  184.3140  178.4400  141.1180 C   0  0  1  0  0  3  0  0  0  0  0  0
  182.3010  176.7130  140.9520 C   0  0  0  0  0  1  0  0  0  0  0  0
  182.3160  181.1600  138.3260 C   0  0  0  0  0  2  0  0  0  0  0  0
  186.6920  178.2870  141.5730 N   0  0  0  0  0  2  0  0  0  0  0  0
  185.4580  178.9460  141.9950 C   0  0  2  0  0  3  0  0  0  0  0  0
  185.9360  178.6950  139.2540 C   0  0  0  0  0  0  0  0  0  0  0  0
  183.0750  178.9390  141.5720 O   0  0  0  0  0  0  0  0  0  0  0  0
  185.8470  177.8100  145.6090 C   0  0  0  0  0  0  0  0  0  0  0  0
  184.6660  178.3080  146.1680 C   0  0  0  0  0  3  0  0  0  0  0  0
  185.2120  178.7200  143.4520 C   0  0  0  0  0  0  0  0  0  0  0  0
  183.7590  179.0030  145.3670 C   0  0  0  0  0  3  0  0  0  0  0  0
  186.1190  178.0130  144.2540 C   0  0  0  0  0  3  0  0  0  0  0  0
  184.0300  179.2090  144.0140 C   0  0  0  0  0  3  0  0  0  0  0  0
  186.7300  177.1380  146.3850 F   0  0  0  0  0  0  0  0  0  0  0  0
  188.5650  177.8690  139.6700 S   0  0  0  0  0  0  0  0  0  0  0  0
  188.8850  177.0860  141.2770 C   0  0  0  0  0  2  0  0  0  0  0  0
  190.2390  177.5250  141.8050 C   0  0  0  0  0  2  0  0  0  0  0  0
  190.9220  176.3660  142.5190 C   0  0  0  0  0  2  0  0  0  0  0  0
  192.4270  174.7920  144.3530 O   0  0  0  0  0  0  0  0  0  0  0  0
  190.9640  176.5850  143.9610 N   0  0  0  0  0  0  0  0  0  0  0  0
  191.6810  175.6880  144.8330 C   0  0  0  0  0  0  0  0  0  0  0  0
  191.0430  177.1330  146.7720 C   0  0  0  0  0  2  0  0  0  0  0  0
  189.8700  177.6160  145.9260 C   0  0  0  0  0  2  0  0  0  0  0  0
  190.3360  177.8020  144.4860 C   0  0  0  0  0  2  0  0  0  0  0  0
  191.4760  175.7430  146.3180 C   0  0  0  0  0  2  0  0  0  0  0  0
  1 16  1  0  0  0  0
  3 10  1  0  0  0  0
  4 24  1  6  0  0  0
  4 13  1  0  0  0  0
  5  6  1  6  0  0  0
  5  8  1  0  0  0  0
  5  9  1  0  0  0  0
  6 12  1  0  0  0  0
  7 15  2  0  0  0  0
  8  2  1  1  0  0  0
  8  3  1  0  0  0  0
  9  1  1  0  0  0  0
 10 16  1  1  0  0  0
 10 14  1  0  0  0  0
 11  1  1  0  0  0  0
 12  2  1  0  0  0  0
 13 14  1  0  0  0  0
 14 19  1  1  0  0  0
 15  3  1  0  0  0  0
 15  4  1  0  0  0  0
 17 18  1  0  0  0  0
 17 23  1  0  0  0  0
 19 22  2  0  0  0  0
 19 21  1  0  0  0  0
 20 18  2  0  0  0  0
 21 17  2  0  0  0  0
 22 20  1  0  0  0  0
 24 25  1  0  0  0  0
 25 26  1  0  0  0  0
 26 27  1  0  0  0  0
 27 29  1  0  0  0  0
 28 30  2  0  0  0  0
 29 33  1  0  0  0  0
 29 30  1  0  0  0  0
 30 34  1  0  0  0  0
 32 31  1  0  0  0  0
 33 32  1  0  0  0  0
 34 31  1  0  0  0  0
M  END
>  <MODEL>
7

>  <REMARK>
 VINA RESULT:      -7.3      5.074      8.321
  Name = 
  6 active torsions:
  status: ('A' for Active; 'I' for Inactive)
    1  A    between atoms: C_3  and  N_13
    2  A    between atoms: C_3  and  C_17
    3  A    between atoms: C_5  and  S_18
    4  A    between atoms: C_12  and  C_28
    5  A    between atoms: C_17  and  C_29
    6  A    between atoms: S_18  and  C_29
                            x       y       z     vdW  Elec       q    Type
                         _______ _______ _______ _____ _____    ______ ____

>  <TORSDO>
F 6

$$$$
=
 OpenBabel10252415103D

 34 38  0  0  1  0  0  0  0  0999 V2000
  189.0400  178.2890  137.0790 N   0  0  0  0  0  0  0  0  0  0  0  0
  186.0720  176.2060  137.4730 O   0  0  0  0  0  0  0  0  0  0  0  0
  186.5670  178.1700  138.7470 N   0  0  0  0  0  0  0  0  0  0  0  0
  185.9630  178.3530  141.2210 C   0  0  2  0  0  3  0  0  0  0  0  0
  186.6730  178.1110  136.1960 C   0  0  1  0  0  3  0  0  0  0  0  0
  185.9820  177.1480  135.2720 C   0  0  0  0  0  2  0  0  0  0  0  0
  184.4070  178.7620  139.4310 O   0  0  0  0  0  0  0  0  0  0  0  0
  186.0700  177.6000  137.4900 C   0  0  1  0  0  3  0  0  0  0  0  0
  188.1720  177.8400  135.9980 C   0  0  0  0  0  2  0  0  0  0  0  0
  187.9800  178.2360  139.1170 C   0  0  1  0  0  3  0  0  0  0  0  0
  189.0550  179.7530  137.2180 C   0  0  0  0  0  1  0  0  0  0  0  0
  185.8080  175.8870  136.1260 C   0  0  0  0  0  2  0  0  0  0  0  0
  187.3970  178.5420  141.4530 N   0  0  0  0  0  2  0  0  0  0  0  0
  188.1570  177.6960  140.5360 C   0  0  2  0  0  3  0  0  0  0  0  0
  185.5940  178.4920  139.7600 C   0  0  0  0  0  0  0  0  0  0  0  0
  188.8040  177.5400  138.2080 O   0  0  0  0  0  0  0  0  0  0  0  0
  191.3470  177.8450  142.6100 C   0  0  0  0  0  0  0  0  0  0  0  0
  192.3010  177.5020  141.6480 C   0  0  0  0  0  3  0  0  0  0  0  0
  189.5910  177.6250  140.9510 C   0  0  0  0  0  0  0  0  0  0  0  0
  191.9000  177.2300  140.3390 C   0  0  0  0  0  3  0  0  0  0  0  0
  189.9960  177.9080  142.2640 C   0  0  0  0  0  3  0  0  0  0  0  0
  190.5490  177.2900  139.9920 C   0  0  0  0  0  3  0  0  0  0  0  0
  191.7340  178.1070  143.8810 F   0  0  0  0  0  0  0  0  0  0  0  0
  185.0100  179.4880  142.2960 S   0  0  0  0  0  0  0  0  0  0  0  0
  184.7430  178.2530  143.6020 C   0  0  0  0  0  2  0  0  0  0  0  0
  185.6360  178.5570  144.7900 C   0  0  0  0  0  2  0  0  0  0  0  0
  186.5990  177.4010  145.0280 C   0  0  0  0  0  2  0  0  0  0  0  0
  189.3680  176.7520  145.1720 O   0  0  0  0  0  0  0  0  0  0  0  0
  187.4530  177.6540  146.1860 N   0  0  0  0  0  0  0  0  0  0  0  0
  188.8250  177.2140  146.2120 C   0  0  0  0  0  0  0  0  0  0  0  0
  189.0670  178.2530  148.4740 C   0  0  0  0  0  2  0  0  0  0  0  0
  187.5560  178.1150  148.6140 C   0  0  0  0  0  2  0  0  0  0  0  0
  186.8990  178.4560  147.2810 C   0  0  0  0  0  2  0  0  0  0  0  0
  189.5980  177.2090  147.4980 C   0  0  0  0  0  2  0  0  0  0  0  0
  1 11  1  0  0  0  0
  1 16  1  0  0  0  0
  3 10  1  0  0  0  0
  3 15  1  0  0  0  0
  4 13  1  0  0  0  0
  4 24  1  1  0  0  0
  5  6  1  6  0  0  0
  5  8  1  0  0  0  0
  6 12  1  0  0  0  0
  7 15  2  0  0  0  0
  8  2  1  1  0  0  0
  8  3  1  0  0  0  0
  9  5  1  0  0  0  0
  9  1  1  0  0  0  0
 10 16  1  6  0  0  0
 10 14  1  0  0  0  0
 12  2  1  0  0  0  0
 14 19  1  1  0  0  0
 14 13  1  0  0  0  0
 15  4  1  0  0  0  0
 17 23  1  0  0  0  0
 18 17  2  0  0  0  0
 19 21  2  0  0  0  0
 20 18  1  0  0  0  0
 21 17  1  0  0  0  0
 22 20  2  0  0  0  0
 22 19  1  0  0  0  0
 24 25  1  0  0  0  0
 25 26  1  0  0  0  0
 26 27  1  0  0  0  0
 27 29  1  0  0  0  0
 28 30  2  0  0  0  0
 29 30  1  0  0  0  0
 29 33  1  0  0  0  0
 30 34  1  0  0  0  0
 31 32  1  0  0  0  0
 33 32  1  0  0  0  0
 34 31  1  0  0  0  0
M  END
>  <MODEL>
8

>  <REMARK>
 VINA RESULT:      -7.3      3.841      6.030
  Name = 
  6 active torsions:
  status: ('A' for Active; 'I' for Inactive)
    1  A    between atoms: C_3  and  N_13
    2  A    between atoms: C_3  and  C_17
    3  A    between atoms: C_5  and  S_18
    4  A    between atoms: C_12  and  C_28
    5  A    between atoms: C_17  and  C_29
    6  A    between atoms: S_18  and  C_29
                            x       y       z     vdW  Elec       q    Type
                         _______ _______ _______ _____ _____    ______ ____

>  <TORSDO>
F 6

$$$$
=
 OpenBabel10252415103D

 34 38  0  0  1  0  0  0  0  0999 V2000
  189.7230  177.6130  145.4350 N   0  0  0  0  0  0  0  0  0  0  0  0
  190.3640  174.7770  143.2310 O   0  0  0  0  0  0  0  0  0  0  0  0
  189.9150  177.0150  142.5160 N   0  0  0  0  0  0  0  0  0  0  0  0
  188.5590  177.5040  140.4080 C   0  0  2  0  0  3  0  0  0  0  0  0
  191.6630  176.4530  144.2910 C   0  0  1  0  0  3  0  0  0  0  0  0
  192.3590  175.1400  144.5100 C   0  0  0  0  0  2  0  0  0  0  0  0
  190.9050  176.9660  140.3940 O   0  0  0  0  0  0  0  0  0  0  0  0
  190.8880  176.0560  143.0500 C   0  0  1  0  0  3  0  0  0  0  0  0
  190.8310  176.6750  145.5630 C   0  0  0  0  0  2  0  0  0  0  0  0
  188.8540  177.6370  143.3070 C   0  0  1  0  0  3  0  0  0  0  0  0
  190.1760  178.9870  145.1760 C   0  0  0  0  0  1  0  0  0  0  0  0
  191.3630  174.1080  143.9680 C   0  0  0  0  0  2  0  0  0  0  0  0
  187.6320  178.2160  141.2920 N   0  0  0  0  0  2  0  0  0  0  0  0
  187.5250  177.5050  142.5640 C   0  0  2  0  0  3  0  0  0  0  0  0
  189.8760  177.1950  141.0870 C   0  0  0  0  0  0  0  0  0  0  0  0
  188.7620  177.0870  144.6030 O   0  0  0  0  0  0  0  0  0  0  0  0
  185.3380  178.6700  145.4550 C   0  0  0  0  0  0  0  0  0  0  0  0
  184.1440  178.9500  144.7840 C   0  0  0  0  0  3  0  0  0  0  0  0
  186.3670  178.0170  143.3580 C   0  0  0  0  0  0  0  0  0  0  0  0
  184.0620  178.7540  143.4040 C   0  0  0  0  0  3  0  0  0  0  0  0
  186.4470  178.2040  144.7460 C   0  0  0  0  0  3  0  0  0  0  0  0
  185.1690  178.2900  142.6930 C   0  0  0  0  0  3  0  0  0  0  0  0
  185.4210  178.8630  146.7930 F   0  0  0  0  0  0  0  0  0  0  0  0
  188.7750  178.4480  138.8540 S   0  0  0  0  0  0  0  0  0  0  0  0
  188.5550  177.0000  137.7790 C   0  0  0  0  0  2  0  0  0  0  0  0
  187.2030  177.0680  137.0930 C   0  0  0  0  0  2  0  0  0  0  0  0
  186.4230  178.2760  137.5930 C   0  0  0  0  0  2  0  0  0  0  0  0
  184.8440  179.7530  139.4460 O   0  0  0  0  0  0  0  0  0  0  0  0
  185.0830  177.8960  138.0310 N   0  0  0  0  0  0  0  0  0  0  0  0
  184.3840  178.6510  139.0400 C   0  0  0  0  0  0  0  0  0  0  0  0
  182.4310  177.1110  138.7770 C   0  0  0  0  0  2  0  0  0  0  0  0
  183.4170  176.0800  138.2390 C   0  0  0  0  0  2  0  0  0  0  0  0
  184.4300  176.7800  137.3400 C   0  0  0  0  0  2  0  0  0  0  0  0
  183.1540  178.0940  139.6930 C   0  0  0  0  0  2  0  0  0  0  0  0
  1  9  1  0  0  0  0
  2 12  1  0  0  0  0
  3  8  1  0  0  0  0
  3 10  1  0  0  0  0
  4 24  1  6  0  0  0
  4 15  1  0  0  0  0
  4 13  1  0  0  0  0
  5  6  1  1  0  0  0
  5  9  1  0  0  0  0
  7 15  2  0  0  0  0
  8  2  1  1  0  0  0
  8  5  1  0  0  0  0
 10 16  1  1  0  0  0
 11  1  1  0  0  0  0
 12  6  1  0  0  0  0
 13 14  1  0  0  0  0
 14 10  1  0  0  0  0
 14 19  1  1  0  0  0
 15  3  1  0  0  0  0
 16  1  1  0  0  0  0
 17 23  1  0  0  0  0
 18 17  1  0  0  0  0
 19 21  1  0  0  0  0
 20 18  2  0  0  0  0
 21 17  2  0  0  0  0
 22 19  2  0  0  0  0
 22 20  1  0  0  0  0
 25 24  1  0  0  0  0
 26 27  1  0  0  0  0
 26 25  1  0  0  0  0
 27 29  1  0  0  0  0
 29 30  1  0  0  0  0
 30 28  2  0  0  0  0
 30 34  1  0  0  0  0
 31 34  1  0  0  0  0
 32 31  1  0  0  0  0
 33 29  1  0  0  0  0
 33 32  1  0  0  0  0
M  END
>  <MODEL>
9

>  <REMARK>
 VINA RESULT:      -7.2      4.146      7.993
  Name = 
  6 active torsions:
  status: ('A' for Active; 'I' for Inactive)
    1  A    between atoms: C_3  and  N_13
    2  A    between atoms: C_3  and  C_17
    3  A    between atoms: C_5  and  S_18
    4  A    between atoms: C_12  and  C_28
    5  A    between atoms: C_17  and  C_29
    6  A    between atoms: S_18  and  C_29
                            x       y       z     vdW  Elec       q    Type
                         _______ _______ _______ _____ _____    ______ ____

>  <TORSDO>
F 6

$$$$
