=
 OpenBabel10262420193D

 55 62  0  0  1  0  0  0  0  0999 V2000
  186.7770  173.6790  135.4380 O   0  0  0  0  0  0  0  0  0  0  0  0
  184.9820  178.5830  138.0690 O   0  0  0  0  0  0  0  0  0  0  0  0
  187.6650  179.2470  136.6910 C   0  0  0  0  0  1  0  0  0  0  0  0
  182.3750  177.5330  137.8510 C   0  0  0  0  0  2  0  0  0  0  0  0
  182.2630  177.4190  140.3640 C   0  0  0  0  0  2  0  0  0  0  0  0
  188.9120  177.3270  139.8260 S   0  0  0  0  0  0  0  0  0  0  0  0
  190.6140  177.5770  140.4800 C   0  0  0  0  0  2  0  0  0  0  0  0
  190.4490  176.0360  137.9410 C   0  0  1  0  0  3  0  0  0  0  0  0
  191.7880  176.4980  138.5240 C   0  0  0  0  0  2  0  0  0  0  0  0
  187.5150  175.5460  137.3740 O   0  0  0  0  0  0  0  0  0  0  0  0
  180.5340  178.4990  139.0890 O   0  0  0  0  0  0  0  0  0  0  0  0
  181.3190  178.6180  140.2490 C   0  0  0  0  0  2  0  0  0  0  0  0
  191.6730  177.7520  139.3930 C   0  0  0  0  0  2  0  0  0  0  0  0
  183.2780  174.6890  134.8130 C   0  0  0  0  0  3  0  0  0  0  0  0
  189.3440  177.1010  138.0600 C   0  0  1  0  0  3  0  0  0  0  0  0
  183.6240  174.5610  137.2070 C   0  0  0  0  0  0  0  0  0  0  0  0
  187.6950  173.2800  136.4560 C   0  0  1  0  0  3  0  0  0  0  0  0
  184.9460  174.1560  136.9890 C   0  0  0  0  0  3  0  0  0  0  0  0
  189.5230  174.7430  136.0720 C   0  0  2  0  0  3  0  0  0  0  0  0
  188.8330  172.5260  135.7790 C   0  0  0  0  0  2  0  0  0  0  0  0
  184.2480  178.4490  139.2590 C   0  0  0  0  0  2  0  0  0  0  0  0
  190.6390  175.5850  136.5590 N   0  0  0  0  0  2  0  0  0  0  0  0
  186.2350  178.0370  138.3520 C   0  0  0  0  0  2  0  0  0  0  0  0
  187.0550  177.9110  137.0750 C   0  0  2  0  0  3  0  0  0  0  0  0
  184.6070  174.3070  134.6000 C   0  0  0  0  0  3  0  0  0  0  0  0
  181.3980  178.7120  137.9970 C   0  0  2  0  0  3  0  0  0  0  0  0
  183.1890  177.3440  139.1450 C   0  0  2  0  0  0  0  0  0  0  0  0
  185.4470  174.0390  135.6840 C   0  0  0  0  0  0  0  0  0  0  0  0
  188.1180  176.8050  137.1550 C   0  0  2  0  0  3  0  0  0  0  0  0
  188.3970  174.4720  137.0740 C   0  0  1  0  0  3  0  0  0  0  0  0
  183.9180  175.9960  139.1840 C   0  0  0  0  0  2  0  0  0  0  0  0
  189.9590  173.4370  135.5520 N   0  0  0  0  0  0  0  0  0  0  0  0
  183.1440  174.8180  138.5970 C   0  0  0  0  0  2  0  0  0  0  0  0
  182.7890  174.8210  136.1160 C   0  0  0  0  0  3  0  0  0  0  0  0
  191.0680  172.8940  136.3360 C   0  0  0  0  0  2  0  0  0  0  0  0
  192.3790  172.9920  135.5590 C   0  0  0  0  0  2  0  0  0  0  0  0
  194.6260  172.2720  136.4760 C   0  0  0  0  0  2  0  0  0  0  0  0
  195.4460  174.7050  136.7180 C   0  0  0  0  0  2  0  0  0  0  0  0
  193.5810  173.3650  136.4300 C   0  0  1  0  0  3  0  0  0  0  0  0
  194.2040  174.5950  135.9740 N   0  0  0  0  0  2  0  0  0  0  0  0
  196.2140  173.0630  136.8400 S   0  0  0  0  0  0  0  0  0  0  0  0
  180.6030  179.0490  136.6980 C   0  0  2  0  0  0  0  0  0  0  0  0
  179.3500  178.1570  136.5520 C   0  0  0  0  0  3  0  0  0  0  0  0
  179.4240  177.0270  137.3700 O   0  0  0  0  0  1  0  0  0  0  0  0
  179.1200  177.7680  135.2320 O   0  0  0  0  0  1  0  0  0  0  0  0
  181.4500  178.7990  135.4290 C   0  0  0  0  0  2  0  0  0  0  0  0
  181.4970  179.9200  134.5940 O   0  0  0  0  0  1  0  0  0  0  0  0
  180.1290  180.3900  136.7280 O   0  0  0  0  0  0  0  0  0  0  0  0
  182.1760  182.4750  138.3220 O   0  0  0  0  0  0  0  0  0  0  0  0
  180.0510  180.8730  138.0520 C   0  0  2  0  0  3  0  0  0  0  0  0
  179.5350  182.2080  138.1280 C   0  0  2  0  0  0  0  0  0  0  0  0
  181.0450  182.0340  138.2150 C   0  0  0  0  0  0  0  0  0  0  0  0
  178.9310  182.6230  139.4540 C   0  0  0  0  0  1  0  0  0  0  0  0
  179.0910  182.9380  136.8650 C   0  0  0  0  0  2  0  0  0  0  0  0
  180.1240  183.7550  136.4050 O   0  0  0  0  0  1  0  0  0  0  0  0
  1 28  1  0  0  0  0
  1 17  1  0  0  0  0
  2 23  1  0  0  0  0
  2 21  1  0  0  0  0
  4 26  1  0  0  0  0
  6  7  1  0  0  0  0
  8 15  1  0  0  0  0
  8  9  1  6  0  0  0
  9 13  1  0  0  0  0
 11 12  1  0  0  0  0
 12  5  1  0  0  0  0
 13  7  1  0  0  0  0
 14 34  1  0  0  0  0
 15  6  1  1  0  0  0
 16 33  1  0  0  0  0
 17 20  1  6  0  0  0
 17 30  1  0  0  0  0
 18 16  1  0  0  0  0
 19 22  1  1  0  0  0
 19 30  1  0  0  0  0
 22  8  1  0  0  0  0
 24  3  1  1  0  0  0
 24 29  1  0  0  0  0
 24 23  1  0  0  0  0
 25 14  2  0  0  0  0
 25 28  1  0  0  0  0
 26 42  1  6  0  0  0
 26 11  1  0  0  0  0
 27  4  1  6  0  0  0
 27 31  1  0  0  0  0
 27 21  1  0  0  0  0
 27  5  1  0  0  0  0
 28 18  2  0  0  0  0
 29 10  1  1  0  0  0
 29 15  1  0  0  0  0
 30 10  1  6  0  0  0
 32 20  1  0  0  0  0
 32 19  1  0  0  0  0
 32 35  1  0  0  0  0
 33 31  1  0  0  0  0
 34 16  2  0  0  0  0
 36 35  1  0  0  0  0
 37 41  1  0  0  0  0
 38 41  1  0  0  0  0
 39 36  1  6  0  0  0
 39 37  1  0  0  0  0
 40 39  1  0  0  0  0
 40 38  1  0  0  0  0
 42 46  1  6  0  0  0
 42 48  1  0  0  0  0
 43 42  1  0  0  0  0
 43 44  1  0  0  0  0
 45 43  1  0  0  0  0
 47 46  1  0  0  0  0
 50 48  1  6  0  0  0
 50 51  1  0  0  0  0
 50 52  1  0  0  0  0
 51 52  1  0  0  0  0
 51 53  1  1  0  0  0
 52 49  2  0  0  0  0
 54 51  1  0  0  0  0
 55 54  1  0  0  0  0
M  END
>  <MODEL>
1

>  <REMARK>
 VINA RESULT:      -4.4      0.000      0.000
  Name = 
  9 active torsions:
  status: ('A' for Active; 'I' for Inactive)
    1  A    between atoms: C_1  and  C_53
    2  A    between atoms: C_6  and  C_53
    3  A    between atoms: C_11  and  C_29
    4  A    between atoms: C_12  and  O_14
    5  A    between atoms: C_13  and  C_48
    6  A    between atoms: C_13  and  N_52
    7  A    between atoms: O_14  and  C_53
    8  A    between atoms: C_32  and  C_48
    9  A    between atoms: C_42  and  C_53
                            x       y       z     vdW  Elec       q    Type
                         _______ _______ _______ _____ _____    ______ ____

>  <TORSDO>
F 9

$$$$
=
 OpenBabel10262420193D

 55 62  0  0  1  0  0  0  0  0999 V2000
  188.0040  176.6230  136.2140 O   0  0  0  0  0  0  0  0  0  0  0  0
  183.6000  178.2160  139.7160 O   0  0  0  0  0  0  0  0  0  0  0  0
  185.9660  180.0960  140.3560 C   0  0  0  0  0  1  0  0  0  0  0  0
  181.8890  177.0980  137.7740 C   0  0  0  0  0  2  0  0  0  0  0  0
  181.1850  175.3670  139.4620 C   0  0  0  0  0  2  0  0  0  0  0  0
  187.0650  176.8770  142.2290 S   0  0  0  0  0  0  0  0  0  0  0  0
  188.2400  176.9550  143.6420 C   0  0  0  0  0  2  0  0  0  0  0  0
  189.4490  177.4270  140.9650 C   0  0  1  0  0  3  0  0  0  0  0  0
  190.2380  177.6390  142.2610 C   0  0  0  0  0  2  0  0  0  0  0  0
  187.3010  176.8880  138.9000 O   0  0  0  0  0  0  0  0  0  0  0  0
  179.5590  176.6710  138.2640 O   0  0  0  0  0  0  0  0  0  0  0  0
  179.8740  176.1530  139.5320 C   0  0  0  0  0  2  0  0  0  0  0  0
  189.3560  177.9840  143.4620 C   0  0  0  0  0  2  0  0  0  0  0  0
  184.7220  177.1270  134.5940 C   0  0  0  0  0  3  0  0  0  0  0  0
  187.9980  177.9340  141.0580 C   0  0  1  0  0  3  0  0  0  0  0  0
  184.4470  175.5470  136.4110 C   0  0  0  0  0  0  0  0  0  0  0  0
  188.7010  175.8390  137.1840 C   0  0  1  0  0  3  0  0  0  0  0  0
  185.8170  175.6330  136.6860 C   0  0  0  0  0  3  0  0  0  0  0  0
  189.7190  177.5080  138.5270 C   0  0  2  0  0  3  0  0  0  0  0  0
  190.1890  175.9300  136.8650 C   0  0  0  0  0  2  0  0  0  0  0  0
  182.7190  177.2110  140.1470 C   0  0  0  0  0  2  0  0  0  0  0  0
  190.1740  178.0230  139.8400 N   0  0  0  0  0  2  0  0  0  0  0  0
  184.8420  177.8610  140.2450 C   0  0  0  0  0  2  0  0  0  0  0  0
  185.9360  178.7460  139.6620 C   0  0  2  0  0  3  0  0  0  0  0  0
  186.0860  177.2280  134.8880 C   0  0  0  0  0  3  0  0  0  0  0  0
  180.4900  177.6950  138.0050 C   0  0  2  0  0  3  0  0  0  0  0  0
  182.3310  176.2720  138.9970 C   0  0  2  0  0  0  0  0  0  0  0  0
  186.6410  176.4840  135.9330 C   0  0  0  0  0  0  0  0  0  0  0  0
  187.3160  178.0730  139.6710 C   0  0  2  0  0  3  0  0  0  0  0  0
  188.6120  176.4510  138.5660 C   0  0  1  0  0  3  0  0  0  0  0  0
  183.5440  175.3840  138.6940 C   0  0  0  0  0  2  0  0  0  0  0  0
  190.8090  176.9590  137.7050 N   0  0  0  0  0  0  0  0  0  0  0  0
  183.5580  174.7490  137.3050 C   0  0  0  0  0  2  0  0  0  0  0  0
  183.9030  176.2910  135.3590 C   0  0  0  0  0  3  0  0  0  0  0  0
  191.7940  176.2560  138.5250 C   0  0  0  0  0  2  0  0  0  0  0  0
  193.2150  176.6310  138.1060 C   0  0  0  0  0  2  0  0  0  0  0  0
  194.1310  176.0690  135.8150 C   0  0  0  0  0  2  0  0  0  0  0  0
  195.7970  174.3450  136.7670 C   0  0  0  0  0  2  0  0  0  0  0  0
  193.8920  175.5780  137.2260 C   0  0  1  0  0  3  0  0  0  0  0  0
  195.1550  175.1450  137.7960 N   0  0  0  0  0  2  0  0  0  0  0  0
  195.5300  175.1290  135.1510 S   0  0  0  0  0  0  0  0  0  0  0  0
  180.0000  178.6370  136.8630 C   0  0  2  0  0  0  0  0  0  0  0  0
  178.9310  177.9520  135.9820 C   0  0  0  0  0  3  0  0  0  0  0  0
  178.9310  176.5670  136.1560 O   0  0  0  0  0  1  0  0  0  0  0  0
  179.0780  178.2570  134.6290 O   0  0  0  0  0  1  0  0  0  0  0  0
  181.1520  179.0220  135.9070 C   0  0  0  0  0  2  0  0  0  0  0  0
  181.0890  180.3640  135.5150 O   0  0  0  0  0  1  0  0  0  0  0  0
  179.3830  179.8010  137.3980 O   0  0  0  0  0  0  0  0  0  0  0  0
  182.1040  181.1000  138.8050 O   0  0  0  0  0  0  0  0  0  0  0  0
  179.6870  179.9560  138.7670 C   0  0  2  0  0  3  0  0  0  0  0  0
  179.4850  181.2960  139.2350 C   0  0  2  0  0  0  0  0  0  0  0  0
  180.9100  180.8760  138.9020 C   0  0  0  0  0  0  0  0  0  0  0  0
  179.2740  181.4650  140.7260 C   0  0  0  0  0  1  0  0  0  0  0  0
  178.9440  182.3680  138.2960 C   0  0  0  0  0  2  0  0  0  0  0  0
  180.0010  183.1120  137.7700 O   0  0  0  0  0  1  0  0  0  0  0  0
  1 17  1  0  0  0  0
  2 21  1  0  0  0  0
  2 23  1  0  0  0  0
  4 26  1  0  0  0  0
  5 12  1  0  0  0  0
  6  7  1  0  0  0  0
  8 15  1  0  0  0  0
  8  9  1  1  0  0  0
  9 13  1  0  0  0  0
 11 12  1  0  0  0  0
 13  7  1  0  0  0  0
 14 25  2  0  0  0  0
 14 34  1  0  0  0  0
 15  6  1  1  0  0  0
 16 18  1  0  0  0  0
 16 33  1  0  0  0  0
 17 20  1  6  0  0  0
 17 30  1  0  0  0  0
 19 30  1  0  0  0  0
 19 22  1  1  0  0  0
 20 32  1  0  0  0  0
 22  8  1  0  0  0  0
 24 29  1  0  0  0  0
 24 23  1  0  0  0  0
 24  3  1  1  0  0  0
 25 28  1  0  0  0  0
 26 42  1  6  0  0  0
 26 11  1  0  0  0  0
 27  4  1  6  0  0  0
 27  5  1  0  0  0  0
 27 21  1  0  0  0  0
 28  1  1  0  0  0  0
 28 18  2  0  0  0  0
 29 10  1  1  0  0  0
 29 15  1  0  0  0  0
 30 10  1  6  0  0  0
 31 27  1  0  0  0  0
 32 35  1  0  0  0  0
 32 19  1  0  0  0  0
 33 31  1  0  0  0  0
 34 16  2  0  0  0  0
 36 35  1  0  0  0  0
 37 39  1  0  0  0  0
 38 40  1  0  0  0  0
 39 40  1  0  0  0  0
 39 36  1  1  0  0  0
 41 37  1  0  0  0  0
 41 38  1  0  0  0  0
 42 46  1  6  0  0  0
 42 48  1  0  0  0  0
 43 44  1  0  0  0  0
 43 42  1  0  0  0  0
 45 43  1  0  0  0  0
 47 46  1  0  0  0  0
 49 52  2  0  0  0  0
 50 48  1  6  0  0  0
 50 52  1  0  0  0  0
 50 51  1  0  0  0  0
 51 53  1  1  0  0  0
 52 51  1  0  0  0  0
 54 51  1  0  0  0  0
 55 54  1  0  0  0  0
M  END
>  <MODEL>
2

>  <REMARK>
 VINA RESULT:      -2.4      1.869      2.643
  Name = 
  9 active torsions:
  status: ('A' for Active; 'I' for Inactive)
    1  A    between atoms: C_1  and  C_53
    2  A    between atoms: C_6  and  C_53
    3  A    between atoms: C_11  and  C_29
    4  A    between atoms: C_12  and  O_14
    5  A    between atoms: C_13  and  C_48
    6  A    between atoms: C_13  and  N_52
    7  A    between atoms: O_14  and  C_53
    8  A    between atoms: C_32  and  C_48
    9  A    between atoms: C_42  and  C_53
                            x       y       z     vdW  Elec       q    Type
                         _______ _______ _______ _____ _____    ______ ____

>  <TORSDO>
F 9

$$$$
