=
 OpenBabel10262419523D

 25 30  0  0  1  0  0  0  0  0999 V2000
  189.0050  177.6460  143.0700 N   0  0  0  0  0  0  0  0  0  0  0  0
  189.5760  177.5840  141.7510 C   0  0  0  0  0  0  0  0  0  0  0  0
  191.1480  177.3200  144.1090 C   0  0  0  0  0  3  0  0  0  0  0  0
  187.6500  177.8300  143.4660 C   0  0  0  0  0  0  0  0  0  0  0  0
  188.7440  176.5070  138.4960 C   0  0  0  0  0  2  0  0  0  0  0  0
  188.2540  177.0330  137.2280 N   0  0  2  0  0  0  0  0  0  0  0  0
  185.1020  178.1690  144.5370 C   0  0  0  0  0  3  0  0  0  0  0  0
  191.7690  177.2550  142.7660 C   0  0  0  0  0  3  0  0  0  0  0  0
  187.4690  177.8300  144.8420 C   0  0  0  0  0  0  0  0  0  0  0  0
  186.1980  177.9990  145.3940 C   0  0  0  0  0  3  0  0  0  0  0  0
  191.6630  177.3190  140.3150 C   0  0  0  0  0  0  0  0  0  0  0  0
  193.0350  177.1390  140.1860 O   0  0  0  0  0  1  0  0  0  0  0  0
  189.0580  178.8920  138.4980 C   0  0  0  0  0  2  0  0  0  0  0  0
  188.8340  177.7060  140.6480 C   0  0  0  0  0  3  0  0  0  0  0  0
  185.2850  178.1690  143.1440 C   0  0  0  0  0  3  0  0  0  0  0  0
  189.8300  177.5080  144.2250 C   0  0  0  0  0  0  0  0  0  0  0  0
  188.9730  177.6010  145.8000 S   0  0  0  0  0  0  0  0  0  0  0  0
  189.4140  177.6360  139.2540 C   0  0  1  0  0  0  0  0  0  0  0  0
  186.5660  177.9990  142.6000 C   0  0  0  0  0  3  0  0  0  0  0  0
  190.9120  177.4410  139.2190 C   0  0  0  0  0  3  0  0  0  0  0  0
  191.0370  177.3780  141.6470 C   0  0  0  0  0  0  0  0  0  0  0  0
  188.0540  178.4570  137.4570 C   0  0  0  0  0  2  0  0  0  0  0  0
  186.9450  176.4430  136.9880 C   0  0  0  0  0  3  0  0  0  0  0  0
  187.0460  174.9300  137.0640 C   0  0  0  0  0  2  0  0  0  0  0  0
  186.9830  175.6150  135.7160 C   0  0  0  0  0  2  0  0  0  0  0  0
  1  4  1  0  0  0  0
  1 16  1  0  0  0  0
  2  1  1  0  0  0  0
  3 16  2  0  0  0  0
  4  9  1  0  0  0  0
  6 23  1  1  0  0  0
  6 22  1  0  0  0  0
  6  5  1  0  0  0  0
  7 10  1  0  0  0  0
  8  3  1  0  0  0  0
  9 10  2  0  0  0  0
  9 17  1  0  0  0  0
 11 21  1  0  0  0  0
 12 11  1  0  0  0  0
 13 18  1  0  0  0  0
 14  2  2  0  0  0  0
 15  7  2  0  0  0  0
 16 17  1  0  0  0  0
 18  5  1  6  0  0  0
 18 14  1  0  0  0  0
 19 15  1  0  0  0  0
 19  4  2  0  0  0  0
 20 18  1  0  0  0  0
 20 11  2  0  0  0  0
 21  2  1  0  0  0  0
 21  8  2  0  0  0  0
 22 13  1  0  0  0  0
 23 24  1  0  0  0  0
 25 23  1  0  0  0  0
 25 24  1  0  0  0  0
M  END
>  <MODEL>
1

>  <REMARK>
 VINA RESULT:      -8.7      0.000      0.000
  Name = 
  1 active torsions:
  status: ('A' for Active; 'I' for Inactive)
    1  A    between atoms: C_2  and  N_7
                            x       y       z     vdW  Elec       q    Type
                         _______ _______ _______ _____ _____    ______ ____

>  <TORSDO>
F 1

$$$$
=
 OpenBabel10262419523D

 25 30  0  0  1  0  0  0  0  0999 V2000
  187.8600  177.8680  143.1520 N   0  0  0  0  0  0  0  0  0  0  0  0
  188.7350  177.7280  142.0190 C   0  0  0  0  0  0  0  0  0  0  0  0
  189.6570  177.4850  144.7000 C   0  0  0  0  0  3  0  0  0  0  0  0
  186.4610  178.1300  143.1920 C   0  0  0  0  0  0  0  0  0  0  0  0
  188.6770  176.5640  138.6880 C   0  0  0  0  0  2  0  0  0  0  0  0
  188.5450  177.0620  137.3250 N   0  0  2  0  0  0  0  0  0  0  0  0
  183.7500  178.6270  143.5860 C   0  0  0  0  0  3  0  0  0  0  0  0
  190.5870  177.3380  143.5560 C   0  0  0  0  0  3  0  0  0  0  0  0
  185.9450  178.1910  144.4790 C   0  0  0  0  0  0  0  0  0  0  0  0
  184.5890  178.4400  144.6930 C   0  0  0  0  0  3  0  0  0  0  0  0
  191.0950  177.3110  141.1560 C   0  0  0  0  0  0  0  0  0  0  0  0
  192.4440  177.0630  141.3770 O   0  0  0  0  0  1  0  0  0  0  0  0
  189.1090  178.9300  138.7060 C   0  0  0  0  0  2  0  0  0  0  0  0
  188.2970  177.8410  140.7620 C   0  0  0  0  0  3  0  0  0  0  0  0
  184.2710  178.5640  142.2830 C   0  0  0  0  0  3  0  0  0  0  0  0
  188.3640  177.7370  144.4790 C   0  0  0  0  0  0  0  0  0  0  0  0
  187.1500  177.9310  145.7880 S   0  0  0  0  0  0  0  0  0  0  0  0
  189.1980  177.6890  139.5600 C   0  0  1  0  0  0  0  0  0  0  0  0
  185.6350  178.3140  142.0800 C   0  0  0  0  0  3  0  0  0  0  0  0
  190.6460  177.4250  139.9040 C   0  0  0  0  0  3  0  0  0  0  0  0
  190.1630  177.4510  142.2870 C   0  0  0  0  0  0  0  0  0  0  0  0
  188.3720  178.5010  137.4590 C   0  0  0  0  0  2  0  0  0  0  0  0
  187.3050  176.5240  136.7830 C   0  0  0  0  0  3  0  0  0  0  0  0
  187.3040  175.0110  136.9190 C   0  0  0  0  0  2  0  0  0  0  0  0
  187.6120  175.6470  135.5810 C   0  0  0  0  0  2  0  0  0  0  0  0
  1  4  1  0  0  0  0
  1 16  1  0  0  0  0
  2 21  1  0  0  0  0
  2  1  1  0  0  0  0
  4  9  1  0  0  0  0
  6 23  1  1  0  0  0
  6 22  1  0  0  0  0
  6  5  1  0  0  0  0
  7 10  1  0  0  0  0
  8  3  1  0  0  0  0
  9 10  2  0  0  0  0
  9 17  1  0  0  0  0
 11 12  1  0  0  0  0
 11 21  1  0  0  0  0
 13 18  1  0  0  0  0
 14  2  2  0  0  0  0
 15  7  2  0  0  0  0
 16  3  2  0  0  0  0
 16 17  1  0  0  0  0
 18  5  1  6  0  0  0
 18 20  1  0  0  0  0
 18 14  1  0  0  0  0
 19 15  1  0  0  0  0
 19  4  2  0  0  0  0
 20 11  2  0  0  0  0
 21  8  2  0  0  0  0
 22 13  1  0  0  0  0
 23 24  1  0  0  0  0
 25 23  1  0  0  0  0
 25 24  1  0  0  0  0
M  END
>  <MODEL>
2

>  <REMARK>
 VINA RESULT:      -8.5      0.882      1.131
  Name = 
  1 active torsions:
  status: ('A' for Active; 'I' for Inactive)
    1  A    between atoms: C_2  and  N_7
                            x       y       z     vdW  Elec       q    Type
                         _______ _______ _______ _____ _____    ______ ____

>  <TORSDO>
F 1

$$$$
=
 OpenBabel10262419523D

 25 30  0  0  1  0  0  0  0  0999 V2000
  185.6950  178.4610  144.2930 N   0  0  0  0  0  0  0  0  0  0  0  0
  186.8650  178.2110  145.0920 C   0  0  0  0  0  0  0  0  0  0  0  0
  184.2820  178.5610  146.2350 C   0  0  0  0  0  3  0  0  0  0  0  0
  185.5670  178.5750  142.8800 C   0  0  0  0  0  0  0  0  0  0  0  0
  189.9240  176.4590  144.9270 C   0  0  0  0  0  2  0  0  0  0  0  0
  191.3340  176.6830  144.6340 N   0  0  2  0  0  0  0  0  0  0  0  0
  185.0090  178.8420  140.1650 C   0  0  0  0  0  3  0  0  0  0  0  0
  185.4660  178.3080  147.0870 C   0  0  0  0  0  3  0  0  0  0  0  0
  184.2670  178.8150  142.4580 C   0  0  0  0  0  0  0  0  0  0  0  0
  183.9710  178.9520  141.1010 C   0  0  0  0  0  3  0  0  0  0  0  0
  187.8640  177.8980  147.4140 C   0  0  0  0  0  0  0  0  0  0  0  0
  187.7320  177.8400  148.7960 O   0  0  0  0  0  1  0  0  0  0  0  0
  190.3560  178.8210  145.0680 C   0  0  0  0  0  2  0  0  0  0  0  0
  188.0740  178.0450  144.5500 C   0  0  0  0  0  3  0  0  0  0  0  0
  186.3250  178.6000  140.5910 C   0  0  0  0  0  3  0  0  0  0  0  0
  184.4190  178.6290  144.9080 C   0  0  0  0  0  0  0  0  0  0  0  0
  183.0540  178.9280  143.7800 S   0  0  0  0  0  0  0  0  0  0  0  0
  189.3130  177.7740  145.3720 C   0  0  1  0  0  0  0  0  0  0  0  0
  186.6110  178.4630  141.9570 C   0  0  0  0  0  3  0  0  0  0  0  0
  189.0680  177.7330  146.8620 C   0  0  0  0  0  3  0  0  0  0  0  0
  186.6900  178.1420  146.5590 C   0  0  0  0  0  0  0  0  0  0  0  0
  191.4340  178.0960  144.2970 C   0  0  0  0  0  2  0  0  0  0  0  0
  191.6540  175.9260  143.4330 C   0  0  0  0  0  3  0  0  0  0  0  0
  191.6770  176.8570  142.2340 C   0  0  0  0  0  2  0  0  0  0  0  0
  190.4770  175.9680  142.4740 C   0  0  0  0  0  2  0  0  0  0  0  0
  1 16  1  0  0  0  0
  1  2  1  0  0  0  0
  2 21  1  0  0  0  0
  3  8  1  0  0  0  0
  4  1  1  0  0  0  0
  5 18  1  0  0  0  0
  6 23  1  6  0  0  0
  6  5  1  0  0  0  0
  7 15  2  0  0  0  0
  7 10  1  0  0  0  0
  9  4  1  0  0  0  0
  9 17  1  0  0  0  0
 10  9  2  0  0  0  0
 11 12  1  0  0  0  0
 13 18  1  0  0  0  0
 14  2  2  0  0  0  0
 15 19  1  0  0  0  0
 16  3  2  0  0  0  0
 17 16  1  0  0  0  0
 18 14  1  6  0  0  0
 18 20  1  0  0  0  0
 19  4  2  0  0  0  0
 20 11  2  0  0  0  0
 21  8  2  0  0  0  0
 21 11  1  0  0  0  0
 22  6  1  0  0  0  0
 22 13  1  0  0  0  0
 24 25  1  0  0  0  0
 24 23  1  0  0  0  0
 25 23  1  0  0  0  0
M  END
>  <MODEL>
3

>  <REMARK>
 VINA RESULT:      -8.0      3.863      6.331
  Name = 
  1 active torsions:
  status: ('A' for Active; 'I' for Inactive)
    1  A    between atoms: C_2  and  N_7
                            x       y       z     vdW  Elec       q    Type
                         _______ _______ _______ _____ _____    ______ ____

>  <TORSDO>
F 1

$$$$
=
 OpenBabel10262419523D

 25 30  0  0  1  0  0  0  0  0999 V2000
  187.3160  177.8950  145.4740 N   0  0  0  0  0  0  0  0  0  0  0  0
  188.6470  177.5950  145.0160 C   0  0  0  0  0  0  0  0  0  0  0  0
  187.9010  177.4220  147.7570 C   0  0  0  0  0  3  0  0  0  0  0  0
  186.1710  178.3020  144.7340 C   0  0  0  0  0  0  0  0  0  0  0  0
  190.2940  176.2410  142.2040 C   0  0  0  0  0  2  0  0  0  0  0  0
  190.9960  176.6650  140.9990 N   0  0  2  0  0  0  0  0  0  0  0  0
  183.7750  179.1010  143.5620 C   0  0  0  0  0  3  0  0  0  0  0  0
  189.2820  177.1110  147.3200 C   0  0  0  0  0  3  0  0  0  0  0  0
  185.0430  178.4960  145.5200 C   0  0  0  0  0  0  0  0  0  0  0  0
  183.8350  178.8970  144.9470 C   0  0  0  0  0  3  0  0  0  0  0  0
  191.0210  176.8830  145.6030 C   0  0  0  0  0  0  0  0  0  0  0  0
  191.9830  176.5100  146.5340 O   0  0  0  0  0  1  0  0  0  0  0  0
  190.9260  178.5460  142.4740 C   0  0  0  0  0  2  0  0  0  0  0  0
  188.9910  177.6750  143.7280 C   0  0  0  0  0  3  0  0  0  0  0  0
  184.9160  178.9060  142.7660 C   0  0  0  0  0  3  0  0  0  0  0  0
  186.9860  177.7940  146.8580 C   0  0  0  0  0  0  0  0  0  0  0  0
  185.2860  178.1930  147.2750 S   0  0  0  0  0  0  0  0  0  0  0  0
  190.3800  177.3580  143.2260 C   0  0  1  0  0  0  0  0  0  0  0  0
  186.1240  178.5020  143.3510 C   0  0  0  0  0  3  0  0  0  0  0  0
  191.3540  176.9660  144.3130 C   0  0  0  0  0  3  0  0  0  0  0  0
  189.6450  177.1890  146.0290 C   0  0  0  0  0  0  0  0  0  0  0  0
  190.9530  178.1210  141.0250 C   0  0  0  0  0  2  0  0  0  0  0  0
  190.2070  176.2270  139.8580 C   0  0  0  0  0  3  0  0  0  0  0  0
  191.1280  175.9020  138.6960 C   0  0  0  0  0  2  0  0  0  0  0  0
  190.3730  177.2120  138.7140 C   0  0  0  0  0  2  0  0  0  0  0  0
  1 16  1  0  0  0  0
  2  1  1  0  0  0  0
  2 21  1  0  0  0  0
  4  1  1  0  0  0  0
  4  9  1  0  0  0  0
  6 23  1  6  0  0  0
  6 22  1  0  0  0  0
  6  5  1  0  0  0  0
  7 10  1  0  0  0  0
  8  3  1  0  0  0  0
  9 17  1  0  0  0  0
 10  9  2  0  0  0  0
 11 21  1  0  0  0  0
 11 12  1  0  0  0  0
 13 18  1  0  0  0  0
 14  2  2  0  0  0  0
 15 19  1  0  0  0  0
 15  7  2  0  0  0  0
 16 17  1  0  0  0  0
 16  3  2  0  0  0  0
 18  5  1  6  0  0  0
 18 14  1  0  0  0  0
 18 20  1  0  0  0  0
 19  4  2  0  0  0  0
 20 11  2  0  0  0  0
 21  8  2  0  0  0  0
 22 13  1  0  0  0  0
 24 25  1  0  0  0  0
 24 23  1  0  0  0  0
 25 23  1  0  0  0  0
M  END
>  <MODEL>
4

>  <REMARK>
 VINA RESULT:      -7.7      2.714      4.051
  Name = 
  1 active torsions:
  status: ('A' for Active; 'I' for Inactive)
    1  A    between atoms: C_2  and  N_7
                            x       y       z     vdW  Elec       q    Type
                         _______ _______ _______ _____ _____    ______ ____

>  <TORSDO>
F 1

$$$$
=
 OpenBabel10262419523D

 25 30  0  0  1  0  0  0  0  0999 V2000
  186.6070  178.2010  142.5130 N   0  0  0  0  0  0  0  0  0  0  0  0
  186.2120  178.3060  141.1340 C   0  0  0  0  0  0  0  0  0  0  0  0
  188.8910  177.7500  141.9160 C   0  0  0  0  0  3  0  0  0  0  0  0
  185.8250  178.3320  143.6950 C   0  0  0  0  0  0  0  0  0  0  0  0
  183.4310  177.6450  139.0640 C   0  0  0  0  0  2  0  0  0  0  0  0
  182.2940  178.3260  138.4560 N   0  0  2  0  0  0  0  0  0  0  0  0
  184.5600  178.5300  146.1680 C   0  0  0  0  0  3  0  0  0  0  0  0
  188.5180  177.8550  140.4860 C   0  0  0  0  0  3  0  0  0  0  0  0
  186.5530  178.1590  144.8640 C   0  0  0  0  0  0  0  0  0  0  0  0
  185.9330  178.2560  146.1110 C   0  0  0  0  0  3  0  0  0  0  0  0
  186.8960  178.2260  138.6820 C   0  0  0  0  0  0  0  0  0  0  0  0
  187.8600  178.0650  137.6940 O   0  0  0  0  0  1  0  0  0  0  0  0
  183.8630  180.0110  139.1000 C   0  0  0  0  0  2  0  0  0  0  0  0
  184.9520  178.5650  140.7720 C   0  0  0  0  0  3  0  0  0  0  0  0
  183.8230  178.7060  144.9850 C   0  0  0  0  0  3  0  0  0  0  0  0
  187.9610  177.9190  142.8600 C   0  0  0  0  0  0  0  0  0  0  0  0
  188.3000  177.8130  144.6200 S   0  0  0  0  0  0  0  0  0  0  0  0
  184.5160  178.6710  139.3300 C   0  0  1  0  0  0  0  0  0  0  0  0
  184.4550  178.6070  143.7380 C   0  0  0  0  0  3  0  0  0  0  0  0
  185.6350  178.4840  138.3320 C   0  0  0  0  0  3  0  0  0  0  0  0
  187.2570  178.1170  140.1050 C   0  0  0  0  0  0  0  0  0  0  0  0
  182.3970  179.7100  138.8990 C   0  0  0  0  0  2  0  0  0  0  0  0
  181.0860  177.7690  139.0470 C   0  0  0  0  0  3  0  0  0  0  0  0
  181.2010  176.2560  139.1130 C   0  0  0  0  0  2  0  0  0  0  0  0
  180.3720  176.9020  138.0260 C   0  0  0  0  0  2  0  0  0  0  0  0
  1 16  1  0  0  0  0
  1  4  1  0  0  0  0
  2  1  1  0  0  0  0
  3 16  2  0  0  0  0
  4 19  2  0  0  0  0
  4  9  1  0  0  0  0
  5 18  1  0  0  0  0
  6 22  1  0  0  0  0
  6 23  1  1  0  0  0
  6  5  1  0  0  0  0
  8  3  1  0  0  0  0
  9 10  2  0  0  0  0
 10  7  1  0  0  0  0
 11 21  1  0  0  0  0
 12 11  1  0  0  0  0
 13 18  1  0  0  0  0
 14  2  2  0  0  0  0
 15  7  2  0  0  0  0
 16 17  1  0  0  0  0
 17  9  1  0  0  0  0
 18 20  1  6  0  0  0
 18 14  1  0  0  0  0
 19 15  1  0  0  0  0
 20 11  2  0  0  0  0
 21  8  2  0  0  0  0
 21  2  1  0  0  0  0
 22 13  1  0  0  0  0
 23 24  1  0  0  0  0
 25 23  1  0  0  0  0
 25 24  1  0  0  0  0
M  END
>  <MODEL>
5

>  <REMARK>
 VINA RESULT:      -7.5      3.524      4.401
  Name = 
  1 active torsions:
  status: ('A' for Active; 'I' for Inactive)
    1  A    between atoms: C_2  and  N_7
                            x       y       z     vdW  Elec       q    Type
                         _______ _______ _______ _____ _____    ______ ____

>  <TORSDO>
F 1

$$$$
=
 OpenBabel10262419523D

 25 30  0  0  1  0  0  0  0  0999 V2000
  186.3620  178.2750  141.3190 N   0  0  0  0  0  0  0  0  0  0  0  0
  187.7370  177.8780  141.1740 C   0  0  0  0  0  0  0  0  0  0  0  0
  186.1220  178.6280  138.9540 C   0  0  0  0  0  3  0  0  0  0  0  0
  185.5670  178.3810  142.4950 C   0  0  0  0  0  0  0  0  0  0  0  0
  190.7970  178.0470  142.9240 C   0  0  0  0  0  2  0  0  0  0  0  0
  191.6430  177.2370  143.7910 N   0  0  2  0  0  0  0  0  0  0  0  0
  183.7760  178.6840  144.6060 C   0  0  0  0  0  3  0  0  0  0  0  0
  187.5340  178.2210  138.7680 C   0  0  0  0  0  3  0  0  0  0  0  0
  184.2690  178.8060  142.2490 C   0  0  0  0  0  0  0  0  0  0  0  0
  183.3590  178.9620  143.2970 C   0  0  0  0  0  3  0  0  0  0  0  0
  189.7060  177.4550  139.6150 C   0  0  0  0  0  0  0  0  0  0  0  0
  190.2640  177.4210  138.3420 O   0  0  0  0  0  1  0  0  0  0  0  0
  190.1290  175.7480  142.6920 C   0  0  0  0  0  2  0  0  0  0  0  0
  188.4920  177.5300  142.2190 C   0  0  0  0  0  3  0  0  0  0  0  0
  185.0900  178.2530  144.8550 C   0  0  0  0  0  3  0  0  0  0  0  0
  185.5900  178.6440  140.1790 C   0  0  0  0  0  0  0  0  0  0  0  0
  183.8920  179.1210  140.5200 S   0  0  0  0  0  0  0  0  0  0  0  0
  189.9400  177.1170  142.0880 C   0  0  1  0  0  0  0  0  0  0  0  0
  185.9950  178.1000  143.7950 C   0  0  0  0  0  3  0  0  0  0  0  0
  190.4520  177.1090  140.6660 C   0  0  0  0  0  3  0  0  0  0  0  0
  188.3060  177.8650  139.8080 C   0  0  0  0  0  0  0  0  0  0  0  0
  190.9290  175.9780  143.9520 C   0  0  0  0  0  2  0  0  0  0  0  0
  191.6810  177.8860  145.0930 C   0  0  0  0  0  3  0  0  0  0  0  0
  191.3270  176.8800  146.1740 C   0  0  0  0  0  2  0  0  0  0  0  0
  190.2910  177.8780  145.7070 C   0  0  0  0  0  2  0  0  0  0  0  0
  1  4  1  0  0  0  0
  2  1  1  0  0  0  0
  2 14  2  0  0  0  0
  3 16  2  0  0  0  0
  4 19  1  0  0  0  0
  5  6  1  0  0  0  0
  6 22  1  0  0  0  0
  6 23  1  1  0  0  0
  7 15  1  0  0  0  0
  8  3  1  0  0  0  0
  8 21  2  0  0  0  0
  9  4  2  0  0  0  0
  9 10  1  0  0  0  0
 10  7  2  0  0  0  0
 11 21  1  0  0  0  0
 11 20  2  0  0  0  0
 12 11  1  0  0  0  0
 13 22  1  0  0  0  0
 16 17  1  0  0  0  0
 16  1  1  0  0  0  0
 17  9  1  0  0  0  0
 18 20  1  6  0  0  0
 18 14  1  0  0  0  0
 18 13  1  0  0  0  0
 18  5  1  0  0  0  0
 19 15  2  0  0  0  0
 21  2  1  0  0  0  0
 23 25  1  0  0  0  0
 23 24  1  0  0  0  0
 25 24  1  0  0  0  0
M  END
>  <MODEL>
6

>  <REMARK>
 VINA RESULT:      -7.1      2.552      5.497
  Name = 
  1 active torsions:
  status: ('A' for Active; 'I' for Inactive)
    1  A    between atoms: C_2  and  N_7
                            x       y       z     vdW  Elec       q    Type
                         _______ _______ _______ _____ _____    ______ ____

>  <TORSDO>
F 1

$$$$
=
 OpenBabel10262419523D

 25 30  0  0  1  0  0  0  0  0999 V2000
  185.8530  178.0160  144.2140 N   0  0  0  0  0  0  0  0  0  0  0  0
  184.7460  178.2450  143.3240 C   0  0  0  0  0  0  0  0  0  0  0  0
  184.5910  178.7590  146.1190 C   0  0  0  0  0  3  0  0  0  0  0  0
  187.1610  177.5320  143.9290 C   0  0  0  0  0  0  0  0  0  0  0  0
  184.1140  179.2300  139.9950 C   0  0  0  0  0  2  0  0  0  0  0  0
  183.8160  178.6560  138.6890 N   0  0  2  0  0  0  0  0  0  0  0  0
  189.7790  176.6160  143.6810 C   0  0  0  0  0  3  0  0  0  0  0  0
  183.4300  179.0030  145.2330 C   0  0  0  0  0  3  0  0  0  0  0  0
  187.9760  177.4450  145.0490 C   0  0  0  0  0  0  0  0  0  0  0  0
  189.2910  176.9880  144.9420 C   0  0  0  0  0  3  0  0  0  0  0  0
  182.3310  179.0030  143.0380 C   0  0  0  0  0  0  0  0  0  0  0  0
  181.1360  179.4780  143.5640 O   0  0  0  0  0  1  0  0  0  0  0  0
  183.3580  176.9700  140.3230 C   0  0  0  0  0  2  0  0  0  0  0  0
  184.8240  178.0050  142.0130 C   0  0  0  0  0  3  0  0  0  0  0  0
  188.9550  176.7030  142.5470 C   0  0  0  0  0  3  0  0  0  0  0  0
  185.7320  178.2890  145.6080 C   0  0  0  0  0  0  0  0  0  0  0  0
  187.2010  177.9590  146.5880 S   0  0  0  0  0  0  0  0  0  0  0  0
  183.6750  178.2460  141.0620 C   0  0  1  0  0  0  0  0  0  0  0  0
  187.6360  177.1640  142.6670 C   0  0  0  0  0  3  0  0  0  0  0  0
  182.4200  178.7600  141.7290 C   0  0  0  0  0  3  0  0  0  0  0  0
  183.4910  178.7640  143.9120 C   0  0  0  0  0  0  0  0  0  0  0  0
  183.8050  177.2150  138.9000 C   0  0  0  0  0  2  0  0  0  0  0  0
  184.9380  178.9580  137.8140 C   0  0  0  0  0  3  0  0  0  0  0  0
  185.4210  177.6840  137.1450 C   0  0  0  0  0  2  0  0  0  0  0  0
  186.1850  178.2530  138.3200 C   0  0  0  0  0  2  0  0  0  0  0  0
  1 16  1  0  0  0  0
  2 21  1  0  0  0  0
  2  1  1  0  0  0  0
  4  1  1  0  0  0  0
  4  9  1  0  0  0  0
  6 23  1  6  0  0  0
  6 22  1  0  0  0  0
  6  5  1  0  0  0  0
  7 10  1  0  0  0  0
  8  3  1  0  0  0  0
  9 17  1  0  0  0  0
 10  9  2  0  0  0  0
 11 12  1  0  0  0  0
 11 21  1  0  0  0  0
 13 18  1  0  0  0  0
 14  2  2  0  0  0  0
 15 19  1  0  0  0  0
 15  7  2  0  0  0  0
 16  3  2  0  0  0  0
 16 17  1  0  0  0  0
 18  5  1  6  0  0  0
 18 20  1  0  0  0  0
 18 14  1  0  0  0  0
 19  4  2  0  0  0  0
 20 11  2  0  0  0  0
 21  8  2  0  0  0  0
 22 13  1  0  0  0  0
 23 25  1  0  0  0  0
 24 23  1  0  0  0  0
 24 25  1  0  0  0  0
M  END
>  <MODEL>
7

>  <REMARK>
 VINA RESULT:      -6.9      3.518      5.832
  Name = 
  1 active torsions:
  status: ('A' for Active; 'I' for Inactive)
    1  A    between atoms: C_2  and  N_7
                            x       y       z     vdW  Elec       q    Type
                         _______ _______ _______ _____ _____    ______ ____

>  <TORSDO>
F 1

$$$$
=
 OpenBabel10262419523D

 25 30  0  0  1  0  0  0  0  0999 V2000
  187.5030  177.8800  142.7530 N   0  0  0  0  0  0  0  0  0  0  0  0
  186.0850  178.1180  142.7960 C   0  0  0  0  0  0  0  0  0  0  0  0
  187.6950  178.0660  145.1420 C   0  0  0  0  0  3  0  0  0  0  0  0
  188.3510  177.6440  141.6350 C   0  0  0  0  0  0  0  0  0  0  0  0
  183.5390  179.6190  140.8680 C   0  0  0  0  0  2  0  0  0  0  0  0
  182.4920  179.2670  139.9160 N   0  0  2  0  0  0  0  0  0  0  0  0
  190.2480  177.1650  139.6540 C   0  0  0  0  0  3  0  0  0  0  0  0
  186.2360  178.3100  145.2220 C   0  0  0  0  0  3  0  0  0  0  0  0
  189.6830  177.4610  141.9780 C   0  0  0  0  0  0  0  0  0  0  0  0
  190.6460  177.2190  140.9970 C   0  0  0  0  0  3  0  0  0  0  0  0
  184.0160  178.5730  144.2100 C   0  0  0  0  0  0  0  0  0  0  0  0
  183.4050  178.7700  145.4430 O   0  0  0  0  0  1  0  0  0  0  0  0
  183.1280  177.2550  141.0420 C   0  0  0  0  0  2  0  0  0  0  0  0
  185.3340  178.1440  141.6910 C   0  0  0  0  0  3  0  0  0  0  0  0
  188.9000  177.3500  139.3060 C   0  0  0  0  0  3  0  0  0  0  0  0
  188.2720  177.8640  143.9540 C   0  0  0  0  0  0  0  0  0  0  0  0
  190.0290  177.5610  143.7390 S   0  0  0  0  0  0  0  0  0  0  0  0
  183.8450  178.4000  141.7150 C   0  0  1  0  0  0  0  0  0  0  0  0
  187.9410  177.5930  140.2990 C   0  0  0  0  0  3  0  0  0  0  0  0
  183.2750  178.5980  143.1000 C   0  0  0  0  0  3  0  0  0  0  0  0
  185.4660  178.3360  144.1210 C   0  0  0  0  0  0  0  0  0  0  0  0
  182.6020  177.8250  139.7450 C   0  0  0  0  0  2  0  0  0  0  0  0
  182.8360  179.8830  138.6430 C   0  0  0  0  0  3  0  0  0  0  0  0
  182.2920  181.3000  138.5990 C   0  0  0  0  0  2  0  0  0  0  0  0
  181.5680  180.1920  137.8670 C   0  0  0  0  0  2  0  0  0  0  0  0
  1  2  1  0  0  0  0
  1 16  1  0  0  0  0
  2 21  1  0  0  0  0
  3  8  1  0  0  0  0
  4  9  1  0  0  0  0
  4  1  1  0  0  0  0
  6 23  1  6  0  0  0
  6  5  1  0  0  0  0
  7 10  1  0  0  0  0
  9 17  1  0  0  0  0
 10  9  2  0  0  0  0
 11 12  1  0  0  0  0
 13 18  1  0  0  0  0
 14 18  1  0  0  0  0
 14  2  2  0  0  0  0
 15  7  2  0  0  0  0
 15 19  1  0  0  0  0
 16  3  2  0  0  0  0
 17 16  1  0  0  0  0
 18  5  1  6  0  0  0
 18 20  1  0  0  0  0
 19  4  2  0  0  0  0
 20 11  2  0  0  0  0
 21 11  1  0  0  0  0
 21  8  2  0  0  0  0
 22  6  1  0  0  0  0
 22 13  1  0  0  0  0
 24 23  1  0  0  0  0
 25 24  1  0  0  0  0
 25 23  1  0  0  0  0
M  END
>  <MODEL>
8

>  <REMARK>
 VINA RESULT:      -6.8      3.715      6.003
  Name = 
  1 active torsions:
  status: ('A' for Active; 'I' for Inactive)
    1  A    between atoms: C_2  and  N_7
                            x       y       z     vdW  Elec       q    Type
                         _______ _______ _______ _____ _____    ______ ____

>  <TORSDO>
F 1

$$$$
=
 OpenBabel10262419523D

 25 30  0  0  1  0  0  0  0  0999 V2000
  184.8490  178.5410  142.6350 N   0  0  0  0  0  0  0  0  0  0  0  0
  183.4530  178.6870  142.3230 C   0  0  0  0  0  0  0  0  0  0  0  0
  184.4170  178.5860  144.9990 C   0  0  0  0  0  3  0  0  0  0  0  0
  185.9680  178.4310  141.7620 C   0  0  0  0  0  0  0  0  0  0  0  0
  181.3690  180.1470  139.8780 C   0  0  0  0  0  2  0  0  0  0  0  0
  180.6270  179.7920  138.6750 N   0  0  2  0  0  0  0  0  0  0  0  0
  188.3350  178.1980  140.3130 C   0  0  0  0  0  3  0  0  0  0  0  0
  182.9720  178.7330  144.7130 C   0  0  0  0  0  3  0  0  0  0  0  0
  187.1800  178.3090  142.4260 C   0  0  0  0  0  0  0  0  0  0  0  0
  188.3750  178.1910  141.7150 C   0  0  0  0  0  3  0  0  0  0  0  0
  181.0650  178.9220  143.1790 C   0  0  0  0  0  0  0  0  0  0  0  0
  180.1500  179.0010  144.2220 O   0  0  0  0  0  1  0  0  0  0  0  0
  181.1100  177.7560  139.8320 C   0  0  0  0  0  2  0  0  0  0  0  0
  183.0050  178.7370  141.0660 C   0  0  0  0  0  3  0  0  0  0  0  0
  187.1080  178.3210  139.6400 C   0  0  0  0  0  3  0  0  0  0  0  0
  185.2890  178.4970  143.9900 C   0  0  0  0  0  0  0  0  0  0  0  0
  187.0610  178.3180  144.2200 S   0  0  0  0  0  0  0  0  0  0  0  0
  181.5430  178.8980  140.7180 C   0  0  1  0  0  0  0  0  0  0  0  0
  185.9140  178.4390  140.3650 C   0  0  0  0  0  3  0  0  0  0  0  0
  180.6290  178.9710  141.9190 C   0  0  0  0  0  3  0  0  0  0  0  0
  182.5050  178.7820  143.4550 C   0  0  0  0  0  0  0  0  0  0  0  0
  180.8860  178.3740  138.4720 C   0  0  0  0  0  2  0  0  0  0  0  0
  181.2330  180.5080  137.5620 C   0  0  0  0  0  3  0  0  0  0  0  0
  181.1780  182.0020  137.8270 C   0  0  0  0  0  2  0  0  0  0  0  0
  180.1850  181.3690  136.8780 C   0  0  0  0  0  2  0  0  0  0  0  0
  1 16  1  0  0  0  0
  2  1  1  0  0  0  0
  2 21  1  0  0  0  0
  4  9  1  0  0  0  0
  4  1  1  0  0  0  0
  5 18  1  0  0  0  0
  6 23  1  6  0  0  0
  6  5  1  0  0  0  0
  7 10  1  0  0  0  0
  8  3  1  0  0  0  0
  9 17  1  0  0  0  0
 10  9  2  0  0  0  0
 11 21  1  0  0  0  0
 11 12  1  0  0  0  0
 14  2  2  0  0  0  0
 15  7  2  0  0  0  0
 15 19  1  0  0  0  0
 16 17  1  0  0  0  0
 16  3  2  0  0  0  0
 18 13  1  6  0  0  0
 18 14  1  0  0  0  0
 18 20  1  0  0  0  0
 19  4  2  0  0  0  0
 20 11  2  0  0  0  0
 21  8  2  0  0  0  0
 22  6  1  0  0  0  0
 22 13  1  0  0  0  0
 23 24  1  0  0  0  0
 25 23  1  0  0  0  0
 25 24  1  0  0  0  0
M  END
>  <MODEL>
9

>  <REMARK>
 VINA RESULT:      -6.5      5.148      7.406
  Name = 
  1 active torsions:
  status: ('A' for Active; 'I' for Inactive)
    1  A    between atoms: C_2  and  N_7
                            x       y       z     vdW  Elec       q    Type
                         _______ _______ _______ _____ _____    ______ ____

>  <TORSDO>
F 1

$$$$
