=
 OpenBabel10262420333D

 55 60  0  0  1  0  0  0  0  0999 V2000
  186.3830  176.5230  134.7220 C   0  0  0  0  0  2  0  0  0  0  0  0
  184.7840  178.6880  139.5450 O   0  0  0  0  0  0  0  0  0  0  0  0
  182.9280  176.4910  139.9070 C   0  0  0  0  0  1  0  0  0  0  0  0
  183.3740  175.9500  137.6300 O   0  0  0  0  0  0  0  0  0  0  0  0
  188.8680  176.6560  134.9760 C   0  0  0  0  0  3  0  0  0  0  0  0
  188.6380  176.6070  137.7650 C   0  0  0  0  0  0  0  0  0  0  0  0
  185.6990  175.3170  134.9380 O   0  0  0  0  0  0  0  0  0  0  0  0
  187.4940  176.5530  136.9630 C   0  0  0  0  0  3  0  0  0  0  0  0
  186.1370  178.8500  139.2390 C   0  0  0  0  0  2  0  0  0  0  0  0
  184.2240  178.0520  138.4300 C   0  0  0  0  0  2  0  0  0  0  0  0
  183.9220  176.5850  138.7520 C   0  0  1  0  0  3  0  0  0  0  0  0
  190.0160  176.7160  135.7770 C   0  0  0  0  0  3  0  0  0  0  0  0
  187.0000  177.9950  140.1690 C   0  0  1  0  0  3  0  0  0  0  0  0
  187.6070  176.5690  135.5700 C   0  0  0  0  0  0  0  0  0  0  0  0
  184.4370  175.2760  137.0130 C   0  0  2  0  0  3  0  0  0  0  0  0
  184.4850  175.6940  135.5340 C   0  0  2  0  0  3  0  0  0  0  0  0
  188.3100  177.9480  139.6750 O   0  0  0  0  0  0  0  0  0  0  0  0
  188.4970  176.6290  139.2480 C   0  0  0  0  0  2  0  0  0  0  0  0
  189.8990  176.6920  137.1730 C   0  0  0  0  0  3  0  0  0  0  0  0
  185.7030  173.1090  137.4870 C   0  0  0  0  0  2  0  0  0  0  0  0
  186.4900  172.9390  136.1830 C   0  0  0  0  0  2  0  0  0  0  0  0
  183.5890  173.0780  136.0330 C   0  0  2  0  0  3  0  0  0  0  0  0
  184.2840  171.8080  135.5270 C   0  0  0  0  0  2  0  0  0  0  0  0
  185.7390  172.0990  135.1440 C   0  0  0  0  0  2  0  0  0  0  0  0
  184.3250  173.7470  137.2200 C   0  0  2  0  0  3  0  0  0  0  0  0
  182.2820  172.7680  136.4110 O   0  0  0  0  0  1  0  0  0  0  0  0
  186.0440  177.7020  142.3200 O   0  0  0  0  0  1  0  0  0  0  0  0
  186.9930  178.4660  141.6360 C   0  0  2  0  0  0  0  0  0  0  0  0
  186.6050  179.7930  141.6980 F   0  0  0  0  0  0  0  0  0  0  0  0
  188.3890  178.2970  142.2860 C   0  0  1  0  0  3  0  0  0  0  0  0
  188.9100  179.5420  142.6420 O   0  0  0  0  0  1  0  0  0  0  0  0
  188.4850  177.2980  143.4690 C   0  0  2  0  0  0  0  0  0  0  0  0
  187.8790  176.0910  143.1010 O   0  0  0  0  0  1  0  0  0  0  0  0
  186.7400  176.9860  145.1050 F   0  0  0  0  0  0  0  0  0  0  0  0
  187.7490  177.8470  144.6970 C   0  0  0  0  0  2  0  0  0  0  0  0
  189.9610  177.0060  143.8420 C   0  0  2  0  0  3  0  0  0  0  0  0
  190.7320  176.2240  142.7540 C   0  0  2  0  0  3  0  0  0  0  0  0
  192.0610  176.6780  142.6830 O   0  0  0  0  0  0  0  0  0  0  0  0
  191.2160  177.0570  141.6260 C   0  0  0  0  0  2  0  0  0  0  0  0
  190.0600  176.4130  145.1110 O   0  0  0  0  0  0  0  0  0  0  0  0
  191.2930  178.3390  145.1730 O   0  0  0  0  0  1  0  0  0  0  0  0
  191.1250  177.0720  145.7470 C   0  0  1  0  0  3  0  0  0  0  0  0
  189.6760  177.3740  147.6380 O   0  0  0  0  0  0  0  0  0  0  0  0
  190.8490  177.1850  147.2150 C   0  0  0  0  0  0  0  0  0  0  0  0
  191.8920  177.0420  148.1160 O   0  0  0  0  0  1  0  0  0  0  0  0
  183.3000  175.1480  134.7410 C   0  0  0  0  0  2  0  0  0  0  0  0
  182.5070  177.5210  134.5940 C   0  0  0  0  0  2  0  0  0  0  0  0
  180.0870  177.9040  135.0280 C   0  0  0  0  0  0  0  0  0  0  0  0
  180.8530  175.6220  134.6290 C   0  0  0  0  0  3  0  0  0  0  0  0
  179.8340  176.4720  134.7610 C   0  0  0  0  0  3  0  0  0  0  0  0
  181.3360  178.3880  134.9700 C   0  0  0  0  0  3  0  0  0  0  0  0
  182.2020  176.1010  134.7350 N   0  0  0  0  0  0  0  0  0  0  0  0
  178.9310  178.8230  135.3240 C   0  0  0  0  0  3  0  0  0  0  0  0
  179.0350  179.3620  136.7510 C   0  0  0  0  0  2  0  0  0  0  0  0
  179.4210  180.2400  135.5840 C   0  0  0  0  0  2  0  0  0  0  0  0
  1  7  1  0  0  0  0
  1 14  1  0  0  0  0
  4 11  1  0  0  0  0
  5 14  2  0  0  0  0
  5 12  1  0  0  0  0
  6 18  1  0  0  0  0
  7 16  1  0  0  0  0
  8  6  2  0  0  0  0
  9  2  1  0  0  0  0
  9 13  1  0  0  0  0
 10 11  1  0  0  0  0
 10  2  1  0  0  0  0
 11  3  1  1  0  0  0
 12 19  2  0  0  0  0
 13 28  1  1  0  0  0
 14  8  1  0  0  0  0
 15 25  1  0  0  0  0
 15  4  1  6  0  0  0
 16 46  1  6  0  0  0
 16 15  1  0  0  0  0
 17 13  1  0  0  0  0
 18 17  1  0  0  0  0
 19  6  1  0  0  0  0
 21 20  1  0  0  0  0
 22 26  1  1  0  0  0
 22 25  1  0  0  0  0
 23 22  1  0  0  0  0
 24 23  1  0  0  0  0
 24 21  1  0  0  0  0
 25 20  1  6  0  0  0
 28 29  1  1  0  0  0
 28 30  1  0  0  0  0
 28 27  1  0  0  0  0
 30 31  1  1  0  0  0
 30 32  1  0  0  0  0
 32 33  1  6  0  0  0
 32 36  1  0  0  0  0
 32 35  1  0  0  0  0
 35 34  1  0  0  0  0
 36 40  1  1  0  0  0
 37 36  1  1  0  0  0
 38 37  1  0  0  0  0
 39 38  1  0  0  0  0
 39 37  1  0  0  0  0
 40 42  1  0  0  0  0
 42 41  1  6  0  0  0
 42 44  1  0  0  0  0
 44 43  2  0  0  0  0
 44 45  1  0  0  0  0
 47 52  1  0  0  0  0
 47 51  1  0  0  0  0
 48 53  1  0  0  0  0
 49 52  1  0  0  0  0
 49 50  2  0  0  0  0
 50 48  1  0  0  0  0
 51 48  2  0  0  0  0
 52 46  1  0  0  0  0
 53 55  1  0  0  0  0
 53 54  1  0  0  0  0
 55 54  1  0  0  0  0
M  END
>  <MODEL>
1

>  <REMARK>
 VINA RESULT:      -5.3      0.000      0.000
  Name = 
  13 active torsions:
  status: ('A' for Active; 'I' for Inactive)
    1  A    between atoms: C_1  and  C_53
    2  A    between atoms: C_6  and  C_14
    3  A    between atoms: C_6  and  C_20
    4  A    between atoms: C_6  and  C_53
    5  A    between atoms: C_8  and  C_20
    6  A    between atoms: C_8  and  C_43
    7  A    between atoms: C_10  and  C_32
    8  A    between atoms: C_11  and  C_29
    9  A    between atoms: C_11  and  O_38
   10  A    between atoms: C_26  and  C_45
   11  A    between atoms: C_33  and  C_49
   12  A    between atoms: C_33  and  N_52
   13  A    between atoms: O_38  and  C_53
                            x       y       z     vdW  Elec       q    Type
                         _______ _______ _______ _____ _____    ______ ____

>  <TORSDO>
F 13

$$$$
=
 OpenBabel10262420333D

 55 60  0  0  1  0  0  0  0  0999 V2000
  185.9780  178.2820  135.8790 C   0  0  0  0  0  2  0  0  0  0  0  0
  184.9390  179.0370  141.2500 O   0  0  0  0  0  0  0  0  0  0  0  0
  182.8840  176.9960  141.1330 C   0  0  0  0  0  1  0  0  0  0  0  0
  183.1210  177.1230  138.7650 O   0  0  0  0  0  0  0  0  0  0  0  0
  188.4750  178.1240  135.9250 C   0  0  0  0  0  3  0  0  0  0  0  0
  188.4220  177.2660  138.5890 C   0  0  0  0  0  0  0  0  0  0  0  0
  185.1830  177.1280  135.7990 O   0  0  0  0  0  0  0  0  0  0  0  0
  187.2290  177.5490  137.9180 C   0  0  0  0  0  3  0  0  0  0  0  0
  186.2790  179.1690  140.8790 C   0  0  0  0  0  2  0  0  0  0  0  0
  184.2430  178.8120  140.0570 C   0  0  0  0  0  2  0  0  0  0  0  0
  183.8060  177.3460  139.9660 C   0  0  1  0  0  3  0  0  0  0  0  0
  189.6710  177.8460  136.5980 C   0  0  0  0  0  3  0  0  0  0  0  0
  187.1040  178.0070  141.4350 C   0  0  1  0  0  3  0  0  0  0  0  0
  187.2530  177.9700  136.5840 C   0  0  0  0  0  0  0  0  0  0  0  0
  184.0620  176.5770  137.8820 C   0  0  2  0  0  3  0  0  0  0  0  0
  184.0590  177.4110  136.5900 C   0  0  2  0  0  3  0  0  0  0  0  0
  188.3660  177.9990  140.8280 O   0  0  0  0  0  0  0  0  0  0  0  0
  188.3810  176.8560  140.0210 C   0  0  0  0  0  2  0  0  0  0  0  0
  189.6440  177.4170  137.9310 C   0  0  0  0  0  3  0  0  0  0  0  0
  185.1160  174.2760  137.5340 C   0  0  0  0  0  2  0  0  0  0  0  0
  185.7440  174.4500  136.1470 C   0  0  0  0  0  2  0  0  0  0  0  0
  182.8770  174.8520  136.4210 C   0  0  2  0  0  3  0  0  0  0  0  0
  183.3700  173.7460  135.4800 C   0  0  0  0  0  2  0  0  0  0  0  0
  184.8020  174.0260  135.0140 C   0  0  0  0  0  2  0  0  0  0  0  0
  183.7990  175.0710  137.6460 C   0  0  2  0  0  3  0  0  0  0  0  0
  181.5880  174.5450  136.8580 O   0  0  0  0  0  1  0  0  0  0  0  0
  185.9630  177.8760  143.5100 O   0  0  0  0  0  1  0  0  0  0  0  0
  187.2430  178.0170  142.9700 C   0  0  2  0  0  0  0  0  0  0  0  0
  187.7560  179.2350  143.3830 F   0  0  0  0  0  0  0  0  0  0  0  0
  188.1620  176.8690  143.4570 C   0  0  1  0  0  3  0  0  0  0  0  0
  188.1570  175.8210  142.5340 O   0  0  0  0  0  1  0  0  0  0  0  0
  189.6130  177.2600  143.8420 C   0  0  2  0  0  0  0  0  0  0  0  0
  189.8760  178.5550  143.3790 O   0  0  0  0  0  1  0  0  0  0  0  0
  191.7720  176.9750  142.8070 F   0  0  0  0  0  0  0  0  0  0  0  0
  190.6190  176.3060  143.1900 C   0  0  0  0  0  2  0  0  0  0  0  0
  189.8110  177.2450  145.3800 C   0  0  2  0  0  3  0  0  0  0  0  0
  191.0410  176.4270  145.8380 C   0  0  2  0  0  3  0  0  0  0  0  0
  190.8100  175.8810  147.1130 O   0  0  0  0  0  0  0  0  0  0  0  0
  191.7140  176.9550  147.0490 C   0  0  0  0  0  2  0  0  0  0  0  0
  188.6320  176.8730  146.0450 O   0  0  0  0  0  0  0  0  0  0  0  0
  186.8430  178.2480  146.4220 O   0  0  0  0  0  1  0  0  0  0  0  0
  188.1970  178.0330  146.7070 C   0  0  1  0  0  3  0  0  0  0  0  0
  187.7680  177.0330  148.8480 O   0  0  0  0  0  1  0  0  0  0  0  0
  188.4150  177.8880  148.1820 C   0  0  0  0  0  0  0  0  0  0  0  0
  189.3630  178.6780  148.8100 O   0  0  0  0  0  0  0  0  0  0  0  0
  182.7720  177.2280  135.7870 C   0  0  0  0  0  2  0  0  0  0  0  0
  181.2750  178.8820  134.6460 C   0  0  0  0  0  2  0  0  0  0  0  0
  180.6250  180.8820  135.9750 C   0  0  0  0  0  0  0  0  0  0  0  0
  181.6250  178.9840  137.1380 C   0  0  0  0  0  3  0  0  0  0  0  0
  180.9880  180.1530  137.2100 C   0  0  0  0  0  3  0  0  0  0  0  0
  180.7780  180.2960  134.7790 C   0  0  0  0  0  3  0  0  0  0  0  0
  181.9490  178.4230  135.8560 N   0  0  0  0  0  0  0  0  0  0  0  0
  180.0430  182.2680  136.0720 C   0  0  0  0  0  3  0  0  0  0  0  0
  181.0680  183.2320  136.6710 C   0  0  0  0  0  2  0  0  0  0  0  0
  180.8090  183.2380  135.1830 C   0  0  0  0  0  2  0  0  0  0  0  0
  1 14  1  0  0  0  0
  4 11  1  0  0  0  0
  5 14  2  0  0  0  0
  5 12  1  0  0  0  0
  6 18  1  0  0  0  0
  7  1  1  0  0  0  0
  7 16  1  0  0  0  0
  8  6  2  0  0  0  0
  9  2  1  0  0  0  0
  9 13  1  0  0  0  0
 10  2  1  0  0  0  0
 11 10  1  0  0  0  0
 11  3  1  1  0  0  0
 12 19  2  0  0  0  0
 13 28  1  1  0  0  0
 14  8  1  0  0  0  0
 15  4  1  1  0  0  0
 16 46  1  6  0  0  0
 16 15  1  0  0  0  0
 17 13  1  0  0  0  0
 18 17  1  0  0  0  0
 19  6  1  0  0  0  0
 21 20  1  0  0  0  0
 22 26  1  1  0  0  0
 22 25  1  0  0  0  0
 23 22  1  0  0  0  0
 24 23  1  0  0  0  0
 24 21  1  0  0  0  0
 25 20  1  6  0  0  0
 25 15  1  0  0  0  0
 28 29  1  1  0  0  0
 28 30  1  0  0  0  0
 28 27  1  0  0  0  0
 30 31  1  6  0  0  0
 30 32  1  0  0  0  0
 32 33  1  6  0  0  0
 32 36  1  0  0  0  0
 34 35  1  0  0  0  0
 35 32  1  0  0  0  0
 36 40  1  1  0  0  0
 37 36  1  1  0  0  0
 37 39  1  0  0  0  0
 37 38  1  0  0  0  0
 39 38  1  0  0  0  0
 40 42  1  0  0  0  0
 42 41  1  1  0  0  0
 42 44  1  0  0  0  0
 44 45  2  0  0  0  0
 44 43  1  0  0  0  0
 46 52  1  0  0  0  0
 47 51  1  0  0  0  0
 47 52  1  0  0  0  0
 48 53  1  0  0  0  0
 48 50  1  0  0  0  0
 49 50  2  0  0  0  0
 51 48  2  0  0  0  0
 52 49  1  0  0  0  0
 53 54  1  0  0  0  0
 55 53  1  0  0  0  0
 55 54  1  0  0  0  0
M  END
>  <MODEL>
2

>  <REMARK>
 VINA RESULT:      -4.8      1.858      2.648
  Name = 
  13 active torsions:
  status: ('A' for Active; 'I' for Inactive)
    1  A    between atoms: C_1  and  C_53
    2  A    between atoms: C_6  and  C_14
    3  A    between atoms: C_6  and  C_20
    4  A    between atoms: C_6  and  C_53
    5  A    between atoms: C_8  and  C_20
    6  A    between atoms: C_8  and  C_43
    7  A    between atoms: C_10  and  C_32
    8  A    between atoms: C_11  and  C_29
    9  A    between atoms: C_11  and  O_38
   10  A    between atoms: C_26  and  C_45
   11  A    between atoms: C_33  and  C_49
   12  A    between atoms: C_33  and  N_52
   13  A    between atoms: O_38  and  C_53
                            x       y       z     vdW  Elec       q    Type
                         _______ _______ _______ _____ _____    ______ ____

>  <TORSDO>
F 13

$$$$
=
 OpenBabel10262420333D

 55 60  0  0  1  0  0  0  0  0999 V2000
  191.3470  177.0210  137.6500 C   0  0  0  0  0  2  0  0  0  0  0  0
  186.4220  179.2970  136.6210 O   0  0  0  0  0  0  0  0  0  0  0  0
  185.7940  177.1110  134.8250 C   0  0  0  0  0  1  0  0  0  0  0  0
  188.0950  176.5180  135.0030 O   0  0  0  0  0  0  0  0  0  0  0  0
  191.3890  177.1580  140.1480 C   0  0  0  0  0  3  0  0  0  0  0  0
  188.5920  177.1740  140.2450 C   0  0  0  0  0  0  0  0  0  0  0  0
  191.0260  175.8210  136.9990 O   0  0  0  0  0  0  0  0  0  0  0  0
  189.2520  177.1020  139.0160 C   0  0  0  0  0  3  0  0  0  0  0  0
  186.8870  179.4510  137.9290 C   0  0  0  0  0  2  0  0  0  0  0  0
  187.4490  178.6370  135.9370 C   0  0  0  0  0  2  0  0  0  0  0  0
  187.0600  177.1770  135.6770 C   0  0  1  0  0  3  0  0  0  0  0  0
  190.7290  177.2360  141.3810 C   0  0  0  0  0  3  0  0  0  0  0  0
  186.0450  178.6180  138.8970 C   0  0  1  0  0  3  0  0  0  0  0  0
  190.6500  177.0860  138.9650 C   0  0  0  0  0  0  0  0  0  0  0  0
  188.8160  175.8290  135.9880 C   0  0  2  0  0  3  0  0  0  0  0  0
  190.3000  176.2120  135.8630 C   0  0  2  0  0  3  0  0  0  0  0  0
  186.6880  178.5590  140.1400 O   0  0  0  0  0  0  0  0  0  0  0  0
  187.1030  177.2300  140.2790 C   0  0  0  0  0  2  0  0  0  0  0  0
  189.3290  177.2440  141.4290 C   0  0  0  0  0  3  0  0  0  0  0  0
  187.2420  173.9900  135.1720 C   0  0  0  0  0  2  0  0  0  0  0  0
  186.0390  174.2040  136.0970 C   0  0  0  0  0  2  0  0  0  0  0  0
  188.6260  173.6510  137.3060 C   0  0  2  0  0  3  0  0  0  0  0  0
  187.4750  172.6740  137.5720 C   0  0  0  0  0  2  0  0  0  0  0  0
  186.1200  173.3620  137.3760 C   0  0  0  0  0  2  0  0  0  0  0  0
  188.5630  174.3050  135.9040 C   0  0  2  0  0  3  0  0  0  0  0  0
  189.8410  172.9830  137.4540 O   0  0  0  0  0  1  0  0  0  0  0  0
  184.5820  180.4760  138.7180 O   0  0  0  0  0  1  0  0  0  0  0  0
  184.5980  179.1220  139.0600 C   0  0  2  0  0  0  0  0  0  0  0  0
  184.2110  179.0060  140.3850 F   0  0  0  0  0  0  0  0  0  0  0  0
  183.6230  178.3270  138.1570 C   0  0  1  0  0  3  0  0  0  0  0  0
  184.1460  177.0630  137.8750 O   0  0  0  0  0  1  0  0  0  0  0  0
  182.1560  178.2210  138.6500 C   0  0  2  0  0  0  0  0  0  0  0  0
  182.0180  178.9460  139.8390 O   0  0  0  0  0  1  0  0  0  0  0  0
  182.1640  176.3880  140.2180 F   0  0  0  0  0  0  0  0  0  0  0  0
  181.7880  176.7600  138.9350 C   0  0  0  0  0  2  0  0  0  0  0  0
  181.1670  178.8060  137.6080 C   0  0  2  0  0  3  0  0  0  0  0  0
  180.7170  177.7840  136.5380 C   0  0  2  0  0  3  0  0  0  0  0  0
  179.9480  178.4250  135.5510 O   0  0  0  0  0  0  0  0  0  0  0  0
  179.2490  177.5970  136.4460 C   0  0  0  0  0  2  0  0  0  0  0  0
  181.6580  179.9970  137.0500 O   0  0  0  0  0  0  0  0  0  0  0  0
  181.6640  181.8810  138.3470 O   0  0  0  0  0  1  0  0  0  0  0  0
  180.8600  181.0180  137.5920 C   0  0  1  0  0  3  0  0  0  0  0  0
  179.1410  182.4550  136.7300 O   0  0  0  0  0  1  0  0  0  0  0  0
  180.1670  181.7610  136.4920 C   0  0  0  0  0  0  0  0  0  0  0  0
  180.6830  181.7110  135.2070 O   0  0  0  0  0  0  0  0  0  0  0  0
  190.9370  175.6480  134.5940 C   0  0  0  0  0  2  0  0  0  0  0  0
  192.0940  173.4580  134.9770 C   0  0  0  0  0  2  0  0  0  0  0  0
  194.4350  173.5790  135.8090 C   0  0  0  0  0  0  0  0  0  0  0  0
  193.4110  175.6040  134.9140 C   0  0  0  0  0  3  0  0  0  0  0  0
  194.5100  174.9770  135.3340 C   0  0  0  0  0  3  0  0  0  0  0  0
  193.3030  172.8780  135.6610 C   0  0  0  0  0  3  0  0  0  0  0  0
  192.1510  174.9150  134.9100 N   0  0  0  0  0  0  0  0  0  0  0  0
  195.6520  172.9330  136.4210 C   0  0  0  0  0  3  0  0  0  0  0  0
  195.5280  172.9100  137.9450 C   0  0  0  0  0  2  0  0  0  0  0  0
  195.2730  171.6520  137.1490 C   0  0  0  0  0  2  0  0  0  0  0  0
  1 14  1  0  0  0  0
  2  9  1  0  0  0  0
  4 11  1  0  0  0  0
  5 12  1  0  0  0  0
  6 18  1  0  0  0  0
  6 19  1  0  0  0  0
  7  1  1  0  0  0  0
  8  6  2  0  0  0  0
  9 13  1  0  0  0  0
 10  2  1  0  0  0  0
 11  3  1  6  0  0  0
 11 10  1  0  0  0  0
 12 19  2  0  0  0  0
 13 28  1  1  0  0  0
 13 17  1  0  0  0  0
 14  8  1  0  0  0  0
 14  5  2  0  0  0  0
 15  4  1  6  0  0  0
 16 46  1  6  0  0  0
 16 15  1  0  0  0  0
 16  7  1  0  0  0  0
 17 18  1  0  0  0  0
 20 21  1  0  0  0  0
 21 24  1  0  0  0  0
 22 26  1  6  0  0  0
 22 23  1  0  0  0  0
 24 23  1  0  0  0  0
 25 20  1  1  0  0  0
 25 15  1  0  0  0  0
 25 22  1  0  0  0  0
 28 27  1  6  0  0  0
 28 29  1  0  0  0  0
 30 31  1  1  0  0  0
 30 32  1  0  0  0  0
 30 28  1  0  0  0  0
 32 35  1  0  0  0  0
 32 33  1  1  0  0  0
 35 34  1  0  0  0  0
 36 40  1  6  0  0  0
 36 32  1  0  0  0  0
 37 36  1  1  0  0  0
 38 39  1  0  0  0  0
 38 37  1  0  0  0  0
 39 37  1  0  0  0  0
 40 42  1  0  0  0  0
 42 41  1  6  0  0  0
 44 43  1  0  0  0  0
 44 42  1  0  0  0  0
 45 44  2  0  0  0  0
 46 52  1  0  0  0  0
 47 51  1  0  0  0  0
 48 53  1  0  0  0  0
 49 50  2  0  0  0  0
 50 48  1  0  0  0  0
 51 48  2  0  0  0  0
 52 49  1  0  0  0  0
 52 47  1  0  0  0  0
 53 55  1  0  0  0  0
 53 54  1  0  0  0  0
 55 54  1  0  0  0  0
M  END
>  <MODEL>
3

>  <REMARK>
 VINA RESULT:      -4.6      3.617      9.352
  Name = 
  13 active torsions:
  status: ('A' for Active; 'I' for Inactive)
    1  A    between atoms: C_1  and  C_53
    2  A    between atoms: C_6  and  C_14
    3  A    between atoms: C_6  and  C_20
    4  A    between atoms: C_6  and  C_53
    5  A    between atoms: C_8  and  C_20
    6  A    between atoms: C_8  and  C_43
    7  A    between atoms: C_10  and  C_32
    8  A    between atoms: C_11  and  C_29
    9  A    between atoms: C_11  and  O_38
   10  A    between atoms: C_26  and  C_45
   11  A    between atoms: C_33  and  C_49
   12  A    between atoms: C_33  and  N_52
   13  A    between atoms: O_38  and  C_53
                            x       y       z     vdW  Elec       q    Type
                         _______ _______ _______ _____ _____    ______ ____

>  <TORSDO>
F 13

$$$$
=
 OpenBabel10262420333D

 55 60  0  0  1  0  0  0  0  0999 V2000
  191.4540  177.1160  137.6590 C   0  0  0  0  0  2  0  0  0  0  0  0
  186.4530  179.2650  136.7210 O   0  0  0  0  0  0  0  0  0  0  0  0
  185.8630  177.0800  134.9100 C   0  0  0  0  0  1  0  0  0  0  0  0
  188.1810  176.5500  135.0510 O   0  0  0  0  0  0  0  0  0  0  0  0
  191.5260  177.2290  140.1580 C   0  0  0  0  0  3  0  0  0  0  0  0
  188.7310  177.1650  140.2920 C   0  0  0  0  0  0  0  0  0  0  0  0
  191.1570  175.9150  136.9990 O   0  0  0  0  0  0  0  0  0  0  0  0
  189.3760  177.1250  139.0540 C   0  0  0  0  0  3  0  0  0  0  0  0
  186.9320  179.4180  138.0240 C   0  0  0  0  0  2  0  0  0  0  0  0
  187.4890  178.6400  136.0150 C   0  0  0  0  0  2  0  0  0  0  0  0
  187.1370  177.1730  135.7450 C   0  0  1  0  0  3  0  0  0  0  0  0
  190.8810  177.2750  141.4000 C   0  0  0  0  0  3  0  0  0  0  0  0
  186.1270  178.5520  138.9940 C   0  0  1  0  0  3  0  0  0  0  0  0
  190.7730  177.1480  138.9840 C   0  0  0  0  0  0  0  0  0  0  0  0
  188.9350  175.8710  136.0190 C   0  0  2  0  0  3  0  0  0  0  0  0
  190.4060  176.2970  135.8770 C   0  0  2  0  0  3  0  0  0  0  0  0
  186.7880  178.4970  140.2280 O   0  0  0  0  0  0  0  0  0  0  0  0
  187.2420  177.1800  140.3470 C   0  0  0  0  0  2  0  0  0  0  0  0
  189.4820  177.2440  141.4660 C   0  0  0  0  0  3  0  0  0  0  0  0
  187.4680  173.9960  135.0930 C   0  0  0  0  0  2  0  0  0  0  0  0
  186.1950  174.1840  135.9250 C   0  0  0  0  0  2  0  0  0  0  0  0
  188.6950  173.6930  137.3260 C   0  0  2  0  0  3  0  0  0  0  0  0
  187.5490  172.6910  137.5090 C   0  0  0  0  0  2  0  0  0  0  0  0
  186.1980  173.3470  137.2090 C   0  0  0  0  0  2  0  0  0  0  0  0
  188.7230  174.3420  135.9210 C   0  0  2  0  0  3  0  0  0  0  0  0
  189.9110  173.0520  137.5670 O   0  0  0  0  0  1  0  0  0  0  0  0
  184.5810  180.3300  138.7250 O   0  0  0  0  0  1  0  0  0  0  0  0
  184.6690  179.0130  139.1820 C   0  0  2  0  0  0  0  0  0  0  0  0
  184.3460  179.0010  140.5290 F   0  0  0  0  0  0  0  0  0  0  0  0
  183.6880  178.1050  138.3990 C   0  0  1  0  0  3  0  0  0  0  0  0
  184.3470  176.9600  137.9450 O   0  0  0  0  0  1  0  0  0  0  0  0
  182.3660  177.7320  139.1200 C   0  0  2  0  0  0  0  0  0  0  0  0
  182.6430  177.4270  140.4570 O   0  0  0  0  0  1  0  0  0  0  0  0
  180.8290  175.8860  139.3310 F   0  0  0  0  0  0  0  0  0  0  0  0
  181.7280  176.4990  138.4700 C   0  0  0  0  0  2  0  0  0  0  0  0
  181.3570  178.9100  139.0900 C   0  0  2  0  0  3  0  0  0  0  0  0
  181.3900  179.7210  137.7750 C   0  0  2  0  0  3  0  0  0  0  0  0
  181.0110  181.0530  138.0190 O   0  0  0  0  0  0  0  0  0  0  0  0
  180.0730  180.2520  137.3470 C   0  0  0  0  0  2  0  0  0  0  0  0
  181.4810  179.7180  140.2310 O   0  0  0  0  0  0  0  0  0  0  0  0
  179.5160  178.5560  140.3890 O   0  0  0  0  0  1  0  0  0  0  0  0
  180.2250  179.6680  140.8600 C   0  0  1  0  0  3  0  0  0  0  0  0
  181.5500  179.4540  142.8510 O   0  0  0  0  0  0  0  0  0  0  0  0
  180.4030  179.5970  142.3460 C   0  0  0  0  0  0  0  0  0  0  0  0
  179.2970  179.7250  143.1700 O   0  0  0  0  0  1  0  0  0  0  0  0
  191.0400  175.7650  134.5940 C   0  0  0  0  0  2  0  0  0  0  0  0
  192.2180  173.5960  135.0280 C   0  0  0  0  0  2  0  0  0  0  0  0
  194.5960  173.7560  135.7410 C   0  0  0  0  0  0  0  0  0  0  0  0
  193.5270  175.7360  134.7980 C   0  0  0  0  0  3  0  0  0  0  0  0
  194.6460  175.1290  135.1960 C   0  0  0  0  0  3  0  0  0  0  0  0
  193.4590  173.0490  135.6810 C   0  0  0  0  0  3  0  0  0  0  0  0
  192.2690  175.0470  134.8870 N   0  0  0  0  0  0  0  0  0  0  0  0
  195.8410  173.1400  136.3270 C   0  0  0  0  0  3  0  0  0  0  0  0
  196.4710  174.0880  137.3470 C   0  0  0  0  0  2  0  0  0  0  0  0
  195.6720  172.8970  137.8190 C   0  0  0  0  0  2  0  0  0  0  0  0
  1 14  1  0  0  0  0
  2  9  1  0  0  0  0
  4 11  1  0  0  0  0
  5 12  1  0  0  0  0
  6 18  1  0  0  0  0
  6 19  1  0  0  0  0
  7  1  1  0  0  0  0
  8  6  2  0  0  0  0
  9 13  1  0  0  0  0
 10  2  1  0  0  0  0
 11  3  1  6  0  0  0
 11 10  1  0  0  0  0
 12 19  2  0  0  0  0
 13 28  1  1  0  0  0
 13 17  1  0  0  0  0
 14  8  1  0  0  0  0
 14  5  2  0  0  0  0
 15  4  1  6  0  0  0
 16 46  1  6  0  0  0
 16 15  1  0  0  0  0
 16  7  1  0  0  0  0
 17 18  1  0  0  0  0
 20 21  1  0  0  0  0
 21 24  1  0  0  0  0
 22 23  1  0  0  0  0
 22 26  1  6  0  0  0
 24 23  1  0  0  0  0
 25 20  1  1  0  0  0
 25 15  1  0  0  0  0
 25 22  1  0  0  0  0
 28 27  1  6  0  0  0
 28 29  1  0  0  0  0
 30 31  1  1  0  0  0
 30 32  1  0  0  0  0
 30 28  1  0  0  0  0
 32 33  1  1  0  0  0
 35 32  1  0  0  0  0
 35 34  1  0  0  0  0
 36 32  1  0  0  0  0
 36 40  1  1  0  0  0
 37 38  1  0  0  0  0
 37 36  1  1  0  0  0
 39 37  1  0  0  0  0
 39 38  1  0  0  0  0
 40 42  1  0  0  0  0
 42 41  1  6  0  0  0
 42 44  1  0  0  0  0
 44 43  2  0  0  0  0
 44 45  1  0  0  0  0
 46 52  1  0  0  0  0
 47 51  1  0  0  0  0
 48 53  1  0  0  0  0
 49 52  1  0  0  0  0
 49 50  2  0  0  0  0
 50 48  1  0  0  0  0
 51 48  2  0  0  0  0
 52 47  1  0  0  0  0
 53 54  1  0  0  0  0
 53 55  1  0  0  0  0
 54 55  1  0  0  0  0
M  END
>  <MODEL>
4

>  <REMARK>
 VINA RESULT:      -4.5      3.686      8.837
  Name = 
  13 active torsions:
  status: ('A' for Active; 'I' for Inactive)
    1  A    between atoms: C_1  and  C_53
    2  A    between atoms: C_6  and  C_14
    3  A    between atoms: C_6  and  C_20
    4  A    between atoms: C_6  and  C_53
    5  A    between atoms: C_8  and  C_20
    6  A    between atoms: C_8  and  C_43
    7  A    between atoms: C_10  and  C_32
    8  A    between atoms: C_11  and  C_29
    9  A    between atoms: C_11  and  O_38
   10  A    between atoms: C_26  and  C_45
   11  A    between atoms: C_33  and  C_49
   12  A    between atoms: C_33  and  N_52
   13  A    between atoms: O_38  and  C_53
                            x       y       z     vdW  Elec       q    Type
                         _______ _______ _______ _____ _____    ______ ____

>  <TORSDO>
F 13

$$$$
=
 OpenBabel10262420333D

 55 60  0  0  1  0  0  0  0  0999 V2000
  186.3630  176.6960  134.7750 C   0  0  0  0  0  2  0  0  0  0  0  0
  185.2040  178.9940  139.6610 O   0  0  0  0  0  0  0  0  0  0  0  0
  183.3150  176.8640  140.2070 C   0  0  0  0  0  1  0  0  0  0  0  0
  183.5690  176.2700  137.9130 O   0  0  0  0  0  0  0  0  0  0  0  0
  188.8640  176.7540  134.8370 C   0  0  0  0  0  3  0  0  0  0  0  0
  188.8460  176.7610  137.6360 C   0  0  0  0  0  0  0  0  0  0  0  0
  185.6610  175.5170  135.0650 O   0  0  0  0  0  0  0  0  0  0  0  0
  187.6430  176.7300  136.9250 C   0  0  0  0  0  3  0  0  0  0  0  0
  186.5350  179.1070  139.2510 C   0  0  0  0  0  2  0  0  0  0  0  0
  184.5420  178.3570  138.6050 C   0  0  0  0  0  2  0  0  0  0  0  0
  184.2200  176.9060  138.9780 C   0  0  1  0  0  3  0  0  0  0  0  0
  190.0710  176.7910  135.5470 C   0  0  0  0  0  3  0  0  0  0  0  0
  187.4400  178.2420  140.1290 C   0  0  1  0  0  3  0  0  0  0  0  0
  187.6500  176.7180  135.5260 C   0  0  0  0  0  0  0  0  0  0  0  0
  184.5610  175.5520  137.2310 C   0  0  2  0  0  3  0  0  0  0  0  0
  184.5090  175.9420  135.7440 C   0  0  2  0  0  3  0  0  0  0  0  0
  188.7060  178.1440  139.5390 O   0  0  0  0  0  0  0  0  0  0  0  0
  188.8190  176.8130  139.1250 C   0  0  0  0  0  2  0  0  0  0  0  0
  190.0600  176.7950  136.9480 C   0  0  0  0  0  3  0  0  0  0  0  0
  185.7940  173.3420  137.5800 C   0  0  0  0  0  2  0  0  0  0  0  0
  186.4050  173.1270  136.1910 C   0  0  0  0  0  2  0  0  0  0  0  0
  183.5160  173.3770  136.4010 C   0  0  2  0  0  3  0  0  0  0  0  0
  184.0930  172.0750  135.8340 C   0  0  0  0  0  2  0  0  0  0  0  0
  185.4990  172.3040  135.2670 C   0  0  0  0  0  2  0  0  0  0  0  0
  184.4180  174.0310  137.4750 C   0  0  2  0  0  3  0  0  0  0  0  0
  182.2550  173.1230  136.9440 O   0  0  0  0  0  1  0  0  0  0  0  0
  186.4600  179.5590  141.8410 O   0  0  0  0  0  1  0  0  0  0  0  0
  187.5590  178.7370  141.5840 C   0  0  2  0  0  0  0  0  0  0  0  0
  188.7090  179.4960  141.7250 F   0  0  0  0  0  0  0  0  0  0  0  0
  187.5880  177.5510  142.5790 C   0  0  1  0  0  3  0  0  0  0  0  0
  187.7610  176.3470  141.8920 O   0  0  0  0  0  1  0  0  0  0  0  0
  188.5880  177.6630  143.7590 C   0  0  2  0  0  0  0  0  0  0  0  0
  189.4010  178.7860  143.5660 O   0  0  0  0  0  1  0  0  0  0  0  0
  190.7820  176.7620  144.1980 F   0  0  0  0  0  0  0  0  0  0  0  0
  189.4900  176.4250  143.8200 C   0  0  0  0  0  2  0  0  0  0  0  0
  187.8480  177.8270  145.1120 C   0  0  2  0  0  3  0  0  0  0  0  0
  188.5940  177.1900  146.3080 C   0  0  2  0  0  3  0  0  0  0  0  0
  188.4580  177.9990  147.4490 O   0  0  0  0  0  0  0  0  0  0  0  0
  189.7200  178.0000  146.8320 C   0  0  0  0  0  2  0  0  0  0  0  0
  186.5120  177.4070  145.0190 O   0  0  0  0  0  0  0  0  0  0  0  0
  184.6330  178.4690  144.2620 O   0  0  0  0  0  1  0  0  0  0  0  0
  185.7470  178.5810  145.1030 C   0  0  1  0  0  3  0  0  0  0  0  0
  184.2730  178.2760  146.9740 O   0  0  0  0  0  0  0  0  0  0  0  0
  185.3220  178.8110  146.5210 C   0  0  0  0  0  0  0  0  0  0  0  0
  186.1120  179.5890  147.3510 O   0  0  0  0  0  1  0  0  0  0  0  0
  183.2500  175.4210  135.0540 C   0  0  0  0  0  2  0  0  0  0  0  0
  180.8250  175.9790  135.3510 C   0  0  0  0  0  2  0  0  0  0  0  0
  180.1670  178.3280  134.8610 C   0  0  0  0  0  0  0  0  0  0  0  0
  182.5380  177.8110  135.1130 C   0  0  0  0  0  3  0  0  0  0  0  0
  181.5800  178.7340  135.0100 C   0  0  0  0  0  3  0  0  0  0  0  0
  179.8180  177.0410  134.9990 C   0  0  0  0  0  3  0  0  0  0  0  0
  182.1930  176.4170  135.0920 N   0  0  0  0  0  0  0  0  0  0  0  0
  179.1150  179.3740  134.5940 C   0  0  0  0  0  3  0  0  0  0  0  0
  178.9610  180.2920  135.8060 C   0  0  0  0  0  2  0  0  0  0  0  0
  179.7270  180.7670  134.5940 C   0  0  0  0  0  2  0  0  0  0  0  0
  1  7  1  0  0  0  0
  1 14  1  0  0  0  0
  4 11  1  0  0  0  0
  5 14  2  0  0  0  0
  5 12  1  0  0  0  0
  6 18  1  0  0  0  0
  7 16  1  0  0  0  0
  8  6  2  0  0  0  0
  9  2  1  0  0  0  0
  9 13  1  0  0  0  0
 10 11  1  0  0  0  0
 10  2  1  0  0  0  0
 11  3  1  1  0  0  0
 12 19  2  0  0  0  0
 13 28  1  1  0  0  0
 14  8  1  0  0  0  0
 15 25  1  0  0  0  0
 15  4  1  1  0  0  0
 16 46  1  6  0  0  0
 16 15  1  0  0  0  0
 17 13  1  0  0  0  0
 18 17  1  0  0  0  0
 19  6  1  0  0  0  0
 21 20  1  0  0  0  0
 22 26  1  1  0  0  0
 22 25  1  0  0  0  0
 23 22  1  0  0  0  0
 24 23  1  0  0  0  0
 24 21  1  0  0  0  0
 25 20  1  6  0  0  0
 28 29  1  1  0  0  0
 28 27  1  0  0  0  0
 28 30  1  0  0  0  0
 30 31  1  6  0  0  0
 30 32  1  0  0  0  0
 32 33  1  6  0  0  0
 32 35  1  0  0  0  0
 32 36  1  0  0  0  0
 35 34  1  0  0  0  0
 36 40  1  6  0  0  0
 37 36  1  6  0  0  0
 37 39  1  0  0  0  0
 37 38  1  0  0  0  0
 39 38  1  0  0  0  0
 40 42  1  0  0  0  0
 42 41  1  6  0  0  0
 42 44  1  0  0  0  0
 44 43  2  0  0  0  0
 44 45  1  0  0  0  0
 46 52  1  0  0  0  0
 48 51  2  0  0  0  0
 48 50  1  0  0  0  0
 50 49  2  0  0  0  0
 51 47  1  0  0  0  0
 52 49  1  0  0  0  0
 52 47  1  0  0  0  0
 53 48  1  0  0  0  0
 53 54  1  0  0  0  0
 55 53  1  0  0  0  0
 55 54  1  0  0  0  0
M  END
>  <MODEL>
5

>  <REMARK>
 VINA RESULT:      -4.4      1.472      2.620
  Name = 
  13 active torsions:
  status: ('A' for Active; 'I' for Inactive)
    1  A    between atoms: C_1  and  C_53
    2  A    between atoms: C_6  and  C_14
    3  A    between atoms: C_6  and  C_20
    4  A    between atoms: C_6  and  C_53
    5  A    between atoms: C_8  and  C_20
    6  A    between atoms: C_8  and  C_43
    7  A    between atoms: C_10  and  C_32
    8  A    between atoms: C_11  and  C_29
    9  A    between atoms: C_11  and  O_38
   10  A    between atoms: C_26  and  C_45
   11  A    between atoms: C_33  and  C_49
   12  A    between atoms: C_33  and  N_52
   13  A    between atoms: O_38  and  C_53
                            x       y       z     vdW  Elec       q    Type
                         _______ _______ _______ _____ _____    ______ ____

>  <TORSDO>
F 13

$$$$
=
 OpenBabel10262420333D

 55 60  0  0  1  0  0  0  0  0999 V2000
  191.5230  177.1500  137.7010 C   0  0  0  0  0  2  0  0  0  0  0  0
  186.5500  179.2810  136.5940 O   0  0  0  0  0  0  0  0  0  0  0  0
  186.0540  177.1290  134.7160 C   0  0  0  0  0  1  0  0  0  0  0  0
  188.3690  176.6130  134.9440 O   0  0  0  0  0  0  0  0  0  0  0  0
  191.4880  177.2120  140.2020 C   0  0  0  0  0  3  0  0  0  0  0  0
  188.6910  177.1250  140.2160 C   0  0  0  0  0  0  0  0  0  0  0  0
  191.2650  175.9600  137.0050 O   0  0  0  0  0  0  0  0  0  0  0  0
  189.3890  177.1150  139.0050 C   0  0  0  0  0  3  0  0  0  0  0  0
  186.9720  179.4110  137.9190 C   0  0  0  0  0  2  0  0  0  0  0  0
  187.6190  178.6780  135.9210 C   0  0  0  0  0  2  0  0  0  0  0  0
  187.2910  177.2150  135.6070 C   0  0  1  0  0  3  0  0  0  0  0  0
  190.7920  177.2290  141.4160 C   0  0  0  0  0  3  0  0  0  0  0  0
  186.1330  178.5190  138.8370 C   0  0  1  0  0  3  0  0  0  0  0  0
  190.7870  177.1500  138.9960 C   0  0  0  0  0  0  0  0  0  0  0  0
  189.0860  175.9210  135.9300 C   0  0  2  0  0  3  0  0  0  0  0  0
  190.5580  176.3600  135.8600 C   0  0  2  0  0  3  0  0  0  0  0  0
  186.7420  178.4440  140.0960 O   0  0  0  0  0  0  0  0  0  0  0  0
  187.2010  177.1280  140.2070 C   0  0  0  0  0  2  0  0  0  0  0  0
  189.3910  177.1860  141.4220 C   0  0  0  0  0  3  0  0  0  0  0  0
  187.5770  174.0530  135.0590 C   0  0  0  0  0  2  0  0  0  0  0  0
  186.3750  174.1860  136.0010 C   0  0  0  0  0  2  0  0  0  0  0  0
  188.9910  173.6920  137.1700 C   0  0  2  0  0  3  0  0  0  0  0  0
  187.8820  172.6620  137.4090 C   0  0  0  0  0  2  0  0  0  0  0  0
  186.4990  173.3030  137.2480 C   0  0  0  0  0  2  0  0  0  0  0  0
  188.8910  174.3920  135.7920 C   0  0  2  0  0  3  0  0  0  0  0  0
  190.2330  173.0660  137.2840 O   0  0  0  0  0  1  0  0  0  0  0  0
  184.6160  180.3380  138.7190 O   0  0  0  0  0  1  0  0  0  0  0  0
  184.6650  178.9660  138.9720 C   0  0  2  0  0  0  0  0  0  0  0  0
  184.2290  178.7490  140.2680 F   0  0  0  0  0  0  0  0  0  0  0  0
  183.7530  178.2030  137.9780 C   0  0  1  0  0  3  0  0  0  0  0  0
  184.3380  176.9860  137.6220 O   0  0  0  0  0  1  0  0  0  0  0  0
  182.2770  178.0010  138.4100 C   0  0  2  0  0  0  0  0  0  0  0  0
  181.9410  178.9720  139.3610 O   0  0  0  0  0  1  0  0  0  0  0  0
  182.8740  176.4780  140.1810 F   0  0  0  0  0  0  0  0  0  0  0  0
  182.0860  176.6210  139.0480 C   0  0  0  0  0  2  0  0  0  0  0  0
  181.3120  178.1490  137.2050 C   0  0  2  0  0  3  0  0  0  0  0  0
  180.3460  179.3490  137.3280 C   0  0  2  0  0  3  0  0  0  0  0  0
  179.7690  179.6360  136.0770 O   0  0  0  0  0  0  0  0  0  0  0  0
  180.7410  180.5400  136.5370 C   0  0  0  0  0  2  0  0  0  0  0  0
  180.6490  176.9420  136.9300 O   0  0  0  0  0  0  0  0  0  0  0  0
  182.0780  177.4320  135.2130 O   0  0  0  0  0  1  0  0  0  0  0  0
  181.0350  176.5950  135.6250 C   0  0  1  0  0  3  0  0  0  0  0  0
  182.6420  174.8270  135.8670 O   0  0  0  0  0  1  0  0  0  0  0  0
  181.4570  175.1580  135.5860 C   0  0  0  0  0  0  0  0  0  0  0  0
  180.5250  174.1830  135.2720 O   0  0  0  0  0  0  0  0  0  0  0  0
  191.2510  175.8590  134.5940 C   0  0  0  0  0  2  0  0  0  0  0  0
  192.5550  173.7500  134.9570 C   0  0  0  0  0  2  0  0  0  0  0  0
  194.8660  174.0210  135.8380 C   0  0  0  0  0  0  0  0  0  0  0  0
  193.7160  175.9860  134.9620 C   0  0  0  0  0  3  0  0  0  0  0  0
  194.8490  175.4300  135.3920 C   0  0  0  0  0  3  0  0  0  0  0  0
  193.7900  173.2440  135.6530 C   0  0  0  0  0  3  0  0  0  0  0  0
  192.5090  175.2080  134.9200 N   0  0  0  0  0  0  0  0  0  0  0  0
  196.1140  173.4510  136.4620 C   0  0  0  0  0  3  0  0  0  0  0  0
  196.8300  174.5220  137.2860 C   0  0  0  0  0  2  0  0  0  0  0  0
  196.0100  173.4590  137.9800 C   0  0  0  0  0  2  0  0  0  0  0  0
  1 14  1  0  0  0  0
  2  9  1  0  0  0  0
  4 11  1  0  0  0  0
  5 12  1  0  0  0  0
  6 19  1  0  0  0  0
  7  1  1  0  0  0  0
  8  6  2  0  0  0  0
  9 13  1  0  0  0  0
 10  2  1  0  0  0  0
 11  3  1  6  0  0  0
 11 10  1  0  0  0  0
 12 19  2  0  0  0  0
 13 28  1  1  0  0  0
 13 17  1  0  0  0  0
 14  8  1  0  0  0  0
 14  5  2  0  0  0  0
 15  4  1  6  0  0  0
 16 46  1  6  0  0  0
 16 15  1  0  0  0  0
 16  7  1  0  0  0  0
 17 18  1  0  0  0  0
 18  6  1  0  0  0  0
 20 21  1  0  0  0  0
 21 24  1  0  0  0  0
 22 26  1  6  0  0  0
 22 23  1  0  0  0  0
 24 23  1  0  0  0  0
 25 20  1  1  0  0  0
 25 15  1  0  0  0  0
 25 22  1  0  0  0  0
 28 27  1  6  0  0  0
 28 29  1  0  0  0  0
 30 31  1  1  0  0  0
 30 32  1  0  0  0  0
 30 28  1  0  0  0  0
 32 35  1  0  0  0  0
 32 33  1  1  0  0  0
 35 34  1  0  0  0  0
 36 40  1  1  0  0  0
 36 32  1  0  0  0  0
 37 36  1  6  0  0  0
 38 39  1  0  0  0  0
 38 37  1  0  0  0  0
 39 37  1  0  0  0  0
 42 41  1  1  0  0  0
 42 40  1  0  0  0  0
 44 42  1  0  0  0  0
 44 43  1  0  0  0  0
 45 44  2  0  0  0  0
 46 52  1  0  0  0  0
 47 51  1  0  0  0  0
 48 53  1  0  0  0  0
 49 50  2  0  0  0  0
 50 48  1  0  0  0  0
 51 48  2  0  0  0  0
 52 47  1  0  0  0  0
 52 49  1  0  0  0  0
 53 54  1  0  0  0  0
 53 55  1  0  0  0  0
 54 55  1  0  0  0  0
M  END
>  <MODEL>
6

>  <REMARK>
 VINA RESULT:      -4.2      3.468      9.420
  Name = 
  13 active torsions:
  status: ('A' for Active; 'I' for Inactive)
    1  A    between atoms: C_1  and  C_53
    2  A    between atoms: C_6  and  C_14
    3  A    between atoms: C_6  and  C_20
    4  A    between atoms: C_6  and  C_53
    5  A    between atoms: C_8  and  C_20
    6  A    between atoms: C_8  and  C_43
    7  A    between atoms: C_10  and  C_32
    8  A    between atoms: C_11  and  C_29
    9  A    between atoms: C_11  and  O_38
   10  A    between atoms: C_26  and  C_45
   11  A    between atoms: C_33  and  C_49
   12  A    between atoms: C_33  and  N_52
   13  A    between atoms: O_38  and  C_53
                            x       y       z     vdW  Elec       q    Type
                         _______ _______ _______ _____ _____    ______ ____

>  <TORSDO>
F 13

$$$$
=
 OpenBabel10262420333D

 55 60  0  0  1  0  0  0  0  0999 V2000
  184.0860  179.7480  138.3580 C   0  0  0  0  0  2  0  0  0  0  0  0
  184.8990  179.6260  143.8190 O   0  0  0  0  0  0  0  0  0  0  0  0
  182.4590  178.0960  144.1410 C   0  0  0  0  0  1  0  0  0  0  0  0
  182.0110  178.6360  141.8640 O   0  0  0  0  0  0  0  0  0  0  0  0
  186.3630  179.0930  137.5530 C   0  0  0  0  0  3  0  0  0  0  0  0
  186.8840  177.7570  139.9560 C   0  0  0  0  0  0  0  0  0  0  0  0
  183.0400  178.8140  138.4050 O   0  0  0  0  0  0  0  0  0  0  0  0
  185.6570  178.3970  139.7590 C   0  0  0  0  0  3  0  0  0  0  0  0
  186.0590  179.5600  143.0420 C   0  0  0  0  0  2  0  0  0  0  0  0
  183.8490  179.7820  142.9060 C   0  0  0  0  0  2  0  0  0  0  0  0
  183.0520  178.4790  142.7870 C   0  0  1  0  0  3  0  0  0  0  0  0
  187.5950  178.4570  137.7500 C   0  0  0  0  0  3  0  0  0  0  0  0
  186.6920  178.1710  143.1470 C   0  0  1  0  0  3  0  0  0  0  0  0
  185.3910  179.0580  138.5560 C   0  0  0  0  0  0  0  0  0  0  0  0
  182.4820  178.0980  140.6580 C   0  0  2  0  0  3  0  0  0  0  0  0
  182.3080  179.1530  139.5530 C   0  0  2  0  0  3  0  0  0  0  0  0
  187.6750  178.0330  142.1590 O   0  0  0  0  0  0  0  0  0  0  0  0
  187.1660  177.0910  141.2590 C   0  0  0  0  0  2  0  0  0  0  0  0
  187.8550  177.7890  138.9540 C   0  0  0  0  0  3  0  0  0  0  0  0
  182.7290  175.8050  139.5590 C   0  0  0  0  0  2  0  0  0  0  0  0
  182.7910  176.1960  138.0790 C   0  0  0  0  0  2  0  0  0  0  0  0
  180.4450  176.9730  139.6120 C   0  0  2  0  0  3  0  0  0  0  0  0
  180.2500  176.0530  138.4000 C   0  0  0  0  0  2  0  0  0  0  0  0
  181.4110  176.2030  137.4110 C   0  0  0  0  0  2  0  0  0  0  0  0
  181.7930  176.7500  140.3400 C   0  0  2  0  0  3  0  0  0  0  0  0
  179.3940  176.7800  140.5090 O   0  0  0  0  0  1  0  0  0  0  0  0
  186.2150  177.4690  145.3610 O   0  0  0  0  0  1  0  0  0  0  0  0
  187.2750  177.8530  144.5370 C   0  0  2  0  0  0  0  0  0  0  0  0
  187.8490  178.9930  145.0740 F   0  0  0  0  0  0  0  0  0  0  0  0
  188.3310  176.7220  144.4570 C   0  0  1  0  0  3  0  0  0  0  0  0
  188.1410  175.9650  143.2990 O   0  0  0  0  0  1  0  0  0  0  0  0
  189.8150  177.1510  144.6000 C   0  0  2  0  0  0  0  0  0  0  0  0
  189.9390  178.4990  144.2450 O   0  0  0  0  0  1  0  0  0  0  0  0
  190.8930  176.9710  142.4500 F   0  0  0  0  0  0  0  0  0  0  0  0
  190.7060  176.3260  143.6640 C   0  0  0  0  0  2  0  0  0  0  0  0
  190.3110  176.9860  146.0600 C   0  0  2  0  0  3  0  0  0  0  0  0
  191.5400  176.0580  146.1950 C   0  0  2  0  0  3  0  0  0  0  0  0
  191.3870  175.2120  147.3080 O   0  0  0  0  0  0  0  0  0  0  0  0
  192.3220  176.2520  147.4410 C   0  0  0  0  0  2  0  0  0  0  0  0
  189.2610  176.6270  146.9190 O   0  0  0  0  0  0  0  0  0  0  0  0
  189.8570  178.7610  147.4900 O   0  0  0  0  0  1  0  0  0  0  0  0
  189.2960  177.5680  147.9620 C   0  0  1  0  0  3  0  0  0  0  0  0
  187.2110  178.7550  148.0500 O   0  0  0  0  0  0  0  0  0  0  0  0
  187.9110  177.8000  148.4840 C   0  0  0  0  0  0  0  0  0  0  0  0
  187.3860  176.9330  149.4280 O   0  0  0  0  0  1  0  0  0  0  0  0
  180.8390  179.3890  139.2070 C   0  0  0  0  0  2  0  0  0  0  0  0
  180.1430  180.1060  136.9090 C   0  0  0  0  0  2  0  0  0  0  0  0
  180.7530  182.4250  136.2460 C   0  0  0  0  0  0  0  0  0  0  0  0
  180.9070  181.8090  138.6010 C   0  0  0  0  0  3  0  0  0  0  0  0
  180.9250  182.7670  137.6740 C   0  0  0  0  0  3  0  0  0  0  0  0
  180.4090  181.1810  135.8880 C   0  0  0  0  0  3  0  0  0  0  0  0
  180.7080  180.4410  138.2120 N   0  0  0  0  0  0  0  0  0  0  0  0
  180.9260  183.4940  135.1970 C   0  0  0  0  0  3  0  0  0  0  0  0
  179.7090  184.4190  135.1780 C   0  0  0  0  0  2  0  0  0  0  0  0
  180.9900  184.8730  135.8380 C   0  0  0  0  0  2  0  0  0  0  0  0
  1  7  1  0  0  0  0
  1 14  1  0  0  0  0
  4 11  1  0  0  0  0
  5 12  2  0  0  0  0
  5 14  1  0  0  0  0
  6 18  1  0  0  0  0
  7 16  1  0  0  0  0
  8  6  1  0  0  0  0
  9 13  1  0  0  0  0
  9  2  1  0  0  0  0
 10  2  1  0  0  0  0
 11 10  1  0  0  0  0
 11  3  1  1  0  0  0
 12 19  1  0  0  0  0
 13 28  1  1  0  0  0
 14  8  2  0  0  0  0
 15  4  1  1  0  0  0
 16 46  1  6  0  0  0
 16 15  1  0  0  0  0
 17 13  1  0  0  0  0
 18 17  1  0  0  0  0
 19  6  2  0  0  0  0
 21 20  1  0  0  0  0
 22 25  1  0  0  0  0
 22 26  1  1  0  0  0
 23 22  1  0  0  0  0
 24 21  1  0  0  0  0
 24 23  1  0  0  0  0
 25 20  1  6  0  0  0
 25 15  1  0  0  0  0
 28 29  1  1  0  0  0
 28 27  1  0  0  0  0
 30 31  1  6  0  0  0
 30 28  1  0  0  0  0
 30 32  1  0  0  0  0
 32 33  1  6  0  0  0
 32 36  1  0  0  0  0
 34 35  1  0  0  0  0
 35 32  1  0  0  0  0
 36 40  1  1  0  0  0
 37 36  1  1  0  0  0
 37 38  1  0  0  0  0
 37 39  1  0  0  0  0
 38 39  1  0  0  0  0
 40 42  1  0  0  0  0
 42 41  1  6  0  0  0
 42 44  1  0  0  0  0
 43 44  2  0  0  0  0
 44 45  1  0  0  0  0
 47 52  1  0  0  0  0
 48 50  1  0  0  0  0
 50 49  2  0  0  0  0
 51 48  2  0  0  0  0
 51 47  1  0  0  0  0
 52 49  1  0  0  0  0
 52 46  1  0  0  0  0
 53 55  1  0  0  0  0
 53 48  1  0  0  0  0
 54 53  1  0  0  0  0
 54 55  1  0  0  0  0
M  END
>  <MODEL>
7

>  <REMARK>
 VINA RESULT:      -2.8      2.937      4.543
  Name = 
  13 active torsions:
  status: ('A' for Active; 'I' for Inactive)
    1  A    between atoms: C_1  and  C_53
    2  A    between atoms: C_6  and  C_14
    3  A    between atoms: C_6  and  C_20
    4  A    between atoms: C_6  and  C_53
    5  A    between atoms: C_8  and  C_20
    6  A    between atoms: C_8  and  C_43
    7  A    between atoms: C_10  and  C_32
    8  A    between atoms: C_11  and  C_29
    9  A    between atoms: C_11  and  O_38
   10  A    between atoms: C_26  and  C_45
   11  A    between atoms: C_33  and  C_49
   12  A    between atoms: C_33  and  N_52
   13  A    between atoms: O_38  and  C_53
                            x       y       z     vdW  Elec       q    Type
                         _______ _______ _______ _____ _____    ______ ____

>  <TORSDO>
F 13

$$$$
=
 OpenBabel10262420333D

 55 60  0  0  1  0  0  0  0  0999 V2000
  183.4870  177.1300  138.6600 C   0  0  0  0  0  2  0  0  0  0  0  0
  186.5420  172.6740  137.5180 O   0  0  0  0  0  0  0  0  0  0  0  0
  184.3900  171.6260  135.8840 C   0  0  0  0  0  1  0  0  0  0  0  0
  183.0460  173.3470  136.8360 O   0  0  0  0  0  0  0  0  0  0  0  0
  185.1630  178.9400  138.2380 C   0  0  0  0  0  3  0  0  0  0  0  0
  186.5820  177.2870  136.4820 C   0  0  0  0  0  0  0  0  0  0  0  0
  182.5110  176.8130  137.7040 O   0  0  0  0  0  0  0  0  0  0  0  0
  185.4270  176.8160  137.1120 C   0  0  0  0  0  3  0  0  0  0  0  0
  187.2550  173.8700  137.6360 C   0  0  0  0  0  2  0  0  0  0  0  0
  185.2140  173.0010  137.8150 C   0  0  0  0  0  2  0  0  0  0  0  0
  184.3700  173.0060  136.5360 C   0  0  1  0  0  3  0  0  0  0  0  0
  186.3230  179.4120  137.6130 C   0  0  0  0  0  3  0  0  0  0  0  0
  187.7930  174.3070  136.2720 C   0  0  1  0  0  3  0  0  0  0  0  0
  184.7110  177.6430  137.9840 C   0  0  0  0  0  0  0  0  0  0  0  0
  182.9270  174.7150  136.5530 C   0  0  2  0  0  3  0  0  0  0  0  0
  182.3580  175.4210  137.7950 C   0  0  2  0  0  3  0  0  0  0  0  0
  188.2510  175.6270  136.3540 O   0  0  0  0  0  0  0  0  0  0  0  0
  187.3550  176.3790  135.5880 C   0  0  0  0  0  2  0  0  0  0  0  0
  187.0340  178.5830  136.7350 C   0  0  0  0  0  3  0  0  0  0  0  0
  182.4570  176.2890  134.5980 C   0  0  0  0  0  2  0  0  0  0  0  0
  181.7930  177.4650  135.3220 C   0  0  0  0  0  2  0  0  0  0  0  0
  180.5770  174.8340  135.5650 C   0  0  2  0  0  3  0  0  0  0  0  0
  179.7500  175.9630  134.9380 C   0  0  0  0  0  2  0  0  0  0  0  0
  180.2670  177.3330  135.3900 C   0  0  0  0  0  2  0  0  0  0  0  0
  182.0930  174.9500  135.2720 C   0  0  2  0  0  3  0  0  0  0  0  0
  180.1060  173.6060  135.1010 O   0  0  0  0  0  1  0  0  0  0  0  0
  188.3670  172.7290  134.5970 O   0  0  0  0  0  1  0  0  0  0  0  0
  188.8940  173.3870  135.7100 C   0  0  2  0  0  0  0  0  0  0  0  0
  189.2310  172.4330  136.6560 F   0  0  0  0  0  0  0  0  0  0  0  0
  190.1520  174.1970  135.3110 C   0  0  1  0  0  3  0  0  0  0  0  0
  189.7840  175.3460  134.6070 O   0  0  0  0  0  1  0  0  0  0  0  0
  191.1430  174.5420  136.4530 C   0  0  2  0  0  0  0  0  0  0  0  0
  190.6390  174.0490  137.6620 O   0  0  0  0  0  1  0  0  0  0  0  0
  190.6670  176.5360  137.7240 F   0  0  0  0  0  0  0  0  0  0  0  0
  191.3040  176.0610  136.5860 C   0  0  0  0  0  2  0  0  0  0  0  0
  192.5320  173.8980  136.2090 C   0  0  2  0  0  3  0  0  0  0  0  0
  192.4750  172.3690  135.9850 C   0  0  2  0  0  3  0  0  0  0  0  0
  193.6480  171.7650  136.4720 O   0  0  0  0  0  0  0  0  0  0  0  0
  193.5200  171.8410  135.0750 C   0  0  0  0  0  2  0  0  0  0  0  0
  193.4510  174.2680  137.2040 O   0  0  0  0  0  0  0  0  0  0  0  0
  194.1280  176.4350  136.9200 O   0  0  0  0  0  1  0  0  0  0  0  0
  194.3780  175.1040  136.5610 C   0  0  1  0  0  3  0  0  0  0  0  0
  196.7640  175.3780  136.5500 O   0  0  0  0  0  0  0  0  0  0  0  0
  195.7710  174.7040  136.9390 C   0  0  0  0  0  0  0  0  0  0  0  0
  195.9640  173.6000  137.7540 O   0  0  0  0  0  1  0  0  0  0  0  0
  180.8970  175.0530  138.0500 C   0  0  0  0  0  2  0  0  0  0  0  0
  179.9670  177.1800  138.9930 C   0  0  0  0  0  2  0  0  0  0  0  0
  179.6500  177.2470  141.4600 C   0  0  0  0  0  0  0  0  0  0  0  0
  180.0420  175.0880  140.3930 C   0  0  0  0  0  3  0  0  0  0  0  0
  179.6900  175.7700  141.4840 C   0  0  0  0  0  3  0  0  0  0  0  0
  179.8000  177.9050  140.3020 C   0  0  0  0  0  3  0  0  0  0  0  0
  180.3720  175.7920  139.1860 N   0  0  0  0  0  0  0  0  0  0  0  0
  179.3990  178.0080  142.7360 C   0  0  0  0  0  3  0  0  0  0  0  0
  180.6590  178.7640  143.1580 C   0  0  0  0  0  2  0  0  0  0  0  0
  179.5180  179.5070  142.5030 C   0  0  0  0  0  2  0  0  0  0  0  0
  2  9  1  0  0  0  0
  2 10  1  0  0  0  0
  6 19  2  0  0  0  0
  6  8  1  0  0  0  0
  7 16  1  0  0  0  0
  7  1  1  0  0  0  0
  8 14  2  0  0  0  0
 11  3  1  1  0  0  0
 11  4  1  0  0  0  0
 11 10  1  0  0  0  0
 12  5  2  0  0  0  0
 13 28  1  1  0  0  0
 13 17  1  0  0  0  0
 13  9  1  0  0  0  0
 14  5  1  0  0  0  0
 14  1  1  0  0  0  0
 15  4  1  1  0  0  0
 15 16  1  0  0  0  0
 16 46  1  6  0  0  0
 18 17  1  0  0  0  0
 18  6  1  0  0  0  0
 19 12  1  0  0  0  0
 20 21  1  0  0  0  0
 21 24  1  0  0  0  0
 22 26  1  6  0  0  0
 23 24  1  0  0  0  0
 23 22  1  0  0  0  0
 25 20  1  1  0  0  0
 25 22  1  0  0  0  0
 25 15  1  0  0  0  0
 28 27  1  6  0  0  0
 28 29  1  0  0  0  0
 30 31  1  1  0  0  0
 30 28  1  0  0  0  0
 30 32  1  0  0  0  0
 32 35  1  0  0  0  0
 32 33  1  1  0  0  0
 35 34  1  0  0  0  0
 36 32  1  0  0  0  0
 36 40  1  1  0  0  0
 37 36  1  1  0  0  0
 37 38  1  0  0  0  0
 39 37  1  0  0  0  0
 39 38  1  0  0  0  0
 42 41  1  1  0  0  0
 42 44  1  0  0  0  0
 42 40  1  0  0  0  0
 43 44  2  0  0  0  0
 44 45  1  0  0  0  0
 46 52  1  0  0  0  0
 47 52  1  0  0  0  0
 47 51  1  0  0  0  0
 48 50  1  0  0  0  0
 48 53  1  0  0  0  0
 49 50  2  0  0  0  0
 51 48  2  0  0  0  0
 52 49  1  0  0  0  0
 53 54  1  0  0  0  0
 55 53  1  0  0  0  0
 55 54  1  0  0  0  0
M  END
>  <MODEL>
8

>  <REMARK>
 VINA RESULT:      -2.7      4.763      6.842
  Name = 
  13 active torsions:
  status: ('A' for Active; 'I' for Inactive)
    1  A    between atoms: C_1  and  C_53
    2  A    between atoms: C_6  and  C_14
    3  A    between atoms: C_6  and  C_20
    4  A    between atoms: C_6  and  C_53
    5  A    between atoms: C_8  and  C_20
    6  A    between atoms: C_8  and  C_43
    7  A    between atoms: C_10  and  C_32
    8  A    between atoms: C_11  and  C_29
    9  A    between atoms: C_11  and  O_38
   10  A    between atoms: C_26  and  C_45
   11  A    between atoms: C_33  and  C_49
   12  A    between atoms: C_33  and  N_52
   13  A    between atoms: O_38  and  C_53
                            x       y       z     vdW  Elec       q    Type
                         _______ _______ _______ _____ _____    ______ ____

>  <TORSDO>
F 13

$$$$
=
 OpenBabel10262420333D

 55 60  0  0  1  0  0  0  0  0999 V2000
  186.1140  176.5940  137.5360 C   0  0  0  0  0  2  0  0  0  0  0  0
  191.4720  176.6960  136.2030 O   0  0  0  0  0  0  0  0  0  0  0  0
  192.1120  177.6150  138.8770 C   0  0  0  0  0  1  0  0  0  0  0  0
  189.7710  177.9660  139.1420 O   0  0  0  0  0  0  0  0  0  0  0  0
  185.4800  174.3360  136.6630 C   0  0  0  0  0  3  0  0  0  0  0  0
  188.1190  173.4400  136.9170 C   0  0  0  0  0  0  0  0  0  0  0  0
  186.3610  176.7960  138.9020 O   0  0  0  0  0  0  0  0  0  0  0  0
  187.7830  174.7480  137.2780 C   0  0  0  0  0  3  0  0  0  0  0  0
  190.7340  175.6630  135.6210 C   0  0  0  0  0  2  0  0  0  0  0  0
  190.5440  177.4570  136.9230 C   0  0  0  0  0  2  0  0  0  0  0  0
  190.7100  177.2120  138.4270 C   0  0  1  0  0  3  0  0  0  0  0  0
  185.8160  173.0270  136.2950 C   0  0  0  0  0  3  0  0  0  0  0  0
  191.1410  174.3140  136.2160 C   0  0  1  0  0  3  0  0  0  0  0  0
  186.4630  175.1950  137.1600 C   0  0  0  0  0  0  0  0  0  0  0  0
  188.7140  177.0900  139.4280 C   0  0  2  0  0  3  0  0  0  0  0  0
  187.4040  177.7340  138.9430 C   0  0  2  0  0  3  0  0  0  0  0  0
  190.2110  173.3380  135.8370 O   0  0  0  0  0  0  0  0  0  0  0  0
  189.5380  172.9920  137.0120 C   0  0  0  0  0  2  0  0  0  0  0  0
  187.1380  172.5800  136.4220 C   0  0  0  0  0  3  0  0  0  0  0  0
  187.7690  177.6360  141.7380 C   0  0  0  0  0  2  0  0  0  0  0  0
  188.4540  178.9770  142.0240 C   0  0  0  0  0  2  0  0  0  0  0  0
  190.1300  176.6580  141.5070 C   0  0  2  0  0  3  0  0  0  0  0  0
  190.2610  177.3630  142.8620 C   0  0  0  0  0  2  0  0  0  0  0  0
  189.7830  178.8160  142.7690 C   0  0  0  0  0  2  0  0  0  0  0  0
  188.6950  176.7070  140.9270 C   0  0  2  0  0  3  0  0  0  0  0  0
  190.5340  175.3290  141.6380 O   0  0  0  0  0  1  0  0  0  0  0  0
  192.8780  174.4400  134.6050 O   0  0  0  0  0  1  0  0  0  0  0  0
  192.5700  173.8730  135.8430 C   0  0  2  0  0  0  0  0  0  0  0  0
  192.6120  172.4950  135.7100 F   0  0  0  0  0  0  0  0  0  0  0  0
  193.5940  174.3270  136.9130 C   0  0  1  0  0  3  0  0  0  0  0  0
  192.9940  174.3590  138.1740 O   0  0  0  0  0  1  0  0  0  0  0  0
  194.9360  173.5520  136.9590 C   0  0  2  0  0  0  0  0  0  0  0  0
  195.1920  173.0030  135.6970 O   0  0  0  0  0  1  0  0  0  0  0  0
  195.0540  171.1760  137.3570 F   0  0  0  0  0  0  0  0  0  0  0  0
  194.8600  172.4040  137.9730 C   0  0  0  0  0  2  0  0  0  0  0  0
  196.1160  174.4870  137.3290 C   0  0  2  0  0  3  0  0  0  0  0  0
  197.1090  174.7220  136.1660 C   0  0  2  0  0  3  0  0  0  0  0  0
  197.8440  175.9000  136.3890 O   0  0  0  0  0  0  0  0  0  0  0  0
  196.8610  175.9580  135.3870 C   0  0  0  0  0  2  0  0  0  0  0  0
  196.7500  174.0700  138.5090 O   0  0  0  0  0  0  0  0  0  0  0  0
  195.5500  175.1870  140.1050 O   0  0  0  0  0  1  0  0  0  0  0  0
  196.7340  175.1900  139.3560 C   0  0  1  0  0  3  0  0  0  0  0  0
  197.8110  175.3570  141.4960 O   0  0  0  0  0  1  0  0  0  0  0  0
  197.9320  175.1660  140.2550 C   0  0  0  0  0  0  0  0  0  0  0  0
  199.1800  174.8950  139.7170 O   0  0  0  0  0  0  0  0  0  0  0  0
  187.0090  178.9460  139.7860 C   0  0  0  0  0  2  0  0  0  0  0  0
  184.9430  178.9990  141.2030 C   0  0  0  0  0  2  0  0  0  0  0  0
  182.7720  178.9720  139.9890 C   0  0  0  0  0  0  0  0  0  0  0  0
  184.8060  179.4480  138.7280 C   0  0  0  0  0  3  0  0  0  0  0  0
  183.4730  179.4190  138.7670 C   0  0  0  0  0  3  0  0  0  0  0  0
  183.4600  178.7560  141.1180 C   0  0  0  0  0  3  0  0  0  0  0  0
  185.5630  179.0550  139.8830 N   0  0  0  0  0  0  0  0  0  0  0  0
  181.2750  178.8000  139.9690 C   0  0  0  0  0  3  0  0  0  0  0  0
  180.9100  177.3990  139.4760 C   0  0  0  0  0  2  0  0  0  0  0  0
  180.8430  177.7200  140.9510 C   0  0  0  0  0  2  0  0  0  0  0  0
  1  7  1  0  0  0  0
  2 10  1  0  0  0  0
  5 14  1  0  0  0  0
  6 18  1  0  0  0  0
  6  8  1  0  0  0  0
  7 16  1  0  0  0  0
  9  2  1  0  0  0  0
  9 13  1  0  0  0  0
 10 11  1  0  0  0  0
 11  3  1  1  0  0  0
 11  4  1  0  0  0  0
 12 19  1  0  0  0  0
 12  5  2  0  0  0  0
 13 28  1  6  0  0  0
 14  8  2  0  0  0  0
 14  1  1  0  0  0  0
 15  4  1  1  0  0  0
 15 25  1  0  0  0  0
 16 15  1  0  0  0  0
 16 46  1  1  0  0  0
 17 13  1  0  0  0  0
 17 18  1  0  0  0  0
 19  6  2  0  0  0  0
 20 21  1  0  0  0  0
 21 24  1  0  0  0  0
 22 26  1  1  0  0  0
 22 23  1  0  0  0  0
 24 23  1  0  0  0  0
 25 22  1  0  0  0  0
 25 20  1  1  0  0  0
 28 27  1  6  0  0  0
 28 30  1  0  0  0  0
 29 28  1  0  0  0  0
 30 32  1  0  0  0  0
 30 31  1  1  0  0  0
 32 33  1  6  0  0  0
 32 36  1  0  0  0  0
 32 35  1  0  0  0  0
 34 35  1  0  0  0  0
 36 40  1  1  0  0  0
 37 38  1  0  0  0  0
 37 36  1  1  0  0  0
 39 37  1  0  0  0  0
 39 38  1  0  0  0  0
 40 42  1  0  0  0  0
 42 41  1  1  0  0  0
 42 44  1  0  0  0  0
 44 43  1  0  0  0  0
 45 44  2  0  0  0  0
 46 52  1  0  0  0  0
 48 51  2  0  0  0  0
 49 50  2  0  0  0  0
 49 52  1  0  0  0  0
 50 48  1  0  0  0  0
 51 47  1  0  0  0  0
 52 47  1  0  0  0  0
 53 48  1  0  0  0  0
 53 55  1  0  0  0  0
 54 53  1  0  0  0  0
 54 55  1  0  0  0  0
M  END
>  <MODEL>
9

>  <REMARK>
 VINA RESULT:      -2.4      4.741      7.901
  Name = 
  13 active torsions:
  status: ('A' for Active; 'I' for Inactive)
    1  A    between atoms: C_1  and  C_53
    2  A    between atoms: C_6  and  C_14
    3  A    between atoms: C_6  and  C_20
    4  A    between atoms: C_6  and  C_53
    5  A    between atoms: C_8  and  C_20
    6  A    between atoms: C_8  and  C_43
    7  A    between atoms: C_10  and  C_32
    8  A    between atoms: C_11  and  C_29
    9  A    between atoms: C_11  and  O_38
   10  A    between atoms: C_26  and  C_45
   11  A    between atoms: C_33  and  C_49
   12  A    between atoms: C_33  and  N_52
   13  A    between atoms: O_38  and  C_53
                            x       y       z     vdW  Elec       q    Type
                         _______ _______ _______ _____ _____    ______ ____

>  <TORSDO>
F 13

$$$$
