=
 OpenBabel10262419223D

 31 34  0  0  1  0  0  0  0  0999 V2000
  188.6170  178.0070  142.7970 C   0  0  0  0  0  0  0  0  0  0  0  0
  187.6590  178.0520  143.8460 C   0  0  0  0  0  0  0  0  0  0  0  0
  187.0670  177.9070  146.2060 C   0  0  0  0  0  3  0  0  0  0  0  0
  188.0240  177.8600  145.1900 C   0  0  0  0  0  3  0  0  0  0  0  0
  185.8950  178.5040  142.2260 C   0  0  0  0  0  3  0  0  0  0  0  0
  185.7280  178.1480  145.8930 C   0  0  0  0  0  0  0  0  0  0  0  0
  188.1870  178.2190  141.4660 C   0  0  0  0  0  0  0  0  0  0  0  0
  184.7110  178.1970  146.9760 C   0  0  0  0  0  1  0  0  0  0  0  0
  186.8330  178.4700  141.1980 C   0  0  0  0  0  3  0  0  0  0  0  0
  186.2960  178.2960  143.5430 C   0  0  0  0  0  0  0  0  0  0  0  0
  185.3430  178.3420  144.5650 C   0  0  0  0  0  3  0  0  0  0  0  0
  191.8050  178.5450  144.4620 O   0  0  0  0  0  0  0  0  0  0  0  0
  190.0910  177.7610  143.0470 C   0  0  1  0  0  3  0  0  0  0  0  0
  191.3050  177.3670  145.0440 C   0  0  0  0  0  2  0  0  0  0  0  0
  190.8020  178.9820  143.5810 C   0  0  0  0  0  2  0  0  0  0  0  0
  190.3490  176.6970  144.0740 C   0  0  2  0  0  3  0  0  0  0  0  0
  192.0930  174.9450  144.3190 C   0  0  0  0  0  1  0  0  0  0  0  0
  191.0180  175.5080  143.4090 C   0  0  0  0  0  2  0  0  0  0  0  0
  189.1730  178.2410  140.3280 C   0  0  2  0  0  3  0  0  0  0  0  0
  188.5700  178.8620  139.1610 N   0  0  0  0  0  1  0  0  0  0  0  0
  189.6540  176.8380  139.9730 C   0  0  0  0  0  2  0  0  0  0  0  0
  192.0690  177.2910  140.1600 C   0  0  0  0  0  1  0  0  0  0  0  0
  190.9580  176.9010  139.2010 C   0  0  1  0  0  3  0  0  0  0  0  0
  191.2260  175.6200  138.6350 O   0  0  0  0  0  0  0  0  0  0  0  0
  194.3600  175.2470  136.6830 C   0  0  0  0  0  0  0  0  0  0  0  0
  192.4710  175.4920  135.0670 C   0  0  0  0  0  2  0  0  0  0  0  0
  195.5890  175.2950  136.9490 O   0  0  0  0  0  0  0  0  0  0  0  0
  193.3790  174.7690  137.7140 C   0  0  0  0  0  2  0  0  0  0  0  0
  191.6200  175.7580  136.2770 C   0  0  0  0  0  3  0  0  0  0  0  0
  192.0310  175.4100  137.5080 C   0  0  0  0  0  0  0  0  0  0  0  0
  193.8840  175.6550  135.3980 N   0  0  0  0  0  2  0  0  0  0  0  0
  1  2  1  0  0  0  0
  2  4  1  0  0  0  0
  4  3  2  0  0  0  0
  5 10  1  0  0  0  0
  6  3  1  0  0  0  0
  6  8  1  0  0  0  0
  7  1  2  0  0  0  0
  9  7  1  0  0  0  0
  9  5  2  0  0  0  0
 10  2  2  0  0  0  0
 10 11  1  0  0  0  0
 11  6  2  0  0  0  0
 12 14  1  0  0  0  0
 13  1  1  1  0  0  0
 13 15  1  0  0  0  0
 13 16  1  0  0  0  0
 15 12  1  0  0  0  0
 16 18  1  6  0  0  0
 16 14  1  0  0  0  0
 18 17  1  0  0  0  0
 19 20  1  6  0  0  0
 19  7  1  0  0  0  0
 21 19  1  0  0  0  0
 23 21  1  0  0  0  0
 23 22  1  1  0  0  0
 24 23  1  0  0  0  0
 25 27  2  0  0  0  0
 25 28  1  0  0  0  0
 26 31  1  0  0  0  0
 26 29  1  0  0  0  0
 29 30  2  0  0  0  0
 30 28  1  0  0  0  0
 30 24  1  0  0  0  0
 31 25  1  0  0  0  0
M  END
>  <MODEL>
1

>  <REMARK>
 VINA RESULT:      -8.5      0.000      0.000
  Name = 
  7 active torsions:
  status: ('A' for Active; 'I' for Inactive)
    1  A    between atoms: O_3  and  C_9
    2  A    between atoms: O_3  and  C_22
    3  A    between atoms: C_4  and  C_12
    4  A    between atoms: C_9  and  C_23
    5  A    between atoms: C_15  and  C_21
    6  A    between atoms: C_15  and  C_23
    7  A    between atoms: C_27  and  C_28
                            x       y       z     vdW  Elec       q    Type
                         _______ _______ _______ _____ _____    ______ ____

>  <TORSDO>
F 7

$$$$
=
 OpenBabel10262419223D

 31 34  0  0  1  0  0  0  0  0999 V2000
  187.9650  177.9140  145.0970 C   0  0  0  0  0  0  0  0  0  0  0  0
  186.5690  178.1490  144.9670 C   0  0  0  0  0  0  0  0  0  0  0  0
  184.3860  178.6360  145.9360 C   0  0  0  0  0  3  0  0  0  0  0  0
  185.7550  178.4080  146.0840 C   0  0  0  0  0  3  0  0  0  0  0  0
  186.7410  177.8840  142.5510 C   0  0  0  0  0  3  0  0  0  0  0  0
  183.8070  178.6090  144.6650 C   0  0  0  0  0  0  0  0  0  0  0  0
  188.7300  177.6700  143.9330 C   0  0  0  0  0  0  0  0  0  0  0  0
  182.3490  178.8520  144.5090 C   0  0  0  0  0  1  0  0  0  0  0  0
  188.1090  177.6640  142.6740 C   0  0  0  0  0  3  0  0  0  0  0  0
  185.9680  178.1250  143.6830 C   0  0  0  0  0  0  0  0  0  0  0  0
  184.5960  178.3540  143.5410 C   0  0  0  0  0  3  0  0  0  0  0  0
  188.1950  178.4170  148.6910 O   0  0  0  0  0  0  0  0  0  0  0  0
  188.6750  177.9340  146.4350 C   0  0  1  0  0  3  0  0  0  0  0  0
  188.0890  177.0230  148.5440 C   0  0  0  0  0  2  0  0  0  0  0  0
  188.0830  178.9410  147.3920 C   0  0  0  0  0  2  0  0  0  0  0  0
  188.5960  176.6260  147.1680 C   0  0  2  0  0  3  0  0  0  0  0  0
  191.0150  177.1220  147.4480 C   0  0  0  0  0  1  0  0  0  0  0  0
  189.9850  176.0230  147.2720 C   0  0  0  0  0  2  0  0  0  0  0  0
  190.2210  177.4750  144.0130 C   0  0  2  0  0  3  0  0  0  0  0  0
  190.8980  178.7490  143.8410 N   0  0  0  0  0  1  0  0  0  0  0  0
  190.7150  176.4840  142.9650 C   0  0  0  0  0  2  0  0  0  0  0  0
  192.4260  177.3670  141.4280 C   0  0  0  0  0  1  0  0  0  0  0  0
  190.9350  177.1800  141.6350 C   0  0  1  0  0  3  0  0  0  0  0  0
  190.3920  176.3720  140.5920 O   0  0  0  0  0  0  0  0  0  0  0  0
  188.6530  178.1490  137.8380 C   0  0  0  0  0  0  0  0  0  0  0  0
  190.3550  176.6310  136.8200 C   0  0  0  0  0  2  0  0  0  0  0  0
  187.6110  178.8490  137.7440 O   0  0  0  0  0  0  0  0  0  0  0  0
  189.4470  178.1390  139.1120 C   0  0  0  0  0  2  0  0  0  0  0  0
  190.5690  176.1200  138.2170 C   0  0  0  0  0  3  0  0  0  0  0  0
  190.1610  176.8240  139.2870 C   0  0  0  0  0  0  0  0  0  0  0  0
  189.0880  177.3510  136.7350 N   0  0  0  0  0  2  0  0  0  0  0  0
  2  1  1  0  0  0  0
  2  4  1  0  0  0  0
  3  4  2  0  0  0  0
  5  9  2  0  0  0  0
  5 10  1  0  0  0  0
  6  3  1  0  0  0  0
  7 19  1  0  0  0  0
  7  1  2  0  0  0  0
  8  6  1  0  0  0  0
  9  7  1  0  0  0  0
 10  2  2  0  0  0  0
 11 10  1  0  0  0  0
 11  6  2  0  0  0  0
 13  1  1  6  0  0  0
 13 16  1  0  0  0  0
 13 15  1  0  0  0  0
 14 12  1  0  0  0  0
 15 12  1  0  0  0  0
 16 18  1  1  0  0  0
 16 14  1  0  0  0  0
 18 17  1  0  0  0  0
 19 20  1  6  0  0  0
 21 19  1  0  0  0  0
 23 22  1  6  0  0  0
 23 21  1  0  0  0  0
 24 23  1  0  0  0  0
 25 28  1  0  0  0  0
 26 29  1  0  0  0  0
 27 25  2  0  0  0  0
 28 30  1  0  0  0  0
 29 30  2  0  0  0  0
 30 24  1  0  0  0  0
 31 26  1  0  0  0  0
 31 25  1  0  0  0  0
M  END
>  <MODEL>
2

>  <REMARK>
 VINA RESULT:      -8.3      2.388      3.816
  Name = 
  7 active torsions:
  status: ('A' for Active; 'I' for Inactive)
    1  A    between atoms: O_3  and  C_9
    2  A    between atoms: O_3  and  C_22
    3  A    between atoms: C_4  and  C_12
    4  A    between atoms: C_9  and  C_23
    5  A    between atoms: C_15  and  C_21
    6  A    between atoms: C_15  and  C_23
    7  A    between atoms: C_27  and  C_28
                            x       y       z     vdW  Elec       q    Type
                         _______ _______ _______ _____ _____    ______ ____

>  <TORSDO>
F 7

$$$$
=
 OpenBabel10262419223D

 31 34  0  0  1  0  0  0  0  0999 V2000
  188.8050  177.9340  142.7770 C   0  0  0  0  0  0  0  0  0  0  0  0
  187.8260  178.0010  143.8060 C   0  0  0  0  0  0  0  0  0  0  0  0
  187.1930  177.9440  146.1590 C   0  0  0  0  0  3  0  0  0  0  0  0
  188.1700  177.8760  145.1640 C   0  0  0  0  0  3  0  0  0  0  0  0
  186.0840  178.3410  142.1370 C   0  0  0  0  0  3  0  0  0  0  0  0
  185.8550  178.1400  145.8120 C   0  0  0  0  0  0  0  0  0  0  0  0
  188.3950  178.0780  141.4310 C   0  0  0  0  0  0  0  0  0  0  0  0
  184.8170  178.2120  146.8730 C   0  0  0  0  0  1  0  0  0  0  0  0
  187.0410  178.2850  141.1290 C   0  0  0  0  0  3  0  0  0  0  0  0
  186.4640  178.2000  143.4690 C   0  0  0  0  0  0  0  0  0  0  0  0
  185.4910  178.2670  144.4700 C   0  0  0  0  0  3  0  0  0  0  0  0
  191.9270  178.5570  144.5330 O   0  0  0  0  0  0  0  0  0  0  0  0
  190.2790  177.7330  143.0640 C   0  0  1  0  0  3  0  0  0  0  0  0
  191.4520  177.3560  145.0890 C   0  0  0  0  0  2  0  0  0  0  0  0
  190.9340  178.9700  143.6310 C   0  0  0  0  0  2  0  0  0  0  0  0
  190.5440  176.6660  144.0860 C   0  0  2  0  0  3  0  0  0  0  0  0
  192.1020  174.7660  144.4560 C   0  0  0  0  0  1  0  0  0  0  0  0
  191.2700  175.5080  143.4270 C   0  0  0  0  0  2  0  0  0  0  0  0
  189.4020  178.0740  140.3110 C   0  0  2  0  0  3  0  0  0  0  0  0
  189.0520  179.0830  139.3270 N   0  0  0  0  0  1  0  0  0  0  0  0
  189.4890  176.7080  139.6390 C   0  0  0  0  0  2  0  0  0  0  0  0
  191.2130  176.4750  137.8940 C   0  0  0  0  0  1  0  0  0  0  0  0
  189.7690  176.8620  138.1560 C   0  0  1  0  0  3  0  0  0  0  0  0
  188.8920  176.0050  137.4250 O   0  0  0  0  0  0  0  0  0  0  0  0
  185.6820  177.8510  137.6500 C   0  0  0  0  0  0  0  0  0  0  0  0
  185.1810  175.5280  136.8820 C   0  0  0  0  0  2  0  0  0  0  0  0
  185.3120  178.9430  138.1560 O   0  0  0  0  0  0  0  0  0  0  0  0
  187.0820  177.6910  137.1330 C   0  0  0  0  0  2  0  0  0  0  0  0
  186.6380  175.2530  137.1300 C   0  0  0  0  0  3  0  0  0  0  0  0
  187.5280  176.2550  137.2330 C   0  0  0  0  0  0  0  0  0  0  0  0
  184.7740  176.7500  137.5690 N   0  0  0  0  0  2  0  0  0  0  0  0
  1  2  1  0  0  0  0
  2  4  1  0  0  0  0
  4  3  2  0  0  0  0
  5 10  1  0  0  0  0
  6  3  1  0  0  0  0
  6  8  1  0  0  0  0
  7  1  2  0  0  0  0
  9  7  1  0  0  0  0
  9  5  2  0  0  0  0
 10  2  2  0  0  0  0
 10 11  1  0  0  0  0
 11  6  2  0  0  0  0
 12 14  1  0  0  0  0
 13  1  1  1  0  0  0
 13 15  1  0  0  0  0
 13 16  1  0  0  0  0
 15 12  1  0  0  0  0
 16 18  1  6  0  0  0
 16 14  1  0  0  0  0
 18 17  1  0  0  0  0
 19 20  1  6  0  0  0
 19  7  1  0  0  0  0
 21 19  1  0  0  0  0
 23 22  1  1  0  0  0
 23 21  1  0  0  0  0
 24 23  1  0  0  0  0
 25 27  2  0  0  0  0
 26 29  1  0  0  0  0
 26 31  1  0  0  0  0
 28 30  1  0  0  0  0
 28 25  1  0  0  0  0
 29 30  2  0  0  0  0
 30 24  1  0  0  0  0
 31 25  1  0  0  0  0
M  END
>  <MODEL>
3

>  <REMARK>
 VINA RESULT:      -8.3      2.353      3.858
  Name = 
  7 active torsions:
  status: ('A' for Active; 'I' for Inactive)
    1  A    between atoms: O_3  and  C_9
    2  A    between atoms: O_3  and  C_22
    3  A    between atoms: C_4  and  C_12
    4  A    between atoms: C_9  and  C_23
    5  A    between atoms: C_15  and  C_21
    6  A    between atoms: C_15  and  C_23
    7  A    between atoms: C_27  and  C_28
                            x       y       z     vdW  Elec       q    Type
                         _______ _______ _______ _____ _____    ______ ____

>  <TORSDO>
F 7

$$$$
=
 OpenBabel10262419223D

 31 34  0  0  1  0  0  0  0  0999 V2000
  188.6170  177.9760  142.6900 C   0  0  0  0  0  0  0  0  0  0  0  0
  187.6400  178.0400  143.7210 C   0  0  0  0  0  0  0  0  0  0  0  0
  187.0040  177.9190  146.0710 C   0  0  0  0  0  3  0  0  0  0  0  0
  187.9780  177.8530  145.0730 C   0  0  0  0  0  3  0  0  0  0  0  0
  185.9120  178.4980  142.0660 C   0  0  0  0  0  3  0  0  0  0  0  0
  185.6730  178.1730  145.7320 C   0  0  0  0  0  0  0  0  0  0  0  0
  188.2130  178.1820  141.3500 C   0  0  0  0  0  0  0  0  0  0  0  0
  184.6370  178.2420  146.7950 C   0  0  0  0  0  1  0  0  0  0  0  0
  186.8670  178.4460  141.0560 C   0  0  0  0  0  3  0  0  0  0  0  0
  186.2850  178.2970  143.3910 C   0  0  0  0  0  0  0  0  0  0  0  0
  185.3150  178.3610  144.3950 C   0  0  0  0  0  3  0  0  0  0  0  0
  191.7820  178.4990  144.4010 O   0  0  0  0  0  0  0  0  0  0  0  0
  190.0830  177.7150  142.9690 C   0  0  1  0  0  3  0  0  0  0  0  0
  191.2580  177.3360  144.9920 C   0  0  0  0  0  2  0  0  0  0  0  0
  190.8000  178.9350  143.4970 C   0  0  0  0  0  2  0  0  0  0  0  0
  190.3100  176.6630  144.0160 C   0  0  2  0  0  3  0  0  0  0  0  0
  192.0800  174.9410  144.2820 C   0  0  0  0  0  1  0  0  0  0  0  0
  190.9750  175.4560  143.3810 C   0  0  0  0  0  2  0  0  0  0  0  0
  189.2200  178.1840  140.2300 C   0  0  2  0  0  3  0  0  0  0  0  0
  188.7010  178.9320  139.0980 N   0  0  0  0  0  1  0  0  0  0  0  0
  189.5760  176.7680  139.7910 C   0  0  0  0  0  2  0  0  0  0  0  0
  192.0110  177.0900  139.9810 C   0  0  0  0  0  1  0  0  0  0  0  0
  190.8830  176.7620  139.0210 C   0  0  1  0  0  3  0  0  0  0  0  0
  191.0820  175.4680  138.4540 O   0  0  0  0  0  0  0  0  0  0  0  0
  188.9440  175.6380  135.4270 C   0  0  0  0  0  0  0  0  0  0  0  0
  189.5370  173.2430  135.8150 C   0  0  0  0  0  2  0  0  0  0  0  0
  188.2110  176.5140  134.8980 O   0  0  0  0  0  0  0  0  0  0  0  0
  190.1590  176.0380  136.2120 C   0  0  0  0  0  2  0  0  0  0  0  0
  190.1620  173.7230  137.0960 C   0  0  0  0  0  3  0  0  0  0  0  0
  190.4650  175.0200  137.2790 C   0  0  0  0  0  0  0  0  0  0  0  0
  188.6220  174.2520  135.2910 N   0  0  0  0  0  2  0  0  0  0  0  0
  1  2  1  0  0  0  0
  2  4  1  0  0  0  0
  4  3  2  0  0  0  0
  5 10  1  0  0  0  0
  6  3  1  0  0  0  0
  6  8  1  0  0  0  0
  7  1  2  0  0  0  0
  9  7  1  0  0  0  0
  9  5  2  0  0  0  0
 10  2  2  0  0  0  0
 10 11  1  0  0  0  0
 11  6  2  0  0  0  0
 12 14  1  0  0  0  0
 13  1  1  1  0  0  0
 13 15  1  0  0  0  0
 13 16  1  0  0  0  0
 15 12  1  0  0  0  0
 16 18  1  6  0  0  0
 16 14  1  0  0  0  0
 18 17  1  0  0  0  0
 19 20  1  6  0  0  0
 19  7  1  0  0  0  0
 21 19  1  0  0  0  0
 23 21  1  0  0  0  0
 23 22  1  1  0  0  0
 24 23  1  0  0  0  0
 25 28  1  0  0  0  0
 26 29  1  0  0  0  0
 27 25  2  0  0  0  0
 28 30  1  0  0  0  0
 29 30  2  0  0  0  0
 30 24  1  0  0  0  0
 31 25  1  0  0  0  0
 31 26  1  0  0  0  0
M  END
>  <MODEL>
4

>  <REMARK>
 VINA RESULT:      -8.2      1.695      2.268
  Name = 
  7 active torsions:
  status: ('A' for Active; 'I' for Inactive)
    1  A    between atoms: O_3  and  C_9
    2  A    between atoms: O_3  and  C_22
    3  A    between atoms: C_4  and  C_12
    4  A    between atoms: C_9  and  C_23
    5  A    between atoms: C_15  and  C_21
    6  A    between atoms: C_15  and  C_23
    7  A    between atoms: C_27  and  C_28
                            x       y       z     vdW  Elec       q    Type
                         _______ _______ _______ _____ _____    ______ ____

>  <TORSDO>
F 7

$$$$
=
 OpenBabel10262419223D

 31 34  0  0  1  0  0  0  0  0999 V2000
  188.3940  177.1890  142.9250 C   0  0  0  0  0  0  0  0  0  0  0  0
  187.1540  177.6870  143.4110 C   0  0  0  0  0  0  0  0  0  0  0  0
  185.5210  177.9790  145.1960 C   0  0  0  0  0  3  0  0  0  0  0  0
  186.7430  177.4810  144.7390 C   0  0  0  0  0  3  0  0  0  0  0  0
  186.6750  178.6490  141.2230 C   0  0  0  0  0  3  0  0  0  0  0  0
  184.6890  178.6910  144.3300 C   0  0  0  0  0  0  0  0  0  0  0  0
  188.7540  177.4390  141.5800 C   0  0  0  0  0  0  0  0  0  0  0  0
  183.3890  179.2200  144.8190 C   0  0  0  0  0  1  0  0  0  0  0  0
  187.8930  178.1710  140.7480 C   0  0  0  0  0  3  0  0  0  0  0  0
  186.3000  178.4130  142.5430 C   0  0  0  0  0  0  0  0  0  0  0  0
  185.0780  178.9080  143.0070 C   0  0  0  0  0  3  0  0  0  0  0  0
  191.4800  175.3990  143.6270 O   0  0  0  0  0  0  0  0  0  0  0  0
  189.3600  176.4140  143.7970 C   0  0  1  0  0  3  0  0  0  0  0  0
  191.6840  176.6720  144.1890 C   0  0  0  0  0  2  0  0  0  0  0  0
  190.2230  175.4610  143.0040 C   0  0  0  0  0  2  0  0  0  0  0  0
  190.3380  177.2910  144.5240 C   0  0  2  0  0  3  0  0  0  0  0  0
  191.3290  176.7490  146.7370 C   0  0  0  0  0  1  0  0  0  0  0  0
  190.0760  177.2080  146.0160 C   0  0  0  0  0  2  0  0  0  0  0  0
  190.0820  176.9840  141.0370 C   0  0  2  0  0  3  0  0  0  0  0  0
  191.0190  178.0950  141.0220 N   0  0  0  0  0  1  0  0  0  0  0  0
  189.9470  176.4060  139.6330 C   0  0  0  0  0  2  0  0  0  0  0  0
  191.9130  175.8200  138.2670 C   0  0  0  0  0  1  0  0  0  0  0  0
  191.0240  176.9630  138.7210 C   0  0  1  0  0  3  0  0  0  0  0  0
  190.4060  177.5810  137.5940 O   0  0  0  0  0  0  0  0  0  0  0  0
  186.7280  178.0170  137.3670 C   0  0  0  0  0  0  0  0  0  0  0  0
  187.3060  175.8150  136.3390 C   0  0  0  0  0  2  0  0  0  0  0  0
  185.8870  178.8000  137.8810 O   0  0  0  0  0  0  0  0  0  0  0  0
  188.1330  178.4770  137.1060 C   0  0  0  0  0  2  0  0  0  0  0  0
  188.7020  176.0810  136.8290 C   0  0  0  0  0  3  0  0  0  0  0  0
  189.0960  177.3200  137.1730 C   0  0  0  0  0  0  0  0  0  0  0  0
  186.3550  176.6780  137.0330 N   0  0  0  0  0  2  0  0  0  0  0  0
  1  2  1  0  0  0  0
  2  4  1  0  0  0  0
  4  3  2  0  0  0  0
  5 10  1  0  0  0  0
  6  8  1  0  0  0  0
  6  3  1  0  0  0  0
  7  1  2  0  0  0  0
  9  5  2  0  0  0  0
  9  7  1  0  0  0  0
 10 11  1  0  0  0  0
 10  2  2  0  0  0  0
 11  6  2  0  0  0  0
 12 14  1  0  0  0  0
 13  1  1  6  0  0  0
 13 16  1  0  0  0  0
 14 16  1  0  0  0  0
 15 12  1  0  0  0  0
 15 13  1  0  0  0  0
 16 18  1  1  0  0  0
 18 17  1  0  0  0  0
 19 20  1  6  0  0  0
 19  7  1  0  0  0  0
 21 19  1  0  0  0  0
 23 22  1  6  0  0  0
 23 21  1  0  0  0  0
 24 23  1  0  0  0  0
 25 27  2  0  0  0  0
 26 29  1  0  0  0  0
 26 31  1  0  0  0  0
 28 30  1  0  0  0  0
 28 25  1  0  0  0  0
 29 30  2  0  0  0  0
 30 24  1  0  0  0  0
 31 25  1  0  0  0  0
M  END
>  <MODEL>
5

>  <REMARK>
 VINA RESULT:      -8.1      2.314      3.703
  Name = 
  7 active torsions:
  status: ('A' for Active; 'I' for Inactive)
    1  A    between atoms: O_3  and  C_9
    2  A    between atoms: O_3  and  C_22
    3  A    between atoms: C_4  and  C_12
    4  A    between atoms: C_9  and  C_23
    5  A    between atoms: C_15  and  C_21
    6  A    between atoms: C_15  and  C_23
    7  A    between atoms: C_27  and  C_28
                            x       y       z     vdW  Elec       q    Type
                         _______ _______ _______ _____ _____    ______ ____

>  <TORSDO>
F 7

$$$$
=
 OpenBabel10262419223D

 31 34  0  0  1  0  0  0  0  0999 V2000
  188.6880  177.9750  142.6440 C   0  0  0  0  0  0  0  0  0  0  0  0
  187.6750  178.0410  143.6390 C   0  0  0  0  0  0  0  0  0  0  0  0
  186.9550  177.9400  145.9650 C   0  0  0  0  0  3  0  0  0  0  0  0
  187.9660  177.8720  145.0040 C   0  0  0  0  0  3  0  0  0  0  0  0
  186.0040  178.4690  141.9180 C   0  0  0  0  0  3  0  0  0  0  0  0
  185.6360  178.1790  145.5760 C   0  0  0  0  0  0  0  0  0  0  0  0
  188.3320  178.1650  141.2880 C   0  0  0  0  0  0  0  0  0  0  0  0
  184.5620  178.2510  146.6010 C   0  0  0  0  0  1  0  0  0  0  0  0
  186.9950  178.4150  140.9430 C   0  0  0  0  0  3  0  0  0  0  0  0
  186.3310  178.2840  143.2580 C   0  0  0  0  0  0  0  0  0  0  0  0
  185.3240  178.3510  144.2250 C   0  0  0  0  0  3  0  0  0  0  0  0
  191.7700  178.5000  144.5010 O   0  0  0  0  0  0  0  0  0  0  0  0
  190.1460  177.7290  142.9780 C   0  0  1  0  0  3  0  0  0  0  0  0
  191.2410  177.3130  145.0390 C   0  0  0  0  0  2  0  0  0  0  0  0
  190.8190  178.9450  143.5690 C   0  0  0  0  0  2  0  0  0  0  0  0
  190.3450  176.6530  144.0060 C   0  0  2  0  0  3  0  0  0  0  0  0
  192.0560  174.8840  144.3440 C   0  0  0  0  0  1  0  0  0  0  0  0
  191.0560  175.4740  143.3680 C   0  0  0  0  0  2  0  0  0  0  0  0
  189.3780  178.1630  140.2050 C   0  0  2  0  0  3  0  0  0  0  0  0
  188.9490  179.0030  139.1000 N   0  0  0  0  0  1  0  0  0  0  0  0
  189.6630  176.7530  139.7000 C   0  0  0  0  0  2  0  0  0  0  0  0
  191.7470  176.3330  138.4540 C   0  0  0  0  0  1  0  0  0  0  0  0
  190.3080  176.8000  138.3280 C   0  0  1  0  0  3  0  0  0  0  0  0
  189.5890  175.9390  137.4460 O   0  0  0  0  0  0  0  0  0  0  0  0
  186.1920  175.3350  136.0830 C   0  0  0  0  0  0  0  0  0  0  0  0
  186.8560  177.6670  135.4860 C   0  0  0  0  0  2  0  0  0  0  0  0
  185.4680  174.3210  135.9030 O   0  0  0  0  0  0  0  0  0  0  0  0
  187.1730  175.3740  137.2170 C   0  0  0  0  0  2  0  0  0  0  0  0
  188.1990  177.3110  136.0600 C   0  0  0  0  0  3  0  0  0  0  0  0
  188.3490  176.2540  136.8770 C   0  0  0  0  0  0  0  0  0  0  0  0
  186.0910  176.4570  135.2030 N   0  0  0  0  0  2  0  0  0  0  0  0
  1  2  1  0  0  0  0
  2  4  1  0  0  0  0
  4  3  2  0  0  0  0
  5 10  1  0  0  0  0
  6  3  1  0  0  0  0
  6  8  1  0  0  0  0
  7  1  2  0  0  0  0
  9  7  1  0  0  0  0
  9  5  2  0  0  0  0
 10  2  2  0  0  0  0
 10 11  1  0  0  0  0
 11  6  2  0  0  0  0
 12 14  1  0  0  0  0
 13  1  1  1  0  0  0
 13 15  1  0  0  0  0
 13 16  1  0  0  0  0
 15 12  1  0  0  0  0
 16 18  1  6  0  0  0
 16 14  1  0  0  0  0
 18 17  1  0  0  0  0
 19 20  1  6  0  0  0
 19  7  1  0  0  0  0
 21 19  1  0  0  0  0
 23 22  1  1  0  0  0
 23 21  1  0  0  0  0
 24 23  1  0  0  0  0
 25 28  1  0  0  0  0
 26 29  1  0  0  0  0
 27 25  2  0  0  0  0
 29 30  2  0  0  0  0
 30 28  1  0  0  0  0
 30 24  1  0  0  0  0
 31 26  1  0  0  0  0
 31 25  1  0  0  0  0
M  END
>  <MODEL>
6

>  <REMARK>
 VINA RESULT:      -8.0      2.381      3.350
  Name = 
  7 active torsions:
  status: ('A' for Active; 'I' for Inactive)
    1  A    between atoms: O_3  and  C_9
    2  A    between atoms: O_3  and  C_22
    3  A    between atoms: C_4  and  C_12
    4  A    between atoms: C_9  and  C_23
    5  A    between atoms: C_15  and  C_21
    6  A    between atoms: C_15  and  C_23
    7  A    between atoms: C_27  and  C_28
                            x       y       z     vdW  Elec       q    Type
                         _______ _______ _______ _____ _____    ______ ____

>  <TORSDO>
F 7

$$$$
=
 OpenBabel10262419223D

 31 34  0  0  1  0  0  0  0  0999 V2000
  186.6290  177.8800  143.4940 C   0  0  0  0  0  0  0  0  0  0  0  0
  186.9580  177.8790  144.8770 C   0  0  0  0  0  0  0  0  0  0  0  0
  188.5340  177.5000  146.6970 C   0  0  0  0  0  3  0  0  0  0  0  0
  188.2310  177.4940  145.3350 C   0  0  0  0  0  3  0  0  0  0  0  0
  184.7190  178.6740  145.4180 C   0  0  0  0  0  3  0  0  0  0  0  0
  187.5670  177.8910  147.6260 C   0  0  0  0  0  0  0  0  0  0  0  0
  185.3340  178.2880  143.0980 C   0  0  0  0  0  0  0  0  0  0  0  0
  187.8920  177.8960  149.0770 C   0  0  0  0  0  1  0  0  0  0  0  0
  184.3980  178.6850  144.0640 C   0  0  0  0  0  3  0  0  0  0  0  0
  185.9870  178.2740  145.8310 C   0  0  0  0  0  0  0  0  0  0  0  0
  186.2970  178.2770  147.1940 C   0  0  0  0  0  3  0  0  0  0  0  0
  189.0930  178.5060  140.8940 O   0  0  0  0  0  0  0  0  0  0  0  0
  187.6190  177.4790  142.4190 C   0  0  1  0  0  3  0  0  0  0  0  0
  189.8590  178.1400  142.0150 C   0  0  0  0  0  2  0  0  0  0  0  0
  187.7620  178.5270  141.3410 C   0  0  0  0  0  2  0  0  0  0  0  0
  189.0130  177.2830  142.9400 C   0  0  2  0  0  3  0  0  0  0  0  0
  190.8450  175.6280  143.2190 C   0  0  0  0  0  1  0  0  0  0  0  0
  189.3990  175.8210  142.8040 C   0  0  0  0  0  2  0  0  0  0  0  0
  184.9580  178.3630  141.6420 C   0  0  2  0  0  3  0  0  0  0  0  0
  185.0980  179.7280  141.1630 N   0  0  0  0  0  1  0  0  0  0  0  0
  183.5320  177.8780  141.4040 C   0  0  0  0  0  2  0  0  0  0  0  0
  181.9940  176.7090  139.8740 C   0  0  0  0  0  1  0  0  0  0  0  0
  183.4310  177.1550  140.0740 C   0  0  1  0  0  3  0  0  0  0  0  0
  183.8170  178.0460  139.0290 O   0  0  0  0  0  0  0  0  0  0  0  0
  186.8390  178.3090  136.8930 C   0  0  0  0  0  0  0  0  0  0  0  0
  185.2480  176.7360  135.7830 C   0  0  0  0  0  2  0  0  0  0  0  0
  187.8350  179.0770  136.8440 O   0  0  0  0  0  0  0  0  0  0  0  0
  186.1670  178.0210  138.2040 C   0  0  0  0  0  2  0  0  0  0  0  0
  184.2820  177.1280  136.8660 C   0  0  0  0  0  3  0  0  0  0  0  0
  184.7060  177.7130  138.0000 C   0  0  0  0  0  0  0  0  0  0  0  0
  186.3330  177.7080  135.6980 N   0  0  0  0  0  2  0  0  0  0  0  0
  1  2  1  0  0  0  0
  2  4  2  0  0  0  0
  2 10  1  0  0  0  0
  3  6  2  0  0  0  0
  4  3  1  0  0  0  0
  5 10  1  0  0  0  0
  6  8  1  0  0  0  0
  7  1  2  0  0  0  0
  7  9  1  0  0  0  0
  9  5  2  0  0  0  0
 10 11  2  0  0  0  0
 11  6  1  0  0  0  0
 12 15  1  0  0  0  0
 12 14  1  0  0  0  0
 13 16  1  0  0  0  0
 13  1  1  1  0  0  0
 14 16  1  0  0  0  0
 15 13  1  0  0  0  0
 16 18  1  6  0  0  0
 18 17  1  0  0  0  0
 19 20  1  1  0  0  0
 19  7  1  0  0  0  0
 21 19  1  0  0  0  0
 23 22  1  6  0  0  0
 23 21  1  0  0  0  0
 24 23  1  0  0  0  0
 25 28  1  0  0  0  0
 26 29  1  0  0  0  0
 27 25  2  0  0  0  0
 29 30  2  0  0  0  0
 30 28  1  0  0  0  0
 30 24  1  0  0  0  0
 31 26  1  0  0  0  0
 31 25  1  0  0  0  0
M  END
>  <MODEL>
7

>  <REMARK>
 VINA RESULT:      -7.8      3.760      5.309
  Name = 
  7 active torsions:
  status: ('A' for Active; 'I' for Inactive)
    1  A    between atoms: O_3  and  C_9
    2  A    between atoms: O_3  and  C_22
    3  A    between atoms: C_4  and  C_12
    4  A    between atoms: C_9  and  C_23
    5  A    between atoms: C_15  and  C_21
    6  A    between atoms: C_15  and  C_23
    7  A    between atoms: C_27  and  C_28
                            x       y       z     vdW  Elec       q    Type
                         _______ _______ _______ _____ _____    ______ ____

>  <TORSDO>
F 7

$$$$
=
 OpenBabel10262419223D

 31 34  0  0  1  0  0  0  0  0999 V2000
  186.8280  177.8370  143.4530 C   0  0  0  0  0  0  0  0  0  0  0  0
  187.1180  177.8470  144.8440 C   0  0  0  0  0  0  0  0  0  0  0  0
  188.6140  177.4120  146.7190 C   0  0  0  0  0  3  0  0  0  0  0  0
  188.3500  177.3940  145.3480 C   0  0  0  0  0  3  0  0  0  0  0  0
  184.9180  178.7910  145.3020 C   0  0  0  0  0  3  0  0  0  0  0  0
  187.6480  177.8830  147.6100 C   0  0  0  0  0  0  0  0  0  0  0  0
  185.5730  178.3160  143.0100 C   0  0  0  0  0  0  0  0  0  0  0  0
  187.9310  177.9000  149.0690 C   0  0  0  0  0  1  0  0  0  0  0  0
  184.6370  178.7920  143.9400 C   0  0  0  0  0  3  0  0  0  0  0  0
  186.1460  178.3230  145.7610 C   0  0  0  0  0  0  0  0  0  0  0  0
  186.4170  178.3380  147.1320 C   0  0  0  0  0  3  0  0  0  0  0  0
  189.2910  178.2530  140.8100 O   0  0  0  0  0  0  0  0  0  0  0  0
  187.8210  177.3520  142.4160 C   0  0  1  0  0  3  0  0  0  0  0  0
  190.0580  177.9880  141.9580 C   0  0  0  0  0  2  0  0  0  0  0  0
  187.9600  178.3050  141.2530 C   0  0  0  0  0  2  0  0  0  0  0  0
  189.2160  177.2080  142.9520 C   0  0  2  0  0  3  0  0  0  0  0  0
  191.0200  175.5820  143.4770 C   0  0  0  0  0  1  0  0  0  0  0  0
  189.6100  175.7420  142.9420 C   0  0  0  0  0  2  0  0  0  0  0  0
  185.2440  178.3810  141.5420 C   0  0  2  0  0  3  0  0  0  0  0  0
  185.3430  179.7530  141.0720 N   0  0  0  0  0  1  0  0  0  0  0  0
  183.8490  177.8380  141.2540 C   0  0  0  0  0  2  0  0  0  0  0  0
  183.1450  176.9010  139.0860 C   0  0  0  0  0  1  0  0  0  0  0  0
  183.4230  178.1880  139.8410 C   0  0  1  0  0  3  0  0  0  0  0  0
  182.2420  178.9880  139.8950 O   0  0  0  0  0  0  0  0  0  0  0  0
  180.2030  178.5040  142.9570 C   0  0  0  0  0  0  0  0  0  0  0  0
  178.9730  177.4750  141.0430 C   0  0  0  0  0  2  0  0  0  0  0  0
  180.4050  178.6230  144.1940 O   0  0  0  0  0  0  0  0  0  0  0  0
  180.9360  179.3770  141.9810 C   0  0  0  0  0  2  0  0  0  0  0  0
  180.2040  177.7780  140.2360 C   0  0  0  0  0  3  0  0  0  0  0  0
  181.1130  178.6720  140.6600 C   0  0  0  0  0  0  0  0  0  0  0  0
  179.2780  177.5290  142.4690 N   0  0  0  0  0  2  0  0  0  0  0  0
  1  2  1  0  0  0  0
  2  4  2  0  0  0  0
  2 10  1  0  0  0  0
  3  6  2  0  0  0  0
  4  3  1  0  0  0  0
  5 10  1  0  0  0  0
  6  8  1  0  0  0  0
  7  1  2  0  0  0  0
  7  9  1  0  0  0  0
  9  5  2  0  0  0  0
 10 11  2  0  0  0  0
 11  6  1  0  0  0  0
 12 15  1  0  0  0  0
 12 14  1  0  0  0  0
 13 16  1  0  0  0  0
 13  1  1  1  0  0  0
 14 16  1  0  0  0  0
 15 13  1  0  0  0  0
 16 18  1  6  0  0  0
 18 17  1  0  0  0  0
 19 20  1  1  0  0  0
 19  7  1  0  0  0  0
 21 19  1  0  0  0  0
 23 22  1  6  0  0  0
 23 24  1  0  0  0  0
 23 21  1  0  0  0  0
 24 30  1  0  0  0  0
 25 27  2  0  0  0  0
 26 31  1  0  0  0  0
 28 25  1  0  0  0  0
 29 30  2  0  0  0  0
 29 26  1  0  0  0  0
 30 28  1  0  0  0  0
 31 25  1  0  0  0  0
M  END
>  <MODEL>
8

>  <REMARK>
 VINA RESULT:      -7.8      4.343      7.935
  Name = 
  7 active torsions:
  status: ('A' for Active; 'I' for Inactive)
    1  A    between atoms: O_3  and  C_9
    2  A    between atoms: O_3  and  C_22
    3  A    between atoms: C_4  and  C_12
    4  A    between atoms: C_9  and  C_23
    5  A    between atoms: C_15  and  C_21
    6  A    between atoms: C_15  and  C_23
    7  A    between atoms: C_27  and  C_28
                            x       y       z     vdW  Elec       q    Type
                         _______ _______ _______ _____ _____    ______ ____

>  <TORSDO>
F 7

$$$$
=
 OpenBabel10262419223D

 31 34  0  0  1  0  0  0  0  0999 V2000
  188.1150  178.0480  143.5240 C   0  0  0  0  0  0  0  0  0  0  0  0
  188.0860  177.9110  144.9390 C   0  0  0  0  0  0  0  0  0  0  0  0
  189.2090  177.5840  147.0770 C   0  0  0  0  0  3  0  0  0  0  0  0
  189.2600  177.7160  145.6880 C   0  0  0  0  0  3  0  0  0  0  0  0
  185.6630  178.1750  144.9220 C   0  0  0  0  0  3  0  0  0  0  0  0
  187.9820  177.6440  147.7400 C   0  0  0  0  0  0  0  0  0  0  0  0
  186.9000  178.2520  142.8300 C   0  0  0  0  0  0  0  0  0  0  0  0
  187.9300  177.5030  149.2190 C   0  0  0  0  0  1  0  0  0  0  0  0
  185.6900  178.3180  143.5380 C   0  0  0  0  0  3  0  0  0  0  0  0
  186.8470  177.9710  145.6250 C   0  0  0  0  0  0  0  0  0  0  0  0
  186.8030  177.8370  147.0160 C   0  0  0  0  0  3  0  0  0  0  0  0
  191.7250  177.9210  143.1110 O   0  0  0  0  0  0  0  0  0  0  0  0
  189.4020  178.0040  142.7260 C   0  0  1  0  0  3  0  0  0  0  0  0
  191.3050  176.5990  142.8820 C   0  0  0  0  0  2  0  0  0  0  0  0
  190.5640  178.6280  143.4630 C   0  0  0  0  0  2  0  0  0  0  0  0
  189.8600  176.6090  142.4150 C   0  0  2  0  0  3  0  0  0  0  0  0
  190.8540  177.1970  140.2150 C   0  0  0  0  0  1  0  0  0  0  0  0
  189.7880  176.3780  140.9170 C   0  0  0  0  0  2  0  0  0  0  0  0
  186.8860  178.4620  141.3390 C   0  0  2  0  0  3  0  0  0  0  0  0
  187.9480  179.3780  140.9570 N   0  0  0  0  0  1  0  0  0  0  0  0
  185.5430  179.0030  140.8600 C   0  0  0  0  0  2  0  0  0  0  0  0
  183.7350  178.7940  139.1980 C   0  0  0  0  0  1  0  0  0  0  0  0
  185.1430  178.3500  139.5500 C   0  0  1  0  0  3  0  0  0  0  0  0
  186.0540  178.7570  138.5300 O   0  0  0  0  0  0  0  0  0  0  0  0
  187.2410  175.5210  137.1580 C   0  0  0  0  0  0  0  0  0  0  0  0
  189.0670  177.1980  136.8590 C   0  0  0  0  0  2  0  0  0  0  0  0
  186.8480  174.3260  137.2180 O   0  0  0  0  0  0  0  0  0  0  0  0
  186.2520  176.6480  137.2180 C   0  0  0  0  0  2  0  0  0  0  0  0
  188.1930  178.1230  137.6590 C   0  0  0  0  0  3  0  0  0  0  0  0
  186.8810  177.8790  137.8180 C   0  0  0  0  0  0  0  0  0  0  0  0
  188.6350  175.8150  137.0370 N   0  0  0  0  0  2  0  0  0  0  0  0
  1  2  1  0  0  0  0
  2 10  2  0  0  0  0
  2  4  1  0  0  0  0
  3  6  1  0  0  0  0
  4  3  2  0  0  0  0
  5 10  1  0  0  0  0
  6  8  1  0  0  0  0
  7  1  2  0  0  0  0
  7  9  1  0  0  0  0
  9  5  2  0  0  0  0
 10 11  1  0  0  0  0
 11  6  2  0  0  0  0
 12 15  1  0  0  0  0
 13 15  1  0  0  0  0
 13  1  1  1  0  0  0
 14 12  1  0  0  0  0
 16 18  1  6  0  0  0
 16 13  1  0  0  0  0
 16 14  1  0  0  0  0
 17 18  1  0  0  0  0
 19 20  1  1  0  0  0
 19  7  1  0  0  0  0
 21 19  1  0  0  0  0
 23 22  1  6  0  0  0
 23 21  1  0  0  0  0
 24 23  1  0  0  0  0
 25 28  1  0  0  0  0
 25 27  2  0  0  0  0
 26 31  1  0  0  0  0
 26 29  1  0  0  0  0
 28 30  1  0  0  0  0
 29 30  2  0  0  0  0
 30 24  1  0  0  0  0
 31 25  1  0  0  0  0
M  END
>  <MODEL>
9

>  <REMARK>
 VINA RESULT:      -7.7      2.770      4.284
  Name = 
  7 active torsions:
  status: ('A' for Active; 'I' for Inactive)
    1  A    between atoms: O_3  and  C_9
    2  A    between atoms: O_3  and  C_22
    3  A    between atoms: C_4  and  C_12
    4  A    between atoms: C_9  and  C_23
    5  A    between atoms: C_15  and  C_21
    6  A    between atoms: C_15  and  C_23
    7  A    between atoms: C_27  and  C_28
                            x       y       z     vdW  Elec       q    Type
                         _______ _______ _______ _____ _____    ______ ____

>  <TORSDO>
F 7

$$$$
