=
 OpenBabel10262421383D

 32 37  0  0  1  0  0  0  0  0999 V2000
  189.1560  176.9780  146.8330 C   0  0  2  0  0  3  0  0  0  0  0  0
  185.8860  178.2110  143.0730 C   0  0  0  0  0  0  0  0  0  0  0  0
  188.4870  177.4810  139.0500 C   0  0  0  0  0  3  0  0  0  0  0  0
  187.4040  177.7310  138.3060 C   0  0  0  0  0  3  0  0  0  0  0  0
  183.4330  178.5730  142.8290 C   0  0  0  0  0  0  0  0  0  0  0  0
  182.3700  178.8140  141.9660 C   0  0  0  0  0  0  0  0  0  0  0  0
  186.9310  177.8510  145.2540 C   0  0  0  0  0  0  0  0  0  0  0  0
  188.2930  177.8610  143.2520 C   0  0  0  0  0  3  0  0  0  0  0  0
  181.3050  179.1660  140.0840 C   0  0  0  0  0  0  0  0  0  0  0  0
  189.4440  177.5370  145.4410 C   0  0  0  0  0  2  0  0  0  0  0  0
  188.6280  178.1170  140.4030 C   0  0  0  0  0  2  0  0  0  0  0  0
  187.1570  178.1000  142.4620 C   0  0  0  0  0  0  0  0  0  0  0  0
  187.2740  178.2260  141.0690 C   0  0  0  0  0  0  0  0  0  0  0  0
  184.9170  178.5790  140.8550 C   0  0  0  0  0  0  0  0  0  0  0  0
  180.3720  179.1900  141.0630 N   0  0  0  0  0  0  0  0  0  0  0  0
  188.0650  177.8070  147.4990 C   0  0  0  0  0  2  0  0  0  0  0  0
  188.1880  177.7200  144.6360 C   0  0  0  0  0  0  0  0  0  0  0  0
  181.0230  178.9730  142.2320 C   0  0  0  0  0  3  0  0  0  0  0  0
  186.7550  177.6420  146.7320 C   0  0  0  0  0  2  0  0  0  0  0  0
  186.3400  178.6480  138.8420 C   0  0  0  0  0  2  0  0  0  0  0  0
  186.1650  178.4630  140.2940 N   0  0  0  0  0  0  0  0  0  0  0  0
  183.7950  178.8250  140.0300 C   0  0  0  0  0  3  0  0  0  0  0  0
  185.7990  178.0770  144.4700 C   0  0  0  0  0  3  0  0  0  0  0  0
  183.1860  178.4660  144.1600 F   0  0  0  0  0  0  0  0  0  0  0  0
  180.9970  179.3650  138.6410 C   0  0  0  0  0  1  0  0  0  0  0  0
  184.7440  178.4510  142.2750 C   0  0  0  0  0  0  0  0  0  0  0  0
  182.5460  178.9340  140.6230 C   0  0  0  0  0  0  0  0  0  0  0  0
  190.3170  177.0220  147.6060 O   0  0  0  0  0  0  0  0  0  0  0  0
  191.3630  176.9190  146.6860 C   0  0  0  0  0  2  0  0  0  0  0  0
  192.2220  175.7570  147.0370 C   0  0  0  0  0  0  0  0  0  0  0  0
  192.7980  175.6750  148.2980 O   0  0  0  0  0  1  0  0  0  0  0  0
  192.4510  174.8630  146.1820 O   0  0  0  0  0  0  0  0  0  0  0  0
  1 16  1  0  0  0  0
  1 28  1  1  0  0  0
  2 23  1  0  0  0  0
  3 11  1  0  0  0  0
  4 20  1  0  0  0  0
  4  3  2  0  0  0  0
  5 24  1  0  0  0  0
  6 18  1  0  0  0  0
  6  5  2  0  0  0  0
  7 19  1  0  0  0  0
  8 17  2  0  0  0  0
  9 27  2  0  0  0  0
  9 15  1  0  0  0  0
 10  1  1  0  0  0  0
 11 13  1  0  0  0  0
 12  2  1  0  0  0  0
 12  8  1  0  0  0  0
 13 12  2  0  0  0  0
 14 26  1  0  0  0  0
 15 18  2  0  0  0  0
 17  7  1  0  0  0  0
 17 10  1  0  0  0  0
 19 16  1  0  0  0  0
 20 21  1  0  0  0  0
 21 14  1  0  0  0  0
 21 13  1  0  0  0  0
 22 27  1  0  0  0  0
 22 14  2  0  0  0  0
 23  7  2  0  0  0  0
 25  9  1  0  0  0  0
 26  5  1  0  0  0  0
 26  2  2  0  0  0  0
 27  6  1  0  0  0  0
 29 30  1  0  0  0  0
 29 28  1  0  0  0  0
 30 31  1  0  0  0  0
 32 30  2  0  0  0  0
M  END
>  <MODEL>
1

>  <REMARK>
 VINA RESULT:     -10.8      0.000      0.000
  Name = 
  3 active torsions:
  status: ('A' for Active; 'I' for Inactive)
    1  A    between atoms: C_1  and  C_10
    2  A    between atoms: C_2  and  O_24
    3  A    between atoms: C_10  and  O_24
                            x       y       z     vdW  Elec       q    Type
                         _______ _______ _______ _____ _____    ______ ____

>  <TORSDO>
F 3

$$$$
=
 OpenBabel10262421383D

 32 37  0  0  1  0  0  0  0  0999 V2000
  189.7110  177.0430  145.6250 C   0  0  2  0  0  3  0  0  0  0  0  0
  185.4350  178.3140  143.0860 C   0  0  0  0  0  0  0  0  0  0  0  0
  186.7280  177.8790  138.4360 C   0  0  0  0  0  3  0  0  0  0  0  0
  185.4660  178.1190  138.0640 C   0  0  0  0  0  3  0  0  0  0  0  0
  183.0130  178.5860  143.6050 C   0  0  0  0  0  0  0  0  0  0  0  0
  181.7340  178.8240  143.1130 C   0  0  0  0  0  0  0  0  0  0  0  0
  187.0940  177.8960  144.8330 C   0  0  0  0  0  0  0  0  0  0  0  0
  187.7920  178.0550  142.5200 C   0  0  0  0  0  3  0  0  0  0  0  0
  180.1460  179.2200  141.6570 C   0  0  0  0  0  0  0  0  0  0  0  0
  189.5550  177.6780  144.2440 C   0  0  0  0  0  2  0  0  0  0  0  0
  187.2510  178.4570  139.7190 C   0  0  0  0  0  2  0  0  0  0  0  0
  186.4660  178.2840  142.1190 C   0  0  0  0  0  0  0  0  0  0  0  0
  186.1570  178.4800  140.7640 C   0  0  0  0  0  0  0  0  0  0  0  0
  183.8370  178.7460  141.2820 C   0  0  0  0  0  0  0  0  0  0  0  0
  179.5490  179.1600  142.8690 N   0  0  0  0  0  0  0  0  0  0  0  0
  188.8500  177.7940  146.6310 C   0  0  0  0  0  2  0  0  0  0  0  0
  188.1110  177.8450  143.8610 C   0  0  0  0  0  0  0  0  0  0  0  0
  180.5260  178.9160  143.7770 C   0  0  0  0  0  3  0  0  0  0  0  0
  187.3740  177.6120  146.2820 C   0  0  0  0  0  2  0  0  0  0  0  0
  184.5880  178.9660  138.9440 C   0  0  0  0  0  2  0  0  0  0  0  0
  184.8610  178.7070  140.3700 N   0  0  0  0  0  0  0  0  0  0  0  0
  182.5130  178.9830  140.8450 C   0  0  0  0  0  3  0  0  0  0  0  0
  185.7730  178.1120  144.4360 C   0  0  0  0  0  3  0  0  0  0  0  0
  183.1800  178.4080  144.9410 F   0  0  0  0  0  0  0  0  0  0  0  0
  179.4150  179.4730  140.3850 C   0  0  0  0  0  1  0  0  0  0  0  0
  184.1000  178.5440  142.6800 C   0  0  0  0  0  0  0  0  0  0  0  0
  181.4970  179.0140  141.7880 C   0  0  0  0  0  0  0  0  0  0  0  0
  191.0490  177.0980  146.0170 O   0  0  0  0  0  0  0  0  0  0  0  0
  191.0500  176.6710  147.3470 C   0  0  0  0  0  2  0  0  0  0  0  0
  192.2930  175.9030  147.6230 C   0  0  0  0  0  0  0  0  0  0  0  0
  193.0730  176.2190  148.7270 O   0  0  0  0  0  1  0  0  0  0  0  0
  192.6530  174.9860  146.8410 O   0  0  0  0  0  0  0  0  0  0  0  0
  1 28  1  1  0  0  0
  1 16  1  0  0  0  0
  2 23  1  0  0  0  0
  3 11  1  0  0  0  0
  4  3  2  0  0  0  0
  4 20  1  0  0  0  0
  5 24  1  0  0  0  0
  6  5  2  0  0  0  0
  6 18  1  0  0  0  0
  7 19  1  0  0  0  0
  8 17  2  0  0  0  0
  9 27  2  0  0  0  0
  9 15  1  0  0  0  0
 10  1  1  0  0  0  0
 11 13  1  0  0  0  0
 12  8  1  0  0  0  0
 12  2  1  0  0  0  0
 13 12  2  0  0  0  0
 14 26  1  0  0  0  0
 15 18  2  0  0  0  0
 17 10  1  0  0  0  0
 17  7  1  0  0  0  0
 19 16  1  0  0  0  0
 20 21  1  0  0  0  0
 21 13  1  0  0  0  0
 21 14  1  0  0  0  0
 22 14  2  0  0  0  0
 22 27  1  0  0  0  0
 23  7  2  0  0  0  0
 25  9  1  0  0  0  0
 26  2  2  0  0  0  0
 26  5  1  0  0  0  0
 27  6  1  0  0  0  0
 28 29  1  0  0  0  0
 29 30  1  0  0  0  0
 30 31  1  0  0  0  0
 32 30  2  0  0  0  0
M  END
>  <MODEL>
2

>  <REMARK>
 VINA RESULT:     -10.7      1.083      1.311
  Name = 
  3 active torsions:
  status: ('A' for Active; 'I' for Inactive)
    1  A    between atoms: C_1  and  C_10
    2  A    between atoms: C_2  and  O_24
    3  A    between atoms: C_10  and  O_24
                            x       y       z     vdW  Elec       q    Type
                         _______ _______ _______ _____ _____    ______ ____

>  <TORSDO>
F 3

$$$$
=
 OpenBabel10262421383D

 32 37  0  0  1  0  0  0  0  0999 V2000
  180.8550  179.5070  141.6950 C   0  0  2  0  0  3  0  0  0  0  0  0
  185.3500  178.2430  143.8280 C   0  0  0  0  0  0  0  0  0  0  0  0
  188.4530  178.4760  140.1130 C   0  0  0  0  0  3  0  0  0  0  0  0
  189.4700  178.2520  140.9510 C   0  0  0  0  0  3  0  0  0  0  0  0
  186.2920  178.0470  146.1270 C   0  0  0  0  0  0  0  0  0  0  0  0
  187.4190  177.8220  146.9100 C   0  0  0  0  0  0  0  0  0  0  0  0
  182.9780  178.6860  143.4360 C   0  0  0  0  0  0  0  0  0  0  0  0
  184.4830  178.4260  141.5570 C   0  0  0  0  0  3  0  0  0  0  0  0
  189.5110  177.4100  147.4090 C   0  0  0  0  0  0  0  0  0  0  0  0
  182.0700  178.8250  141.0670 C   0  0  0  0  0  2  0  0  0  0  0  0
  187.0890  177.9340  140.4320 C   0  0  0  0  0  2  0  0  0  0  0  0
  185.5620  178.2140  142.4300 C   0  0  0  0  0  0  0  0  0  0  0  0
  186.8490  177.9750  141.9250 C   0  0  0  0  0  0  0  0  0  0  0  0
  187.7350  177.7830  144.1390 C   0  0  0  0  0  0  0  0  0  0  0  0
  188.8540  177.5290  148.5850 N   0  0  0  0  0  0  0  0  0  0  0  0
  180.5030  178.8130  143.0050 C   0  0  0  0  0  2  0  0  0  0  0  0
  183.2020  178.6770  142.0460 C   0  0  0  0  0  0  0  0  0  0  0  0
  187.5560  177.7830  148.2850 C   0  0  0  0  0  3  0  0  0  0  0  0
  181.6300  179.0170  144.0140 C   0  0  0  0  0  2  0  0  0  0  0  0
  189.2290  177.4590  142.2060 C   0  0  0  0  0  2  0  0  0  0  0  0
  187.9050  177.7650  142.7780 N   0  0  0  0  0  0  0  0  0  0  0  0
  188.8420  177.5610  144.9910 C   0  0  0  0  0  3  0  0  0  0  0  0
  184.0500  178.4870  144.3060 C   0  0  0  0  0  3  0  0  0  0  0  0
  185.1010  178.2710  146.7390 F   0  0  0  0  0  0  0  0  0  0  0  0
  190.9690  177.1280  147.3000 C   0  0  0  0  0  1  0  0  0  0  0  0
  186.4380  178.0300  144.7060 C   0  0  0  0  0  0  0  0  0  0  0  0
  188.6410  177.5890  146.3630 C   0  0  0  0  0  0  0  0  0  0  0  0
  179.7720  179.4340  140.8190 O   0  0  0  0  0  0  0  0  0  0  0  0
  180.2780  179.8610  139.5890 C   0  0  0  0  0  2  0  0  0  0  0  0
  180.0540  181.3230  139.4380 C   0  0  0  0  0  0  0  0  0  0  0  0
  178.9840  181.9320  140.0820 O   0  0  0  0  0  1  0  0  0  0  0  0
  180.8150  182.0040  138.7040 O   0  0  0  0  0  0  0  0  0  0  0  0
  1 28  1  6  0  0  0
  1 16  1  0  0  0  0
  2 23  1  0  0  0  0
  2 26  2  0  0  0  0
  3 11  1  0  0  0  0
  3  4  2  0  0  0  0
  4 20  1  0  0  0  0
  5 24  1  0  0  0  0
  5  6  2  0  0  0  0
  6 18  1  0  0  0  0
  7 19  1  0  0  0  0
  7 23  2  0  0  0  0
  8 17  2  0  0  0  0
  8 12  1  0  0  0  0
  9 15  1  0  0  0  0
 10  1  1  0  0  0  0
 10 17  1  0  0  0  0
 11 13  1  0  0  0  0
 12  2  1  0  0  0  0
 13 12  2  0  0  0  0
 13 21  1  0  0  0  0
 14 26  1  0  0  0  0
 14 22  2  0  0  0  0
 16 19  1  0  0  0  0
 17  7  1  0  0  0  0
 18 15  2  0  0  0  0
 20 21  1  0  0  0  0
 21 14  1  0  0  0  0
 22 27  1  0  0  0  0
 25  9  1  0  0  0  0
 26  5  1  0  0  0  0
 27  6  1  0  0  0  0
 27  9  2  0  0  0  0
 29 28  1  0  0  0  0
 30 29  1  0  0  0  0
 30 31  1  0  0  0  0
 32 30  2  0  0  0  0
M  END
>  <MODEL>
3

>  <REMARK>
 VINA RESULT:     -10.2      4.764      8.450
  Name = 
  3 active torsions:
  status: ('A' for Active; 'I' for Inactive)
    1  A    between atoms: C_1  and  C_10
    2  A    between atoms: C_2  and  O_24
    3  A    between atoms: C_10  and  O_24
                            x       y       z     vdW  Elec       q    Type
                         _______ _______ _______ _____ _____    ______ ____

>  <TORSDO>
F 3

$$$$
=
 OpenBabel10262421383D

 32 37  0  0  1  0  0  0  0  0999 V2000
  188.7760  177.1870  137.0460 C   0  0  2  0  0  3  0  0  0  0  0  0
  188.2840  177.7420  142.1250 C   0  0  0  0  0  0  0  0  0  0  0  0
  183.5660  178.6910  142.6920 C   0  0  0  0  0  3  0  0  0  0  0  0
  183.7180  178.6460  144.0200 C   0  0  0  0  0  3  0  0  0  0  0  0
  189.6230  177.2160  144.1610 C   0  0  0  0  0  0  0  0  0  0  0  0
  189.6720  177.1910  145.5500 C   0  0  0  0  0  0  0  0  0  0  0  0
  189.1800  177.4340  139.8720 C   0  0  0  0  0  0  0  0  0  0  0  0
  186.9290  178.2720  140.1690 C   0  0  0  0  0  3  0  0  0  0  0  0
  189.0070  177.4350  147.6220 C   0  0  0  0  0  0  0  0  0  0  0  0
  187.7820  178.0350  137.8380 C   0  0  0  0  0  2  0  0  0  0  0  0
  184.7180  179.1010  141.8210 C   0  0  0  0  0  2  0  0  0  0  0  0
  187.0720  178.2060  141.5650 C   0  0  0  0  0  0  0  0  0  0  0  0
  186.0190  178.5960  142.4070 C   0  0  0  0  0  0  0  0  0  0  0  0
  187.3210  178.0920  144.3490 C   0  0  0  0  0  0  0  0  0  0  0  0
  190.2690  176.9540  147.6800 N   0  0  0  0  0  0  0  0  0  0  0  0
  190.1860  177.4370  137.5660 C   0  0  0  0  0  2  0  0  0  0  0  0
  187.9620  177.8760  139.3220 C   0  0  0  0  0  0  0  0  0  0  0  0
  190.6890  176.8000  146.3990 C   0  0  0  0  0  3  0  0  0  0  0  0
  190.3000  176.9330  139.0030 C   0  0  0  0  0  2  0  0  0  0  0  0
  185.0480  179.0080  144.6200 C   0  0  0  0  0  2  0  0  0  0  0  0
  186.1570  178.5340  143.7720 N   0  0  0  0  0  0  0  0  0  0  0  0
  187.4340  178.0420  145.7580 C   0  0  0  0  0  3  0  0  0  0  0  0
  189.3210  177.3560  141.2580 C   0  0  0  0  0  3  0  0  0  0  0  0
  190.7110  176.8080  143.4580 F   0  0  0  0  0  0  0  0  0  0  0  0
  188.1830  177.7430  148.8240 C   0  0  0  0  0  1  0  0  0  0  0  0
  188.4260  177.6750  143.5310 C   0  0  0  0  0  0  0  0  0  0  0  0
  188.6200  177.5880  146.3140 C   0  0  0  0  0  0  0  0  0  0  0  0
  188.7070  177.5250  135.6940 O   0  0  0  0  0  0  0  0  0  0  0  0
  188.9090  176.3220  135.0140 C   0  0  0  0  0  2  0  0  0  0  0  0
  187.6380  175.5500  134.9800 C   0  0  0  0  0  0  0  0  0  0  0  0
  186.4530  176.1790  134.6180 O   0  0  0  0  0  0  0  0  0  0  0  0
  187.6300  174.3350  135.3060 O   0  0  0  0  0  1  0  0  0  0  0  0
  1 28  1  6  0  0  0
  1 16  1  0  0  0  0
  1 10  1  0  0  0  0
  2 26  2  0  0  0  0
  3  4  2  0  0  0  0
  4 20  1  0  0  0  0
  5  6  2  0  0  0  0
  6 27  1  0  0  0  0
  6 18  1  0  0  0  0
  7 23  2  0  0  0  0
  8 12  1  0  0  0  0
  9 15  1  0  0  0  0
  9 25  1  0  0  0  0
 10 17  1  0  0  0  0
 11 13  1  0  0  0  0
 11  3  1  0  0  0  0
 12  2  1  0  0  0  0
 12 13  2  0  0  0  0
 13 21  1  0  0  0  0
 14 22  2  0  0  0  0
 16 19  1  0  0  0  0
 17  7  1  0  0  0  0
 17  8  2  0  0  0  0
 18 15  2  0  0  0  0
 19  7  1  0  0  0  0
 21 14  1  0  0  0  0
 21 20  1  0  0  0  0
 22 27  1  0  0  0  0
 23  2  1  0  0  0  0
 24  5  1  0  0  0  0
 26  5  1  0  0  0  0
 26 14  1  0  0  0  0
 27  9  2  0  0  0  0
 29 28  1  0  0  0  0
 30 29  1  0  0  0  0
 30 32  1  0  0  0  0
 31 30  2  0  0  0  0
M  END
>  <MODEL>
4

>  <REMARK>
 VINA RESULT:      -9.9      4.513      8.437
  Name = 
  3 active torsions:
  status: ('A' for Active; 'I' for Inactive)
    1  A    between atoms: C_1  and  C_10
    2  A    between atoms: C_2  and  O_24
    3  A    between atoms: C_10  and  O_24
                            x       y       z     vdW  Elec       q    Type
                         _______ _______ _______ _____ _____    ______ ____

>  <TORSDO>
F 3

$$$$
=
 OpenBabel10262421383D

 32 37  0  0  1  0  0  0  0  0999 V2000
  182.9200  178.3460  143.9090 C   0  0  2  0  0  3  0  0  0  0  0  0
  187.8640  177.8730  142.6140 C   0  0  0  0  0  0  0  0  0  0  0  0
  190.0400  176.9400  146.8420 C   0  0  0  0  0  3  0  0  0  0  0  0
  191.1980  176.7440  146.2020 C   0  0  0  0  0  3  0  0  0  0  0  0
  189.1840  177.5550  140.5250 C   0  0  0  0  0  0  0  0  0  0  0  0
  190.4340  177.3300  139.9580 C   0  0  0  0  0  0  0  0  0  0  0  0
  185.4520  178.2730  142.5720 C   0  0  0  0  0  0  0  0  0  0  0  0
  186.6220  178.1770  144.6900 C   0  0  0  0  0  3  0  0  0  0  0  0
  192.5940  176.9850  139.8450 C   0  0  0  0  0  0  0  0  0  0  0  0
  184.1720  178.6380  144.7350 C   0  0  0  0  0  2  0  0  0  0  0  0
  189.0150  177.8730  146.2650 C   0  0  0  0  0  2  0  0  0  0  0  0
  187.8380  177.9470  144.0260 C   0  0  0  0  0  0  0  0  0  0  0  0
  189.0270  177.7890  144.7540 C   0  0  0  0  0  0  0  0  0  0  0  0
  190.2800  177.4930  142.7380 C   0  0  0  0  0  0  0  0  0  0  0  0
  192.1400  176.9920  138.5710 N   0  0  0  0  0  0  0  0  0  0  0  0
  183.0460  179.0060  142.5420 C   0  0  0  0  0  2  0  0  0  0  0  0
  185.4320  178.3230  143.9790 C   0  0  0  0  0  0  0  0  0  0  0  0
  190.8020  177.2060  138.6320 C   0  0  0  0  0  3  0  0  0  0  0  0
  184.1880  178.3570  141.7630 C   0  0  0  0  0  2  0  0  0  0  0  0
  191.4520  177.4650  144.9060 C   0  0  0  0  0  2  0  0  0  0  0  0
  190.2170  177.5670  144.1070 N   0  0  0  0  0  0  0  0  0  0  0  0
  191.5210  177.2650  142.1000 C   0  0  0  0  0  3  0  0  0  0  0  0
  186.6570  178.0330  141.9100 C   0  0  0  0  0  3  0  0  0  0  0  0
  188.1070  177.6870  139.7080 F   0  0  0  0  0  0  0  0  0  0  0  0
  194.0220  176.7780  140.2140 C   0  0  0  0  0  1  0  0  0  0  0  0
  189.0890  177.6410  141.9470 C   0  0  0  0  0  0  0  0  0  0  0  0
  191.5540  177.1910  140.7160 C   0  0  0  0  0  0  0  0  0  0  0  0
  181.7960  178.8450  144.5690 O   0  0  0  0  0  0  0  0  0  0  0  0
  180.9340  179.2550  143.5500 C   0  0  0  0  0  2  0  0  0  0  0  0
  179.6920  178.4380  143.5890 C   0  0  0  0  0  0  0  0  0  0  0  0
  179.3480  177.6450  142.5020 O   0  0  0  0  0  0  0  0  0  0  0  0
  178.9370  178.4880  144.5940 O   0  0  0  0  0  1  0  0  0  0  0  0
  1 28  1  1  0  0  0
  1 10  1  0  0  0  0
  2 12  1  0  0  0  0
  4  3  2  0  0  0  0
  5 26  1  0  0  0  0
  6  5  2  0  0  0  0
  6 27  1  0  0  0  0
  7 17  1  0  0  0  0
  9 25  1  0  0  0  0
  9 27  2  0  0  0  0
 11  3  1  0  0  0  0
 12  8  1  0  0  0  0
 12 13  2  0  0  0  0
 13 11  1  0  0  0  0
 14 21  1  0  0  0  0
 15 18  2  0  0  0  0
 15  9  1  0  0  0  0
 16  1  1  0  0  0  0
 17  8  2  0  0  0  0
 17 10  1  0  0  0  0
 18  6  1  0  0  0  0
 19 16  1  0  0  0  0
 19  7  1  0  0  0  0
 20  4  1  0  0  0  0
 21 13  1  0  0  0  0
 21 20  1  0  0  0  0
 22 14  2  0  0  0  0
 23  7  2  0  0  0  0
 23  2  1  0  0  0  0
 24  5  1  0  0  0  0
 26  2  2  0  0  0  0
 26 14  1  0  0  0  0
 27 22  1  0  0  0  0
 29 30  1  0  0  0  0
 29 28  1  0  0  0  0
 30 32  1  0  0  0  0
 31 30  2  0  0  0  0
M  END
>  <MODEL>
5

>  <REMARK>
 VINA RESULT:      -9.9      4.421      8.331
  Name = 
  3 active torsions:
  status: ('A' for Active; 'I' for Inactive)
    1  A    between atoms: C_1  and  C_10
    2  A    between atoms: C_2  and  O_24
    3  A    between atoms: C_10  and  O_24
                            x       y       z     vdW  Elec       q    Type
                         _______ _______ _______ _____ _____    ______ ____

>  <TORSDO>
F 3

$$$$
=
 OpenBabel10262421383D

 32 37  0  0  1  0  0  0  0  0999 V2000
  191.1840  176.9300  137.3520 C   0  0  2  0  0  3  0  0  0  0  0  0
  188.5100  177.3760  141.7100 C   0  0  0  0  0  0  0  0  0  0  0  0
  191.8600  176.7080  145.1480 C   0  0  0  0  0  3  0  0  0  0  0  0
  190.9530  177.0020  146.0860 C   0  0  0  0  0  3  0  0  0  0  0  0
  186.2780  178.2380  142.4060 C   0  0  0  0  0  0  0  0  0  0  0  0
  185.4150  178.5280  143.4580 C   0  0  0  0  0  0  0  0  0  0  0  0
  189.1600  177.2170  139.3590 C   0  0  0  0  0  0  0  0  0  0  0  0
  190.7080  176.5250  141.0880 C   0  0  0  0  0  3  0  0  0  0  0  0
  184.6940  178.7070  145.5180 C   0  0  0  0  0  0  0  0  0  0  0  0
  191.4320  176.2820  138.7130 C   0  0  0  0  0  2  0  0  0  0  0  0
  191.4190  176.1010  143.8470 C   0  0  0  0  0  2  0  0  0  0  0  0
  189.7710  176.8530  142.0800 C   0  0  0  0  0  0  0  0  0  0  0  0
  190.0770  176.6670  143.4370 C   0  0  0  0  0  0  0  0  0  0  0  0
  187.9270  177.4910  144.0860 C   0  0  0  0  0  0  0  0  0  0  0  0
  183.6930  179.1490  144.7220 N   0  0  0  0  0  0  0  0  0  0  0  0
  189.7260  176.7380  136.9550 C   0  0  0  0  0  2  0  0  0  0  0  0
  190.4210  176.7180  139.7370 C   0  0  0  0  0  0  0  0  0  0  0  0
  184.1320  179.0400  143.4430 C   0  0  0  0  0  3  0  0  0  0  0  0
  188.8260  177.5040  137.9220 C   0  0  0  0  0  2  0  0  0  0  0  0
  189.5010  176.7180  145.8190 C   0  0  0  0  0  2  0  0  0  0  0  0
  189.1610  176.9840  144.4090 N   0  0  0  0  0  0  0  0  0  0  0  0
  187.0040  177.8050  145.1100 C   0  0  0  0  0  3  0  0  0  0  0  0
  188.2310  177.5540  140.3440 C   0  0  0  0  0  3  0  0  0  0  0  0
  185.8620  178.4680  141.1340 F   0  0  0  0  0  0  0  0  0  0  0  0
  184.6110  178.6620  147.0040 C   0  0  0  0  0  1  0  0  0  0  0  0
  187.5670  177.7060  142.7120 C   0  0  0  0  0  0  0  0  0  0  0  0
  185.7660  178.3190  144.7550 C   0  0  0  0  0  0  0  0  0  0  0  0
  192.0130  176.3420  136.3950 O   0  0  0  0  0  0  0  0  0  0  0  0
  193.2630  176.2550  137.0100 C   0  0  0  0  0  2  0  0  0  0  0  0
  194.3290  176.2380  135.9720 C   0  0  0  0  0  0  0  0  0  0  0  0
  195.1210  177.3610  135.7740 O   0  0  0  0  0  1  0  0  0  0  0  0
  194.4940  175.2180  135.2560 O   0  0  0  0  0  0  0  0  0  0  0  0
  1 28  1  6  0  0  0
  1 10  1  0  0  0  0
  2 12  1  0  0  0  0
  2 26  2  0  0  0  0
  3  4  2  0  0  0  0
  5 26  1  0  0  0  0
  5  6  2  0  0  0  0
  6 27  1  0  0  0  0
  7 17  1  0  0  0  0
  7 23  2  0  0  0  0
  8 12  1  0  0  0  0
  9 25  1  0  0  0  0
 10 17  1  0  0  0  0
 11  3  1  0  0  0  0
 12 13  2  0  0  0  0
 13 11  1  0  0  0  0
 13 21  1  0  0  0  0
 14 21  1  0  0  0  0
 14 22  2  0  0  0  0
 15  9  1  0  0  0  0
 16  1  1  0  0  0  0
 16 19  1  0  0  0  0
 17  8  2  0  0  0  0
 18  6  1  0  0  0  0
 18 15  2  0  0  0  0
 19  7  1  0  0  0  0
 20  4  1  0  0  0  0
 21 20  1  0  0  0  0
 23  2  1  0  0  0  0
 24  5  1  0  0  0  0
 26 14  1  0  0  0  0
 27 22  1  0  0  0  0
 27  9  2  0  0  0  0
 28 29  1  0  0  0  0
 30 29  1  0  0  0  0
 31 30  1  0  0  0  0
 32 30  2  0  0  0  0
M  END
>  <MODEL>
6

>  <REMARK>
 VINA RESULT:      -9.8      4.202      7.185
  Name = 
  3 active torsions:
  status: ('A' for Active; 'I' for Inactive)
    1  A    between atoms: C_1  and  C_10
    2  A    between atoms: C_2  and  O_24
    3  A    between atoms: C_10  and  O_24
                            x       y       z     vdW  Elec       q    Type
                         _______ _______ _______ _____ _____    ______ ____

>  <TORSDO>
F 3

$$$$
=
 OpenBabel10262421383D

 32 37  0  0  1  0  0  0  0  0999 V2000
  192.1170  177.5420  139.9520 C   0  0  2  0  0  3  0  0  0  0  0  0
  187.4790  177.8940  142.1220 C   0  0  0  0  0  0  0  0  0  0  0  0
  188.4710  177.9800  146.8660 C   0  0  0  0  0  3  0  0  0  0  0  0
  187.1790  178.2010  147.1300 C   0  0  0  0  0  3  0  0  0  0  0  0
  185.1620  178.4620  141.4030 C   0  0  0  0  0  0  0  0  0  0  0  0
  183.8450  178.6940  141.7860 C   0  0  0  0  0  0  0  0  0  0  0  0
  189.3120  177.6670  140.5210 C   0  0  0  0  0  0  0  0  0  0  0  0
  189.7280  177.3380  142.8840 C   0  0  0  0  0  3  0  0  0  0  0  0
  182.1090  178.9100  143.1040 C   0  0  0  0  0  0  0  0  0  0  0  0
  191.6420  177.0380  141.3140 C   0  0  0  0  0  2  0  0  0  0  0  0
  188.8610  177.2230  145.6290 C   0  0  0  0  0  2  0  0  0  0  0  0
  188.3770  177.5920  143.1730 C   0  0  0  0  0  0  0  0  0  0  0  0
  187.9130  177.5510  144.4960 C   0  0  0  0  0  0  0  0  0  0  0  0
  185.6930  178.0900  143.7870 C   0  0  0  0  0  0  0  0  0  0  0  0
  181.6670  179.1400  141.8460 N   0  0  0  0  0  0  0  0  0  0  0  0
  191.1310  177.1080  138.8760 C   0  0  0  0  0  2  0  0  0  0  0  0
  190.2040  177.3890  141.5740 C   0  0  0  0  0  0  0  0  0  0  0  0
  182.7370  179.0070  141.0240 C   0  0  0  0  0  3  0  0  0  0  0  0
  189.7880  177.7980  139.1010 C   0  0  0  0  0  2  0  0  0  0  0  0
  186.1350  177.6860  146.1780 C   0  0  0  0  0  2  0  0  0  0  0  0
  186.5920  177.7970  144.7810 N   0  0  0  0  0  0  0  0  0  0  0  0
  184.3390  178.3360  144.1110 C   0  0  0  0  0  3  0  0  0  0  0  0
  187.9720  177.9310  140.8060 C   0  0  0  0  0  3  0  0  0  0  0  0
  185.4850  178.5360  140.0860 F   0  0  0  0  0  0  0  0  0  0  0  0
  181.2370  178.9590  144.3100 C   0  0  0  0  0  1  0  0  0  0  0  0
  186.1190  178.1510  142.4160 C   0  0  0  0  0  0  0  0  0  0  0  0
  183.4530  178.6330  143.0870 C   0  0  0  0  0  0  0  0  0  0  0  0
  193.3800  177.0180  139.6720 O   0  0  0  0  0  0  0  0  0  0  0  0
  193.2360  176.3760  138.4410 C   0  0  0  0  0  2  0  0  0  0  0  0
  194.1980  175.2460  138.3520 C   0  0  0  0  0  0  0  0  0  0  0  0
  193.9330  174.1730  137.5100 O   0  0  0  0  0  0  0  0  0  0  0  0
  195.2370  175.2470  139.0600 O   0  0  0  0  0  1  0  0  0  0  0  0
  1 28  1  6  0  0  0
  1 10  1  0  0  0  0
  2 26  2  0  0  0  0
  2 12  1  0  0  0  0
  3  4  2  0  0  0  0
  5  6  2  0  0  0  0
  5 26  1  0  0  0  0
  6 27  1  0  0  0  0
  7 23  2  0  0  0  0
  7 17  1  0  0  0  0
  8 12  1  0  0  0  0
  9 25  1  0  0  0  0
 10 17  1  0  0  0  0
 11  3  1  0  0  0  0
 12 13  2  0  0  0  0
 13 21  1  0  0  0  0
 13 11  1  0  0  0  0
 14 22  2  0  0  0  0
 14 21  1  0  0  0  0
 15  9  1  0  0  0  0
 16 19  1  0  0  0  0
 16  1  1  0  0  0  0
 17  8  2  0  0  0  0
 18  6  1  0  0  0  0
 18 15  2  0  0  0  0
 19  7  1  0  0  0  0
 20  4  1  0  0  0  0
 21 20  1  0  0  0  0
 23  2  1  0  0  0  0
 24  5  1  0  0  0  0
 26 14  1  0  0  0  0
 27  9  2  0  0  0  0
 27 22  1  0  0  0  0
 29 28  1  0  0  0  0
 30 29  1  0  0  0  0
 30 32  1  0  0  0  0
 31 30  2  0  0  0  0
M  END
>  <MODEL>
7

>  <REMARK>
 VINA RESULT:      -9.7      3.289      5.783
  Name = 
  3 active torsions:
  status: ('A' for Active; 'I' for Inactive)
    1  A    between atoms: C_1  and  C_10
    2  A    between atoms: C_2  and  O_24
    3  A    between atoms: C_10  and  O_24
                            x       y       z     vdW  Elec       q    Type
                         _______ _______ _______ _____ _____    ______ ____

>  <TORSDO>
F 3

$$$$
=
 OpenBabel10262421383D

 32 37  0  0  1  0  0  0  0  0999 V2000
  192.6010  177.0380  138.0140 C   0  0  2  0  0  3  0  0  0  0  0  0
  188.9000  177.5240  141.5370 C   0  0  0  0  0  0  0  0  0  0  0  0
  191.3070  177.2220  145.7320 C   0  0  0  0  0  3  0  0  0  0  0  0
  190.1810  177.5030  146.3970 C   0  0  0  0  0  3  0  0  0  0  0  0
  186.5260  178.2810  141.6040 C   0  0  0  0  0  0  0  0  0  0  0  0
  185.4150  178.5660  142.3890 C   0  0  0  0  0  0  0  0  0  0  0  0
  190.1270  177.2950  139.4350 C   0  0  0  0  0  0  0  0  0  0  0  0
  191.2220  176.7800  141.5320 C   0  0  0  0  0  3  0  0  0  0  0  0
  184.1920  178.7970  144.1910 C   0  0  0  0  0  0  0  0  0  0  0  0
  192.5290  176.4710  139.4310 C   0  0  0  0  0  2  0  0  0  0  0  0
  191.2360  176.5290  144.4020 C   0  0  0  0  0  2  0  0  0  0  0  0
  190.0510  177.0960  142.2390 C   0  0  0  0  0  0  0  0  0  0  0  0
  190.0150  176.9930  143.6380 C   0  0  0  0  0  0  0  0  0  0  0  0
  187.7340  177.7140  143.6820 C   0  0  0  0  0  0  0  0  0  0  0  0
  183.4040  179.1400  143.1460 N   0  0  0  0  0  0  0  0  0  0  0  0
  191.3000  176.7400  137.2800 C   0  0  0  0  0  2  0  0  0  0  0  0
  191.2740  176.8910  140.1430 C   0  0  0  0  0  0  0  0  0  0  0  0
  184.1540  178.9990  142.0260 C   0  0  0  0  0  3  0  0  0  0  0  0
  190.1500  177.4940  137.9450 C   0  0  0  0  0  2  0  0  0  0  0  0
  188.8570  177.1200  145.7950 C   0  0  0  0  0  2  0  0  0  0  0  0
  188.8700  177.2990  144.3320 N   0  0  0  0  0  0  0  0  0  0  0  0
  186.5700  178.0200  144.4250 C   0  0  0  0  0  3  0  0  0  0  0  0
  188.9650  177.6210  140.1360 C   0  0  0  0  0  3  0  0  0  0  0  0
  186.4330  178.4250  140.2560 F   0  0  0  0  0  0  0  0  0  0  0  0
  183.7400  178.8170  145.6100 C   0  0  0  0  0  1  0  0  0  0  0  0
  187.7220  177.8430  142.2520 C   0  0  0  0  0  0  0  0  0  0  0  0
  185.4390  178.4400  143.7430 C   0  0  0  0  0  0  0  0  0  0  0  0
  193.6690  176.4570  137.3300 O   0  0  0  0  0  0  0  0  0  0  0  0
  193.6810  175.1250  137.7490 C   0  0  0  0  0  2  0  0  0  0  0  0
  195.0850  174.6790  137.9520 C   0  0  0  0  0  0  0  0  0  0  0  0
  195.4250  173.9540  139.0870 O   0  0  0  0  0  1  0  0  0  0  0  0
  195.9700  174.9820  137.1120 O   0  0  0  0  0  0  0  0  0  0  0  0
  1 28  1  6  0  0  0
  1 10  1  0  0  0  0
  2 12  1  0  0  0  0
  2 26  2  0  0  0  0
  3  4  2  0  0  0  0
  5 26  1  0  0  0  0
  5  6  2  0  0  0  0
  6 27  1  0  0  0  0
  7 23  2  0  0  0  0
  7 17  1  0  0  0  0
  8 12  1  0  0  0  0
  9 25  1  0  0  0  0
 10 17  1  0  0  0  0
 11  3  1  0  0  0  0
 12 13  2  0  0  0  0
 13 21  1  0  0  0  0
 13 11  1  0  0  0  0
 14 21  1  0  0  0  0
 14 22  2  0  0  0  0
 15  9  1  0  0  0  0
 16 19  1  0  0  0  0
 16  1  1  0  0  0  0
 17  8  2  0  0  0  0
 18  6  1  0  0  0  0
 18 15  2  0  0  0  0
 19  7  1  0  0  0  0
 20  4  1  0  0  0  0
 21 20  1  0  0  0  0
 23  2  1  0  0  0  0
 24  5  1  0  0  0  0
 26 14  1  0  0  0  0
 27  9  2  0  0  0  0
 27 22  1  0  0  0  0
 28 29  1  0  0  0  0
 29 30  1  0  0  0  0
 30 31  1  0  0  0  0
 32 30  2  0  0  0  0
M  END
>  <MODEL>
8

>  <REMARK>
 VINA RESULT:      -9.3      3.924      6.704
  Name = 
  3 active torsions:
  status: ('A' for Active; 'I' for Inactive)
    1  A    between atoms: C_1  and  C_10
    2  A    between atoms: C_2  and  O_24
    3  A    between atoms: C_10  and  O_24
                            x       y       z     vdW  Elec       q    Type
                         _______ _______ _______ _____ _____    ______ ____

>  <TORSDO>
F 3

$$$$
=
 OpenBabel10262421383D

 32 37  0  0  1  0  0  0  0  0999 V2000
  187.0300  177.5420  146.5530 C   0  0  2  0  0  3  0  0  0  0  0  0
  184.7640  178.5090  142.0510 C   0  0  0  0  0  0  0  0  0  0  0  0
  188.1870  177.3760  138.8120 C   0  0  0  0  0  3  0  0  0  0  0  0
  187.3140  177.5820  137.8200 C   0  0  0  0  0  3  0  0  0  0  0  0
  182.4480  178.8990  141.2150 C   0  0  0  0  0  0  0  0  0  0  0  0
  181.6220  179.0860  140.1120 C   0  0  0  0  0  0  0  0  0  0  0  0
  185.2640  178.3200  144.4360 C   0  0  0  0  0  0  0  0  0  0  0  0
  187.0480  178.1260  142.8110 C   0  0  0  0  0  3  0  0  0  0  0  0
  181.0330  179.2940  138.0130 C   0  0  0  0  0  0  0  0  0  0  0  0
  187.6530  177.9710  145.2260 C   0  0  0  0  0  2  0  0  0  0  0  0
  188.0380  178.1250  140.1050 C   0  0  0  0  0  2  0  0  0  0  0  0
  186.1350  178.3180  141.7620 C   0  0  0  0  0  0  0  0  0  0  0  0
  186.5730  178.3200  140.4290 C   0  0  0  0  0  0  0  0  0  0  0  0
  184.3450  178.7020  139.6450 C   0  0  0  0  0  0  0  0  0  0  0  0
  179.9020  179.4230  138.7430 N   0  0  0  0  0  0  0  0  0  0  0  0
  185.8500  178.4480  146.8790 C   0  0  0  0  0  2  0  0  0  0  0  0
  186.6230  178.1080  144.1390 C   0  0  0  0  0  0  0  0  0  0  0  0
  180.2580  179.2960  140.0450 C   0  0  0  0  0  3  0  0  0  0  0  0
  184.7450  178.2440  145.8450 C   0  0  0  0  0  2  0  0  0  0  0  0
  186.1930  178.5650  138.0190 C   0  0  0  0  0  2  0  0  0  0  0  0
  185.6820  178.5110  139.4010 N   0  0  0  0  0  0  0  0  0  0  0  0
  183.4530  178.8980  138.5660 C   0  0  0  0  0  3  0  0  0  0  0  0
  184.3520  178.5000  143.3950 C   0  0  0  0  0  3  0  0  0  0  0  0
  181.8990  178.9140  142.4570 F   0  0  0  0  0  0  0  0  0  0  0  0
  181.0730  179.3720  136.5270 C   0  0  0  0  0  1  0  0  0  0  0  0
  183.8450  178.7020  140.9920 C   0  0  0  0  0  0  0  0  0  0  0  0
  182.1070  179.0850  138.8420 C   0  0  0  0  0  0  0  0  0  0  0  0
  187.9840  177.6290  147.5680 O   0  0  0  0  0  0  0  0  0  0  0  0
  189.2020  177.3630  146.9390 C   0  0  0  0  0  2  0  0  0  0  0  0
  190.3150  177.5550  147.9060 C   0  0  0  0  0  0  0  0  0  0  0  0
  191.5340  176.9230  147.6960 O   0  0  0  0  0  0  0  0  0  0  0  0
  190.1440  178.2670  148.9290 O   0  0  0  0  0  1  0  0  0  0  0  0
  1 16  1  0  0  0  0
  1 28  1  1  0  0  0
  2 23  1  0  0  0  0
  3 11  1  0  0  0  0
  4 20  1  0  0  0  0
  4  3  2  0  0  0  0
  5 24  1  0  0  0  0
  6  5  2  0  0  0  0
  7 19  1  0  0  0  0
  8 17  2  0  0  0  0
  9 15  1  0  0  0  0
  9 27  2  0  0  0  0
 10  1  1  0  0  0  0
 11 13  1  0  0  0  0
 12  2  1  0  0  0  0
 12  8  1  0  0  0  0
 13 12  2  0  0  0  0
 14 26  1  0  0  0  0
 15 18  2  0  0  0  0
 17  7  1  0  0  0  0
 17 10  1  0  0  0  0
 18  6  1  0  0  0  0
 19 16  1  0  0  0  0
 20 21  1  0  0  0  0
 21 14  1  0  0  0  0
 21 13  1  0  0  0  0
 22 27  1  0  0  0  0
 22 14  2  0  0  0  0
 23  7  2  0  0  0  0
 25  9  1  0  0  0  0
 26  5  1  0  0  0  0
 26  2  2  0  0  0  0
 27  6  1  0  0  0  0
 29 28  1  0  0  0  0
 29 30  1  0  0  0  0
 30 32  1  0  0  0  0
 31 30  2  0  0  0  0
M  END
>  <MODEL>
9

>  <REMARK>
 VINA RESULT:      -9.0      1.295      1.995
  Name = 
  3 active torsions:
  status: ('A' for Active; 'I' for Inactive)
    1  A    between atoms: C_1  and  C_10
    2  A    between atoms: C_2  and  O_24
    3  A    between atoms: C_10  and  O_24
                            x       y       z     vdW  Elec       q    Type
                         _______ _______ _______ _____ _____    ______ ____

>  <TORSDO>
F 3

$$$$
