=
 OpenBabel10262419483D

 25 28  0  0  1  0  0  0  0  0999 V2000
  187.5270  178.0100  145.4330 N   0  0  0  0  0  0  0  0  0  0  0  0
  188.8930  177.7270  145.1260 C   0  0  0  0  0  0  0  0  0  0  0  0
  187.8430  177.5720  147.7730 C   0  0  0  0  0  3  0  0  0  0  0  0
  186.5160  178.7290  144.6810 C   0  0  2  0  0  3  0  0  0  0  0  0
  183.7070  178.6760  144.0370 C   0  0  0  0  0  3  0  0  0  0  0  0
  189.2460  177.1740  147.4800 C   0  0  0  0  0  3  0  0  0  0  0  0
  185.4190  178.8690  145.7060 C   0  0  0  0  0  0  0  0  0  0  0  0
  184.0350  179.0760  145.2730 C   0  0  0  0  0  3  0  0  0  0  0  0
  191.1540  176.8900  145.9410 C   0  0  0  0  0  0  0  0  0  0  0  0
  191.9930  176.4130  146.9410 O   0  0  0  0  0  1  0  0  0  0  0  0
  189.3920  177.8510  143.8940 C   0  0  0  0  0  3  0  0  0  0  0  0
  184.7040  178.0000  143.1640 C   0  0  0  0  0  3  0  0  0  0  0  0
  187.0620  177.9760  146.7680 C   0  0  0  0  0  0  0  0  0  0  0  0
  185.7330  178.4540  146.8960 N   0  0  0  0  0  0  0  0  0  0  0  0
  191.6180  177.0290  144.6950 C   0  0  0  0  0  3  0  0  0  0  0  0
  186.0060  177.9650  143.4870 C   0  0  0  0  0  3  0  0  0  0  0  0
  190.7690  177.5230  143.6440 N   0  0  0  0  0  0  0  0  0  0  0  0
  189.7530  177.2500  146.2340 C   0  0  0  0  0  0  0  0  0  0  0  0
  191.2930  177.6310  142.2950 C   0  0  0  0  0  2  0  0  0  0  0  0
  190.4530  176.7930  141.3440 C   0  0  0  0  0  2  0  0  0  0  0  0
  190.1420  177.5760  140.0780 C   0  0  2  0  0  3  0  0  0  0  0  0
  188.4390  178.2070  140.1510 S   0  0  0  0  0  1  0  0  0  0  0  0
  190.3380  176.7380  138.8490 C   0  0  0  0  0  0  0  0  0  0  0  0
  190.8130  175.6200  138.9550 O   0  0  0  0  0  0  0  0  0  0  0  0
  189.9660  177.2530  137.4960 C   0  0  0  0  0  1  0  0  0  0  0  0
  1 13  1  0  0  0  0
  2  1  1  0  0  0  0
  2 18  1  0  0  0  0
  4 16  1  6  0  0  0
  4  1  1  0  0  0  0
  4  7  1  0  0  0  0
  5  8  2  0  0  0  0
  6  3  1  0  0  0  0
  7 14  2  0  0  0  0
  8  7  1  0  0  0  0
  9 18  1  0  0  0  0
  9 10  1  0  0  0  0
 11  2  2  0  0  0  0
 12 16  2  0  0  0  0
 12  5  1  0  0  0  0
 13 14  1  0  0  0  0
 13  3  2  0  0  0  0
 15  9  2  0  0  0  0
 17 11  1  0  0  0  0
 17 15  1  0  0  0  0
 18  6  2  0  0  0  0
 19 17  1  0  0  0  0
 20 19  1  0  0  0  0
 21 22  1  1  0  0  0
 21 20  1  0  0  0  0
 23 24  2  0  0  0  0
 23 21  1  0  0  0  0
 25 23  1  0  0  0  0
M  END
>  <MODEL>
1

>  <REMARK>
 VINA RESULT:      -9.3      0.000      0.000
  Name = 
  4 active torsions:
  status: ('A' for Active; 'I' for Inactive)
    1  A    between atoms: C_2  and  C_21
    2  A    between atoms: C_6  and  C_15
    3  A    between atoms: C_6  and  N_23
    4  A    between atoms: C_15  and  C_21
                            x       y       z     vdW  Elec       q    Type
                         _______ _______ _______ _____ _____    ______ ____

>  <TORSDO>
F 4

$$$$
=
 OpenBabel10262419483D

 25 28  0  0  1  0  0  0  0  0999 V2000
  187.8180  177.7500  145.4520 N   0  0  0  0  0  0  0  0  0  0  0  0
  186.9110  178.1260  144.4150 C   0  0  0  0  0  0  0  0  0  0  0  0
  186.2290  178.2540  147.1800 C   0  0  0  0  0  3  0  0  0  0  0  0
  189.0240  176.9450  145.4100 C   0  0  2  0  0  3  0  0  0  0  0  0
  191.6770  176.7790  146.5250 C   0  0  0  0  0  3  0  0  0  0  0  0
  185.2930  178.7480  146.1360 C   0  0  0  0  0  3  0  0  0  0  0  0
  189.3050  176.7440  146.8780 C   0  0  0  0  0  0  0  0  0  0  0  0
  190.6630  176.4280  147.3270 C   0  0  0  0  0  3  0  0  0  0  0  0
  184.6650  179.1410  143.7810 C   0  0  0  0  0  0  0  0  0  0  0  0
  183.4360  179.6970  144.1180 O   0  0  0  0  0  1  0  0  0  0  0  0
  187.2160  178.0150  143.1200 C   0  0  0  0  0  3  0  0  0  0  0  0
  191.4270  177.5090  145.2530 C   0  0  0  0  0  3  0  0  0  0  0  0
  187.4190  177.7750  146.8080 C   0  0  0  0  0  0  0  0  0  0  0  0
  188.3860  177.2030  147.6730 N   0  0  0  0  0  0  0  0  0  0  0  0
  185.0060  179.0130  142.4950 C   0  0  0  0  0  3  0  0  0  0  0  0
  190.1860  177.6450  144.7580 C   0  0  0  0  0  3  0  0  0  0  0  0
  186.2710  178.4380  142.1230 N   0  0  0  0  0  0  0  0  0  0  0  0
  185.6020  178.6850  144.8260 C   0  0  0  0  0  0  0  0  0  0  0  0
  186.6250  178.3430  140.7190 C   0  0  0  0  0  2  0  0  0  0  0  0
  188.0990  178.6690  140.5330 C   0  0  0  0  0  2  0  0  0  0  0  0
  188.7610  177.6390  139.6320 C   0  0  2  0  0  3  0  0  0  0  0  0
  190.2000  176.9200  140.4770 S   0  0  0  0  0  1  0  0  0  0  0  0
  189.1710  178.2380  138.3190 C   0  0  0  0  0  0  0  0  0  0  0  0
  189.0040  179.4300  138.1260 O   0  0  0  0  0  0  0  0  0  0  0  0
  189.7740  177.3960  137.2400 C   0  0  0  0  0  1  0  0  0  0  0  0
  1 13  1  0  0  0  0
  2 18  1  0  0  0  0
  2  1  1  0  0  0  0
  4 16  1  1  0  0  0
  4  1  1  0  0  0  0
  4  7  1  0  0  0  0
  5  8  2  0  0  0  0
  6  3  1  0  0  0  0
  7  8  1  0  0  0  0
  7 14  2  0  0  0  0
  9 10  1  0  0  0  0
  9 18  1  0  0  0  0
 11  2  2  0  0  0  0
 12  5  1  0  0  0  0
 13  3  2  0  0  0  0
 13 14  1  0  0  0  0
 15  9  2  0  0  0  0
 16 12  2  0  0  0  0
 17 15  1  0  0  0  0
 17 11  1  0  0  0  0
 18  6  2  0  0  0  0
 19 17  1  0  0  0  0
 20 19  1  0  0  0  0
 21 22  1  1  0  0  0
 21 20  1  0  0  0  0
 23 21  1  0  0  0  0
 24 23  2  0  0  0  0
 25 23  1  0  0  0  0
M  END
>  <MODEL>
2

>  <REMARK>
 VINA RESULT:      -8.9      2.588      4.801
  Name = 
  4 active torsions:
  status: ('A' for Active; 'I' for Inactive)
    1  A    between atoms: C_2  and  C_21
    2  A    between atoms: C_6  and  C_15
    3  A    between atoms: C_6  and  N_23
    4  A    between atoms: C_15  and  C_21
                            x       y       z     vdW  Elec       q    Type
                         _______ _______ _______ _____ _____    ______ ____

>  <TORSDO>
F 4

$$$$
=
 OpenBabel10262419483D

 25 28  0  0  1  0  0  0  0  0999 V2000
  189.1260  177.3370  143.9140 N   0  0  0  0  0  0  0  0  0  0  0  0
  188.2820  177.6480  145.0240 C   0  0  0  0  0  0  0  0  0  0  0  0
  190.9720  176.7550  145.3360 C   0  0  0  0  0  3  0  0  0  0  0  0
  188.8030  177.0450  142.5300 C   0  0  2  0  0  3  0  0  0  0  0  0
  189.7330  177.5050  139.8410 C   0  0  0  0  0  3  0  0  0  0  0  0
  190.1590  177.1650  146.5110 C   0  0  0  0  0  3  0  0  0  0  0  0
  190.1290  176.5530  142.0070 C   0  0  0  0  0  0  0  0  0  0  0  0
  190.4180  176.6150  140.5730 C   0  0  0  0  0  3  0  0  0  0  0  0
  188.0600  177.9560  147.5400 C   0  0  0  0  0  0  0  0  0  0  0  0
  188.5880  177.9350  148.8260 O   0  0  0  0  0  1  0  0  0  0  0  0
  187.0080  178.0160  144.8750 C   0  0  0  0  0  3  0  0  0  0  0  0
  188.7550  178.4260  140.4800 C   0  0  0  0  0  3  0  0  0  0  0  0
  190.4350  176.8430  144.1160 C   0  0  0  0  0  0  0  0  0  0  0  0
  191.0530  176.4240  142.9100 N   0  0  0  0  0  0  0  0  0  0  0  0
  186.7870  178.3180  147.3510 C   0  0  0  0  0  3  0  0  0  0  0  0
  188.3630  178.2570  141.7530 C   0  0  0  0  0  3  0  0  0  0  0  0
  186.2180  178.3450  146.0300 N   0  0  0  0  0  0  0  0  0  0  0  0
  188.8850  177.5810  146.3760 C   0  0  0  0  0  0  0  0  0  0  0  0
  184.8430  178.7750  145.8540 C   0  0  0  0  0  2  0  0  0  0  0  0
  184.2520  178.1250  144.6130 C   0  0  0  0  0  2  0  0  0  0  0  0
  183.7740  179.1870  143.6350 C   0  0  2  0  0  3  0  0  0  0  0  0
  181.9690  179.0860  143.4540 S   0  0  0  0  0  1  0  0  0  0  0  0
  184.4420  179.0450  142.2980 C   0  0  0  0  0  0  0  0  0  0  0  0
  185.4190  179.7270  142.0410 O   0  0  0  0  0  0  0  0  0  0  0  0
  183.9250  178.0870  141.2740 C   0  0  0  0  0  1  0  0  0  0  0  0
  1 13  1  0  0  0  0
  1  2  1  0  0  0  0
  2 18  1  0  0  0  0
  3  6  1  0  0  0  0
  4 16  1  6  0  0  0
  4  1  1  0  0  0  0
  5 12  1  0  0  0  0
  5  8  2  0  0  0  0
  7  4  1  0  0  0  0
  7 14  2  0  0  0  0
  8  7  1  0  0  0  0
  9 10  1  0  0  0  0
 11  2  2  0  0  0  0
 11 17  1  0  0  0  0
 12 16  2  0  0  0  0
 13  3  2  0  0  0  0
 14 13  1  0  0  0  0
 15  9  2  0  0  0  0
 17 15  1  0  0  0  0
 18  6  2  0  0  0  0
 18  9  1  0  0  0  0
 19 17  1  0  0  0  0
 20 19  1  0  0  0  0
 21 22  1  6  0  0  0
 21 20  1  0  0  0  0
 23 21  1  0  0  0  0
 24 23  2  0  0  0  0
 25 23  1  0  0  0  0
M  END
>  <MODEL>
3

>  <REMARK>
 VINA RESULT:      -8.6      2.515      5.566
  Name = 
  4 active torsions:
  status: ('A' for Active; 'I' for Inactive)
    1  A    between atoms: C_2  and  C_21
    2  A    between atoms: C_6  and  C_15
    3  A    between atoms: C_6  and  N_23
    4  A    between atoms: C_15  and  C_21
                            x       y       z     vdW  Elec       q    Type
                         _______ _______ _______ _____ _____    ______ ____

>  <TORSDO>
F 4

$$$$
=
 OpenBabel10262419483D

 25 28  0  0  1  0  0  0  0  0999 V2000
  189.3580  177.4690  144.6220 N   0  0  0  0  0  0  0  0  0  0  0  0
  189.0850  177.5400  143.2220 C   0  0  0  0  0  0  0  0  0  0  0  0
  191.4980  176.4380  144.2670 C   0  0  0  0  0  3  0  0  0  0  0  0
  188.7660  178.1780  145.7400 C   0  0  2  0  0  3  0  0  0  0  0  0
  187.9310  177.8050  148.4730 C   0  0  0  0  0  3  0  0  0  0  0  0
  191.2080  176.4030  142.8090 C   0  0  0  0  0  3  0  0  0  0  0  0
  189.7070  177.8140  146.8610 C   0  0  0  0  0  0  0  0  0  0  0  0
  189.2500  177.8830  148.2510 C   0  0  0  0  0  3  0  0  0  0  0  0
  189.7950  176.9280  140.8550 C   0  0  0  0  0  0  0  0  0  0  0  0
  190.6800  176.3430  139.9570 O   0  0  0  0  0  1  0  0  0  0  0  0
  187.9770  178.1030  142.7350 C   0  0  0  0  0  3  0  0  0  0  0  0
  186.9780  177.6040  147.3480 C   0  0  0  0  0  3  0  0  0  0  0  0
  190.5920  176.9660  145.0940 C   0  0  0  0  0  0  0  0  0  0  0  0
  190.7520  177.1380  146.4930 N   0  0  0  0  0  0  0  0  0  0  0  0
  188.6750  177.5030  140.4050 C   0  0  0  0  0  3  0  0  0  0  0  0
  187.3720  177.7140  146.0700 C   0  0  0  0  0  3  0  0  0  0  0  0
  187.7460  178.1170  141.3160 N   0  0  0  0  0  0  0  0  0  0  0  0
  190.0750  176.9270  142.3040 C   0  0  0  0  0  0  0  0  0  0  0  0
  186.5230  178.7040  140.7990 C   0  0  0  0  0  2  0  0  0  0  0  0
  185.6650  179.2100  141.9480 C   0  0  0  0  0  2  0  0  0  0  0  0
  184.4530  178.3120  142.1410 C   0  0  2  0  0  3  0  0  0  0  0  0
  183.4910  178.2430  140.6000 S   0  0  0  0  0  1  0  0  0  0  0  0
  183.5910  178.7850  143.2740 C   0  0  0  0  0  0  0  0  0  0  0  0
  182.4070  178.9990  143.0780 O   0  0  0  0  0  0  0  0  0  0  0  0
  184.1610  179.0050  144.6390 C   0  0  0  0  0  1  0  0  0  0  0  0
  1 13  1  0  0  0  0
  1  4  1  0  0  0  0
  2  1  1  0  0  0  0
  3 13  2  0  0  0  0
  4 16  1  1  0  0  0
  4  7  1  0  0  0  0
  6  3  1  0  0  0  0
  7  8  1  0  0  0  0
  8  5  2  0  0  0  0
  9 18  1  0  0  0  0
 10  9  1  0  0  0  0
 11  2  2  0  0  0  0
 12  5  1  0  0  0  0
 13 14  1  0  0  0  0
 14  7  2  0  0  0  0
 15  9  2  0  0  0  0
 15 17  1  0  0  0  0
 16 12  2  0  0  0  0
 17 11  1  0  0  0  0
 18  6  2  0  0  0  0
 18  2  1  0  0  0  0
 19 17  1  0  0  0  0
 19 20  1  0  0  0  0
 20 21  1  0  0  0  0
 21 22  1  6  0  0  0
 21 23  1  0  0  0  0
 23 25  1  0  0  0  0
 24 23  2  0  0  0  0
M  END
>  <MODEL>
4

>  <REMARK>
 VINA RESULT:      -8.6      2.692      5.484
  Name = 
  4 active torsions:
  status: ('A' for Active; 'I' for Inactive)
    1  A    between atoms: C_2  and  C_21
    2  A    between atoms: C_6  and  C_15
    3  A    between atoms: C_6  and  N_23
    4  A    between atoms: C_15  and  C_21
                            x       y       z     vdW  Elec       q    Type
                         _______ _______ _______ _____ _____    ______ ____

>  <TORSDO>
F 4

$$$$
=
 OpenBabel10262419483D

 25 28  0  0  1  0  0  0  0  0999 V2000
  187.4500  178.1220  142.7090 N   0  0  0  0  0  0  0  0  0  0  0  0
  187.1700  178.0490  144.1080 C   0  0  0  0  0  0  0  0  0  0  0  0
  185.2530  178.9490  142.1980 C   0  0  0  0  0  3  0  0  0  0  0  0
  188.7120  178.1380  141.9940 C   0  0  2  0  0  3  0  0  0  0  0  0
  189.9720  177.1400  139.6020 C   0  0  0  0  0  3  0  0  0  0  0  0
  184.8920  178.7920  143.6330 C   0  0  0  0  0  3  0  0  0  0  0  0
  188.2650  178.4980  140.5990 C   0  0  0  0  0  0  0  0  0  0  0  0
  189.1020  178.1480  139.4500 C   0  0  0  0  0  3  0  0  0  0  0  0
  185.4520  178.2510  145.9740 C   0  0  0  0  0  0  0  0  0  0  0  0
  184.1660  178.5200  146.4280 O   0  0  0  0  0  1  0  0  0  0  0  0
  188.0870  177.6770  145.0040 C   0  0  0  0  0  3  0  0  0  0  0  0
  190.0410  176.3770  140.8770 C   0  0  0  0  0  3  0  0  0  0  0  0
  186.4880  178.6280  141.8040 C   0  0  0  0  0  0  0  0  0  0  0  0
  187.0040  178.7900  140.4930 N   0  0  0  0  0  0  0  0  0  0  0  0
  186.3970  177.8760  146.8420 C   0  0  0  0  0  3  0  0  0  0  0  0
  189.4050  176.8010  141.9810 C   0  0  0  0  0  3  0  0  0  0  0  0
  187.7360  177.5950  146.3950 N   0  0  0  0  0  0  0  0  0  0  0  0
  185.7920  178.3750  144.5440 C   0  0  0  0  0  0  0  0  0  0  0  0
  188.7310  177.1580  147.3570 C   0  0  0  0  0  2  0  0  0  0  0  0
  190.1170  177.5840  146.8980 C   0  0  0  0  0  2  0  0  0  0  0  0
  190.9250  176.3740  146.4530 C   0  0  2  0  0  3  0  0  0  0  0  0
  192.2020  176.0020  147.6910 S   0  0  0  0  0  1  0  0  0  0  0  0
  191.5490  176.5930  145.1070 C   0  0  0  0  0  0  0  0  0  0  0  0
  191.9620  175.6350  144.4750 O   0  0  0  0  0  0  0  0  0  0  0  0
  191.6810  177.9650  144.5300 C   0  0  0  0  0  1  0  0  0  0  0  0
  1  2  1  0  0  0  0
  2 18  1  0  0  0  0
  2 11  2  0  0  0  0
  3  6  1  0  0  0  0
  4 16  1  6  0  0  0
  4  1  1  0  0  0  0
  5 12  1  0  0  0  0
  6 18  2  0  0  0  0
  7  4  1  0  0  0  0
  8  5  2  0  0  0  0
  8  7  1  0  0  0  0
  9 10  1  0  0  0  0
  9 15  2  0  0  0  0
 11 17  1  0  0  0  0
 12 16  2  0  0  0  0
 13  3  2  0  0  0  0
 13  1  1  0  0  0  0
 14  7  2  0  0  0  0
 14 13  1  0  0  0  0
 17 15  1  0  0  0  0
 17 19  1  0  0  0  0
 18  9  1  0  0  0  0
 20 19  1  0  0  0  0
 21 20  1  0  0  0  0
 21 22  1  1  0  0  0
 23 21  1  0  0  0  0
 24 23  2  0  0  0  0
 25 23  1  0  0  0  0
M  END
>  <MODEL>
5

>  <REMARK>
 VINA RESULT:      -8.6      2.887      5.852
  Name = 
  4 active torsions:
  status: ('A' for Active; 'I' for Inactive)
    1  A    between atoms: C_2  and  C_21
    2  A    between atoms: C_6  and  C_15
    3  A    between atoms: C_6  and  N_23
    4  A    between atoms: C_15  and  C_21
                            x       y       z     vdW  Elec       q    Type
                         _______ _______ _______ _____ _____    ______ ____

>  <TORSDO>
F 4

$$$$
=
 OpenBabel10262419483D

 25 28  0  0  1  0  0  0  0  0999 V2000
  186.9580  177.9800  144.0570 N   0  0  0  0  0  0  0  0  0  0  0  0
  188.1930  177.6340  143.4280 C   0  0  0  0  0  0  0  0  0  0  0  0
  187.7960  177.4570  146.2460 C   0  0  0  0  0  3  0  0  0  0  0  0
  185.8410  178.7730  143.5800 C   0  0  2  0  0  3  0  0  0  0  0  0
  182.9620  178.8890  143.6260 C   0  0  0  0  0  3  0  0  0  0  0  0
  189.0630  176.9940  145.6200 C   0  0  0  0  0  3  0  0  0  0  0  0
  185.0300  178.9410  144.8400 C   0  0  0  0  0  0  0  0  0  0  0  0
  183.5970  179.2350  144.7540 C   0  0  0  0  0  3  0  0  0  0  0  0
  190.5300  176.6540  143.6640 C   0  0  0  0  0  0  0  0  0  0  0  0
  191.5530  176.1040  144.4270 O   0  0  0  0  0  1  0  0  0  0  0  0
  188.3910  177.7670  142.1150 C   0  0  0  0  0  3  0  0  0  0  0  0
  183.6810  178.1880  142.5290 C   0  0  0  0  0  3  0  0  0  0  0  0
  186.8230  177.9310  145.4630 C   0  0  0  0  0  0  0  0  0  0  0  0
  185.5930  178.4760  145.9130 N   0  0  0  0  0  0  0  0  0  0  0  0
  190.6920  176.8040  142.3460 C   0  0  0  0  0  3  0  0  0  0  0  0
  185.0190  178.0740  142.5300 C   0  0  0  0  0  3  0  0  0  0  0  0
  189.6470  177.3740  141.5370 N   0  0  0  0  0  0  0  0  0  0  0  0
  189.2630  177.0800  144.2900 C   0  0  0  0  0  0  0  0  0  0  0  0
  189.8410  177.4930  140.1040 C   0  0  0  0  0  2  0  0  0  0  0  0
  188.7720  178.3960  139.5090 C   0  0  0  0  0  2  0  0  0  0  0  0
  188.1630  177.7570  138.2720 C   0  0  2  0  0  3  0  0  0  0  0  0
  189.0140  178.3670  136.7860 S   0  0  0  0  0  1  0  0  0  0  0  0
  186.6900  178.0260  138.1790 C   0  0  0  0  0  0  0  0  0  0  0  0
  186.1410  178.6660  139.0590 O   0  0  0  0  0  0  0  0  0  0  0  0
  185.8830  177.5170  137.0280 C   0  0  0  0  0  1  0  0  0  0  0  0
  1 13  1  0  0  0  0
  2  1  1  0  0  0  0
  2 18  1  0  0  0  0
  4 16  1  6  0  0  0
  4  1  1  0  0  0  0
  4  7  1  0  0  0  0
  5  8  2  0  0  0  0
  6  3  1  0  0  0  0
  7 14  2  0  0  0  0
  8  7  1  0  0  0  0
  9 18  1  0  0  0  0
  9 10  1  0  0  0  0
 11  2  2  0  0  0  0
 12 16  2  0  0  0  0
 12  5  1  0  0  0  0
 13 14  1  0  0  0  0
 13  3  2  0  0  0  0
 15  9  2  0  0  0  0
 17 11  1  0  0  0  0
 17 15  1  0  0  0  0
 18  6  2  0  0  0  0
 19 17  1  0  0  0  0
 20 19  1  0  0  0  0
 21 22  1  6  0  0  0
 21 20  1  0  0  0  0
 23 21  1  0  0  0  0
 23 24  2  0  0  0  0
 25 23  1  0  0  0  0
M  END
>  <MODEL>
6

>  <REMARK>
 VINA RESULT:      -8.6      2.120      2.467
  Name = 
  4 active torsions:
  status: ('A' for Active; 'I' for Inactive)
    1  A    between atoms: C_2  and  C_21
    2  A    between atoms: C_6  and  C_15
    3  A    between atoms: C_6  and  N_23
    4  A    between atoms: C_15  and  C_21
                            x       y       z     vdW  Elec       q    Type
                         _______ _______ _______ _____ _____    ______ ____

>  <TORSDO>
F 4

$$$$
=
 OpenBabel10262419483D

 25 28  0  0  1  0  0  0  0  0999 V2000
  187.8530  177.6740  143.3180 N   0  0  0  0  0  0  0  0  0  0  0  0
  186.5880  178.0220  143.8830 C   0  0  0  0  0  0  0  0  0  0  0  0
  188.8670  177.3950  145.4770 C   0  0  0  0  0  3  0  0  0  0  0  0
  188.2030  177.2200  141.9850 C   0  0  2  0  0  3  0  0  0  0  0  0
  190.2390  177.4870  139.9630 C   0  0  0  0  0  3  0  0  0  0  0  0
  187.5960  177.8490  146.1010 C   0  0  0  0  0  3  0  0  0  0  0  0
  189.6360  176.7920  142.1780 C   0  0  0  0  0  0  0  0  0  0  0  0
  190.5440  176.7360  141.0300 C   0  0  0  0  0  3  0  0  0  0  0  0
  185.2360  178.5590  145.9710 C   0  0  0  0  0  0  0  0  0  0  0  0
  185.1220  178.7100  147.3480 O   0  0  0  0  0  1  0  0  0  0  0  0
  185.5100  178.2650  143.1330 C   0  0  0  0  0  3  0  0  0  0  0  0
  189.0510  178.3820  139.9740 C   0  0  0  0  0  3  0  0  0  0  0  0
  188.9410  177.3150  144.1450 C   0  0  0  0  0  0  0  0  0  0  0  0
  190.0520  176.8320  143.4080 N   0  0  0  0  0  0  0  0  0  0  0  0
  184.1780  178.7920  145.1880 C   0  0  0  0  0  3  0  0  0  0  0  0
  188.1280  178.3080  140.9470 C   0  0  0  0  0  3  0  0  0  0  0  0
  184.2720  178.6390  143.7610 N   0  0  0  0  0  0  0  0  0  0  0  0
  186.5120  178.1410  145.3580 C   0  0  0  0  0  0  0  0  0  0  0  0
  183.1150  178.9320  142.9350 C   0  0  0  0  0  2  0  0  0  0  0  0
  183.1600  178.0970  141.6650 C   0  0  0  0  0  2  0  0  0  0  0  0
  182.9410  178.9760  140.4440 C   0  0  2  0  0  3  0  0  0  0  0  0
  181.5220  178.3570  139.4900 S   0  0  0  0  0  1  0  0  0  0  0  0
  184.1660  179.0350  139.5790 C   0  0  0  0  0  0  0  0  0  0  0  0
  185.0980  179.7480  139.9090 O   0  0  0  0  0  0  0  0  0  0  0  0
  184.2600  178.2400  138.3170 C   0  0  0  0  0  1  0  0  0  0  0  0
  1  2  1  0  0  0  0
  1 13  1  0  0  0  0
  2 18  1  0  0  0  0
  3  6  1  0  0  0  0
  4 16  1  6  0  0  0
  4  7  1  0  0  0  0
  4  1  1  0  0  0  0
  5 12  1  0  0  0  0
  5  8  2  0  0  0  0
  7 14  2  0  0  0  0
  8  7  1  0  0  0  0
  9 10  1  0  0  0  0
 11 17  1  0  0  0  0
 11  2  2  0  0  0  0
 12 16  2  0  0  0  0
 13  3  2  0  0  0  0
 14 13  1  0  0  0  0
 15  9  2  0  0  0  0
 17 15  1  0  0  0  0
 18  9  1  0  0  0  0
 18  6  2  0  0  0  0
 19 17  1  0  0  0  0
 20 19  1  0  0  0  0
 21 22  1  6  0  0  0
 21 20  1  0  0  0  0
 23 24  2  0  0  0  0
 23 21  1  0  0  0  0
 25 23  1  0  0  0  0
M  END
>  <MODEL>
7

>  <REMARK>
 VINA RESULT:      -8.4      3.116      5.854
  Name = 
  4 active torsions:
  status: ('A' for Active; 'I' for Inactive)
    1  A    between atoms: C_2  and  C_21
    2  A    between atoms: C_6  and  C_15
    3  A    between atoms: C_6  and  N_23
    4  A    between atoms: C_15  and  C_21
                            x       y       z     vdW  Elec       q    Type
                         _______ _______ _______ _____ _____    ______ ____

>  <TORSDO>
F 4

$$$$
=
 OpenBabel10262419483D

 25 28  0  0  1  0  0  0  0  0999 V2000
  189.5990  177.6990  142.3520 N   0  0  0  0  0  0  0  0  0  0  0  0
  188.5330  177.9480  141.4350 C   0  0  0  0  0  0  0  0  0  0  0  0
  191.1430  177.1730  140.5890 C   0  0  0  0  0  3  0  0  0  0  0  0
  189.7660  178.0860  143.7400 C   0  0  2  0  0  3  0  0  0  0  0  0
  190.7720  177.1100  146.2590 C   0  0  0  0  0  3  0  0  0  0  0  0
  190.0340  177.3260  139.6110 C   0  0  0  0  0  3  0  0  0  0  0  0
  191.2110  177.7280  143.9830 C   0  0  0  0  0  0  0  0  0  0  0  0
  191.6830  177.4760  145.3460 C   0  0  0  0  0  3  0  0  0  0  0  0
  187.7010  177.8870  139.0310 C   0  0  0  0  0  0  0  0  0  0  0  0
  187.8940  177.6410  137.6770 O   0  0  0  0  0  1  0  0  0  0  0  0
  187.3270  178.3610  141.8330 C   0  0  0  0  0  3  0  0  0  0  0  0
  189.3460  176.9190  145.8800 C   0  0  0  0  0  3  0  0  0  0  0  0
  190.8940  177.3720  141.8860 C   0  0  0  0  0  0  0  0  0  0  0  0
  191.8560  177.3360  142.9270 N   0  0  0  0  0  0  0  0  0  0  0  0
  186.5080  178.3030  139.4670 C   0  0  0  0  0  3  0  0  0  0  0  0
  188.8820  177.3140  144.6840 C   0  0  0  0  0  3  0  0  0  0  0  0
  186.2860  178.5670  140.8640 N   0  0  0  0  0  0  0  0  0  0  0  0
  188.7990  177.6990  139.9990 C   0  0  0  0  0  0  0  0  0  0  0  0
  184.9700  178.9850  141.3100 C   0  0  0  0  0  2  0  0  0  0  0  0
  185.0330  179.4340  142.7610 C   0  0  0  0  0  2  0  0  0  0  0  0
  184.0830  178.6090  143.6140 C   0  0  2  0  0  3  0  0  0  0  0  0
  182.3650  179.0450  143.2160 S   0  0  0  0  0  1  0  0  0  0  0  0
  184.3460  178.8030  145.0790 C   0  0  0  0  0  0  0  0  0  0  0  0
  183.4100  179.0070  145.8330 O   0  0  0  0  0  0  0  0  0  0  0  0
  185.7360  178.7590  145.6270 C   0  0  0  0  0  1  0  0  0  0  0  0
  1  4  1  0  0  0  0
  2 11  2  0  0  0  0
  2  1  1  0  0  0  0
  3 13  2  0  0  0  0
  4  7  1  0  0  0  0
  4 16  1  1  0  0  0
  6 18  2  0  0  0  0
  6  3  1  0  0  0  0
  7  8  1  0  0  0  0
  8  5  2  0  0  0  0
  9 15  2  0  0  0  0
  9 18  1  0  0  0  0
 10  9  1  0  0  0  0
 12  5  1  0  0  0  0
 13  1  1  0  0  0  0
 13 14  1  0  0  0  0
 14  7  2  0  0  0  0
 15 17  1  0  0  0  0
 16 12  2  0  0  0  0
 17 19  1  0  0  0  0
 17 11  1  0  0  0  0
 18  2  1  0  0  0  0
 19 20  1  0  0  0  0
 20 21  1  0  0  0  0
 21 22  1  1  0  0  0
 21 23  1  0  0  0  0
 23 25  1  0  0  0  0
 23 24  2  0  0  0  0
M  END
>  <MODEL>
8

>  <REMARK>
 VINA RESULT:      -8.3      2.986      6.955
  Name = 
  4 active torsions:
  status: ('A' for Active; 'I' for Inactive)
    1  A    between atoms: C_2  and  C_21
    2  A    between atoms: C_6  and  C_15
    3  A    between atoms: C_6  and  N_23
    4  A    between atoms: C_15  and  C_21
                            x       y       z     vdW  Elec       q    Type
                         _______ _______ _______ _____ _____    ______ ____

>  <TORSDO>
F 4

$$$$
=
 OpenBabel10262419483D

 25 28  0  0  1  0  0  0  0  0999 V2000
  186.6910  178.1180  144.5220 N   0  0  0  0  0  0  0  0  0  0  0  0
  186.7450  178.1980  143.0970 C   0  0  0  0  0  0  0  0  0  0  0  0
  184.4640  179.0150  144.6000 C   0  0  0  0  0  3  0  0  0  0  0  0
  187.4910  177.3540  145.4600 C   0  0  2  0  0  3  0  0  0  0  0  0
  188.7210  177.5330  148.0610 C   0  0  0  0  0  3  0  0  0  0  0  0
  184.5200  179.2070  143.1260 C   0  0  0  0  0  3  0  0  0  0  0  0
  186.7180  177.5420  146.7410 C   0  0  0  0  0  0  0  0  0  0  0  0
  187.3900  177.3780  148.0320 C   0  0  0  0  0  3  0  0  0  0  0  0
  185.6390  178.9720  140.9390 C   0  0  0  0  0  0  0  0  0  0  0  0
  184.5920  179.5700  140.2490 O   0  0  0  0  0  1  0  0  0  0  0  0
  187.7950  177.7660  142.3940 C   0  0  0  0  0  3  0  0  0  0  0  0
  189.4720  177.9080  146.8330 C   0  0  0  0  0  3  0  0  0  0  0  0
  185.5180  178.4820  145.2230 C   0  0  0  0  0  0  0  0  0  0  0  0
  185.5900  178.1700  146.6050 N   0  0  0  0  0  0  0  0  0  0  0  0
  186.7070  178.5260  140.2700 C   0  0  0  0  0  3  0  0  0  0  0  0
  188.8900  177.8880  145.6230 C   0  0  0  0  0  3  0  0  0  0  0  0
  187.8010  177.9010  140.9630 N   0  0  0  0  0  0  0  0  0  0  0  0
  185.5900  178.8170  142.4060 C   0  0  0  0  0  0  0  0  0  0  0  0
  188.9610  177.4570  140.2110 C   0  0  0  0  0  2  0  0  0  0  0  0
  189.9620  176.7950  141.1450 C   0  0  0  0  0  2  0  0  0  0  0  0
  191.1390  177.7220  141.4050 C   0  0  2  0  0  3  0  0  0  0  0  0
  192.5310  177.2590  140.3320 S   0  0  0  0  0  1  0  0  0  0  0  0
  191.5570  177.6930  142.8450 C   0  0  0  0  0  0  0  0  0  0  0  0
  191.9450  176.6460  143.3350 O   0  0  0  0  0  0  0  0  0  0  0  0
  191.4990  178.9240  143.6910 C   0  0  0  0  0  1  0  0  0  0  0  0
  1 13  1  0  0  0  0
  1  4  1  0  0  0  0
  2  1  1  0  0  0  0
  3 13  2  0  0  0  0
  4 16  1  1  0  0  0
  4  7  1  0  0  0  0
  6  3  1  0  0  0  0
  7  8  1  0  0  0  0
  8  5  2  0  0  0  0
  9 18  1  0  0  0  0
 10  9  1  0  0  0  0
 11  2  2  0  0  0  0
 12  5  1  0  0  0  0
 13 14  1  0  0  0  0
 14  7  2  0  0  0  0
 15  9  2  0  0  0  0
 15 17  1  0  0  0  0
 16 12  2  0  0  0  0
 17 11  1  0  0  0  0
 18  2  1  0  0  0  0
 18  6  2  0  0  0  0
 19 17  1  0  0  0  0
 19 20  1  0  0  0  0
 20 21  1  0  0  0  0
 21 22  1  6  0  0  0
 21 23  1  0  0  0  0
 23 24  2  0  0  0  0
 23 25  1  0  0  0  0
M  END
>  <MODEL>
9

>  <REMARK>
 VINA RESULT:      -8.3      2.396      4.861
  Name = 
  4 active torsions:
  status: ('A' for Active; 'I' for Inactive)
    1  A    between atoms: C_2  and  C_21
    2  A    between atoms: C_6  and  C_15
    3  A    between atoms: C_6  and  N_23
    4  A    between atoms: C_15  and  C_21
                            x       y       z     vdW  Elec       q    Type
                         _______ _______ _______ _____ _____    ______ ____

>  <TORSDO>
F 4

$$$$
