=
 OpenBabel10262420113D

 27 31  0  0  1  0  0  0  0  0999 V2000
  187.4240  178.4970  141.3940 N   0  0  0  0  0  2  0  0  0  0  0  0
  187.6900  177.6740  143.7240 C   0  0  2  0  0  3  0  0  0  0  0  0
  189.2280  176.3120  142.2010 C   0  0  0  0  0  2  0  0  0  0  0  0
  190.3490  176.3680  138.7840 C   0  0  0  0  0  3  0  0  0  0  0  0
  189.7530  177.1490  137.8880 C   0  0  0  0  0  3  0  0  0  0  0  0
  186.8030  177.7230  142.4640 C   0  0  1  0  0  3  0  0  0  0  0  0
  188.5360  178.1020  140.5750 C   0  0  0  0  0  0  0  0  0  0  0  0
  189.1180  177.1850  143.4600 C   0  0  1  0  0  3  0  0  0  0  0  0
  190.6400  176.8300  140.1720 C   0  0  0  0  0  2  0  0  0  0  0  0
  189.2390  178.4990  138.1800 C   0  0  0  0  0  3  0  0  0  0  0  0
  188.7260  178.9090  139.3470 C   0  0  0  0  0  3  0  0  0  0  0  0
  189.3850  177.1080  140.9370 C   0  0  0  0  0  0  0  0  0  0  0  0
  183.9380  179.5370  144.1790 C   0  0  0  0  0  3  0  0  0  0  0  0
  185.4480  178.2920  142.7640 C   0  0  0  0  0  0  0  0  0  0  0  0
  184.3940  178.0580  141.8780 C   0  0  0  0  0  3  0  0  0  0  0  0
  183.1300  178.5740  142.1650 C   0  0  0  0  0  3  0  0  0  0  0  0
  182.9290  179.2970  143.3000 N   0  0  0  0  0  0  0  0  0  0  0  0
  185.2180  179.0390  143.9280 C   0  0  0  0  0  3  0  0  0  0  0  0
  190.6350  178.4080  144.7930 C   0  0  0  0  0  2  0  0  0  0  0  0
  191.3920  177.7520  143.7390 C   0  0  0  0  0  2  0  0  0  0  0  0
  190.0590  178.3030  143.4430 N   0  0  0  0  0  0  0  0  0  0  0  0
  187.0800  176.7840  144.7690 C   0  0  0  0  0  3  0  0  0  0  0  0
  187.0890  177.0850  146.0720 C   0  0  0  0  0  3  0  0  0  0  0  0
  189.2320  176.7440  147.7470 C   0  0  0  0  0  1  0  0  0  0  0  0
  187.5910  178.3890  148.0640 C   0  0  0  0  0  2  0  0  0  0  0  0
  188.9170  178.1430  147.4740 N   0  0  0  0  0  0  0  0  0  0  0  0
  187.7180  178.3460  146.6130 C   0  0  1  0  0  3  0  0  0  0  0  0
  1  6  1  0  0  0  0
  2 22  1  1  0  0  0
  4  9  1  0  0  0  0
  5 10  1  0  0  0  0
  5  4  2  0  0  0  0
  6 14  1  1  0  0  0
  6  2  1  0  0  0  0
  7 12  2  0  0  0  0
  7  1  1  0  0  0  0
  8  3  1  6  0  0  0
  8  2  1  0  0  0  0
  9 12  1  0  0  0  0
 10 11  2  0  0  0  0
 11  7  1  0  0  0  0
 12  3  1  0  0  0  0
 14 18  2  0  0  0  0
 15 16  2  0  0  0  0
 15 14  1  0  0  0  0
 16 17  1  0  0  0  0
 17 13  2  0  0  0  0
 18 13  1  0  0  0  0
 20 19  1  0  0  0  0
 21  8  1  0  0  0  0
 21 20  1  0  0  0  0
 21 19  1  0  0  0  0
 22 23  2  0  0  0  0
 26 24  1  0  0  0  0
 26 25  1  0  0  0  0
 27 23  1  1  0  0  0
 27 26  1  0  0  0  0
 27 25  1  0  0  0  0
M  END
>  <MODEL>
1

>  <REMARK>
 VINA RESULT:      -8.0      0.000      0.000
  Name = 
  4 active torsions:
  status: ('A' for Active; 'I' for Inactive)
    1  A    between atoms: C_2  and  C_6
    2  A    between atoms: C_9  and  C_15
    3  A    between atoms: N_14  and  C_19
    4  A    between atoms: C_17  and  C_21
                            x       y       z     vdW  Elec       q    Type
                         _______ _______ _______ _____ _____    ______ ____

>  <TORSDO>
F 4

$$$$
=
 OpenBabel10262420113D

 27 31  0  0  1  0  0  0  0  0999 V2000
  186.9690  177.6180  144.4730 N   0  0  0  0  0  2  0  0  0  0  0  0
  188.4300  177.8150  142.4730 C   0  0  2  0  0  3  0  0  0  0  0  0
  189.7840  178.4830  144.5370 C   0  0  0  0  0  2  0  0  0  0  0  0
  189.4100  178.4470  148.1140 C   0  0  0  0  0  3  0  0  0  0  0  0
  188.2240  178.2140  148.6680 C   0  0  0  0  0  3  0  0  0  0  0  0
  187.2620  178.4100  143.2820 C   0  0  1  0  0  3  0  0  0  0  0  0
  187.7470  177.5490  145.6790 C   0  0  0  0  0  0  0  0  0  0  0  0
  189.7020  177.5820  143.2960 C   0  0  1  0  0  3  0  0  0  0  0  0
  189.8970  177.6830  146.9290 C   0  0  0  0  0  2  0  0  0  0  0  0
  187.2370  177.2570  148.1370 C   0  0  0  0  0  3  0  0  0  0  0  0
  187.0440  176.9650  146.8440 C   0  0  0  0  0  3  0  0  0  0  0  0
  189.0480  177.9300  145.7230 C   0  0  0  0  0  0  0  0  0  0  0  0
  184.9030  179.0180  140.3660 C   0  0  0  0  0  3  0  0  0  0  0  0
  186.0190  178.5320  142.4510 C   0  0  0  0  0  0  0  0  0  0  0  0
  184.7750  178.2940  143.0400 C   0  0  0  0  0  3  0  0  0  0  0  0
  183.6170  178.4230  142.2710 C   0  0  0  0  0  3  0  0  0  0  0  0
  183.7040  178.7790  140.9610 N   0  0  0  0  0  0  0  0  0  0  0  0
  186.0850  178.8980  141.1000 C   0  0  0  0  0  3  0  0  0  0  0  0
  190.7160  175.5710  142.5880 C   0  0  0  0  0  2  0  0  0  0  0  0
  191.2930  175.9370  143.8720 C   0  0  0  0  0  2  0  0  0  0  0  0
  189.8600  176.1680  143.6270 N   0  0  0  0  0  0  0  0  0  0  0  0
  188.7830  178.7050  141.3150 C   0  0  0  0  0  3  0  0  0  0  0  0
  189.0530  178.2320  140.0930 C   0  0  0  0  0  3  0  0  0  0  0  0
  191.4180  177.1590  139.2170 C   0  0  0  0  0  1  0  0  0  0  0  0
  189.3230  176.5520  138.3540 C   0  0  0  0  0  2  0  0  0  0  0  0
  190.3420  176.1800  139.3480 N   0  0  0  0  0  0  0  0  0  0  0  0
  189.0340  176.7580  139.7670 C   0  0  1  0  0  3  0  0  0  0  0  0
  1  7  1  0  0  0  0
  2 22  1  6  0  0  0
  2  6  1  0  0  0  0
  2  8  1  0  0  0  0
  3 12  1  0  0  0  0
  4  5  2  0  0  0  0
  6 14  1  6  0  0  0
  6  1  1  0  0  0  0
  7 12  2  0  0  0  0
  7 11  1  0  0  0  0
  8 21  1  1  0  0  0
  8  3  1  0  0  0  0
  9  4  1  0  0  0  0
 10  5  1  0  0  0  0
 11 10  2  0  0  0  0
 12  9  1  0  0  0  0
 13 17  2  0  0  0  0
 13 18  1  0  0  0  0
 14 15  1  0  0  0  0
 16 15  2  0  0  0  0
 17 16  1  0  0  0  0
 18 14  2  0  0  0  0
 19 21  1  0  0  0  0
 19 20  1  0  0  0  0
 21 20  1  0  0  0  0
 23 22  2  0  0  0  0
 24 26  1  0  0  0  0
 25 26  1  0  0  0  0
 25 27  1  0  0  0  0
 26 27  1  0  0  0  0
 27 23  1  6  0  0  0
M  END
>  <MODEL>
2

>  <REMARK>
 VINA RESULT:      -6.9      1.667      5.827
  Name = 
  4 active torsions:
  status: ('A' for Active; 'I' for Inactive)
    1  A    between atoms: C_2  and  C_6
    2  A    between atoms: C_9  and  C_15
    3  A    between atoms: N_14  and  C_19
    4  A    between atoms: C_17  and  C_21
                            x       y       z     vdW  Elec       q    Type
                         _______ _______ _______ _____ _____    ______ ____

>  <TORSDO>
F 4

$$$$
=
 OpenBabel10262420113D

 27 31  0  0  1  0  0  0  0  0999 V2000
  190.7710  175.9280  139.3570 N   0  0  0  0  0  2  0  0  0  0  0  0
  188.8810  177.4950  139.7390 C   0  0  2  0  0  3  0  0  0  0  0  0
  189.7830  177.8720  137.3760 C   0  0  0  0  0  2  0  0  0  0  0  0
  192.1310  176.3350  135.1270 C   0  0  0  0  0  3  0  0  0  0  0  0
  192.9750  175.4040  135.5620 C   0  0  0  0  0  3  0  0  0  0  0  0
  190.3520  177.1480  140.0390 C   0  0  1  0  0  3  0  0  0  0  0  0
  191.0380  175.7700  137.9540 C   0  0  0  0  0  0  0  0  0  0  0  0
  188.5520  177.5700  138.2430 C   0  0  1  0  0  3  0  0  0  0  0  0
  190.7050  176.3780  135.5610 C   0  0  0  0  0  2  0  0  0  0  0  0
  192.6340  174.3830  136.5690 C   0  0  0  0  0  3  0  0  0  0  0  0
  191.7860  174.5440  137.5940 C   0  0  0  0  0  3  0  0  0  0  0  0
  190.5800  176.6480  137.0260 C   0  0  0  0  0  0  0  0  0  0  0  0
  190.1850  175.9080  143.6270 C   0  0  0  0  0  3  0  0  0  0  0  0
  190.5950  176.9980  141.5120 C   0  0  0  0  0  0  0  0  0  0  0  0
  191.4670  177.8780  142.1560 C   0  0  0  0  0  3  0  0  0  0  0  0
  191.6810  177.7490  143.5290 C   0  0  0  0  0  3  0  0  0  0  0  0
  191.0410  176.7750  144.2310 N   0  0  0  0  0  0  0  0  0  0  0  0
  189.9450  176.0030  142.2550 C   0  0  0  0  0  3  0  0  0  0  0  0
  186.4030  176.6600  137.8850 C   0  0  0  0  0  2  0  0  0  0  0  0
  187.0780  176.7380  136.5990 C   0  0  0  0  0  2  0  0  0  0  0  0
  187.8450  176.3710  137.8020 N   0  0  0  0  0  0  0  0  0  0  0  0
  188.5050  178.8080  140.3630 C   0  0  0  0  0  3  0  0  0  0  0  0
  187.6430  178.9080  141.3810 C   0  0  0  0  0  3  0  0  0  0  0  0
  185.2370  179.3780  142.6070 C   0  0  0  0  0  1  0  0  0  0  0  0
  186.8400  177.8780  143.4330 C   0  0  0  0  0  2  0  0  0  0  0  0
  185.6290  177.9710  142.6020 N   0  0  0  0  0  0  0  0  0  0  0  0
  186.9620  177.7070  141.9920 C   0  0  1  0  0  3  0  0  0  0  0  0
  1  6  1  0  0  0  0
  2  6  1  0  0  0  0
  2 22  1  6  0  0  0
  4  9  1  0  0  0  0
  4  5  2  0  0  0  0
  5 10  1  0  0  0  0
  6 14  1  1  0  0  0
  7  1  1  0  0  0  0
  8  3  1  6  0  0  0
  8  2  1  0  0  0  0
  9 12  1  0  0  0  0
 10 11  2  0  0  0  0
 11  7  1  0  0  0  0
 12  3  1  0  0  0  0
 12  7  2  0  0  0  0
 13 17  1  0  0  0  0
 14 15  2  0  0  0  0
 14 18  1  0  0  0  0
 15 16  1  0  0  0  0
 16 17  2  0  0  0  0
 18 13  2  0  0  0  0
 20 21  1  0  0  0  0
 20 19  1  0  0  0  0
 21 19  1  0  0  0  0
 21  8  1  0  0  0  0
 22 23  2  0  0  0  0
 26 24  1  0  0  0  0
 26 25  1  0  0  0  0
 27 23  1  6  0  0  0
 27 26  1  0  0  0  0
 27 25  1  0  0  0  0
M  END
>  <MODEL>
3

>  <REMARK>
 VINA RESULT:      -6.2      2.344      5.905
  Name = 
  4 active torsions:
  status: ('A' for Active; 'I' for Inactive)
    1  A    between atoms: C_2  and  C_6
    2  A    between atoms: C_9  and  C_15
    3  A    between atoms: N_14  and  C_19
    4  A    between atoms: C_17  and  C_21
                            x       y       z     vdW  Elec       q    Type
                         _______ _______ _______ _____ _____    ______ ____

>  <TORSDO>
F 4

$$$$
=
 OpenBabel10262420113D

 27 31  0  0  1  0  0  0  0  0999 V2000
  183.7000  178.0380  140.2860 N   0  0  0  0  0  2  0  0  0  0  0  0
  181.5210  177.9980  139.0910 C   0  0  2  0  0  3  0  0  0  0  0  0
  181.0690  178.2110  141.5990 C   0  0  0  0  0  2  0  0  0  0  0  0
  182.9390  178.7550  144.6230 C   0  0  0  0  0  3  0  0  0  0  0  0
  184.2650  178.6650  144.6240 C   0  0  0  0  0  3  0  0  0  0  0  0
  182.7440  177.1940  139.5750 C   0  0  1  0  0  3  0  0  0  0  0  0
  183.5560  178.5820  141.6080 C   0  0  0  0  0  0  0  0  0  0  0  0
  180.8220  178.7930  140.1990 C   0  0  1  0  0  3  0  0  0  0  0  0
  182.1880  179.4150  143.5150 C   0  0  0  0  0  2  0  0  0  0  0  0
  185.1250  179.1170  143.5160 C   0  0  0  0  0  3  0  0  0  0  0  0
  184.8090  179.0900  142.2140 C   0  0  0  0  0  3  0  0  0  0  0  0
  182.3510  178.6830  142.2220 C   0  0  0  0  0  0  0  0  0  0  0  0
  183.9610  174.5340  137.1500 C   0  0  0  0  0  3  0  0  0  0  0  0
  183.4410  176.5100  138.4360 C   0  0  0  0  0  0  0  0  0  0  0  0
  184.2800  177.2510  137.6000 C   0  0  0  0  0  3  0  0  0  0  0  0
  184.9410  176.6110  136.5510 C   0  0  0  0  0  3  0  0  0  0  0  0
  184.7700  175.2770  136.3490 N   0  0  0  0  0  0  0  0  0  0  0  0
  183.2800  175.1360  138.2100 C   0  0  0  0  0  3  0  0  0  0  0  0
  180.7370  180.6900  138.7960 C   0  0  0  0  0  2  0  0  0  0  0  0
  179.9030  180.9530  139.9590 C   0  0  0  0  0  2  0  0  0  0  0  0
  181.1640  180.2110  140.1210 N   0  0  0  0  0  0  0  0  0  0  0  0
  180.5050  177.0900  138.4600 C   0  0  0  0  0  3  0  0  0  0  0  0
  180.2040  177.1330  137.1570 C   0  0  0  0  0  3  0  0  0  0  0  0
  179.2310  177.1430  134.5940 C   0  0  0  0  0  1  0  0  0  0  0  0
  181.5050  177.3820  135.1170 C   0  0  0  0  0  2  0  0  0  0  0  0
  180.2750  178.1370  134.8300 N   0  0  0  0  0  0  0  0  0  0  0  0
  180.8550  178.1040  136.2020 C   0  0  1  0  0  3  0  0  0  0  0  0
  1  7  1  0  0  0  0
  2 22  1  1  0  0  0
  2  6  1  0  0  0  0
  2  8  1  0  0  0  0
  3 12  1  0  0  0  0
  4  5  2  0  0  0  0
  6 14  1  6  0  0  0
  6  1  1  0  0  0  0
  7 11  1  0  0  0  0
  7 12  2  0  0  0  0
  8 21  1  1  0  0  0
  8  3  1  0  0  0  0
  9  4  1  0  0  0  0
 10  5  1  0  0  0  0
 11 10  2  0  0  0  0
 12  9  1  0  0  0  0
 13 18  1  0  0  0  0
 15 14  1  0  0  0  0
 16 15  2  0  0  0  0
 17 16  1  0  0  0  0
 17 13  2  0  0  0  0
 18 14  2  0  0  0  0
 19 20  1  0  0  0  0
 19 21  1  0  0  0  0
 20 21  1  0  0  0  0
 23 22  2  0  0  0  0
 24 26  1  0  0  0  0
 25 27  1  0  0  0  0
 26 25  1  0  0  0  0
 26 27  1  0  0  0  0
 27 23  1  1  0  0  0
M  END
>  <MODEL>
4

>  <REMARK>
 VINA RESULT:      -6.1      4.675      9.447
  Name = 
  4 active torsions:
  status: ('A' for Active; 'I' for Inactive)
    1  A    between atoms: C_2  and  C_6
    2  A    between atoms: C_9  and  C_15
    3  A    between atoms: N_14  and  C_19
    4  A    between atoms: C_17  and  C_21
                            x       y       z     vdW  Elec       q    Type
                         _______ _______ _______ _____ _____    ______ ____

>  <TORSDO>
F 4

$$$$
=
 OpenBabel10262420113D

 27 31  0  0  1  0  0  0  0  0999 V2000
  188.3010  178.3050  139.7930 N   0  0  0  0  0  2  0  0  0  0  0  0
  189.6820  177.1710  141.5200 C   0  0  2  0  0  3  0  0  0  0  0  0
  190.1100  176.0410  139.2660 C   0  0  0  0  0  2  0  0  0  0  0  0
  189.2940  176.5730  135.8040 C   0  0  0  0  0  3  0  0  0  0  0  0
  188.3730  177.4660  135.4550 C   0  0  0  0  0  3  0  0  0  0  0  0
  188.2760  177.3880  140.9280 C   0  0  1  0  0  3  0  0  0  0  0  0
  188.7970  178.0340  138.4720 C   0  0  0  0  0  0  0  0  0  0  0  0
  190.7290  176.7320  140.4900 C   0  0  1  0  0  3  0  0  0  0  0  0
  190.2940  176.8410  136.8780 C   0  0  0  0  0  2  0  0  0  0  0  0
  188.1790  178.7610  136.1320 C   0  0  0  0  0  3  0  0  0  0  0  0
  188.3750  179.0030  137.4350 C   0  0  0  0  0  3  0  0  0  0  0  0
  189.6410  177.0040  138.2140 C   0  0  0  0  0  0  0  0  0  0  0  0
  186.3820  177.8780  144.1860 C   0  0  0  0  0  3  0  0  0  0  0  0
  187.3150  177.9030  141.9590 C   0  0  0  0  0  0  0  0  0  0  0  0
  186.4060  178.9030  141.6090 C   0  0  0  0  0  3  0  0  0  0  0  0
  185.5010  179.3710  142.5640 C   0  0  0  0  0  3  0  0  0  0  0  0
  185.5080  178.8540  143.8220 N   0  0  0  0  0  0  0  0  0  0  0  0
  187.3040  177.3840  143.2610 C   0  0  0  0  0  3  0  0  0  0  0  0
  192.7040  177.8790  141.0870 C   0  0  0  0  0  2  0  0  0  0  0  0
  192.9120  177.2770  139.7800 C   0  0  0  0  0  2  0  0  0  0  0  0
  191.5970  177.8460  140.1180 N   0  0  0  0  0  0  0  0  0  0  0  0
  189.6460  176.1420  142.6140 C   0  0  0  0  0  3  0  0  0  0  0  0
  190.2440  176.3200  143.7970 C   0  0  0  0  0  3  0  0  0  0  0  0
  191.3880  176.3900  146.2870 C   0  0  0  0  0  1  0  0  0  0  0  0
  190.3950  178.2530  145.2660 C   0  0  0  0  0  2  0  0  0  0  0  0
  191.6800  177.5660  145.4730 N   0  0  0  0  0  0  0  0  0  0  0  0
  191.0170  177.5710  144.1390 C   0  0  1  0  0  3  0  0  0  0  0  0
  1  6  1  0  0  0  0
  2 22  1  1  0  0  0
  4  9  1  0  0  0  0
  5  4  2  0  0  0  0
  5 10  1  0  0  0  0
  6  2  1  0  0  0  0
  6 14  1  1  0  0  0
  7  1  1  0  0  0  0
  8  3  1  6  0  0  0
  8  2  1  0  0  0  0
  9 12  1  0  0  0  0
 10 11  2  0  0  0  0
 11  7  1  0  0  0  0
 12  7  2  0  0  0  0
 12  3  1  0  0  0  0
 14 18  1  0  0  0  0
 15 14  2  0  0  0  0
 15 16  1  0  0  0  0
 16 17  2  0  0  0  0
 17 13  1  0  0  0  0
 18 13  2  0  0  0  0
 20 21  1  0  0  0  0
 20 19  1  0  0  0  0
 21  8  1  0  0  0  0
 21 19  1  0  0  0  0
 22 23  2  0  0  0  0
 25 26  1  0  0  0  0
 26 24  1  0  0  0  0
 27 23  1  1  0  0  0
 27 25  1  0  0  0  0
 27 26  1  0  0  0  0
M  END
>  <MODEL>
5

>  <REMARK>
 VINA RESULT:      -5.9      1.857      3.084
  Name = 
  4 active torsions:
  status: ('A' for Active; 'I' for Inactive)
    1  A    between atoms: C_2  and  C_6
    2  A    between atoms: C_9  and  C_15
    3  A    between atoms: N_14  and  C_19
    4  A    between atoms: C_17  and  C_21
                            x       y       z     vdW  Elec       q    Type
                         _______ _______ _______ _____ _____    ______ ____

>  <TORSDO>
F 4

$$$$
=
 OpenBabel10262420113D

 27 31  0  0  1  0  0  0  0  0999 V2000
  181.0140  181.3700  139.0020 N   0  0  0  0  0  2  0  0  0  0  0  0
  180.0770  179.1460  138.4110 C   0  0  2  0  0  3  0  0  0  0  0  0
  179.4400  180.8100  136.5770 C   0  0  0  0  0  2  0  0  0  0  0  0
  180.2070  184.1990  135.6490 C   0  0  0  0  0  3  0  0  0  0  0  0
  180.8490  185.0030  136.4910 C   0  0  0  0  0  3  0  0  0  0  0  0
  179.9760  180.3930  139.3110 C   0  0  1  0  0  3  0  0  0  0  0  0
  181.0800  182.2280  137.8510 C   0  0  0  0  0  0  0  0  0  0  0  0
  180.0960  179.4620  136.9110 C   0  0  1  0  0  3  0  0  0  0  0  0
  180.5880  182.7680  135.4700 C   0  0  0  0  0  2  0  0  0  0  0  0
  181.9290  184.5640  137.3920 C   0  0  0  0  0  3  0  0  0  0  0  0
  182.0300  183.3580  137.9680 C   0  0  0  0  0  3  0  0  0  0  0  0
  180.3730  181.9780  136.7210 C   0  0  0  0  0  0  0  0  0  0  0  0
  179.1590  180.0680  143.0080 C   0  0  0  0  0  3  0  0  0  0  0  0
  180.0530  180.0320  140.7660 C   0  0  0  0  0  0  0  0  0  0  0  0
  181.1620  179.3270  141.2390 C   0  0  0  0  0  3  0  0  0  0  0  0
  181.2420  179.0060  142.5950 C   0  0  0  0  0  3  0  0  0  0  0  0
  180.2480  179.3800  143.4450 N   0  0  0  0  0  0  0  0  0  0  0  0
  179.0410  180.4070  141.6590 C   0  0  0  0  0  3  0  0  0  0  0  0
  181.8380  177.9370  136.4480 C   0  0  0  0  0  2  0  0  0  0  0  0
  181.3740  178.4870  135.1840 C   0  0  0  0  0  2  0  0  0  0  0  0
  181.4490  179.3550  136.3700 N   0  0  0  0  0  0  0  0  0  0  0  0
  178.9360  178.2060  138.6730 C   0  0  0  0  0  3  0  0  0  0  0  0
  179.1130  176.9480  139.0920 C   0  0  0  0  0  3  0  0  0  0  0  0
  179.6700  174.6170  137.7630 C   0  0  0  0  0  1  0  0  0  0  0  0
  180.3570  175.0480  139.9630 C   0  0  0  0  0  2  0  0  0  0  0  0
  180.7870  175.1200  138.5580 N   0  0  0  0  0  0  0  0  0  0  0  0
  180.4800  176.3550  139.3330 C   0  0  1  0  0  3  0  0  0  0  0  0
  1  6  1  0  0  0  0
  2 22  1  6  0  0  0
  2  6  1  0  0  0  0
  3 12  1  0  0  0  0
  3  8  1  0  0  0  0
  4  5  2  0  0  0  0
  5 10  1  0  0  0  0
  6 14  1  1  0  0  0
  7 11  1  0  0  0  0
  7  1  1  0  0  0  0
  8 21  1  1  0  0  0
  8  2  1  0  0  0  0
  9  4  1  0  0  0  0
  9 12  1  0  0  0  0
 10 11  2  0  0  0  0
 12  7  2  0  0  0  0
 13 17  1  0  0  0  0
 14 15  2  0  0  0  0
 14 18  1  0  0  0  0
 15 16  1  0  0  0  0
 16 17  2  0  0  0  0
 18 13  2  0  0  0  0
 20 21  1  0  0  0  0
 20 19  1  0  0  0  0
 21 19  1  0  0  0  0
 22 23  2  0  0  0  0
 24 26  1  0  0  0  0
 26 27  1  0  0  0  0
 26 25  1  0  0  0  0
 27 23  1  6  0  0  0
 27 25  1  0  0  0  0
M  END
>  <MODEL>
6

>  <REMARK>
 VINA RESULT:      -5.8      7.523     10.004
  Name = 
  4 active torsions:
  status: ('A' for Active; 'I' for Inactive)
    1  A    between atoms: C_2  and  C_6
    2  A    between atoms: C_9  and  C_15
    3  A    between atoms: N_14  and  C_19
    4  A    between atoms: C_17  and  C_21
                            x       y       z     vdW  Elec       q    Type
                         _______ _______ _______ _____ _____    ______ ____

>  <TORSDO>
F 4

$$$$
=
 OpenBabel10262420113D

 27 31  0  0  1  0  0  0  0  0999 V2000
  188.0650  177.3800  141.3130 N   0  0  0  0  0  2  0  0  0  0  0  0
  188.7070  177.7290  138.9380 C   0  0  2  0  0  3  0  0  0  0  0  0
  190.7300  178.2520  140.4120 C   0  0  0  0  0  2  0  0  0  0  0  0
  191.6760  177.9530  143.8690 C   0  0  0  0  0  3  0  0  0  0  0  0
  190.7660  177.6740  144.7980 C   0  0  0  0  0  3  0  0  0  0  0  0
  187.9240  178.2590  140.1560 C   0  0  1  0  0  3  0  0  0  0  0  0
  189.2250  177.2270  142.1470 C   0  0  0  0  0  0  0  0  0  0  0  0
  190.1850  177.4430  139.2250 C   0  0  1  0  0  3  0  0  0  0  0  0
  191.6840  177.2790  142.5380 C   0  0  0  0  0  2  0  0  0  0  0  0
  189.6330  176.7540  144.5960 C   0  0  0  0  0  3  0  0  0  0  0  0
  188.9780  176.5560  143.4440 C   0  0  0  0  0  3  0  0  0  0  0  0
  190.4620  177.6100  141.7430 C   0  0  0  0  0  0  0  0  0  0  0  0
  184.5850  178.2470  138.3430 C   0  0  0  0  0  3  0  0  0  0  0  0
  186.4670  178.4340  139.8430 C   0  0  0  0  0  0  0  0  0  0  0  0
  185.6260  179.0080  140.7980 C   0  0  0  0  0  3  0  0  0  0  0  0
  184.2730  179.1870  140.5000 C   0  0  0  0  0  3  0  0  0  0  0  0
  183.7850  178.8060  139.2900 N   0  0  0  0  0  0  0  0  0  0  0  0
  185.9430  178.0500  138.6020 C   0  0  0  0  0  3  0  0  0  0  0  0
  190.2650  175.3990  138.0470 C   0  0  0  0  0  2  0  0  0  0  0  0
  191.5980  175.6740  138.5600 C   0  0  0  0  0  2  0  0  0  0  0  0
  190.4200  176.0090  139.3770 N   0  0  0  0  0  0  0  0  0  0  0  0
  188.6360  178.7030  137.7970 C   0  0  0  0  0  3  0  0  0  0  0  0
  188.3120  178.3380  136.5510 C   0  0  0  0  0  3  0  0  0  0  0  0
  189.8800  177.2220  134.5990 C   0  0  0  0  0  1  0  0  0  0  0  0
  187.5740  176.8370  134.7850 C   0  0  0  0  0  2  0  0  0  0  0  0
  188.8930  176.3020  135.1570 N   0  0  0  0  0  0  0  0  0  0  0  0
  187.9940  176.9100  136.1770 C   0  0  1  0  0  3  0  0  0  0  0  0
  1  7  1  0  0  0  0
  2 22  1  6  0  0  0
  2  8  1  0  0  0  0
  2  6  1  0  0  0  0
  3 12  1  0  0  0  0
  4  5  2  0  0  0  0
  6 14  1  6  0  0  0
  6  1  1  0  0  0  0
  7 11  1  0  0  0  0
  8 21  1  1  0  0  0
  8  3  1  0  0  0  0
  9  4  1  0  0  0  0
 10  5  1  0  0  0  0
 11 10  2  0  0  0  0
 12  7  2  0  0  0  0
 12  9  1  0  0  0  0
 13 18  2  0  0  0  0
 13 17  1  0  0  0  0
 14 15  2  0  0  0  0
 16 15  1  0  0  0  0
 17 16  2  0  0  0  0
 18 14  1  0  0  0  0
 19 20  1  0  0  0  0
 19 21  1  0  0  0  0
 20 21  1  0  0  0  0
 23 22  2  0  0  0  0
 24 26  1  0  0  0  0
 25 26  1  0  0  0  0
 25 27  1  0  0  0  0
 26 27  1  0  0  0  0
 27 23  1  6  0  0  0
M  END
>  <MODEL>
7

>  <REMARK>
 VINA RESULT:      -5.6      2.556      6.652
  Name = 
  4 active torsions:
  status: ('A' for Active; 'I' for Inactive)
    1  A    between atoms: C_2  and  C_6
    2  A    between atoms: C_9  and  C_15
    3  A    between atoms: N_14  and  C_19
    4  A    between atoms: C_17  and  C_21
                            x       y       z     vdW  Elec       q    Type
                         _______ _______ _______ _____ _____    ______ ____

>  <TORSDO>
F 4

$$$$
=
 OpenBabel10262420113D

 27 31  0  0  1  0  0  0  0  0999 V2000
  185.3840  177.8390  138.6450 N   0  0  0  0  0  2  0  0  0  0  0  0
  183.7200  176.4800  137.3970 C   0  0  2  0  0  3  0  0  0  0  0  0
  185.7410  176.8800  135.8830 C   0  0  0  0  0  2  0  0  0  0  0  0
  189.0550  178.2530  136.1440 C   0  0  0  0  0  3  0  0  0  0  0  0
  189.4180  178.9470  137.2190 C   0  0  0  0  0  3  0  0  0  0  0  0
  184.1010  177.8670  137.9500 C   0  0  1  0  0  3  0  0  0  0  0  0
  186.6880  177.7370  138.0490 C   0  0  0  0  0  0  0  0  0  0  0  0
  184.8000  175.8440  136.5150 C   0  0  1  0  0  3  0  0  0  0  0  0
  188.2380  177.0090  136.2410 C   0  0  0  0  0  2  0  0  0  0  0  0
  188.9900  178.6280  138.5920 C   0  0  0  0  0  3  0  0  0  0  0  0
  187.8130  178.0940  138.9440 C   0  0  0  0  0  3  0  0  0  0  0  0
  186.8720  177.2850  136.7840 C   0  0  0  0  0  0  0  0  0  0  0  0
  181.3130  179.9880  139.4210 C   0  0  0  0  0  3  0  0  0  0  0  0
  183.0490  178.4010  138.8770 C   0  0  0  0  0  0  0  0  0  0  0  0
  182.8570  177.7930  140.1190 C   0  0  0  0  0  3  0  0  0  0  0  0
  181.8890  178.3000  140.9880 C   0  0  0  0  0  3  0  0  0  0  0  0
  181.1430  179.3780  140.6250 N   0  0  0  0  0  0  0  0  0  0  0  0
  182.2690  179.5110  138.5230 C   0  0  0  0  0  3  0  0  0  0  0  0
  184.5560  173.7580  137.5930 C   0  0  0  0  0  2  0  0  0  0  0  0
  185.4340  173.5710  136.4490 C   0  0  0  0  0  2  0  0  0  0  0  0
  185.5270  174.8070  137.2440 N   0  0  0  0  0  0  0  0  0  0  0  0
  182.4520  176.5570  136.5950 C   0  0  0  0  0  3  0  0  0  0  0  0
  181.3340  175.9100  136.9420 C   0  0  0  0  0  3  0  0  0  0  0  0
  179.0030  174.5020  137.2580 C   0  0  0  0  0  1  0  0  0  0  0  0
  180.1680  175.4940  139.0360 C   0  0  0  0  0  2  0  0  0  0  0  0
  179.9960  174.2350  138.2950 N   0  0  0  0  0  0  0  0  0  0  0  0
  181.2460  175.0370  138.1700 C   0  0  1  0  0  3  0  0  0  0  0  0
  2 22  1  6  0  0  0
  2  6  1  0  0  0  0
  3 12  1  0  0  0  0
  4  9  1  0  0  0  0
  4  5  2  0  0  0  0
  5 10  1  0  0  0  0
  6  1  1  0  0  0  0
  6 14  1  1  0  0  0
  7  1  1  0  0  0  0
  7 11  1  0  0  0  0
  8  3  1  1  0  0  0
  8 21  1  0  0  0  0
  8  2  1  0  0  0  0
  9 12  1  0  0  0  0
 10 11  2  0  0  0  0
 12  7  2  0  0  0  0
 13 17  1  0  0  0  0
 14 15  2  0  0  0  0
 15 16  1  0  0  0  0
 17 16  2  0  0  0  0
 18 14  1  0  0  0  0
 18 13  2  0  0  0  0
 20 21  1  0  0  0  0
 20 19  1  0  0  0  0
 21 19  1  0  0  0  0
 22 23  2  0  0  0  0
 24 26  1  0  0  0  0
 26 25  1  0  0  0  0
 27 23  1  6  0  0  0
 27 26  1  0  0  0  0
 27 25  1  0  0  0  0
M  END
>  <MODEL>
8

>  <REMARK>
 VINA RESULT:      -5.6      5.121      7.602
  Name = 
  4 active torsions:
  status: ('A' for Active; 'I' for Inactive)
    1  A    between atoms: C_2  and  C_6
    2  A    between atoms: C_9  and  C_15
    3  A    between atoms: N_14  and  C_19
    4  A    between atoms: C_17  and  C_21
                            x       y       z     vdW  Elec       q    Type
                         _______ _______ _______ _____ _____    ______ ____

>  <TORSDO>
F 4

$$$$
=
 OpenBabel10262420113D

 27 31  0  0  1  0  0  0  0  0999 V2000
  182.8150  176.7020  138.7830 N   0  0  0  0  0  2  0  0  0  0  0  0
  184.9800  177.9040  138.5750 C   0  0  2  0  0  3  0  0  0  0  0  0
  183.2190  179.5450  139.4370 C   0  0  0  0  0  2  0  0  0  0  0  0
  179.8200  179.4570  140.6100 C   0  0  0  0  0  3  0  0  0  0  0  0
  179.0750  178.3690  140.4440 C   0  0  0  0  0  3  0  0  0  0  0  0
  183.7710  177.2860  137.8470 C   0  0  1  0  0  3  0  0  0  0  0  0
  181.9120  177.4070  139.6500 C   0  0  0  0  0  0  0  0  0  0  0  0
  184.6010  178.9140  139.6640 C   0  0  1  0  0  3  0  0  0  0  0  0
  181.2540  179.3830  141.0150 C   0  0  0  0  0  2  0  0  0  0  0  0
  179.5870  176.9910  140.5510 C   0  0  0  0  0  3  0  0  0  0  0  0
  180.8190  176.5840  140.2170 C   0  0  0  0  0  3  0  0  0  0  0  0
  182.0900  178.7120  139.9730 C   0  0  0  0  0  0  0  0  0  0  0  0
  184.5960  175.5040  134.5940 C   0  0  0  0  0  3  0  0  0  0  0  0
  184.1950  176.2400  136.8580 C   0  0  0  0  0  0  0  0  0  0  0  0
  184.5630  174.9730  137.3150 C   0  0  0  0  0  3  0  0  0  0  0  0
  184.9420  173.9960  136.3940 C   0  0  0  0  0  3  0  0  0  0  0  0
  184.9510  174.2780  135.0630 N   0  0  0  0  0  0  0  0  0  0  0  0
  184.2110  176.5100  135.4830 C   0  0  0  0  0  3  0  0  0  0  0  0
  186.1620  178.3200  141.3320 C   0  0  0  0  0  2  0  0  0  0  0  0
  185.2980  179.3570  141.8740 C   0  0  0  0  0  2  0  0  0  0  0  0
  184.7290  178.3230  140.9930 N   0  0  0  0  0  0  0  0  0  0  0  0
  185.8920  178.5920  137.6000 C   0  0  0  0  0  3  0  0  0  0  0  0
  187.1200  178.1440  137.3150 C   0  0  0  0  0  3  0  0  0  0  0  0
  189.1720  178.5530  139.0860 C   0  0  0  0  0  1  0  0  0  0  0  0
  189.1030  176.7600  137.5760 C   0  0  0  0  0  2  0  0  0  0  0  0
  188.7790  177.1520  138.9560 N   0  0  0  0  0  0  0  0  0  0  0  0
  187.7050  176.9070  137.9540 C   0  0  1  0  0  3  0  0  0  0  0  0
  1  7  1  0  0  0  0
  2 22  1  6  0  0  0
  2  8  1  0  0  0  0
  3 12  1  0  0  0  0
  4  9  1  0  0  0  0
  5 10  1  0  0  0  0
  5  4  2  0  0  0  0
  6 14  1  6  0  0  0
  6  2  1  0  0  0  0
  6  1  1  0  0  0  0
  7 12  2  0  0  0  0
  7 11  1  0  0  0  0
  8  3  1  6  0  0  0
  8 21  1  0  0  0  0
 11 10  2  0  0  0  0
 12  9  1  0  0  0  0
 13 17  2  0  0  0  0
 13 18  1  0  0  0  0
 14 15  1  0  0  0  0
 16 15  2  0  0  0  0
 17 16  1  0  0  0  0
 18 14  2  0  0  0  0
 19 20  1  0  0  0  0
 21 19  1  0  0  0  0
 21 20  1  0  0  0  0
 23 22  2  0  0  0  0
 25 27  1  0  0  0  0
 25 26  1  0  0  0  0
 26 24  1  0  0  0  0
 27 23  1  6  0  0  0
 27 26  1  0  0  0  0
M  END
>  <MODEL>
9

>  <REMARK>
 VINA RESULT:      -5.4      4.002      8.167
  Name = 
  4 active torsions:
  status: ('A' for Active; 'I' for Inactive)
    1  A    between atoms: C_2  and  C_6
    2  A    between atoms: C_9  and  C_15
    3  A    between atoms: N_14  and  C_19
    4  A    between atoms: C_17  and  C_21
                            x       y       z     vdW  Elec       q    Type
                         _______ _______ _______ _____ _____    ______ ____

>  <TORSDO>
F 4

$$$$
