=
 OpenBabel10262423083D

 37 41  0  0  1  0  0  0  0  0999 V2000
  186.3820  179.5070  142.8740 O   0  0  0  0  0  0  0  0  0  0  0  0
  182.8780  178.9210  142.9930 O   0  0  0  0  0  0  0  0  0  0  0  0
  187.7200  177.5720  143.9530 C   0  0  2  0  0  0  0  0  0  0  0  0
  185.2380  178.6820  142.8560 C   0  0  1  0  0  0  0  0  0  0  0  0
  187.5470  178.6990  142.8780 C   0  0  1  0  0  3  0  0  0  0  0  0
  184.0860  179.3340  143.5820 C   0  0  2  0  0  3  0  0  0  0  0  0
  187.0990  176.2770  143.4420 C   0  0  0  0  0  1  0  0  0  0  0  0
  188.2620  178.5820  141.5100 C   0  0  2  0  0  3  0  0  0  0  0  0
  185.0190  178.4150  146.6570 C   0  0  0  0  0  1  0  0  0  0  0  0
  187.0510  177.9020  145.3190 C   0  0  0  0  0  2  0  0  0  0  0  0
  187.5790  179.2570  140.4700 O   0  0  0  0  0  0  0  0  0  0  0  0
  185.6900  178.6030  145.3120 C   0  0  1  0  0  3  0  0  0  0  0  0
  184.6360  178.2320  141.5430 C   0  0  1  0  0  3  0  0  0  0  0  0
  183.1670  178.5870  141.6580 C   0  0  1  0  0  3  0  0  0  0  0  0
  185.2060  178.9790  140.3450 C   0  0  0  0  0  2  0  0  0  0  0  0
  186.5640  178.4240  139.9710 C   0  0  0  0  0  2  0  0  0  0  0  0
  184.7680  178.1260  144.1980 C   0  0  2  0  0  3  0  0  0  0  0  0
  189.7490  177.2150  145.5300 C   0  0  0  0  0  2  0  0  0  0  0  0
  189.2410  177.2910  144.0980 C   0  0  0  0  0  3  0  0  0  0  0  0
  190.0040  178.4600  144.6990 C   0  0  0  0  0  2  0  0  0  0  0  0
  182.2930  177.4160  141.2140 C   0  0  2  0  0  3  0  0  0  0  0  0
  182.8130  176.8430  140.0490 O   0  0  0  0  0  0  0  0  0  0  0  0
  182.0840  177.4170  139.0060 C   0  0  0  0  0  1  0  0  0  0  0  0
  180.9740  177.8860  140.9600 O   0  0  0  0  0  0  0  0  0  0  0  0
  179.5470  178.1040  142.9470 N   0  0  0  0  0  1  0  0  0  0  0  0
  179.1530  176.5310  141.2890 O   0  0  0  0  0  0  0  0  0  0  0  0
  179.8740  177.4710  141.7120 C   0  0  0  0  0  0  0  0  0  0  0  0
  188.6110  177.2590  141.1710 O   0  0  0  0  0  0  0  0  0  0  0  0
  190.9450  176.8170  141.4400 C   0  0  0  0  0  1  0  0  0  0  0  0
  189.8520  177.3470  140.5290 C   0  0  1  0  0  3  0  0  0  0  0  0
  189.8430  176.5690  139.2430 C   0  0  0  0  0  0  0  0  0  0  0  0
  190.6350  175.6490  139.0960 O   0  0  0  0  0  0  0  0  0  0  0  0
  188.8780  176.9140  138.1450 C   0  0  2  0  0  3  0  0  0  0  0  0
  188.5240  175.6770  137.3370 C   0  0  0  0  0  1  0  0  0  0  0  0
  189.4500  177.9950  137.2450 C   0  0  0  0  0  2  0  0  0  0  0  0
  188.7020  179.1650  137.3740 O   0  0  0  0  0  0  0  0  0  0  0  0
  187.6150  178.9790  136.5220 C   0  0  0  0  0  1  0  0  0  0  0  0
  3  7  1  6  0  0  0
  3 19  1  0  0  0  0
  3 10  1  0  0  0  0
  4  1  1  6  0  0  0
  4  6  1  0  0  0  0
  4 17  1  0  0  0  0
  5  1  1  6  0  0  0
  5  3  1  0  0  0  0
  6  2  1  6  0  0  0
  6 17  1  0  0  0  0
  8 28  1  6  0  0  0
  8  5  1  0  0  0  0
 11  8  1  0  0  0  0
 12 10  1  0  0  0  0
 12  9  1  1  0  0  0
 13 15  1  6  0  0  0
 13 14  1  0  0  0  0
 13  4  1  0  0  0  0
 14 21  1  1  0  0  0
 14  2  1  0  0  0  0
 16 15  1  0  0  0  0
 16 11  1  0  0  0  0
 17 12  1  0  0  0  0
 19 20  1  0  0  0  0
 19 18  1  0  0  0  0
 20 18  1  0  0  0  0
 22 21  1  0  0  0  0
 23 22  1  0  0  0  0
 24 21  1  0  0  0  0
 24 27  1  0  0  0  0
 26 27  2  0  0  0  0
 27 25  1  0  0  0  0
 30 28  1  0  0  0  0
 30 29  1  0  0  0  0
 31 30  1  0  0  0  0
 32 31  2  0  0  0  0
 33 31  1  0  0  0  0
 34 33  1  0  0  0  0
 35 36  1  0  0  0  0
 35 33  1  0  0  0  0
 37 36  1  0  0  0  0
M  END
>  <MODEL>
1

>  <REMARK>
 VINA RESULT:      -6.7      0.000      0.000
  Name = 
  11 active torsions:
  status: ('A' for Active; 'I' for Inactive)
    1  A    between atoms: C_1  and  C_5
    2  A    between atoms: C_1  and  C_23
    3  A    between atoms: O_2  and  C_6
    4  A    between atoms: C_5  and  C_26
    5  A    between atoms: C_6  and  O_8
    6  A    between atoms: C_6  and  C_31
    7  A    between atoms: O_8  and  C_19
    8  A    between atoms: C_9  and  C_30
    9  A    between atoms: O_11  and  C_26
   10  A    between atoms: C_20  and  O_25
   11  A    between atoms: C_23  and  O_25
                            x       y       z     vdW  Elec       q    Type
                         _______ _______ _______ _____ _____    ______ ____

>  <TORSDO>
F 11

$$$$
=
 OpenBabel10262423083D

 37 41  0  0  1  0  0  0  0  0999 V2000
  186.4980  179.4790  142.8260 O   0  0  0  0  0  0  0  0  0  0  0  0
  182.9960  178.8800  142.9490 O   0  0  0  0  0  0  0  0  0  0  0  0
  187.8450  177.5390  143.8830 C   0  0  2  0  0  0  0  0  0  0  0  0
  185.3570  178.6510  142.8040 C   0  0  1  0  0  0  0  0  0  0  0  0
  187.6660  178.6750  142.8200 C   0  0  1  0  0  3  0  0  0  0  0  0
  184.2040  179.2910  143.5390 C   0  0  2  0  0  3  0  0  0  0  0  0
  187.2280  176.2460  143.3620 C   0  0  0  0  0  1  0  0  0  0  0  0
  188.3770  178.5730  141.4490 C   0  0  2  0  0  3  0  0  0  0  0  0
  185.1480  178.3460  146.6030 C   0  0  0  0  0  1  0  0  0  0  0  0
  187.1780  177.8540  145.2540 C   0  0  0  0  0  2  0  0  0  0  0  0
  187.6900  179.2560  140.4170 O   0  0  0  0  0  0  0  0  0  0  0  0
  185.8150  178.5500  145.2580 C   0  0  1  0  0  3  0  0  0  0  0  0
  184.7530  178.2110  141.4880 C   0  0  1  0  0  3  0  0  0  0  0  0
  183.2830  178.5600  141.6100 C   0  0  1  0  0  3  0  0  0  0  0  0
  185.3170  178.9710  140.2950 C   0  0  0  0  0  2  0  0  0  0  0  0
  186.6760  178.4240  139.9130 C   0  0  0  0  0  2  0  0  0  0  0  0
  184.8920  178.0800  144.1420 C   0  0  2  0  0  3  0  0  0  0  0  0
  189.8770  177.1590  145.4520 C   0  0  0  0  0  2  0  0  0  0  0  0
  189.3670  177.2620  144.0220 C   0  0  0  0  0  3  0  0  0  0  0  0
  190.1260  178.4220  144.6460 C   0  0  0  0  0  2  0  0  0  0  0  0
  182.4120  177.3900  141.1570 C   0  0  2  0  0  3  0  0  0  0  0  0
  183.0730  176.6520  140.1700 O   0  0  0  0  0  0  0  0  0  0  0  0
  182.1140  176.4330  139.1780 C   0  0  0  0  0  1  0  0  0  0  0  0
  181.1890  177.8930  140.6300 O   0  0  0  0  0  0  0  0  0  0  0  0
  179.4370  177.7000  142.3390 N   0  0  0  0  0  1  0  0  0  0  0  0
  180.0230  179.7240  141.3710 O   0  0  0  0  0  0  0  0  0  0  0  0
  180.2130  178.4820  141.4360 C   0  0  0  0  0  0  0  0  0  0  0  0
  188.7300  177.2550  141.0970 O   0  0  0  0  0  0  0  0  0  0  0  0
  191.0780  176.8470  141.2920 C   0  0  0  0  0  1  0  0  0  0  0  0
  189.9490  177.3580  140.4140 C   0  0  1  0  0  3  0  0  0  0  0  0
  189.9090  176.5750  139.1320 C   0  0  0  0  0  0  0  0  0  0  0  0
  190.5920  175.5660  139.0280 O   0  0  0  0  0  0  0  0  0  0  0  0
  189.0460  177.0210  137.9870 C   0  0  2  0  0  3  0  0  0  0  0  0
  188.0640  175.9280  137.6000 C   0  0  0  0  0  1  0  0  0  0  0  0
  189.8970  177.4220  136.7950 C   0  0  0  0  0  2  0  0  0  0  0  0
  189.6470  176.5640  135.7240 O   0  0  0  0  0  0  0  0  0  0  0  0
  190.9100  176.1350  135.3190 C   0  0  0  0  0  1  0  0  0  0  0  0
  3  7  1  6  0  0  0
  3 19  1  0  0  0  0
  3 10  1  0  0  0  0
  4  1  1  6  0  0  0
  4  6  1  0  0  0  0
  4 17  1  0  0  0  0
  5  1  1  6  0  0  0
  5  3  1  0  0  0  0
  6  2  1  6  0  0  0
  6 17  1  0  0  0  0
  8 28  1  6  0  0  0
  8  5  1  0  0  0  0
 10 12  1  0  0  0  0
 11  8  1  0  0  0  0
 12  9  1  1  0  0  0
 13 15  1  6  0  0  0
 13 14  1  0  0  0  0
 13  4  1  0  0  0  0
 14 21  1  1  0  0  0
 14  2  1  0  0  0  0
 16 15  1  0  0  0  0
 16 11  1  0  0  0  0
 17 12  1  0  0  0  0
 19 20  1  0  0  0  0
 19 18  1  0  0  0  0
 20 18  1  0  0  0  0
 22 21  1  0  0  0  0
 23 22  1  0  0  0  0
 24 21  1  0  0  0  0
 24 27  1  0  0  0  0
 26 27  2  0  0  0  0
 27 25  1  0  0  0  0
 30 28  1  0  0  0  0
 30 29  1  0  0  0  0
 31 30  1  0  0  0  0
 32 31  2  0  0  0  0
 33 31  1  0  0  0  0
 34 33  1  0  0  0  0
 35 33  1  0  0  0  0
 36 35  1  0  0  0  0
 37 36  1  0  0  0  0
M  END
>  <MODEL>
2

>  <REMARK>
 VINA RESULT:      -6.2      0.887      1.120
  Name = 
  11 active torsions:
  status: ('A' for Active; 'I' for Inactive)
    1  A    between atoms: C_1  and  C_5
    2  A    between atoms: C_1  and  C_23
    3  A    between atoms: O_2  and  C_6
    4  A    between atoms: C_5  and  C_26
    5  A    between atoms: C_6  and  O_8
    6  A    between atoms: C_6  and  C_31
    7  A    between atoms: O_8  and  C_19
    8  A    between atoms: C_9  and  C_30
    9  A    between atoms: O_11  and  C_26
   10  A    between atoms: C_20  and  O_25
   11  A    between atoms: C_23  and  O_25
                            x       y       z     vdW  Elec       q    Type
                         _______ _______ _______ _____ _____    ______ ____

>  <TORSDO>
F 11

$$$$
=
 OpenBabel10262423083D

 37 41  0  0  1  0  0  0  0  0999 V2000
  183.0210  178.6400  137.8120 O   0  0  0  0  0  0  0  0  0  0  0  0
  184.2740  176.5570  135.2180 O   0  0  0  0  0  0  0  0  0  0  0  0
  181.6740  177.2940  139.5640 C   0  0  2  0  0  0  0  0  0  0  0  0
  183.5320  177.4300  137.3010 C   0  0  1  0  0  0  0  0  0  0  0  0
  182.6430  178.4590  139.1670 C   0  0  1  0  0  3  0  0  0  0  0  0
  183.2430  177.2970  135.8250 C   0  0  2  0  0  3  0  0  0  0  0  0
  182.4810  176.0340  139.8580 C   0  0  0  0  0  1  0  0  0  0  0  0
  183.6470  179.0210  140.2020 C   0  0  2  0  0  3  0  0  0  0  0  0
  180.1260  176.1400  136.1600 C   0  0  0  0  0  1  0  0  0  0  0  0
  180.6390  176.9360  138.4590 C   0  0  0  0  0  2  0  0  0  0  0  0
  184.8110  179.5640  139.6060 O   0  0  0  0  0  0  0  0  0  0  0  0
  181.1010  176.9390  137.0000 C   0  0  1  0  0  3  0  0  0  0  0  0
  185.0060  177.1090  137.4150 C   0  0  1  0  0  3  0  0  0  0  0  0
  185.4240  176.7360  136.0070 C   0  0  1  0  0  3  0  0  0  0  0  0
  185.8390  178.3070  137.8500 C   0  0  0  0  0  2  0  0  0  0  0  0
  185.7180  178.5240  139.3430 C   0  0  0  0  0  2  0  0  0  0  0  0
  182.5130  176.4030  136.8100 C   0  0  2  0  0  3  0  0  0  0  0  0
  179.5160  177.3280  141.0050 C   0  0  0  0  0  2  0  0  0  0  0  0
  180.9910  177.6880  140.9020 C   0  0  0  0  0  3  0  0  0  0  0  0
  179.9300  178.7630  140.7320 C   0  0  0  0  0  2  0  0  0  0  0  0
  186.2550  175.4540  136.0130 C   0  0  2  0  0  3  0  0  0  0  0  0
  185.9740  174.7040  137.1590 O   0  0  0  0  0  0  0  0  0  0  0  0
  185.4000  173.5220  136.6870 C   0  0  0  0  0  1  0  0  0  0  0  0
  187.6370  175.7920  135.9970 O   0  0  0  0  0  0  0  0  0  0  0  0
  189.2600  174.2830  137.0540 N   0  0  0  0  0  1  0  0  0  0  0  0
  188.6040  176.2880  138.0170 O   0  0  0  0  0  0  0  0  0  0  0  0
  188.4950  175.4850  137.0540 C   0  0  0  0  0  0  0  0  0  0  0  0
  183.9330  178.1230  141.2500 O   0  0  0  0  0  0  0  0  0  0  0  0
  183.0010  178.7460  143.3620 C   0  0  0  0  0  1  0  0  0  0  0  0
  184.1490  178.9180  142.3830 C   0  0  1  0  0  3  0  0  0  0  0  0
  185.4440  178.5520  143.0510 C   0  0  0  0  0  0  0  0  0  0  0  0
  186.4840  178.6120  142.4110 O   0  0  0  0  0  0  0  0  0  0  0  0
  185.4680  178.1130  144.4880 C   0  0  2  0  0  3  0  0  0  0  0  0
  185.5220  179.3170  145.4130 C   0  0  0  0  0  1  0  0  0  0  0  0
  186.6420  177.1860  144.7480 C   0  0  0  0  0  2  0  0  0  0  0  0
  187.4730  177.7340  145.7250 O   0  0  0  0  0  0  0  0  0  0  0  0
  188.7600  177.3820  145.3240 C   0  0  0  0  0  1  0  0  0  0  0  0
  2 14  1  0  0  0  0
  3  7  1  1  0  0  0
  3 19  1  0  0  0  0
  4 13  1  0  0  0  0
  4  1  1  1  0  0  0
  5  1  1  6  0  0  0
  5  3  1  0  0  0  0
  5  8  1  0  0  0  0
  6  2  1  6  0  0  0
  6 17  1  0  0  0  0
  6  4  1  0  0  0  0
  8 28  1  1  0  0  0
 10  3  1  0  0  0  0
 11  8  1  0  0  0  0
 12  9  1  6  0  0  0
 12 10  1  0  0  0  0
 13 15  1  6  0  0  0
 14 21  1  1  0  0  0
 14 13  1  0  0  0  0
 15 16  1  0  0  0  0
 16 11  1  0  0  0  0
 17 12  1  0  0  0  0
 17  4  1  0  0  0  0
 19 18  1  0  0  0  0
 20 19  1  0  0  0  0
 20 18  1  0  0  0  0
 21 22  1  0  0  0  0
 23 22  1  0  0  0  0
 24 21  1  0  0  0  0
 24 27  1  0  0  0  0
 25 27  1  0  0  0  0
 27 26  2  0  0  0  0
 28 30  1  0  0  0  0
 30 31  1  0  0  0  0
 30 29  1  0  0  0  0
 31 33  1  0  0  0  0
 32 31  2  0  0  0  0
 33 35  1  0  0  0  0
 33 34  1  0  0  0  0
 35 36  1  0  0  0  0
 37 36  1  0  0  0  0
M  END
>  <MODEL>
3

>  <REMARK>
 VINA RESULT:      -6.0      3.111      7.751
  Name = 
  11 active torsions:
  status: ('A' for Active; 'I' for Inactive)
    1  A    between atoms: C_1  and  C_5
    2  A    between atoms: C_1  and  C_23
    3  A    between atoms: O_2  and  C_6
    4  A    between atoms: C_5  and  C_26
    5  A    between atoms: C_6  and  O_8
    6  A    between atoms: C_6  and  C_31
    7  A    between atoms: O_8  and  C_19
    8  A    between atoms: C_9  and  C_30
    9  A    between atoms: O_11  and  C_26
   10  A    between atoms: C_20  and  O_25
   11  A    between atoms: C_23  and  O_25
                            x       y       z     vdW  Elec       q    Type
                         _______ _______ _______ _____ _____    ______ ____

>  <TORSDO>
F 11

$$$$
=
 OpenBabel10262423083D

 37 41  0  0  1  0  0  0  0  0999 V2000
  189.3960  178.3210  138.6920 O   0  0  0  0  0  0  0  0  0  0  0  0
  191.1560  177.2430  141.5870 O   0  0  0  0  0  0  0  0  0  0  0  0
  188.8780  176.3560  137.0900 C   0  0  2  0  0  0  0  0  0  0  0  0
  189.7150  177.3910  139.7020 C   0  0  1  0  0  0  0  0  0  0  0  0
  188.5100  177.7230  137.7600 C   0  0  1  0  0  3  0  0  0  0  0  0
  191.1100  177.6180  140.2320 C   0  0  2  0  0  3  0  0  0  0  0  0
  188.3780  175.2070  137.9590 C   0  0  0  0  0  1  0  0  0  0  0  0
  187.0260  178.1340  137.9180 C   0  0  2  0  0  3  0  0  0  0  0  0
  192.7010  175.9370  137.8220 C   0  0  0  0  0  1  0  0  0  0  0  0
  190.4080  176.1510  136.8840 C   0  0  0  0  0  2  0  0  0  0  0  0
  186.8050  178.9950  139.0200 O   0  0  0  0  0  0  0  0  0  0  0  0
  191.3600  176.6220  137.9860 C   0  0  1  0  0  3  0  0  0  0  0  0
  188.8620  177.2880  140.9480 C   0  0  1  0  0  3  0  0  0  0  0  0
  189.8510  177.3810  142.0930 C   0  0  1  0  0  3  0  0  0  0  0  0
  187.8760  178.4400  141.0860 C   0  0  0  0  0  2  0  0  0  0  0  0
  186.6780  178.2220  140.1860 C   0  0  0  0  0  2  0  0  0  0  0  0
  190.8240  176.3880  139.3920 C   0  0  2  0  0  3  0  0  0  0  0  0
  188.8580  175.6480  134.5940 C   0  0  0  0  0  2  0  0  0  0  0  0
  188.0900  176.2590  135.7560 C   0  0  0  0  0  3  0  0  0  0  0  0
  188.6590  177.1520  134.6650 C   0  0  0  0  0  2  0  0  0  0  0  0
  189.5780  176.2940  143.1310 C   0  0  2  0  0  3  0  0  0  0  0  0
  188.2100  176.0080  143.1790 O   0  0  0  0  0  0  0  0  0  0  0  0
  187.7320  176.7130  144.2860 C   0  0  0  0  0  1  0  0  0  0  0  0
  190.0120  176.7460  144.4080 O   0  0  0  0  0  0  0  0  0  0  0  0
  192.0930  175.4470  144.4890 N   0  0  0  0  0  1  0  0  0  0  0  0
  191.8470  177.4840  145.5700 O   0  0  0  0  0  0  0  0  0  0  0  0
  191.3270  176.5920  144.8510 C   0  0  0  0  0  0  0  0  0  0  0  0
  186.1350  177.0430  137.8840 O   0  0  0  0  0  0  0  0  0  0  0  0
  184.7200  177.0310  135.9570 C   0  0  0  0  0  1  0  0  0  0  0  0
  184.9350  177.5490  137.3680 C   0  0  1  0  0  3  0  0  0  0  0  0
  183.7740  177.1530  138.2350 C   0  0  0  0  0  0  0  0  0  0  0  0
  183.5210  175.9670  138.3890 O   0  0  0  0  0  0  0  0  0  0  0  0
  182.9270  178.1970  138.9050 C   0  0  2  0  0  3  0  0  0  0  0  0
  183.5780  179.5650  138.7940 C   0  0  0  0  0  1  0  0  0  0  0  0
  182.6810  177.8380  140.3600 C   0  0  0  0  0  2  0  0  0  0  0  0
  181.3120  177.8610  140.6300 O   0  0  0  0  0  0  0  0  0  0  0  0
  181.1920  178.6870  141.7460 C   0  0  0  0  0  1  0  0  0  0  0  0
  2 14  1  0  0  0  0
  3  5  1  0  0  0  0
  3  7  1  1  0  0  0
  4  1  1  6  0  0  0
  4  6  1  0  0  0  0
  4 13  1  0  0  0  0
  5  8  1  0  0  0  0
  5  1  1  1  0  0  0
  6  2  1  1  0  0  0
  8 28  1  1  0  0  0
  8 11  1  0  0  0  0
 10  3  1  0  0  0  0
 10 12  1  0  0  0  0
 11 16  1  0  0  0  0
 12  9  1  1  0  0  0
 12 17  1  0  0  0  0
 13 15  1  1  0  0  0
 13 14  1  0  0  0  0
 14 21  1  1  0  0  0
 16 15  1  0  0  0  0
 17  4  1  0  0  0  0
 17  6  1  0  0  0  0
 18 20  1  0  0  0  0
 18 19  1  0  0  0  0
 19  3  1  0  0  0  0
 20 19  1  0  0  0  0
 21 22  1  0  0  0  0
 21 24  1  0  0  0  0
 22 23  1  0  0  0  0
 24 27  1  0  0  0  0
 25 27  1  0  0  0  0
 27 26  2  0  0  0  0
 29 30  1  0  0  0  0
 30 28  1  0  0  0  0
 30 31  1  0  0  0  0
 31 32  2  0  0  0  0
 31 33  1  0  0  0  0
 33 35  1  0  0  0  0
 34 33  1  0  0  0  0
 35 36  1  0  0  0  0
 36 37  1  0  0  0  0
M  END
>  <MODEL>
4

>  <REMARK>
 VINA RESULT:      -5.9      3.011      7.884
  Name = 
  11 active torsions:
  status: ('A' for Active; 'I' for Inactive)
    1  A    between atoms: C_1  and  C_5
    2  A    between atoms: C_1  and  C_23
    3  A    between atoms: O_2  and  C_6
    4  A    between atoms: C_5  and  C_26
    5  A    between atoms: C_6  and  O_8
    6  A    between atoms: C_6  and  C_31
    7  A    between atoms: O_8  and  C_19
    8  A    between atoms: C_9  and  C_30
    9  A    between atoms: O_11  and  C_26
   10  A    between atoms: C_20  and  O_25
   11  A    between atoms: C_23  and  O_25
                            x       y       z     vdW  Elec       q    Type
                         _______ _______ _______ _____ _____    ______ ____

>  <TORSDO>
F 11

$$$$
=
 OpenBabel10262423083D

 37 41  0  0  1  0  0  0  0  0999 V2000
  187.3830  178.8810  138.3340 O   0  0  0  0  0  0  0  0  0  0  0  0
  189.9930  177.8090  140.4970 O   0  0  0  0  0  0  0  0  0  0  0  0
  186.4550  176.9340  136.9040 C   0  0  2  0  0  0  0  0  0  0  0  0
  188.0320  177.9410  139.1610 C   0  0  1  0  0  0  0  0  0  0  0  0
  186.2700  178.2680  137.7040 C   0  0  1  0  0  3  0  0  0  0  0  0
  189.5140  178.2140  139.2380 C   0  0  2  0  0  3  0  0  0  0  0  0
  186.2890  175.7450  137.8450 C   0  0  0  0  0  1  0  0  0  0  0  0
  184.8970  178.6130  138.3300 C   0  0  2  0  0  3  0  0  0  0  0  0
  190.3260  176.6570  136.3950 C   0  0  0  0  0  1  0  0  0  0  0  0
  187.8490  176.7980  136.2260 C   0  0  0  0  0  2  0  0  0  0  0  0
  185.0040  179.4380  139.4760 O   0  0  0  0  0  0  0  0  0  0  0  0
  189.0820  177.2820  136.9920 C   0  0  1  0  0  3  0  0  0  0  0  0
  187.6150  177.7730  140.6060 C   0  0  1  0  0  3  0  0  0  0  0  0
  188.9080  177.8810  141.3890 C   0  0  1  0  0  3  0  0  0  0  0  0
  186.6840  178.8790  141.0850 C   0  0  0  0  0  2  0  0  0  0  0  0
  185.2730  178.6340  140.5960 C   0  0  0  0  0  2  0  0  0  0  0  0
  189.0200  176.9930  138.4860 C   0  0  2  0  0  3  0  0  0  0  0  0
  185.6210  176.0790  134.6010 C   0  0  0  0  0  2  0  0  0  0  0  0
  185.2920  176.8350  135.8800 C   0  0  0  0  0  3  0  0  0  0  0  0
  185.5710  177.5970  134.5940 C   0  0  0  0  0  2  0  0  0  0  0  0
  189.0090  176.7590  142.4210 C   0  0  2  0  0  3  0  0  0  0  0  0
  188.8380  177.2750  143.7090 O   0  0  0  0  0  0  0  0  0  0  0  0
  187.5300  176.9360  144.0650 C   0  0  0  0  0  1  0  0  0  0  0  0
  190.2890  176.1470  142.3230 O   0  0  0  0  0  0  0  0  0  0  0  0
  191.9560  177.6750  143.2790 N   0  0  0  0  0  1  0  0  0  0  0  0
  191.6690  175.5040  144.0390 O   0  0  0  0  0  0  0  0  0  0  0  0
  191.3140  176.4040  143.2350 C   0  0  0  0  0  0  0  0  0  0  0  0
  184.0770  177.4870  138.5370 O   0  0  0  0  0  0  0  0  0  0  0  0
  182.1790  177.3410  137.0900 C   0  0  0  0  0  1  0  0  0  0  0  0
  182.7620  177.9370  138.3580 C   0  0  1  0  0  3  0  0  0  0  0  0
  181.9060  177.5630  139.5350 C   0  0  0  0  0  0  0  0  0  0  0  0
  181.7590  176.3820  139.8140 O   0  0  0  0  0  0  0  0  0  0  0  0
  181.2330  178.6220  140.3610 C   0  0  2  0  0  3  0  0  0  0  0  0
  181.2730  179.9620  139.6470 C   0  0  0  0  0  1  0  0  0  0  0  0
  181.8790  178.7270  141.7310 C   0  0  0  0  0  2  0  0  0  0  0  0
  180.9470  179.1920  142.6610 O   0  0  0  0  0  0  0  0  0  0  0  0
  179.8830  178.2980  142.5640 C   0  0  0  0  0  1  0  0  0  0  0  0
  2 14  1  0  0  0  0
  3  5  1  0  0  0  0
  3  7  1  1  0  0  0
  4  1  1  6  0  0  0
  4  6  1  0  0  0  0
  4 13  1  0  0  0  0
  5  8  1  0  0  0  0
  5  1  1  1  0  0  0
  6  2  1  1  0  0  0
  8 28  1  1  0  0  0
  8 11  1  0  0  0  0
 10  3  1  0  0  0  0
 10 12  1  0  0  0  0
 11 16  1  0  0  0  0
 12  9  1  6  0  0  0
 12 17  1  0  0  0  0
 13 15  1  1  0  0  0
 13 14  1  0  0  0  0
 14 21  1  1  0  0  0
 16 15  1  0  0  0  0
 17  4  1  0  0  0  0
 17  6  1  0  0  0  0
 18 19  1  0  0  0  0
 19  3  1  0  0  0  0
 20 18  1  0  0  0  0
 20 19  1  0  0  0  0
 21 22  1  0  0  0  0
 22 23  1  0  0  0  0
 24 21  1  0  0  0  0
 24 27  1  0  0  0  0
 27 25  1  0  0  0  0
 27 26  2  0  0  0  0
 29 30  1  0  0  0  0
 30 28  1  0  0  0  0
 30 31  1  0  0  0  0
 31 32  2  0  0  0  0
 31 33  1  0  0  0  0
 33 35  1  0  0  0  0
 34 33  1  0  0  0  0
 35 36  1  0  0  0  0
 37 36  1  0  0  0  0
M  END
>  <MODEL>
5

>  <REMARK>
 VINA RESULT:      -5.9      2.884      8.165
  Name = 
  11 active torsions:
  status: ('A' for Active; 'I' for Inactive)
    1  A    between atoms: C_1  and  C_5
    2  A    between atoms: C_1  and  C_23
    3  A    between atoms: O_2  and  C_6
    4  A    between atoms: C_5  and  C_26
    5  A    between atoms: C_6  and  O_8
    6  A    between atoms: C_6  and  C_31
    7  A    between atoms: O_8  and  C_19
    8  A    between atoms: C_9  and  C_30
    9  A    between atoms: O_11  and  C_26
   10  A    between atoms: C_20  and  O_25
   11  A    between atoms: C_23  and  O_25
                            x       y       z     vdW  Elec       q    Type
                         _______ _______ _______ _____ _____    ______ ____

>  <TORSDO>
F 11

$$$$
=
 OpenBabel10262423083D

 37 41  0  0  1  0  0  0  0  0999 V2000
  188.8670  179.1640  142.5770 O   0  0  0  0  0  0  0  0  0  0  0  0
  189.1790  178.0490  139.2160 O   0  0  0  0  0  0  0  0  0  0  0  0
  187.0770  177.8210  143.8760 C   0  0  2  0  0  0  0  0  0  0  0  0
  188.8440  178.1820  141.5650 C   0  0  1  0  0  0  0  0  0  0  0  0
  188.4390  178.5910  143.8010 C   0  0  1  0  0  3  0  0  0  0  0  0
  188.5350  178.7940  140.2200 C   0  0  2  0  0  3  0  0  0  0  0  0
  187.2990  176.3530  143.5290 C   0  0  0  0  0  1  0  0  0  0  0  0
  189.5780  178.2510  144.7930 C   0  0  2  0  0  3  0  0  0  0  0  0
  185.2150  178.8580  140.5930 C   0  0  0  0  0  1  0  0  0  0  0  0
  185.9930  178.3700  142.9040 C   0  0  0  0  0  2  0  0  0  0  0  0
  190.8660  178.5150  144.2680 O   0  0  0  0  0  0  0  0  0  0  0  0
  186.4260  178.8080  141.5030 C   0  0  1  0  0  3  0  0  0  0  0  0
  190.0580  177.3190  141.3050 C   0  0  1  0  0  3  0  0  0  0  0  0
  190.2980  177.4400  139.8130 C   0  0  1  0  0  3  0  0  0  0  0  0
  191.3050  177.8210  142.0210 C   0  0  0  0  0  2  0  0  0  0  0  0
  191.2730  177.4250  143.4820 C   0  0  0  0  0  2  0  0  0  0  0  0
  187.4990  177.9150  140.8930 C   0  0  2  0  0  3  0  0  0  0  0  0
  185.1050  178.0090  145.5520 C   0  0  0  0  0  2  0  0  0  0  0  0
  186.6050  177.8450  145.3550 C   0  0  0  0  0  3  0  0  0  0  0  0
  186.0340  179.1900  145.7730 C   0  0  0  0  0  2  0  0  0  0  0  0
  190.5340  176.0650  139.1910 C   0  0  2  0  0  3  0  0  0  0  0  0
  191.9030  175.7780  139.1660 O   0  0  0  0  0  0  0  0  0  0  0  0
  192.4130  176.5380  138.1110 C   0  0  0  0  0  1  0  0  0  0  0  0
  190.0260  176.0580  137.8630 O   0  0  0  0  0  0  0  0  0  0  0  0
  189.8580  173.6950  137.2150 N   0  0  0  0  0  1  0  0  0  0  0  0
  188.0860  175.1770  137.0130 O   0  0  0  0  0  0  0  0  0  0  0  0
  189.2840  174.9920  137.3500 C   0  0  0  0  0  0  0  0  0  0  0  0
  189.4660  176.9640  145.3550 O   0  0  0  0  0  0  0  0  0  0  0  0
  188.4820  177.1260  147.5280 C   0  0  0  0  0  1  0  0  0  0  0  0
  189.7640  177.1160  146.7150 C   0  0  1  0  0  3  0  0  0  0  0  0
  190.6590  176.0070  147.1920 C   0  0  0  0  0  0  0  0  0  0  0  0
  190.1840  175.1090  147.8720 O   0  0  0  0  0  0  0  0  0  0  0  0
  192.1200  175.9980  146.8460 C   0  0  2  0  0  3  0  0  0  0  0  0
  192.4280  174.8850  145.8590 C   0  0  0  0  0  1  0  0  0  0  0  0
  192.9690  175.8530  148.0960 C   0  0  0  0  0  2  0  0  0  0  0  0
  192.8060  176.9730  148.9130 O   0  0  0  0  0  0  0  0  0  0  0  0
  193.6990  176.7700  149.9630 C   0  0  0  0  0  1  0  0  0  0  0  0
  2 14  1  0  0  0  0
  3  7  1  6  0  0  0
  3 19  1  0  0  0  0
  4  1  1  1  0  0  0
  5  1  1  6  0  0  0
  5  3  1  0  0  0  0
  5  8  1  0  0  0  0
  6  2  1  6  0  0  0
  6 17  1  0  0  0  0
  6  4  1  0  0  0  0
  8 28  1  6  0  0  0
 10  3  1  0  0  0  0
 11  8  1  0  0  0  0
 12  9  1  6  0  0  0
 12 10  1  0  0  0  0
 13  4  1  0  0  0  0
 13 15  1  1  0  0  0
 14 21  1  6  0  0  0
 14 13  1  0  0  0  0
 15 16  1  0  0  0  0
 16 11  1  0  0  0  0
 17 12  1  0  0  0  0
 17  4  1  0  0  0  0
 18 20  1  0  0  0  0
 19 18  1  0  0  0  0
 19 20  1  0  0  0  0
 22 21  1  0  0  0  0
 23 22  1  0  0  0  0
 24 21  1  0  0  0  0
 25 27  1  0  0  0  0
 26 27  2  0  0  0  0
 27 24  1  0  0  0  0
 28 30  1  0  0  0  0
 30 31  1  0  0  0  0
 30 29  1  0  0  0  0
 31 32  2  0  0  0  0
 33 31  1  0  0  0  0
 33 35  1  0  0  0  0
 34 33  1  0  0  0  0
 35 36  1  0  0  0  0
 36 37  1  0  0  0  0
M  END
>  <MODEL>
6

>  <REMARK>
 VINA RESULT:      -5.9      3.807      7.533
  Name = 
  11 active torsions:
  status: ('A' for Active; 'I' for Inactive)
    1  A    between atoms: C_1  and  C_5
    2  A    between atoms: C_1  and  C_23
    3  A    between atoms: O_2  and  C_6
    4  A    between atoms: C_5  and  C_26
    5  A    between atoms: C_6  and  O_8
    6  A    between atoms: C_6  and  C_31
    7  A    between atoms: O_8  and  C_19
    8  A    between atoms: C_9  and  C_30
    9  A    between atoms: O_11  and  C_26
   10  A    between atoms: C_20  and  O_25
   11  A    between atoms: C_23  and  O_25
                            x       y       z     vdW  Elec       q    Type
                         _______ _______ _______ _____ _____    ______ ____

>  <TORSDO>
F 11

$$$$
=
 OpenBabel10262423083D

 37 41  0  0  1  0  0  0  0  0999 V2000
  189.8170  178.2470  138.3810 O   0  0  0  0  0  0  0  0  0  0  0  0
  191.4330  177.5130  141.4610 O   0  0  0  0  0  0  0  0  0  0  0  0
  189.4820  176.1250  136.9380 C   0  0  2  0  0  0  0  0  0  0  0  0
  190.1090  177.4260  139.4890 C   0  0  1  0  0  0  0  0  0  0  0  0
  189.0170  177.5280  137.4570 C   0  0  1  0  0  3  0  0  0  0  0  0
  191.4570  177.7640  140.0780 C   0  0  2  0  0  3  0  0  0  0  0  0
  188.9750  175.0370  137.8770 C   0  0  0  0  0  1  0  0  0  0  0  0
  187.5110  177.8830  137.4880 C   0  0  2  0  0  3  0  0  0  0  0  0
  193.2650  175.9500  137.9310 C   0  0  0  0  0  1  0  0  0  0  0  0
  191.0280  175.9740  136.8430 C   0  0  0  0  0  2  0  0  0  0  0  0
  187.1860  178.8280  138.4910 O   0  0  0  0  0  0  0  0  0  0  0  0
  191.8890  176.5850  137.9510 C   0  0  1  0  0  3  0  0  0  0  0  0
  189.1840  177.3960  140.6860 C   0  0  1  0  0  3  0  0  0  0  0  0
  190.0940  177.6360  141.8750 C   0  0  1  0  0  3  0  0  0  0  0  0
  188.1450  178.5080  140.6590 C   0  0  0  0  0  2  0  0  0  0  0  0
  187.0160  178.1570  139.7140 C   0  0  0  0  0  2  0  0  0  0  0  0
  191.2750  176.4520  139.3380 C   0  0  2  0  0  3  0  0  0  0  0  0
  188.3230  174.4430  135.3380 C   0  0  0  0  0  2  0  0  0  0  0  0
  188.7840  175.8740  135.5740 C   0  0  0  0  0  3  0  0  0  0  0  0
  189.5810  174.9570  134.6610 C   0  0  0  0  0  2  0  0  0  0  0  0
  189.8010  176.6340  142.9890 C   0  0  2  0  0  3  0  0  0  0  0  0
  190.4300  175.4150  142.7180 O   0  0  0  0  0  0  0  0  0  0  0  0
  191.3660  175.2540  143.7430 C   0  0  0  0  0  1  0  0  0  0  0  0
  188.3950  176.4300  143.0780 O   0  0  0  0  0  0  0  0  0  0  0  0
  188.0650  177.4400  145.2910 N   0  0  0  0  0  1  0  0  0  0  0  0
  186.4410  177.4910  143.6370 O   0  0  0  0  0  0  0  0  0  0  0  0
  187.5930  177.1260  143.9840 C   0  0  0  0  0  0  0  0  0  0  0  0
  186.6690  176.7540  137.5020 O   0  0  0  0  0  0  0  0  0  0  0  0
  185.4150  177.0600  135.4880 C   0  0  0  0  0  1  0  0  0  0  0  0
  185.4360  177.1930  137.0010 C   0  0  1  0  0  3  0  0  0  0  0  0
  184.3070  176.4000  137.5950 C   0  0  0  0  0  0  0  0  0  0  0  0
  184.1500  175.2360  137.2530 O   0  0  0  0  0  0  0  0  0  0  0  0
  183.3750  177.0230  138.5940 C   0  0  2  0  0  3  0  0  0  0  0  0
  182.3490  176.0090  139.0720 C   0  0  0  0  0  1  0  0  0  0  0  0
  182.6880  178.2410  138.0030 C   0  0  0  0  0  2  0  0  0  0  0  0
  182.5310  179.2210  138.9850 O   0  0  0  0  0  0  0  0  0  0  0  0
  183.7890  179.8110  139.0910 C   0  0  0  0  0  1  0  0  0  0  0  0
  2 14  1  0  0  0  0
  3  5  1  0  0  0  0
  3  7  1  1  0  0  0
  4  1  1  6  0  0  0
  4  6  1  0  0  0  0
  4 13  1  0  0  0  0
  5  8  1  0  0  0  0
  5  1  1  1  0  0  0
  6  2  1  1  0  0  0
  8 28  1  1  0  0  0
  8 11  1  0  0  0  0
 10  3  1  0  0  0  0
 10 12  1  0  0  0  0
 11 16  1  0  0  0  0
 12  9  1  1  0  0  0
 12 17  1  0  0  0  0
 13 15  1  6  0  0  0
 13 14  1  0  0  0  0
 14 21  1  1  0  0  0
 16 15  1  0  0  0  0
 17  4  1  0  0  0  0
 17  6  1  0  0  0  0
 18 19  1  0  0  0  0
 19  3  1  0  0  0  0
 20 18  1  0  0  0  0
 20 19  1  0  0  0  0
 21 24  1  0  0  0  0
 22 21  1  0  0  0  0
 22 23  1  0  0  0  0
 24 27  1  0  0  0  0
 26 27  2  0  0  0  0
 27 25  1  0  0  0  0
 29 30  1  0  0  0  0
 30 28  1  0  0  0  0
 30 31  1  0  0  0  0
 31 33  1  0  0  0  0
 32 31  2  0  0  0  0
 33 34  1  0  0  0  0
 35 33  1  0  0  0  0
 35 36  1  0  0  0  0
 36 37  1  0  0  0  0
M  END
>  <MODEL>
7

>  <REMARK>
 VINA RESULT:      -5.9      2.811      7.409
  Name = 
  11 active torsions:
  status: ('A' for Active; 'I' for Inactive)
    1  A    between atoms: C_1  and  C_5
    2  A    between atoms: C_1  and  C_23
    3  A    between atoms: O_2  and  C_6
    4  A    between atoms: C_5  and  C_26
    5  A    between atoms: C_6  and  O_8
    6  A    between atoms: C_6  and  C_31
    7  A    between atoms: O_8  and  C_19
    8  A    between atoms: C_9  and  C_30
    9  A    between atoms: O_11  and  C_26
   10  A    between atoms: C_20  and  O_25
   11  A    between atoms: C_23  and  O_25
                            x       y       z     vdW  Elec       q    Type
                         _______ _______ _______ _____ _____    ______ ____

>  <TORSDO>
F 11

$$$$
=
 OpenBabel10262423083D

 37 41  0  0  1  0  0  0  0  0999 V2000
  190.1860  178.2090  138.4800 O   0  0  0  0  0  0  0  0  0  0  0  0
  191.4600  177.2400  141.6550 O   0  0  0  0  0  0  0  0  0  0  0  0
  189.9000  176.1820  136.8970 C   0  0  2  0  0  0  0  0  0  0  0  0
  190.3330  177.3190  139.5640 C   0  0  1  0  0  0  0  0  0  0  0  0
  189.4490  177.5780  137.4460 C   0  0  1  0  0  3  0  0  0  0  0  0
  191.6310  177.5600  140.2960 C   0  0  2  0  0  3  0  0  0  0  0  0
  189.2560  175.0740  137.7220 C   0  0  0  0  0  1  0  0  0  0  0  0
  187.9640  178.0050  137.3540 C   0  0  2  0  0  3  0  0  0  0  0  0
  193.5560  175.7700  138.2320 C   0  0  0  0  0  1  0  0  0  0  0  0
  191.4400  175.9600  136.9400 C   0  0  0  0  0  2  0  0  0  0  0  0
  187.5850  178.9120  138.3730 O   0  0  0  0  0  0  0  0  0  0  0  0
  192.2150  176.4700  138.1580 C   0  0  1  0  0  3  0  0  0  0  0  0
  189.2950  177.2730  140.6650 C   0  0  1  0  0  3  0  0  0  0  0  0
  190.0940  177.4070  141.9450 C   0  0  1  0  0  3  0  0  0  0  0  0
  188.3140  178.4360  140.6010 C   0  0  0  0  0  2  0  0  0  0  0  0
  187.2680  178.1890  139.5350 C   0  0  0  0  0  2  0  0  0  0  0  0
  191.4630  176.2970  139.4710 C   0  0  2  0  0  3  0  0  0  0  0  0
  188.7400  174.6700  135.1360 C   0  0  0  0  0  2  0  0  0  0  0  0
  189.3270  176.0350  135.4610 C   0  0  0  0  0  3  0  0  0  0  0  0
  190.1120  175.0510  134.6080 C   0  0  0  0  0  2  0  0  0  0  0  0
  189.6500  176.3660  142.9700 C   0  0  2  0  0  3  0  0  0  0  0  0
  188.2640  176.1940  142.9110 O   0  0  0  0  0  0  0  0  0  0  0  0
  187.7600  176.9400  143.9780 C   0  0  0  0  0  1  0  0  0  0  0  0
  190.0160  176.8050  144.2730 O   0  0  0  0  0  0  0  0  0  0  0  0
  192.0510  175.4420  144.4400 N   0  0  0  0  0  1  0  0  0  0  0  0
  191.7690  177.4190  145.6180 O   0  0  0  0  0  0  0  0  0  0  0  0
  191.2860  176.5870  144.8080 C   0  0  0  0  0  0  0  0  0  0  0  0
  187.0760  176.9190  137.2250 O   0  0  0  0  0  0  0  0  0  0  0  0
  186.4100  177.8600  135.1300 C   0  0  0  0  0  1  0  0  0  0  0  0
  185.9740  177.4120  136.5140 C   0  0  1  0  0  3  0  0  0  0  0  0
  184.9050  176.3630  136.3940 C   0  0  0  0  0  0  0  0  0  0  0  0
  183.7430  176.7110  136.2370 O   0  0  0  0  0  0  0  0  0  0  0  0
  185.2500  174.9040  136.4690 C   0  0  2  0  0  3  0  0  0  0  0  0
  185.0280  174.2330  135.1240 C   0  0  0  0  0  1  0  0  0  0  0  0
  184.4390  174.2130  137.5510 C   0  0  0  0  0  2  0  0  0  0  0  0
  184.8720  172.8950  137.7000 O   0  0  0  0  0  0  0  0  0  0  0  0
  186.2580  172.9680  137.5830 C   0  0  0  0  0  1  0  0  0  0  0  0
  2 14  1  0  0  0  0
  3 10  1  0  0  0  0
  3  5  1  0  0  0  0
  3  7  1  1  0  0  0
  4  1  1  6  0  0  0
  4  6  1  0  0  0  0
  4 13  1  0  0  0  0
  5  1  1  1  0  0  0
  6  2  1  1  0  0  0
  8 28  1  1  0  0  0
  8  5  1  0  0  0  0
  8 11  1  0  0  0  0
 10 12  1  0  0  0  0
 11 16  1  0  0  0  0
 12  9  1  1  0  0  0
 12 17  1  0  0  0  0
 13 15  1  6  0  0  0
 13 14  1  0  0  0  0
 14 21  1  1  0  0  0
 16 15  1  0  0  0  0
 17  4  1  0  0  0  0
 17  6  1  0  0  0  0
 18 19  1  0  0  0  0
 19  3  1  0  0  0  0
 20 18  1  0  0  0  0
 20 19  1  0  0  0  0
 21 24  1  0  0  0  0
 22 21  1  0  0  0  0
 22 23  1  0  0  0  0
 24 27  1  0  0  0  0
 25 27  1  0  0  0  0
 27 26  2  0  0  0  0
 29 30  1  0  0  0  0
 30 28  1  0  0  0  0
 31 33  1  0  0  0  0
 31 30  1  0  0  0  0
 32 31  2  0  0  0  0
 33 35  1  0  0  0  0
 34 33  1  0  0  0  0
 35 36  1  0  0  0  0
 37 36  1  0  0  0  0
M  END
>  <MODEL>
8

>  <REMARK>
 VINA RESULT:      -5.8      3.868      7.852
  Name = 
  11 active torsions:
  status: ('A' for Active; 'I' for Inactive)
    1  A    between atoms: C_1  and  C_5
    2  A    between atoms: C_1  and  C_23
    3  A    between atoms: O_2  and  C_6
    4  A    between atoms: C_5  and  C_26
    5  A    between atoms: C_6  and  O_8
    6  A    between atoms: C_6  and  C_31
    7  A    between atoms: O_8  and  C_19
    8  A    between atoms: C_9  and  C_30
    9  A    between atoms: O_11  and  C_26
   10  A    between atoms: C_20  and  O_25
   11  A    between atoms: C_23  and  O_25
                            x       y       z     vdW  Elec       q    Type
                         _______ _______ _______ _____ _____    ______ ____

>  <TORSDO>
F 11

$$$$
=
 OpenBabel10262423083D

 37 41  0  0  1  0  0  0  0  0999 V2000
  188.6890  179.0010  141.0980 O   0  0  0  0  0  0  0  0  0  0  0  0
  187.4030  177.6480  138.0720 O   0  0  0  0  0  0  0  0  0  0  0  0
  187.6830  177.8370  143.1790 C   0  0  2  0  0  0  0  0  0  0  0  0
  188.1900  177.9560  140.2940 C   0  0  1  0  0  0  0  0  0  0  0  0
  188.8670  178.5330  142.4250 C   0  0  1  0  0  3  0  0  0  0  0  0
  187.3040  178.4900  139.1950 C   0  0  2  0  0  3  0  0  0  0  0  0
  187.7010  176.3400  142.8910 C   0  0  0  0  0  1  0  0  0  0  0  0
  190.3300  178.2050  142.8080 C   0  0  2  0  0  3  0  0  0  0  0  0
  184.5300  178.7410  141.0420 C   0  0  0  0  0  1  0  0  0  0  0  0
  186.2800  178.3720  142.7710 C   0  0  0  0  0  2  0  0  0  0  0  0
  191.2340  178.3700  141.7310 O   0  0  0  0  0  0  0  0  0  0  0  0
  186.0230  178.6930  141.2960 C   0  0  1  0  0  3  0  0  0  0  0  0
  189.1370  177.0180  139.5780 C   0  0  1  0  0  3  0  0  0  0  0  0
  188.6630  177.0260  138.1380 C   0  0  1  0  0  3  0  0  0  0  0  0
  190.5790  177.5050  139.5990 C   0  0  0  0  0  2  0  0  0  0  0  0
  191.2190  177.2100  140.9390 C   0  0  0  0  0  2  0  0  0  0  0  0
  186.6830  177.7100  140.3380 C   0  0  2  0  0  3  0  0  0  0  0  0
  187.0610  177.1270  145.5960 C   0  0  0  0  0  2  0  0  0  0  0  0
  187.9460  177.9840  144.7020 C   0  0  0  0  0  3  0  0  0  0  0  0
  186.7780  178.6120  145.4470 C   0  0  0  0  0  2  0  0  0  0  0  0
  188.5690  175.6030  137.5930 C   0  0  2  0  0  3  0  0  0  0  0  0
  189.6770  175.3230  136.7860 O   0  0  0  0  0  0  0  0  0  0  0  0
  190.1240  174.0690  137.2070 C   0  0  0  0  0  1  0  0  0  0  0  0
  187.3800  175.4740  136.8230 O   0  0  0  0  0  0  0  0  0  0  0  0
  186.6780  173.1970  137.4170 N   0  0  0  0  0  1  0  0  0  0  0  0
  185.1800  174.9550  137.2130 O   0  0  0  0  0  0  0  0  0  0  0  0
  186.3730  174.5630  137.1470 C   0  0  0  0  0  0  0  0  0  0  0  0
  190.4740  176.9660  143.4630 O   0  0  0  0  0  0  0  0  0  0  0  0
  191.8500  178.4630  144.7200 C   0  0  0  0  0  1  0  0  0  0  0  0
  191.6710  177.0540  144.1840 C   0  0  1  0  0  3  0  0  0  0  0  0
  191.6810  176.0740  145.3230 C   0  0  0  0  0  0  0  0  0  0  0  0
  191.7290  174.8770  145.0790 O   0  0  0  0  0  0  0  0  0  0  0  0
  191.6280  176.5510  146.7460 C   0  0  2  0  0  3  0  0  0  0  0  0
  192.4280  175.6280  147.6490 C   0  0  0  0  0  1  0  0  0  0  0  0
  190.1910  176.6540  147.2260 C   0  0  0  0  0  2  0  0  0  0  0  0
  189.9020  177.9730  147.5810 O   0  0  0  0  0  0  0  0  0  0  0  0
  188.8340  177.8680  148.4690 C   0  0  0  0  0  1  0  0  0  0  0  0
  2 14  1  0  0  0  0
  3  7  1  6  0  0  0
  3 19  1  0  0  0  0
  4 17  1  0  0  0  0
  4  1  1  1  0  0  0
  5  1  1  6  0  0  0
  5  8  1  0  0  0  0
  5  3  1  0  0  0  0
  6  2  1  6  0  0  0
  6  4  1  0  0  0  0
  6 17  1  0  0  0  0
  8 28  1  6  0  0  0
 10  3  1  0  0  0  0
 11  8  1  0  0  0  0
 12  9  1  1  0  0  0
 12 10  1  0  0  0  0
 13 15  1  6  0  0  0
 13  4  1  0  0  0  0
 14 21  1  1  0  0  0
 14 13  1  0  0  0  0
 15 16  1  0  0  0  0
 16 11  1  0  0  0  0
 17 12  1  0  0  0  0
 19 20  1  0  0  0  0
 19 18  1  0  0  0  0
 20 18  1  0  0  0  0
 22 23  1  0  0  0  0
 22 21  1  0  0  0  0
 24 27  1  0  0  0  0
 24 21  1  0  0  0  0
 27 26  2  0  0  0  0
 27 25  1  0  0  0  0
 28 30  1  0  0  0  0
 30 29  1  0  0  0  0
 30 31  1  0  0  0  0
 31 33  1  0  0  0  0
 32 31  2  0  0  0  0
 33 35  1  0  0  0  0
 33 34  1  0  0  0  0
 35 36  1  0  0  0  0
 36 37  1  0  0  0  0
M  END
>  <MODEL>
9

>  <REMARK>
 VINA RESULT:      -5.6      3.166      6.398
  Name = 
  11 active torsions:
  status: ('A' for Active; 'I' for Inactive)
    1  A    between atoms: C_1  and  C_5
    2  A    between atoms: C_1  and  C_23
    3  A    between atoms: O_2  and  C_6
    4  A    between atoms: C_5  and  C_26
    5  A    between atoms: C_6  and  O_8
    6  A    between atoms: C_6  and  C_31
    7  A    between atoms: O_8  and  C_19
    8  A    between atoms: C_9  and  C_30
    9  A    between atoms: O_11  and  C_26
   10  A    between atoms: C_20  and  O_25
   11  A    between atoms: C_23  and  O_25
                            x       y       z     vdW  Elec       q    Type
                         _______ _______ _______ _____ _____    ______ ____

>  <TORSDO>
F 11

$$$$
