=
 OpenBabel10252414593D

 34 39  0  0  1  0  0  0  0  0999 V2000
  189.6520  177.1770  146.3540 C   0  0  0  0  0  0  0  0  0  0  0  0
  191.1730  176.1440  144.7640 C   0  0  0  0  0  0  0  0  0  0  0  0
  189.0960  177.3400  143.9890 C   0  0  0  0  0  0  0  0  0  0  0  0
  188.5290  178.1340  141.6730 C   0  0  1  0  0  3  0  0  0  0  0  0
  191.7620  176.2690  147.1140 C   0  0  0  0  0  3  0  0  0  0  0  0
  192.0600  175.8750  145.8110 C   0  0  0  0  0  3  0  0  0  0  0  0
  190.8410  177.7520  142.1510 C   0  0  0  0  0  2  0  0  0  0  0  0
  189.9970  176.9010  145.0040 C   0  0  0  0  0  0  0  0  0  0  0  0
  189.1000  177.7390  140.0090 S   0  0  0  0  0  0  0  0  0  0  0  0
  190.5480  176.8940  147.3880 C   0  0  0  0  0  3  0  0  0  0  0  0
  187.7810  177.7070  144.3620 C   0  0  0  0  0  0  0  0  0  0  0  0
  188.4350  177.6840  146.6640 N   0  0  0  0  0  0  0  0  0  0  0  0
  191.4370  175.5650  143.5320 O   0  0  0  0  0  1  0  0  0  0  0  0
  187.1270  177.6310  141.9450 C   0  0  0  0  0  2  0  0  0  0  0  0
  186.7770  177.9230  143.3360 N   0  0  0  0  0  0  0  0  0  0  0  0
  190.8220  177.8320  140.6240 C   0  0  2  0  0  3  0  0  0  0  0  0
  189.4770  177.5500  142.6060 N   0  0  0  0  0  0  0  0  0  0  0  0
  187.4970  177.9180  145.7150 C   0  0  0  0  0  3  0  0  0  0  0  0
  183.1330  178.7190  142.8820 C   0  0  0  0  0  0  0  0  0  0  0  0
  182.7600  179.0210  144.1930 C   0  0  0  0  0  3  0  0  0  0  0  0
  185.4070  178.2700  143.6210 C   0  0  0  0  0  0  0  0  0  0  0  0
  183.7060  178.9580  145.2190 C   0  0  0  0  0  3  0  0  0  0  0  0
  184.4500  178.3490  142.5970 C   0  0  0  0  0  3  0  0  0  0  0  0
  185.0230  178.5880  144.9340 C   0  0  0  0  0  3  0  0  0  0  0  0
  181.9520  178.8060  141.5940 Cl  0  0  0  0  0  0  0  0  0  0  0  0
  191.6640  176.8010  140.0180 N   0  0  0  0  0  2  0  0  0  0  0  0
  190.8940  176.0660  139.1000 N   0  0  0  0  0  2  0  0  0  0  0  0
  189.6930  174.4220  137.1530 C   0  0  0  0  0  1  0  0  0  0  0  0
  191.8220  175.3980  138.1970 C   0  0  1  0  0  3  0  0  0  0  0  0
  191.1090  174.9210  136.9150 C   0  0  2  0  0  3  0  0  0  0  0  0
  192.4260  175.9380  135.3950 C   0  0  0  0  0  2  0  0  0  0  0  0
  193.5340  176.1170  136.4540 C   0  0  0  0  0  2  0  0  0  0  0  0
  192.9560  176.3730  137.8470 C   0  0  0  0  0  2  0  0  0  0  0  0
  191.1260  175.9360  135.9460 O   0  0  0  0  0  0  0  0  0  0  0  0
  1 12  1  0  0  0  0
  1 10  2  0  0  0  0
  2  8  2  0  0  0  0
  2  6  1  0  0  0  0
  3 11  2  0  0  0  0
  3  8  1  0  0  0  0
  4 14  1  1  0  0  0
  4 17  1  0  0  0  0
  5 10  1  0  0  0  0
  6  5  2  0  0  0  0
  7 17  1  0  0  0  0
  8  1  1  0  0  0  0
  9 16  1  0  0  0  0
  9  4  1  0  0  0  0
 11 18  1  0  0  0  0
 13  2  1  0  0  0  0
 14 15  1  0  0  0  0
 15 21  1  0  0  0  0
 15 11  1  0  0  0  0
 16 26  1  6  0  0  0
 16  7  1  0  0  0  0
 17  3  1  0  0  0  0
 18 12  2  0  0  0  0
 19 20  1  0  0  0  0
 20 22  2  0  0  0  0
 21 24  2  0  0  0  0
 23 19  2  0  0  0  0
 23 21  1  0  0  0  0
 24 22  1  0  0  0  0
 25 19  1  0  0  0  0
 27 26  1  0  0  0  0
 29 27  1  1  0  0  0
 30 28  1  1  0  0  0
 30 29  1  0  0  0  0
 31 34  1  0  0  0  0
 31 32  1  0  0  0  0
 32 33  1  0  0  0  0
 33 29  1  0  0  0  0
 34 30  1  0  0  0  0
M  END
>  <MODEL>
1

>  <REMARK>
 VINA RESULT:     -10.2      0.000      0.000
  Name = 
  4 active torsions:
  status: ('A' for Active; 'I' for Inactive)
    1  A    between atoms: N_3  and  C_13
    2  A    between atoms: N_3  and  N_17
    3  A    between atoms: C_12  and  N_28
    4  A    between atoms: N_17  and  C_29
                            x       y       z     vdW  Elec       q    Type
                         _______ _______ _______ _____ _____    ______ ____

>  <TORSDO>
F 4

$$$$
=
 OpenBabel10252414593D

 34 39  0  0  1  0  0  0  0  0999 V2000
  185.9370  178.3840  145.9000 C   0  0  0  0  0  0  0  0  0  0  0  0
  187.5900  177.2880  144.4940 C   0  0  0  0  0  0  0  0  0  0  0  0
  185.4980  178.2830  143.5070 C   0  0  0  0  0  0  0  0  0  0  0  0
  185.0120  178.8130  141.0980 C   0  0  1  0  0  3  0  0  0  0  0  0
  188.0480  177.6750  146.8460 C   0  0  0  0  0  3  0  0  0  0  0  0
  188.4330  177.1730  145.6040 C   0  0  0  0  0  3  0  0  0  0  0  0
  187.3130  178.6100  141.7200 C   0  0  0  0  0  2  0  0  0  0  0  0
  186.3660  177.9970  144.6020 C   0  0  0  0  0  0  0  0  0  0  0  0
  185.6900  178.2890  139.5110 S   0  0  0  0  0  0  0  0  0  0  0  0
  186.7910  178.2550  146.9980 C   0  0  0  0  0  3  0  0  0  0  0  0
  184.1480  178.6100  143.7790 C   0  0  0  0  0  0  0  0  0  0  0  0
  184.6810  178.8500  146.0990 N   0  0  0  0  0  0  0  0  0  0  0  0
  187.9480  176.6050  143.3410 O   0  0  0  0  0  1  0  0  0  0  0  0
  183.6260  178.2610  141.3530 C   0  0  0  0  0  2  0  0  0  0  0  0
  183.1890  178.6680  142.6900 N   0  0  0  0  0  0  0  0  0  0  0  0
  187.3700  178.5380  140.1940 C   0  0  2  0  0  3  0  0  0  0  0  0
  185.9390  178.3770  142.1280 N   0  0  0  0  0  0  0  0  0  0  0  0
  183.7830  178.9370  145.0880 C   0  0  0  0  0  3  0  0  0  0  0  0
  179.7640  180.1380  142.2140 C   0  0  0  0  0  0  0  0  0  0  0  0
  179.0820  179.5820  143.2980 C   0  0  0  0  0  3  0  0  0  0  0  0
  181.7910  178.9630  142.8740 C   0  0  0  0  0  0  0  0  0  0  0  0
  179.7490  178.7250  144.1770 C   0  0  0  0  0  3  0  0  0  0  0  0
  181.1120  179.8340  142.0060 C   0  0  0  0  0  3  0  0  0  0  0  0
  181.0970  178.4210  143.9680 C   0  0  0  0  0  3  0  0  0  0  0  0
  178.9330  181.2190  141.1180 Cl  0  0  0  0  0  0  0  0  0  0  0  0
  188.2940  177.5030  139.7350 N   0  0  0  0  0  2  0  0  0  0  0  0
  189.4880  178.1130  139.3120 N   0  0  0  0  0  2  0  0  0  0  0  0
  192.0700  176.9980  139.1530 C   0  0  0  0  0  1  0  0  0  0  0  0
  189.8330  177.5340  138.0200 C   0  0  1  0  0  3  0  0  0  0  0  0
  191.0220  176.5590  138.1440 C   0  0  2  0  0  3  0  0  0  0  0  0
  190.0660  174.7380  137.2200 C   0  0  0  0  0  2  0  0  0  0  0  0
  188.9790  175.6210  136.5720 C   0  0  0  0  0  2  0  0  0  0  0  0
  188.6010  176.8070  137.4620 C   0  0  0  0  0  2  0  0  0  0  0  0
  190.5590  175.2670  138.4340 O   0  0  0  0  0  0  0  0  0  0  0  0
  1 12  1  0  0  0  0
  1 10  2  0  0  0  0
  2  8  2  0  0  0  0
  2  6  1  0  0  0  0
  3 11  2  0  0  0  0
  3  8  1  0  0  0  0
  4 14  1  1  0  0  0
  4 17  1  0  0  0  0
  5 10  1  0  0  0  0
  6  5  2  0  0  0  0
  7 17  1  0  0  0  0
  8  1  1  0  0  0  0
  9 16  1  0  0  0  0
  9  4  1  0  0  0  0
 11 18  1  0  0  0  0
 13  2  1  0  0  0  0
 14 15  1  0  0  0  0
 15 21  1  0  0  0  0
 15 11  1  0  0  0  0
 16 26  1  1  0  0  0
 16  7  1  0  0  0  0
 17  3  1  0  0  0  0
 18 12  2  0  0  0  0
 19 20  1  0  0  0  0
 20 22  2  0  0  0  0
 21 24  2  0  0  0  0
 23 19  2  0  0  0  0
 23 21  1  0  0  0  0
 24 22  1  0  0  0  0
 25 19  1  0  0  0  0
 27 26  1  0  0  0  0
 29 30  1  0  0  0  0
 29 27  1  1  0  0  0
 30 34  1  0  0  0  0
 30 28  1  1  0  0  0
 31 34  1  0  0  0  0
 32 31  1  0  0  0  0
 32 33  1  0  0  0  0
 33 29  1  0  0  0  0
M  END
>  <MODEL>
2

>  <REMARK>
 VINA RESULT:     -10.2      2.389      3.697
  Name = 
  4 active torsions:
  status: ('A' for Active; 'I' for Inactive)
    1  A    between atoms: N_3  and  C_13
    2  A    between atoms: N_3  and  N_17
    3  A    between atoms: C_12  and  N_28
    4  A    between atoms: N_17  and  C_29
                            x       y       z     vdW  Elec       q    Type
                         _______ _______ _______ _____ _____    ______ ____

>  <TORSDO>
F 4

$$$$
=
 OpenBabel10252414593D

 34 39  0  0  1  0  0  0  0  0999 V2000
  185.6220  178.5210  145.8900 C   0  0  0  0  0  0  0  0  0  0  0  0
  187.5160  177.3950  144.8630 C   0  0  0  0  0  0  0  0  0  0  0  0
  185.6350  178.3170  143.4640 C   0  0  0  0  0  0  0  0  0  0  0  0
  185.6020  178.7440  140.9870 C   0  0  1  0  0  3  0  0  0  0  0  0
  187.5260  177.8830  147.2400 C   0  0  0  0  0  3  0  0  0  0  0  0
  188.1390  177.3380  146.1130 C   0  0  0  0  0  3  0  0  0  0  0  0
  187.7490  178.6030  142.0320 C   0  0  0  0  0  2  0  0  0  0  0  0
  186.2870  178.0890  144.7120 C   0  0  0  0  0  0  0  0  0  0  0  0
  186.5670  178.1680  139.5760 S   0  0  0  0  0  0  0  0  0  0  0  0
  186.2580  178.4480  147.1320 C   0  0  0  0  0  3  0  0  0  0  0  0
  184.2560  178.6340  143.4670 C   0  0  0  0  0  0  0  0  0  0  0  0
  184.3460  178.9740  145.8340 N   0  0  0  0  0  0  0  0  0  0  0  0
  188.0870  176.6740  143.8250 O   0  0  0  0  0  1  0  0  0  0  0  0
  184.1970  178.1810  141.0030 C   0  0  0  0  0  2  0  0  0  0  0  0
  183.5160  178.6330  142.2180 N   0  0  0  0  0  0  0  0  0  0  0  0
  188.0890  178.4710  140.5470 C   0  0  2  0  0  3  0  0  0  0  0  0
  186.3250  178.3640  142.1880 N   0  0  0  0  0  0  0  0  0  0  0  0
  183.6520  179.0070  144.6710 C   0  0  0  0  0  3  0  0  0  0  0  0
  179.9290  179.2170  143.1730 C   0  0  0  0  0  0  0  0  0  0  0  0
  179.3430  179.3900  141.9180 C   0  0  0  0  0  3  0  0  0  0  0  0
  182.1050  178.9140  142.1270 C   0  0  0  0  0  0  0  0  0  0  0  0
  180.1300  179.3180  140.7650 C   0  0  0  0  0  3  0  0  0  0  0  0
  181.3010  178.9760  143.2770 C   0  0  0  0  0  3  0  0  0  0  0  0
  181.5020  179.0770  140.8700 C   0  0  0  0  0  3  0  0  0  0  0  0
  178.9440  179.2980  144.6170 Cl  0  0  0  0  0  0  0  0  0  0  0  0
  189.0910  177.4320  140.3110 N   0  0  0  0  0  2  0  0  0  0  0  0
  189.5600  177.5430  138.9910 N   0  0  0  0  0  2  0  0  0  0  0  0
  188.3470  175.8560  137.0890 C   0  0  0  0  0  1  0  0  0  0  0  0
  190.2950  176.3220  138.6900 C   0  0  1  0  0  3  0  0  0  0  0  0
  189.8370  175.7100  137.3510 C   0  0  2  0  0  3  0  0  0  0  0  0
  191.8410  175.5990  136.3240 C   0  0  0  0  0  2  0  0  0  0  0  0
  192.5600  175.7380  137.6830 C   0  0  0  0  0  2  0  0  0  0  0  0
  191.7940  176.6500  138.6430 C   0  0  0  0  0  2  0  0  0  0  0  0
  190.5850  176.2460  136.2930 O   0  0  0  0  0  0  0  0  0  0  0  0
  1 10  2  0  0  0  0
  2  6  1  0  0  0  0
  3 11  2  0  0  0  0
  3  8  1  0  0  0  0
  4 14  1  1  0  0  0
  4 17  1  0  0  0  0
  6  5  2  0  0  0  0
  7 17  1  0  0  0  0
  8  2  2  0  0  0  0
  8  1  1  0  0  0  0
  9 16  1  0  0  0  0
  9  4  1  0  0  0  0
 10  5  1  0  0  0  0
 11 18  1  0  0  0  0
 12  1  1  0  0  0  0
 13  2  1  0  0  0  0
 14 15  1  0  0  0  0
 15 11  1  0  0  0  0
 16 26  1  1  0  0  0
 16  7  1  0  0  0  0
 17  3  1  0  0  0  0
 18 12  2  0  0  0  0
 19 23  1  0  0  0  0
 19 25  1  0  0  0  0
 20 19  2  0  0  0  0
 21 15  1  0  0  0  0
 21 23  2  0  0  0  0
 22 24  2  0  0  0  0
 22 20  1  0  0  0  0
 24 21  1  0  0  0  0
 27 26  1  0  0  0  0
 29 27  1  6  0  0  0
 30 28  1  6  0  0  0
 30 29  1  0  0  0  0
 31 32  1  0  0  0  0
 32 33  1  0  0  0  0
 33 29  1  0  0  0  0
 34 31  1  0  0  0  0
 34 30  1  0  0  0  0
M  END
>  <MODEL>
3

>  <REMARK>
 VINA RESULT:      -9.8      2.248      3.474
  Name = 
  4 active torsions:
  status: ('A' for Active; 'I' for Inactive)
    1  A    between atoms: N_3  and  C_13
    2  A    between atoms: N_3  and  N_17
    3  A    between atoms: C_12  and  N_28
    4  A    between atoms: N_17  and  C_29
                            x       y       z     vdW  Elec       q    Type
                         _______ _______ _______ _____ _____    ______ ____

>  <TORSDO>
F 4

$$$$
=
 OpenBabel10252414593D

 34 39  0  0  1  0  0  0  0  0999 V2000
  183.7970  178.7920  143.9920 C   0  0  0  0  0  0  0  0  0  0  0  0
  186.0190  177.8220  144.1590 C   0  0  0  0  0  0  0  0  0  0  0  0
  185.0140  178.3930  141.9210 C   0  0  0  0  0  0  0  0  0  0  0  0
  186.1740  178.6070  139.7020 C   0  0  1  0  0  3  0  0  0  0  0  0
  184.8290  178.5010  146.1610 C   0  0  0  0  0  3  0  0  0  0  0  0
  185.9500  177.9430  145.5500 C   0  0  0  0  0  3  0  0  0  0  0  0
  187.5350  178.8110  141.6590 C   0  0  0  0  0  2  0  0  0  0  0  0
  184.9820  178.3480  143.3470 C   0  0  0  0  0  0  0  0  0  0  0  0
  187.7430  178.0370  139.0170 S   0  0  0  0  0  0  0  0  0  0  0  0
  183.7440  178.9000  145.3840 C   0  0  0  0  0  3  0  0  0  0  0  0
  183.7940  178.5410  141.2200 C   0  0  0  0  0  0  0  0  0  0  0  0
  182.6870  179.0830  143.2710 N   0  0  0  0  0  0  0  0  0  0  0  0
  187.0720  177.0910  143.6280 O   0  0  0  0  0  1  0  0  0  0  0  0
  184.9820  177.8830  139.1140 C   0  0  0  0  0  2  0  0  0  0  0  0
  183.7640  178.3490  139.7810 N   0  0  0  0  0  0  0  0  0  0  0  0
  188.5680  178.5990  140.5520 C   0  0  2  0  0  3  0  0  0  0  0  0
  186.2360  178.4170  141.1410 N   0  0  0  0  0  0  0  0  0  0  0  0
  182.6530  178.9360  141.9250 C   0  0  0  0  0  3  0  0  0  0  0  0
  181.0240  179.7500  137.6250 C   0  0  0  0  0  0  0  0  0  0  0  0
  180.1850  178.6410  137.5060 C   0  0  0  0  0  3  0  0  0  0  0  0
  182.5660  178.4500  138.9870 C   0  0  0  0  0  0  0  0  0  0  0  0
  180.5250  177.4380  138.1300 C   0  0  0  0  0  3  0  0  0  0  0  0
  182.2060  179.6560  138.3650 C   0  0  0  0  0  3  0  0  0  0  0  0
  181.7070  177.3450  138.8700 C   0  0  0  0  0  3  0  0  0  0  0  0
  180.5950  181.2600  136.8520 Cl  0  0  0  0  0  0  0  0  0  0  0  0
  189.6210  177.6730  140.9650 N   0  0  0  0  0  2  0  0  0  0  0  0
  189.5800  177.5300  142.3620 N   0  0  0  0  0  2  0  0  0  0  0  0
  191.0010  179.4140  143.9020 C   0  0  0  0  0  1  0  0  0  0  0  0
  190.9060  177.1040  142.7910 C   0  0  1  0  0  3  0  0  0  0  0  0
  191.4070  177.9510  143.9780 C   0  0  2  0  0  3  0  0  0  0  0  0
  191.8480  176.2800  145.4260 C   0  0  0  0  0  2  0  0  0  0  0  0
  191.8590  175.2610  144.2680 C   0  0  0  0  0  2  0  0  0  0  0  0
  190.8430  175.6200  143.1820 C   0  0  0  0  0  2  0  0  0  0  0  0
  190.9920  177.3800  145.1900 O   0  0  0  0  0  0  0  0  0  0  0  0
  1 10  2  0  0  0  0
  2  6  1  0  0  0  0
  3  8  1  0  0  0  0
  4 14  1  6  0  0  0
  4 17  1  0  0  0  0
  6  5  2  0  0  0  0
  8  1  1  0  0  0  0
  8  2  2  0  0  0  0
  9  4  1  0  0  0  0
  9 16  1  0  0  0  0
 10  5  1  0  0  0  0
 11  3  2  0  0  0  0
 11 18  1  0  0  0  0
 12  1  1  0  0  0  0
 13  2  1  0  0  0  0
 14 15  1  0  0  0  0
 15 11  1  0  0  0  0
 16 26  1  1  0  0  0
 16  7  1  0  0  0  0
 17  7  1  0  0  0  0
 17  3  1  0  0  0  0
 18 12  2  0  0  0  0
 19 23  1  0  0  0  0
 20 19  2  0  0  0  0
 20 22  1  0  0  0  0
 21 15  1  0  0  0  0
 22 24  2  0  0  0  0
 23 21  2  0  0  0  0
 24 21  1  0  0  0  0
 25 19  1  0  0  0  0
 26 27  1  0  0  0  0
 29 27  1  1  0  0  0
 29 33  1  0  0  0  0
 29 30  1  0  0  0  0
 30 28  1  6  0  0  0
 30 34  1  0  0  0  0
 32 31  1  0  0  0  0
 33 32  1  0  0  0  0
 34 31  1  0  0  0  0
M  END
>  <MODEL>
4

>  <REMARK>
 VINA RESULT:      -9.4      3.489      6.016
  Name = 
  4 active torsions:
  status: ('A' for Active; 'I' for Inactive)
    1  A    between atoms: N_3  and  C_13
    2  A    between atoms: N_3  and  N_17
    3  A    between atoms: C_12  and  N_28
    4  A    between atoms: N_17  and  C_29
                            x       y       z     vdW  Elec       q    Type
                         _______ _______ _______ _____ _____    ______ ____

>  <TORSDO>
F 4

$$$$
=
 OpenBabel10252414593D

 34 39  0  0  1  0  0  0  0  0999 V2000
  187.8770  177.7720  138.7200 C   0  0  0  0  0  0  0  0  0  0  0  0
  188.8810  178.2530  140.8810 C   0  0  0  0  0  0  0  0  0  0  0  0
  186.3840  178.3310  140.5610 C   0  0  0  0  0  0  0  0  0  0  0  0
  184.5890  178.3390  142.3190 C   0  0  1  0  0  3  0  0  0  0  0  0
  190.2500  177.4330  139.0520 C   0  0  0  0  0  3  0  0  0  0  0  0
  190.1270  177.8770  140.3680 C   0  0  0  0  0  3  0  0  0  0  0  0
  186.7340  177.5040  142.9670 C   0  0  0  0  0  2  0  0  0  0  0  0
  187.7120  178.1020  140.0920 C   0  0  0  0  0  0  0  0  0  0  0  0
  184.5240  178.7260  144.0800 S   0  0  0  0  0  0  0  0  0  0  0  0
  189.1310  177.4060  138.2240 C   0  0  0  0  0  3  0  0  0  0  0  0
  185.3590  178.5560  139.6120 C   0  0  0  0  0  0  0  0  0  0  0  0
  186.8300  177.8420  137.8640 N   0  0  0  0  0  0  0  0  0  0  0  0
  188.8560  178.8610  142.1270 O   0  0  0  0  0  1  0  0  0  0  0  0
  183.8890  179.3770  141.4670 C   0  0  0  0  0  2  0  0  0  0  0  0
  184.0600  179.0280  140.0550 N   0  0  0  0  0  0  0  0  0  0  0  0
  186.0410  177.7290  144.3110 C   0  0  2  0  0  3  0  0  0  0  0  0
  185.9900  178.2290  141.9530 N   0  0  0  0  0  0  0  0  0  0  0  0
  185.6040  178.2540  138.2690 C   0  0  0  0  0  3  0  0  0  0  0  0
  181.5550  180.8980  137.9700 C   0  0  0  0  0  0  0  0  0  0  0  0
  180.7840  179.8460  137.4720 C   0  0  0  0  0  3  0  0  0  0  0  0
  182.9670  179.3130  139.1600 C   0  0  0  0  0  0  0  0  0  0  0  0
  181.0930  178.5280  137.8210 C   0  0  0  0  0  3  0  0  0  0  0  0
  182.6380  180.6330  138.8120 C   0  0  0  0  0  3  0  0  0  0  0  0
  182.1760  178.2650  138.6640 C   0  0  0  0  0  3  0  0  0  0  0  0
  181.1640  182.5490  137.5410 Cl  0  0  0  0  0  0  0  0  0  0  0  0
  186.9410  178.3400  145.2880 N   0  0  0  0  0  2  0  0  0  0  0  0
  187.7170  177.3320  145.8870 N   0  0  0  0  0  2  0  0  0  0  0  0
  188.7040  177.8790  148.4680 C   0  0  0  0  0  1  0  0  0  0  0  0
  189.0900  177.8160  145.9340 C   0  0  1  0  0  3  0  0  0  0  0  0
  189.6960  177.6420  147.3410 C   0  0  2  0  0  3  0  0  0  0  0  0
  191.5290  176.4560  146.7780 C   0  0  0  0  0  2  0  0  0  0  0  0
  191.3850  176.9060  145.3090 C   0  0  0  0  0  2  0  0  0  0  0  0
  189.9190  177.0450  144.8960 C   0  0  0  0  0  2  0  0  0  0  0  0
  190.2930  176.3780  147.4580 O   0  0  0  0  0  0  0  0  0  0  0  0
  1  8  1  0  0  0  0
  2 13  1  0  0  0  0
  3 17  1  0  0  0  0
  4 14  1  6  0  0  0
  4  9  1  0  0  0  0
  5  6  2  0  0  0  0
  6  2  1  0  0  0  0
  7 16  1  0  0  0  0
  8  3  1  0  0  0  0
  8  2  2  0  0  0  0
  9 16  1  0  0  0  0
 10  1  2  0  0  0  0
 10  5  1  0  0  0  0
 11 15  1  0  0  0  0
 11  3  2  0  0  0  0
 12 18  2  0  0  0  0
 12  1  1  0  0  0  0
 15 14  1  0  0  0  0
 16 26  1  1  0  0  0
 17  4  1  0  0  0  0
 17  7  1  0  0  0  0
 18 11  1  0  0  0  0
 19 23  1  0  0  0  0
 20 22  1  0  0  0  0
 20 19  2  0  0  0  0
 21 15  1  0  0  0  0
 22 24  2  0  0  0  0
 23 21  2  0  0  0  0
 24 21  1  0  0  0  0
 25 19  1  0  0  0  0
 26 27  1  0  0  0  0
 29 27  1  1  0  0  0
 29 30  1  0  0  0  0
 30 34  1  0  0  0  0
 30 28  1  1  0  0  0
 31 34  1  0  0  0  0
 32 31  1  0  0  0  0
 33 32  1  0  0  0  0
 33 29  1  0  0  0  0
M  END
>  <MODEL>
5

>  <REMARK>
 VINA RESULT:      -9.4      3.316      7.262
  Name = 
  4 active torsions:
  status: ('A' for Active; 'I' for Inactive)
    1  A    between atoms: N_3  and  C_13
    2  A    between atoms: N_3  and  N_17
    3  A    between atoms: C_12  and  N_28
    4  A    between atoms: N_17  and  C_29
                            x       y       z     vdW  Elec       q    Type
                         _______ _______ _______ _____ _____    ______ ____

>  <TORSDO>
F 4

$$$$
=
 OpenBabel10252414593D

 34 39  0  0  1  0  0  0  0  0999 V2000
  185.9200  177.9090  142.8700 C   0  0  0  0  0  0  0  0  0  0  0  0
  186.5300  178.6280  140.6300 C   0  0  0  0  0  0  0  0  0  0  0  0
  188.2350  177.6090  142.1780 C   0  0  0  0  0  0  0  0  0  0  0  0
  190.5030  176.6880  141.6060 C   0  0  1  0  0  3  0  0  0  0  0  0
  184.2050  178.6390  141.3280 C   0  0  0  0  0  3  0  0  0  0  0  0
  185.1810  178.8850  140.3630 C   0  0  0  0  0  3  0  0  0  0  0  0
  188.9190  176.8500  139.8210 C   0  0  0  0  0  2  0  0  0  0  0  0
  186.9100  178.0300  141.8590 C   0  0  0  0  0  0  0  0  0  0  0  0
  191.6490  176.8750  140.2260 S   0  0  0  0  0  0  0  0  0  0  0  0
  184.5790  178.1780  142.5870 C   0  0  0  0  0  3  0  0  0  0  0  0
  188.5790  177.4230  143.5380 C   0  0  0  0  0  0  0  0  0  0  0  0
  186.2660  177.5680  144.1350 N   0  0  0  0  0  0  0  0  0  0  0  0
  187.4640  179.0680  139.7040 O   0  0  0  0  0  1  0  0  0  0  0  0
  190.9930  177.3650  142.8690 C   0  0  0  0  0  2  0  0  0  0  0  0
  189.9690  177.2330  143.9080 N   0  0  0  0  0  0  0  0  0  0  0  0
  190.2400  176.6440  139.0800 C   0  0  2  0  0  3  0  0  0  0  0  0
  189.2270  177.2400  141.1860 N   0  0  0  0  0  0  0  0  0  0  0  0
  187.5570  177.3600  144.4900 C   0  0  0  0  0  3  0  0  0  0  0  0
  190.1890  177.5140  147.6490 C   0  0  0  0  0  0  0  0  0  0  0  0
  191.3520  176.7850  147.9030 C   0  0  0  0  0  3  0  0  0  0  0  0
  190.4170  177.0650  145.2680 C   0  0  0  0  0  0  0  0  0  0  0  0
  192.0550  176.2020  146.8460 C   0  0  0  0  0  3  0  0  0  0  0  0
  189.7270  177.6570  146.3380 C   0  0  0  0  0  3  0  0  0  0  0  0
  191.5920  176.3450  145.5360 C   0  0  0  0  0  3  0  0  0  0  0  0
  189.3120  178.2530  148.9700 Cl  0  0  0  0  0  0  0  0  0  0  0  0
  190.3490  177.5200  137.9140 N   0  0  0  0  0  2  0  0  0  0  0  0
  190.3620  176.7300  136.7510 N   0  0  0  0  0  2  0  0  0  0  0  0
  188.6310  174.6330  136.0130 C   0  0  0  0  0  1  0  0  0  0  0  0
  189.2150  177.1290  135.9460 C   0  0  1  0  0  3  0  0  0  0  0  0
  188.1050  176.0590  135.9850 C   0  0  2  0  0  3  0  0  0  0  0  0
  186.4010  177.3620  136.6790 C   0  0  0  0  0  2  0  0  0  0  0  0
  187.1790  178.6270  136.2590 C   0  0  0  0  0  2  0  0  0  0  0  0
  188.6850  178.4690  136.4770 C   0  0  0  0  0  2  0  0  0  0  0  0
  187.2430  176.2960  137.0660 O   0  0  0  0  0  0  0  0  0  0  0  0
  1 12  1  0  0  0  0
  2  8  1  0  0  0  0
  3 11  2  0  0  0  0
  4 14  1  1  0  0  0
  5 10  2  0  0  0  0
  6  2  2  0  0  0  0
  6  5  1  0  0  0  0
  7 17  1  0  0  0  0
  8  3  1  0  0  0  0
  8  1  2  0  0  0  0
  9  4  1  0  0  0  0
 10  1  1  0  0  0  0
 11 15  1  0  0  0  0
 11 18  1  0  0  0  0
 12 18  2  0  0  0  0
 13  2  1  0  0  0  0
 14 15  1  0  0  0  0
 15 21  1  0  0  0  0
 16 26  1  6  0  0  0
 16  7  1  0  0  0  0
 16  9  1  0  0  0  0
 17  4  1  0  0  0  0
 17  3  1  0  0  0  0
 19 20  1  0  0  0  0
 19 25  1  0  0  0  0
 21 24  2  0  0  0  0
 21 23  1  0  0  0  0
 22 20  2  0  0  0  0
 23 19  2  0  0  0  0
 24 22  1  0  0  0  0
 27 26  1  0  0  0  0
 29 30  1  0  0  0  0
 29 33  1  0  0  0  0
 29 27  1  1  0  0  0
 30 28  1  1  0  0  0
 30 34  1  0  0  0  0
 31 34  1  0  0  0  0
 32 33  1  0  0  0  0
 32 31  1  0  0  0  0
M  END
>  <MODEL>
6

>  <REMARK>
 VINA RESULT:      -9.4      2.936      5.680
  Name = 
  4 active torsions:
  status: ('A' for Active; 'I' for Inactive)
    1  A    between atoms: N_3  and  C_13
    2  A    between atoms: N_3  and  N_17
    3  A    between atoms: C_12  and  N_28
    4  A    between atoms: N_17  and  C_29
                            x       y       z     vdW  Elec       q    Type
                         _______ _______ _______ _____ _____    ______ ____

>  <TORSDO>
F 4

$$$$
=
 OpenBabel10252414593D

 34 39  0  0  1  0  0  0  0  0999 V2000
  184.8620  179.0020  142.1310 C   0  0  0  0  0  0  0  0  0  0  0  0
  186.2220  177.8830  143.8070 C   0  0  0  0  0  0  0  0  0  0  0  0
  187.0230  178.1260  141.4320 C   0  0  0  0  0  0  0  0  0  0  0  0
  189.3540  177.8300  140.5370 C   0  0  1  0  0  3  0  0  0  0  0  0
  184.1750  179.0180  144.4510 C   0  0  0  0  0  3  0  0  0  0  0  0
  185.2970  178.2610  144.7850 C   0  0  0  0  0  3  0  0  0  0  0  0
  189.1400  178.2630  142.8800 C   0  0  0  0  0  2  0  0  0  0  0  0
  186.0730  178.3440  142.4730 C   0  0  0  0  0  0  0  0  0  0  0  0
  190.8510  177.0070  141.1150 S   0  0  0  0  0  0  0  0  0  0  0  0
  183.9460  179.3640  143.1220 C   0  0  0  0  0  3  0  0  0  0  0  0
  186.5980  178.2530  140.0880 C   0  0  0  0  0  0  0  0  0  0  0  0
  184.5580  179.2550  140.8350 N   0  0  0  0  0  0  0  0  0  0  0  0
  187.2080  176.9780  144.1680 O   0  0  0  0  0  1  0  0  0  0  0  0
  188.7130  177.1200  139.3640 C   0  0  0  0  0  2  0  0  0  0  0  0
  187.4670  177.8060  139.0140 N   0  0  0  0  0  0  0  0  0  0  0  0
  190.5800  177.7630  142.7600 C   0  0  2  0  0  3  0  0  0  0  0  0
  188.4380  177.9000  141.6620 N   0  0  0  0  0  0  0  0  0  0  0  0
  185.3720  178.8700  139.8230 C   0  0  0  0  0  3  0  0  0  0  0  0
  185.7120  177.1660  135.7530 C   0  0  0  0  0  0  0  0  0  0  0  0
  186.4740  177.9480  134.8830 C   0  0  0  0  0  3  0  0  0  0  0  0
  187.1080  177.8680  137.6200 C   0  0  0  0  0  0  0  0  0  0  0  0
  187.5560  178.6840  135.3720 C   0  0  0  0  0  3  0  0  0  0  0  0
  186.0300  177.1230  137.1130 C   0  0  0  0  0  3  0  0  0  0  0  0
  187.8730  178.6400  136.7320 C   0  0  0  0  0  3  0  0  0  0  0  0
  184.3620  176.2370  135.1420 Cl  0  0  0  0  0  0  0  0  0  0  0  0
  190.9220  176.8360  143.8380 N   0  0  0  0  0  2  0  0  0  0  0  0
  191.0510  177.5600  145.0370 N   0  0  0  0  0  2  0  0  0  0  0  0
  192.0560  176.0030  147.1590 C   0  0  0  0  0  1  0  0  0  0  0  0
  190.0450  177.0490  145.9590 C   0  0  1  0  0  3  0  0  0  0  0  0
  190.6790  176.6310  147.3010 C   0  0  2  0  0  3  0  0  0  0  0  0
  189.4050  177.8780  148.6820 C   0  0  0  0  0  2  0  0  0  0  0  0
  188.3480  178.0510  147.5710 C   0  0  0  0  0  2  0  0  0  0  0  0
  188.9860  178.1380  146.1840 C   0  0  0  0  0  2  0  0  0  0  0  0
  190.7170  177.7240  148.1800 O   0  0  0  0  0  0  0  0  0  0  0  0
  1  8  1  0  0  0  0
  1 10  2  0  0  0  0
  2 13  1  0  0  0  0
  2  6  1  0  0  0  0
  3 17  1  0  0  0  0
  3  8  1  0  0  0  0
  4 14  1  6  0  0  0
  4  9  1  0  0  0  0
  4 17  1  0  0  0  0
  5  6  2  0  0  0  0
  8  2  2  0  0  0  0
  9 16  1  0  0  0  0
 10  5  1  0  0  0  0
 11  3  2  0  0  0  0
 12  1  1  0  0  0  0
 15 14  1  0  0  0  0
 15 11  1  0  0  0  0
 16  7  1  0  0  0  0
 16 26  1  1  0  0  0
 17  7  1  0  0  0  0
 18 11  1  0  0  0  0
 18 12  2  0  0  0  0
 19 23  1  0  0  0  0
 20 22  1  0  0  0  0
 20 19  2  0  0  0  0
 21 15  1  0  0  0  0
 22 24  2  0  0  0  0
 23 21  2  0  0  0  0
 24 21  1  0  0  0  0
 25 19  1  0  0  0  0
 26 27  1  0  0  0  0
 29 27  1  6  0  0  0
 29 33  1  0  0  0  0
 29 30  1  0  0  0  0
 30 28  1  6  0  0  0
 30 34  1  0  0  0  0
 32 31  1  0  0  0  0
 33 32  1  0  0  0  0
 34 31  1  0  0  0  0
M  END
>  <MODEL>
7

>  <REMARK>
 VINA RESULT:      -9.3      3.261      7.431
  Name = 
  4 active torsions:
  status: ('A' for Active; 'I' for Inactive)
    1  A    between atoms: N_3  and  C_13
    2  A    between atoms: N_3  and  N_17
    3  A    between atoms: C_12  and  N_28
    4  A    between atoms: N_17  and  C_29
                            x       y       z     vdW  Elec       q    Type
                         _______ _______ _______ _____ _____    ______ ____

>  <TORSDO>
F 4

$$$$
=
 OpenBabel10252414593D

 34 39  0  0  1  0  0  0  0  0999 V2000
  191.2540  177.3450  140.9130 C   0  0  0  0  0  0  0  0  0  0  0  0
  189.5850  176.9060  139.2010 C   0  0  0  0  0  0  0  0  0  0  0  0
  188.9110  177.5950  141.5280 C   0  0  0  0  0  0  0  0  0  0  0  0
  186.6800  178.4450  142.3150 C   0  0  1  0  0  3  0  0  0  0  0  0
  191.9430  176.9410  138.6300 C   0  0  0  0  0  3  0  0  0  0  0  0
  190.6100  176.7710  138.2600 C   0  0  0  0  0  3  0  0  0  0  0  0
  187.1440  178.6280  139.9750 C   0  0  0  0  0  2  0  0  0  0  0  0
  189.8870  177.3050  140.5290 C   0  0  0  0  0  0  0  0  0  0  0  0
  184.9910  178.3800  141.6850 S   0  0  0  0  0  0  0  0  0  0  0  0
  192.2640  177.2010  139.9600 C   0  0  0  0  0  3  0  0  0  0  0  0
  189.3030  177.5710  142.8870 C   0  0  0  0  0  0  0  0  0  0  0  0
  191.5990  177.4860  142.2160 N   0  0  0  0  0  0  0  0  0  0  0  0
  188.3040  176.5410  138.8140 O   0  0  0  0  0  1  0  0  0  0  0  0
  186.8830  177.5720  143.5350 C   0  0  0  0  0  2  0  0  0  0  0  0
  188.2930  177.6220  143.9280 N   0  0  0  0  0  0  0  0  0  0  0  0
  185.6330  178.8520  140.0370 C   0  0  2  0  0  3  0  0  0  0  0  0
  187.5600  178.0350  141.2340 N   0  0  0  0  0  0  0  0  0  0  0  0
  190.6670  177.5640  143.1960 C   0  0  0  0  0  3  0  0  0  0  0  0
  190.1150  177.0540  147.1650 C   0  0  0  0  0  0  0  0  0  0  0  0
  189.1340  177.4160  148.0900 C   0  0  0  0  0  3  0  0  0  0  0  0
  188.5950  177.5730  145.3360 C   0  0  0  0  0  0  0  0  0  0  0  0
  187.8820  177.8490  147.6460 C   0  0  0  0  0  3  0  0  0  0  0  0
  189.8450  177.1280  145.7960 C   0  0  0  0  0  3  0  0  0  0  0  0
  187.6130  177.9220  146.2770 C   0  0  0  0  0  3  0  0  0  0  0  0
  191.6810  176.5040  147.7190 Cl  0  0  0  0  0  0  0  0  0  0  0  0
  184.9360  178.1410  138.9660 N   0  0  0  0  0  2  0  0  0  0  0  0
  185.6530  178.3060  137.7680 N   0  0  0  0  0  2  0  0  0  0  0  0
  187.2710  177.6500  135.5580 C   0  0  0  0  0  1  0  0  0  0  0  0
  185.0170  177.4610  136.7660 C   0  0  1  0  0  3  0  0  0  0  0  0
  186.0670  176.7760  135.8660 C   0  0  2  0  0  3  0  0  0  0  0  0
  185.4270  174.6360  136.1660 C   0  0  0  0  0  2  0  0  0  0  0  0
  184.0530  175.1050  136.6890 C   0  0  0  0  0  2  0  0  0  0  0  0
  184.1600  176.4080  137.4830 C   0  0  0  0  0  2  0  0  0  0  0  0
  186.4660  175.5560  136.4310 O   0  0  0  0  0  0  0  0  0  0  0  0
  1 12  1  0  0  0  0
  2  8  1  0  0  0  0
  3 11  2  0  0  0  0
  4 14  1  1  0  0  0
  5 10  2  0  0  0  0
  6  5  1  0  0  0  0
  6  2  2  0  0  0  0
  7 16  1  0  0  0  0
  7 17  1  0  0  0  0
  8  1  2  0  0  0  0
  8  3  1  0  0  0  0
  9  4  1  0  0  0  0
 10  1  1  0  0  0  0
 11 18  1  0  0  0  0
 11 15  1  0  0  0  0
 12 18  2  0  0  0  0
 13  2  1  0  0  0  0
 14 15  1  0  0  0  0
 15 21  1  0  0  0  0
 16 26  1  6  0  0  0
 16  9  1  0  0  0  0
 17  3  1  0  0  0  0
 17  4  1  0  0  0  0
 19 25  1  0  0  0  0
 19 20  1  0  0  0  0
 21 23  1  0  0  0  0
 21 24  2  0  0  0  0
 22 20  2  0  0  0  0
 23 19  2  0  0  0  0
 24 22  1  0  0  0  0
 27 26  1  0  0  0  0
 29 33  1  0  0  0  0
 29 27  1  1  0  0  0
 30 28  1  1  0  0  0
 30 34  1  0  0  0  0
 30 29  1  0  0  0  0
 31 34  1  0  0  0  0
 31 32  1  0  0  0  0
 32 33  1  0  0  0  0
M  END
>  <MODEL>
8

>  <REMARK>
 VINA RESULT:      -9.1      3.665      6.013
  Name = 
  4 active torsions:
  status: ('A' for Active; 'I' for Inactive)
    1  A    between atoms: N_3  and  C_13
    2  A    between atoms: N_3  and  N_17
    3  A    between atoms: C_12  and  N_28
    4  A    between atoms: N_17  and  C_29
                            x       y       z     vdW  Elec       q    Type
                         _______ _______ _______ _____ _____    ______ ____

>  <TORSDO>
F 4

$$$$
=
 OpenBabel10252414593D

 34 39  0  0  1  0  0  0  0  0999 V2000
  191.0350  177.1220  139.9700 C   0  0  0  0  0  0  0  0  0  0  0  0
  189.0300  176.8420  138.6260 C   0  0  0  0  0  0  0  0  0  0  0  0
  188.8850  177.4390  141.0680 C   0  0  0  0  0  0  0  0  0  0  0  0
  186.9100  178.3410  142.3360 C   0  0  1  0  0  3  0  0  0  0  0  0
  191.2190  176.8070  137.5790 C   0  0  0  0  0  3  0  0  0  0  0  0
  189.8310  176.7130  137.4870 C   0  0  0  0  0  3  0  0  0  0  0  0
  186.8920  178.6230  139.9600 C   0  0  0  0  0  2  0  0  0  0  0  0
  189.6180  177.1590  139.8770 C   0  0  0  0  0  0  0  0  0  0  0  0
  185.1270  178.3790  142.0680 S   0  0  0  0  0  0  0  0  0  0  0  0
  191.8190  176.9850  138.8230 C   0  0  0  0  0  3  0  0  0  0  0  0
  189.5460  177.3290  142.3140 C   0  0  0  0  0  0  0  0  0  0  0  0
  191.6470  177.1820  141.1780 N   0  0  0  0  0  0  0  0  0  0  0  0
  187.6800  176.5510  138.4990 O   0  0  0  0  0  1  0  0  0  0  0  0
  187.3140  177.3990  143.4500 C   0  0  0  0  0  2  0  0  0  0  0  0
  188.7750  177.3690  143.5430 N   0  0  0  0  0  0  0  0  0  0  0  0
  185.4400  178.9080  140.3440 C   0  0  2  0  0  3  0  0  0  0  0  0
  187.5270  177.9500  141.0800 N   0  0  0  0  0  0  0  0  0  0  0  0
  190.9420  177.2490  142.3320 C   0  0  0  0  0  3  0  0  0  0  0  0
  189.2240  177.4820  147.2720 C   0  0  0  0  0  0  0  0  0  0  0  0
  190.5420  177.0360  147.3960 C   0  0  0  0  0  3  0  0  0  0  0  0
  189.3580  177.2360  144.8550 C   0  0  0  0  0  0  0  0  0  0  0  0
  191.2730  176.6960  146.2550 C   0  0  0  0  0  3  0  0  0  0  0  0
  188.6370  177.5860  146.0090 C   0  0  0  0  0  3  0  0  0  0  0  0
  190.6850  176.8000  144.9920 C   0  0  0  0  0  3  0  0  0  0  0  0
  188.3100  177.9160  148.6990 Cl  0  0  0  0  0  0  0  0  0  0  0  0
  184.5020  178.2820  139.4130 N   0  0  0  0  0  2  0  0  0  0  0  0
  183.4710  177.6710  140.1470 N   0  0  0  0  0  2  0  0  0  0  0  0
  181.3210  178.9340  141.4560 C   0  0  0  0  0  1  0  0  0  0  0  0
  182.2510  177.7900  139.3590 C   0  0  1  0  0  3  0  0  0  0  0  0
  181.3160  178.8710  139.9380 C   0  0  2  0  0  3  0  0  0  0  0  0
  181.0640  180.1310  138.0850 C   0  0  0  0  0  2  0  0  0  0  0  0
  181.5580  178.9620  137.2070 C   0  0  0  0  0  2  0  0  0  0  0  0
  182.6330  178.1330  137.9110 C   0  0  0  0  0  2  0  0  0  0  0  0
  181.6220  180.1230  139.3840 O   0  0  0  0  0  0  0  0  0  0  0  0
  1 12  1  0  0  0  0
  2  8  1  0  0  0  0
  3 17  1  0  0  0  0
  3 11  2  0  0  0  0
  4 14  1  1  0  0  0
  5 10  2  0  0  0  0
  6  5  1  0  0  0  0
  6  2  2  0  0  0  0
  7 16  1  0  0  0  0
  7 17  1  0  0  0  0
  8  1  2  0  0  0  0
  8  3  1  0  0  0  0
  9  4  1  0  0  0  0
 10  1  1  0  0  0  0
 11 18  1  0  0  0  0
 11 15  1  0  0  0  0
 12 18  2  0  0  0  0
 13  2  1  0  0  0  0
 14 15  1  0  0  0  0
 15 21  1  0  0  0  0
 16 26  1  6  0  0  0
 16  9  1  0  0  0  0
 17  4  1  0  0  0  0
 19 20  1  0  0  0  0
 19 25  1  0  0  0  0
 21 24  2  0  0  0  0
 21 23  1  0  0  0  0
 22 20  2  0  0  0  0
 23 19  2  0  0  0  0
 24 22  1  0  0  0  0
 26 27  1  0  0  0  0
 29 30  1  0  0  0  0
 29 27  1  1  0  0  0
 30 28  1  1  0  0  0
 31 34  1  0  0  0  0
 32 33  1  0  0  0  0
 32 31  1  0  0  0  0
 33 29  1  0  0  0  0
 34 30  1  0  0  0  0
M  END
>  <MODEL>
9

>  <REMARK>
 VINA RESULT:      -9.0      3.698      7.494
  Name = 
  4 active torsions:
  status: ('A' for Active; 'I' for Inactive)
    1  A    between atoms: N_3  and  C_13
    2  A    between atoms: N_3  and  N_17
    3  A    between atoms: C_12  and  N_28
    4  A    between atoms: N_17  and  C_29
                            x       y       z     vdW  Elec       q    Type
                         _______ _______ _______ _____ _____    ______ ____

>  <TORSDO>
F 4

$$$$
