=
 OpenBabel10262419383D

 31 34  0  0  1  0  0  0  0  0999 V2000
  187.9140  177.6160  147.3410 C   0  0  0  0  0  0  0  0  0  0  0  0
  186.6400  177.7680  143.8040 C   0  0  0  0  0  0  0  0  0  0  0  0
  187.6240  176.9760  142.9520 C   0  0  2  0  0  3  0  0  0  0  0  0
  190.0200  176.8270  143.4470 C   0  0  0  0  0  2  0  0  0  0  0  0
  186.7380  177.9150  145.2200 C   0  0  0  0  0  0  0  0  0  0  0  0
  186.8670  178.2340  148.0240 C   0  0  0  0  0  3  0  0  0  0  0  0
  188.6790  176.1210  143.6400 C   0  0  0  0  0  2  0  0  0  0  0  0
  184.4870  178.9490  143.8690 C   0  0  0  0  0  0  0  0  0  0  0  0
  189.0210  177.1540  148.0370 O   0  0  0  0  0  1  0  0  0  0  0  0
  186.4010  178.4830  140.7440 C   0  0  0  0  0  3  0  0  0  0  0  0
  189.8570  177.8110  142.2990 C   0  0  2  0  0  3  0  0  0  0  0  0
  184.5820  179.0400  145.2580 C   0  0  0  0  0  3  0  0  0  0  0  0
  185.5320  178.3580  143.1310 C   0  0  0  0  0  0  0  0  0  0  0  0
  187.8460  177.4610  145.9540 C   0  0  0  0  0  3  0  0  0  0  0  0
  190.3880  179.1690  142.7240 C   0  0  0  0  0  1  0  0  0  0  0  0
  185.6910  178.5510  145.9310 C   0  0  0  0  0  0  0  0  0  0  0  0
  185.7580  178.7020  147.3200 C   0  0  0  0  0  3  0  0  0  0  0  0
  185.4140  178.4050  141.6470 C   0  0  0  0  0  3  0  0  0  0  0  0
  187.8490  178.4890  141.0250 C   0  0  0  0  0  3  0  0  0  0  0  0
  188.3940  177.8740  142.0700 C   0  0  0  0  0  0  0  0  0  0  0  0
  181.6490  178.2050  144.1790 O   0  0  0  0  0  0  0  0  0  0  0  0
  181.9700  179.0840  143.3340 C   0  0  0  0  0  0  0  0  0  0  0  0
  183.3410  179.4790  143.1790 N   0  0  0  0  0  2  0  0  0  0  0  0
  180.2320  180.6420  143.0410 O   0  0  0  0  0  0  0  0  0  0  0  0
  179.5210  179.9190  140.4530 C   0  0  0  0  0  1  0  0  0  0  0  0
  180.7000  179.3870  141.1300 N   0  0  0  0  0  0  0  0  0  0  0  0
  180.9360  179.7420  142.5070 C   0  0  0  0  0  0  0  0  0  0  0  0
  181.6830  178.6270  140.3570 C   0  0  1  0  0  3  0  0  0  0  0  0
  181.2280  177.1870  140.1700 C   0  0  0  0  0  1  0  0  0  0  0  0
  183.3280  179.9230  138.9990 C   0  0  0  0  0  1  0  0  0  0  0  0
  181.9470  179.2970  139.0150 C   0  0  0  0  0  2  0  0  0  0  0  0
  1  6  1  0  0  0  0
  1  9  1  0  0  0  0
  2  5  1  0  0  0  0
  3  7  1  1  0  0  0
  3  2  1  0  0  0  0
  4  7  1  0  0  0  0
  5 16  2  0  0  0  0
  5 14  1  0  0  0  0
  8 12  2  0  0  0  0
 10 19  1  0  0  0  0
 10 18  2  0  0  0  0
 11 15  1  1  0  0  0
 11  4  1  0  0  0  0
 12 16  1  0  0  0  0
 13  2  2  0  0  0  0
 13  8  1  0  0  0  0
 14  1  2  0  0  0  0
 16 17  1  0  0  0  0
 17  6  2  0  0  0  0
 18 13  1  0  0  0  0
 19 20  2  0  0  0  0
 20 11  1  0  0  0  0
 20  3  1  0  0  0  0
 22 21  2  0  0  0  0
 23 22  1  0  0  0  0
 23  8  1  0  0  0  0
 25 26  1  0  0  0  0
 26 27  1  0  0  0  0
 27 24  2  0  0  0  0
 27 22  1  0  0  0  0
 28 29  1  6  0  0  0
 28 26  1  0  0  0  0
 30 31  1  0  0  0  0
 31 28  1  0  0  0  0
M  END
>  <MODEL>
1

>  <REMARK>
 VINA RESULT:      -9.2      0.000      0.000
  Name = 
  4 active torsions:
  status: ('A' for Active; 'I' for Inactive)
    1  A    between atoms: C_1  and  N_19
    2  A    between atoms: C_1  and  C_24
    3  A    between atoms: C_9  and  C_22
    4  A    between atoms: C_15  and  N_23
                            x       y       z     vdW  Elec       q    Type
                         _______ _______ _______ _____ _____    ______ ____

>  <TORSDO>
F 4

$$$$
=
 OpenBabel10262419383D

 31 34  0  0  1  0  0  0  0  0999 V2000
  187.0930  177.7370  147.0060 C   0  0  0  0  0  0  0  0  0  0  0  0
  187.3840  177.7130  143.2550 C   0  0  0  0  0  0  0  0  0  0  0  0
  188.6400  176.9170  142.9200 C   0  0  2  0  0  3  0  0  0  0  0  0
  190.6220  176.8570  144.3610 C   0  0  0  0  0  2  0  0  0  0  0  0
  186.8900  177.9180  144.5780 C   0  0  0  0  0  0  0  0  0  0  0  0
  185.8520  178.3510  147.1700 C   0  0  0  0  0  3  0  0  0  0  0  0
  189.3270  176.1210  144.0200 C   0  0  0  0  0  2  0  0  0  0  0  0
  185.3820  178.8330  142.3740 C   0  0  0  0  0  0  0  0  0  0  0  0
  187.8210  177.3350  148.1160 O   0  0  0  0  0  1  0  0  0  0  0  0
  188.4170  178.3000  140.3360 C   0  0  0  0  0  3  0  0  0  0  0  0
  190.9350  177.7900  143.2020 C   0  0  2  0  0  3  0  0  0  0  0  0
  184.8980  178.9810  143.6740 C   0  0  0  0  0  3  0  0  0  0  0  0
  186.6450  178.2440  142.1590 C   0  0  0  0  0  0  0  0  0  0  0  0
  187.6030  177.5260  145.7220 C   0  0  0  0  0  3  0  0  0  0  0  0
  191.2300  179.1780  143.7420 C   0  0  0  0  0  1  0  0  0  0  0  0
  185.6370  178.5520  144.7650 C   0  0  0  0  0  0  0  0  0  0  0  0
  185.1250  178.7590  146.0510 C   0  0  0  0  0  3  0  0  0  0  0  0
  187.1460  178.2290  140.7570 C   0  0  0  0  0  3  0  0  0  0  0  0
  189.6210  178.3590  141.1850 C   0  0  0  0  0  3  0  0  0  0  0  0
  189.6950  177.8020  142.3900 C   0  0  0  0  0  0  0  0  0  0  0  0
  183.3160  177.3990  140.8330 O   0  0  0  0  0  0  0  0  0  0  0  0
  183.6290  178.5750  140.5040 C   0  0  0  0  0  0  0  0  0  0  0  0
  184.6160  179.3020  141.2500 N   0  0  0  0  0  2  0  0  0  0  0  0
  183.5900  179.2930  138.2640 O   0  0  0  0  0  0  0  0  0  0  0  0
  181.1630  180.6450  138.3520 C   0  0  0  0  0  1  0  0  0  0  0  0
  181.6510  179.8190  139.4520 N   0  0  0  0  0  0  0  0  0  0  0  0
  182.9660  179.2350  139.3590 C   0  0  0  0  0  0  0  0  0  0  0  0
  180.7450  179.4890  140.5520 C   0  0  1  0  0  3  0  0  0  0  0  0
  179.8660  180.6800  140.9050 C   0  0  0  0  0  1  0  0  0  0  0  0
  179.6930  177.4050  141.4350 C   0  0  0  0  0  1  0  0  0  0  0  0
  179.9010  178.2680  140.2070 C   0  0  0  0  0  2  0  0  0  0  0  0
  1  6  1  0  0  0  0
  1  9  1  0  0  0  0
  2  5  1  0  0  0  0
  3  2  1  0  0  0  0
  3  7  1  1  0  0  0
  5 16  2  0  0  0  0
  5 14  1  0  0  0  0
  7  4  1  0  0  0  0
  8 12  2  0  0  0  0
 10 18  2  0  0  0  0
 10 19  1  0  0  0  0
 11 15  1  1  0  0  0
 11  4  1  0  0  0  0
 12 16  1  0  0  0  0
 13  8  1  0  0  0  0
 13  2  2  0  0  0  0
 14  1  2  0  0  0  0
 16 17  1  0  0  0  0
 17  6  2  0  0  0  0
 18 13  1  0  0  0  0
 19 20  2  0  0  0  0
 20  3  1  0  0  0  0
 20 11  1  0  0  0  0
 22 21  2  0  0  0  0
 22 23  1  0  0  0  0
 23  8  1  0  0  0  0
 24 27  2  0  0  0  0
 25 26  1  0  0  0  0
 26 28  1  0  0  0  0
 27 26  1  0  0  0  0
 27 22  1  0  0  0  0
 28 29  1  6  0  0  0
 31 28  1  0  0  0  0
 31 30  1  0  0  0  0
M  END
>  <MODEL>
2

>  <REMARK>
 VINA RESULT:      -9.2      1.744      2.393
  Name = 
  4 active torsions:
  status: ('A' for Active; 'I' for Inactive)
    1  A    between atoms: C_1  and  N_19
    2  A    between atoms: C_1  and  C_24
    3  A    between atoms: C_9  and  C_22
    4  A    between atoms: C_15  and  N_23
                            x       y       z     vdW  Elec       q    Type
                         _______ _______ _______ _____ _____    ______ ____

>  <TORSDO>
F 4

$$$$
=
 OpenBabel10262419383D

 31 34  0  0  1  0  0  0  0  0999 V2000
  186.7430  177.9680  146.8930 C   0  0  0  0  0  0  0  0  0  0  0  0
  187.2720  177.7790  143.1730 C   0  0  0  0  0  0  0  0  0  0  0  0
  188.5730  177.0160  142.9560 C   0  0  2  0  0  3  0  0  0  0  0  0
  190.4600  177.0960  144.5180 C   0  0  0  0  0  2  0  0  0  0  0  0
  186.6880  178.0280  144.4510 C   0  0  0  0  0  0  0  0  0  0  0  0
  185.4730  178.5430  146.9500 C   0  0  0  0  0  3  0  0  0  0  0  0
  189.2160  176.2980  144.1340 C   0  0  0  0  0  2  0  0  0  0  0  0
  185.2940  178.7830  142.1170 C   0  0  0  0  0  0  0  0  0  0  0  0
  187.4120  177.6450  148.0650 O   0  0  0  0  0  1  0  0  0  0  0  0
  188.4690  178.2670  140.2980 C   0  0  0  0  0  3  0  0  0  0  0  0
  190.8150  177.9850  143.3360 C   0  0  2  0  0  3  0  0  0  0  0  0
  184.7230  178.9730  143.3750 C   0  0  0  0  0  3  0  0  0  0  0  0
  186.5870  178.2310  142.0090 C   0  0  0  0  0  0  0  0  0  0  0  0
  187.3400  177.7160  145.6560 C   0  0  0  0  0  3  0  0  0  0  0  0
  191.0280  179.4070  143.8250 C   0  0  0  0  0  1  0  0  0  0  0  0
  185.4050  178.6230  144.5300 C   0  0  0  0  0  0  0  0  0  0  0  0
  184.8060  178.8710  145.7690 C   0  0  0  0  0  3  0  0  0  0  0  0
  187.1770  178.1700  140.6430 C   0  0  0  0  0  3  0  0  0  0  0  0
  189.6130  178.4100  141.2160 C   0  0  0  0  0  3  0  0  0  0  0  0
  189.6290  177.9130  142.4500 C   0  0  0  0  0  0  0  0  0  0  0  0
  182.9910  177.4570  140.8360 O   0  0  0  0  0  0  0  0  0  0  0  0
  183.4780  178.4940  140.3110 C   0  0  0  0  0  0  0  0  0  0  0  0
  184.5850  179.1710  140.9260 N   0  0  0  0  0  2  0  0  0  0  0  0
  182.5090  180.2470  139.0770 O   0  0  0  0  0  0  0  0  0  0  0  0
  181.9840  178.8160  136.7540 C   0  0  0  0  0  1  0  0  0  0  0  0
  182.7630  178.2710  137.8610 N   0  0  0  0  0  0  0  0  0  0  0  0
  182.9020  179.0480  139.0680 C   0  0  0  0  0  0  0  0  0  0  0  0
  183.5000  177.0220  137.6680 C   0  0  1  0  0  3  0  0  0  0  0  0
  182.5540  175.8870  137.3060 C   0  0  0  0  0  1  0  0  0  0  0  0
  185.8530  177.7330  137.2360 C   0  0  0  0  0  1  0  0  0  0  0  0
  184.5820  177.1930  136.6100 C   0  0  0  0  0  2  0  0  0  0  0  0
  1  6  1  0  0  0  0
  1  9  1  0  0  0  0
  2  5  1  0  0  0  0
  3  2  1  0  0  0  0
  3  7  1  1  0  0  0
  5 16  2  0  0  0  0
  5 14  1  0  0  0  0
  7  4  1  0  0  0  0
  8 12  2  0  0  0  0
 10 18  2  0  0  0  0
 10 19  1  0  0  0  0
 11 15  1  1  0  0  0
 11  4  1  0  0  0  0
 12 16  1  0  0  0  0
 13  8  1  0  0  0  0
 13  2  2  0  0  0  0
 14  1  2  0  0  0  0
 16 17  1  0  0  0  0
 17  6  2  0  0  0  0
 18 13  1  0  0  0  0
 19 20  2  0  0  0  0
 20  3  1  0  0  0  0
 20 11  1  0  0  0  0
 22 21  2  0  0  0  0
 22 23  1  0  0  0  0
 23  8  1  0  0  0  0
 25 26  1  0  0  0  0
 26 27  1  0  0  0  0
 27 24  2  0  0  0  0
 27 22  1  0  0  0  0
 28 29  1  6  0  0  0
 28 26  1  0  0  0  0
 31 30  1  0  0  0  0
 31 28  1  0  0  0  0
M  END
>  <MODEL>
3

>  <REMARK>
 VINA RESULT:      -9.1      2.094      2.586
  Name = 
  4 active torsions:
  status: ('A' for Active; 'I' for Inactive)
    1  A    between atoms: C_1  and  N_19
    2  A    between atoms: C_1  and  C_24
    3  A    between atoms: C_9  and  C_22
    4  A    between atoms: C_15  and  N_23
                            x       y       z     vdW  Elec       q    Type
                         _______ _______ _______ _____ _____    ______ ____

>  <TORSDO>
F 4

$$$$
=
 OpenBabel10262419383D

 31 34  0  0  1  0  0  0  0  0999 V2000
  181.3230  178.9590  142.3570 C   0  0  0  0  0  0  0  0  0  0  0  0
  184.6750  178.8950  140.6490 C   0  0  0  0  0  0  0  0  0  0  0  0
  184.4260  179.2440  139.1870 C   0  0  2  0  0  3  0  0  0  0  0  0
  182.3670  178.6600  137.9930 C   0  0  0  0  0  2  0  0  0  0  0  0
  183.6600  178.8570  141.6520 C   0  0  0  0  0  0  0  0  0  0  0  0
  181.7010  178.7780  143.6870 C   0  0  0  0  0  3  0  0  0  0  0  0
  183.0600  179.7740  138.7740 C   0  0  0  0  0  2  0  0  0  0  0  0
  186.3580  178.4800  142.3910 C   0  0  0  0  0  0  0  0  0  0  0  0
  179.9830  179.1040  142.0290 O   0  0  0  0  0  1  0  0  0  0  0  0
  187.0650  178.0110  138.7950 C   0  0  0  0  0  3  0  0  0  0  0  0
  183.4390  177.6770  137.5490 C   0  0  2  0  0  3  0  0  0  0  0  0
  185.3540  178.4950  143.3590 C   0  0  0  0  0  3  0  0  0  0  0  0
  186.0220  178.6320  141.0300 C   0  0  0  0  0  0  0  0  0  0  0  0
  182.2950  178.9970  141.3540 C   0  0  0  0  0  3  0  0  0  0  0  0
  183.0070  176.2670  137.9110 C   0  0  0  0  0  1  0  0  0  0  0  0
  184.0230  178.6610  143.0070 C   0  0  0  0  0  0  0  0  0  0  0  0
  183.0500  178.6280  144.0110 C   0  0  0  0  0  3  0  0  0  0  0  0
  187.1310  178.4860  140.0470 C   0  0  0  0  0  3  0  0  0  0  0  0
  185.8500  177.5660  138.0880 C   0  0  0  0  0  3  0  0  0  0  0  0
  184.6410  178.0670  138.3230 C   0  0  0  0  0  0  0  0  0  0  0  0
  187.6990  175.9870  143.2200 O   0  0  0  0  0  0  0  0  0  0  0  0
  188.3560  177.0620  143.1860 C   0  0  0  0  0  0  0  0  0  0  0  0
  187.7330  178.2850  142.7660 N   0  0  0  0  0  2  0  0  0  0  0  0
  190.6310  177.3320  142.6490 O   0  0  0  0  0  0  0  0  0  0  0  0
  191.6800  176.6180  145.1220 C   0  0  0  0  0  1  0  0  0  0  0  0
  190.2520  176.8050  144.8910 N   0  0  0  0  0  0  0  0  0  0  0  0
  189.7890  177.0780  143.5540 C   0  0  0  0  0  0  0  0  0  0  0  0
  189.3450  176.8540  146.0390 C   0  0  1  0  0  3  0  0  0  0  0  0
  190.1140  176.7060  147.3430 C   0  0  0  0  0  1  0  0  0  0  0  0
  187.1380  177.8890  146.5760 C   0  0  0  0  0  1  0  0  0  0  0  0
  188.5290  178.1400  146.0260 C   0  0  0  0  0  2  0  0  0  0  0  0
  1  6  1  0  0  0  0
  2 13  2  0  0  0  0
  2  5  1  0  0  0  0
  3  7  1  1  0  0  0
  3  2  1  0  0  0  0
  4  7  1  0  0  0  0
  5 16  2  0  0  0  0
  6 17  2  0  0  0  0
  8 23  1  0  0  0  0
  8 12  2  0  0  0  0
  9  1  1  0  0  0  0
 10 18  2  0  0  0  0
 11 15  1  1  0  0  0
 11  4  1  0  0  0  0
 11 20  1  0  0  0  0
 13  8  1  0  0  0  0
 14  5  1  0  0  0  0
 14  1  2  0  0  0  0
 16 12  1  0  0  0  0
 16 17  1  0  0  0  0
 18 13  1  0  0  0  0
 19 20  2  0  0  0  0
 19 10  1  0  0  0  0
 20  3  1  0  0  0  0
 22 21  2  0  0  0  0
 22 27  1  0  0  0  0
 23 22  1  0  0  0  0
 24 27  2  0  0  0  0
 26 25  1  0  0  0  0
 26 28  1  0  0  0  0
 27 26  1  0  0  0  0
 28 29  1  1  0  0  0
 31 28  1  0  0  0  0
 31 30  1  0  0  0  0
M  END
>  <MODEL>
4

>  <REMARK>
 VINA RESULT:      -8.4      2.589      7.551
  Name = 
  4 active torsions:
  status: ('A' for Active; 'I' for Inactive)
    1  A    between atoms: C_1  and  N_19
    2  A    between atoms: C_1  and  C_24
    3  A    between atoms: C_9  and  C_22
    4  A    between atoms: C_15  and  N_23
                            x       y       z     vdW  Elec       q    Type
                         _______ _______ _______ _____ _____    ______ ____

>  <TORSDO>
F 4

$$$$
=
 OpenBabel10262419383D

 31 34  0  0  1  0  0  0  0  0999 V2000
  183.8820  178.7910  138.9250 C   0  0  0  0  0  0  0  0  0  0  0  0
  187.5900  178.1920  139.1390 C   0  0  0  0  0  0  0  0  0  0  0  0
  188.1060  178.1370  137.7070 C   0  0  2  0  0  3  0  0  0  0  0  0
  186.7780  177.2960  135.8270 C   0  0  0  0  0  2  0  0  0  0  0  0
  186.2330  178.4500  139.4970 C   0  0  0  0  0  0  0  0  0  0  0  0
  183.5650  178.9690  140.2710 C   0  0  0  0  0  3  0  0  0  0  0  0
  187.1880  178.5650  136.5710 C   0  0  0  0  0  2  0  0  0  0  0  0
  188.1840  178.2290  141.5230 C   0  0  0  0  0  0  0  0  0  0  0  0
  182.8870  178.8710  137.9610 O   0  0  0  0  0  1  0  0  0  0  0  0
  190.4040  176.7870  138.9460 C   0  0  0  0  0  3  0  0  0  0  0  0
  187.7710  176.2070  136.2000 C   0  0  2  0  0  3  0  0  0  0  0  0
  186.8600  178.5280  141.8450 C   0  0  0  0  0  3  0  0  0  0  0  0
  188.5480  178.0140  140.1780 C   0  0  0  0  0  0  0  0  0  0  0  0
  185.2020  178.5340  138.5460 C   0  0  0  0  0  3  0  0  0  0  0  0
  187.0130  174.9580  136.6130 C   0  0  0  0  0  1  0  0  0  0  0  0
  185.8890  178.6210  140.8600 C   0  0  0  0  0  0  0  0  0  0  0  0
  184.5680  178.8830  141.2370 C   0  0  0  0  0  3  0  0  0  0  0  0
  189.9500  177.5830  139.9250 C   0  0  0  0  0  3  0  0  0  0  0  0
  189.6060  176.1930  137.8580 C   0  0  0  0  0  3  0  0  0  0  0  0
  188.5180  176.7660  137.3510 C   0  0  0  0  0  0  0  0  0  0  0  0
  188.8590  175.8750  143.1670 O   0  0  0  0  0  0  0  0  0  0  0  0
  189.4740  176.9590  143.3570 C   0  0  0  0  0  0  0  0  0  0  0  0
  189.1790  178.1130  142.5560 N   0  0  0  0  0  2  0  0  0  0  0  0
  191.7100  177.2850  144.0130 O   0  0  0  0  0  0  0  0  0  0  0  0
  191.3780  176.7650  146.7220 C   0  0  0  0  0  1  0  0  0  0  0  0
  190.2580  176.8810  145.7950 N   0  0  0  0  0  0  0  0  0  0  0  0
  190.5280  177.0530  144.3890 C   0  0  0  0  0  0  0  0  0  0  0  0
  188.8970  176.9630  146.3270 C   0  0  1  0  0  3  0  0  0  0  0  0
  188.9070  176.9070  147.8470 C   0  0  0  0  0  1  0  0  0  0  0  0
  186.7350  177.9410  145.5530 C   0  0  0  0  0  1  0  0  0  0  0  0
  188.1990  178.2220  145.8290 C   0  0  0  0  0  2  0  0  0  0  0  0
  1  6  1  0  0  0  0
  2  5  2  0  0  0  0
  2 13  1  0  0  0  0
  3  7  1  6  0  0  0
  3  2  1  0  0  0  0
  4 11  1  0  0  0  0
  4  7  1  0  0  0  0
  5 16  1  0  0  0  0
  6 17  2  0  0  0  0
  8 12  1  0  0  0  0
  8 23  1  0  0  0  0
  9  1  1  0  0  0  0
 10 18  2  0  0  0  0
 11 15  1  1  0  0  0
 11 20  1  0  0  0  0
 13  8  2  0  0  0  0
 14  1  2  0  0  0  0
 14  5  1  0  0  0  0
 16 17  1  0  0  0  0
 16 12  2  0  0  0  0
 18 13  1  0  0  0  0
 19 10  1  0  0  0  0
 20  3  1  0  0  0  0
 20 19  2  0  0  0  0
 21 22  2  0  0  0  0
 22 27  1  0  0  0  0
 23 22  1  0  0  0  0
 24 27  2  0  0  0  0
 26 28  1  0  0  0  0
 26 25  1  0  0  0  0
 27 26  1  0  0  0  0
 28 29  1  1  0  0  0
 30 31  1  0  0  0  0
 31 28  1  0  0  0  0
M  END
>  <MODEL>
5

>  <REMARK>
 VINA RESULT:      -8.3      3.532      7.952
  Name = 
  4 active torsions:
  status: ('A' for Active; 'I' for Inactive)
    1  A    between atoms: C_1  and  N_19
    2  A    between atoms: C_1  and  C_24
    3  A    between atoms: C_9  and  C_22
    4  A    between atoms: C_15  and  N_23
                            x       y       z     vdW  Elec       q    Type
                         _______ _______ _______ _____ _____    ______ ____

>  <TORSDO>
F 4

$$$$
=
 OpenBabel10262419383D

 31 34  0  0  1  0  0  0  0  0999 V2000
  183.9580  178.6120  143.7380 C   0  0  0  0  0  0  0  0  0  0  0  0
  185.6260  178.6180  140.3660 C   0  0  0  0  0  0  0  0  0  0  0  0
  184.5520  178.9820  139.3480 C   0  0  2  0  0  3  0  0  0  0  0  0
  182.1900  178.3830  139.6100 C   0  0  0  0  0  2  0  0  0  0  0  0
  185.4120  178.5530  141.7750 C   0  0  0  0  0  0  0  0  0  0  0  0
  185.0570  178.4200  144.5750 C   0  0  0  0  0  3  0  0  0  0  0  0
  183.2080  179.4970  139.8430 C   0  0  0  0  0  2  0  0  0  0  0  0
  188.0180  178.2060  140.7500 C   0  0  0  0  0  0  0  0  0  0  0  0
  182.6870  178.7420  144.2790 O   0  0  0  0  0  1  0  0  0  0  0  0
  186.4400  177.7920  137.4350 C   0  0  0  0  0  3  0  0  0  0  0  0
  182.7890  177.4220  138.5950 C   0  0  2  0  0  3  0  0  0  0  0  0
  187.7910  178.1940  142.1260 C   0  0  0  0  0  3  0  0  0  0  0  0
  186.9350  178.3700  139.8620 C   0  0  0  0  0  0  0  0  0  0  0  0
  184.1380  178.6770  142.3540 C   0  0  0  0  0  3  0  0  0  0  0  0
  182.6650  176.0010  139.1170 C   0  0  0  0  0  1  0  0  0  0  0  0
  186.5130  178.3450  142.6410 C   0  0  0  0  0  0  0  0  0  0  0  0
  186.3330  178.2850  144.0260 C   0  0  0  0  0  3  0  0  0  0  0  0
  187.2380  178.2530  138.4080 C   0  0  0  0  0  3  0  0  0  0  0  0
  185.0450  177.3380  137.5850 C   0  0  0  0  0  3  0  0  0  0  0  0
  184.2140  177.8190  138.5050 C   0  0  0  0  0  0  0  0  0  0  0  0
  190.0010  176.1360  141.4420 O   0  0  0  0  0  0  0  0  0  0  0  0
  190.3000  177.0200  140.5960 C   0  0  0  0  0  0  0  0  0  0  0  0
  189.3460  178.0270  140.2250 N   0  0  0  0  0  2  0  0  0  0  0  0
  192.6030  177.5030  140.5930 O   0  0  0  0  0  0  0  0  0  0  0  0
  193.1340  176.7490  137.9710 C   0  0  0  0  0  1  0  0  0  0  0  0
  191.8500  176.5080  138.6210 N   0  0  0  0  0  0  0  0  0  0  0  0
  191.6300  177.0220  139.9490 C   0  0  0  0  0  0  0  0  0  0  0  0
  190.8750  175.6330  137.9680 C   0  0  1  0  0  3  0  0  0  0  0  0
  190.0670  176.4010  136.9340 C   0  0  0  0  0  1  0  0  0  0  0  0
  190.6420  173.7450  136.3530 C   0  0  0  0  0  1  0  0  0  0  0  0
  191.5670  174.4300  137.3410 C   0  0  0  0  0  2  0  0  0  0  0  0
  1  9  1  0  0  0  0
  1  6  1  0  0  0  0
  2  5  1  0  0  0  0
  3  7  1  1  0  0  0
  3  2  1  0  0  0  0
  4  7  1  0  0  0  0
  5 14  1  0  0  0  0
  5 16  2  0  0  0  0
  8 12  2  0  0  0  0
 10 19  1  0  0  0  0
 10 18  2  0  0  0  0
 11 15  1  1  0  0  0
 11  4  1  0  0  0  0
 12 16  1  0  0  0  0
 13  2  2  0  0  0  0
 13  8  1  0  0  0  0
 14  1  2  0  0  0  0
 16 17  1  0  0  0  0
 17  6  2  0  0  0  0
 18 13  1  0  0  0  0
 19 20  2  0  0  0  0
 20 11  1  0  0  0  0
 20  3  1  0  0  0  0
 22 21  2  0  0  0  0
 23 22  1  0  0  0  0
 23  8  1  0  0  0  0
 25 26  1  0  0  0  0
 26 27  1  0  0  0  0
 27 24  2  0  0  0  0
 27 22  1  0  0  0  0
 28 29  1  6  0  0  0
 28 26  1  0  0  0  0
 30 31  1  0  0  0  0
 31 28  1  0  0  0  0
M  END
>  <MODEL>
6

>  <REMARK>
 VINA RESULT:      -7.9      4.037      7.774
  Name = 
  4 active torsions:
  status: ('A' for Active; 'I' for Inactive)
    1  A    between atoms: C_1  and  N_19
    2  A    between atoms: C_1  and  C_24
    3  A    between atoms: C_9  and  C_22
    4  A    between atoms: C_15  and  N_23
                            x       y       z     vdW  Elec       q    Type
                         _______ _______ _______ _____ _____    ______ ____

>  <TORSDO>
F 4

$$$$
=
 OpenBabel10262419383D

 31 34  0  0  1  0  0  0  0  0999 V2000
  182.0390  178.9720  143.4310 C   0  0  0  0  0  0  0  0  0  0  0  0
  184.5160  178.8610  140.6010 C   0  0  0  0  0  0  0  0  0  0  0  0
  183.7320  179.1420  139.3250 C   0  0  2  0  0  3  0  0  0  0  0  0
  181.3920  178.4870  139.0070 C   0  0  0  0  0  2  0  0  0  0  0  0
  183.9480  178.8590  141.9100 C   0  0  0  0  0  0  0  0  0  0  0  0
  182.8890  178.8530  144.5300 C   0  0  0  0  0  3  0  0  0  0  0  0
  182.2980  179.6420  139.4300 C   0  0  0  0  0  2  0  0  0  0  0  0
  186.7350  178.5400  141.6050 C   0  0  0  0  0  0  0  0  0  0  0  0
  180.6690  179.0900  143.6210 O   0  0  0  0  0  1  0  0  0  0  0  0
  186.0670  177.9170  138.0250 C   0  0  0  0  0  3  0  0  0  0  0  0
  182.2470  177.4950  138.2340 C   0  0  2  0  0  3  0  0  0  0  0  0
  186.1630  178.5890  142.8760 C   0  0  0  0  0  3  0  0  0  0  0  0
  185.9140  178.6280  140.4620 C   0  0  0  0  0  0  0  0  0  0  0  0
  182.5670  178.9740  142.1370 C   0  0  0  0  0  3  0  0  0  0  0  0
  182.0160  176.0990  138.7840 C   0  0  0  0  0  1  0  0  0  0  0  0
  184.7940  178.7270  143.0390 C   0  0  0  0  0  0  0  0  0  0  0  0
  184.2640  178.7300  144.3330 C   0  0  0  0  0  3  0  0  0  0  0  0
  186.5810  178.4490  139.1430 C   0  0  0  0  0  3  0  0  0  0  0  0
  184.6880  177.4300  137.8390 C   0  0  0  0  0  3  0  0  0  0  0  0
  183.6410  177.9300  138.4890 C   0  0  0  0  0  0  0  0  0  0  0  0
  188.4330  176.2990  142.4980 O   0  0  0  0  0  0  0  0  0  0  0  0
  188.9620  177.2810  141.9110 C   0  0  0  0  0  0  0  0  0  0  0  0
  188.1560  178.3740  141.4480 N   0  0  0  0  0  2  0  0  0  0  0  0
  191.1880  177.4140  142.6630 O   0  0  0  0  0  0  0  0  0  0  0  0
  192.4140  177.5030  140.1700 C   0  0  0  0  0  1  0  0  0  0  0  0
  190.9890  177.2410  140.3440 N   0  0  0  0  0  0  0  0  0  0  0  0
  190.4200  177.3120  141.6670 C   0  0  0  0  0  0  0  0  0  0  0  0
  190.2050  176.7740  139.1990 C   0  0  1  0  0  3  0  0  0  0  0  0
  189.8070  177.9400  138.3050 C   0  0  0  0  0  1  0  0  0  0  0  0
  191.0830  176.1200  136.9560 C   0  0  0  0  0  1  0  0  0  0  0  0
  190.9740  175.7190  138.4150 C   0  0  0  0  0  2  0  0  0  0  0  0
  1  9  1  0  0  0  0
  1  6  1  0  0  0  0
  2  5  1  0  0  0  0
  3  7  1  1  0  0  0
  3  2  1  0  0  0  0
  4  7  1  0  0  0  0
  5 14  1  0  0  0  0
  5 16  2  0  0  0  0
  8 12  2  0  0  0  0
 10 18  2  0  0  0  0
 11 20  1  0  0  0  0
 11 15  1  1  0  0  0
 11  4  1  0  0  0  0
 12 16  1  0  0  0  0
 13  2  2  0  0  0  0
 13  8  1  0  0  0  0
 14  1  2  0  0  0  0
 16 17  1  0  0  0  0
 17  6  2  0  0  0  0
 18 13  1  0  0  0  0
 19 10  1  0  0  0  0
 19 20  2  0  0  0  0
 20  3  1  0  0  0  0
 22 21  2  0  0  0  0
 23  8  1  0  0  0  0
 23 22  1  0  0  0  0
 25 26  1  0  0  0  0
 26 27  1  0  0  0  0
 27 22  1  0  0  0  0
 27 24  2  0  0  0  0
 28 29  1  6  0  0  0
 28 26  1  0  0  0  0
 30 31  1  0  0  0  0
 31 28  1  0  0  0  0
M  END
>  <MODEL>
7

>  <REMARK>
 VINA RESULT:      -7.9      3.113      7.438
  Name = 
  4 active torsions:
  status: ('A' for Active; 'I' for Inactive)
    1  A    between atoms: C_1  and  N_19
    2  A    between atoms: C_1  and  C_24
    3  A    between atoms: C_9  and  C_22
    4  A    between atoms: C_15  and  N_23
                            x       y       z     vdW  Elec       q    Type
                         _______ _______ _______ _____ _____    ______ ____

>  <TORSDO>
F 4

$$$$
=
 OpenBabel10262419383D

 31 34  0  0  1  0  0  0  0  0999 V2000
  186.4960  178.3980  145.4310 C   0  0  0  0  0  0  0  0  0  0  0  0
  188.7550  177.2950  142.6330 C   0  0  0  0  0  0  0  0  0  0  0  0
  189.9820  176.6680  143.2840 C   0  0  2  0  0  3  0  0  0  0  0  0
  190.8790  177.3930  145.4470 C   0  0  0  0  0  2  0  0  0  0  0  0
  187.6310  177.8000  143.3520 C   0  0  0  0  0  0  0  0  0  0  0  0
  185.3700  178.8060  144.7160 C   0  0  0  0  0  3  0  0  0  0  0  0
  189.9590  176.3740  144.7770 C   0  0  0  0  0  2  0  0  0  0  0  0
  187.5580  177.7300  140.5320 C   0  0  0  0  0  0  0  0  0  0  0  0
  186.5070  178.4820  146.8160 O   0  0  0  0  0  1  0  0  0  0  0  0
  191.2040  177.1460  140.6540 C   0  0  0  0  0  3  0  0  0  0  0  0
  191.7800  177.9730  144.3680 C   0  0  2  0  0  3  0  0  0  0  0  0
  186.4530  178.1750  141.2580 C   0  0  0  0  0  3  0  0  0  0  0  0
  188.7290  177.3330  141.2090 C   0  0  0  0  0  0  0  0  0  0  0  0
  187.6120  177.9020  144.7530 C   0  0  0  0  0  3  0  0  0  0  0  0
  191.7600  179.4880  144.4610 C   0  0  0  0  0  1  0  0  0  0  0  0
  186.4840  178.2310  142.6430 C   0  0  0  0  0  0  0  0  0  0  0  0
  185.3650  178.7230  143.3230 C   0  0  0  0  0  3  0  0  0  0  0  0
  189.9050  176.9850  140.3650 C   0  0  0  0  0  3  0  0  0  0  0  0
  191.7640  177.6680  141.9140 C   0  0  0  0  0  3  0  0  0  0  0  0
  191.1700  177.5220  143.0950 C   0  0  0  0  0  0  0  0  0  0  0  0
  189.0000  179.4510  138.6190 O   0  0  0  0  0  0  0  0  0  0  0  0
  188.2200  178.5610  138.1850 C   0  0  0  0  0  0  0  0  0  0  0  0
  187.5220  177.6960  139.0940 N   0  0  0  0  0  2  0  0  0  0  0  0
  187.3230  179.2170  136.1110 O   0  0  0  0  0  0  0  0  0  0  0  0
  188.1910  177.0330  134.6270 C   0  0  0  0  0  1  0  0  0  0  0  0
  188.6070  177.2710  136.0050 N   0  0  0  0  0  0  0  0  0  0  0  0
  188.0300  178.3750  136.7300 C   0  0  0  0  0  0  0  0  0  0  0  0
  189.7000  176.4760  136.5670 C   0  0  1  0  0  3  0  0  0  0  0  0
  189.1820  175.1510  137.1080 C   0  0  0  0  0  1  0  0  0  0  0  0
  192.1070  175.9220  136.2090 C   0  0  0  0  0  1  0  0  0  0  0  0
  190.7930  176.2540  135.5290 C   0  0  0  0  0  2  0  0  0  0  0  0
  1  9  1  0  0  0  0
  2  3  1  0  0  0  0
  2  5  1  0  0  0  0
  3  7  1  1  0  0  0
  5 14  2  0  0  0  0
  6  1  2  0  0  0  0
  7  4  1  0  0  0  0
  8 13  1  0  0  0  0
  8 12  2  0  0  0  0
 10 19  1  0  0  0  0
 11 15  1  6  0  0  0
 11  4  1  0  0  0  0
 12 16  1  0  0  0  0
 13  2  2  0  0  0  0
 14  1  1  0  0  0  0
 16 17  2  0  0  0  0
 16  5  1  0  0  0  0
 17  6  1  0  0  0  0
 18 10  2  0  0  0  0
 18 13  1  0  0  0  0
 19 20  2  0  0  0  0
 20  3  1  0  0  0  0
 20 11  1  0  0  0  0
 22 21  2  0  0  0  0
 22 23  1  0  0  0  0
 23  8  1  0  0  0  0
 24 27  2  0  0  0  0
 25 26  1  0  0  0  0
 26 28  1  0  0  0  0
 26 27  1  0  0  0  0
 27 22  1  0  0  0  0
 28 29  1  6  0  0  0
 31 30  1  0  0  0  0
 31 28  1  0  0  0  0
M  END
>  <MODEL>
8

>  <REMARK>
 VINA RESULT:      -7.6      4.290      6.155
  Name = 
  4 active torsions:
  status: ('A' for Active; 'I' for Inactive)
    1  A    between atoms: C_1  and  N_19
    2  A    between atoms: C_1  and  C_24
    3  A    between atoms: C_9  and  C_22
    4  A    between atoms: C_15  and  N_23
                            x       y       z     vdW  Elec       q    Type
                         _______ _______ _______ _____ _____    ______ ____

>  <TORSDO>
F 4

$$$$
=
 OpenBabel10262419383D

 31 34  0  0  1  0  0  0  0  0999 V2000
  186.9070  178.2870  137.3100 C   0  0  0  0  0  0  0  0  0  0  0  0
  184.7950  178.0830  140.4170 C   0  0  0  0  0  0  0  0  0  0  0  0
  183.3780  177.7580  139.9610 C   0  0  2  0  0  3  0  0  0  0  0  0
  182.4450  178.5090  137.8230 C   0  0  0  0  0  2  0  0  0  0  0  0
  185.9160  178.2010  139.5420 C   0  0  0  0  0  0  0  0  0  0  0  0
  188.1780  178.4350  137.8650 C   0  0  0  0  0  3  0  0  0  0  0  0
  183.1420  177.3400  138.5160 C   0  0  0  0  0  2  0  0  0  0  0  0
  186.3100  178.3560  142.3320 C   0  0  0  0  0  0  0  0  0  0  0  0
  186.7490  178.2520  135.9320 O   0  0  0  0  0  1  0  0  0  0  0  0
  182.6510  178.7740  142.6220 C   0  0  0  0  0  3  0  0  0  0  0  0
  181.8630  179.4020  138.9070 C   0  0  2  0  0  3  0  0  0  0  0  0
  187.3960  178.4210  141.4590 C   0  0  0  0  0  3  0  0  0  0  0  0
  185.0030  178.2350  141.8180 C   0  0  0  0  0  0  0  0  0  0  0  0
  185.7910  178.1720  138.1430 C   0  0  0  0  0  3  0  0  0  0  0  0
  182.2640  180.8420  138.6390 C   0  0  0  0  0  1  0  0  0  0  0  0
  187.2130  178.3640  140.0860 C   0  0  0  0  0  0  0  0  0  0  0  0
  188.3300  178.4740  139.2510 C   0  0  0  0  0  3  0  0  0  0  0  0
  183.8890  178.2920  142.8040 C   0  0  0  0  0  3  0  0  0  0  0  0
  182.0970  179.3170  141.3680 C   0  0  0  0  0  3  0  0  0  0  0  0
  182.4850  178.9150  140.1610 C   0  0  0  0  0  0  0  0  0  0  0  0
  187.5020  176.3520  144.1390 O   0  0  0  0  0  0  0  0  0  0  0  0
  187.0750  177.4380  144.6150 C   0  0  0  0  0  0  0  0  0  0  0  0
  186.5100  178.4390  143.7550 N   0  0  0  0  0  2  0  0  0  0  0  0
  186.1040  177.9200  146.7030 O   0  0  0  0  0  0  0  0  0  0  0  0
  188.4600  178.2550  148.1370 C   0  0  0  0  0  1  0  0  0  0  0  0
  188.4310  177.7600  146.7650 N   0  0  0  0  0  0  0  0  0  0  0  0
  187.1720  177.7120  146.0650 C   0  0  0  0  0  0  0  0  0  0  0  0
  189.6500  177.1930  146.1860 C   0  0  1  0  0  3  0  0  0  0  0  0
  190.2870  178.1680  145.2060 C   0  0  0  0  0  1  0  0  0  0  0  0
  191.8220  176.0690  146.6840 C   0  0  0  0  0  1  0  0  0  0  0  0
  190.6320  176.7960  147.2800 C   0  0  0  0  0  2  0  0  0  0  0  0
  1  6  2  0  0  0  0
  1 14  1  0  0  0  0
  2 13  2  0  0  0  0
  3  7  1  6  0  0  0
  3 20  1  0  0  0  0
  3  2  1  0  0  0  0
  4  7  1  0  0  0  0
  4 11  1  0  0  0  0
  5 16  1  0  0  0  0
  5  2  1  0  0  0  0
  6 17  1  0  0  0  0
  8 23  1  0  0  0  0
  9  1  1  0  0  0  0
 10 18  2  0  0  0  0
 11 15  1  6  0  0  0
 11 20  1  0  0  0  0
 12  8  2  0  0  0  0
 13  8  1  0  0  0  0
 13 18  1  0  0  0  0
 14  5  2  0  0  0  0
 16 12  1  0  0  0  0
 17 16  2  0  0  0  0
 19 10  1  0  0  0  0
 20 19  2  0  0  0  0
 21 22  2  0  0  0  0
 22 27  1  0  0  0  0
 23 22  1  0  0  0  0
 26 25  1  0  0  0  0
 27 24  2  0  0  0  0
 27 26  1  0  0  0  0
 28 29  1  6  0  0  0
 28 26  1  0  0  0  0
 28 31  1  0  0  0  0
 30 31  1  0  0  0  0
M  END
>  <MODEL>
9

>  <REMARK>
 VINA RESULT:      -7.5      2.941      7.990
  Name = 
  4 active torsions:
  status: ('A' for Active; 'I' for Inactive)
    1  A    between atoms: C_1  and  N_19
    2  A    between atoms: C_1  and  C_24
    3  A    between atoms: C_9  and  C_22
    4  A    between atoms: C_15  and  N_23
                            x       y       z     vdW  Elec       q    Type
                         _______ _______ _______ _____ _____    ______ ____

>  <TORSDO>
F 4

$$$$
