=
 OpenBabel10262420193D

 55 61  0  0  1  0  0  0  0  0999 V2000
  185.8390  177.5700  140.6710 C   0  0  0  0  0  2  0  0  0  0  0  0
  187.6030  178.7290  136.8660 C   0  0  0  0  0  1  0  0  0  0  0  0
  186.7460  176.1080  135.5570 O   0  0  0  0  0  1  0  0  0  0  0  0
  183.6740  175.3430  135.4620 C   0  0  0  0  0  3  0  0  0  0  0  0
  182.4000  175.2190  134.9050 C   0  0  0  0  0  3  0  0  0  0  0  0
  182.6870  175.8170  137.6320 C   0  0  0  0  0  0  0  0  0  0  0  0
  181.4130  175.6790  137.0660 C   0  0  0  0  0  3  0  0  0  0  0  0
  185.8020  174.5000  137.5090 O   0  0  0  0  0  1  0  0  0  0  0  0
  181.2690  175.3870  135.7080 C   0  0  0  0  0  3  0  0  0  0  0  0
  187.2940  177.4350  142.7050 C   0  0  0  0  0  2  0  0  0  0  0  0
  183.8330  175.6490  136.8230 C   0  0  0  0  0  0  0  0  0  0  0  0
  189.2050  177.7420  140.7450 C   0  0  1  0  0  3  0  0  0  0  0  0
  184.7430  178.5310  140.2580 C   0  0  0  0  0  2  0  0  0  0  0  0
  188.0430  178.7260  140.6130 C   0  0  0  0  0  2  0  0  0  0  0  0
  182.8970  177.5920  139.4530 C   0  0  1  0  0  3  0  0  0  0  0  0
  188.1510  176.5250  138.1130 C   0  0  0  0  0  2  0  0  0  0  0  0
  182.7810  176.1000  139.1050 C   0  0  0  0  0  2  0  0  0  0  0  0
  187.0760  177.4620  137.5290 C   0  0  2  0  0  3  0  0  0  0  0  0
  186.0900  176.7350  136.6240 C   0  0  2  0  0  3  0  0  0  0  0  0
  188.6470  177.8920  143.2360 C   0  0  0  0  0  2  0  0  0  0  0  0
  189.5780  176.8180  137.6540 C   0  0  1  0  0  3  0  0  0  0  0  0
  186.8660  178.3050  141.5070 C   0  0  1  0  0  3  0  0  0  0  0  0
  185.2110  175.7560  137.4070 C   0  0  2  0  0  3  0  0  0  0  0  0
  184.1420  178.1030  139.0700 O   0  0  0  0  0  0  0  0  0  0  0  0
  190.5390  176.8460  138.8420 C   0  0  0  0  0  2  0  0  0  0  0  0
  190.2960  178.0550  139.7400 C   0  0  0  0  0  2  0  0  0  0  0  0
  189.7530  177.7330  142.1780 C   0  0  0  0  0  2  0  0  0  0  0  0
  181.9550  179.3600  137.6880 C   0  0  0  0  0  3  0  0  0  0  0  0
  180.5780  180.4160  139.3040 N   0  0  0  0  0  0  0  0  0  0  0  0
  180.3440  177.9810  139.1930 C   0  0  0  0  0  2  0  0  0  0  0  0
  180.9600  179.1660  139.9390 C   0  0  1  0  0  3  0  0  0  0  0  0
  181.1480  180.6120  137.9810 C   0  0  0  0  0  3  0  0  0  0  0  0
  181.7560  178.4340  138.8840 C   0  0  1  0  0  0  0  0  0  0  0  0
  179.7400  181.3850  139.9490 C   0  0  0  0  0  0  0  0  0  0  0  0
  179.3340  181.2100  141.2000 C   0  0  0  0  0  2  0  0  0  0  0  0
  179.2590  182.5860  139.2080 C   0  0  0  0  0  1  0  0  0  0  0  0
  190.0190  175.7350  136.6880 C   0  0  0  0  0  2  0  0  0  0  0  0
  191.3940  175.4780  136.8580 O   0  0  0  0  0  0  0  0  0  0  0  0
  192.8920  173.4020  137.1800 O   0  0  0  0  0  1  0  0  0  0  0  0
  193.0900  173.9880  135.9300 C   0  0  2  0  0  0  0  0  0  0  0  0
  190.9360  174.4320  134.8330 O   0  0  0  0  0  1  0  0  0  0  0  0
  193.9600  176.0480  135.1290 C   0  0  1  0  0  3  0  0  0  0  0  0
  194.3350  174.8990  136.0080 C   0  0  2  0  0  3  0  0  0  0  0  0
  191.9360  175.0000  135.6330 C   0  0  1  0  0  0  0  0  0  0  0  0
  192.6510  176.1150  134.9140 C   0  0  0  0  0  2  0  0  0  0  0  0
  196.2550  173.5650  136.8450 C   0  0  0  0  0  2  0  0  0  0  0  0
  196.7910  174.8960  136.3670 C   0  0  0  0  0  2  0  0  0  0  0  0
  195.6540  174.2280  135.6280 C   0  0  0  0  0  3  0  0  0  0  0  0
  194.9250  177.0650  134.5950 C   0  0  0  0  0  2  0  0  0  0  0  0
  196.1800  178.8320  135.0190 C   0  0  0  0  0  1  0  0  0  0  0  0
  195.4380  177.8340  135.6490 O   0  0  0  0  0  0  0  0  0  0  0  0
  193.2150  172.9310  134.9750 O   0  0  0  0  0  0  0  0  0  0  0  0
  191.7440  171.0510  134.7160 C   0  0  0  0  0  1  0  0  0  0  0  0
  194.0870  170.7520  135.3890 C   0  0  0  0  0  1  0  0  0  0  0  0
  192.8840  171.6660  135.5060 C   0  0  0  0  0  3  0  0  0  0  0  0
  1 22  1  0  0  0  0
  4 11  1  0  0  0  0
  5  4  2  0  0  0  0
  5  9  1  0  0  0  0
  6 17  1  0  0  0  0
  7  6  1  0  0  0  0
  9  7  2  0  0  0  0
 10 20  1  0  0  0  0
 11 23  1  0  0  0  0
 11  6  2  0  0  0  0
 12 26  1  6  0  0  0
 12 27  1  0  0  0  0
 13  1  1  0  0  0  0
 14 12  1  0  0  0  0
 15 17  1  6  0  0  0
 18  2  1  6  0  0  0
 18 16  1  0  0  0  0
 19  3  1  6  0  0  0
 19 23  1  0  0  0  0
 19 18  1  0  0  0  0
 21 37  1  6  0  0  0
 21 16  1  0  0  0  0
 21 25  1  0  0  0  0
 22 14  1  6  0  0  0
 22 10  1  0  0  0  0
 23  8  1  6  0  0  0
 24 15  1  0  0  0  0
 24 13  1  0  0  0  0
 25 26  1  0  0  0  0
 27 20  1  0  0  0  0
 28 32  2  0  0  0  0
 29 31  1  0  0  0  0
 29 34  1  0  0  0  0
 31 30  1  6  0  0  0
 32 29  1  0  0  0  0
 33 28  1  6  0  0  0
 33 30  1  0  0  0  0
 33 15  1  0  0  0  0
 33 31  1  0  0  0  0
 34 35  2  0  0  0  0
 36 34  1  0  0  0  0
 37 38  1  0  0  0  0
 40 43  1  0  0  0  0
 40 39  1  1  0  0  0
 42 49  1  1  0  0  0
 42 43  1  0  0  0  0
 43 48  1  6  0  0  0
 44 41  1  6  0  0  0
 44 40  1  0  0  0  0
 44 38  1  0  0  0  0
 45 42  1  0  0  0  0
 45 44  1  0  0  0  0
 47 46  1  0  0  0  0
 48 47  1  0  0  0  0
 48 46  1  0  0  0  0
 49 51  1  0  0  0  0
 50 51  1  0  0  0  0
 52 55  1  0  0  0  0
 52 40  1  0  0  0  0
 53 55  1  0  0  0  0
 54 55  1  0  0  0  0
M  END
>  <MODEL>
1

>  <REMARK>
 VINA RESULT:      -5.7      0.000      0.000
  Name = 
  10 active torsions:
  status: ('A' for Active; 'I' for Inactive)
    1  A    between atoms: C_6  and  O_46
    2  A    between atoms: C_8  and  O_22
    3  A    between atoms: C_8  and  C_43
    4  A    between atoms: C_10  and  N_32
    5  A    between atoms: C_12  and  C_30
    6  A    between atoms: C_14  and  C_38
    7  A    between atoms: C_20  and  O_22
    8  A    between atoms: C_30  and  O_50
    9  A    between atoms: C_33  and  C_52
   10  A    between atoms: O_46  and  C_53
                            x       y       z     vdW  Elec       q    Type
                         _______ _______ _______ _____ _____    ______ ____

>  <TORSDO>
F 10

$$$$
=
 OpenBabel10262420193D

 55 61  0  0  1  0  0  0  0  0999 V2000
  188.4630  173.1700  135.8110 C   0  0  0  0  0  2  0  0  0  0  0  0
  188.0380  177.4310  135.0360 C   0  0  0  0  0  1  0  0  0  0  0  0
  189.1440  178.1420  137.7900 O   0  0  0  0  0  1  0  0  0  0  0  0
  192.0530  177.1850  138.5980 C   0  0  0  0  0  3  0  0  0  0  0  0
  193.4310  177.2930  138.7950 C   0  0  0  0  0  3  0  0  0  0  0  0
  192.3280  174.8690  137.9110 C   0  0  0  0  0  0  0  0  0  0  0  0
  193.7090  174.9860  138.1220 C   0  0  0  0  0  3  0  0  0  0  0  0
  189.3550  175.8470  139.1950 O   0  0  0  0  0  1  0  0  0  0  0  0
  194.2580  176.1940  138.5570 C   0  0  0  0  0  3  0  0  0  0  0  0
  186.4370  171.7000  135.7140 C   0  0  0  0  0  2  0  0  0  0  0  0
  191.4890  175.9800  138.1480 C   0  0  0  0  0  0  0  0  0  0  0  0
  185.2550  174.1840  135.5910 C   0  0  1  0  0  3  0  0  0  0  0  0
  189.6740  173.3040  134.9110 C   0  0  0  0  0  2  0  0  0  0  0  0
  186.4420  174.0340  134.6400 C   0  0  0  0  0  2  0  0  0  0  0  0
  191.6370  173.3870  135.9520 C   0  0  1  0  0  3  0  0  0  0  0  0
  187.0280  176.2160  137.0910 C   0  0  0  0  0  2  0  0  0  0  0  0
  191.7890  173.5370  137.4730 C   0  0  0  0  0  2  0  0  0  0  0  0
  188.2720  176.5170  136.2330 C   0  0  2  0  0  3  0  0  0  0  0  0
  189.4600  176.9870  137.0630 C   0  0  2  0  0  3  0  0  0  0  0  0
  185.0080  171.6710  135.1860 C   0  0  0  0  0  2  0  0  0  0  0  0
  185.8320  177.1310  136.8300 C   0  0  1  0  0  3  0  0  0  0  0  0
  187.2590  172.7770  134.9790 C   0  0  1  0  0  3  0  0  0  0  0  0
  190.0040  175.8760  137.9650 C   0  0  2  0  0  3  0  0  0  0  0  0
  190.5990  174.1930  135.4690 O   0  0  0  0  0  0  0  0  0  0  0  0
  184.5480  176.3170  136.6660 C   0  0  0  0  0  2  0  0  0  0  0  0
  184.5500  175.5090  135.3730 C   0  0  0  0  0  2  0  0  0  0  0  0
  184.2850  173.0050  135.4430 C   0  0  0  0  0  2  0  0  0  0  0  0
  193.7630  172.5050  134.6000 C   0  0  0  0  0  3  0  0  0  0  0  0
  195.1960  174.1330  135.5610 N   0  0  0  0  0  0  0  0  0  0  0  0
  193.1280  175.0270  134.6010 C   0  0  0  0  0  2  0  0  0  0  0  0
  193.8620  174.6150  135.8780 C   0  0  1  0  0  3  0  0  0  0  0  0
  195.2170  172.8780  134.8270 C   0  0  0  0  0  3  0  0  0  0  0  0
  192.9350  173.6430  135.1870 C   0  0  1  0  0  0  0  0  0  0  0  0
  196.3850  174.8220  135.9710 C   0  0  0  0  0  0  0  0  0  0  0  0
  196.9520  174.5620  137.1420 C   0  0  0  0  0  2  0  0  0  0  0  0
  196.9780  175.8880  135.1150 C   0  0  0  0  0  1  0  0  0  0  0  0
  185.6690  178.0780  138.0030 C   0  0  0  0  0  2  0  0  0  0  0  0
  184.4510  177.8140  138.6610 O   0  0  0  0  0  0  0  0  0  0  0  0
  183.4040  177.1800  140.9320 O   0  0  0  0  0  1  0  0  0  0  0  0
  183.1470  178.5110  140.6030 C   0  0  2  0  0  0  0  0  0  0  0  0
  185.2100  179.6380  139.8870 O   0  0  0  0  0  1  0  0  0  0  0  0
  181.9050  179.6440  138.9250 C   0  0  1  0  0  3  0  0  0  0  0  0
  181.7370  178.5960  139.9770 C   0  0  2  0  0  3  0  0  0  0  0  0
  184.0770  178.9520  139.4280 C   0  0  1  0  0  0  0  0  0  0  0  0
  183.1800  179.8510  138.6160 C   0  0  0  0  0  2  0  0  0  0  0  0
  179.9800  177.5760  141.4050 C   0  0  0  0  0  2  0  0  0  0  0  0
  179.2910  178.4310  140.3650 C   0  0  0  0  0  2  0  0  0  0  0  0
  180.6050  178.8790  140.9630 C   0  0  0  0  0  3  0  0  0  0  0  0
  180.7750  180.3480  138.2330 C   0  0  0  0  0  2  0  0  0  0  0  0
  180.2250  180.9950  136.1940 C   0  0  0  0  0  1  0  0  0  0  0  0
  181.2640  181.0520  137.1220 O   0  0  0  0  0  0  0  0  0  0  0  0
  183.2880  179.2830  141.7980 O   0  0  0  0  0  0  0  0  0  0  0  0
  185.0420  178.7880  143.3620 C   0  0  0  0  0  1  0  0  0  0  0  0
  182.6900  178.8660  144.0660 C   0  0  0  0  0  1  0  0  0  0  0  0
  183.6170  178.5000  142.9250 C   0  0  0  0  0  3  0  0  0  0  0  0
  4  5  1  0  0  0  0
  6  7  2  0  0  0  0
  6 11  1  0  0  0  0
  7  9  1  0  0  0  0
  9  5  2  0  0  0  0
 11  4  2  0  0  0  0
 12 14  1  6  0  0  0
 13 24  1  0  0  0  0
 13  1  1  0  0  0  0
 15 17  1  1  0  0  0
 17  6  1  0  0  0  0
 18  2  1  6  0  0  0
 18 19  1  0  0  0  0
 18 16  1  0  0  0  0
 19  3  1  1  0  0  0
 19 23  1  0  0  0  0
 20 27  1  0  0  0  0
 20 10  1  0  0  0  0
 21 16  1  0  0  0  0
 21 37  1  1  0  0  0
 22 14  1  1  0  0  0
 22 10  1  0  0  0  0
 22  1  1  0  0  0  0
 23 11  1  0  0  0  0
 23  8  1  1  0  0  0
 24 15  1  0  0  0  0
 25 21  1  0  0  0  0
 26 12  1  0  0  0  0
 26 25  1  0  0  0  0
 27 12  1  0  0  0  0
 28 32  2  0  0  0  0
 29 31  1  0  0  0  0
 29 34  1  0  0  0  0
 30 33  1  0  0  0  0
 31 30  1  6  0  0  0
 32 29  1  0  0  0  0
 33 28  1  6  0  0  0
 33 31  1  0  0  0  0
 33 15  1  0  0  0  0
 34 35  2  0  0  0  0
 36 34  1  0  0  0  0
 37 38  1  0  0  0  0
 38 44  1  0  0  0  0
 40 39  1  1  0  0  0
 40 52  1  0  0  0  0
 42 49  1  6  0  0  0
 42 43  1  0  0  0  0
 43 40  1  0  0  0  0
 43 48  1  1  0  0  0
 44 41  1  1  0  0  0
 44 40  1  0  0  0  0
 45 42  1  0  0  0  0
 45 44  1  0  0  0  0
 47 48  1  0  0  0  0
 47 46  1  0  0  0  0
 48 46  1  0  0  0  0
 50 51  1  0  0  0  0
 51 49  1  0  0  0  0
 52 55  1  0  0  0  0
 55 53  1  0  0  0  0
 55 54  1  0  0  0  0
M  END
>  <MODEL>
2

>  <REMARK>
 VINA RESULT:      -3.2      3.198     11.747
  Name = 
  10 active torsions:
  status: ('A' for Active; 'I' for Inactive)
    1  A    between atoms: C_6  and  O_46
    2  A    between atoms: C_8  and  O_22
    3  A    between atoms: C_8  and  C_43
    4  A    between atoms: C_10  and  N_32
    5  A    between atoms: C_12  and  C_30
    6  A    between atoms: C_14  and  C_38
    7  A    between atoms: C_20  and  O_22
    8  A    between atoms: C_30  and  O_50
    9  A    between atoms: C_33  and  C_52
   10  A    between atoms: O_46  and  C_53
                            x       y       z     vdW  Elec       q    Type
                         _______ _______ _______ _____ _____    ______ ____

>  <TORSDO>
F 10

$$$$
=
 OpenBabel10262420193D

 55 61  0  0  1  0  0  0  0  0999 V2000
  185.2250  177.9710  141.0340 C   0  0  0  0  0  2  0  0  0  0  0  0
  187.5980  179.1750  137.5900 C   0  0  0  0  0  1  0  0  0  0  0  0
  186.5500  176.8400  135.9270 O   0  0  0  0  0  1  0  0  0  0  0  0
  183.4370  176.5650  135.4120 C   0  0  0  0  0  3  0  0  0  0  0  0
  182.2380  176.6860  134.7080 C   0  0  0  0  0  3  0  0  0  0  0  0
  182.2630  176.9930  137.4970 C   0  0  0  0  0  0  0  0  0  0  0  0
  181.0630  177.1020  136.7810 C   0  0  0  0  0  3  0  0  0  0  0  0
  185.1500  175.2310  137.5830 O   0  0  0  0  0  1  0  0  0  0  0  0
  181.0510  176.9550  135.3930 C   0  0  0  0  0  3  0  0  0  0  0  0
  186.3800  177.4380  143.1910 C   0  0  0  0  0  2  0  0  0  0  0  0
  183.4650  176.7240  136.8070 C   0  0  0  0  0  0  0  0  0  0  0  0
  188.5460  177.6190  141.4990 C   0  0  1  0  0  3  0  0  0  0  0  0
  184.3370  179.1210  140.6050 C   0  0  0  0  0  2  0  0  0  0  0  0
  187.5600  178.7770  141.3420 C   0  0  0  0  0  2  0  0  0  0  0  0
  182.4910  178.5490  139.5060 C   0  0  1  0  0  3  0  0  0  0  0  0
  187.6680  176.8120  138.6530 C   0  0  0  0  0  2  0  0  0  0  0  0
  182.2100  177.1290  138.9920 C   0  0  0  0  0  2  0  0  0  0  0  0
  186.8180  177.9500  138.0540 C   0  0  2  0  0  3  0  0  0  0  0  0
  185.8600  177.4640  136.9750 C   0  0  2  0  0  3  0  0  0  0  0  0
  187.7060  177.6350  143.9140 C   0  0  0  0  0  2  0  0  0  0  0  0
  189.1680  176.9220  138.3880 C   0  0  1  0  0  3  0  0  0  0  0  0
  186.2330  178.4640  142.0510 C   0  0  1  0  0  3  0  0  0  0  0  0
  184.7600  176.5660  137.5480 C   0  0  2  0  0  3  0  0  0  0  0  0
  183.8350  178.8950  139.3190 O   0  0  0  0  0  0  0  0  0  0  0  0
  189.9670  176.6990  139.6720 C   0  0  0  0  0  2  0  0  0  0  0  0
  189.7870  177.8480  140.6590 C   0  0  0  0  0  2  0  0  0  0  0  0
  188.9030  177.4010  142.9740 C   0  0  0  0  0  2  0  0  0  0  0  0
  180.0460  179.5210  139.0550 C   0  0  0  0  0  3  0  0  0  0  0  0
  180.6030  180.2240  136.8590 N   0  0  0  0  0  0  0  0  0  0  0  0
  182.1650  180.9580  138.5980 C   0  0  0  0  0  2  0  0  0  0  0  0
  181.8920  179.9560  137.4740 C   0  0  1  0  0  3  0  0  0  0  0  0
  179.4640  179.9670  137.7250 C   0  0  0  0  0  3  0  0  0  0  0  0
  181.5620  179.6030  138.9050 C   0  0  1  0  0  0  0  0  0  0  0  0
  180.4720  180.6700  135.5030 C   0  0  0  0  0  0  0  0  0  0  0  0
  179.8660  179.9160  134.5940 C   0  0  0  0  0  2  0  0  0  0  0  0
  181.0650  181.9660  135.0680 C   0  0  0  0  0  1  0  0  0  0  0  0
  189.5690  175.8730  137.3690 C   0  0  0  0  0  2  0  0  0  0  0  0
  190.7060  176.3100  136.6600 O   0  0  0  0  0  0  0  0  0  0  0  0
  190.3730  173.7830  137.0610 O   0  0  0  0  0  1  0  0  0  0  0  0
  190.9770  174.0310  135.8280 C   0  0  2  0  0  0  0  0  0  0  0  0
  189.7580  175.7790  134.6050 O   0  0  0  0  0  1  0  0  0  0  0  0
  193.0540  174.9180  135.0940 C   0  0  1  0  0  3  0  0  0  0  0  0
  192.5040  173.8550  135.9880 C   0  0  2  0  0  3  0  0  0  0  0  0
  190.8370  175.5450  135.4680 C   0  0  1  0  0  0  0  0  0  0  0  0
  192.1530  175.8490  134.8000 C   0  0  0  0  0  2  0  0  0  0  0  0
  193.8110  171.9370  136.8710 C   0  0  0  0  0  2  0  0  0  0  0  0
  194.5400  172.4750  135.6610 C   0  0  0  0  0  2  0  0  0  0  0  0
  193.0290  172.4530  135.6850 C   0  0  0  0  0  3  0  0  0  0  0  0
  194.4780  174.9870  134.6250 C   0  0  0  0  0  2  0  0  0  0  0  0
  196.5280  175.3790  135.3440 C   0  0  0  0  0  1  0  0  0  0  0  0
  195.2150  175.8310  135.4680 O   0  0  0  0  0  0  0  0  0  0  0  0
  190.3950  173.1350  134.8780 O   0  0  0  0  0  0  0  0  0  0  0  0
  188.0470  172.7740  135.2290 C   0  0  0  0  0  1  0  0  0  0  0  0
  189.5720  170.9010  134.7810 C   0  0  0  0  0  1  0  0  0  0  0  0
  189.4550  172.2540  135.4530 C   0  0  0  0  0  3  0  0  0  0  0  0
  4 11  1  0  0  0  0
  5  9  1  0  0  0  0
  5  4  2  0  0  0  0
  6 17  1  0  0  0  0
  7  6  1  0  0  0  0
  9  7  2  0  0  0  0
 10 20  1  0  0  0  0
 11  6  2  0  0  0  0
 11 23  1  0  0  0  0
 12 26  1  6  0  0  0
 12 27  1  0  0  0  0
 13  1  1  0  0  0  0
 14 12  1  0  0  0  0
 14 22  1  0  0  0  0
 15 17  1  6  0  0  0
 18  2  1  6  0  0  0
 18 16  1  0  0  0  0
 19  3  1  6  0  0  0
 19 23  1  0  0  0  0
 19 18  1  0  0  0  0
 21 37  1  6  0  0  0
 21 16  1  0  0  0  0
 21 25  1  0  0  0  0
 22  1  1  6  0  0  0
 22 10  1  0  0  0  0
 23  8  1  6  0  0  0
 24 15  1  0  0  0  0
 24 13  1  0  0  0  0
 25 26  1  0  0  0  0
 27 20  1  0  0  0  0
 29 31  1  0  0  0  0
 29 32  1  0  0  0  0
 31 30  1  1  0  0  0
 31 33  1  0  0  0  0
 32 28  2  0  0  0  0
 33 30  1  1  0  0  0
 33 28  1  0  0  0  0
 33 15  1  0  0  0  0
 34 29  1  0  0  0  0
 35 34  2  0  0  0  0
 36 34  1  0  0  0  0
 38 37  1  0  0  0  0
 40 43  1  0  0  0  0
 40 39  1  1  0  0  0
 42 49  1  1  0  0  0
 42 43  1  0  0  0  0
 43 48  1  6  0  0  0
 44 41  1  6  0  0  0
 44 40  1  0  0  0  0
 44 38  1  0  0  0  0
 45 42  1  0  0  0  0
 45 44  1  0  0  0  0
 47 48  1  0  0  0  0
 47 46  1  0  0  0  0
 48 46  1  0  0  0  0
 49 51  1  0  0  0  0
 50 51  1  0  0  0  0
 52 55  1  0  0  0  0
 52 40  1  0  0  0  0
 53 55  1  0  0  0  0
 54 55  1  0  0  0  0
M  END
>  <MODEL>
3

>  <REMARK>
 VINA RESULT:      -3.2      1.539      2.286
  Name = 
  10 active torsions:
  status: ('A' for Active; 'I' for Inactive)
    1  A    between atoms: C_6  and  O_46
    2  A    between atoms: C_8  and  O_22
    3  A    between atoms: C_8  and  C_43
    4  A    between atoms: C_10  and  N_32
    5  A    between atoms: C_12  and  C_30
    6  A    between atoms: C_14  and  C_38
    7  A    between atoms: C_20  and  O_22
    8  A    between atoms: C_30  and  O_50
    9  A    between atoms: C_33  and  C_52
   10  A    between atoms: O_46  and  C_53
                            x       y       z     vdW  Elec       q    Type
                         _______ _______ _______ _____ _____    ______ ____

>  <TORSDO>
F 10

$$$$
