=
 OpenBabel10262419393D

 31 34  0  0  1  0  0  0  0  0999 V2000
  191.8700  176.4360  146.9280 C   0  0  1  0  0  3  0  0  0  0  0  0
  189.5950  177.7120  144.1620 C   0  0  0  0  0  0  0  0  0  0  0  0
  190.3510  177.5930  142.8810 C   0  0  0  0  0  0  0  0  0  0  0  0
  192.3790  177.7570  141.5740 C   0  0  0  0  0  3  0  0  0  0  0  0
  190.1410  177.4910  145.3880 C   0  0  0  0  0  0  0  0  0  0  0  0
  190.5950  176.0100  147.6330 C   0  0  0  0  0  2  0  0  0  0  0  0
  191.7210  177.8730  142.7970 C   0  0  0  0  0  3  0  0  0  0  0  0
  187.2590  177.8740  145.2740 C   0  0  1  0  0  3  0  0  0  0  0  0
  192.7340  175.3620  146.8320 F   0  0  0  0  0  0  0  0  0  0  0  0
  188.1500  177.0390  141.7410 C   0  0  0  0  0  2  0  0  0  0  0  0
  191.6920  177.3860  140.4630 N   0  0  0  0  0  0  0  0  0  0  0  0
  187.8720  177.0250  146.3750 C   0  0  0  0  0  2  0  0  0  0  0  0
  188.0890  177.8220  143.9750 C   0  0  2  0  0  3  0  0  0  0  0  0
  191.5470  176.9580  145.5320 C   0  0  0  0  0  2  0  0  0  0  0  0
  189.6710  176.7430  139.2290 C   0  0  0  0  0  1  0  0  0  0  0  0
  189.2540  177.5980  146.6240 C   0  0  1  0  0  3  0  0  0  0  0  0
  189.8060  177.1510  147.8500 O   0  0  0  0  0  0  0  0  0  0  0  0
  187.6590  176.7420  143.0880 N   0  0  0  0  0  2  0  0  0  0  0  0
  189.6540  177.2220  141.7090 C   0  0  0  0  0  0  0  0  0  0  0  0
  190.3590  177.1230  140.4970 C   0  0  0  0  0  0  0  0  0  0  0  0
  185.7850  177.5450  145.0540 C   0  0  0  0  0  2  0  0  0  0  0  0
  185.1080  179.9030  145.0870 C   0  0  0  0  0  2  0  0  0  0  0  0
  185.0520  178.7160  144.4790 C   0  0  0  0  0  0  0  0  0  0  0  0
  183.0440  179.3450  143.3460 O   0  0  0  0  0  1  0  0  0  0  0  0
  184.1480  178.4880  143.3040 C   0  0  1  0  0  3  0  0  0  0  0  0
  185.7050  179.7520  141.9690 O   0  0  0  0  0  1  0  0  0  0  0  0
  184.9000  178.6100  141.9760 C   0  0  2  0  0  3  0  0  0  0  0  0
  183.9290  178.6670  140.8050 C   0  0  0  0  0  2  0  0  0  0  0  0
  184.5950  179.2340  139.5970 C   0  0  0  0  0  0  0  0  0  0  0  0
  185.6640  178.5660  139.0150 O   0  0  0  0  0  0  0  0  0  0  0  0
  184.1700  180.3030  139.0890 O   0  0  0  0  0  1  0  0  0  0  0  0
  1  9  1  6  0  0  0
  1  6  1  0  0  0  0
  2  5  2  0  0  0  0
  3  2  1  0  0  0  0
  4  7  2  0  0  0  0
  5 14  1  0  0  0  0
  5 16  1  0  0  0  0
  6 17  1  0  0  0  0
  7  3  1  0  0  0  0
  8 21  1  6  0  0  0
  8 12  1  0  0  0  0
 10 18  1  0  0  0  0
 11 20  2  0  0  0  0
 11  4  1  0  0  0  0
 13 18  1  6  0  0  0
 13  2  1  0  0  0  0
 13  8  1  0  0  0  0
 14  1  1  0  0  0  0
 15 20  1  0  0  0  0
 16 12  1  6  0  0  0
 16 17  1  0  0  0  0
 19 10  1  0  0  0  0
 19  3  2  0  0  0  0
 20 19  1  0  0  0  0
 23 21  1  0  0  0  0
 23 22  2  0  0  0  0
 25 24  1  6  0  0  0
 25 23  1  0  0  0  0
 27 26  1  1  0  0  0
 27 25  1  0  0  0  0
 28 27  1  0  0  0  0
 29 28  1  0  0  0  0
 30 29  2  0  0  0  0
 31 29  1  0  0  0  0
M  END
>  <MODEL>
1

>  <REMARK>
 VINA RESULT:      -8.9      0.000      0.000
  Name = 
  6 active torsions:
  status: ('A' for Active; 'I' for Inactive)
    1  A    between atoms: C_1  and  C_24
    2  A    between atoms: C_9  and  C_22
    3  A    between atoms: C_9  and  C_23
    4  A    between atoms: C_15  and  C_23
    5  A    between atoms: C_19  and  C_22
    6  A    between atoms: C_19  and  C_24
                            x       y       z     vdW  Elec       q    Type
                         _______ _______ _______ _____ _____    ______ ____

>  <TORSDO>
F 6

$$$$
=
 OpenBabel10262419393D

 31 34  0  0  1  0  0  0  0  0999 V2000
  191.8760  176.3250  146.7320 C   0  0  1  0  0  3  0  0  0  0  0  0
  189.6880  177.7150  143.9490 C   0  0  0  0  0  0  0  0  0  0  0  0
  190.4590  177.5860  142.6780 C   0  0  0  0  0  0  0  0  0  0  0  0
  192.5120  177.6970  141.4030 C   0  0  0  0  0  3  0  0  0  0  0  0
  190.2080  177.4600  145.1800 C   0  0  0  0  0  0  0  0  0  0  0  0
  190.5770  175.9350  147.4110 C   0  0  0  0  0  2  0  0  0  0  0  0
  191.8390  177.8200  142.6180 C   0  0  0  0  0  3  0  0  0  0  0  0
  187.3430  177.9430  145.0280 C   0  0  1  0  0  3  0  0  0  0  0  0
  192.7040  175.2240  146.6340 F   0  0  0  0  0  0  0  0  0  0  0  0
  188.2590  177.1230  141.4980 C   0  0  0  0  0  2  0  0  0  0  0  0
  191.8300  177.3640  140.2770 N   0  0  0  0  0  0  0  0  0  0  0  0
  187.9100  177.0600  146.1270 C   0  0  0  0  0  2  0  0  0  0  0  0
  188.1910  177.8790  143.7410 C   0  0  2  0  0  3  0  0  0  0  0  0
  191.5930  176.8760  145.3380 C   0  0  0  0  0  2  0  0  0  0  0  0
  189.8070  176.8070  139.0050 C   0  0  0  0  0  1  0  0  0  0  0  0
  189.3060  177.5810  146.4040 C   0  0  1  0  0  3  0  0  0  0  0  0
  189.8240  177.0990  147.6320 O   0  0  0  0  0  0  0  0  0  0  0  0
  187.7370  176.8250  142.8340 N   0  0  0  0  0  2  0  0  0  0  0  0
  189.7680  177.2540  141.4910 C   0  0  0  0  0  0  0  0  0  0  0  0
  190.4880  177.1470  140.2880 C   0  0  0  0  0  0  0  0  0  0  0  0
  185.8620  177.6680  144.7820 C   0  0  0  0  0  2  0  0  0  0  0  0
  184.9960  178.7110  146.8260 C   0  0  0  0  0  2  0  0  0  0  0  0
  185.0030  178.6660  145.4920 C   0  0  0  0  0  0  0  0  0  0  0  0
  184.7490  180.3190  143.7850 O   0  0  0  0  0  1  0  0  0  0  0  0
  184.0560  179.5000  144.6820 C   0  0  1  0  0  3  0  0  0  0  0  0
  183.4810  178.2460  142.7080 O   0  0  0  0  0  1  0  0  0  0  0  0
  183.0120  178.6410  143.9630 C   0  0  2  0  0  3  0  0  0  0  0  0
  181.7030  179.3990  143.8010 C   0  0  0  0  0  2  0  0  0  0  0  0
  180.6210  178.4840  143.3350 C   0  0  0  0  0  0  0  0  0  0  0  0
  180.3790  178.3310  141.9760 O   0  0  0  0  0  0  0  0  0  0  0  0
  179.9470  177.8310  144.1720 O   0  0  0  0  0  1  0  0  0  0  0  0
  1  9  1  6  0  0  0
  1  6  1  0  0  0  0
  2  5  2  0  0  0  0
  3  2  1  0  0  0  0
  4  7  2  0  0  0  0
  5 14  1  0  0  0  0
  5 16  1  0  0  0  0
  6 17  1  0  0  0  0
  7  3  1  0  0  0  0
  8 21  1  6  0  0  0
  8 12  1  0  0  0  0
 10 18  1  0  0  0  0
 11 20  2  0  0  0  0
 11  4  1  0  0  0  0
 13 18  1  6  0  0  0
 13  2  1  0  0  0  0
 13  8  1  0  0  0  0
 14  1  1  0  0  0  0
 15 20  1  0  0  0  0
 16 12  1  6  0  0  0
 16 17  1  0  0  0  0
 19 10  1  0  0  0  0
 19  3  2  0  0  0  0
 20 19  1  0  0  0  0
 21 23  1  0  0  0  0
 23 22  2  0  0  0  0
 25 24  1  6  0  0  0
 25 23  1  0  0  0  0
 27 26  1  6  0  0  0
 27 25  1  0  0  0  0
 28 27  1  0  0  0  0
 29 28  1  0  0  0  0
 29 31  1  0  0  0  0
 30 29  2  0  0  0  0
M  END
>  <MODEL>
2

>  <REMARK>
 VINA RESULT:      -8.2      1.684      2.274
  Name = 
  6 active torsions:
  status: ('A' for Active; 'I' for Inactive)
    1  A    between atoms: C_1  and  C_24
    2  A    between atoms: C_9  and  C_22
    3  A    between atoms: C_9  and  C_23
    4  A    between atoms: C_15  and  C_23
    5  A    between atoms: C_19  and  C_22
    6  A    between atoms: C_19  and  C_24
                            x       y       z     vdW  Elec       q    Type
                         _______ _______ _______ _____ _____    ______ ____

>  <TORSDO>
F 6

$$$$
=
 OpenBabel10262419393D

 31 34  0  0  1  0  0  0  0  0999 V2000
  190.5840  177.0160  146.5810 C   0  0  1  0  0  3  0  0  0  0  0  0
  187.7930  177.1840  144.0040 C   0  0  0  0  0  0  0  0  0  0  0  0
  186.5820  177.7080  144.7010 C   0  0  0  0  0  0  0  0  0  0  0  0
  185.1070  177.8410  146.6130 C   0  0  0  0  0  3  0  0  0  0  0  0
  188.9470  176.8460  144.6400 C   0  0  0  0  0  0  0  0  0  0  0  0
  191.5260  177.2730  145.4200 C   0  0  0  0  0  2  0  0  0  0  0  0
  186.2560  177.3310  146.0100 C   0  0  0  0  0  3  0  0  0  0  0  0
  188.9970  176.8640  141.7310 C   0  0  1  0  0  3  0  0  0  0  0  0
  190.8130  177.9380  147.5840 F   0  0  0  0  0  0  0  0  0  0  0  0
  185.9740  178.9060  142.5460 C   0  0  0  0  0  2  0  0  0  0  0  0
  184.2980  178.6910  145.9290 N   0  0  0  0  0  0  0  0  0  0  0  0
  190.2680  177.1400  142.5170 C   0  0  0  0  0  2  0  0  0  0  0  0
  187.7360  177.3250  142.4900 C   0  0  2  0  0  3  0  0  0  0  0  0
  189.1360  177.1200  146.1140 C   0  0  0  0  0  2  0  0  0  0  0  0
  183.6190  179.9870  143.9580 C   0  0  0  0  0  1  0  0  0  0  0  0
  190.1350  176.3650  143.8130 C   0  0  1  0  0  3  0  0  0  0  0  0
  191.3740  176.2340  144.4870 O   0  0  0  0  0  0  0  0  0  0  0  0
  187.3760  178.7060  142.1740 N   0  0  0  0  0  2  0  0  0  0  0  0
  185.7180  178.5830  144.0040 C   0  0  0  0  0  0  0  0  0  0  0  0
  184.5680  179.0670  144.6510 C   0  0  0  0  0  0  0  0  0  0  0  0
  189.0730  177.4140  140.3090 C   0  0  0  0  0  2  0  0  0  0  0  0
  191.5200  177.3830  140.1550 C   0  0  0  0  0  2  0  0  0  0  0  0
  190.3470  177.0070  139.6410 C   0  0  0  0  0  0  0  0  0  0  0  0
  190.6730  174.9700  138.4360 O   0  0  0  0  0  1  0  0  0  0  0  0
  190.2690  176.3030  138.3190 C   0  0  1  0  0  3  0  0  0  0  0  0
  188.4670  175.1780  137.1830 O   0  0  0  0  0  1  0  0  0  0  0  0
  188.8730  176.4110  137.6980 C   0  0  2  0  0  3  0  0  0  0  0  0
  188.8500  177.4550  136.5920 C   0  0  0  0  0  2  0  0  0  0  0  0
  188.2680  178.7350  137.0910 C   0  0  0  0  0  0  0  0  0  0  0  0
  186.8970  178.8470  137.2800 O   0  0  0  0  0  0  0  0  0  0  0  0
  189.0220  179.7030  137.3660 O   0  0  0  0  0  1  0  0  0  0  0  0
  1  9  1  1  0  0  0
  2  5  2  0  0  0  0
  2  3  1  0  0  0  0
  3  7  1  0  0  0  0
  5 14  1  0  0  0  0
  6  1  1  0  0  0  0
  7  4  2  0  0  0  0
  8 21  1  6  0  0  0
  8 13  1  0  0  0  0
  8 12  1  0  0  0  0
 10 19  1  0  0  0  0
 11  4  1  0  0  0  0
 13 18  1  1  0  0  0
 13  2  1  0  0  0  0
 14  1  1  0  0  0  0
 15 20  1  0  0  0  0
 16 12  1  6  0  0  0
 16 17  1  0  0  0  0
 16  5  1  0  0  0  0
 17  6  1  0  0  0  0
 18 10  1  0  0  0  0
 19 20  1  0  0  0  0
 19  3  2  0  0  0  0
 20 11  2  0  0  0  0
 23 22  2  0  0  0  0
 23 21  1  0  0  0  0
 25 24  1  1  0  0  0
 25 23  1  0  0  0  0
 27 26  1  6  0  0  0
 27 25  1  0  0  0  0
 28 29  1  0  0  0  0
 28 27  1  0  0  0  0
 29 30  2  0  0  0  0
 29 31  1  0  0  0  0
M  END
>  <MODEL>
3

>  <REMARK>
 VINA RESULT:      -8.1      2.482      5.661
  Name = 
  6 active torsions:
  status: ('A' for Active; 'I' for Inactive)
    1  A    between atoms: C_1  and  C_24
    2  A    between atoms: C_9  and  C_22
    3  A    between atoms: C_9  and  C_23
    4  A    between atoms: C_15  and  C_23
    5  A    between atoms: C_19  and  C_22
    6  A    between atoms: C_19  and  C_24
                            x       y       z     vdW  Elec       q    Type
                         _______ _______ _______ _____ _____    ______ ____

>  <TORSDO>
F 6

$$$$
=
 OpenBabel10262419393D

 31 34  0  0  1  0  0  0  0  0999 V2000
  191.3240  177.4070  144.4180 C   0  0  1  0  0  3  0  0  0  0  0  0
  187.8740  177.4400  142.8200 C   0  0  0  0  0  0  0  0  0  0  0  0
  186.8890  177.7220  143.9040 C   0  0  0  0  0  0  0  0  0  0  0  0
  186.0680  177.4640  146.1650 C   0  0  0  0  0  3  0  0  0  0  0  0
  189.1960  177.2030  143.0370 C   0  0  0  0  0  0  0  0  0  0  0  0
  191.8320  177.9030  143.0770 C   0  0  0  0  0  2  0  0  0  0  0  0
  187.0210  177.1780  145.1890 C   0  0  0  0  0  3  0  0  0  0  0  0
  188.3460  177.5110  140.2720 C   0  0  1  0  0  3  0  0  0  0  0  0
  191.7550  178.2500  145.4240 F   0  0  0  0  0  0  0  0  0  0  0  0
  185.5290  179.0280  142.2040 C   0  0  0  0  0  2  0  0  0  0  0  0
  185.0060  178.2570  145.8690 N   0  0  0  0  0  0  0  0  0  0  0  0
  189.7620  177.8820  140.6800 C   0  0  0  0  0  2  0  0  0  0  0  0
  187.3400  177.7180  141.4220 C   0  0  2  0  0  3  0  0  0  0  0  0
  189.8000  177.3560  144.4150 C   0  0  0  0  0  2  0  0  0  0  0  0
  183.6260  179.6320  144.3770 C   0  0  0  0  0  1  0  0  0  0  0  0
  190.1140  176.9730  141.8420 C   0  0  1  0  0  3  0  0  0  0  0  0
  191.5070  176.9480  142.1000 O   0  0  0  0  0  0  0  0  0  0  0  0
  186.7620  179.0610  141.4140 N   0  0  0  0  0  2  0  0  0  0  0  0
  185.7690  178.5330  143.6150 C   0  0  0  0  0  0  0  0  0  0  0  0
  184.8300  178.7890  144.6310 C   0  0  0  0  0  0  0  0  0  0  0  0
  187.9250  178.2020  138.9780 C   0  0  0  0  0  2  0  0  0  0  0  0
  189.1130  178.7890  136.9140 C   0  0  0  0  0  2  0  0  0  0  0  0
  188.8700  177.8830  137.8640 C   0  0  0  0  0  0  0  0  0  0  0  0
  188.5640  175.6720  137.0100 O   0  0  0  0  0  1  0  0  0  0  0  0
  189.4130  176.4880  137.7630 C   0  0  1  0  0  3  0  0  0  0  0  0
  190.8810  175.8200  135.9730 O   0  0  0  0  0  1  0  0  0  0  0  0
  190.8400  176.4730  137.2080 C   0  0  2  0  0  3  0  0  0  0  0  0
  191.7920  175.7860  138.1760 C   0  0  0  0  0  2  0  0  0  0  0  0
  193.0910  176.5150  138.2420 C   0  0  0  0  0  0  0  0  0  0  0  0
  193.8580  176.6720  137.0960 O   0  0  0  0  0  0  0  0  0  0  0  0
  193.4780  177.0120  139.3310 O   0  0  0  0  0  1  0  0  0  0  0  0
  1  9  1  1  0  0  0
  2  5  2  0  0  0  0
  2  3  1  0  0  0  0
  3  7  1  0  0  0  0
  5 14  1  0  0  0  0
  6  1  1  0  0  0  0
  7  4  2  0  0  0  0
  8 21  1  6  0  0  0
  8 12  1  0  0  0  0
  8 13  1  0  0  0  0
 10 19  1  0  0  0  0
 11  4  1  0  0  0  0
 13 18  1  1  0  0  0
 13  2  1  0  0  0  0
 14  1  1  0  0  0  0
 15 20  1  0  0  0  0
 16 12  1  6  0  0  0
 16 17  1  0  0  0  0
 16  5  1  0  0  0  0
 17  6  1  0  0  0  0
 18 10  1  0  0  0  0
 19  3  2  0  0  0  0
 19 20  1  0  0  0  0
 20 11  2  0  0  0  0
 22 23  2  0  0  0  0
 23 21  1  0  0  0  0
 25 24  1  6  0  0  0
 25 23  1  0  0  0  0
 27 26  1  6  0  0  0
 27 25  1  0  0  0  0
 27 28  1  0  0  0  0
 28 29  1  0  0  0  0
 29 31  1  0  0  0  0
 30 29  2  0  0  0  0
M  END
>  <MODEL>
4

>  <REMARK>
 VINA RESULT:      -8.1      3.311      6.557
  Name = 
  6 active torsions:
  status: ('A' for Active; 'I' for Inactive)
    1  A    between atoms: C_1  and  C_24
    2  A    between atoms: C_9  and  C_22
    3  A    between atoms: C_9  and  C_23
    4  A    between atoms: C_15  and  C_23
    5  A    between atoms: C_19  and  C_22
    6  A    between atoms: C_19  and  C_24
                            x       y       z     vdW  Elec       q    Type
                         _______ _______ _______ _____ _____    ______ ____

>  <TORSDO>
F 6

$$$$
=
 OpenBabel10262419393D

 31 34  0  0  1  0  0  0  0  0999 V2000
  187.9940  177.1700  137.3800 C   0  0  1  0  0  3  0  0  0  0  0  0
  186.5180  178.6380  140.5620 C   0  0  0  0  0  0  0  0  0  0  0  0
  185.0680  178.8780  140.3040 C   0  0  0  0  0  0  0  0  0  0  0  0
  183.2370  179.5760  138.8840 C   0  0  0  0  0  3  0  0  0  0  0  0
  187.4060  178.2580  139.6040 C   0  0  0  0  0  0  0  0  0  0  0  0
  188.9620  176.4420  138.2930 C   0  0  0  0  0  2  0  0  0  0  0  0
  184.6010  179.3570  139.0720 C   0  0  0  0  0  3  0  0  0  0  0  0
  188.3480  178.2530  142.3570 C   0  0  1  0  0  3  0  0  0  0  0  0
  187.3690  176.2660  136.5420 F   0  0  0  0  0  0  0  0  0  0  0  0
  184.6280  178.2600  142.7270 C   0  0  0  0  0  2  0  0  0  0  0  0
  182.3630  179.3380  139.8970 N   0  0  0  0  0  0  0  0  0  0  0  0
  188.9530  177.2980  141.3420 C   0  0  0  0  0  2  0  0  0  0  0  0
  186.8720  178.5730  142.0400 C   0  0  2  0  0  3  0  0  0  0  0  0
  186.9460  177.9060  138.2080 C   0  0  0  0  0  2  0  0  0  0  0  0
  181.7580  178.6760  142.1810 C   0  0  0  0  0  1  0  0  0  0  0  0
  188.8550  177.9960  139.9990 C   0  0  1  0  0  3  0  0  0  0  0  0
  189.6880  177.3980  139.0220 O   0  0  0  0  0  0  0  0  0  0  0  0
  185.9540  177.6390  142.6890 N   0  0  0  0  0  2  0  0  0  0  0  0
  184.1420  178.6520  141.3460 C   0  0  0  0  0  0  0  0  0  0  0  0
  182.7760  178.8920  141.1120 C   0  0  0  0  0  0  0  0  0  0  0  0
  188.5600  177.7730  143.7900 C   0  0  0  0  0  2  0  0  0  0  0  0
  190.6910  178.9870  143.8070 C   0  0  0  0  0  2  0  0  0  0  0  0
  189.9900  177.9220  144.2020 C   0  0  0  0  0  0  0  0  0  0  0  0
  191.8500  176.4280  144.3240 O   0  0  0  0  0  1  0  0  0  0  0  0
  190.6460  176.7900  144.9350 C   0  0  1  0  0  3  0  0  0  0  0  0
  192.0510  176.5770  146.8800 O   0  0  0  0  0  1  0  0  0  0  0  0
  190.8460  177.1120  146.4180 C   0  0  2  0  0  3  0  0  0  0  0  0
  189.6960  176.5660  147.2520 C   0  0  0  0  0  2  0  0  0  0  0  0
  188.8240  177.6750  147.7350 C   0  0  0  0  0  0  0  0  0  0  0  0
  187.5730  177.8730  147.1650 O   0  0  0  0  0  0  0  0  0  0  0  0
  189.2090  178.4130  148.6770 O   0  0  0  0  0  1  0  0  0  0  0  0
  1  9  1  6  0  0  0
  1 14  1  0  0  0  0
  1  6  1  0  0  0  0
  3  2  1  0  0  0  0
  3 19  1  0  0  0  0
  4  7  1  0  0  0  0
  4 11  2  0  0  0  0
  5 16  1  0  0  0  0
  5  2  2  0  0  0  0
  6 17  1  0  0  0  0
  7  3  2  0  0  0  0
  8 21  1  1  0  0  0
 11 20  1  0  0  0  0
 12  8  1  0  0  0  0
 13  2  1  6  0  0  0
 13  8  1  0  0  0  0
 13 18  1  0  0  0  0
 14  5  1  0  0  0  0
 16 12  1  1  0  0  0
 17 16  1  0  0  0  0
 18 10  1  0  0  0  0
 19 10  1  0  0  0  0
 20 19  2  0  0  0  0
 20 15  1  0  0  0  0
 21 23  1  0  0  0  0
 22 23  2  0  0  0  0
 23 25  1  0  0  0  0
 25 24  1  6  0  0  0
 25 27  1  0  0  0  0
 27 26  1  1  0  0  0
 27 28  1  0  0  0  0
 28 29  1  0  0  0  0
 29 31  1  0  0  0  0
 30 29  2  0  0  0  0
M  END
>  <MODEL>
5

>  <REMARK>
 VINA RESULT:      -8.1      3.405      7.630
  Name = 
  6 active torsions:
  status: ('A' for Active; 'I' for Inactive)
    1  A    between atoms: C_1  and  C_24
    2  A    between atoms: C_9  and  C_22
    3  A    between atoms: C_9  and  C_23
    4  A    between atoms: C_15  and  C_23
    5  A    between atoms: C_19  and  C_22
    6  A    between atoms: C_19  and  C_24
                            x       y       z     vdW  Elec       q    Type
                         _______ _______ _______ _____ _____    ______ ____

>  <TORSDO>
F 6

$$$$
=
 OpenBabel10262419393D

 31 34  0  0  1  0  0  0  0  0999 V2000
  188.7770  176.7300  137.3260 C   0  0  1  0  0  3  0  0  0  0  0  0
  187.7220  178.2070  140.6670 C   0  0  0  0  0  0  0  0  0  0  0  0
  186.2650  178.5170  140.5710 C   0  0  0  0  0  0  0  0  0  0  0  0
  184.3260  179.3190  139.3680 C   0  0  0  0  0  3  0  0  0  0  0  0
  188.4830  177.8050  139.6140 C   0  0  0  0  0  0  0  0  0  0  0  0
  189.8040  175.9440  138.1200 C   0  0  0  0  0  2  0  0  0  0  0  0
  185.6910  179.0360  139.4040 C   0  0  0  0  0  3  0  0  0  0  0  0
  189.7160  177.7110  142.2480 C   0  0  1  0  0  3  0  0  0  0  0  0
  188.0240  175.8690  136.5510 F   0  0  0  0  0  0  0  0  0  0  0  0
  186.0620  177.8780  143.0200 C   0  0  0  0  0  2  0  0  0  0  0  0
  183.5570  179.1030  140.4660 N   0  0  0  0  0  0  0  0  0  0  0  0
  190.1640  176.7480  141.1620 C   0  0  0  0  0  2  0  0  0  0  0  0
  188.2310  178.1020  142.0970 C   0  0  2  0  0  3  0  0  0  0  0  0
  187.8600  177.4980  138.2720 C   0  0  0  0  0  2  0  0  0  0  0  0
  183.1720  178.4300  142.7950 C   0  0  0  0  0  1  0  0  0  0  0  0
  189.9530  177.4720  139.8460 C   0  0  1  0  0  3  0  0  0  0  0  0
  190.6470  176.8540  138.7770 O   0  0  0  0  0  0  0  0  0  0  0  0
  187.3460  177.1990  142.8310 N   0  0  0  0  0  2  0  0  0  0  0  0
  185.4480  178.3140  141.7060 C   0  0  0  0  0  0  0  0  0  0  0  0
  184.0780  178.6180  141.6240 C   0  0  0  0  0  0  0  0  0  0  0  0
  190.0590  177.1990  143.6440 C   0  0  0  0  0  2  0  0  0  0  0  0
  190.9310  179.3780  144.3550 C   0  0  0  0  0  2  0  0  0  0  0  0
  190.1560  178.3250  144.6230 C   0  0  0  0  0  0  0  0  0  0  0  0
  188.0950  178.2550  145.8310 O   0  0  0  0  0  1  0  0  0  0  0  0
  189.4850  178.1740  145.9560 C   0  0  1  0  0  3  0  0  0  0  0  0
  188.8630  176.3840  147.4430 O   0  0  0  0  0  1  0  0  0  0  0  0
  189.9090  176.8840  146.6630 C   0  0  2  0  0  3  0  0  0  0  0  0
  191.1280  177.1220  147.5420 C   0  0  0  0  0  2  0  0  0  0  0  0
  192.1070  176.0070  147.3950 C   0  0  0  0  0  0  0  0  0  0  0  0
  192.8890  175.6220  148.4760 O   0  0  0  0  0  1  0  0  0  0  0  0
  192.2040  175.3950  146.3000 O   0  0  0  0  0  0  0  0  0  0  0  0
  1  9  1  1  0  0  0
  1  6  1  0  0  0  0
  1 14  1  0  0  0  0
  3  2  1  0  0  0  0
  3 19  1  0  0  0  0
  4  7  1  0  0  0  0
  4 11  2  0  0  0  0
  5 16  1  0  0  0  0
  5  2  2  0  0  0  0
  6 17  1  0  0  0  0
  7  3  2  0  0  0  0
  8 21  1  1  0  0  0
 11 20  1  0  0  0  0
 12  8  1  0  0  0  0
 13  2  1  6  0  0  0
 13  8  1  0  0  0  0
 13 18  1  0  0  0  0
 14  5  1  0  0  0  0
 16 12  1  1  0  0  0
 17 16  1  0  0  0  0
 18 10  1  0  0  0  0
 19 10  1  0  0  0  0
 20 19  2  0  0  0  0
 20 15  1  0  0  0  0
 21 23  1  0  0  0  0
 22 23  2  0  0  0  0
 23 25  1  0  0  0  0
 25 24  1  6  0  0  0
 25 27  1  0  0  0  0
 27 26  1  1  0  0  0
 27 28  1  0  0  0  0
 29 28  1  0  0  0  0
 29 30  1  0  0  0  0
 31 29  2  0  0  0  0
M  END
>  <MODEL>
6

>  <REMARK>
 VINA RESULT:      -7.9      3.352      7.471
  Name = 
  6 active torsions:
  status: ('A' for Active; 'I' for Inactive)
    1  A    between atoms: C_1  and  C_24
    2  A    between atoms: C_9  and  C_22
    3  A    between atoms: C_9  and  C_23
    4  A    between atoms: C_15  and  C_23
    5  A    between atoms: C_19  and  C_22
    6  A    between atoms: C_19  and  C_24
                            x       y       z     vdW  Elec       q    Type
                         _______ _______ _______ _____ _____    ______ ____

>  <TORSDO>
F 6

$$$$
=
 OpenBabel10262419393D

 31 34  0  0  1  0  0  0  0  0999 V2000
  179.8010  179.2890  141.4730 C   0  0  1  0  0  3  0  0  0  0  0  0
  183.4370  178.1740  141.4730 C   0  0  0  0  0  0  0  0  0  0  0  0
  183.8160  177.9110  140.0540 C   0  0  0  0  0  0  0  0  0  0  0  0
  183.3410  177.0700  137.8360 C   0  0  0  0  0  3  0  0  0  0  0  0
  182.1680  178.4470  141.8810 C   0  0  0  0  0  0  0  0  0  0  0  0
  180.1650  180.1080  142.6970 C   0  0  0  0  0  2  0  0  0  0  0  0
  182.9350  177.3040  139.1490 C   0  0  0  0  0  3  0  0  0  0  0  0
  184.2840  178.7450  143.8550 C   0  0  1  0  0  3  0  0  0  0  0  0
  179.2050  180.0990  140.5250 F   0  0  0  0  0  0  0  0  0  0  0  0
  186.1350  178.7860  140.6070 C   0  0  0  0  0  2  0  0  0  0  0  0
  184.5930  177.4170  137.4380 N   0  0  0  0  0  0  0  0  0  0  0  0
  183.0210  179.5840  143.9580 C   0  0  0  0  0  2  0  0  0  0  0  0
  184.6280  178.3960  142.3920 C   0  0  2  0  0  3  0  0  0  0  0  0
  181.0520  178.6480  140.8810 C   0  0  0  0  0  2  0  0  0  0  0  0
  186.8480  178.3210  137.7820 C   0  0  0  0  0  1  0  0  0  0  0  0
  181.9120  178.7460  143.3540 C   0  0  1  0  0  3  0  0  0  0  0  0
  180.6260  179.2350  143.6950 O   0  0  0  0  0  0  0  0  0  0  0  0
  185.4990  179.3970  141.7770 N   0  0  0  0  0  2  0  0  0  0  0  0
  185.1170  178.2500  139.6210 C   0  0  0  0  0  0  0  0  0  0  0  0
  185.4840  177.9890  138.2890 C   0  0  0  0  0  0  0  0  0  0  0  0
  185.4520  179.3750  144.6090 C   0  0  0  0  0  2  0  0  0  0  0  0
  184.8930  178.2540  146.7180 C   0  0  0  0  0  2  0  0  0  0  0  0
  185.8210  178.5610  145.8090 C   0  0  0  0  0  0  0  0  0  0  0  0
  187.4080  177.2250  146.9940 O   0  0  0  0  0  1  0  0  0  0  0  0
  187.2660  178.2310  146.0340 C   0  0  1  0  0  3  0  0  0  0  0  0
  187.5300  176.6200  144.2620 O   0  0  0  0  0  1  0  0  0  0  0  0
  187.9750  177.8600  144.7280 C   0  0  2  0  0  3  0  0  0  0  0  0
  189.4830  177.8180  144.9220 C   0  0  0  0  0  2  0  0  0  0  0  0
  190.1840  178.2970  143.6960 C   0  0  0  0  0  0  0  0  0  0  0  0
  189.5510  178.2260  142.4620 O   0  0  0  0  0  0  0  0  0  0  0  0
  191.3370  178.7910  143.7840 O   0  0  0  0  0  1  0  0  0  0  0  0
  1  9  1  6  0  0  0
  1  6  1  0  0  0  0
  2  5  2  0  0  0  0
  3  2  1  0  0  0  0
  4  7  1  0  0  0  0
  5 16  1  0  0  0  0
  6 17  1  0  0  0  0
  7  3  2  0  0  0  0
  8 12  1  0  0  0  0
  8 21  1  6  0  0  0
 10 18  1  0  0  0  0
 11  4  2  0  0  0  0
 11 20  1  0  0  0  0
 13  2  1  6  0  0  0
 13  8  1  0  0  0  0
 14  1  1  0  0  0  0
 14  5  1  0  0  0  0
 15 20  1  0  0  0  0
 16 17  1  0  0  0  0
 16 12  1  6  0  0  0
 18 13  1  0  0  0  0
 19  3  1  0  0  0  0
 19 10  1  0  0  0  0
 20 19  2  0  0  0  0
 21 23  1  0  0  0  0
 23 25  1  0  0  0  0
 23 22  2  0  0  0  0
 25 24  1  1  0  0  0
 27 26  1  1  0  0  0
 27 28  1  0  0  0  0
 27 25  1  0  0  0  0
 29 31  1  0  0  0  0
 29 28  1  0  0  0  0
 30 29  2  0  0  0  0
M  END
>  <MODEL>
7

>  <REMARK>
 VINA RESULT:      -7.7      3.971      7.532
  Name = 
  6 active torsions:
  status: ('A' for Active; 'I' for Inactive)
    1  A    between atoms: C_1  and  C_24
    2  A    between atoms: C_9  and  C_22
    3  A    between atoms: C_9  and  C_23
    4  A    between atoms: C_15  and  C_23
    5  A    between atoms: C_19  and  C_22
    6  A    between atoms: C_19  and  C_24
                            x       y       z     vdW  Elec       q    Type
                         _______ _______ _______ _____ _____    ______ ____

>  <TORSDO>
F 6

$$$$
=
 OpenBabel10262419393D

 31 34  0  0  1  0  0  0  0  0999 V2000
  187.3620  177.7560  138.2780 C   0  0  1  0  0  3  0  0  0  0  0  0
  188.0120  178.1920  141.9990 C   0  0  0  0  0  0  0  0  0  0  0  0
  186.6930  178.4390  142.6500 C   0  0  0  0  0  0  0  0  0  0  0  0
  184.4910  179.4410  142.7050 C   0  0  0  0  0  3  0  0  0  0  0  0
  188.1950  178.1380  140.6520 C   0  0  0  0  0  0  0  0  0  0  0  0
  188.5680  176.8360  138.2850 C   0  0  0  0  0  2  0  0  0  0  0  0
  185.7040  179.2310  142.0510 C   0  0  0  0  0  3  0  0  0  0  0  0
  190.4530  177.3820  142.3240 C   0  0  1  0  0  3  0  0  0  0  0  0
  186.2780  177.1060  137.7190 F   0  0  0  0  0  0  0  0  0  0  0  0
  187.5430  177.1370  144.6570 C   0  0  0  0  0  2  0  0  0  0  0  0
  184.2720  178.8890  143.9270 N   0  0  0  0  0  0  0  0  0  0  0  0
  190.2970  176.7820  140.9370 C   0  0  0  0  0  2  0  0  0  0  0  0
  189.0910  177.7220  142.9630 C   0  0  2  0  0  3  0  0  0  0  0  0
  187.0210  178.1830  139.7020 C   0  0  0  0  0  2  0  0  0  0  0  0
  184.9040  177.5780  145.9030 C   0  0  0  0  0  1  0  0  0  0  0  0
  189.5850  177.8310  140.1050 C   0  0  1  0  0  3  0  0  0  0  0  0
  189.6840  177.5700  138.7160 O   0  0  0  0  0  0  0  0  0  0  0  0
  188.5530  176.6050  143.7390 N   0  0  0  0  0  2  0  0  0  0  0  0
  186.4480  177.8880  143.9270 C   0  0  0  0  0  0  0  0  0  0  0  0
  185.2110  178.1310  144.5510 C   0  0  0  0  0  0  0  0  0  0  0  0
  191.3360  176.5210  143.2230 C   0  0  0  0  0  2  0  0  0  0  0  0
  191.9460  178.3810  144.7010 C   0  0  0  0  0  2  0  0  0  0  0  0
  191.4850  177.1340  144.5790 C   0  0  0  0  0  0  0  0  0  0  0  0
  192.3120  175.3930  145.9910 O   0  0  0  0  0  1  0  0  0  0  0  0
  191.2460  176.2740  145.7840 C   0  0  1  0  0  3  0  0  0  0  0  0
  191.9850  176.9570  147.9730 O   0  0  0  0  0  1  0  0  0  0  0  0
  190.9620  177.1110  147.0340 C   0  0  2  0  0  3  0  0  0  0  0  0
  189.6330  176.7170  147.6620 C   0  0  0  0  0  2  0  0  0  0  0  0
  188.9290  177.9170  148.1990 C   0  0  0  0  0  0  0  0  0  0  0  0
  187.6540  178.2320  147.7520 O   0  0  0  0  0  0  0  0  0  0  0  0
  189.4800  178.6260  149.0800 O   0  0  0  0  0  1  0  0  0  0  0  0
  1  9  1  1  0  0  0
  1  6  1  0  0  0  0
  1 14  1  0  0  0  0
  2  3  1  0  0  0  0
  3 19  1  0  0  0  0
  4 11  2  0  0  0  0
  5  2  2  0  0  0  0
  6 17  1  0  0  0  0
  7  3  2  0  0  0  0
  7  4  1  0  0  0  0
  8 13  1  0  0  0  0
  8 21  1  1  0  0  0
 11 20  1  0  0  0  0
 12  8  1  0  0  0  0
 13  2  1  6  0  0  0
 13 18  1  0  0  0  0
 14  5  1  0  0  0  0
 16  5  1  0  0  0  0
 16 12  1  1  0  0  0
 17 16  1  0  0  0  0
 18 10  1  0  0  0  0
 19 20  2  0  0  0  0
 19 10  1  0  0  0  0
 20 15  1  0  0  0  0
 21 23  1  0  0  0  0
 23 22  2  0  0  0  0
 23 25  1  0  0  0  0
 25 24  1  1  0  0  0
 25 27  1  0  0  0  0
 27 28  1  0  0  0  0
 27 26  1  1  0  0  0
 28 29  1  0  0  0  0
 29 31  1  0  0  0  0
 30 29  2  0  0  0  0
M  END
>  <MODEL>
8

>  <REMARK>
 VINA RESULT:      -7.6      3.250      7.516
  Name = 
  6 active torsions:
  status: ('A' for Active; 'I' for Inactive)
    1  A    between atoms: C_1  and  C_24
    2  A    between atoms: C_9  and  C_22
    3  A    between atoms: C_9  and  C_23
    4  A    between atoms: C_15  and  C_23
    5  A    between atoms: C_19  and  C_22
    6  A    between atoms: C_19  and  C_24
                            x       y       z     vdW  Elec       q    Type
                         _______ _______ _______ _____ _____    ______ ____

>  <TORSDO>
F 6

$$$$
=
 OpenBabel10262419393D

 31 34  0  0  1  0  0  0  0  0999 V2000
  182.4920  178.0100  140.1610 C   0  0  1  0  0  3  0  0  0  0  0  0
  185.6960  178.7160  142.0820 C   0  0  0  0  0  0  0  0  0  0  0  0
  185.3610  178.6530  143.5350 C   0  0  0  0  0  0  0  0  0  0  0  0
  183.8960  179.0840  145.4100 C   0  0  0  0  0  3  0  0  0  0  0  0
  184.7700  178.6640  141.0870 C   0  0  0  0  0  0  0  0  0  0  0  0
  183.3900  177.4150  139.0930 C   0  0  0  0  0  2  0  0  0  0  0  0
  184.1570  179.1570  144.0430 C   0  0  0  0  0  3  0  0  0  0  0  0
  187.5680  178.5420  140.2970 C   0  0  1  0  0  3  0  0  0  0  0  0
  181.5200  177.0960  140.5200 F   0  0  0  0  0  0  0  0  0  0  0  0
  187.6680  177.6660  143.9300 C   0  0  0  0  0  2  0  0  0  0  0  0
  184.8120  178.5360  146.2510 N   0  0  0  0  0  0  0  0  0  0  0  0
  186.5040  177.8760  139.4400 C   0  0  0  0  0  2  0  0  0  0  0  0
  187.1810  178.5570  141.7900 C   0  0  2  0  0  3  0  0  0  0  0  0
  183.3150  178.3870  141.3880 C   0  0  0  0  0  2  0  0  0  0  0  0
  186.9630  177.4870  146.7900 C   0  0  0  0  0  1  0  0  0  0  0  0
  185.2390  178.6900  139.6370 C   0  0  1  0  0  3  0  0  0  0  0  0
  184.2670  178.4160  138.6430 O   0  0  0  0  0  0  0  0  0  0  0  0
  187.6600  177.3690  142.4960 N   0  0  0  0  0  2  0  0  0  0  0  0
  186.3050  178.1010  144.4300 C   0  0  0  0  0  0  0  0  0  0  0  0
  186.0000  178.0530  145.8020 C   0  0  0  0  0  0  0  0  0  0  0  0
  188.9540  177.9550  140.0450 C   0  0  0  0  0  2  0  0  0  0  0  0
  189.0930  178.9670  137.8160 C   0  0  0  0  0  2  0  0  0  0  0  0
  189.2520  177.8860  138.5810 C   0  0  0  0  0  0  0  0  0  0  0  0
  188.5340  176.0780  137.1940 O   0  0  0  0  0  1  0  0  0  0  0  0
  189.5870  176.5520  137.9810 C   0  0  1  0  0  3  0  0  0  0  0  0
  190.6860  176.2260  135.8620 O   0  0  0  0  0  1  0  0  0  0  0  0
  190.8980  176.5970  137.1920 C   0  0  2  0  0  3  0  0  0  0  0  0
  191.9380  175.6770  137.8150 C   0  0  0  0  0  2  0  0  0  0  0  0
  193.2210  176.4060  138.0350 C   0  0  0  0  0  0  0  0  0  0  0  0
  193.4660  177.0300  139.2510 O   0  0  0  0  0  1  0  0  0  0  0  0
  194.0920  176.4300  137.1280 O   0  0  0  0  0  0  0  0  0  0  0  0
  1  9  1  1  0  0  0
  1 14  1  0  0  0  0
  2  3  1  0  0  0  0
  3  7  2  0  0  0  0
  3 19  1  0  0  0  0
  4 11  2  0  0  0  0
  5 14  1  0  0  0  0
  5  2  2  0  0  0  0
  6  1  1  0  0  0  0
  7  4  1  0  0  0  0
  8 21  1  1  0  0  0
  8 13  1  0  0  0  0
 10 19  1  0  0  0  0
 12  8  1  0  0  0  0
 13  2  1  6  0  0  0
 13 18  1  0  0  0  0
 16 12  1  1  0  0  0
 16  5  1  0  0  0  0
 17  6  1  0  0  0  0
 17 16  1  0  0  0  0
 18 10  1  0  0  0  0
 19 20  2  0  0  0  0
 20 11  1  0  0  0  0
 20 15  1  0  0  0  0
 22 23  2  0  0  0  0
 23 21  1  0  0  0  0
 25 24  1  6  0  0  0
 25 23  1  0  0  0  0
 27 26  1  6  0  0  0
 27 28  1  0  0  0  0
 27 25  1  0  0  0  0
 28 29  1  0  0  0  0
 29 30  1  0  0  0  0
 31 29  2  0  0  0  0
M  END
>  <MODEL>
9

>  <REMARK>
 VINA RESULT:      -7.5      3.880      8.097
  Name = 
  6 active torsions:
  status: ('A' for Active; 'I' for Inactive)
    1  A    between atoms: C_1  and  C_24
    2  A    between atoms: C_9  and  C_22
    3  A    between atoms: C_9  and  C_23
    4  A    between atoms: C_15  and  C_23
    5  A    between atoms: C_19  and  C_22
    6  A    between atoms: C_19  and  C_24
                            x       y       z     vdW  Elec       q    Type
                         _______ _______ _______ _____ _____    ______ ____

>  <TORSDO>
F 6

$$$$
