=
 OpenBabel10262423193D

 34 38  0  0  1  0  0  0  0  0999 V2000
  183.1850  179.0860  142.7090 C   0  0  2  0  0  3  0  0  0  0  0  0
  184.2160  177.8240  139.2600 C   0  0  0  0  0  3  0  0  0  0  0  0
  182.0500  177.5220  140.4690 C   0  0  0  0  0  2  0  0  0  0  0  0
  180.8440  179.7690  143.3030 C   0  0  0  0  0  3  0  0  0  0  0  0
  178.9310  178.9970  142.0360 C   0  0  0  0  0  3  0  0  0  0  0  0
  179.4620  179.7390  143.0940 C   0  0  0  0  0  3  0  0  0  0  0  0
  181.1630  178.3190  141.3800 C   0  0  0  0  0  0  0  0  0  0  0  0
  181.7000  179.0580  142.4550 C   0  0  0  0  0  0  0  0  0  0  0  0
  179.7800  178.2870  141.1830 C   0  0  0  0  0  3  0  0  0  0  0  0
  185.5350  178.2930  139.1750 C   0  0  0  0  0  0  0  0  0  0  0  0
  186.0750  179.0150  140.2470 C   0  0  0  0  0  3  0  0  0  0  0  0
  183.4400  178.0840  140.3920 C   0  0  0  0  0  0  0  0  0  0  0  0
  185.3090  179.2720  141.3860 C   0  0  0  0  0  3  0  0  0  0  0  0
  183.9910  178.8120  141.4660 C   0  0  0  0  0  0  0  0  0  0  0  0
  185.9600  176.9760  136.9930 C   0  0  0  0  0  1  0  0  0  0  0  0
  187.3870  178.7110  137.7490 O   0  0  0  0  0  0  0  0  0  0  0  0
  186.3480  178.0320  137.9700 C   0  0  0  0  0  0  0  0  0  0  0  0
  183.5890  178.1890  143.8880 C   0  0  0  0  0  2  0  0  0  0  0  0
  184.0060  178.9670  145.1320 C   0  0  0  0  0  2  0  0  0  0  0  0
  187.8800  177.4030  146.9120 C   0  0  0  0  0  2  0  0  0  0  0  0
  185.9620  177.5140  144.6970 C   0  0  0  0  0  2  0  0  0  0  0  0
  190.2440  177.2440  143.8230 C   0  0  2  0  0  0  0  0  0  0  0  0
  190.1130  175.8670  143.6280 O   0  0  0  0  0  1  0  0  0  0  0  0
  189.8190  177.5900  145.2510 C   0  0  0  0  0  2  0  0  0  0  0  0
  188.3300  177.5040  145.4800 C   0  0  0  0  0  0  0  0  0  0  0  0
  185.4760  178.7460  145.4440 C   0  0  2  0  0  3  0  0  0  0  0  0
  187.8860  177.5880  143.0160 C   0  0  0  0  0  2  0  0  0  0  0  0
  187.4410  177.5840  144.4570 C   0  0  0  0  0  0  0  0  0  0  0  0
  189.3470  177.9990  142.8410 C   0  0  0  0  0  2  0  0  0  0  0  0
  185.6600  178.5680  146.9470 C   0  0  0  0  0  2  0  0  0  0  0  0
  187.1260  178.6520  147.3480 C   0  0  0  0  0  2  0  0  0  0  0  0
  191.7120  177.6350  143.6250 C   0  0  0  0  0  3  0  0  0  0  0  0
  191.9670  178.9180  144.1160 O   0  0  0  0  0  1  0  0  0  0  0  0
  192.0650  177.5720  142.2750 O   0  0  0  0  0  1  0  0  0  0  0  0
  1 18  1  1  0  0  0
  2 12  1  0  0  0  0
  3  7  1  0  0  0  0
  5  6  2  0  0  0  0
  6  4  1  0  0  0  0
  7  8  1  0  0  0  0
  8  1  1  0  0  0  0
  8  4  2  0  0  0  0
  9  7  2  0  0  0  0
  9  5  1  0  0  0  0
 10  2  2  0  0  0  0
 10 11  1  0  0  0  0
 11 13  2  0  0  0  0
 12  3  1  0  0  0  0
 12 14  2  0  0  0  0
 13 14  1  0  0  0  0
 14  1  1  0  0  0  0
 15 17  1  0  0  0  0
 16 17  2  0  0  0  0
 17 10  1  0  0  0  0
 18 19  1  0  0  0  0
 20 31  1  0  0  0  0
 21 26  1  0  0  0  0
 22 23  1  6  0  0  0
 22 24  1  0  0  0  0
 24 25  1  0  0  0  0
 25 20  1  0  0  0  0
 26 19  1  1  0  0  0
 26 30  1  0  0  0  0
 27 28  1  0  0  0  0
 28 21  1  0  0  0  0
 28 25  2  0  0  0  0
 29 27  1  0  0  0  0
 29 22  1  0  0  0  0
 30 31  1  0  0  0  0
 32 22  1  0  0  0  0
 32 33  1  0  0  0  0
 34 32  1  0  0  0  0
M  END
>  <MODEL>
1

>  <REMARK>
 VINA RESULT:      -9.8      0.000      0.000
  Name = 
  5 active torsions:
  status: ('A' for Active; 'I' for Inactive)
    1  A    between atoms: C_1  and  C_9
    2  A    between atoms: C_7  and  C_11
    3  A    between atoms: C_8  and  C_9
    4  A    between atoms: C_8  and  C_18
    5  A    between atoms: C_23  and  C_25
                            x       y       z     vdW  Elec       q    Type
                         _______ _______ _______ _____ _____    ______ ____

>  <TORSDO>
F 5

$$$$
=
 OpenBabel10262423193D

 34 38  0  0  1  0  0  0  0  0999 V2000
  188.1140  178.0470  143.3150 C   0  0  2  0  0  3  0  0  0  0  0  0
  190.9960  176.3330  145.1360 C   0  0  0  0  0  3  0  0  0  0  0  0
  190.2320  176.0530  142.7740 C   0  0  0  0  0  2  0  0  0  0  0  0
  188.1530  178.6220  140.8720 C   0  0  0  0  0  3  0  0  0  0  0  0
  189.6350  177.4990  139.3210 C   0  0  0  0  0  3  0  0  0  0  0  0
  188.6370  178.4440  139.5720 C   0  0  0  0  0  3  0  0  0  0  0  0
  189.6800  176.9110  141.6720 C   0  0  0  0  0  0  0  0  0  0  0  0
  188.6650  177.8560  141.9250 C   0  0  0  0  0  0  0  0  0  0  0  0
  190.1530  176.7330  140.3690 C   0  0  0  0  0  3  0  0  0  0  0  0
  190.8840  176.8890  146.4180 C   0  0  0  0  0  0  0  0  0  0  0  0
  189.8670  177.8180  146.6750 C   0  0  0  0  0  3  0  0  0  0  0  0
  190.1150  176.7080  144.1190 C   0  0  0  0  0  0  0  0  0  0  0  0
  188.9770  178.1920  145.6670 C   0  0  0  0  0  3  0  0  0  0  0  0
  189.0940  177.6430  144.3860 C   0  0  0  0  0  0  0  0  0  0  0  0
  192.4720  175.1620  147.5000 C   0  0  0  0  0  1  0  0  0  0  0  0
  192.1050  177.3190  148.4080 O   0  0  0  0  0  0  0  0  0  0  0  0
  191.8270  176.5050  147.4870 C   0  0  0  0  0  0  0  0  0  0  0  0
  186.7380  177.3890  143.4900 C   0  0  0  0  0  2  0  0  0  0  0  0
  185.7570  178.2340  144.2960 C   0  0  0  0  0  2  0  0  0  0  0  0
  181.6030  179.4100  142.8860 C   0  0  0  0  0  2  0  0  0  0  0  0
  184.4290  178.8800  142.3100 C   0  0  0  0  0  2  0  0  0  0  0  0
  181.3850  177.7490  139.3720 C   0  0  2  0  0  0  0  0  0  0  0  0
  181.6460  178.9200  138.6560 O   0  0  0  0  0  1  0  0  0  0  0  0
  180.9250  178.1160  140.7840 C   0  0  0  0  0  2  0  0  0  0  0  0
  182.0300  178.6390  141.6670 C   0  0  0  0  0  0  0  0  0  0  0  0
  184.3730  178.2050  143.6710 C   0  0  2  0  0  3  0  0  0  0  0  0
  183.7780  177.6820  140.1480 C   0  0  0  0  0  2  0  0  0  0  0  0
  183.3380  178.3700  141.4160 C   0  0  0  0  0  0  0  0  0  0  0  0
  182.6540  176.9010  139.4690 C   0  0  0  0  0  2  0  0  0  0  0  0
  183.3830  178.9220  144.5830 C   0  0  0  0  0  2  0  0  0  0  0  0
  181.9430  178.6600  144.1670 C   0  0  0  0  0  2  0  0  0  0  0  0
  180.2700  176.9740  138.6640 C   0  0  0  0  0  3  0  0  0  0  0  0
  179.0720  177.0360  139.3810 O   0  0  0  0  0  1  0  0  0  0  0  0
  180.6330  175.6390  138.4760 O   0  0  0  0  0  1  0  0  0  0  0  0
  1 18  1  6  0  0  0
  1 14  1  0  0  0  0
  2 10  1  0  0  0  0
  3 12  1  0  0  0  0
  4  8  1  0  0  0  0
  5  6  1  0  0  0  0
  5  9  2  0  0  0  0
  6  4  2  0  0  0  0
  7  8  2  0  0  0  0
  7  3  1  0  0  0  0
  8  1  1  0  0  0  0
  9  7  1  0  0  0  0
 10 11  2  0  0  0  0
 10 17  1  0  0  0  0
 12 14  1  0  0  0  0
 12  2  2  0  0  0  0
 13 11  1  0  0  0  0
 14 13  2  0  0  0  0
 17 15  1  0  0  0  0
 17 16  2  0  0  0  0
 18 19  1  0  0  0  0
 20 31  1  0  0  0  0
 21 26  1  0  0  0  0
 22 23  1  6  0  0  0
 22 29  1  0  0  0  0
 22 24  1  0  0  0  0
 24 25  1  0  0  0  0
 25 20  1  0  0  0  0
 26 19  1  1  0  0  0
 26 30  1  0  0  0  0
 27 28  1  0  0  0  0
 28 25  2  0  0  0  0
 28 21  1  0  0  0  0
 29 27  1  0  0  0  0
 31 30  1  0  0  0  0
 32 22  1  0  0  0  0
 32 33  1  0  0  0  0
 34 32  1  0  0  0  0
M  END
>  <MODEL>
2

>  <REMARK>
 VINA RESULT:      -9.6      2.891      8.558
  Name = 
  5 active torsions:
  status: ('A' for Active; 'I' for Inactive)
    1  A    between atoms: C_1  and  C_9
    2  A    between atoms: C_7  and  C_11
    3  A    between atoms: C_8  and  C_9
    4  A    between atoms: C_8  and  C_18
    5  A    between atoms: C_23  and  C_25
                            x       y       z     vdW  Elec       q    Type
                         _______ _______ _______ _____ _____    ______ ____

>  <TORSDO>
F 5

$$$$
=
 OpenBabel10262423193D

 34 38  0  0  1  0  0  0  0  0999 V2000
  185.9370  178.0090  142.2630 C   0  0  2  0  0  3  0  0  0  0  0  0
  186.7220  178.1830  145.9920 C   0  0  0  0  0  3  0  0  0  0  0  0
  184.8310  179.2160  144.7270 C   0  0  0  0  0  2  0  0  0  0  0  0
  183.6080  178.0010  141.3260 C   0  0  0  0  0  3  0  0  0  0  0  0
  181.7240  178.8500  142.5880 C   0  0  0  0  0  3  0  0  0  0  0  0
  182.2410  178.2780  141.4220 C   0  0  0  0  0  3  0  0  0  0  0  0
  183.9380  178.8620  143.5740 C   0  0  0  0  0  0  0  0  0  0  0  0
  184.4630  178.2950  142.3940 C   0  0  0  0  0  0  0  0  0  0  0  0
  182.5720  179.1440  143.6590 C   0  0  0  0  0  3  0  0  0  0  0  0
  187.9070  177.4360  146.0620 C   0  0  0  0  0  0  0  0  0  0  0  0
  188.4380  176.8840  144.8890 C   0  0  0  0  0  3  0  0  0  0  0  0
  186.0680  178.3660  144.7720 C   0  0  0  0  0  0  0  0  0  0  0  0
  187.7940  177.0680  143.6640 C   0  0  0  0  0  3  0  0  0  0  0  0
  186.6090  177.8070  143.5960 C   0  0  0  0  0  0  0  0  0  0  0  0
  188.0410  177.8060  148.6150 C   0  0  0  0  0  1  0  0  0  0  0  0
  189.6480  176.5490  147.4100 O   0  0  0  0  0  0  0  0  0  0  0  0
  188.5880  177.2280  147.3550 C   0  0  0  0  0  0  0  0  0  0  0  0
  186.6540  179.0470  141.3880 C   0  0  0  0  0  2  0  0  0  0  0  0
  188.0900  178.6660  141.0430 C   0  0  0  0  0  2  0  0  0  0  0  0
  187.9390  177.5260  136.6500 C   0  0  0  0  0  2  0  0  0  0  0  0
  189.4830  178.1470  139.0640 C   0  0  0  0  0  2  0  0  0  0  0  0
  190.9670  175.1060  136.2850 C   0  0  2  0  0  0  0  0  0  0  0  0
  191.8230  176.0510  135.7140 O   0  0  0  0  0  1  0  0  0  0  0  0
  189.5210  175.5810  136.1300 C   0  0  0  0  0  2  0  0  0  0  0  0
  189.1610  176.7360  137.0320 C   0  0  0  0  0  0  0  0  0  0  0  0
  188.1490  177.8830  139.7430 C   0  0  2  0  0  3  0  0  0  0  0  0
  191.1380  176.2820  138.5030 C   0  0  0  0  0  2  0  0  0  0  0  0
  189.8590  177.0060  138.1650 C   0  0  0  0  0  0  0  0  0  0  0  0
  191.2810  174.9470  137.7730 C   0  0  0  0  0  2  0  0  0  0  0  0
  186.9960  178.3040  138.8390 C   0  0  0  0  0  2  0  0  0  0  0  0
  186.8210  177.3480  137.6680 C   0  0  0  0  0  2  0  0  0  0  0  0
  191.1400  173.7730  135.5510 C   0  0  0  0  0  3  0  0  0  0  0  0
  189.9730  173.0070  135.6030 O   0  0  0  0  0  1  0  0  0  0  0  0
  192.2030  173.0430  136.0880 O   0  0  0  0  0  1  0  0  0  0  0  0
  1 18  1  1  0  0  0
  1  8  1  0  0  0  0
  1 14  1  0  0  0  0
  2 10  1  0  0  0  0
  3 12  1  0  0  0  0
  4  6  2  0  0  0  0
  4  8  1  0  0  0  0
  5  9  2  0  0  0  0
  6  5  1  0  0  0  0
  7  9  1  0  0  0  0
  7  3  1  0  0  0  0
  8  7  2  0  0  0  0
 10 17  1  0  0  0  0
 11 10  2  0  0  0  0
 12  2  2  0  0  0  0
 13 11  1  0  0  0  0
 14 13  2  0  0  0  0
 14 12  1  0  0  0  0
 17 16  2  0  0  0  0
 17 15  1  0  0  0  0
 19 18  1  0  0  0  0
 20 25  1  0  0  0  0
 20 31  1  0  0  0  0
 21 26  1  0  0  0  0
 22 23  1  6  0  0  0
 22 29  1  0  0  0  0
 24 22  1  0  0  0  0
 24 25  1  0  0  0  0
 25 28  2  0  0  0  0
 26 19  1  1  0  0  0
 28 27  1  0  0  0  0
 28 21  1  0  0  0  0
 29 27  1  0  0  0  0
 30 26  1  0  0  0  0
 31 30  1  0  0  0  0
 32 33  1  0  0  0  0
 32 34  1  0  0  0  0
 32 22  1  0  0  0  0
M  END
>  <MODEL>
3

>  <REMARK>
 VINA RESULT:      -9.5      3.263      7.063
  Name = 
  5 active torsions:
  status: ('A' for Active; 'I' for Inactive)
    1  A    between atoms: C_1  and  C_9
    2  A    between atoms: C_7  and  C_11
    3  A    between atoms: C_8  and  C_9
    4  A    between atoms: C_8  and  C_18
    5  A    between atoms: C_23  and  C_25
                            x       y       z     vdW  Elec       q    Type
                         _______ _______ _______ _____ _____    ______ ____

>  <TORSDO>
F 5

$$$$
=
 OpenBabel10262423193D

 34 38  0  0  1  0  0  0  0  0999 V2000
  184.5560  178.2780  141.8240 C   0  0  2  0  0  3  0  0  0  0  0  0
  185.6790  178.5160  145.4620 C   0  0  0  0  0  3  0  0  0  0  0  0
  183.5910  179.3780  144.3950 C   0  0  0  0  0  2  0  0  0  0  0  0
  182.1580  178.0650  141.1140 C   0  0  0  0  0  3  0  0  0  0  0  0
  180.3360  178.7410  142.5590 C   0  0  0  0  0  3  0  0  0  0  0  0
  180.7870  178.2190  141.3440 C   0  0  0  0  0  3  0  0  0  0  0  0
  182.6250  178.9480  143.3290 C   0  0  0  0  0  0  0  0  0  0  0  0
  183.0830  178.4320  142.0980 C   0  0  0  0  0  0  0  0  0  0  0  0
  181.2540  179.1070  143.5470 C   0  0  0  0  0  3  0  0  0  0  0  0
  186.9260  177.8760  145.4110 C   0  0  0  0  0  0  0  0  0  0  0  0
  187.3880  177.3760  144.1870 C   0  0  0  0  0  3  0  0  0  0  0  0
  184.8960  178.6420  144.3120 C   0  0  0  0  0  0  0  0  0  0  0  0
  186.6160  177.5040  143.0310 C   0  0  0  0  0  3  0  0  0  0  0  0
  185.3690  178.1340  143.0850 C   0  0  0  0  0  0  0  0  0  0  0  0
  189.1080  177.1300  146.5760 C   0  0  0  0  0  1  0  0  0  0  0  0
  187.2960  178.1150  147.7440 O   0  0  0  0  0  0  0  0  0  0  0  0
  187.7440  177.7280  146.6310 C   0  0  0  0  0  0  0  0  0  0  0  0
  185.0910  179.3770  140.8950 C   0  0  0  0  0  2  0  0  0  0  0  0
  184.5550  179.2840  139.4690 C   0  0  0  0  0  2  0  0  0  0  0  0
  185.7630  176.3480  136.2220 C   0  0  0  0  0  2  0  0  0  0  0  0
  186.3980  178.6280  137.9520 C   0  0  0  0  0  2  0  0  0  0  0  0
  189.5310  175.7270  136.9810 C   0  0  2  0  0  0  0  0  0  0  0  0
  190.0080  176.5830  135.9850 O   0  0  0  0  0  1  0  0  0  0  0  0
  188.0800  175.3550  136.6690 C   0  0  0  0  0  2  0  0  0  0  0  0
  187.1010  176.4810  136.8960 C   0  0  0  0  0  0  0  0  0  0  0  0
  185.1900  178.1220  138.7250 C   0  0  2  0  0  3  0  0  0  0  0  0
  188.7550  177.7110  138.3200 C   0  0  0  0  0  2  0  0  0  0  0  0
  187.3850  177.5230  137.7200 C   0  0  0  0  0  0  0  0  0  0  0  0
  189.5820  176.4270  138.3400 C   0  0  0  0  0  2  0  0  0  0  0  0
  184.1700  177.5030  137.7760 C   0  0  0  0  0  2  0  0  0  0  0  0
  184.6440  176.1610  137.2380 C   0  0  0  0  0  2  0  0  0  0  0  0
  190.3860  174.4560  136.9950 C   0  0  0  0  0  3  0  0  0  0  0  0
  189.6040  173.3200  137.2190 O   0  0  0  0  0  1  0  0  0  0  0  0
  191.3830  174.5380  137.9690 O   0  0  0  0  0  1  0  0  0  0  0  0
  1 18  1  1  0  0  0
  1  8  1  0  0  0  0
  1 14  1  0  0  0  0
  4  6  2  0  0  0  0
  4  8  1  0  0  0  0
  5  9  2  0  0  0  0
  6  5  1  0  0  0  0
  7  9  1  0  0  0  0
  7  3  1  0  0  0  0
  8  7  2  0  0  0  0
 10  2  1  0  0  0  0
 10 17  1  0  0  0  0
 11 10  2  0  0  0  0
 12  3  1  0  0  0  0
 12  2  2  0  0  0  0
 13 14  2  0  0  0  0
 13 11  1  0  0  0  0
 14 12  1  0  0  0  0
 15 17  1  0  0  0  0
 17 16  2  0  0  0  0
 19 18  1  0  0  0  0
 20 25  1  0  0  0  0
 20 31  1  0  0  0  0
 21 26  1  0  0  0  0
 22 23  1  6  0  0  0
 22 32  1  0  0  0  0
 22 29  1  0  0  0  0
 24 25  1  0  0  0  0
 24 22  1  0  0  0  0
 25 28  2  0  0  0  0
 26 19  1  6  0  0  0
 27 29  1  0  0  0  0
 28 21  1  0  0  0  0
 28 27  1  0  0  0  0
 30 26  1  0  0  0  0
 31 30  1  0  0  0  0
 32 33  1  0  0  0  0
 32 34  1  0  0  0  0
M  END
>  <MODEL>
4

>  <REMARK>
 VINA RESULT:      -9.3      2.436      6.547
  Name = 
  5 active torsions:
  status: ('A' for Active; 'I' for Inactive)
    1  A    between atoms: C_1  and  C_9
    2  A    between atoms: C_7  and  C_11
    3  A    between atoms: C_8  and  C_9
    4  A    between atoms: C_8  and  C_18
    5  A    between atoms: C_23  and  C_25
                            x       y       z     vdW  Elec       q    Type
                         _______ _______ _______ _____ _____    ______ ____

>  <TORSDO>
F 5

$$$$
=
 OpenBabel10262423193D

 34 38  0  0  1  0  0  0  0  0999 V2000
  183.1760  178.7740  140.4950 C   0  0  2  0  0  3  0  0  0  0  0  0
  184.2590  176.8740  137.3690 C   0  0  0  0  0  3  0  0  0  0  0  0
  182.0800  176.7940  138.5890 C   0  0  0  0  0  2  0  0  0  0  0  0
  180.8230  179.5390  140.9170 C   0  0  0  0  0  3  0  0  0  0  0  0
  178.9310  178.5190  139.8030 C   0  0  0  0  0  3  0  0  0  0  0  0
  179.4440  179.4570  140.7030 C   0  0  0  0  0  3  0  0  0  0  0  0
  181.1760  177.7450  139.3180 C   0  0  0  0  0  0  0  0  0  0  0  0
  181.6940  178.6840  140.2340 C   0  0  0  0  0  0  0  0  0  0  0  0
  179.7960  177.6630  139.1150 C   0  0  0  0  0  3  0  0  0  0  0  0
  185.5760  177.3280  137.2100 C   0  0  0  0  0  0  0  0  0  0  0  0
  186.0970  178.2500  138.1270 C   0  0  0  0  0  3  0  0  0  0  0  0
  183.4670  177.3420  138.4200 C   0  0  0  0  0  0  0  0  0  0  0  0
  185.3150  178.7180  139.1850 C   0  0  0  0  0  3  0  0  0  0  0  0
  183.9990  178.2700  139.3380 C   0  0  0  0  0  0  0  0  0  0  0  0
  186.8850  175.4350  136.0360 C   0  0  0  0  0  1  0  0  0  0  0  0
  186.7180  177.6260  135.1500 O   0  0  0  0  0  0  0  0  0  0  0  0
  186.4060  176.8450  136.0890 C   0  0  0  0  0  0  0  0  0  0  0  0
  183.5700  178.1270  141.8310 C   0  0  0  0  0  2  0  0  0  0  0  0
  183.6880  179.1240  142.9790 C   0  0  0  0  0  2  0  0  0  0  0  0
  186.6950  177.4660  145.9510 C   0  0  0  0  0  2  0  0  0  0  0  0
  185.6820  177.6750  143.2080 C   0  0  0  0  0  2  0  0  0  0  0  0
  189.9990  177.4110  143.8930 C   0  0  2  0  0  0  0  0  0  0  0  0
  189.9560  176.0430  143.6110 O   0  0  0  0  0  1  0  0  0  0  0  0
  189.0950  177.7040  145.0910 C   0  0  0  0  0  2  0  0  0  0  0  0
  187.6220  177.6190  144.7760 C   0  0  0  0  0  0  0  0  0  0  0  0
  184.9550  178.8810  143.7810 C   0  0  2  0  0  3  0  0  0  0  0  0
  188.0750  177.8010  142.3180 C   0  0  0  0  0  2  0  0  0  0  0  0
  187.1500  177.7440  143.5080 C   0  0  0  0  0  0  0  0  0  0  0  0
  189.5010  178.2090  142.6870 C   0  0  0  0  0  2  0  0  0  0  0  0
  184.5980  178.6440  145.2440 C   0  0  0  0  0  2  0  0  0  0  0  0
  185.8270  178.7020  146.1410 C   0  0  0  0  0  2  0  0  0  0  0  0
  191.4390  177.7990  144.2410 C   0  0  0  0  0  3  0  0  0  0  0  0
  191.7310  177.5240  145.5790 O   0  0  0  0  0  1  0  0  0  0  0  0
  191.6660  179.1520  143.9810 O   0  0  0  0  0  1  0  0  0  0  0  0
  1 18  1  1  0  0  0
  2 12  1  0  0  0  0
  3  7  1  0  0  0  0
  5  6  2  0  0  0  0
  6  4  1  0  0  0  0
  7  8  1  0  0  0  0
  8  1  1  0  0  0  0
  8  4  2  0  0  0  0
  9  7  2  0  0  0  0
  9  5  1  0  0  0  0
 10  2  2  0  0  0  0
 10 11  1  0  0  0  0
 11 13  2  0  0  0  0
 12  3  1  0  0  0  0
 12 14  2  0  0  0  0
 13 14  1  0  0  0  0
 14  1  1  0  0  0  0
 15 17  1  0  0  0  0
 16 17  2  0  0  0  0
 17 10  1  0  0  0  0
 18 19  1  0  0  0  0
 20 31  1  0  0  0  0
 21 28  1  0  0  0  0
 21 26  1  0  0  0  0
 22 23  1  6  0  0  0
 22 32  1  0  0  0  0
 22 24  1  0  0  0  0
 25 24  1  0  0  0  0
 25 20  1  0  0  0  0
 26 19  1  6  0  0  0
 26 30  1  0  0  0  0
 27 29  1  0  0  0  0
 27 28  1  0  0  0  0
 28 25  2  0  0  0  0
 29 22  1  0  0  0  0
 30 31  1  0  0  0  0
 32 33  1  0  0  0  0
 34 32  1  0  0  0  0
M  END
>  <MODEL>
5

>  <REMARK>
 VINA RESULT:      -9.0      1.317      1.909
  Name = 
  5 active torsions:
  status: ('A' for Active; 'I' for Inactive)
    1  A    between atoms: C_1  and  C_9
    2  A    between atoms: C_7  and  C_11
    3  A    between atoms: C_8  and  C_9
    4  A    between atoms: C_8  and  C_18
    5  A    between atoms: C_23  and  C_25
                            x       y       z     vdW  Elec       q    Type
                         _______ _______ _______ _____ _____    ______ ____

>  <TORSDO>
F 5

$$$$
=
 OpenBabel10262423193D

 34 38  0  0  1  0  0  0  0  0999 V2000
  185.5740  178.1090  142.2830 C   0  0  2  0  0  3  0  0  0  0  0  0
  186.4130  178.2870  146.0010 C   0  0  0  0  0  3  0  0  0  0  0  0
  184.5190  179.3410  144.7580 C   0  0  0  0  0  2  0  0  0  0  0  0
  183.2330  178.1300  141.3790 C   0  0  0  0  0  3  0  0  0  0  0  0
  181.3780  179.0110  142.6620 C   0  0  0  0  0  3  0  0  0  0  0  0
  181.8710  178.4270  141.4920 C   0  0  0  0  0  3  0  0  0  0  0  0
  183.6050  178.9950  143.6180 C   0  0  0  0  0  0  0  0  0  0  0  0
  184.1060  178.4160  142.4340 C   0  0  0  0  0  0  0  0  0  0  0  0
  182.2450  179.2960  143.7210 C   0  0  0  0  0  3  0  0  0  0  0  0
  187.5870  177.5230  146.0580 C   0  0  0  0  0  0  0  0  0  0  0  0
  188.0940  176.9590  144.8800 C   0  0  0  0  0  3  0  0  0  0  0  0
  185.7440  178.4740  144.7890 C   0  0  0  0  0  0  0  0  0  0  0  0
  187.4370  177.1480  143.6630 C   0  0  0  0  0  3  0  0  0  0  0  0
  186.2610  177.9030  143.6090 C   0  0  0  0  0  0  0  0  0  0  0  0
  188.0020  178.1760  148.5230 C   0  0  0  0  0  1  0  0  0  0  0  0
  189.1280  176.3830  147.4590 O   0  0  0  0  0  0  0  0  0  0  0  0
  188.2830  177.3110  147.3430 C   0  0  0  0  0  0  0  0  0  0  0  0
  186.2930  179.1340  141.3950 C   0  0  0  0  0  2  0  0  0  0  0  0
  186.5810  178.6230  139.9860 C   0  0  0  0  0  2  0  0  0  0  0  0
  190.6760  176.7950  140.7010 C   0  0  0  0  0  2  0  0  0  0  0  0
  188.1130  176.8130  139.2770 C   0  0  0  0  0  2  0  0  0  0  0  0
  191.7590  175.6870  137.1300 C   0  0  2  0  0  0  0  0  0  0  0  0
  191.4430  174.3370  137.3100 O   0  0  0  0  0  1  0  0  0  0  0  0
  191.9040  176.3540  138.4990 C   0  0  0  0  0  2  0  0  0  0  0  0
  190.5930  176.5570  139.2180 C   0  0  0  0  0  0  0  0  0  0  0  0
  188.0390  178.2240  139.8390 C   0  0  2  0  0  3  0  0  0  0  0  0
  189.3090  176.2600  137.0870 C   0  0  0  0  0  2  0  0  0  0  0  0
  189.4090  176.5930  138.5550 C   0  0  0  0  0  0  0  0  0  0  0  0
  190.6430  176.3860  136.3530 C   0  0  0  0  0  2  0  0  0  0  0  0
  188.7290  178.2970  141.1960 C   0  0  0  0  0  2  0  0  0  0  0  0
  190.2430  178.2100  141.0630 C   0  0  0  0  0  2  0  0  0  0  0  0
  193.0880  175.7880  136.3760 C   0  0  0  0  0  3  0  0  0  0  0  0
  193.9210  176.7570  136.9420 O   0  0  0  0  0  1  0  0  0  0  0  0
  192.8750  176.0830  135.0280 O   0  0  0  0  0  1  0  0  0  0  0  0
  1 18  1  1  0  0  0
  1  8  1  0  0  0  0
  1 14  1  0  0  0  0
  2 10  1  0  0  0  0
  3 12  1  0  0  0  0
  4  6  2  0  0  0  0
  4  8  1  0  0  0  0
  5  9  2  0  0  0  0
  6  5  1  0  0  0  0
  7  9  1  0  0  0  0
  7  3  1  0  0  0  0
  8  7  2  0  0  0  0
 10 17  1  0  0  0  0
 11 10  2  0  0  0  0
 12  2  2  0  0  0  0
 13 11  1  0  0  0  0
 14 13  2  0  0  0  0
 14 12  1  0  0  0  0
 17 16  2  0  0  0  0
 17 15  1  0  0  0  0
 19 18  1  0  0  0  0
 20 31  1  0  0  0  0
 21 26  1  0  0  0  0
 22 23  1  1  0  0  0
 22 24  1  0  0  0  0
 24 25  1  0  0  0  0
 25 20  1  0  0  0  0
 26 19  1  1  0  0  0
 26 30  1  0  0  0  0
 27 28  1  0  0  0  0
 28 25  2  0  0  0  0
 28 21  1  0  0  0  0
 29 27  1  0  0  0  0
 29 22  1  0  0  0  0
 31 30  1  0  0  0  0
 32 33  1  0  0  0  0
 32 22  1  0  0  0  0
 34 32  1  0  0  0  0
M  END
>  <MODEL>
6

>  <REMARK>
 VINA RESULT:      -8.9      3.215      6.318
  Name = 
  5 active torsions:
  status: ('A' for Active; 'I' for Inactive)
    1  A    between atoms: C_1  and  C_9
    2  A    between atoms: C_7  and  C_11
    3  A    between atoms: C_8  and  C_9
    4  A    between atoms: C_8  and  C_18
    5  A    between atoms: C_23  and  C_25
                            x       y       z     vdW  Elec       q    Type
                         _______ _______ _______ _____ _____    ______ ____

>  <TORSDO>
F 5

$$$$
=
 OpenBabel10262423193D

 34 38  0  0  1  0  0  0  0  0999 V2000
  185.6260  178.0060  142.2490 C   0  0  2  0  0  3  0  0  0  0  0  0
  186.6060  178.2890  145.9260 C   0  0  0  0  0  3  0  0  0  0  0  0
  184.6650  179.3080  144.7270 C   0  0  0  0  0  2  0  0  0  0  0  0
  183.2520  178.0030  141.4350 C   0  0  0  0  0  3  0  0  0  0  0  0
  181.4470  178.9200  142.7630 C   0  0  0  0  0  3  0  0  0  0  0  0
  181.8950  178.3030  141.5920 C   0  0  0  0  0  3  0  0  0  0  0  0
  183.7090  178.9310  143.6330 C   0  0  0  0  0  0  0  0  0  0  0  0
  184.1650  178.3180  142.4470 C   0  0  0  0  0  0  0  0  0  0  0  0
  182.3530  179.2350  143.7790 C   0  0  0  0  0  3  0  0  0  0  0  0
  187.7830  177.5260  145.9590 C   0  0  0  0  0  0  0  0  0  0  0  0
  188.2450  176.9290  144.7790 C   0  0  0  0  0  3  0  0  0  0  0  0
  185.8910  178.4420  144.7350 C   0  0  0  0  0  0  0  0  0  0  0  0
  187.5410  177.0840  143.5830 C   0  0  0  0  0  3  0  0  0  0  0  0
  186.3630  177.8370  143.5530 C   0  0  0  0  0  0  0  0  0  0  0  0
  188.1470  178.1020  148.4510 C   0  0  0  0  0  1  0  0  0  0  0  0
  189.5000  176.5520  147.2770 O   0  0  0  0  0  0  0  0  0  0  0  0
  188.5270  177.3510  147.2220 C   0  0  0  0  0  0  0  0  0  0  0  0
  186.3100  179.0050  141.3050 C   0  0  0  0  0  2  0  0  0  0  0  0
  185.7550  178.9790  139.8840 C   0  0  0  0  0  2  0  0  0  0  0  0
  187.5850  176.8150  136.3360 C   0  0  0  0  0  2  0  0  0  0  0  0
  187.8730  178.5600  138.6740 C   0  0  0  0  0  2  0  0  0  0  0  0
  191.0710  175.7350  137.6900 C   0  0  2  0  0  0  0  0  0  0  0  0
  191.7800  176.7620  137.0630 O   0  0  0  0  0  1  0  0  0  0  0  0
  189.7180  175.5640  136.9970 C   0  0  0  0  0  2  0  0  0  0  0  0
  188.7410  176.6770  137.2870 C   0  0  0  0  0  0  0  0  0  0  0  0
  186.5110  177.9810  139.0240 C   0  0  2  0  0  3  0  0  0  0  0  0
  190.0650  177.3980  139.2890 C   0  0  0  0  0  2  0  0  0  0  0  0
  188.8590  177.4670  138.3860 C   0  0  0  0  0  0  0  0  0  0  0  0
  190.8350  176.0850  139.1610 C   0  0  0  0  0  2  0  0  0  0  0  0
  185.7140  177.6880  137.7580 C   0  0  0  0  0  2  0  0  0  0  0  0
  186.2630  176.4800  137.0140 C   0  0  0  0  0  2  0  0  0  0  0  0
  191.8700  174.4340  137.5650 C   0  0  0  0  0  3  0  0  0  0  0  0
  193.1220  174.6600  136.9890 O   0  0  0  0  0  1  0  0  0  0  0  0
  191.1700  173.4910  136.8100 O   0  0  0  0  0  1  0  0  0  0  0  0
  1 18  1  1  0  0  0
  1  8  1  0  0  0  0
  1 14  1  0  0  0  0
  2 10  1  0  0  0  0
  3 12  1  0  0  0  0
  4  6  2  0  0  0  0
  4  8  1  0  0  0  0
  5  9  2  0  0  0  0
  6  5  1  0  0  0  0
  7  9  1  0  0  0  0
  7  3  1  0  0  0  0
  8  7  2  0  0  0  0
 10 17  1  0  0  0  0
 11 10  2  0  0  0  0
 12  2  2  0  0  0  0
 13 11  1  0  0  0  0
 14 13  2  0  0  0  0
 14 12  1  0  0  0  0
 17 16  2  0  0  0  0
 17 15  1  0  0  0  0
 19 18  1  0  0  0  0
 20 31  1  0  0  0  0
 20 25  1  0  0  0  0
 21 26  1  0  0  0  0
 22 23  1  6  0  0  0
 22 29  1  0  0  0  0
 24 25  1  0  0  0  0
 24 22  1  0  0  0  0
 25 28  2  0  0  0  0
 26 19  1  1  0  0  0
 28 21  1  0  0  0  0
 28 27  1  0  0  0  0
 29 27  1  0  0  0  0
 30 26  1  0  0  0  0
 31 30  1  0  0  0  0
 32 22  1  0  0  0  0
 33 32  1  0  0  0  0
 34 32  1  0  0  0  0
M  END
>  <MODEL>
7

>  <REMARK>
 VINA RESULT:      -8.8      2.861      6.678
  Name = 
  5 active torsions:
  status: ('A' for Active; 'I' for Inactive)
    1  A    between atoms: C_1  and  C_9
    2  A    between atoms: C_7  and  C_11
    3  A    between atoms: C_8  and  C_9
    4  A    between atoms: C_8  and  C_18
    5  A    between atoms: C_23  and  C_25
                            x       y       z     vdW  Elec       q    Type
                         _______ _______ _______ _____ _____    ______ ____

>  <TORSDO>
F 5

$$$$
=
 OpenBabel10262423193D

 34 38  0  0  1  0  0  0  0  0999 V2000
  188.2350  178.0890  141.1770 C   0  0  2  0  0  3  0  0  0  0  0  0
  185.8050  177.7790  144.1010 C   0  0  0  0  0  3  0  0  0  0  0  0
  187.9520  176.5670  143.6980 C   0  0  0  0  0  2  0  0  0  0  0  0
  190.7200  177.8170  141.3930 C   0  0  0  0  0  3  0  0  0  0  0  0
  191.7150  176.6140  143.2450 C   0  0  0  0  0  3  0  0  0  0  0  0
  191.8540  177.3340  142.0550 C   0  0  0  0  0  3  0  0  0  0  0  0
  189.3070  176.8630  143.1230 C   0  0  0  0  0  0  0  0  0  0  0  0
  189.4450  177.5800  141.9170 C   0  0  0  0  0  0  0  0  0  0  0  0
  190.4440  176.3770  143.7750 C   0  0  0  0  0  3  0  0  0  0  0  0
  184.8030  178.6870  143.7280 C   0  0  0  0  0  0  0  0  0  0  0  0
  184.9310  179.3900  142.5230 C   0  0  0  0  0  3  0  0  0  0  0  0
  186.9260  177.5850  143.2920 C   0  0  0  0  0  0  0  0  0  0  0  0
  186.0460  179.1960  141.7040 C   0  0  0  0  0  3  0  0  0  0  0  0
  187.0480  178.2970  142.0810 C   0  0  0  0  0  0  0  0  0  0  0  0
  182.2560  179.0030  144.0190 C   0  0  0  0  0  1  0  0  0  0  0  0
  183.7690  179.0030  145.8420 O   0  0  0  0  0  0  0  0  0  0  0  0
  183.6270  178.9040  144.5930 C   0  0  0  0  0  0  0  0  0  0  0  0
  187.9020  177.2300  139.9480 C   0  0  0  0  0  2  0  0  0  0  0  0
  188.7010  177.6100  138.7050 C   0  0  0  0  0  2  0  0  0  0  0  0
  191.0580  174.5340  136.3370 C   0  0  0  0  0  2  0  0  0  0  0  0
  190.9140  177.1210  137.7090 C   0  0  0  0  0  2  0  0  0  0  0  0
  194.6160  174.7910  137.8950 C   0  0  2  0  0  0  0  0  0  0  0  0
  195.1540  175.5710  136.8670 O   0  0  0  0  0  1  0  0  0  0  0  0
  193.3510  174.0970  137.3870 C   0  0  0  0  0  2  0  0  0  0  0  0
  192.1750  175.0260  137.2160 C   0  0  0  0  0  0  0  0  0  0  0  0
  189.6660  176.5020  138.3190 C   0  0  2  0  0  3  0  0  0  0  0  0
  193.2500  176.7540  138.6780 C   0  0  0  0  0  2  0  0  0  0  0  0
  192.0950  176.2120  137.8730 C   0  0  0  0  0  0  0  0  0  0  0  0
  194.2530  175.6760  139.0870 C   0  0  0  0  0  2  0  0  0  0  0  0
  188.9950  175.5620  137.3240 C   0  0  0  0  0  2  0  0  0  0  0  0
  189.7900  174.2770  137.1400 C   0  0  0  0  0  2  0  0  0  0  0  0
  195.6440  173.7310  138.3010 C   0  0  0  0  0  3  0  0  0  0  0  0
  195.0630  172.7350  139.0900 O   0  0  0  0  0  1  0  0  0  0  0  0
  196.7110  174.3120  138.9910 O   0  0  0  0  0  1  0  0  0  0  0  0
  1 18  1  6  0  0  0
  1  8  1  0  0  0  0
  1 14  1  0  0  0  0
  4  8  2  0  0  0  0
  4  6  1  0  0  0  0
  5  9  1  0  0  0  0
  6  5  2  0  0  0  0
  7  3  1  0  0  0  0
  7  9  2  0  0  0  0
  8  7  1  0  0  0  0
 10  2  1  0  0  0  0
 10 17  1  0  0  0  0
 11 10  2  0  0  0  0
 12  3  1  0  0  0  0
 12  2  2  0  0  0  0
 13 14  2  0  0  0  0
 13 11  1  0  0  0  0
 14 12  1  0  0  0  0
 15 17  1  0  0  0  0
 17 16  2  0  0  0  0
 19 18  1  0  0  0  0
 20 31  1  0  0  0  0
 20 25  1  0  0  0  0
 21 28  1  0  0  0  0
 21 26  1  0  0  0  0
 22 23  1  6  0  0  0
 22 32  1  0  0  0  0
 22 29  1  0  0  0  0
 24 22  1  0  0  0  0
 25 24  1  0  0  0  0
 25 28  2  0  0  0  0
 26 19  1  6  0  0  0
 27 29  1  0  0  0  0
 28 27  1  0  0  0  0
 30 26  1  0  0  0  0
 31 30  1  0  0  0  0
 32 34  1  0  0  0  0
 32 33  1  0  0  0  0
M  END
>  <MODEL>
8

>  <REMARK>
 VINA RESULT:      -8.7      4.278      8.250
  Name = 
  5 active torsions:
  status: ('A' for Active; 'I' for Inactive)
    1  A    between atoms: C_1  and  C_9
    2  A    between atoms: C_7  and  C_11
    3  A    between atoms: C_8  and  C_9
    4  A    between atoms: C_8  and  C_18
    5  A    between atoms: C_23  and  C_25
                            x       y       z     vdW  Elec       q    Type
                         _______ _______ _______ _____ _____    ______ ____

>  <TORSDO>
F 5

$$$$
=
 OpenBabel10262423193D

 34 38  0  0  1  0  0  0  0  0999 V2000
  188.8750  178.0110  141.8810 C   0  0  2  0  0  3  0  0  0  0  0  0
  185.3820  177.8880  143.4090 C   0  0  0  0  0  3  0  0  0  0  0  0
  187.5270  176.9670  144.2990 C   0  0  0  0  0  2  0  0  0  0  0  0
  190.9840  178.1710  143.2330 C   0  0  0  0  0  3  0  0  0  0  0  0
  191.0600  177.5070  145.5610 C   0  0  0  0  0  3  0  0  0  0  0  0
  191.7010  178.0030  144.4220 C   0  0  0  0  0  3  0  0  0  0  0  0
  188.9770  177.3540  144.3310 C   0  0  0  0  0  0  0  0  0  0  0  0
  189.6250  177.8430  143.1780 C   0  0  0  0  0  0  0  0  0  0  0  0
  189.7020  177.1810  145.5130 C   0  0  0  0  0  3  0  0  0  0  0  0
  184.6250  178.5430  142.4270 C   0  0  0  0  0  0  0  0  0  0  0  0
  185.2650  179.0170  141.2740 C   0  0  0  0  0  3  0  0  0  0  0  0
  186.7590  177.7190  143.2520 C   0  0  0  0  0  0  0  0  0  0  0  0
  186.6400  178.8470  141.1050 C   0  0  0  0  0  3  0  0  0  0  0  0
  187.3950  178.2000  142.0890 C   0  0  0  0  0  0  0  0  0  0  0  0
  182.5890  179.0090  143.9460 C   0  0  0  0  0  1  0  0  0  0  0  0
  182.4010  178.6750  141.6080 O   0  0  0  0  0  0  0  0  0  0  0  0
  183.1720  178.7350  142.6030 C   0  0  0  0  0  0  0  0  0  0  0  0
  189.1970  176.8950  140.8770 C   0  0  0  0  0  2  0  0  0  0  0  0
  189.7440  177.4090  139.5490 C   0  0  0  0  0  2  0  0  0  0  0  0
  187.5320  177.8920  135.6130 C   0  0  0  0  0  2  0  0  0  0  0  0
  188.8420  176.1800  137.5990 C   0  0  0  0  0  2  0  0  0  0  0  0
  185.3120  174.6980  135.4760 C   0  0  2  0  0  0  0  0  0  0  0  0
  186.1400  174.0000  134.5940 O   0  0  0  0  0  1  0  0  0  0  0  0
  185.6320  176.1910  135.3880 C   0  0  0  0  0  2  0  0  0  0  0  0
  186.9490  176.5680  136.0220 C   0  0  0  0  0  0  0  0  0  0  0  0
  188.6660  177.4070  138.4790 C   0  0  2  0  0  3  0  0  0  0  0  0
  187.0150  174.4170  137.3070 C   0  0  0  0  0  2  0  0  0  0  0  0
  187.5420  175.7880  136.9630 C   0  0  0  0  0  0  0  0  0  0  0  0
  185.5530  174.2210  136.9080 C   0  0  0  0  0  2  0  0  0  0  0  0
  188.7670  178.6810  137.6480 C   0  0  0  0  0  2  0  0  0  0  0  0
  187.5380  178.8800  136.7720 C   0  0  0  0  0  2  0  0  0  0  0  0
  183.8520  174.4710  135.0690 C   0  0  0  0  0  3  0  0  0  0  0  0
  183.0220  175.4740  135.5740 O   0  0  0  0  0  1  0  0  0  0  0  0
  183.4010  173.2240  135.5080 O   0  0  0  0  0  1  0  0  0  0  0  0
  1 18  1  6  0  0  0
  1 14  1  0  0  0  0
  1  8  1  0  0  0  0
  3  7  1  0  0  0  0
  4  6  1  0  0  0  0
  6  5  2  0  0  0  0
  7  9  2  0  0  0  0
  8  4  2  0  0  0  0
  8  7  1  0  0  0  0
  9  5  1  0  0  0  0
 10 17  1  0  0  0  0
 10  2  2  0  0  0  0
 11 10  1  0  0  0  0
 12  2  1  0  0  0  0
 12  3  1  0  0  0  0
 13 11  2  0  0  0  0
 13 14  1  0  0  0  0
 14 12  2  0  0  0  0
 16 17  2  0  0  0  0
 17 15  1  0  0  0  0
 19 18  1  0  0  0  0
 20 25  1  0  0  0  0
 20 31  1  0  0  0  0
 21 26  1  0  0  0  0
 22 23  1  6  0  0  0
 22 29  1  0  0  0  0
 24 22  1  0  0  0  0
 24 25  1  0  0  0  0
 25 28  2  0  0  0  0
 26 19  1  1  0  0  0
 28 27  1  0  0  0  0
 28 21  1  0  0  0  0
 29 27  1  0  0  0  0
 30 26  1  0  0  0  0
 31 30  1  0  0  0  0
 32 22  1  0  0  0  0
 32 34  1  0  0  0  0
 32 33  1  0  0  0  0
M  END
>  <MODEL>
9

>  <REMARK>
 VINA RESULT:      -8.7      3.567      8.658
  Name = 
  5 active torsions:
  status: ('A' for Active; 'I' for Inactive)
    1  A    between atoms: C_1  and  C_9
    2  A    between atoms: C_7  and  C_11
    3  A    between atoms: C_8  and  C_9
    4  A    between atoms: C_8  and  C_18
    5  A    between atoms: C_23  and  C_25
                            x       y       z     vdW  Elec       q    Type
                         _______ _______ _______ _____ _____    ______ ____

>  <TORSDO>
F 5

$$$$
