=
 OpenBabel10262421003D

 32 37  0  0  1  0  0  0  0  0999 V2000
  187.1320  177.9440  144.5160 N   0  0  2  0  0  0  0  0  0  0  0  0
  186.7610  178.0410  142.1050 C   0  0  0  0  0  0  0  0  0  0  0  0
  186.4300  177.7030  145.7810 C   0  0  0  0  0  2  0  0  0  0  0  0
  186.1200  177.8800  143.4480 C   0  0  2  0  0  3  0  0  0  0  0  0
  186.0610  178.6130  141.0410 C   0  0  0  0  0  0  0  0  0  0  0  0
  190.6820  177.6410  139.1610 C   0  0  0  0  0  2  0  0  0  0  0  0
  188.0540  177.5600  141.9120 C   0  0  0  0  0  0  0  0  0  0  0  0
  188.5140  178.4330  138.2280 C   0  0  0  0  0  2  0  0  0  0  0  0
  187.9050  178.2320  139.5880 C   0  0  0  0  0  0  0  0  0  0  0  0
  185.0630  178.9360  143.6640 C   0  0  0  0  0  0  0  0  0  0  0  0
  186.6460  178.6970  139.8150 N   0  0  0  0  0  0  0  0  0  0  0  0
  184.4210  179.4650  142.6600 N   0  0  0  0  0  0  0  0  0  0  0  0
  184.7310  179.3100  145.0030 N   0  0  0  0  0  2  0  0  0  0  0  0
  188.7380  177.0080  143.0010 O   0  0  0  0  0  0  0  0  0  0  0  0
  188.1240  176.8740  144.2900 C   0  0  1  0  0  3  0  0  0  0  0  0
  188.6520  177.6660  140.6500 C   0  0  0  0  0  0  0  0  0  0  0  0
  184.6520  179.0930  141.2550 C   0  0  2  0  0  3  0  0  0  0  0  0
  185.5860  178.9310  146.1280 C   0  0  0  0  0  2  0  0  0  0  0  0
  189.7170  177.5250  137.9900 C   0  0  0  0  0  2  0  0  0  0  0  0
  190.0240  177.0880  140.4220 C   0  0  0  0  0  2  0  0  0  0  0  0
  191.4420  176.3830  146.1480 C   0  0  0  0  0  0  0  0  0  0  0  0
  192.6930  175.9010  145.9290 F   0  0  0  0  0  0  0  0  0  0  0  0
  189.8190  177.4070  147.6280 C   0  0  0  0  0  3  0  0  0  0  0  0
  189.1930  176.8660  145.3480 C   0  0  0  0  0  0  0  0  0  0  0  0
  191.1020  176.9000  147.4060 C   0  0  0  0  0  0  0  0  0  0  0  0
  188.8710  177.3850  146.6050 C   0  0  0  0  0  3  0  0  0  0  0  0
  190.4910  176.3570  145.1160 C   0  0  0  0  0  0  0  0  0  0  0  0
  190.9530  175.6910  143.5510 Cl  0  0  0  0  0  0  0  0  0  0  0  0
  192.7700  175.7310  148.5980 O   0  0  0  0  0  1  0  0  0  0  0  0
  192.1060  176.9540  148.5050 C   0  0  0  0  0  2  0  0  0  0  0  0
  183.6730  178.0080  140.8360 C   0  0  0  0  0  2  0  0  0  0  0  0
  182.3870  178.3350  141.2690 O   0  0  0  0  0  1  0  0  0  0  0  0
  1  3  1  1  0  0  0
  3 18  1  0  0  0  0
  4  2  1  6  0  0  0
  4 10  1  0  0  0  0
  4  1  1  0  0  0  0
  5 17  1  0  0  0  0
  5  2  2  0  0  0  0
  6 20  1  0  0  0  0
  7  2  1  0  0  0  0
  7 14  1  0  0  0  0
  8  9  1  0  0  0  0
  9 11  2  0  0  0  0
  9 16  1  0  0  0  0
 10 13  1  0  0  0  0
 11  5  1  0  0  0  0
 12 10  2  0  0  0  0
 13 18  1  0  0  0  0
 14 15  1  0  0  0  0
 15  1  1  0  0  0  0
 15 24  1  1  0  0  0
 16  7  2  0  0  0  0
 17 31  1  1  0  0  0
 17 12  1  0  0  0  0
 19  8  1  0  0  0  0
 19  6  1  0  0  0  0
 20 16  1  0  0  0  0
 21 25  1  0  0  0  0
 22 21  1  0  0  0  0
 24 26  2  0  0  0  0
 25 23  2  0  0  0  0
 25 30  1  0  0  0  0
 26 23  1  0  0  0  0
 27 24  1  0  0  0  0
 27 21  2  0  0  0  0
 28 27  1  0  0  0  0
 30 29  1  0  0  0  0
 31 32  1  0  0  0  0
M  END
>  <MODEL>
1

>  <REMARK>
 VINA RESULT:      -9.6      0.000      0.000
  Name = 
  3 active torsions:
  status: ('A' for Active; 'I' for Inactive)
    1  A    between atoms: C_13  and  CA_29
    2  A    between atoms: C_16  and  C_27
    3  A    between atoms: C_19  and  C_26
                            x       y       z     vdW  Elec       q    Type
                         _______ _______ _______ _____ _____    ______ ____

>  <TORSDO>
F 3

$$$$
=
 OpenBabel10262421003D

 32 37  0  0  1  0  0  0  0  0999 V2000
  187.1370  178.0030  141.6880 N   0  0  2  0  0  0  0  0  0  0  0  0
  187.5700  177.9990  144.0910 C   0  0  0  0  0  0  0  0  0  0  0  0
  186.3140  178.6570  140.6670 C   0  0  0  0  0  2  0  0  0  0  0  0
  186.7240  178.5560  142.9880 C   0  0  2  0  0  3  0  0  0  0  0  0
  187.0580  177.8520  145.3820 C   0  0  0  0  0  0  0  0  0  0  0  0
  191.7890  176.0180  145.6620 C   0  0  0  0  0  2  0  0  0  0  0  0
  188.8980  177.6780  143.8270 C   0  0  0  0  0  0  0  0  0  0  0  0
  189.9710  176.5030  147.2930 C   0  0  0  0  0  2  0  0  0  0  0  0
  189.1670  177.0770  146.1590 C   0  0  0  0  0  0  0  0  0  0  0  0
  185.2630  178.2710  143.2400 C   0  0  0  0  0  0  0  0  0  0  0  0
  187.8620  177.3950  146.3790 N   0  0  0  0  0  0  0  0  0  0  0  0
  184.8010  178.1310  144.4500 N   0  0  0  0  0  0  0  0  0  0  0  0
  184.3740  178.2130  142.1220 N   0  0  0  0  0  2  0  0  0  0  0  0
  189.3790  177.8180  142.5190 O   0  0  0  0  0  0  0  0  0  0  0  0
  188.5580  178.3360  141.4640 C   0  0  1  0  0  3  0  0  0  0  0  0
  189.7130  177.1930  144.8570 C   0  0  0  0  0  0  0  0  0  0  0  0
  185.6310  178.2390  145.6600 C   0  0  2  0  0  3  0  0  0  0  0  0
  184.8840  178.1170  140.7540 C   0  0  0  0  0  2  0  0  0  0  0  0
  191.4730  176.5830  147.0390 C   0  0  0  0  0  2  0  0  0  0  0  0
  191.1680  176.9070  144.5890 C   0  0  0  0  0  2  0  0  0  0  0  0
  190.8090  176.9800  138.6720 C   0  0  0  0  0  0  0  0  0  0  0  0
  192.1070  176.6420  138.4560 F   0  0  0  0  0  0  0  0  0  0  0  0
  188.5330  177.1780  137.8640 C   0  0  0  0  0  3  0  0  0  0  0  0
  189.0580  177.8090  140.1460 C   0  0  0  0  0  0  0  0  0  0  0  0
  189.8700  176.8430  137.6390 C   0  0  0  0  0  0  0  0  0  0  0  0
  188.1320  177.6620  139.1100 C   0  0  0  0  0  3  0  0  0  0  0  0
  190.4120  177.4670  139.9270 C   0  0  0  0  0  0  0  0  0  0  0  0
  191.6210  177.6330  141.1970 Cl  0  0  0  0  0  0  0  0  0  0  0  0
  189.7500  177.1110  135.2970 O   0  0  0  0  0  1  0  0  0  0  0  0
  190.2730  176.3060  136.3090 C   0  0  0  0  0  2  0  0  0  0  0  0
  185.5830  179.6610  146.1990 C   0  0  0  0  0  2  0  0  0  0  0  0
  185.7090  179.6460  147.5890 O   0  0  0  0  0  1  0  0  0  0  0  0
  1  3  1  6  0  0  0
  1  4  1  0  0  0  0
  2  5  1  0  0  0  0
  3 18  1  0  0  0  0
  4 10  1  1  0  0  0
  4  2  1  0  0  0  0
  5 17  1  0  0  0  0
  5 11  2  0  0  0  0
  6 19  1  0  0  0  0
  7  2  2  0  0  0  0
  7 16  1  0  0  0  0
  9 11  1  0  0  0  0
  9  8  1  0  0  0  0
 10 12  2  0  0  0  0
 12 17  1  0  0  0  0
 13 10  1  0  0  0  0
 14  7  1  0  0  0  0
 15 24  1  6  0  0  0
 15  1  1  0  0  0  0
 15 14  1  0  0  0  0
 16  9  2  0  0  0  0
 17 31  1  6  0  0  0
 18 13  1  0  0  0  0
 19  8  1  0  0  0  0
 20 16  1  0  0  0  0
 20  6  1  0  0  0  0
 21 27  1  0  0  0  0
 22 21  1  0  0  0  0
 23 26  2  0  0  0  0
 25 23  1  0  0  0  0
 25 21  2  0  0  0  0
 26 24  1  0  0  0  0
 27 24  2  0  0  0  0
 27 28  1  0  0  0  0
 29 30  1  0  0  0  0
 30 25  1  0  0  0  0
 31 32  1  0  0  0  0
M  END
>  <MODEL>
2

>  <REMARK>
 VINA RESULT:      -9.5      2.522      6.500
  Name = 
  3 active torsions:
  status: ('A' for Active; 'I' for Inactive)
    1  A    between atoms: C_13  and  CA_29
    2  A    between atoms: C_16  and  C_27
    3  A    between atoms: C_19  and  C_26
                            x       y       z     vdW  Elec       q    Type
                         _______ _______ _______ _____ _____    ______ ____

>  <TORSDO>
F 3

$$$$
=
 OpenBabel10262421003D

 32 37  0  0  1  0  0  0  0  0999 V2000
  186.5740  178.0750  144.1620 N   0  0  2  0  0  0  0  0  0  0  0  0
  188.6660  177.8000  142.9340 C   0  0  0  0  0  0  0  0  0  0  0  0
  186.0420  178.5740  145.4330 C   0  0  0  0  0  2  0  0  0  0  0  0
  188.0380  178.2160  144.2270 C   0  0  2  0  0  3  0  0  0  0  0  0
  189.9540  177.2620  142.9030 C   0  0  0  0  0  0  0  0  0  0  0  0
  188.4030  177.1480  138.0650 C   0  0  0  0  0  2  0  0  0  0  0  0
  187.9680  178.0060  141.7470 C   0  0  0  0  0  0  0  0  0  0  0  0
  190.5380  176.6850  139.2580 C   0  0  0  0  0  2  0  0  0  0  0  0
  189.8740  177.1370  140.5300 C   0  0  0  0  0  0  0  0  0  0  0  0
  188.5930  177.4060  145.3740 C   0  0  0  0  0  0  0  0  0  0  0  0
  190.5250  176.9430  141.7100 N   0  0  0  0  0  0  0  0  0  0  0  0
  189.7960  176.9070  145.3290 N   0  0  0  0  0  0  0  0  0  0  0  0
  187.7920  177.2430  146.5470 N   0  0  0  0  0  2  0  0  0  0  0  0
  186.6710  178.5300  141.8090 O   0  0  0  0  0  0  0  0  0  0  0  0
  186.0690  178.9100  143.0540 C   0  0  1  0  0  3  0  0  0  0  0  0
  188.5590  177.6590  140.5260 C   0  0  0  0  0  0  0  0  0  0  0  0
  190.7110  177.0810  144.1910 C   0  0  2  0  0  3  0  0  0  0  0  0
  186.3660  177.5690  146.5420 C   0  0  0  0  0  2  0  0  0  0  0  0
  189.9140  177.3200  138.0200 C   0  0  0  0  0  2  0  0  0  0  0  0
  187.8320  177.9420  139.2360 C   0  0  0  0  0  2  0  0  0  0  0  0
  182.5160  178.7340  141.6240 C   0  0  0  0  0  0  0  0  0  0  0  0
  181.8790  178.7170  140.4250 F   0  0  0  0  0  0  0  0  0  0  0  0
  182.4270  178.6800  144.0450 C   0  0  0  0  0  3  0  0  0  0  0  0
  184.5720  178.8260  142.9230 C   0  0  0  0  0  0  0  0  0  0  0  0
  181.7720  178.6740  142.8110 C   0  0  0  0  0  0  0  0  0  0  0  0
  183.8190  178.7600  144.0990 C   0  0  0  0  0  3  0  0  0  0  0  0
  183.9160  178.8150  141.6720 C   0  0  0  0  0  0  0  0  0  0  0  0
  184.8150  178.8980  140.1590 Cl  0  0  0  0  0  0  0  0  0  0  0  0
  179.8360  177.8840  143.9070 O   0  0  0  0  0  1  0  0  0  0  0  0
  180.2860  178.5650  142.7760 C   0  0  0  0  0  2  0  0  0  0  0  0
  191.6140  178.2810  144.4270 C   0  0  0  0  0  2  0  0  0  0  0  0
  191.0490  179.4200  143.8510 O   0  0  0  0  0  1  0  0  0  0  0  0
  1  4  1  0  0  0  0
  1  3  1  1  0  0  0
  3 18  1  0  0  0  0
  4  2  1  6  0  0  0
  4 10  1  0  0  0  0
  5  2  1  0  0  0  0
  5 17  1  0  0  0  0
  6 20  1  0  0  0  0
  7 14  1  0  0  0  0
  7  2  2  0  0  0  0
  8  9  1  0  0  0  0
  9 11  1  0  0  0  0
 10 13  1  0  0  0  0
 11  5  2  0  0  0  0
 12 10  2  0  0  0  0
 14 15  1  0  0  0  0
 15 24  1  6  0  0  0
 15  1  1  0  0  0  0
 16  9  2  0  0  0  0
 16  7  1  0  0  0  0
 17 31  1  1  0  0  0
 17 12  1  0  0  0  0
 18 13  1  0  0  0  0
 19  6  1  0  0  0  0
 19  8  1  0  0  0  0
 20 16  1  0  0  0  0
 21 27  2  0  0  0  0
 21 25  1  0  0  0  0
 22 21  1  0  0  0  0
 23 26  1  0  0  0  0
 24 26  2  0  0  0  0
 25 23  2  0  0  0  0
 27 24  1  0  0  0  0
 28 27  1  0  0  0  0
 30 25  1  0  0  0  0
 30 29  1  0  0  0  0
 32 31  1  0  0  0  0
M  END
>  <MODEL>
3

>  <REMARK>
 VINA RESULT:      -9.4      3.401      6.570
  Name = 
  3 active torsions:
  status: ('A' for Active; 'I' for Inactive)
    1  A    between atoms: C_13  and  CA_29
    2  A    between atoms: C_16  and  C_27
    3  A    between atoms: C_19  and  C_26
                            x       y       z     vdW  Elec       q    Type
                         _______ _______ _______ _____ _____    ______ ____

>  <TORSDO>
F 3

$$$$
=
 OpenBabel10262421003D

 32 37  0  0  1  0  0  0  0  0999 V2000
  189.5860  177.5800  142.6310 N   0  0  2  0  0  0  0  0  0  0  0  0
  187.8970  177.7330  144.3880 C   0  0  0  0  0  0  0  0  0  0  0  0
  190.9020  177.0020  142.3450 C   0  0  0  0  0  2  0  0  0  0  0  0
  189.2670  177.2450  144.0280 C   0  0  2  0  0  3  0  0  0  0  0  0
  187.5890  178.0990  145.6990 C   0  0  0  0  0  0  0  0  0  0  0  0
  183.3300  179.0070  143.0800 C   0  0  0  0  0  2  0  0  0  0  0  0
  186.9130  177.7650  143.4050 C   0  0  0  0  0  0  0  0  0  0  0  0
  183.9800  179.0400  145.4830 C   0  0  0  0  0  2  0  0  0  0  0  0
  185.3330  178.5250  145.0780 C   0  0  0  0  0  0  0  0  0  0  0  0
  190.3020  177.8290  144.9590 C   0  0  0  0  0  0  0  0  0  0  0  0
  186.3230  178.4870  146.0130 N   0  0  0  0  0  0  0  0  0  0  0  0
  189.9980  178.1720  146.1790 N   0  0  0  0  0  0  0  0  0  0  0  0
  191.6490  177.9490  144.4950 N   0  0  0  0  0  2  0  0  0  0  0  0
  187.2550  177.4100  142.0940 O   0  0  0  0  0  0  0  0  0  0  0  0
  188.5730  176.9600  141.7540 C   0  0  1  0  0  3  0  0  0  0  0  0
  185.6170  178.1810  143.7340 C   0  0  0  0  0  0  0  0  0  0  0  0
  188.6540  178.0220  146.7590 C   0  0  2  0  0  3  0  0  0  0  0  0
  191.9760  177.8130  143.0760 C   0  0  0  0  0  2  0  0  0  0  0  0
  182.8890  178.6480  144.4910 C   0  0  0  0  0  2  0  0  0  0  0  0
  184.5340  178.1540  142.6870 C   0  0  0  0  0  2  0  0  0  0  0  0
  188.2450  178.2330  138.1520 C   0  0  0  0  0  0  0  0  0  0  0  0
  187.3930  178.9550  137.3800 F   0  0  0  0  0  0  0  0  0  0  0  0
  190.3110  176.9900  138.3950 C   0  0  0  0  0  3  0  0  0  0  0  0
  188.8340  177.2510  140.3010 C   0  0  0  0  0  0  0  0  0  0  0  0
  189.4280  177.7220  137.5980 C   0  0  0  0  0  0  0  0  0  0  0  0
  190.0120  176.7530  139.7370 C   0  0  0  0  0  3  0  0  0  0  0  0
  187.9390  177.9980  139.5010 C   0  0  0  0  0  0  0  0  0  0  0  0
  186.4390  178.6480  140.1590 Cl  0  0  0  0  0  0  0  0  0  0  0  0
  189.3270  176.9290  135.3770 O   0  0  0  0  0  1  0  0  0  0  0  0
  189.7770  177.9830  136.1730 C   0  0  0  0  0  2  0  0  0  0  0  0
  188.5490  176.6960  147.4940 C   0  0  0  0  0  2  0  0  0  0  0  0
  187.9000  176.8800  148.7160 O   0  0  0  0  0  1  0  0  0  0  0  0
  1  3  1  6  0  0  0
  1  4  1  0  0  0  0
  2  5  1  0  0  0  0
  3 18  1  0  0  0  0
  4  2  1  1  0  0  0
  4 10  1  0  0  0  0
  5 11  2  0  0  0  0
  5 17  1  0  0  0  0
  6 19  1  0  0  0  0
  7 16  1  0  0  0  0
  7  2  2  0  0  0  0
  9  8  1  0  0  0  0
  9 11  1  0  0  0  0
 10 12  2  0  0  0  0
 12 17  1  0  0  0  0
 13 10  1  0  0  0  0
 14  7  1  0  0  0  0
 15 24  1  6  0  0  0
 15 14  1  0  0  0  0
 15  1  1  0  0  0  0
 16  9  2  0  0  0  0
 17 31  1  6  0  0  0
 18 13  1  0  0  0  0
 19  8  1  0  0  0  0
 20  6  1  0  0  0  0
 20 16  1  0  0  0  0
 21 27  1  0  0  0  0
 22 21  1  0  0  0  0
 23 26  2  0  0  0  0
 25 21  2  0  0  0  0
 25 23  1  0  0  0  0
 26 24  1  0  0  0  0
 27 28  1  0  0  0  0
 27 24  2  0  0  0  0
 29 30  1  0  0  0  0
 30 25  1  0  0  0  0
 31 32  1  0  0  0  0
M  END
>  <MODEL>
4

>  <REMARK>
 VINA RESULT:      -9.3      3.189      7.333
  Name = 
  3 active torsions:
  status: ('A' for Active; 'I' for Inactive)
    1  A    between atoms: C_13  and  CA_29
    2  A    between atoms: C_16  and  C_27
    3  A    between atoms: C_19  and  C_26
                            x       y       z     vdW  Elec       q    Type
                         _______ _______ _______ _____ _____    ______ ____

>  <TORSDO>
F 3

$$$$
=
 OpenBabel10262421003D

 32 37  0  0  1  0  0  0  0  0999 V2000
  187.0720  177.8480  142.4590 N   0  0  2  0  0  0  0  0  0  0  0  0
  188.5770  177.6370  140.5480 C   0  0  0  0  0  0  0  0  0  0  0  0
  187.0650  178.1640  143.8910 C   0  0  0  0  0  2  0  0  0  0  0  0
  188.4780  177.8750  142.0230 C   0  0  2  0  0  3  0  0  0  0  0  0
  189.7030  177.0240  139.9950 C   0  0  0  0  0  0  0  0  0  0  0  0
  186.6090  177.8250  136.0440 C   0  0  0  0  0  2  0  0  0  0  0  0
  187.5500  178.0860  139.7220 C   0  0  0  0  0  0  0  0  0  0  0  0
  188.9470  177.0230  136.3360 C   0  0  0  0  0  2  0  0  0  0  0  0
  188.8120  177.3020  137.8080 C   0  0  0  0  0  0  0  0  0  0  0  0
  189.2830  176.8490  142.7830 C   0  0  0  0  0  0  0  0  0  0  0  0
  189.7940  176.8690  138.6470 N   0  0  0  0  0  0  0  0  0  0  0  0
  190.3290  176.2810  142.2520 N   0  0  0  0  0  0  0  0  0  0  0  0
  188.9110  176.5480  144.1310 N   0  0  0  0  0  2  0  0  0  0  0  0
  186.4250  178.6810  140.3050 O   0  0  0  0  0  0  0  0  0  0  0  0
  186.3300  178.8900  141.7210 C   0  0  1  0  0  3  0  0  0  0  0  0
  187.6470  177.9070  138.3360 C   0  0  0  0  0  0  0  0  0  0  0  0
  190.8210  176.5790  140.8980 C   0  0  2  0  0  3  0  0  0  0  0  0
  187.6180  176.9690  144.6710 C   0  0  0  0  0  2  0  0  0  0  0  0
  188.0250  177.8970  135.4920 C   0  0  0  0  0  2  0  0  0  0  0  0
  186.5680  178.4510  137.4350 C   0  0  0  0  0  2  0  0  0  0  0  0
  182.5050  178.6180  141.6730 C   0  0  0  0  0  0  0  0  0  0  0  0
  181.5010  178.2500  140.8360 F   0  0  0  0  0  0  0  0  0  0  0  0
  183.2410  179.4310  143.8340 C   0  0  0  0  0  3  0  0  0  0  0  0
  184.8780  178.9320  142.1160 C   0  0  0  0  0  0  0  0  0  0  0  0
  182.2070  179.0640  142.9690 C   0  0  0  0  0  0  0  0  0  0  0  0
  184.5670  179.3680  143.4070 C   0  0  0  0  0  3  0  0  0  0  0  0
  183.8380  178.5540  141.2380 C   0  0  0  0  0  0  0  0  0  0  0  0
  184.1720  177.9980  139.6000 Cl  0  0  0  0  0  0  0  0  0  0  0  0
  180.1880  180.2870  143.0030 O   0  0  0  0  0  1  0  0  0  0  0  0
  180.7990  179.1150  143.4520 C   0  0  0  0  0  2  0  0  0  0  0  0
  191.8900  177.6580  140.9570 C   0  0  0  0  0  2  0  0  0  0  0  0
  192.8940  177.3820  140.0280 O   0  0  0  0  0  1  0  0  0  0  0  0
  1  3  1  1  0  0  0
  3 18  1  0  0  0  0
  4  2  1  6  0  0  0
  4  1  1  0  0  0  0
  4 10  1  0  0  0  0
  5  2  1  0  0  0  0
  5 17  1  0  0  0  0
  6 20  1  0  0  0  0
  7 14  1  0  0  0  0
  7  2  2  0  0  0  0
  8  9  1  0  0  0  0
  9 16  2  0  0  0  0
  9 11  1  0  0  0  0
 10 13  1  0  0  0  0
 11  5  2  0  0  0  0
 12 10  2  0  0  0  0
 13 18  1  0  0  0  0
 14 15  1  0  0  0  0
 15 24  1  1  0  0  0
 15  1  1  0  0  0  0
 16  7  1  0  0  0  0
 17 31  1  1  0  0  0
 17 12  1  0  0  0  0
 19  6  1  0  0  0  0
 19  8  1  0  0  0  0
 20 16  1  0  0  0  0
 21 25  1  0  0  0  0
 22 21  1  0  0  0  0
 24 26  2  0  0  0  0
 25 30  1  0  0  0  0
 25 23  2  0  0  0  0
 26 23  1  0  0  0  0
 27 21  2  0  0  0  0
 27 24  1  0  0  0  0
 28 27  1  0  0  0  0
 29 30  1  0  0  0  0
 32 31  1  0  0  0  0
M  END
>  <MODEL>
5

>  <REMARK>
 VINA RESULT:      -9.1      3.887      6.812
  Name = 
  3 active torsions:
  status: ('A' for Active; 'I' for Inactive)
    1  A    between atoms: C_13  and  CA_29
    2  A    between atoms: C_16  and  C_27
    3  A    between atoms: C_19  and  C_26
                            x       y       z     vdW  Elec       q    Type
                         _______ _______ _______ _____ _____    ______ ____

>  <TORSDO>
F 3

$$$$
=
 OpenBabel10262421003D

 32 37  0  0  1  0  0  0  0  0999 V2000
  186.5050  177.8590  143.0600 N   0  0  2  0  0  0  0  0  0  0  0  0
  188.5670  177.7570  141.7560 C   0  0  0  0  0  0  0  0  0  0  0  0
  185.9950  178.2320  144.3820 C   0  0  0  0  0  2  0  0  0  0  0  0
  187.9650  178.0440  143.0970 C   0  0  2  0  0  3  0  0  0  0  0  0
  189.8700  177.2680  141.6460 C   0  0  0  0  0  0  0  0  0  0  0  0
  188.1790  177.5020  136.8590 C   0  0  0  0  0  2  0  0  0  0  0  0
  187.8280  178.0380  140.6100 C   0  0  0  0  0  0  0  0  0  0  0  0
  190.3630  177.0150  137.9510 C   0  0  0  0  0  2  0  0  0  0  0  0
  189.7230  177.3370  139.2730 C   0  0  0  0  0  0  0  0  0  0  0  0
  188.5790  177.1610  144.1560 C   0  0  0  0  0  0  0  0  0  0  0  0
  190.4150  177.0680  140.4150 N   0  0  0  0  0  0  0  0  0  0  0  0
  189.7950  176.7070  144.0370 N   0  0  0  0  0  0  0  0  0  0  0  0
  187.8190  176.8740  145.3330 N   0  0  0  0  0  2  0  0  0  0  0  0
  186.5170  178.5100  140.7510 O   0  0  0  0  0  0  0  0  0  0  0  0
  185.9410  178.7660  142.0390 C   0  0  1  0  0  3  0  0  0  0  0  0
  188.3920  177.8130  139.3480 C   0  0  0  0  0  0  0  0  0  0  0  0
  190.6700  177.0060  142.8930 C   0  0  2  0  0  3  0  0  0  0  0  0
  186.3840  177.1510  145.3930 C   0  0  0  0  0  2  0  0  0  0  0  0
  189.6810  177.7290  136.7870 C   0  0  0  0  0  2  0  0  0  0  0  0
  187.6180  178.1770  138.1080 C   0  0  0  0  0  2  0  0  0  0  0  0
  182.1830  179.0820  142.7300 C   0  0  0  0  0  0  0  0  0  0  0  0
  181.3360  179.6550  143.6230 F   0  0  0  0  0  0  0  0  0  0  0  0
  182.5390  177.7540  140.7340 C   0  0  0  0  0  3  0  0  0  0  0  0
  184.4450  178.6430  141.9430 C   0  0  0  0  0  0  0  0  0  0  0  0
  181.6690  178.3340  141.6600 C   0  0  0  0  0  0  0  0  0  0  0  0
  183.9180  177.9060  140.8780 C   0  0  0  0  0  3  0  0  0  0  0  0
  183.5690  179.2360  142.8800 C   0  0  0  0  0  0  0  0  0  0  0  0
  184.1770  180.1750  144.2420 Cl  0  0  0  0  0  0  0  0  0  0  0  0
  179.6640  177.4430  142.5310 O   0  0  0  0  0  1  0  0  0  0  0  0
  180.1990  178.1800  141.4740 C   0  0  0  0  0  2  0  0  0  0  0  0
  191.5410  178.2120  143.2040 C   0  0  0  0  0  2  0  0  0  0  0  0
  191.8610  178.2300  144.5620 O   0  0  0  0  0  1  0  0  0  0  0  0
  1  4  1  0  0  0  0
  1  3  1  1  0  0  0
  3 18  1  0  0  0  0
  4  2  1  6  0  0  0
  4 10  1  0  0  0  0
  5  2  1  0  0  0  0
  5 17  1  0  0  0  0
  6 20  1  0  0  0  0
  7 14  1  0  0  0  0
  7  2  2  0  0  0  0
  8  9  1  0  0  0  0
  9 16  2  0  0  0  0
  9 11  1  0  0  0  0
 10 13  1  0  0  0  0
 11  5  2  0  0  0  0
 12 10  2  0  0  0  0
 13 18  1  0  0  0  0
 14 15  1  0  0  0  0
 15 24  1  6  0  0  0
 15  1  1  0  0  0  0
 16  7  1  0  0  0  0
 17 31  1  1  0  0  0
 17 12  1  0  0  0  0
 19  6  1  0  0  0  0
 19  8  1  0  0  0  0
 20 16  1  0  0  0  0
 21 27  1  0  0  0  0
 21 22  1  0  0  0  0
 23 26  2  0  0  0  0
 23 25  1  0  0  0  0
 24 27  2  0  0  0  0
 25 21  2  0  0  0  0
 26 24  1  0  0  0  0
 27 28  1  0  0  0  0
 30 25  1  0  0  0  0
 30 29  1  0  0  0  0
 31 32  1  0  0  0  0
M  END
>  <MODEL>
6

>  <REMARK>
 VINA RESULT:      -9.0      3.498      6.848
  Name = 
  3 active torsions:
  status: ('A' for Active; 'I' for Inactive)
    1  A    between atoms: C_13  and  CA_29
    2  A    between atoms: C_16  and  C_27
    3  A    between atoms: C_19  and  C_26
                            x       y       z     vdW  Elec       q    Type
                         _______ _______ _______ _____ _____    ______ ____

>  <TORSDO>
F 3

$$$$
=
 OpenBabel10262421003D

 32 37  0  0  1  0  0  0  0  0999 V2000
  185.8360  178.6300  139.1280 N   0  0  2  0  0  0  0  0  0  0  0  0
  186.6480  178.1170  141.3730 C   0  0  0  0  0  0  0  0  0  0  0  0
  186.0690  178.3090  137.7170 C   0  0  0  0  0  2  0  0  0  0  0  0
  186.8570  177.9080  139.9050 C   0  0  2  0  0  3  0  0  0  0  0  0
  187.7260  178.0910  142.2600 C   0  0  0  0  0  0  0  0  0  0  0  0
  183.6920  179.1260  145.1720 C   0  0  0  0  0  2  0  0  0  0  0  0
  185.3520  178.2850  141.8540 C   0  0  0  0  0  0  0  0  0  0  0  0
  186.0930  178.6140  145.5800 C   0  0  0  0  0  2  0  0  0  0  0  0
  186.2510  178.3880  144.1020 C   0  0  0  0  0  0  0  0  0  0  0  0
  188.2400  178.3520  139.4950 C   0  0  0  0  0  0  0  0  0  0  0  0
  187.5050  178.2280  143.5960 N   0  0  0  0  0  0  0  0  0  0  0  0
  189.2350  178.3270  140.3360 N   0  0  0  0  0  0  0  0  0  0  0  0
  188.4570  178.7490  138.1390 N   0  0  0  0  0  2  0  0  0  0  0  0
  184.2930  178.3250  140.9390 O   0  0  0  0  0  0  0  0  0  0  0  0
  184.5030  178.1410  139.5330 C   0  0  1  0  0  3  0  0  0  0  0  0
  185.1380  178.4410  143.2290 C   0  0  0  0  0  0  0  0  0  0  0  0
  189.1160  177.8710  141.7300 C   0  0  2  0  0  3  0  0  0  0  0  0
  187.3350  179.0260  137.2420 C   0  0  0  0  0  2  0  0  0  0  0  0
  184.6660  178.3630  146.0570 C   0  0  0  0  0  2  0  0  0  0  0  0
  183.7310  178.5570  143.7570 C   0  0  0  0  0  2  0  0  0  0  0  0
  181.6270  178.8810  137.1060 C   0  0  0  0  0  0  0  0  0  0  0  0
  180.8940  178.2620  136.1450 F   0  0  0  0  0  0  0  0  0  0  0  0
  182.1140  180.8550  138.4250 C   0  0  0  0  0  3  0  0  0  0  0  0
  183.3990  178.8280  138.7760 C   0  0  0  0  0  0  0  0  0  0  0  0
  181.3680  180.2220  137.4280 C   0  0  0  0  0  0  0  0  0  0  0  0
  183.1250  180.1620  139.0910 C   0  0  0  0  0  3  0  0  0  0  0  0
  182.6440  178.1800  137.7720 C   0  0  0  0  0  0  0  0  0  0  0  0
  182.9460  176.5010  137.3330 Cl  0  0  0  0  0  0  0  0  0  0  0  0
  180.7100  181.3960  135.4890 O   0  0  0  0  0  1  0  0  0  0  0  0
  180.2770  180.9720  136.7460 C   0  0  0  0  0  2  0  0  0  0  0  0
  189.4730  176.3960  141.8280 C   0  0  0  0  0  2  0  0  0  0  0  0
  190.3380  176.1880  142.9030 O   0  0  0  0  0  1  0  0  0  0  0  0
  1  3  1  6  0  0  0
  1 15  1  0  0  0  0
  1  4  1  0  0  0  0
  2  7  2  0  0  0  0
  2  5  1  0  0  0  0
  4 10  1  6  0  0  0
  4  2  1  0  0  0  0
  5 11  2  0  0  0  0
  6 19  1  0  0  0  0
  7 16  1  0  0  0  0
  8 19  1  0  0  0  0
  9  8  1  0  0  0  0
 10 12  2  0  0  0  0
 11  9  1  0  0  0  0
 12 17  1  0  0  0  0
 13 10  1  0  0  0  0
 14  7  1  0  0  0  0
 15 24  1  6  0  0  0
 15 14  1  0  0  0  0
 16 20  1  0  0  0  0
 16  9  2  0  0  0  0
 17 31  1  6  0  0  0
 17  5  1  0  0  0  0
 18  3  1  0  0  0  0
 18 13  1  0  0  0  0
 20  6  1  0  0  0  0
 21 25  2  0  0  0  0
 21 27  1  0  0  0  0
 22 21  1  0  0  0  0
 23 26  2  0  0  0  0
 24 26  1  0  0  0  0
 25 23  1  0  0  0  0
 27 24  2  0  0  0  0
 28 27  1  0  0  0  0
 29 30  1  0  0  0  0
 30 25  1  0  0  0  0
 31 32  1  0  0  0  0
M  END
>  <MODEL>
7

>  <REMARK>
 VINA RESULT:      -9.0      4.337      9.178
  Name = 
  3 active torsions:
  status: ('A' for Active; 'I' for Inactive)
    1  A    between atoms: C_13  and  CA_29
    2  A    between atoms: C_16  and  C_27
    3  A    between atoms: C_19  and  C_26
                            x       y       z     vdW  Elec       q    Type
                         _______ _______ _______ _____ _____    ______ ____

>  <TORSDO>
F 3

$$$$
=
 OpenBabel10262421003D

 32 37  0  0  1  0  0  0  0  0999 V2000
  189.0230  177.5260  140.5840 N   0  0  2  0  0  0  0  0  0  0  0  0
  187.0090  178.0530  139.3070 C   0  0  0  0  0  0  0  0  0  0  0  0
  190.4850  177.5350  140.4850 C   0  0  0  0  0  2  0  0  0  0  0  0
  188.5040  177.9580  139.2760 C   0  0  2  0  0  3  0  0  0  0  0  0
  186.2540  177.8370  138.1540 C   0  0  0  0  0  0  0  0  0  0  0  0
  182.8160  178.6980  141.7960 C   0  0  0  0  0  2  0  0  0  0  0  0
  186.3810  178.4160  140.4960 C   0  0  0  0  0  0  0  0  0  0  0  0
  182.7510  178.4060  139.3240 C   0  0  0  0  0  2  0  0  0  0  0  0
  184.2540  178.3430  139.3370 C   0  0  0  0  0  0  0  0  0  0  0  0
  188.9550  177.0100  138.1920 C   0  0  0  0  0  0  0  0  0  0  0  0
  184.9020  177.9840  138.1940 N   0  0  0  0  0  0  0  0  0  0  0  0
  188.2360  176.8140  137.1230 N   0  0  0  0  0  0  0  0  0  0  0  0
  190.2240  176.3660  138.3310 N   0  0  0  0  0  2  0  0  0  0  0  0
  187.1630  178.6080  141.6410 O   0  0  0  0  0  0  0  0  0  0  0  0
  188.5920  178.4990  141.6080 C   0  0  1  0  0  3  0  0  0  0  0  0
  184.9870  178.5480  140.5300 C   0  0  0  0  0  0  0  0  0  0  0  0
  186.9510  177.4840  136.8680 C   0  0  2  0  0  3  0  0  0  0  0  0
  190.9360  176.3640  139.6080 C   0  0  0  0  0  2  0  0  0  0  0  0
  182.1940  179.2010  140.5010 C   0  0  0  0  0  2  0  0  0  0  0  0
  184.3110  179.0040  141.7970 C   0  0  0  0  0  2  0  0  0  0  0  0
  188.7780  177.2710  145.2360 C   0  0  0  0  0  0  0  0  0  0  0  0
  187.9740  176.7510  146.1980 F   0  0  0  0  0  0  0  0  0  0  0  0
  190.9680  178.0130  144.5090 C   0  0  0  0  0  3  0  0  0  0  0  0
  189.0900  178.1300  142.9790 C   0  0  0  0  0  0  0  0  0  0  0  0
  190.1380  177.4880  145.5030 C   0  0  0  0  0  0  0  0  0  0  0  0
  190.4450  178.3350  143.2570 C   0  0  0  0  0  3  0  0  0  0  0  0
  188.2460  177.5940  143.9780 C   0  0  0  0  0  0  0  0  0  0  0  0
  186.5320  177.3160  143.6830 Cl  0  0  0  0  0  0  0  0  0  0  0  0
  192.0550  176.7510  146.6660 O   0  0  0  0  0  1  0  0  0  0  0  0
  190.7220  177.1300  146.8260 C   0  0  0  0  0  2  0  0  0  0  0  0
  187.1730  178.7420  136.0440 C   0  0  0  0  0  2  0  0  0  0  0  0
  187.3630  178.4050  134.7040 O   0  0  0  0  0  1  0  0  0  0  0  0
  1  3  1  6  0  0  0
  1 15  1  0  0  0  0
  2  7  1  0  0  0  0
  4 10  1  6  0  0  0
  4  2  1  0  0  0  0
  4  1  1  0  0  0  0
  5 11  1  0  0  0  0
  5  2  2  0  0  0  0
  6 20  1  0  0  0  0
  7 16  2  0  0  0  0
  7 14  1  0  0  0  0
  8  9  1  0  0  0  0
  8 19  1  0  0  0  0
  9 16  1  0  0  0  0
 10 13  1  0  0  0  0
 11  9  2  0  0  0  0
 12 10  2  0  0  0  0
 13 18  1  0  0  0  0
 15 14  1  0  0  0  0
 15 24  1  1  0  0  0
 16 20  1  0  0  0  0
 17 31  1  1  0  0  0
 17 12  1  0  0  0  0
 17  5  1  0  0  0  0
 18  3  1  0  0  0  0
 19  6  1  0  0  0  0
 21 25  1  0  0  0  0
 21 22  1  0  0  0  0
 23 25  2  0  0  0  0
 24 26  2  0  0  0  0
 24 27  1  0  0  0  0
 25 30  1  0  0  0  0
 26 23  1  0  0  0  0
 27 21  2  0  0  0  0
 28 27  1  0  0  0  0
 29 30  1  0  0  0  0
 32 31  1  0  0  0  0
M  END
>  <MODEL>
8

>  <REMARK>
 VINA RESULT:      -8.8      2.653      5.217
  Name = 
  3 active torsions:
  status: ('A' for Active; 'I' for Inactive)
    1  A    between atoms: C_13  and  CA_29
    2  A    between atoms: C_16  and  C_27
    3  A    between atoms: C_19  and  C_26
                            x       y       z     vdW  Elec       q    Type
                         _______ _______ _______ _____ _____    ______ ____

>  <TORSDO>
F 3

$$$$
=
 OpenBabel10262421003D

 32 37  0  0  1  0  0  0  0  0999 V2000
  189.0140  177.5320  141.5930 N   0  0  2  0  0  0  0  0  0  0  0  0
  187.4850  178.1410  139.7890 C   0  0  0  0  0  0  0  0  0  0  0  0
  190.4380  177.5200  141.9410 C   0  0  0  0  0  2  0  0  0  0  0  0
  188.9180  178.0230  140.2080 C   0  0  2  0  0  3  0  0  0  0  0  0
  187.1130  177.9820  138.4530 C   0  0  0  0  0  0  0  0  0  0  0  0
  182.7370  178.7620  140.9160 C   0  0  0  0  0  2  0  0  0  0  0  0
  186.5270  178.4690  140.7450 C   0  0  0  0  0  0  0  0  0  0  0  0
  183.4240  178.5650  138.5310 C   0  0  0  0  0  2  0  0  0  0  0  0
  184.8510  178.4760  138.9960 C   0  0  0  0  0  0  0  0  0  0  0  0
  189.6720  177.1080  139.2730 C   0  0  0  0  0  0  0  0  0  0  0  0
  185.8140  178.1490  138.0890 N   0  0  0  0  0  0  0  0  0  0  0  0
  189.3100  176.9650  138.0290 N   0  0  0  0  0  0  0  0  0  0  0  0
  190.8360  176.4390  139.7620 N   0  0  0  0  0  2  0  0  0  0  0  0
  186.9260  178.6050  142.0810 O   0  0  0  0  0  0  0  0  0  0  0  0
  188.2980  178.4730  142.4770 C   0  0  1  0  0  3  0  0  0  0  0  0
  185.1890  178.6240  140.3620 C   0  0  0  0  0  0  0  0  0  0  0  0
  188.1650  177.6650  137.4250 C   0  0  2  0  0  3  0  0  0  0  0  0
  191.1280  176.3760  141.1940 C   0  0  0  0  0  2  0  0  0  0  0  0
  182.5390  179.3240  139.5160 C   0  0  0  0  0  2  0  0  0  0  0  0
  184.1630  179.0420  141.3830 C   0  0  0  0  0  2  0  0  0  0  0  0
  189.4800  177.8260  146.0670 C   0  0  0  0  0  0  0  0  0  0  0  0
  190.5680  178.0260  146.8530 F   0  0  0  0  0  0  0  0  0  0  0  0
  187.2200  176.9960  145.7870 C   0  0  0  0  0  3  0  0  0  0  0  0
  188.3550  178.0440  143.9180 C   0  0  0  0  0  0  0  0  0  0  0  0
  188.3440  177.1920  146.5930 C   0  0  0  0  0  0  0  0  0  0  0  0
  187.2280  177.4170  144.4570 C   0  0  0  0  0  3  0  0  0  0  0  0
  189.4940  178.2500  144.7290 C   0  0  0  0  0  0  0  0  0  0  0  0
  190.9420  179.0340  144.1020 Cl  0  0  0  0  0  0  0  0  0  0  0  0
  188.0940  177.8610  148.8430 O   0  0  0  0  0  1  0  0  0  0  0  0
  188.3050  176.7560  148.0170 C   0  0  0  0  0  2  0  0  0  0  0  0
  188.6330  178.9500  136.7600 C   0  0  0  0  0  2  0  0  0  0  0  0
  187.5600  179.8330  136.6260 O   0  0  0  0  0  1  0  0  0  0  0  0
  1  3  1  1  0  0  0
  1 15  1  0  0  0  0
  2  4  1  0  0  0  0
  2  7  1  0  0  0  0
  4 10  1  6  0  0  0
  4  1  1  0  0  0  0
  5  2  2  0  0  0  0
  6 20  1  0  0  0  0
  7 14  1  0  0  0  0
  8  9  1  0  0  0  0
  8 19  1  0  0  0  0
  9 16  1  0  0  0  0
 10 13  1  0  0  0  0
 11  5  1  0  0  0  0
 11  9  2  0  0  0  0
 12 10  2  0  0  0  0
 13 18  1  0  0  0  0
 14 15  1  0  0  0  0
 15 24  1  1  0  0  0
 16  7  2  0  0  0  0
 16 20  1  0  0  0  0
 17 31  1  1  0  0  0
 17 12  1  0  0  0  0
 17  5  1  0  0  0  0
 18  3  1  0  0  0  0
 19  6  1  0  0  0  0
 21 25  1  0  0  0  0
 21 22  1  0  0  0  0
 23 25  2  0  0  0  0
 24 26  2  0  0  0  0
 24 27  1  0  0  0  0
 25 30  1  0  0  0  0
 26 23  1  0  0  0  0
 27 21  2  0  0  0  0
 28 27  1  0  0  0  0
 30 29  1  0  0  0  0
 32 31  1  0  0  0  0
M  END
>  <MODEL>
9

>  <REMARK>
 VINA RESULT:      -8.7      2.576      4.886
  Name = 
  3 active torsions:
  status: ('A' for Active; 'I' for Inactive)
    1  A    between atoms: C_13  and  CA_29
    2  A    between atoms: C_16  and  C_27
    3  A    between atoms: C_19  and  C_26
                            x       y       z     vdW  Elec       q    Type
                         _______ _______ _______ _____ _____    ______ ____

>  <TORSDO>
F 3

$$$$
