=
 OpenBabel10262421063D

 32 34  0  0  1  0  0  0  0  0999 V2000
  189.3070  178.4960  140.1400 C   0  0  2  0  0  3  0  0  0  0  0  0
  187.7970  178.2470  140.2470 C   0  0  2  0  0  0  0  0  0  0  0  0
  189.9870  177.9740  138.8590 C   0  0  2  0  0  3  0  0  0  0  0  0
  188.7710  177.3440  140.9990 C   0  0  2  0  0  3  0  0  0  0  0  0
  189.0360  177.7560  137.6800 C   0  0  1  0  0  3  0  0  0  0  0  0
  190.7560  176.8320  139.1220 O   0  0  0  0  0  1  0  0  0  0  0  0
  187.0300  177.5210  139.1310 C   0  0  0  0  0  2  0  0  0  0  0  0
  189.8010  177.2300  136.4730 C   0  0  0  0  0  1  0  0  0  0  0  0
  187.9060  176.8210  138.0960 C   0  0  1  0  0  3  0  0  0  0  0  0
  191.4740  177.4980  142.4930 C   0  0  0  0  0  2  0  0  0  0  0  0
  189.9320  175.4460  143.1430 C   0  0  0  0  0  2  0  0  0  0  0  0
  188.7990  176.4410  143.3640 C   0  0  0  0  0  2  0  0  0  0  0  0
  188.9490  177.6840  142.4820 C   0  0  0  0  0  3  0  0  0  0  0  0
  191.5100  176.1510  143.7160 S   0  0  0  0  0  0  0  0  0  0  0  0
  190.2730  178.4050  142.7430 C   0  0  0  0  0  2  0  0  0  0  0  0
  186.9970  179.2500  141.0910 C   0  0  0  0  0  2  0  0  0  0  0  0
  185.6040  178.7710  141.5150 C   0  0  2  0  0  3  0  0  0  0  0  0
  184.6610  179.7810  139.5750 O   0  0  0  0  0  0  0  0  0  0  0  0
  184.5880  178.8400  140.4110 C   0  0  0  0  0  0  0  0  0  0  0  0
  183.0820  177.3740  139.1540 C   0  0  0  0  0  2  0  0  0  0  0  0
  183.5030  177.8490  140.3180 C   0  0  0  0  0  3  0  0  0  0  0  0
  185.1460  179.4110  142.8230 C   0  0  0  0  0  2  0  0  0  0  0  0
  185.3330  178.4780  143.9770 C   0  0  0  0  0  0  0  0  0  0  0  0
  185.7530  177.3100  143.7670 O   0  0  0  0  0  0  0  0  0  0  0  0
  185.0330  178.9110  145.3470 C   0  0  0  0  0  0  0  0  0  0  0  0
  183.8380  179.1060  145.7010 O   0  0  0  0  0  0  0  0  0  0  0  0
  186.0790  179.1070  146.2510 O   0  0  0  0  0  0  0  0  0  0  0  0
  188.0030  177.7700  146.7450 C   0  0  0  0  0  1  0  0  0  0  0  0
  186.5570  178.0620  147.0830 C   0  0  0  0  0  2  0  0  0  0  0  0
  187.0830  176.4660  136.9490 N   0  0  0  0  0  2  0  0  0  0  0  0
  185.9340  177.3560  136.9560 C   0  0  0  0  0  2  0  0  0  0  0  0
  185.1390  177.1620  135.6830 C   0  0  0  0  0  1  0  0  0  0  0  0
  1  2  1  0  0  0  0
  1  4  1  0  0  0  0
  2  4  1  0  0  0  0
  2 16  1  0  0  0  0
  3  6  1  0  0  0  0
  3  1  1  0  0  0  0
  4 13  1  0  0  0  0
  5  9  1  0  0  0  0
  5  3  1  0  0  0  0
  7  2  1  0  0  0  0
  8  5  1  0  0  0  0
  9  7  1  0  0  0  0
 10 15  1  0  0  0  0
 10 14  1  0  0  0  0
 11 12  1  0  0  0  0
 11 14  1  0  0  0  0
 13 15  1  0  0  0  0
 13 12  1  0  0  0  0
 16 17  1  0  0  0  0
 17 22  1  0  0  0  0
 18 19  2  0  0  0  0
 19 17  1  0  0  0  0
 20 21  2  0  0  0  0
 21 19  1  0  0  0  0
 22 23  1  0  0  0  0
 23 25  1  0  0  0  0
 24 23  2  0  0  0  0
 25 26  2  0  0  0  0
 25 27  1  0  0  0  0
 27 29  1  0  0  0  0
 28 29  1  0  0  0  0
 30 31  1  0  0  0  0
 30  9  1  0  0  0  0
 32 31  1  0  0  0  0
M  END
>  <MODEL>
1

>  <REMARK>
 VINA RESULT:      -6.0      0.000      0.000
  Name = 
  12 active torsions:
  status: ('A' for Active; 'I' for Inactive)
    1  A    between atoms: C_1  and  C_5
    2  A    between atoms: C_1  and  C_24
    3  A    between atoms: C_3  and  O_15
    4  A    between atoms: C_3  and  C_22
    5  A    between atoms: C_10  and  C_28
    6  A    between atoms: N_14  and  C_21
    7  A    between atoms: N_14  and  C_29
    8  A    between atoms: O_15  and  C_26
    9  A    between atoms: C_16  and  C_20
   10  A    between atoms: C_16  and  C_24
   11  A    between atoms: C_22  and  C_27
   12  A    between atoms: C_24  and  C_27
                            x       y       z     vdW  Elec       q    Type
                         _______ _______ _______ _____ _____    ______ ____

>  <TORSDO>
F 12

$$$$
=
 OpenBabel10262421063D

 32 34  0  0  1  0  0  0  0  0999 V2000
  183.0170  177.2970  138.9950 C   0  0  2  0  0  3  0  0  0  0  0  0
  184.0230  178.4370  138.7960 C   0  0  2  0  0  0  0  0  0  0  0  0
  183.2490  176.0370  138.1370 C   0  0  2  0  0  3  0  0  0  0  0  0
  182.6540  178.5070  138.1250 C   0  0  2  0  0  3  0  0  0  0  0  0
  184.6780  175.8800  137.6130 C   0  0  1  0  0  3  0  0  0  0  0  0
  182.3060  175.9450  137.1050 O   0  0  0  0  0  1  0  0  0  0  0  0
  185.1850  178.3080  137.7980 C   0  0  0  0  0  2  0  0  0  0  0  0
  184.7990  174.6170  136.7720 C   0  0  0  0  0  1  0  0  0  0  0  0
  185.0810  177.1290  136.8360 C   0  0  1  0  0  3  0  0  0  0  0  0
  179.6190  178.5630  137.5370 C   0  0  0  0  0  2  0  0  0  0  0  0
  180.9540  180.7380  136.8300 C   0  0  0  0  0  2  0  0  0  0  0  0
  181.5310  180.7720  138.2410 C   0  0  0  0  0  2  0  0  0  0  0  0
  181.6230  179.3730  138.8550 C   0  0  0  0  0  3  0  0  0  0  0  0
  179.2120  180.2090  136.8750 S   0  0  0  0  0  0  0  0  0  0  0  0
  180.2540  178.6920  138.9170 C   0  0  0  0  0  2  0  0  0  0  0  0
  184.2490  179.3670  139.9970 C   0  0  0  0  0  2  0  0  0  0  0  0
  184.7860  178.6780  141.2560 C   0  0  2  0  0  3  0  0  0  0  0  0
  182.5430  178.6340  142.0540 O   0  0  0  0  0  0  0  0  0  0  0  0
  183.7650  178.5580  142.3520 C   0  0  0  0  0  0  0  0  0  0  0  0
  183.5670  179.0170  144.7490 C   0  0  0  0  0  2  0  0  0  0  0  0
  184.1770  178.3870  143.7550 C   0  0  0  0  0  3  0  0  0  0  0  0
  186.1210  179.2640  141.7110 C   0  0  0  0  0  2  0  0  0  0  0  0
  187.2690  178.4500  141.2050 C   0  0  0  0  0  0  0  0  0  0  0  0
  187.6590  178.5990  140.0170 O   0  0  0  0  0  0  0  0  0  0  0  0
  187.9420  177.4800  142.0780 C   0  0  0  0  0  0  0  0  0  0  0  0
  188.9740  176.8760  141.6740 O   0  0  0  0  0  0  0  0  0  0  0  0
  187.4300  177.2300  143.3520 O   0  0  0  0  0  0  0  0  0  0  0  0
  187.1890  177.7250  145.6830 C   0  0  0  0  0  1  0  0  0  0  0  0
  188.1530  177.5560  144.5280 C   0  0  0  0  0  2  0  0  0  0  0  0
  186.3700  176.9380  136.1880 N   0  0  0  0  0  2  0  0  0  0  0  0
  187.1060  178.1840  136.3250 C   0  0  0  0  0  2  0  0  0  0  0  0
  188.5840  177.9200  136.1400 C   0  0  0  0  0  1  0  0  0  0  0  0
  2  1  1  0  0  0  0
  2 16  1  0  0  0  0
  3  1  1  0  0  0  0
  4  2  1  0  0  0  0
  4 13  1  0  0  0  0
  4  1  1  0  0  0  0
  5  3  1  0  0  0  0
  6  3  1  0  0  0  0
  7  2  1  0  0  0  0
  8  5  1  0  0  0  0
  9  5  1  0  0  0  0
  9  7  1  0  0  0  0
 10 15  1  0  0  0  0
 11 14  1  0  0  0  0
 11 12  1  0  0  0  0
 12 13  1  0  0  0  0
 13 15  1  0  0  0  0
 14 10  1  0  0  0  0
 16 17  1  0  0  0  0
 17 22  1  0  0  0  0
 17 19  1  0  0  0  0
 18 19  2  0  0  0  0
 19 21  1  0  0  0  0
 21 20  2  0  0  0  0
 23 22  1  0  0  0  0
 23 25  1  0  0  0  0
 24 23  2  0  0  0  0
 25 27  1  0  0  0  0
 26 25  2  0  0  0  0
 27 29  1  0  0  0  0
 29 28  1  0  0  0  0
 30 31  1  0  0  0  0
 30  9  1  0  0  0  0
 32 31  1  0  0  0  0
M  END
>  <MODEL>
2

>  <REMARK>
 VINA RESULT:      -6.0      3.481      6.445
  Name = 
  12 active torsions:
  status: ('A' for Active; 'I' for Inactive)
    1  A    between atoms: C_1  and  C_5
    2  A    between atoms: C_1  and  C_24
    3  A    between atoms: C_3  and  O_15
    4  A    between atoms: C_3  and  C_22
    5  A    between atoms: C_10  and  C_28
    6  A    between atoms: N_14  and  C_21
    7  A    between atoms: N_14  and  C_29
    8  A    between atoms: O_15  and  C_26
    9  A    between atoms: C_16  and  C_20
   10  A    between atoms: C_16  and  C_24
   11  A    between atoms: C_22  and  C_27
   12  A    between atoms: C_24  and  C_27
                            x       y       z     vdW  Elec       q    Type
                         _______ _______ _______ _____ _____    ______ ____

>  <TORSDO>
F 12

$$$$
=
 OpenBabel10262421063D

 32 34  0  0  1  0  0  0  0  0999 V2000
  190.3520  175.7170  138.4620 C   0  0  2  0  0  3  0  0  0  0  0  0
  191.3120  176.8500  138.8470 C   0  0  2  0  0  0  0  0  0  0  0  0
  190.9440  174.6040  137.5750 C   0  0  2  0  0  3  0  0  0  0  0  0
  190.3040  177.0580  137.7200 C   0  0  2  0  0  3  0  0  0  0  0  0
  192.4700  174.4980  137.6240 C   0  0  1  0  0  3  0  0  0  0  0  0
  190.4750  174.7000  136.2580 O   0  0  0  0  0  1  0  0  0  0  0  0
  192.7720  176.8530  138.3670 C   0  0  0  0  0  2  0  0  0  0  0  0
  192.9540  173.3820  136.7090 C   0  0  0  0  0  1  0  0  0  0  0  0
  193.0920  175.8440  137.2670 C   0  0  1  0  0  3  0  0  0  0  0  0
  187.4250  176.3540  136.8360 C   0  0  0  0  0  2  0  0  0  0  0  0
  188.4300  178.5640  135.7790 C   0  0  0  0  0  2  0  0  0  0  0  0
  188.7830  179.0120  137.1930 C   0  0  0  0  0  2  0  0  0  0  0  0
  189.0380  177.8220  138.1220 C   0  0  0  0  0  3  0  0  0  0  0  0
  186.8250  177.7030  135.7730 S   0  0  0  0  0  0  0  0  0  0  0  0
  187.8220  176.8970  138.2050 C   0  0  0  0  0  2  0  0  0  0  0  0
  191.0230  177.5710  140.1710 C   0  0  0  0  0  2  0  0  0  0  0  0
  190.5750  176.6600  141.3190 C   0  0  2  0  0  3  0  0  0  0  0  0
  188.5660  176.1030  142.4720 O   0  0  0  0  0  0  0  0  0  0  0  0
  189.2050  176.9890  141.8420 C   0  0  0  0  0  0  0  0  0  0  0  0
  187.2850  178.4850  141.5750 C   0  0  0  0  0  2  0  0  0  0  0  0
  188.5990  178.3080  141.6000 C   0  0  0  0  0  3  0  0  0  0  0  0
  191.6410  176.5300  142.4050 C   0  0  0  0  0  2  0  0  0  0  0  0
  191.4720  177.5810  143.4560 C   0  0  0  0  0  0  0  0  0  0  0  0
  191.6850  178.7880  143.1650 O   0  0  0  0  0  0  0  0  0  0  0  0
  191.0630  177.2190  144.8190 C   0  0  0  0  0  0  0  0  0  0  0  0
  191.6750  176.3080  145.4420 O   0  0  0  0  0  0  0  0  0  0  0  0
  189.9920  177.8870  145.4150 O   0  0  0  0  0  0  0  0  0  0  0  0
  187.6000  177.7820  145.3620 C   0  0  0  0  0  1  0  0  0  0  0  0
  188.8700  177.1900  145.9340 C   0  0  0  0  0  2  0  0  0  0  0  0
  194.5370  175.7280  137.1450 N   0  0  0  0  0  2  0  0  0  0  0  0
  194.8920  176.1910  135.8140 C   0  0  0  0  0  2  0  0  0  0  0  0
  196.1460  175.4820  135.3520 C   0  0  0  0  0  1  0  0  0  0  0  0
  1  2  1  0  0  0  0
  2 16  1  0  0  0  0
  3  5  1  0  0  0  0
  3  1  1  0  0  0  0
  4 13  1  0  0  0  0
  4  1  1  0  0  0  0
  4  2  1  0  0  0  0
  6  3  1  0  0  0  0
  7  2  1  0  0  0  0
  8  5  1  0  0  0  0
  9  5  1  0  0  0  0
  9  7  1  0  0  0  0
 10 15  1  0  0  0  0
 11 12  1  0  0  0  0
 12 13  1  0  0  0  0
 13 15  1  0  0  0  0
 14 11  1  0  0  0  0
 14 10  1  0  0  0  0
 16 17  1  0  0  0  0
 17 19  1  0  0  0  0
 17 22  1  0  0  0  0
 19 18  2  0  0  0  0
 20 21  2  0  0  0  0
 21 19  1  0  0  0  0
 22 23  1  0  0  0  0
 23 25  1  0  0  0  0
 24 23  2  0  0  0  0
 25 27  1  0  0  0  0
 25 26  2  0  0  0  0
 27 29  1  0  0  0  0
 28 29  1  0  0  0  0
 30  9  1  0  0  0  0
 31 30  1  0  0  0  0
 32 31  1  0  0  0  0
M  END
>  <MODEL>
3

>  <REMARK>
 VINA RESULT:      -6.0      3.660      6.035
  Name = 
  12 active torsions:
  status: ('A' for Active; 'I' for Inactive)
    1  A    between atoms: C_1  and  C_5
    2  A    between atoms: C_1  and  C_24
    3  A    between atoms: C_3  and  O_15
    4  A    between atoms: C_3  and  C_22
    5  A    between atoms: C_10  and  C_28
    6  A    between atoms: N_14  and  C_21
    7  A    between atoms: N_14  and  C_29
    8  A    between atoms: O_15  and  C_26
    9  A    between atoms: C_16  and  C_20
   10  A    between atoms: C_16  and  C_24
   11  A    between atoms: C_22  and  C_27
   12  A    between atoms: C_24  and  C_27
                            x       y       z     vdW  Elec       q    Type
                         _______ _______ _______ _____ _____    ______ ____

>  <TORSDO>
F 12

$$$$
=
 OpenBabel10262421063D

 32 34  0  0  1  0  0  0  0  0999 V2000
  184.3640  179.4260  142.3250 C   0  0  2  0  0  3  0  0  0  0  0  0
  185.5140  178.6120  141.7170 C   0  0  2  0  0  0  0  0  0  0  0  0
  184.1740  179.2890  143.8490 C   0  0  2  0  0  3  0  0  0  0  0  0
  184.0790  178.1020  141.6040 C   0  0  2  0  0  3  0  0  0  0  0  0
  185.4150  178.8030  144.6010 C   0  0  1  0  0  3  0  0  0  0  0  0
  183.0480  178.5130  144.1530 O   0  0  0  0  0  1  0  0  0  0  0  0
  186.4100  177.7240  142.5930 C   0  0  0  0  0  2  0  0  0  0  0  0
  185.1220  178.6900  146.0910 C   0  0  0  0  0  1  0  0  0  0  0  0
  185.8930  177.4820  144.0080 C   0  0  1  0  0  3  0  0  0  0  0  0
  181.0320  178.0270  141.0850 C   0  0  0  0  0  2  0  0  0  0  0  0
  182.4230  176.0660  139.9740 C   0  0  0  0  0  2  0  0  0  0  0  0
  183.3440  177.1300  139.3860 C   0  0  0  0  0  2  0  0  0  0  0  0
  183.3990  178.3850  140.2610 C   0  0  0  0  0  3  0  0  0  0  0  0
  180.6960  176.6450  139.9490 S   0  0  0  0  0  0  0  0  0  0  0  0
  182.0130  179.0060  140.4480 C   0  0  0  0  0  2  0  0  0  0  0  0
  186.1460  179.1750  140.4360 C   0  0  0  0  0  2  0  0  0  0  0  0
  186.8800  178.1450  139.5710 C   0  0  2  0  0  3  0  0  0  0  0  0
  189.0220  179.0940  139.1400 O   0  0  0  0  0  0  0  0  0  0  0  0
  188.3740  178.1880  139.7310 C   0  0  0  0  0  0  0  0  0  0  0  0
  190.2190  177.4400  141.1560 C   0  0  0  0  0  2  0  0  0  0  0  0
  189.0780  177.1750  140.5340 C   0  0  0  0  0  3  0  0  0  0  0  0
  186.4100  178.1670  138.1180 C   0  0  0  0  0  2  0  0  0  0  0  0
  186.8830  176.9570  137.3790 C   0  0  0  0  0  0  0  0  0  0  0  0
  186.2870  175.8590  137.5400 O   0  0  0  0  0  0  0  0  0  0  0  0
  188.0340  177.0360  136.4700 C   0  0  0  0  0  0  0  0  0  0  0  0
  188.2410  178.0860  135.8020 O   0  0  0  0  0  0  0  0  0  0  0  0
  188.8910  175.9410  136.3490 O   0  0  0  0  0  0  0  0  0  0  0  0
  190.9680  176.5600  137.3690 C   0  0  0  0  0  1  0  0  0  0  0  0
  189.8070  175.5900  137.3750 C   0  0  0  0  0  2  0  0  0  0  0  0
  186.9680  176.9160  144.8090 N   0  0  0  0  0  2  0  0  0  0  0  0
  188.2070  177.5210  144.3500 C   0  0  0  0  0  2  0  0  0  0  0  0
  189.2200  177.5100  145.4750 C   0  0  0  0  0  1  0  0  0  0  0  0
  1  3  1  0  0  0  0
  2  1  1  0  0  0  0
  2  7  1  0  0  0  0
  3  6  1  0  0  0  0
  3  5  1  0  0  0  0
  4  2  1  0  0  0  0
  4  1  1  0  0  0  0
  5  8  1  0  0  0  0
  7  9  1  0  0  0  0
  9  5  1  0  0  0  0
  9 30  1  0  0  0  0
 12 11  1  0  0  0  0
 12 13  1  0  0  0  0
 13 15  1  0  0  0  0
 13  4  1  0  0  0  0
 14 11  1  0  0  0  0
 14 10  1  0  0  0  0
 15 10  1  0  0  0  0
 16  2  1  0  0  0  0
 17 19  1  0  0  0  0
 17 16  1  0  0  0  0
 18 19  2  0  0  0  0
 19 21  1  0  0  0  0
 21 20  2  0  0  0  0
 22 17  1  0  0  0  0
 23 24  2  0  0  0  0
 23 22  1  0  0  0  0
 25 23  1  0  0  0  0
 26 25  2  0  0  0  0
 27 25  1  0  0  0  0
 27 29  1  0  0  0  0
 28 29  1  0  0  0  0
 31 30  1  0  0  0  0
 31 32  1  0  0  0  0
M  END
>  <MODEL>
4

>  <REMARK>
 VINA RESULT:      -6.0      3.083      7.740
  Name = 
  12 active torsions:
  status: ('A' for Active; 'I' for Inactive)
    1  A    between atoms: C_1  and  C_5
    2  A    between atoms: C_1  and  C_24
    3  A    between atoms: C_3  and  O_15
    4  A    between atoms: C_3  and  C_22
    5  A    between atoms: C_10  and  C_28
    6  A    between atoms: N_14  and  C_21
    7  A    between atoms: N_14  and  C_29
    8  A    between atoms: O_15  and  C_26
    9  A    between atoms: C_16  and  C_20
   10  A    between atoms: C_16  and  C_24
   11  A    between atoms: C_22  and  C_27
   12  A    between atoms: C_24  and  C_27
                            x       y       z     vdW  Elec       q    Type
                         _______ _______ _______ _____ _____    ______ ____

>  <TORSDO>
F 12

$$$$
=
 OpenBabel10262421063D

 32 34  0  0  1  0  0  0  0  0999 V2000
  188.2190  176.7920  142.7080 C   0  0  2  0  0  3  0  0  0  0  0  0
  188.4410  177.4590  141.3450 C   0  0  2  0  0  0  0  0  0  0  0  0
  186.9560  177.2290  143.4750 C   0  0  2  0  0  3  0  0  0  0  0  0
  189.2160  177.9490  142.5650 C   0  0  2  0  0  3  0  0  0  0  0  0
  185.8630  177.8440  142.5980 C   0  0  1  0  0  3  0  0  0  0  0  0
  187.2800  178.0600  144.5560 O   0  0  0  0  0  1  0  0  0  0  0  0
  187.4480  178.4950  140.7960 C   0  0  0  0  0  2  0  0  0  0  0  0
  184.6670  178.2510  143.4490 C   0  0  0  0  0  1  0  0  0  0  0  0
  186.4340  179.0170  141.8100 C   0  0  1  0  0  3  0  0  0  0  0  0
  190.3050  176.2150  144.8820 C   0  0  0  0  0  2  0  0  0  0  0  0
  191.2370  178.6910  144.7810 C   0  0  0  0  0  2  0  0  0  0  0  0
  191.5830  178.4400  143.3170 C   0  0  0  0  0  2  0  0  0  0  0  0
  190.6460  177.4120  142.6770 C   0  0  0  0  0  3  0  0  0  0  0  0
  191.5560  177.1950  145.7690 S   0  0  0  0  0  0  0  0  0  0  0  0
  190.6910  176.0710  143.4140 C   0  0  0  0  0  2  0  0  0  0  0  0
  189.2310  176.6480  140.3080 C   0  0  0  0  0  2  0  0  0  0  0  0
  189.9530  177.4860  139.2460 C   0  0  2  0  0  3  0  0  0  0  0  0
  189.5820  178.3640  137.0630 O   0  0  0  0  0  0  0  0  0  0  0  0
  189.2490  177.4990  137.9180 C   0  0  0  0  0  0  0  0  0  0  0  0
  186.9270  176.9430  137.3760 C   0  0  0  0  0  2  0  0  0  0  0  0
  188.1670  176.5450  137.6260 C   0  0  0  0  0  3  0  0  0  0  0  0
  191.4410  177.1530  139.1580 C   0  0  0  0  0  2  0  0  0  0  0  0
  191.6850  176.0110  138.2250 C   0  0  0  0  0  0  0  0  0  0  0  0
  191.0910  174.9160  138.4160 O   0  0  0  0  0  0  0  0  0  0  0  0
  192.6080  176.1520  137.0930 C   0  0  0  0  0  0  0  0  0  0  0  0
  193.6720  176.8170  137.2230 O   0  0  0  0  0  0  0  0  0  0  0  0
  192.2970  175.5490  135.8720 O   0  0  0  0  0  0  0  0  0  0  0  0
  190.1660  175.0150  134.9180 C   0  0  0  0  0  1  0  0  0  0  0  0
  191.2670  176.0470  135.0320 C   0  0  0  0  0  2  0  0  0  0  0  0
  185.3790  179.7210  141.0960 N   0  0  0  0  0  2  0  0  0  0  0  0
  185.0760  178.9440  139.9060 C   0  0  0  0  0  2  0  0  0  0  0  0
  183.8310  179.4970  139.2460 C   0  0  0  0  0  1  0  0  0  0  0  0
  1  3  1  0  0  0  0
  2  4  1  0  0  0  0
  2  1  1  0  0  0  0
  3  6  1  0  0  0  0
  4 13  1  0  0  0  0
  4  1  1  0  0  0  0
  5  8  1  0  0  0  0
  5  3  1  0  0  0  0
  7  2  1  0  0  0  0
  7  9  1  0  0  0  0
  9  5  1  0  0  0  0
 10 14  1  0  0  0  0
 11 14  1  0  0  0  0
 12 11  1  0  0  0  0
 13 12  1  0  0  0  0
 13 15  1  0  0  0  0
 15 10  1  0  0  0  0
 16  2  1  0  0  0  0
 17 16  1  0  0  0  0
 18 19  2  0  0  0  0
 19 17  1  0  0  0  0
 20 21  2  0  0  0  0
 21 19  1  0  0  0  0
 22 17  1  0  0  0  0
 23 24  2  0  0  0  0
 23 22  1  0  0  0  0
 25 26  2  0  0  0  0
 25 23  1  0  0  0  0
 27 25  1  0  0  0  0
 28 29  1  0  0  0  0
 29 27  1  0  0  0  0
 30  9  1  0  0  0  0
 31 30  1  0  0  0  0
 32 31  1  0  0  0  0
M  END
>  <MODEL>
5

>  <REMARK>
 VINA RESULT:      -5.8      2.238      6.793
  Name = 
  12 active torsions:
  status: ('A' for Active; 'I' for Inactive)
    1  A    between atoms: C_1  and  C_5
    2  A    between atoms: C_1  and  C_24
    3  A    between atoms: C_3  and  O_15
    4  A    between atoms: C_3  and  C_22
    5  A    between atoms: C_10  and  C_28
    6  A    between atoms: N_14  and  C_21
    7  A    between atoms: N_14  and  C_29
    8  A    between atoms: O_15  and  C_26
    9  A    between atoms: C_16  and  C_20
   10  A    between atoms: C_16  and  C_24
   11  A    between atoms: C_22  and  C_27
   12  A    between atoms: C_24  and  C_27
                            x       y       z     vdW  Elec       q    Type
                         _______ _______ _______ _____ _____    ______ ____

>  <TORSDO>
F 12

$$$$
=
 OpenBabel10262421063D

 32 34  0  0  1  0  0  0  0  0999 V2000
  184.8990  179.4780  142.7000 C   0  0  2  0  0  3  0  0  0  0  0  0
  186.0290  178.5310  142.2760 C   0  0  2  0  0  0  0  0  0  0  0  0
  184.4680  179.3920  144.1770 C   0  0  2  0  0  3  0  0  0  0  0  0
  184.5800  178.1800  141.9470 C   0  0  2  0  0  3  0  0  0  0  0  0
  185.5180  178.7870  145.1110 C   0  0  1  0  0  3  0  0  0  0  0  0
  183.2290  178.7510  144.3080 O   0  0  0  0  0  1  0  0  0  0  0  0
  186.6770  177.5650  143.2800 C   0  0  0  0  0  2  0  0  0  0  0  0
  184.9920  178.7360  146.5390 C   0  0  0  0  0  1  0  0  0  0  0  0
  185.9280  177.4100  144.6000 C   0  0  1  0  0  3  0  0  0  0  0  0
  181.6850  178.7850  141.0430 C   0  0  0  0  0  2  0  0  0  0  0  0
  182.6750  176.4720  140.2150 C   0  0  0  0  0  2  0  0  0  0  0  0
  183.8870  177.2400  139.7010 C   0  0  0  0  0  2  0  0  0  0  0  0
  184.1470  178.5110  140.5160 C   0  0  0  0  0  3  0  0  0  0  0  0
  181.1550  177.4370  139.9400 S   0  0  0  0  0  0  0  0  0  0  0  0
  182.9410  179.4530  140.4920 C   0  0  0  0  0  2  0  0  0  0  0  0
  186.9070  178.9960  141.1040 C   0  0  0  0  0  2  0  0  0  0  0  0
  187.9450  177.9730  140.6290 C   0  0  2  0  0  3  0  0  0  0  0  0
  189.4220  178.7000  142.3510 O   0  0  0  0  0  0  0  0  0  0  0  0
  189.0510  177.7420  141.6200 C   0  0  0  0  0  0  0  0  0  0  0  0
  190.2130  175.9810  142.8630 C   0  0  0  0  0  2  0  0  0  0  0  0
  189.7180  176.4340  141.7190 C   0  0  0  0  0  3  0  0  0  0  0  0
  188.4310  178.2570  139.2100 C   0  0  0  0  0  2  0  0  0  0  0  0
  187.4120  177.8440  138.1970 C   0  0  0  0  0  0  0  0  0  0  0  0
  186.4910  178.6440  137.8820 O   0  0  0  0  0  0  0  0  0  0  0  0
  187.4740  176.5180  137.5690 C   0  0  0  0  0  0  0  0  0  0  0  0
  188.5450  175.8510  137.6050 O   0  0  0  0  0  0  0  0  0  0  0  0
  186.3430  176.0060  136.9310 O   0  0  0  0  0  0  0  0  0  0  0  0
  185.5270  173.7790  137.2650 C   0  0  0  0  0  1  0  0  0  0  0  0
  186.3250  174.7030  136.3700 C   0  0  0  0  0  2  0  0  0  0  0  0
  186.8000  176.7440  145.5570 N   0  0  0  0  0  2  0  0  0  0  0  0
  188.0380  177.5030  145.6070 C   0  0  0  0  0  2  0  0  0  0  0  0
  188.7140  177.2770  146.9430 C   0  0  0  0  0  1  0  0  0  0  0  0
  1  3  1  0  0  0  0
  2  1  1  0  0  0  0
  2  7  1  0  0  0  0
  3  6  1  0  0  0  0
  3  5  1  0  0  0  0
  4  2  1  0  0  0  0
  4  1  1  0  0  0  0
  5  8  1  0  0  0  0
  7  9  1  0  0  0  0
  9  5  1  0  0  0  0
  9 30  1  0  0  0  0
 12 11  1  0  0  0  0
 12 13  1  0  0  0  0
 13  4  1  0  0  0  0
 14 11  1  0  0  0  0
 14 10  1  0  0  0  0
 15 13  1  0  0  0  0
 15 10  1  0  0  0  0
 16  2  1  0  0  0  0
 17 16  1  0  0  0  0
 17 19  1  0  0  0  0
 19 21  1  0  0  0  0
 19 18  2  0  0  0  0
 21 20  2  0  0  0  0
 22 17  1  0  0  0  0
 23 22  1  0  0  0  0
 24 23  2  0  0  0  0
 25 26  2  0  0  0  0
 25 23  1  0  0  0  0
 27 25  1  0  0  0  0
 29 27  1  0  0  0  0
 29 28  1  0  0  0  0
 30 31  1  0  0  0  0
 31 32  1  0  0  0  0
M  END
>  <MODEL>
6

>  <REMARK>
 VINA RESULT:      -5.8      3.095      7.786
  Name = 
  12 active torsions:
  status: ('A' for Active; 'I' for Inactive)
    1  A    between atoms: C_1  and  C_5
    2  A    between atoms: C_1  and  C_24
    3  A    between atoms: C_3  and  O_15
    4  A    between atoms: C_3  and  C_22
    5  A    between atoms: C_10  and  C_28
    6  A    between atoms: N_14  and  C_21
    7  A    between atoms: N_14  and  C_29
    8  A    between atoms: O_15  and  C_26
    9  A    between atoms: C_16  and  C_20
   10  A    between atoms: C_16  and  C_24
   11  A    between atoms: C_22  and  C_27
   12  A    between atoms: C_24  and  C_27
                            x       y       z     vdW  Elec       q    Type
                         _______ _______ _______ _____ _____    ______ ____

>  <TORSDO>
F 12

$$$$
=
 OpenBabel10262421063D

 32 34  0  0  1  0  0  0  0  0999 V2000
  182.9360  177.3120  139.4940 C   0  0  2  0  0  3  0  0  0  0  0  0
  184.1200  178.1940  139.0780 C   0  0  2  0  0  0  0  0  0  0  0  0
  182.7790  175.9860  138.7240 C   0  0  2  0  0  3  0  0  0  0  0  0
  182.7150  178.5220  138.5780 C   0  0  2  0  0  3  0  0  0  0  0  0
  184.0580  175.4940  138.0420 C   0  0  1  0  0  3  0  0  0  0  0  0
  181.7040  176.0440  137.8270 O   0  0  0  0  0  1  0  0  0  0  0  0
  185.0790  177.7600  137.9590 C   0  0  0  0  0  2  0  0  0  0  0  0
  183.7950  174.1900  137.3010 C   0  0  0  0  0  1  0  0  0  0  0  0
  184.6000  176.5800  137.1190 C   0  0  1  0  0  3  0  0  0  0  0  0
  179.6590  178.9930  138.6240 C   0  0  0  0  0  2  0  0  0  0  0  0
  181.0700  180.8130  137.3170 C   0  0  0  0  0  2  0  0  0  0  0  0
  181.9520  180.9350  138.5550 C   0  0  0  0  0  2  0  0  0  0  0  0
  181.9990  179.6310  139.3550 C   0  0  0  0  0  3  0  0  0  0  0  0
  179.3300  180.5840  137.8040 S   0  0  0  0  0  0  0  0  0  0  0  0
  180.6030  179.1940  139.8060 C   0  0  0  0  0  2  0  0  0  0  0  0
  184.6980  179.1180  140.1590 C   0  0  0  0  0  2  0  0  0  0  0  0
  185.5470  178.4140  141.2240 C   0  0  2  0  0  3  0  0  0  0  0  0
  185.5110  177.8520  143.5380 O   0  0  0  0  0  0  0  0  0  0  0  0
  184.8630  178.3090  142.5580 C   0  0  0  0  0  0  0  0  0  0  0  0
  182.9060  178.8910  143.9110 C   0  0  0  0  0  2  0  0  0  0  0  0
  183.4520  178.6980  142.7180 C   0  0  0  0  0  3  0  0  0  0  0  0
  186.9660  178.9730  141.2960 C   0  0  0  0  0  2  0  0  0  0  0  0
  187.9780  177.9240  140.9620 C   0  0  0  0  0  0  0  0  0  0  0  0
  188.3290  177.0980  141.8460 O   0  0  0  0  0  0  0  0  0  0  0  0
  188.5640  177.8480  139.6180 C   0  0  0  0  0  0  0  0  0  0  0  0
  189.3330  176.8950  139.3170 O   0  0  0  0  0  0  0  0  0  0  0  0
  188.2670  178.8410  138.6820 O   0  0  0  0  0  0  0  0  0  0  0  0
  188.6750  178.2600  136.3940 C   0  0  0  0  0  1  0  0  0  0  0  0
  189.1140  179.1020  137.5730 C   0  0  0  0  0  2  0  0  0  0  0  0
  185.7190  176.0790  136.3350 N   0  0  0  0  0  2  0  0  0  0  0  0
  185.6090  176.6630  135.0100 C   0  0  0  0  0  2  0  0  0  0  0  0
  184.1480  176.7940  134.6350 C   0  0  0  0  0  1  0  0  0  0  0  0
  2  1  1  0  0  0  0
  2 16  1  0  0  0  0
  3  1  1  0  0  0  0
  4  2  1  0  0  0  0
  4 13  1  0  0  0  0
  4  1  1  0  0  0  0
  5  3  1  0  0  0  0
  6  3  1  0  0  0  0
  7  2  1  0  0  0  0
  8  5  1  0  0  0  0
  9  7  1  0  0  0  0
  9  5  1  0  0  0  0
 10 15  1  0  0  0  0
 11 14  1  0  0  0  0
 11 12  1  0  0  0  0
 12 13  1  0  0  0  0
 13 15  1  0  0  0  0
 14 10  1  0  0  0  0
 16 17  1  0  0  0  0
 17 22  1  0  0  0  0
 17 19  1  0  0  0  0
 19 21  1  0  0  0  0
 19 18  2  0  0  0  0
 21 20  2  0  0  0  0
 23 22  1  0  0  0  0
 23 24  2  0  0  0  0
 25 23  1  0  0  0  0
 26 25  2  0  0  0  0
 27 25  1  0  0  0  0
 28 29  1  0  0  0  0
 29 27  1  0  0  0  0
 30  9  1  0  0  0  0
 31 30  1  0  0  0  0
 32 31  1  0  0  0  0
M  END
>  <MODEL>
7

>  <REMARK>
 VINA RESULT:      -5.8      3.415      7.039
  Name = 
  12 active torsions:
  status: ('A' for Active; 'I' for Inactive)
    1  A    between atoms: C_1  and  C_5
    2  A    between atoms: C_1  and  C_24
    3  A    between atoms: C_3  and  O_15
    4  A    between atoms: C_3  and  C_22
    5  A    between atoms: C_10  and  C_28
    6  A    between atoms: N_14  and  C_21
    7  A    between atoms: N_14  and  C_29
    8  A    between atoms: O_15  and  C_26
    9  A    between atoms: C_16  and  C_20
   10  A    between atoms: C_16  and  C_24
   11  A    between atoms: C_22  and  C_27
   12  A    between atoms: C_24  and  C_27
                            x       y       z     vdW  Elec       q    Type
                         _______ _______ _______ _____ _____    ______ ____

>  <TORSDO>
F 12

$$$$
=
 OpenBabel10262421063D

 32 34  0  0  1  0  0  0  0  0999 V2000
  184.4320  177.2970  136.5700 C   0  0  2  0  0  3  0  0  0  0  0  0
  185.8030  177.5080  137.2240 C   0  0  2  0  0  0  0  0  0  0  0  0
  183.2250  177.8780  137.3340 C   0  0  2  0  0  3  0  0  0  0  0  0
  185.0980  176.1600  137.3570 C   0  0  2  0  0  3  0  0  0  0  0  0
  183.5770  178.9910  138.3230 C   0  0  1  0  0  3  0  0  0  0  0  0
  182.4730  176.8640  137.9420 O   0  0  0  0  0  1  0  0  0  0  0  0
  185.9420  178.2570  138.5580 C   0  0  0  0  0  2  0  0  0  0  0  0
  182.3230  179.4870  139.0310 C   0  0  0  0  0  1  0  0  0  0  0  0
  184.6320  178.4930  139.3050 C   0  0  1  0  0  3  0  0  0  0  0  0
  183.3440  173.9310  136.1270 C   0  0  0  0  0  2  0  0  0  0  0  0
  185.1160  173.1230  137.9220 C   0  0  0  0  0  2  0  0  0  0  0  0
  186.1760  173.8820  137.1320 C   0  0  0  0  0  2  0  0  0  0  0  0
  185.5850  175.0810  136.3860 C   0  0  0  0  0  3  0  0  0  0  0  0
  183.9270  172.3380  136.7870 S   0  0  0  0  0  0  0  0  0  0  0  0
  184.4820  174.6540  135.4140 C   0  0  0  0  0  2  0  0  0  0  0  0
  187.0110  177.5610  136.2770 C   0  0  0  0  0  2  0  0  0  0  0  0
  188.3590  177.2370  136.9300 C   0  0  2  0  0  3  0  0  0  0  0  0
  188.8160  179.5440  137.3080 O   0  0  0  0  0  0  0  0  0  0  0  0
  188.9110  178.3680  137.7520 C   0  0  0  0  0  0  0  0  0  0  0  0
  189.0170  177.3850  139.9930 C   0  0  0  0  0  2  0  0  0  0  0  0
  189.5810  178.1120  139.0380 C   0  0  0  0  0  3  0  0  0  0  0  0
  189.3570  176.6460  135.9360 C   0  0  0  0  0  2  0  0  0  0  0  0
  189.3440  175.1520  135.9810 C   0  0  0  0  0  0  0  0  0  0  0  0
  188.8450  174.5070  135.0210 O   0  0  0  0  0  0  0  0  0  0  0  0
  189.9040  174.4310  137.1320 C   0  0  0  0  0  0  0  0  0  0  0  0
  189.5590  173.2390  137.3600 O   0  0  0  0  0  0  0  0  0  0  0  0
  190.8140  175.0780  137.9710 O   0  0  0  0  0  0  0  0  0  0  0  0
  192.7850  176.4380  138.0050 C   0  0  0  0  0  1  0  0  0  0  0  0
  192.2090  175.0700  137.7100 C   0  0  0  0  0  2  0  0  0  0  0  0
  184.8620  179.4740  140.3550 N   0  0  0  0  0  2  0  0  0  0  0  0
  185.5870  178.8000  141.4190 C   0  0  0  0  0  2  0  0  0  0  0  0
  184.7170  178.7280  142.6550 C   0  0  0  0  0  1  0  0  0  0  0  0
  1  2  1  0  0  0  0
  1  3  1  0  0  0  0
  1  4  1  0  0  0  0
  2  4  1  0  0  0  0
  2  7  1  0  0  0  0
  3  6  1  0  0  0  0
  3  5  1  0  0  0  0
  5  8  1  0  0  0  0
  5  9  1  0  0  0  0
  7  9  1  0  0  0  0
  9 30  1  0  0  0  0
 10 14  1  0  0  0  0
 12 11  1  0  0  0  0
 13 12  1  0  0  0  0
 13  4  1  0  0  0  0
 14 11  1  0  0  0  0
 15 10  1  0  0  0  0
 15 13  1  0  0  0  0
 16 17  1  0  0  0  0
 16  2  1  0  0  0  0
 17 19  1  0  0  0  0
 18 19  2  0  0  0  0
 19 21  1  0  0  0  0
 21 20  2  0  0  0  0
 22 23  1  0  0  0  0
 22 17  1  0  0  0  0
 23 25  1  0  0  0  0
 24 23  2  0  0  0  0
 25 26  2  0  0  0  0
 25 27  1  0  0  0  0
 29 27  1  0  0  0  0
 29 28  1  0  0  0  0
 30 31  1  0  0  0  0
 31 32  1  0  0  0  0
M  END
>  <MODEL>
8

>  <REMARK>
 VINA RESULT:      -5.7      3.969      7.786
  Name = 
  12 active torsions:
  status: ('A' for Active; 'I' for Inactive)
    1  A    between atoms: C_1  and  C_5
    2  A    between atoms: C_1  and  C_24
    3  A    between atoms: C_3  and  O_15
    4  A    between atoms: C_3  and  C_22
    5  A    between atoms: C_10  and  C_28
    6  A    between atoms: N_14  and  C_21
    7  A    between atoms: N_14  and  C_29
    8  A    between atoms: O_15  and  C_26
    9  A    between atoms: C_16  and  C_20
   10  A    between atoms: C_16  and  C_24
   11  A    between atoms: C_22  and  C_27
   12  A    between atoms: C_24  and  C_27
                            x       y       z     vdW  Elec       q    Type
                         _______ _______ _______ _____ _____    ______ ____

>  <TORSDO>
F 12

$$$$
=
 OpenBabel10262421063D

 32 34  0  0  1  0  0  0  0  0999 V2000
  188.8790  178.4690  139.6690 C   0  0  2  0  0  3  0  0  0  0  0  0
  189.8640  177.3110  139.4650 C   0  0  2  0  0  0  0  0  0  0  0  0
  188.3060  178.6230  141.0920 C   0  0  2  0  0  3  0  0  0  0  0  0
  188.4130  177.1610  139.0170 C   0  0  2  0  0  3  0  0  0  0  0  0
  189.1480  177.9690  142.1890 C   0  0  1  0  0  3  0  0  0  0  0  0
  186.9690  178.2080  141.1490 O   0  0  0  0  0  1  0  0  0  0  0  0
  190.2440  176.3760  140.6240 C   0  0  0  0  0  2  0  0  0  0  0  0
  188.4930  178.1670  143.5490 C   0  0  0  0  0  1  0  0  0  0  0  0
  189.3620  176.4950  141.8640 C   0  0  1  0  0  3  0  0  0  0  0  0
  185.7080  177.9220  137.7260 C   0  0  0  0  0  2  0  0  0  0  0  0
  186.5560  175.4650  137.2210 C   0  0  0  0  0  2  0  0  0  0  0  0
  187.8870  176.0750  136.7920 C   0  0  0  0  0  2  0  0  0  0  0  0
  188.1750  177.3900  137.5210 C   0  0  0  0  0  3  0  0  0  0  0  0
  185.1760  176.5260  136.6870 S   0  0  0  0  0  0  0  0  0  0  0  0
  187.0750  178.4250  137.2750 C   0  0  0  0  0  2  0  0  0  0  0  0
  190.9110  177.4910  138.3570 C   0  0  0  0  0  2  0  0  0  0  0  0
  191.6870  176.2220  137.9870 C   0  0  2  0  0  3  0  0  0  0  0  0
  193.5270  177.1140  139.2090 O   0  0  0  0  0  0  0  0  0  0  0  0
  193.1490  176.2970  138.3260 C   0  0  0  0  0  0  0  0  0  0  0  0
  194.7230  174.4250  138.2060 C   0  0  0  0  0  2  0  0  0  0  0  0
  194.1330  175.4590  137.6220 C   0  0  0  0  0  3  0  0  0  0  0  0
  191.4030  175.7650  136.5580 C   0  0  0  0  0  2  0  0  0  0  0  0
  190.9340  174.3450  136.5290 C   0  0  0  0  0  0  0  0  0  0  0  0
  190.5600  173.7930  137.5970 O   0  0  0  0  0  0  0  0  0  0  0  0
  190.9070  173.5910  135.2690 C   0  0  0  0  0  0  0  0  0  0  0  0
  189.8140  173.4090  134.6650 O   0  0  0  0  0  0  0  0  0  0  0  0
  192.0960  173.0750  134.7510 O   0  0  0  0  0  0  0  0  0  0  0  0
  194.3030  172.2500  135.1840 C   0  0  0  0  0  1  0  0  0  0  0  0
  192.8200  172.0510  135.4150 C   0  0  0  0  0  2  0  0  0  0  0  0
  190.0160  175.8130  142.9700 N   0  0  0  0  0  2  0  0  0  0  0  0
  191.3280  176.4170  143.1300 C   0  0  0  0  0  2  0  0  0  0  0  0
  191.6720  176.4920  144.6020 C   0  0  0  0  0  1  0  0  0  0  0  0
  1  3  1  0  0  0  0
  2  1  1  0  0  0  0
  2  7  1  0  0  0  0
  3  6  1  0  0  0  0
  3  5  1  0  0  0  0
  4  2  1  0  0  0  0
  4  1  1  0  0  0  0
  5  8  1  0  0  0  0
  7  9  1  0  0  0  0
  9  5  1  0  0  0  0
  9 30  1  0  0  0  0
 12 11  1  0  0  0  0
 12 13  1  0  0  0  0
 13  4  1  0  0  0  0
 14 11  1  0  0  0  0
 14 10  1  0  0  0  0
 15 13  1  0  0  0  0
 15 10  1  0  0  0  0
 16  2  1  0  0  0  0
 17 19  1  0  0  0  0
 17 16  1  0  0  0  0
 19 18  2  0  0  0  0
 21 20  2  0  0  0  0
 21 19  1  0  0  0  0
 22 17  1  0  0  0  0
 23 22  1  0  0  0  0
 23 24  2  0  0  0  0
 25 23  1  0  0  0  0
 26 25  2  0  0  0  0
 27 25  1  0  0  0  0
 27 29  1  0  0  0  0
 28 29  1  0  0  0  0
 30 31  1  0  0  0  0
 31 32  1  0  0  0  0
M  END
>  <MODEL>
9

>  <REMARK>
 VINA RESULT:      -5.5      3.760      8.744
  Name = 
  12 active torsions:
  status: ('A' for Active; 'I' for Inactive)
    1  A    between atoms: C_1  and  C_5
    2  A    between atoms: C_1  and  C_24
    3  A    between atoms: C_3  and  O_15
    4  A    between atoms: C_3  and  C_22
    5  A    between atoms: C_10  and  C_28
    6  A    between atoms: N_14  and  C_21
    7  A    between atoms: N_14  and  C_29
    8  A    between atoms: O_15  and  C_26
    9  A    between atoms: C_16  and  C_20
   10  A    between atoms: C_16  and  C_24
   11  A    between atoms: C_22  and  C_27
   12  A    between atoms: C_24  and  C_27
                            x       y       z     vdW  Elec       q    Type
                         _______ _______ _______ _____ _____    ______ ____

>  <TORSDO>
F 12

$$$$
