=
 OpenBabel10262419503D

 25 28  0  0  0  0  0  0  0  0999 V2000
  187.1530  177.9180  145.6470 C   0  0  0  0  0  0  0  0  0  0  0  0
  188.4370  177.5000  145.2940 C   0  0  0  0  0  0  0  0  0  0  0  0
  187.7080  177.8810  147.9880 C   0  0  0  0  0  3  0  0  0  0  0  0
  186.0270  178.2230  144.9180 C   0  0  0  0  0  0  0  0  0  0  0  0
  183.4940  178.9580  144.0800 C   0  0  0  0  0  3  0  0  0  0  0  0
  188.9680  177.4720  147.6540 N   0  0  0  0  0  0  0  0  0  0  0  0
  185.0680  178.5740  145.8450 C   0  0  0  0  0  0  0  0  0  0  0  0
  183.7830  178.9480  145.4580 C   0  0  0  0  0  3  0  0  0  0  0  0
  190.6620  176.8540  146.0470 C   0  0  0  0  0  0  0  0  0  0  0  0
  191.6660  176.6050  147.1220 C   0  0  0  0  0  1  0  0  0  0  0  0
  188.8260  177.3020  143.9660 C   0  0  0  0  0  3  0  0  0  0  0  0
  184.4790  178.5980  143.1340 C   0  0  0  0  0  3  0  0  0  0  0  0
  186.7950  178.1050  146.9630 C   0  0  0  0  0  0  0  0  0  0  0  0
  185.5420  178.4990  147.0730 O   0  0  0  0  0  0  0  0  0  0  0  0
  191.0390  176.6600  144.7140 C   0  0  0  0  0  3  0  0  0  0  0  0
  185.7700  178.2230  143.5480 C   0  0  0  0  0  3  0  0  0  0  0  0
  190.1300  176.8820  143.6730 C   0  0  0  0  0  0  0  0  0  0  0  0
  189.3580  177.2760  146.3520 C   0  0  0  0  0  0  0  0  0  0  0  0
  190.5650  176.6640  142.2910 C   0  0  0  0  0  3  0  0  0  0  0  0
  190.2040  177.4590  141.3350 N   0  0  0  0  0  0  0  0  0  0  0  0
  190.6380  177.2280  139.9670 C   0  0  0  0  0  2  0  0  0  0  0  0
  189.4420  177.0660  139.0370 C   0  0  0  0  0  2  0  0  0  0  0  0
  188.6460  178.3240  138.9560 C   0  0  0  0  0  0  0  0  0  0  0  0
  187.3540  178.3880  139.5470 N   0  0  0  0  0  1  0  0  0  0  0  0
  189.1100  179.3260  138.3520 O   0  0  0  0  0  0  0  0  0  0  0  0
  1 13  1  0  0  0  0
  2  1  2  0  0  0  0
  2 18  1  0  0  0  0
  4  1  1  0  0  0  0
  4  7  1  0  0  0  0
  5  8  1  0  0  0  0
  6  3  1  0  0  0  0
  7 14  1  0  0  0  0
  8  7  2  0  0  0  0
  9 18  1  0  0  0  0
  9 10  1  0  0  0  0
 11  2  1  0  0  0  0
 12 16  1  0  0  0  0
 12  5  2  0  0  0  0
 13 14  1  0  0  0  0
 13  3  2  0  0  0  0
 15  9  2  0  0  0  0
 16  4  2  0  0  0  0
 17 11  2  0  0  0  0
 17 15  1  0  0  0  0
 18  6  2  0  0  0  0
 19 17  1  0  0  0  0
 20 19  2  0  0  0  0
 21 20  1  0  0  0  0
 22 21  1  0  0  0  0
 23 22  1  0  0  0  0
 23 24  1  0  0  0  0
 25 23  2  0  0  0  0
M  END
>  <MODEL>
1

>  <REMARK>
 VINA RESULT:     -10.6      0.000      0.000
  Name = 
  4 active torsions:
  status: ('A' for Active; 'I' for Inactive)
    1  A    between atoms: C_2  and  C_25
    2  A    between atoms: C_6  and  C_23
    3  A    between atoms: N_15  and  C_21
    4  A    between atoms: C_21  and  C_25
                            x       y       z     vdW  Elec       q    Type
                         _______ _______ _______ _____ _____    ______ ____

>  <TORSDO>
F 4

$$$$
=
 OpenBabel10262419503D

 25 28  0  0  0  0  0  0  0  0999 V2000
  187.0350  177.9690  145.6310 C   0  0  0  0  0  0  0  0  0  0  0  0
  188.3340  177.5430  145.3530 C   0  0  0  0  0  0  0  0  0  0  0  0
  187.4740  177.9990  147.9970 C   0  0  0  0  0  3  0  0  0  0  0  0
  185.9460  178.2530  144.8390 C   0  0  0  0  0  0  0  0  0  0  0  0
  183.4580  178.9620  143.8590 C   0  0  0  0  0  3  0  0  0  0  0  0
  188.7490  177.5810  147.7360 N   0  0  0  0  0  0  0  0  0  0  0  0
  184.9430  178.6290  145.7080 C   0  0  0  0  0  0  0  0  0  0  0  0
  183.6790  178.9910  145.2480 C   0  0  0  0  0  3  0  0  0  0  0  0
  190.5200  176.9200  146.2330 C   0  0  0  0  0  0  0  0  0  0  0  0
  191.4690  176.7020  147.3610 C   0  0  0  0  0  1  0  0  0  0  0  0
  188.7880  177.3080  144.0520 C   0  0  0  0  0  3  0  0  0  0  0  0
  184.4880  178.5770  142.9720 C   0  0  0  0  0  3  0  0  0  0  0  0
  186.6130  178.1930  146.9230 C   0  0  0  0  0  0  0  0  0  0  0  0
  185.3560  178.5890  146.9600 O   0  0  0  0  0  0  0  0  0  0  0  0
  190.9610  176.6890  144.9250 C   0  0  0  0  0  3  0  0  0  0  0  0
  185.7570  178.2150  143.4600 C   0  0  0  0  0  3  0  0  0  0  0  0
  190.1040  176.8810  143.8350 C   0  0  0  0  0  0  0  0  0  0  0  0
  189.2020  177.3490  146.4610 C   0  0  0  0  0  0  0  0  0  0  0  0
  190.6060  176.6250  142.4830 C   0  0  0  0  0  3  0  0  0  0  0  0
  191.1980  177.5480  141.7950 N   0  0  0  0  0  0  0  0  0  0  0  0
  191.6850  177.2820  140.4520 C   0  0  0  0  0  2  0  0  0  0  0  0
  190.6070  176.6220  139.6020 C   0  0  0  0  0  2  0  0  0  0  0  0
  191.1860  176.0140  138.3700 C   0  0  0  0  0  0  0  0  0  0  0  0
  190.9870  174.6320  138.0980 N   0  0  0  0  0  1  0  0  0  0  0  0
  191.8620  176.7180  137.5750 O   0  0  0  0  0  0  0  0  0  0  0  0
  1 13  1  0  0  0  0
  2  1  2  0  0  0  0
  2 18  1  0  0  0  0
  4  1  1  0  0  0  0
  4  7  1  0  0  0  0
  5  8  1  0  0  0  0
  6  3  1  0  0  0  0
  7 14  1  0  0  0  0
  8  7  2  0  0  0  0
  9 18  1  0  0  0  0
  9 10  1  0  0  0  0
 11  2  1  0  0  0  0
 12 16  1  0  0  0  0
 12  5  2  0  0  0  0
 13 14  1  0  0  0  0
 13  3  2  0  0  0  0
 15  9  2  0  0  0  0
 16  4  2  0  0  0  0
 17 11  2  0  0  0  0
 17 15  1  0  0  0  0
 18  6  2  0  0  0  0
 19 17  1  0  0  0  0
 20 19  2  0  0  0  0
 21 20  1  0  0  0  0
 22 21  1  0  0  0  0
 23 22  1  0  0  0  0
 24 23  1  0  0  0  0
 25 23  2  0  0  0  0
M  END
>  <MODEL>
2

>  <REMARK>
 VINA RESULT:     -10.3      1.372      1.571
  Name = 
  4 active torsions:
  status: ('A' for Active; 'I' for Inactive)
    1  A    between atoms: C_2  and  C_25
    2  A    between atoms: C_6  and  C_23
    3  A    between atoms: N_15  and  C_21
    4  A    between atoms: C_21  and  C_25
                            x       y       z     vdW  Elec       q    Type
                         _______ _______ _______ _____ _____    ______ ____

>  <TORSDO>
F 4

$$$$
=
 OpenBabel10262419503D

 25 28  0  0  0  0  0  0  0  0999 V2000
  188.0370  177.5940  145.7110 C   0  0  0  0  0  0  0  0  0  0  0  0
  187.1260  177.9560  144.7190 C   0  0  0  0  0  0  0  0  0  0  0  0
  186.4260  178.0220  147.4470 C   0  0  0  0  0  3  0  0  0  0  0  0
  189.3440  177.1640  145.6800 C   0  0  0  0  0  0  0  0  0  0  0  0
  191.8910  176.2820  146.3070 C   0  0  0  0  0  3  0  0  0  0  0  0
  185.5260  178.3790  146.4830 N   0  0  0  0  0  0  0  0  0  0  0  0
  189.7010  176.9640  146.9980 C   0  0  0  0  0  0  0  0  0  0  0  0
  190.9740  176.5220  147.3480 C   0  0  0  0  0  3  0  0  0  0  0  0
  184.8790  178.7340  144.1840 C   0  0  0  0  0  0  0  0  0  0  0  0
  183.5080  179.1650  144.5790 C   0  0  0  0  0  1  0  0  0  0  0  0
  187.4450  177.9340  143.3590 C   0  0  0  0  0  3  0  0  0  0  0  0
  191.5210  176.4860  144.9580 C   0  0  0  0  0  3  0  0  0  0  0  0
  187.6970  177.6250  147.0450 C   0  0  0  0  0  0  0  0  0  0  0  0
  188.7010  177.2450  147.8100 O   0  0  0  0  0  0  0  0  0  0  0  0
  185.2130  178.7070  142.8250 C   0  0  0  0  0  3  0  0  0  0  0  0
  190.2290  176.9340  144.6290 C   0  0  0  0  0  3  0  0  0  0  0  0
  186.4880  178.3090  142.4080 C   0  0  0  0  0  0  0  0  0  0  0  0
  185.8320  178.3600  145.1450 C   0  0  0  0  0  0  0  0  0  0  0  0
  186.7950  178.2980  140.9750 C   0  0  0  0  0  3  0  0  0  0  0  0
  187.9920  178.0620  140.5420 N   0  0  0  0  0  0  0  0  0  0  0  0
  188.2840  178.0600  139.1180 C   0  0  0  0  0  2  0  0  0  0  0  0
  189.7820  178.1910  138.8690 C   0  0  0  0  0  2  0  0  0  0  0  0
  190.5400  177.1050  139.5550 C   0  0  0  0  0  0  0  0  0  0  0  0
  191.4510  177.4240  140.5990 N   0  0  0  0  0  1  0  0  0  0  0  0
  190.3850  175.9070  139.2020 O   0  0  0  0  0  0  0  0  0  0  0  0
  1 13  2  0  0  0  0
  2 18  1  0  0  0  0
  2  1  1  0  0  0  0
  4  1  1  0  0  0  0
  4  7  1  0  0  0  0
  5  8  1  0  0  0  0
  6  3  2  0  0  0  0
  7  8  2  0  0  0  0
  7 14  1  0  0  0  0
  9 10  1  0  0  0  0
  9 18  2  0  0  0  0
 11  2  2  0  0  0  0
 12  5  2  0  0  0  0
 13  3  1  0  0  0  0
 13 14  1  0  0  0  0
 15  9  1  0  0  0  0
 16 12  1  0  0  0  0
 16  4  2  0  0  0  0
 17 15  2  0  0  0  0
 17 11  1  0  0  0  0
 18  6  1  0  0  0  0
 19 17  1  0  0  0  0
 20 19  2  0  0  0  0
 21 20  1  0  0  0  0
 22 21  1  0  0  0  0
 22 23  1  0  0  0  0
 23 24  1  0  0  0  0
 25 23  2  0  0  0  0
M  END
>  <MODEL>
3

>  <REMARK>
 VINA RESULT:      -9.7      1.623      4.740
  Name = 
  4 active torsions:
  status: ('A' for Active; 'I' for Inactive)
    1  A    between atoms: C_2  and  C_25
    2  A    between atoms: C_6  and  C_23
    3  A    between atoms: N_15  and  C_21
    4  A    between atoms: C_21  and  C_25
                            x       y       z     vdW  Elec       q    Type
                         _______ _______ _______ _____ _____    ______ ____

>  <TORSDO>
F 4

$$$$
=
 OpenBabel10262419503D

 25 28  0  0  0  0  0  0  0  0999 V2000
  188.1280  177.5300  145.5190 C   0  0  0  0  0  0  0  0  0  0  0  0
  187.2820  177.8850  144.4690 C   0  0  0  0  0  0  0  0  0  0  0  0
  186.3900  177.9020  147.1410 C   0  0  0  0  0  3  0  0  0  0  0  0
  189.4430  177.1290  145.5760 C   0  0  0  0  0  0  0  0  0  0  0  0
  191.9590  176.2950  146.3720 C   0  0  0  0  0  3  0  0  0  0  0  0
  185.5520  178.2510  146.1200 N   0  0  0  0  0  0  0  0  0  0  0  0
  189.7110  176.9210  146.9140 C   0  0  0  0  0  0  0  0  0  0  0  0
  190.9670  176.5020  147.3480 C   0  0  0  0  0  3  0  0  0  0  0  0
  185.0610  178.6210  143.7850 C   0  0  0  0  0  0  0  0  0  0  0  0
  183.6560  179.0170  144.0870 C   0  0  0  0  0  1  0  0  0  0  0  0
  187.6960  177.8860  143.1340 C   0  0  0  0  0  3  0  0  0  0  0  0
  191.6810  176.5080  145.0030 C   0  0  0  0  0  3  0  0  0  0  0  0
  187.6940  177.5380  146.8260 C   0  0  0  0  0  0  0  0  0  0  0  0
  188.6510  177.1710  147.6560 O   0  0  0  0  0  0  0  0  0  0  0  0
  185.4900  178.6170  142.4530 C   0  0  0  0  0  3  0  0  0  0  0  0
  190.4050  176.9320  144.5870 C   0  0  0  0  0  3  0  0  0  0  0  0
  186.8000  178.2520  142.1220 C   0  0  0  0  0  0  0  0  0  0  0  0
  185.9520  178.2550  144.8070 C   0  0  0  0  0  0  0  0  0  0  0  0
  187.2080  178.2650  140.7150 C   0  0  0  0  0  3  0  0  0  0  0  0
  188.4550  178.2500  140.3720 N   0  0  0  0  0  0  0  0  0  0  0  0
  188.8460  178.2700  138.9720 C   0  0  0  0  0  2  0  0  0  0  0  0
  187.9320  177.3800  138.1390 C   0  0  0  0  0  2  0  0  0  0  0  0
  187.2030  178.1700  137.1060 C   0  0  0  0  0  0  0  0  0  0  0  0
  186.1170  177.5850  136.3980 N   0  0  0  0  0  1  0  0  0  0  0  0
  187.5560  179.3510  136.8480 O   0  0  0  0  0  0  0  0  0  0  0  0
  1  4  1  0  0  0  0
  1 13  2  0  0  0  0
  2 18  1  0  0  0  0
  2  1  1  0  0  0  0
  4  7  1  0  0  0  0
  5  8  1  0  0  0  0
  6  3  2  0  0  0  0
  7  8  2  0  0  0  0
  7 14  1  0  0  0  0
  9 10  1  0  0  0  0
  9 18  2  0  0  0  0
 11  2  2  0  0  0  0
 12  5  2  0  0  0  0
 13  3  1  0  0  0  0
 13 14  1  0  0  0  0
 15  9  1  0  0  0  0
 16 12  1  0  0  0  0
 16  4  2  0  0  0  0
 17 15  2  0  0  0  0
 17 11  1  0  0  0  0
 18  6  1  0  0  0  0
 19 17  1  0  0  0  0
 20 19  2  0  0  0  0
 21 20  1  0  0  0  0
 22 21  1  0  0  0  0
 23 22  1  0  0  0  0
 24 23  1  0  0  0  0
 25 23  2  0  0  0  0
M  END
>  <MODEL>
4

>  <REMARK>
 VINA RESULT:      -9.3      1.696      4.665
  Name = 
  4 active torsions:
  status: ('A' for Active; 'I' for Inactive)
    1  A    between atoms: C_2  and  C_25
    2  A    between atoms: C_6  and  C_23
    3  A    between atoms: N_15  and  C_21
    4  A    between atoms: C_21  and  C_25
                            x       y       z     vdW  Elec       q    Type
                         _______ _______ _______ _____ _____    ______ ____

>  <TORSDO>
F 4

$$$$
=
 OpenBabel10262419503D

 25 28  0  0  0  0  0  0  0  0999 V2000
  187.0850  177.9360  145.4350 C   0  0  0  0  0  0  0  0  0  0  0  0
  186.2600  178.2720  144.3610 C   0  0  0  0  0  0  0  0  0  0  0  0
  185.3020  178.2950  147.0100 C   0  0  0  0  0  3  0  0  0  0  0  0
  188.4030  177.5520  145.5270 C   0  0  0  0  0  0  0  0  0  0  0  0
  190.9090  176.7550  146.3910 C   0  0  0  0  0  3  0  0  0  0  0  0
  184.4860  178.6270  145.9670 N   0  0  0  0  0  0  0  0  0  0  0  0
  188.6400  177.3560  146.8720 C   0  0  0  0  0  0  0  0  0  0  0  0
  189.8900  176.9560  147.3400 C   0  0  0  0  0  3  0  0  0  0  0  0
  184.0490  178.9750  143.6170 C   0  0  0  0  0  0  0  0  0  0  0  0
  182.6310  179.3550  143.8820 C   0  0  0  0  0  1  0  0  0  0  0  0
  186.7080  178.2710  143.0380 C   0  0  0  0  0  3  0  0  0  0  0  0
  190.6620  176.9560  145.0140 C   0  0  0  0  0  3  0  0  0  0  0  0
  186.6190  177.9460  146.7300 C   0  0  0  0  0  0  0  0  0  0  0  0
  187.5580  177.5970  147.5860 O   0  0  0  0  0  0  0  0  0  0  0  0
  184.5100  178.9690  142.2960 C   0  0  0  0  0  3  0  0  0  0  0  0
  189.3920  177.3610  144.5640 C   0  0  0  0  0  3  0  0  0  0  0  0
  185.8330  178.6190  142.0010 C   0  0  0  0  0  0  0  0  0  0  0  0
  184.9180  178.6280  144.6630 C   0  0  0  0  0  0  0  0  0  0  0  0
  186.2760  178.6280  140.6040 C   0  0  0  0  0  3  0  0  0  0  0  0
  185.4280  178.6270  139.6260 N   0  0  0  0  0  0  0  0  0  0  0  0
  185.8810  178.6290  138.2450 C   0  0  0  0  0  2  0  0  0  0  0  0
  187.0660  177.6900  138.0590 C   0  0  0  0  0  2  0  0  0  0  0  0
  188.0030  178.2000  137.0170 C   0  0  0  0  0  0  0  0  0  0  0  0
  188.7390  179.3950  137.2450 N   0  0  0  0  0  1  0  0  0  0  0  0
  188.1330  177.5810  135.9280 O   0  0  0  0  0  0  0  0  0  0  0  0
  1  4  1  0  0  0  0
  1 13  2  0  0  0  0
  2 18  1  0  0  0  0
  2  1  1  0  0  0  0
  4  7  1  0  0  0  0
  5  8  1  0  0  0  0
  6  3  2  0  0  0  0
  7  8  2  0  0  0  0
  7 14  1  0  0  0  0
  9 10  1  0  0  0  0
  9 18  2  0  0  0  0
 11  2  2  0  0  0  0
 12  5  2  0  0  0  0
 13  3  1  0  0  0  0
 13 14  1  0  0  0  0
 15  9  1  0  0  0  0
 16 12  1  0  0  0  0
 16  4  2  0  0  0  0
 17 15  2  0  0  0  0
 17 11  1  0  0  0  0
 18  6  1  0  0  0  0
 19 17  1  0  0  0  0
 20 19  2  0  0  0  0
 21 20  1  0  0  0  0
 22 21  1  0  0  0  0
 23 24  1  0  0  0  0
 23 22  1  0  0  0  0
 25 23  2  0  0  0  0
M  END
>  <MODEL>
5

>  <REMARK>
 VINA RESULT:      -9.3      2.127      4.921
  Name = 
  4 active torsions:
  status: ('A' for Active; 'I' for Inactive)
    1  A    between atoms: C_2  and  C_25
    2  A    between atoms: C_6  and  C_23
    3  A    between atoms: N_15  and  C_21
    4  A    between atoms: C_21  and  C_25
                            x       y       z     vdW  Elec       q    Type
                         _______ _______ _______ _____ _____    ______ ____

>  <TORSDO>
F 4

$$$$
=
 OpenBabel10262419503D

 25 28  0  0  0  0  0  0  0  0999 V2000
  187.0490  178.2580  141.5630 C   0  0  0  0  0  0  0  0  0  0  0  0
  186.5290  178.2450  142.8580 C   0  0  0  0  0  0  0  0  0  0  0  0
  184.9490  179.0000  140.6510 C   0  0  0  0  0  3  0  0  0  0  0  0
  188.2860  177.9580  141.0410 C   0  0  0  0  0  0  0  0  0  0  0  0
  190.4650  177.5240  139.3910 C   0  0  0  0  0  3  0  0  0  0  0  0
  184.4300  178.9900  141.9150 N   0  0  0  0  0  0  0  0  0  0  0  0
  188.1750  178.1670  139.6810 C   0  0  0  0  0  0  0  0  0  0  0  0
  189.2520  177.9580  138.8230 C   0  0  0  0  0  3  0  0  0  0  0  0
  184.6010  178.6300  144.2970 C   0  0  0  0  0  0  0  0  0  0  0  0
  183.1790  179.0240  144.5130 C   0  0  0  0  0  1  0  0  0  0  0  0
  187.2890  177.8740  143.9710 C   0  0  0  0  0  3  0  0  0  0  0  0
  190.5740  177.3110  140.7840 C   0  0  0  0  0  3  0  0  0  0  0  0
  186.2780  178.6270  140.4840 C   0  0  0  0  0  0  0  0  0  0  0  0
  186.9620  178.5700  139.3580 O   0  0  0  0  0  0  0  0  0  0  0  0
  185.3730  178.2580  145.4030 C   0  0  0  0  0  3  0  0  0  0  0  0
  189.4720  177.5290  141.6310 C   0  0  0  0  0  3  0  0  0  0  0  0
  186.7120  177.8810  145.2470 C   0  0  0  0  0  0  0  0  0  0  0  0
  185.1700  178.6280  143.0140 C   0  0  0  0  0  0  0  0  0  0  0  0
  187.4840  177.4950  146.4320 C   0  0  0  0  0  3  0  0  0  0  0  0
  188.7440  177.7710  146.5370 N   0  0  0  0  0  0  0  0  0  0  0  0
  189.4990  177.3760  147.7150 C   0  0  0  0  0  2  0  0  0  0  0  0
  190.2950  176.1050  147.4500 C   0  0  0  0  0  2  0  0  0  0  0  0
  191.7290  176.4100  147.1790 C   0  0  0  0  0  0  0  0  0  0  0  0
  192.7310  175.9930  148.0980 N   0  0  0  0  0  1  0  0  0  0  0  0
  192.0540  177.0500  146.1450 O   0  0  0  0  0  0  0  0  0  0  0  0
  1  2  2  0  0  0  0
  2 18  1  0  0  0  0
  2 11  1  0  0  0  0
  3  6  1  0  0  0  0
  4  1  1  0  0  0  0
  4 16  1  0  0  0  0
  5 12  1  0  0  0  0
  6 18  2  0  0  0  0
  7  4  2  0  0  0  0
  8  5  2  0  0  0  0
  8  7  1  0  0  0  0
  9 10  1  0  0  0  0
  9 15  2  0  0  0  0
 11 17  2  0  0  0  0
 12 16  2  0  0  0  0
 13  3  2  0  0  0  0
 13  1  1  0  0  0  0
 14  7  1  0  0  0  0
 14 13  1  0  0  0  0
 17 15  1  0  0  0  0
 17 19  1  0  0  0  0
 18  9  1  0  0  0  0
 19 20  2  0  0  0  0
 20 21  1  0  0  0  0
 22 21  1  0  0  0  0
 23 22  1  0  0  0  0
 23 24  1  0  0  0  0
 25 23  2  0  0  0  0
M  END
>  <MODEL>
6

>  <REMARK>
 VINA RESULT:      -9.2      2.281      6.905
  Name = 
  4 active torsions:
  status: ('A' for Active; 'I' for Inactive)
    1  A    between atoms: C_2  and  C_25
    2  A    between atoms: C_6  and  C_23
    3  A    between atoms: N_15  and  C_21
    4  A    between atoms: C_21  and  C_25
                            x       y       z     vdW  Elec       q    Type
                         _______ _______ _______ _____ _____    ______ ____

>  <TORSDO>
F 4

$$$$
=
 OpenBabel10262419503D

 25 28  0  0  0  0  0  0  0  0999 V2000
  189.5490  177.3980  143.7320 C   0  0  0  0  0  0  0  0  0  0  0  0
  188.4760  177.5830  144.6040 C   0  0  0  0  0  0  0  0  0  0  0  0
  191.0580  176.9920  145.5620 C   0  0  0  0  0  3  0  0  0  0  0  0
  189.6680  177.4380  142.3620 C   0  0  0  0  0  0  0  0  0  0  0  0
  190.5720  177.3700  139.7470 C   0  0  0  0  0  3  0  0  0  0  0  0
  190.0140  177.1720  146.4240 N   0  0  0  0  0  0  0  0  0  0  0  0
  190.9950  177.1690  142.0960 C   0  0  0  0  0  0  0  0  0  0  0  0
  191.4830  177.1280  140.7920 C   0  0  0  0  0  3  0  0  0  0  0  0
  187.6960  177.6410  146.9120 C   0  0  0  0  0  0  0  0  0  0  0  0
  187.9250  177.5240  148.3810 C   0  0  0  0  0  1  0  0  0  0  0  0
  187.1840  177.8780  144.1570 C   0  0  0  0  0  3  0  0  0  0  0  0
  189.2130  177.6440  140.0230 C   0  0  0  0  0  3  0  0  0  0  0  0
  190.8110  177.1080  144.1980 C   0  0  0  0  0  0  0  0  0  0  0  0
  191.6730  176.9730  143.2100 O   0  0  0  0  0  0  0  0  0  0  0  0
  186.4080  177.9350  146.4510 C   0  0  0  0  0  3  0  0  0  0  0  0
  188.7430  177.6810  141.3480 C   0  0  0  0  0  3  0  0  0  0  0  0
  186.1460  178.0540  145.0810 C   0  0  0  0  0  0  0  0  0  0  0  0
  188.7430  177.4620  145.9940 C   0  0  0  0  0  0  0  0  0  0  0  0
  184.7840  178.3660  144.6420 C   0  0  0  0  0  3  0  0  0  0  0  0
  184.5140  178.6180  143.4020 N   0  0  0  0  0  0  0  0  0  0  0  0
  183.1580  178.9320  142.9810 C   0  0  0  0  0  2  0  0  0  0  0  0
  182.1590  178.6290  144.0910 C   0  0  0  0  0  2  0  0  0  0  0  0
  180.7580  178.8590  143.6360 C   0  0  0  0  0  0  0  0  0  0  0  0
  180.4390  180.0140  142.8710 N   0  0  0  0  0  1  0  0  0  0  0  0
  179.8530  178.0380  143.9390 O   0  0  0  0  0  0  0  0  0  0  0  0
  1 13  1  0  0  0  0
  1  2  2  0  0  0  0
  2 18  1  0  0  0  0
  3  6  1  0  0  0  0
  4  1  1  0  0  0  0
  5 12  2  0  0  0  0
  5  8  1  0  0  0  0
  7  4  1  0  0  0  0
  7 14  1  0  0  0  0
  8  7  2  0  0  0  0
  9 10  1  0  0  0  0
 11  2  1  0  0  0  0
 11 17  2  0  0  0  0
 12 16  1  0  0  0  0
 13  3  2  0  0  0  0
 14 13  1  0  0  0  0
 15  9  2  0  0  0  0
 16  4  2  0  0  0  0
 17 15  1  0  0  0  0
 18  6  2  0  0  0  0
 18  9  1  0  0  0  0
 19 17  1  0  0  0  0
 20 19  2  0  0  0  0
 21 20  1  0  0  0  0
 21 22  1  0  0  0  0
 23 25  2  0  0  0  0
 23 22  1  0  0  0  0
 24 23  1  0  0  0  0
M  END
>  <MODEL>
7

>  <REMARK>
 VINA RESULT:      -9.2      2.787      6.176
  Name = 
  4 active torsions:
  status: ('A' for Active; 'I' for Inactive)
    1  A    between atoms: C_2  and  C_25
    2  A    between atoms: C_6  and  C_23
    3  A    between atoms: N_15  and  C_21
    4  A    between atoms: C_21  and  C_25
                            x       y       z     vdW  Elec       q    Type
                         _______ _______ _______ _____ _____    ______ ____

>  <TORSDO>
F 4

$$$$
=
 OpenBabel10262419503D

 25 28  0  0  0  0  0  0  0  0999 V2000
  185.5300  178.2400  144.7800 C   0  0  0  0  0  0  0  0  0  0  0  0
  186.8310  177.7400  144.7280 C   0  0  0  0  0  0  0  0  0  0  0  0
  185.7130  178.6680  147.1410 C   0  0  0  0  0  3  0  0  0  0  0  0
  184.5460  178.4100  143.8330 C   0  0  0  0  0  0  0  0  0  0  0  0
  182.2120  179.0030  142.4700 C   0  0  0  0  0  3  0  0  0  0  0  0
  186.9880  178.1790  147.1010 N   0  0  0  0  0  0  0  0  0  0  0  0
  183.4730  178.9570  144.5060 C   0  0  0  0  0  0  0  0  0  0  0  0
  182.2830  179.2660  143.8510 C   0  0  0  0  0  3  0  0  0  0  0  0
  188.8790  177.2220  145.9430 C   0  0  0  0  0  0  0  0  0  0  0  0
  189.6910  177.1790  147.1930 C   0  0  0  0  0  1  0  0  0  0  0  0
  187.4110  177.2720  143.5460 C   0  0  0  0  0  3  0  0  0  0  0  0
  183.3140  178.4440  141.7840 C   0  0  0  0  0  3  0  0  0  0  0  0
  184.9820  178.6950  145.9590 C   0  0  0  0  0  0  0  0  0  0  0  0
  183.7470  179.1230  145.7850 O   0  0  0  0  0  0  0  0  0  0  0  0
  189.4480  176.7580  144.7520 C   0  0  0  0  0  3  0  0  0  0  0  0
  184.5050  178.1390  142.4670 C   0  0  0  0  0  3  0  0  0  0  0  0
  188.7220  176.7800  143.5550 C   0  0  0  0  0  0  0  0  0  0  0  0
  187.5650  177.7180  145.9440 C   0  0  0  0  0  0  0  0  0  0  0  0
  189.3560  176.2810  142.3310 C   0  0  0  0  0  3  0  0  0  0  0  0
  189.5250  177.0430  141.2990 N   0  0  0  0  0  0  0  0  0  0  0  0
  190.1490  176.5330  140.0880 C   0  0  0  0  0  2  0  0  0  0  0  0
  191.1460  177.5380  139.5250 C   0  0  0  0  0  2  0  0  0  0  0  0
  192.4260  177.5170  140.2900 C   0  0  0  0  0  0  0  0  0  0  0  0
  192.4050  177.5100  141.7110 N   0  0  0  0  0  1  0  0  0  0  0  0
  193.5260  177.5190  139.6790 O   0  0  0  0  0  0  0  0  0  0  0  0
  1 13  1  0  0  0  0
  2  1  2  0  0  0  0
  2 18  1  0  0  0  0
  4  7  1  0  0  0  0
  4  1  1  0  0  0  0
  5  8  1  0  0  0  0
  6  3  1  0  0  0  0
  7 14  1  0  0  0  0
  8  7  2  0  0  0  0
  9 18  1  0  0  0  0
  9 10  1  0  0  0  0
 11 17  2  0  0  0  0
 11  2  1  0  0  0  0
 12 16  1  0  0  0  0
 12  5  2  0  0  0  0
 13  3  2  0  0  0  0
 14 13  1  0  0  0  0
 15  9  2  0  0  0  0
 16  4  2  0  0  0  0
 17 15  1  0  0  0  0
 18  6  2  0  0  0  0
 19 17  1  0  0  0  0
 20 19  2  0  0  0  0
 21 20  1  0  0  0  0
 22 21  1  0  0  0  0
 22 23  1  0  0  0  0
 23 24  1  0  0  0  0
 25 23  2  0  0  0  0
M  END
>  <MODEL>
8

>  <REMARK>
 VINA RESULT:      -9.0      1.761      2.416
  Name = 
  4 active torsions:
  status: ('A' for Active; 'I' for Inactive)
    1  A    between atoms: C_2  and  C_25
    2  A    between atoms: C_6  and  C_23
    3  A    between atoms: N_15  and  C_21
    4  A    between atoms: C_21  and  C_25
                            x       y       z     vdW  Elec       q    Type
                         _______ _______ _______ _____ _____    ______ ____

>  <TORSDO>
F 4

$$$$
=
 OpenBabel10262419503D

 25 28  0  0  0  0  0  0  0  0999 V2000
  186.9400  177.8410  144.5710 C   0  0  0  0  0  0  0  0  0  0  0  0
  188.0400  177.4840  143.7920 C   0  0  0  0  0  0  0  0  0  0  0  0
  188.1760  177.4850  146.6050 C   0  0  0  0  0  3  0  0  0  0  0  0
  185.6580  178.2370  144.2670 C   0  0  0  0  0  0  0  0  0  0  0  0
  183.0190  179.0650  144.3480 C   0  0  0  0  0  3  0  0  0  0  0  0
  189.2590  177.1340  145.8510 N   0  0  0  0  0  0  0  0  0  0  0  0
  185.0380  178.4510  145.4810 C   0  0  0  0  0  0  0  0  0  0  0  0
  183.7110  178.8680  145.5570 C   0  0  0  0  0  3  0  0  0  0  0  0
  190.3650  176.7530  143.7380 C   0  0  0  0  0  0  0  0  0  0  0  0
  191.6370  176.3640  144.4120 C   0  0  0  0  0  1  0  0  0  0  0  0
  188.0020  177.4730  142.3950 C   0  0  0  0  0  3  0  0  0  0  0  0
  183.6580  178.8460  143.1070 C   0  0  0  0  0  3  0  0  0  0  0  0
  187.0040  177.8420  145.9470 C   0  0  0  0  0  0  0  0  0  0  0  0
  185.8580  178.2100  146.4850 O   0  0  0  0  0  0  0  0  0  0  0  0
  190.3120  176.7470  142.3400 C   0  0  0  0  0  3  0  0  0  0  0  0
  184.9990  178.4250  143.0540 C   0  0  0  0  0  3  0  0  0  0  0  0
  189.1400  177.1050  141.6650 C   0  0  0  0  0  0  0  0  0  0  0  0
  189.2300  177.1210  144.4780 C   0  0  0  0  0  0  0  0  0  0  0  0
  189.1280  177.0830  140.2000 C   0  0  0  0  0  3  0  0  0  0  0  0
  189.7430  177.9840  139.5050 N   0  0  0  0  0  0  0  0  0  0  0  0
  189.7180  177.9540  138.0510 C   0  0  0  0  0  2  0  0  0  0  0  0
  189.5410  176.5300  137.5400 C   0  0  0  0  0  2  0  0  0  0  0  0
  190.8540  175.8320  137.4170 C   0  0  0  0  0  0  0  0  0  0  0  0
  191.0220  174.5330  137.9680 N   0  0  0  0  0  1  0  0  0  0  0  0
  191.8180  176.3990  136.8390 O   0  0  0  0  0  0  0  0  0  0  0  0
  1 13  2  0  0  0  0
  2 18  1  0  0  0  0
  2  1  1  0  0  0  0
  4  1  1  0  0  0  0
  4  7  1  0  0  0  0
  5  8  1  0  0  0  0
  6  3  2  0  0  0  0
  7  8  2  0  0  0  0
  7 14  1  0  0  0  0
  9 10  1  0  0  0  0
  9 18  2  0  0  0  0
 11  2  2  0  0  0  0
 12  5  2  0  0  0  0
 13 14  1  0  0  0  0
 13  3  1  0  0  0  0
 15  9  1  0  0  0  0
 16 12  1  0  0  0  0
 16  4  2  0  0  0  0
 17 15  2  0  0  0  0
 17 11  1  0  0  0  0
 18  6  1  0  0  0  0
 19 17  1  0  0  0  0
 20 19  2  0  0  0  0
 21 20  1  0  0  0  0
 22 21  1  0  0  0  0
 23 22  1  0  0  0  0
 23 24  1  0  0  0  0
 25 23  2  0  0  0  0
M  END
>  <MODEL>
9

>  <REMARK>
 VINA RESULT:      -8.9      1.685      2.236
  Name = 
  4 active torsions:
  status: ('A' for Active; 'I' for Inactive)
    1  A    between atoms: C_2  and  C_25
    2  A    between atoms: C_6  and  C_23
    3  A    between atoms: N_15  and  C_21
    4  A    between atoms: C_21  and  C_25
                            x       y       z     vdW  Elec       q    Type
                         _______ _______ _______ _____ _____    ______ ____

>  <TORSDO>
F 4

$$$$
