=
 OpenBabel10262420563D

 28 31  0  0  1  0  0  0  0  0999 V2000
  190.8150  176.8030  144.7020 C   0  0  2  0  0  3  0  0  0  0  0  0
  186.0840  177.9160  143.0130 C   0  0  0  0  0  3  0  0  0  0  0  0
  188.4860  178.3270  148.7660 C   0  0  0  0  0  1  0  0  0  0  0  0
  184.8490  178.4880  145.0000 C   0  0  0  0  0  0  0  0  0  0  0  0
  187.1990  177.8690  145.1550 C   0  0  0  0  0  0  0  0  0  0  0  0
  183.7700  178.6710  142.7970 C   0  0  0  0  0  0  0  0  0  0  0  0
  186.0590  178.1390  144.4040 C   0  0  0  0  0  0  0  0  0  0  0  0
  185.8810  178.1690  147.1880 C   0  0  0  0  0  3  0  0  0  0  0  0
  183.7300  178.8510  144.2140 C   0  0  0  0  0  3  0  0  0  0  0  0
  189.4780  177.3100  146.7400 C   0  0  0  0  0  0  0  0  0  0  0  0
  188.3850  177.5090  144.6350 C   0  0  0  0  0  3  0  0  0  0  0  0
  184.7800  178.5650  146.4210 C   0  0  0  0  0  3  0  0  0  0  0  0
  191.5960  175.9000  146.9630 C   0  0  0  0  0  2  0  0  0  0  0  0
  188.3010  177.7400  147.3400 C   0  0  0  0  0  0  0  0  0  0  0  0
  190.7940  177.0400  147.4740 C   0  0  0  0  0  2  0  0  0  0  0  0
  182.6760  178.8670  141.9770 O   0  0  0  0  0  1  0  0  0  0  0  0
  184.9710  178.1490  142.2310 C   0  0  0  0  0  3  0  0  0  0  0  0
  187.0910  177.9550  146.5910 C   0  0  0  0  0  0  0  0  0  0  0  0
  191.8890  176.1030  145.5520 C   0  0  0  0  0  2  0  0  0  0  0  0
  189.5050  177.1620  145.3590 C   0  0  0  0  0  0  0  0  0  0  0  0
  190.8320  176.1680  143.3050 C   0  0  0  0  0  2  0  0  0  0  0  0
  191.0030  177.2060  142.1650 C   0  0  0  0  0  2  0  0  0  0  0  0
  189.7570  176.8650  141.3830 C   0  0  0  0  0  2  0  0  0  0  0  0
  187.1980  178.2330  139.2840 C   0  0  0  0  0  1  0  0  0  0  0  0
  189.7090  177.4830  139.9480 N   0  0  0  0  0  0  0  0  0  0  0  0
  189.1520  179.1860  138.3400 O   0  0  0  0  0  0  0  0  0  0  0  0
  188.7500  178.3450  139.1990 C   0  0  0  0  0  0  0  0  0  0  0  0
  190.9600  177.3990  139.4240 C   0  0  0  0  0  1  0  0  0  0  0  0
  1 21  1  6  0  0  0
  1 20  1  0  0  0  0
  1 19  1  0  0  0  0
  2  7  1  0  0  0  0
  4 12  1  0  0  0  0
  5 18  1  0  0  0  0
  6  9  2  0  0  0  0
  7  4  2  0  0  0  0
  7  5  1  0  0  0  0
  9  4  1  0  0  0  0
 10 14  1  0  0  0  0
 10 15  1  0  0  0  0
 11  5  2  0  0  0  0
 11 20  1  0  0  0  0
 12  8  2  0  0  0  0
 13 15  1  0  0  0  0
 14  3  1  0  0  0  0
 16  6  1  0  0  0  0
 17  6  1  0  0  0  0
 17  2  2  0  0  0  0
 18  8  1  0  0  0  0
 18 14  2  0  0  0  0
 19 13  1  0  0  0  0
 20 10  2  0  0  0  0
 22 21  1  0  0  0  0
 23 22  1  0  0  0  0
 25 23  1  0  0  0  0
 26 27  2  0  0  0  0
 27 24  1  0  0  0  0
 27 25  1  0  0  0  0
 28 25  1  0  0  0  0
M  END
>  <MODEL>
1

>  <REMARK>
 VINA RESULT:     -11.9      0.000      0.000
  Name = 
  4 active torsions:
  status: ('A' for Active; 'I' for Inactive)
    1  A    between atoms: C_1  and  C_2
    2  A    between atoms: C_2  and  C_7
    3  A    between atoms: N_6  and  C_28
    4  A    between atoms: C_7  and  C_28
                            x       y       z     vdW  Elec       q    Type
                         _______ _______ _______ _____ _____    ______ ____

>  <TORSDO>
F 4

$$$$
=
 OpenBabel10262420563D

 28 31  0  0  1  0  0  0  0  0999 V2000
  190.4530  176.8970  143.4930 C   0  0  2  0  0  3  0  0  0  0  0  0
  185.4900  178.1520  142.9650 C   0  0  0  0  0  3  0  0  0  0  0  0
  189.0900  178.0960  148.0720 C   0  0  0  0  0  1  0  0  0  0  0  0
  184.7270  178.5660  145.2120 C   0  0  0  0  0  0  0  0  0  0  0  0
  187.0420  177.9320  144.8030 C   0  0  0  0  0  0  0  0  0  0  0  0
  183.1990  178.9260  143.3170 C   0  0  0  0  0  0  0  0  0  0  0  0
  185.7720  178.2630  144.3420 C   0  0  0  0  0  0  0  0  0  0  0  0
  186.2020  178.0700  147.0910 C   0  0  0  0  0  3  0  0  0  0  0  0
  183.4720  178.9930  144.7190 C   0  0  0  0  0  3  0  0  0  0  0  0
  189.5990  177.2430  145.8060 C   0  0  0  0  0  0  0  0  0  0  0  0
  188.0800  177.6120  144.0110 C   0  0  0  0  0  3  0  0  0  0  0  0
  184.9690  178.5280  146.6160 C   0  0  0  0  0  3  0  0  0  0  0  0
  191.6870  175.8150  145.4530 C   0  0  0  0  0  2  0  0  0  0  0  0
  188.5880  177.6260  146.6790 C   0  0  0  0  0  0  0  0  0  0  0  0
  191.0370  176.9120  146.2130 C   0  0  0  0  0  2  0  0  0  0  0  0
  181.9580  179.1900  142.7730 O   0  0  0  0  0  1  0  0  0  0  0  0
  184.2390  178.4490  142.4650 C   0  0  0  0  0  3  0  0  0  0  0  0
  187.2500  177.9030  146.2310 C   0  0  0  0  0  0  0  0  0  0  0  0
  191.6710  176.1300  144.0320 C   0  0  0  0  0  2  0  0  0  0  0  0
  189.3230  177.2060  144.4450 C   0  0  0  0  0  0  0  0  0  0  0  0
  190.1540  176.3760  142.0810 C   0  0  0  0  0  2  0  0  0  0  0  0
  190.6730  177.3160  140.9610 C   0  0  0  0  0  2  0  0  0  0  0  0
  189.3340  177.7850  140.4440 C   0  0  0  0  0  2  0  0  0  0  0  0
  191.0360  175.8690  137.9410 C   0  0  0  0  0  1  0  0  0  0  0  0
  189.0150  177.3320  138.9820 N   0  0  0  0  0  0  0  0  0  0  0  0
  188.7850  175.7100  137.2170 O   0  0  0  0  0  0  0  0  0  0  0  0
  189.5390  176.2820  138.0610 C   0  0  0  0  0  0  0  0  0  0  0  0
  187.8170  177.8740  138.6390 C   0  0  0  0  0  1  0  0  0  0  0  0
  1 21  1  6  0  0  0
  1 19  1  0  0  0  0
  1 20  1  0  0  0  0
  2  7  1  0  0  0  0
  4 12  1  0  0  0  0
  5 18  1  0  0  0  0
  6  9  2  0  0  0  0
  7  5  1  0  0  0  0
  7  4  2  0  0  0  0
  9  4  1  0  0  0  0
 10 15  1  0  0  0  0
 10 14  1  0  0  0  0
 11 20  1  0  0  0  0
 11  5  2  0  0  0  0
 12  8  2  0  0  0  0
 13 15  1  0  0  0  0
 14  3  1  0  0  0  0
 16  6  1  0  0  0  0
 17  2  2  0  0  0  0
 17  6  1  0  0  0  0
 18 14  2  0  0  0  0
 18  8  1  0  0  0  0
 19 13  1  0  0  0  0
 20 10  2  0  0  0  0
 22 21  1  0  0  0  0
 23 22  1  0  0  0  0
 24 27  1  0  0  0  0
 25 23  1  0  0  0  0
 26 27  2  0  0  0  0
 27 25  1  0  0  0  0
 28 25  1  0  0  0  0
M  END
>  <MODEL>
2

>  <REMARK>
 VINA RESULT:     -11.1      1.195      1.637
  Name = 
  4 active torsions:
  status: ('A' for Active; 'I' for Inactive)
    1  A    between atoms: C_1  and  C_2
    2  A    between atoms: C_2  and  C_7
    3  A    between atoms: N_6  and  C_28
    4  A    between atoms: C_7  and  C_28
                            x       y       z     vdW  Elec       q    Type
                         _______ _______ _______ _____ _____    ______ ____

>  <TORSDO>
F 4

$$$$
=
 OpenBabel10262420563D

 28 31  0  0  1  0  0  0  0  0999 V2000
  186.6590  178.1170  146.1420 C   0  0  2  0  0  3  0  0  0  0  0  0
  188.3310  178.1020  141.2750 C   0  0  0  0  0  3  0  0  0  0  0  0
  191.2440  176.3550  146.5200 C   0  0  0  0  0  1  0  0  0  0  0  0
  190.6380  177.4250  141.4290 C   0  0  0  0  0  0  0  0  0  0  0  0
  189.2800  177.6090  143.4410 C   0  0  0  0  0  0  0  0  0  0  0  0
  189.6160  177.7900  139.2200 C   0  0  0  0  0  0  0  0  0  0  0  0
  189.4170  177.6600  142.0580 C   0  0  0  0  0  0  0  0  0  0  0  0
  191.6810  177.2030  143.6230 C   0  0  0  0  0  3  0  0  0  0  0  0
  190.7320  177.3880  140.0170 C   0  0  0  0  0  3  0  0  0  0  0  0
  189.0720  177.5110  146.2630 C   0  0  0  0  0  0  0  0  0  0  0  0
  188.1340  177.8470  144.1020 C   0  0  0  0  0  3  0  0  0  0  0  0
  191.7780  177.1280  142.2290 C   0  0  0  0  0  3  0  0  0  0  0  0
  187.9310  178.4920  148.3280 C   0  0  0  0  0  2  0  0  0  0  0  0
  190.2720  177.1910  145.6420 C   0  0  0  0  0  0  0  0  0  0  0  0
  188.8100  177.4340  147.7700 C   0  0  0  0  0  2  0  0  0  0  0  0
  189.6720  177.9160  137.8460 O   0  0  0  0  0  1  0  0  0  0  0  0
  188.4280  178.1900  139.9020 C   0  0  0  0  0  3  0  0  0  0  0  0
  190.4560  177.3070  144.2200 C   0  0  0  0  0  0  0  0  0  0  0  0
  186.6510  178.4780  147.6370 C   0  0  0  0  0  2  0  0  0  0  0  0
  187.9900  177.8780  145.4720 C   0  0  0  0  0  0  0  0  0  0  0  0
  185.5840  178.9610  145.4470 C   0  0  0  0  0  2  0  0  0  0  0  0
  184.2050  178.2530  145.3720 C   0  0  0  0  0  2  0  0  0  0  0  0
  183.4300  179.3720  144.7190 C   0  0  0  0  0  2  0  0  0  0  0  0
  185.1050  179.0040  141.5750 C   0  0  0  0  0  1  0  0  0  0  0  0
  182.9850  179.0750  143.2510 N   0  0  0  0  0  0  0  0  0  0  0  0
  183.0610  177.8780  141.1640 O   0  0  0  0  0  0  0  0  0  0  0  0
  183.6670  178.5950  142.0140 C   0  0  0  0  0  0  0  0  0  0  0  0
  181.6280  179.0030  143.2420 C   0  0  0  0  0  1  0  0  0  0  0  0
  1 21  1  6  0  0  0
  1 19  1  0  0  0  0
  2  7  1  0  0  0  0
  4  7  2  0  0  0  0
  4 12  1  0  0  0  0
  5 11  2  0  0  0  0
  5 18  1  0  0  0  0
  6 17  1  0  0  0  0
  6  9  2  0  0  0  0
  7  5  1  0  0  0  0
  8 18  1  0  0  0  0
  9  4  1  0  0  0  0
 10 15  1  0  0  0  0
 11 20  1  0  0  0  0
 12  8  2  0  0  0  0
 14 10  1  0  0  0  0
 14  3  1  0  0  0  0
 15 13  1  0  0  0  0
 16  6  1  0  0  0  0
 17  2  2  0  0  0  0
 18 14  2  0  0  0  0
 19 13  1  0  0  0  0
 20  1  1  0  0  0  0
 20 10  2  0  0  0  0
 22 21  1  0  0  0  0
 23 22  1  0  0  0  0
 24 27  1  0  0  0  0
 25 23  1  0  0  0  0
 26 27  2  0  0  0  0
 27 25  1  0  0  0  0
 28 25  1  0  0  0  0
M  END
>  <MODEL>
3

>  <REMARK>
 VINA RESULT:     -10.7      1.789      5.777
  Name = 
  4 active torsions:
  status: ('A' for Active; 'I' for Inactive)
    1  A    between atoms: C_1  and  C_2
    2  A    between atoms: C_2  and  C_7
    3  A    between atoms: N_6  and  C_28
    4  A    between atoms: C_7  and  C_28
                            x       y       z     vdW  Elec       q    Type
                         _______ _______ _______ _____ _____    ______ ____

>  <TORSDO>
F 4

$$$$
=
 OpenBabel10262420563D

 28 31  0  0  1  0  0  0  0  0999 V2000
  185.6070  177.9160  144.9650 C   0  0  2  0  0  3  0  0  0  0  0  0
  188.6060  177.5530  140.7990 C   0  0  0  0  0  3  0  0  0  0  0  0
  190.0740  177.0460  146.8510 C   0  0  0  0  0  1  0  0  0  0  0  0
  190.8370  177.3140  141.6770 C   0  0  0  0  0  0  0  0  0  0  0  0
  188.9420  177.5220  143.1910 C   0  0  0  0  0  0  0  0  0  0  0  0
  190.4610  177.2010  139.2470 C   0  0  0  0  0  0  0  0  0  0  0  0
  189.4660  177.4140  141.9070 C   0  0  0  0  0  0  0  0  0  0  0  0
  191.2180  177.5690  144.0730 C   0  0  0  0  0  3  0  0  0  0  0  0
  191.3400  177.1090  140.3700 C   0  0  0  0  0  3  0  0  0  0  0  0
  187.9380  177.7620  145.8280 C   0  0  0  0  0  0  0  0  0  0  0  0
  187.6320  177.6410  143.4710 C   0  0  0  0  0  3  0  0  0  0  0  0
  191.7240  177.3290  142.7910 C   0  0  0  0  0  3  0  0  0  0  0  0
  186.1300  178.7920  147.3090 C   0  0  0  0  0  2  0  0  0  0  0  0
  189.2980  177.5770  145.6150 C   0  0  0  0  0  0  0  0  0  0  0  0
  187.2630  177.8390  147.2000 C   0  0  0  0  0  2  0  0  0  0  0  0
  190.8960  177.1530  137.9370 O   0  0  0  0  0  1  0  0  0  0  0  0
  189.0850  177.4740  139.5080 C   0  0  0  0  0  3  0  0  0  0  0  0
  189.8700  177.5350  144.2960 C   0  0  0  0  0  0  0  0  0  0  0  0
  185.1180  178.4640  146.3160 C   0  0  0  0  0  2  0  0  0  0  0  0
  187.0940  177.8270  144.7260 C   0  0  0  0  0  0  0  0  0  0  0  0
  184.6790  178.4600  143.8720 C   0  0  0  0  0  2  0  0  0  0  0  0
  183.6040  179.4390  144.4150 C   0  0  0  0  0  2  0  0  0  0  0  0
  182.3820  178.6300  144.0520 C   0  0  0  0  0  2  0  0  0  0  0  0
  183.3060  178.1850  140.6210 C   0  0  0  0  0  1  0  0  0  0  0  0
  181.7480  179.0030  142.6730 N   0  0  0  0  0  0  0  0  0  0  0  0
  180.9670  178.5240  140.4470 O   0  0  0  0  0  0  0  0  0  0  0  0
  181.9350  178.5490  141.2650 C   0  0  0  0  0  0  0  0  0  0  0  0
  180.6090  179.7000  142.9220 C   0  0  0  0  0  1  0  0  0  0  0  0
  1 21  1  6  0  0  0
  1 19  1  0  0  0  0
  2  7  1  0  0  0  0
  4  7  2  0  0  0  0
  4 12  1  0  0  0  0
  5 11  2  0  0  0  0
  5 18  1  0  0  0  0
  6 17  1  0  0  0  0
  6  9  2  0  0  0  0
  7  5  1  0  0  0  0
  8 18  1  0  0  0  0
  9  4  1  0  0  0  0
 10 15  1  0  0  0  0
 11 20  1  0  0  0  0
 12  8  2  0  0  0  0
 14 10  1  0  0  0  0
 14  3  1  0  0  0  0
 15 13  1  0  0  0  0
 16  6  1  0  0  0  0
 17  2  2  0  0  0  0
 18 14  2  0  0  0  0
 19 13  1  0  0  0  0
 20  1  1  0  0  0  0
 20 10  2  0  0  0  0
 21 22  1  0  0  0  0
 23 22  1  0  0  0  0
 24 27  1  0  0  0  0
 25 28  1  0  0  0  0
 25 23  1  0  0  0  0
 26 27  2  0  0  0  0
 27 25  1  0  0  0  0
M  END
>  <MODEL>
4

>  <REMARK>
 VINA RESULT:     -10.5      2.139      6.303
  Name = 
  4 active torsions:
  status: ('A' for Active; 'I' for Inactive)
    1  A    between atoms: C_1  and  C_2
    2  A    between atoms: C_2  and  C_7
    3  A    between atoms: N_6  and  C_28
    4  A    between atoms: C_7  and  C_28
                            x       y       z     vdW  Elec       q    Type
                         _______ _______ _______ _____ _____    ______ ____

>  <TORSDO>
F 4

$$$$
=
 OpenBabel10262420563D

 28 31  0  0  1  0  0  0  0  0999 V2000
  186.6920  177.8770  142.0420 C   0  0  2  0  0  3  0  0  0  0  0  0
  190.5270  176.8220  145.3070 C   0  0  0  0  0  3  0  0  0  0  0  0
  184.5560  178.2510  146.4650 C   0  0  0  0  0  1  0  0  0  0  0  0
  189.5780  177.1770  147.4920 C   0  0  0  0  0  0  0  0  0  0  0  0
  188.2200  177.5100  145.4990 C   0  0  0  0  0  0  0  0  0  0  0  0
  191.8810  176.3350  147.2820 C   0  0  0  0  0  0  0  0  0  0  0  0
  189.4100  177.1290  146.1100 C   0  0  0  0  0  0  0  0  0  0  0  0
  187.3470  178.1440  147.6890 C   0  0  0  0  0  3  0  0  0  0  0  0
  190.7620  176.6930  148.0970 C   0  0  0  0  0  3  0  0  0  0  0  0
  185.7790  178.3230  144.3150 C   0  0  0  0  0  0  0  0  0  0  0  0
  188.0090  177.5040  144.1720 C   0  0  0  0  0  3  0  0  0  0  0  0
  188.4980  177.6360  148.3000 C   0  0  0  0  0  3  0  0  0  0  0  0
  184.6850  179.4400  142.2960 C   0  0  0  0  0  2  0  0  0  0  0  0
  185.9060  178.2930  145.6980 C   0  0  0  0  0  0  0  0  0  0  0  0
  184.4980  178.6770  143.5550 C   0  0  0  0  0  2  0  0  0  0  0  0
  193.1140  175.9900  147.7980 O   0  0  0  0  0  1  0  0  0  0  0  0
  191.7330  176.4590  145.8690 C   0  0  0  0  0  3  0  0  0  0  0  0
  187.1480  177.9710  146.3490 C   0  0  0  0  0  0  0  0  0  0  0  0
  185.5620  178.6990  141.4010 C   0  0  0  0  0  2  0  0  0  0  0  0
  186.8690  177.9490  143.5390 C   0  0  0  0  0  0  0  0  0  0  0  0
  187.9120  177.9480  141.1140 C   0  0  0  0  0  2  0  0  0  0  0  0
  187.5400  178.2540  139.6390 C   0  0  0  0  0  2  0  0  0  0  0  0
  188.9390  178.4510  139.1070 C   0  0  0  0  0  2  0  0  0  0  0  0
  192.0910  176.7530  139.1570 C   0  0  0  0  0  1  0  0  0  0  0  0
  189.5380  177.1980  138.3910 N   0  0  0  0  0  0  0  0  0  0  0  0
  190.6510  175.0640  138.3270 O   0  0  0  0  0  0  0  0  0  0  0  0
  190.6980  176.2930  138.6350 C   0  0  0  0  0  0  0  0  0  0  0  0
  188.5970  176.7320  137.5280 C   0  0  0  0  0  1  0  0  0  0  0  0
  1 21  1  6  0  0  0
  1 20  1  0  0  0  0
  2 17  2  0  0  0  0
  2  7  1  0  0  0  0
  4  9  1  0  0  0  0
  4 12  1  0  0  0  0
  5  7  1  0  0  0  0
  5 18  1  0  0  0  0
  6 16  1  0  0  0  0
  6  9  2  0  0  0  0
  7  4  2  0  0  0  0
  8 12  2  0  0  0  0
 10 14  1  0  0  0  0
 11  5  2  0  0  0  0
 13 15  1  0  0  0  0
 14 18  2  0  0  0  0
 14  3  1  0  0  0  0
 15 10  1  0  0  0  0
 17  6  1  0  0  0  0
 18  8  1  0  0  0  0
 19  1  1  0  0  0  0
 19 13  1  0  0  0  0
 20 11  1  0  0  0  0
 20 10  2  0  0  0  0
 22 21  1  0  0  0  0
 23 22  1  0  0  0  0
 25 27  1  0  0  0  0
 25 23  1  0  0  0  0
 26 27  2  0  0  0  0
 27 24  1  0  0  0  0
 28 25  1  0  0  0  0
M  END
>  <MODEL>
5

>  <REMARK>
 VINA RESULT:     -10.3      2.423      5.566
  Name = 
  4 active torsions:
  status: ('A' for Active; 'I' for Inactive)
    1  A    between atoms: C_1  and  C_2
    2  A    between atoms: C_2  and  C_7
    3  A    between atoms: N_6  and  C_28
    4  A    between atoms: C_7  and  C_28
                            x       y       z     vdW  Elec       q    Type
                         _______ _______ _______ _____ _____    ______ ____

>  <TORSDO>
F 4

$$$$
=
 OpenBabel10262420563D

 28 31  0  0  1  0  0  0  0  0999 V2000
  188.9690  177.6050  143.6360 C   0  0  2  0  0  3  0  0  0  0  0  0
  184.3950  178.2470  141.3660 C   0  0  0  0  0  3  0  0  0  0  0  0
  186.0520  179.0400  147.3380 C   0  0  0  0  0  1  0  0  0  0  0  0
  182.8890  178.7670  143.1720 C   0  0  0  0  0  0  0  0  0  0  0  0
  185.2470  178.3630  143.6230 C   0  0  0  0  0  0  0  0  0  0  0  0
  182.0690  178.7880  140.8520 C   0  0  0  0  0  0  0  0  0  0  0  0
  184.1870  178.5090  142.7350 C   0  0  0  0  0  0  0  0  0  0  0  0
  183.6760  178.6060  145.4760 C   0  0  0  0  0  3  0  0  0  0  0  0
  181.8460  179.0070  142.2470 C   0  0  0  0  0  3  0  0  0  0  0  0
  187.3600  178.0540  145.4830 C   0  0  0  0  0  0  0  0  0  0  0  0
  186.5130  178.0930  143.2590 C   0  0  0  0  0  3  0  0  0  0  0  0
  182.6450  178.8800  144.5710 C   0  0  0  0  0  3  0  0  0  0  0  0
  189.5470  176.8440  146.0070 C   0  0  0  0  0  2  0  0  0  0  0  0
  186.0880  178.3970  145.9240 C   0  0  0  0  0  0  0  0  0  0  0  0
  188.5970  177.9230  146.3750 C   0  0  0  0  0  2  0  0  0  0  0  0
  181.0680  178.8630  139.9040 O   0  0  0  0  0  1  0  0  0  0  0  0
  183.3680  178.3570  140.4520 C   0  0  0  0  0  3  0  0  0  0  0  0
  184.9630  178.4820  145.0320 C   0  0  0  0  0  0  0  0  0  0  0  0
  189.9880  177.0290  144.6330 C   0  0  0  0  0  2  0  0  0  0  0  0
  187.5640  177.8680  144.1220 C   0  0  0  0  0  0  0  0  0  0  0  0
  189.2050  176.9330  142.2770 C   0  0  0  0  0  2  0  0  0  0  0  0
  190.4810  177.4430  141.5580 C   0  0  0  0  0  2  0  0  0  0  0  0
  190.4460  176.5020  140.3770 C   0  0  0  0  0  2  0  0  0  0  0  0
  187.4780  178.2540  139.4020 C   0  0  0  0  0  1  0  0  0  0  0  0
  189.9200  177.1490  139.0540 N   0  0  0  0  0  0  0  0  0  0  0  0
  189.0110  178.9430  137.7320 O   0  0  0  0  0  0  0  0  0  0  0  0
  188.8700  178.1500  138.7100 C   0  0  0  0  0  0  0  0  0  0  0  0
  190.8400  176.9020  138.0850 C   0  0  0  0  0  1  0  0  0  0  0  0
  1 21  1  6  0  0  0
  1 20  1  0  0  0  0
  1 19  1  0  0  0  0
  2  7  1  0  0  0  0
  4 12  1  0  0  0  0
  5 18  1  0  0  0  0
  6  9  2  0  0  0  0
  7  4  2  0  0  0  0
  7  5  1  0  0  0  0
  9  4  1  0  0  0  0
 10 14  1  0  0  0  0
 10 15  1  0  0  0  0
 11  5  2  0  0  0  0
 11 20  1  0  0  0  0
 12  8  2  0  0  0  0
 13 15  1  0  0  0  0
 14  3  1  0  0  0  0
 16  6  1  0  0  0  0
 17  6  1  0  0  0  0
 17  2  2  0  0  0  0
 18  8  1  0  0  0  0
 18 14  2  0  0  0  0
 19 13  1  0  0  0  0
 20 10  2  0  0  0  0
 22 21  1  0  0  0  0
 23 22  1  0  0  0  0
 25 23  1  0  0  0  0
 26 27  2  0  0  0  0
 27 25  1  0  0  0  0
 27 24  1  0  0  0  0
 28 25  1  0  0  0  0
M  END
>  <MODEL>
6

>  <REMARK>
 VINA RESULT:     -10.0      1.322      2.264
  Name = 
  4 active torsions:
  status: ('A' for Active; 'I' for Inactive)
    1  A    between atoms: C_1  and  C_2
    2  A    between atoms: C_2  and  C_7
    3  A    between atoms: N_6  and  C_28
    4  A    between atoms: C_7  and  C_28
                            x       y       z     vdW  Elec       q    Type
                         _______ _______ _______ _____ _____    ______ ____

>  <TORSDO>
F 4

$$$$
=
 OpenBabel10262420563D

 28 31  0  0  1  0  0  0  0  0999 V2000
  183.7680  178.2340  139.8160 C   0  0  2  0  0  3  0  0  0  0  0  0
  187.3190  177.6780  143.4990 C   0  0  0  0  0  3  0  0  0  0  0  0
  181.1850  178.7710  143.9760 C   0  0  0  0  0  1  0  0  0  0  0  0
  186.1380  178.1200  145.5510 C   0  0  0  0  0  0  0  0  0  0  0  0
  184.9660  178.2180  143.4190 C   0  0  0  0  0  0  0  0  0  0  0  0
  188.4980  177.4260  145.6240 C   0  0  0  0  0  0  0  0  0  0  0  0
  186.1110  177.9630  144.1670 C   0  0  0  0  0  0  0  0  0  0  0  0
  183.8430  178.9430  145.4620 C   0  0  0  0  0  3  0  0  0  0  0  0
  187.2840  177.7630  146.3000 C   0  0  0  0  0  3  0  0  0  0  0  0
  182.6090  178.7750  141.9520 C   0  0  0  0  0  0  0  0  0  0  0  0
  184.8880  178.1040  142.0820 C   0  0  0  0  0  3  0  0  0  0  0  0
  184.9570  178.5590  146.2160 C   0  0  0  0  0  3  0  0  0  0  0  0
  181.6530  179.6690  139.7590 C   0  0  0  0  0  2  0  0  0  0  0  0
  182.6000  178.8520  143.3390 C   0  0  0  0  0  0  0  0  0  0  0  0
  181.3900  178.9850  141.0500 C   0  0  0  0  0  2  0  0  0  0  0  0
  189.6930  177.2040  146.2780 O   0  0  0  0  0  1  0  0  0  0  0  0
  188.4840  177.4400  144.1980 C   0  0  0  0  0  3  0  0  0  0  0  0
  183.7890  178.6620  144.1260 C   0  0  0  0  0  0  0  0  0  0  0  0
  182.6580  178.9290  139.0100 C   0  0  0  0  0  2  0  0  0  0  0  0
  183.7910  178.4240  141.3130 C   0  0  0  0  0  0  0  0  0  0  0  0
  185.0660  178.3230  139.0040 C   0  0  0  0  0  2  0  0  0  0  0  0
  184.9150  177.8020  137.5510 C   0  0  0  0  0  2  0  0  0  0  0  0
  186.1910  176.9960  137.4840 C   0  0  0  0  0  2  0  0  0  0  0  0
  188.5560  177.8820  140.0220 C   0  0  0  0  0  1  0  0  0  0  0  0
  187.4970  177.8530  137.5360 N   0  0  0  0  0  0  0  0  0  0  0  0
  189.8170  178.2370  138.0480 O   0  0  0  0  0  0  0  0  0  0  0  0
  188.6540  177.9630  138.4700 C   0  0  0  0  0  0  0  0  0  0  0  0
  187.6800  178.3940  136.3020 C   0  0  0  0  0  1  0  0  0  0  0  0
  1 21  1  6  0  0  0
  1 20  1  0  0  0  0
  2  7  2  0  0  0  0
  2 17  1  0  0  0  0
  4 12  1  0  0  0  0
  4  9  2  0  0  0  0
  5 18  1  0  0  0  0
  5  7  1  0  0  0  0
  6 16  1  0  0  0  0
  6  9  1  0  0  0  0
  7  4  1  0  0  0  0
  8 12  2  0  0  0  0
 10 14  1  0  0  0  0
 11  5  2  0  0  0  0
 13 15  1  0  0  0  0
 14  3  1  0  0  0  0
 14 18  2  0  0  0  0
 15 10  1  0  0  0  0
 17  6  2  0  0  0  0
 18  8  1  0  0  0  0
 19 13  1  0  0  0  0
 19  1  1  0  0  0  0
 20 10  2  0  0  0  0
 20 11  1  0  0  0  0
 22 21  1  0  0  0  0
 23 25  1  0  0  0  0
 23 22  1  0  0  0  0
 25 27  1  0  0  0  0
 26 27  2  0  0  0  0
 27 24  1  0  0  0  0
 28 25  1  0  0  0  0
M  END
>  <MODEL>
7

>  <REMARK>
 VINA RESULT:      -9.8      2.505      6.361
  Name = 
  4 active torsions:
  status: ('A' for Active; 'I' for Inactive)
    1  A    between atoms: C_1  and  C_2
    2  A    between atoms: C_2  and  C_7
    3  A    between atoms: N_6  and  C_28
    4  A    between atoms: C_7  and  C_28
                            x       y       z     vdW  Elec       q    Type
                         _______ _______ _______ _____ _____    ______ ____

>  <TORSDO>
F 4

$$$$
=
 OpenBabel10262420563D

 28 31  0  0  1  0  0  0  0  0999 V2000
  184.8710  178.1030  143.3960 C   0  0  2  0  0  3  0  0  0  0  0  0
  189.4370  177.6240  141.0710 C   0  0  0  0  0  3  0  0  0  0  0  0
  187.9540  177.1790  147.1250 C   0  0  0  0  0  1  0  0  0  0  0  0
  191.0100  177.3580  142.8750 C   0  0  0  0  0  0  0  0  0  0  0  0
  188.6380  177.6220  143.3500 C   0  0  0  0  0  0  0  0  0  0  0  0
  191.7870  177.2160  140.5440 C   0  0  0  0  0  0  0  0  0  0  0  0
  189.6900  177.4860  142.4510 C   0  0  0  0  0  0  0  0  0  0  0  0
  190.2560  177.6400  145.1780 C   0  0  0  0  0  3  0  0  0  0  0  0
  192.0520  177.1240  141.9460 C   0  0  0  0  0  3  0  0  0  0  0  0
  186.5420  177.9190  145.2320 C   0  0  0  0  0  0  0  0  0  0  0  0
  187.3490  177.7690  142.9980 C   0  0  0  0  0  3  0  0  0  0  0  0
  191.2880  177.3720  144.2720 C   0  0  0  0  0  3  0  0  0  0  0  0
  184.2810  179.0030  145.7150 C   0  0  0  0  0  2  0  0  0  0  0  0
  187.8440  177.7060  145.6670 C   0  0  0  0  0  0  0  0  0  0  0  0
  185.3160  178.0280  146.1410 C   0  0  0  0  0  2  0  0  0  0  0  0
  192.7740  177.1420  139.5800 O   0  0  0  0  0  1  0  0  0  0  0  0
  190.4520  177.5180  140.1440 C   0  0  0  0  0  3  0  0  0  0  0  0
  188.9560  177.6340  144.7580 C   0  0  0  0  0  0  0  0  0  0  0  0
  183.8300  178.6790  144.3700 C   0  0  0  0  0  2  0  0  0  0  0  0
  186.3000  177.9830  143.8660 C   0  0  0  0  0  0  0  0  0  0  0  0
  184.5600  178.6480  141.9960 C   0  0  0  0  0  2  0  0  0  0  0  0
  183.4220  177.8750  141.2780 C   0  0  0  0  0  2  0  0  0  0  0  0
  183.1470  178.8770  140.1830 C   0  0  0  0  0  2  0  0  0  0  0  0
  186.1920  178.2530  138.4030 C   0  0  0  0  0  1  0  0  0  0  0  0
  183.5140  178.3780  138.7470 N   0  0  0  0  0  0  0  0  0  0  0  0
  184.6420  176.9490  137.1730 O   0  0  0  0  0  0  0  0  0  0  0  0
  184.7310  177.8020  138.1060 C   0  0  0  0  0  0  0  0  0  0  0  0
  182.3510  178.2130  138.0630 C   0  0  0  0  0  1  0  0  0  0  0  0
  1 21  1  6  0  0  0
  1 20  1  0  0  0  0
  1 19  1  0  0  0  0
  2  7  1  0  0  0  0
  4 12  1  0  0  0  0
  5 18  1  0  0  0  0
  6  9  2  0  0  0  0
  7  4  2  0  0  0  0
  7  5  1  0  0  0  0
  9  4  1  0  0  0  0
 10 14  1  0  0  0  0
 10 15  1  0  0  0  0
 11  5  2  0  0  0  0
 11 20  1  0  0  0  0
 12  8  2  0  0  0  0
 13 15  1  0  0  0  0
 14  3  1  0  0  0  0
 16  6  1  0  0  0  0
 17  6  1  0  0  0  0
 17  2  2  0  0  0  0
 18  8  1  0  0  0  0
 18 14  2  0  0  0  0
 19 13  1  0  0  0  0
 20 10  2  0  0  0  0
 22 21  1  0  0  0  0
 23 22  1  0  0  0  0
 25 23  1  0  0  0  0
 26 27  2  0  0  0  0
 27 24  1  0  0  0  0
 27 25  1  0  0  0  0
 28 25  1  0  0  0  0
M  END
>  <MODEL>
8

>  <REMARK>
 VINA RESULT:      -9.7      2.297      6.030
  Name = 
  4 active torsions:
  status: ('A' for Active; 'I' for Inactive)
    1  A    between atoms: C_1  and  C_2
    2  A    between atoms: C_2  and  C_7
    3  A    between atoms: N_6  and  C_28
    4  A    between atoms: C_7  and  C_28
                            x       y       z     vdW  Elec       q    Type
                         _______ _______ _______ _____ _____    ______ ____

>  <TORSDO>
F 4

$$$$
=
 OpenBabel10262420563D

 28 31  0  0  1  0  0  0  0  0999 V2000
  188.9100  178.1350  138.8140 C   0  0  2  0  0  3  0  0  0  0  0  0
  185.6110  178.6040  142.7350 C   0  0  0  0  0  3  0  0  0  0  0  0
  191.6480  176.9920  142.7460 C   0  0  0  0  0  1  0  0  0  0  0  0
  186.8540  177.8730  144.6640 C   0  0  0  0  0  0  0  0  0  0  0  0
  187.9030  177.8920  142.4680 C   0  0  0  0  0  0  0  0  0  0  0  0
  184.5680  178.7390  144.9410 C   0  0  0  0  0  0  0  0  0  0  0  0
  186.8230  178.1610  143.3020 C   0  0  0  0  0  0  0  0  0  0  0  0
  189.0650  176.8850  144.3640 C   0  0  0  0  0  3  0  0  0  0  0  0
  185.7820  178.2430  145.5090 C   0  0  0  0  0  3  0  0  0  0  0  0
  190.1270  177.2980  140.8180 C   0  0  0  0  0  0  0  0  0  0  0  0
  187.9220  178.1300  141.1450 C   0  0  0  0  0  3  0  0  0  0  0  0
  188.0270  177.2790  145.2150 C   0  0  0  0  0  3  0  0  0  0  0  0
  190.8910  176.5500  138.4990 C   0  0  0  0  0  2  0  0  0  0  0  0
  190.2010  177.0860  142.1890 C   0  0  0  0  0  0  0  0  0  0  0  0
  191.2760  177.0820  139.8300 C   0  0  0  0  0  2  0  0  0  0  0  0
  183.4300  178.9890  145.6820 O   0  0  0  0  0  1  0  0  0  0  0  0
  184.5070  178.8630  143.5210 C   0  0  0  0  0  3  0  0  0  0  0  0
  189.0740  177.2900  143.0590 C   0  0  0  0  0  0  0  0  0  0  0  0
  189.9150  177.4360  137.8830 C   0  0  0  0  0  2  0  0  0  0  0  0
  188.9480  177.8020  140.2850 C   0  0  0  0  0  0  0  0  0  0  0  0
  187.5680  178.2270  138.0750 C   0  0  0  0  0  2  0  0  0  0  0  0
  187.0520  176.8520  137.5730 C   0  0  0  0  0  2  0  0  0  0  0  0
  185.8190  177.3420  136.8530 C   0  0  0  0  0  2  0  0  0  0  0  0
  184.2820  179.3630  139.3800 C   0  0  0  0  0  1  0  0  0  0  0  0
  184.5060  177.2590  137.6980 N   0  0  0  0  0  0  0  0  0  0  0  0
  182.4340  178.1180  138.5730 O   0  0  0  0  0  0  0  0  0  0  0  0
  183.6940  178.2270  138.4910 C   0  0  0  0  0  0  0  0  0  0  0  0
  183.8850  176.0940  137.3730 C   0  0  0  0  0  1  0  0  0  0  0  0
  1 21  1  6  0  0  0
  1 20  1  0  0  0  0
  2  7  2  0  0  0  0
  2 17  1  0  0  0  0
  4 12  1  0  0  0  0
  4  9  2  0  0  0  0
  5 18  1  0  0  0  0
  5  7  1  0  0  0  0
  6  9  1  0  0  0  0
  6 16  1  0  0  0  0
  7  4  1  0  0  0  0
  8 12  2  0  0  0  0
 10 14  1  0  0  0  0
 11  5  2  0  0  0  0
 13 15  1  0  0  0  0
 14  3  1  0  0  0  0
 14 18  2  0  0  0  0
 15 10  1  0  0  0  0
 17  6  2  0  0  0  0
 18  8  1  0  0  0  0
 19 13  1  0  0  0  0
 19  1  1  0  0  0  0
 20 10  2  0  0  0  0
 20 11  1  0  0  0  0
 22 21  1  0  0  0  0
 23 22  1  0  0  0  0
 23 25  1  0  0  0  0
 25 27  1  0  0  0  0
 27 26  2  0  0  0  0
 27 24  1  0  0  0  0
 28 25  1  0  0  0  0
M  END
>  <MODEL>
9

>  <REMARK>
 VINA RESULT:      -9.4      2.480      5.237
  Name = 
  4 active torsions:
  status: ('A' for Active; 'I' for Inactive)
    1  A    between atoms: C_1  and  C_2
    2  A    between atoms: C_2  and  C_7
    3  A    between atoms: N_6  and  C_28
    4  A    between atoms: C_7  and  C_28
                            x       y       z     vdW  Elec       q    Type
                         _______ _______ _______ _____ _____    ______ ____

>  <TORSDO>
F 4

$$$$
