=
 OpenBabel10262421243D

 32 39  0  0  1  0  0  0  0  0999 V2000
  187.6220  179.1420  136.4840 O   0  0  0  0  0  0  0  0  0  0  0  0
  190.7490  176.4010  138.3740 C   0  0  0  0  0  2  0  0  0  0  0  0
  188.4500  177.4000  142.9780 C   0  0  1  0  0  3  0  0  0  0  0  0
  191.9370  176.3590  146.3260 C   0  0  0  0  0  3  0  0  0  0  0  0
  191.1140  176.6210  147.3450 C   0  0  0  0  0  3  0  0  0  0  0  0
  186.2980  178.0800  144.1170 C   0  0  0  0  0  0  0  0  0  0  0  0
  185.2950  178.4160  143.1850 C   0  0  0  0  0  0  0  0  0  0  0  0
  189.0170  177.5230  140.5350 C   0  0  1  0  0  3  0  0  0  0  0  0
  190.8170  176.9840  142.1690 C   0  0  0  0  0  2  0  0  0  0  0  0
  189.7740  178.4970  137.2740 C   0  0  1  0  0  3  0  0  0  0  0  0
  184.7920  178.5370  145.9710 C   0  0  0  0  0  0  0  0  0  0  0  0
  191.2880  176.7480  139.7580 C   0  0  0  0  0  2  0  0  0  0  0  0
  191.5000  176.4890  144.9270 C   0  0  0  0  0  3  0  0  0  0  0  0
  189.8210  177.0040  143.2470 N   0  0  0  0  0  0  0  0  0  0  0  0
  190.2570  176.8760  144.6190 C   0  0  0  0  0  0  0  0  0  0  0  0
  188.0630  177.5590  145.3470 C   0  0  0  0  0  0  0  0  0  0  0  0
  187.6920  177.7450  136.3860 C   0  0  0  0  0  2  0  0  0  0  0  0
  183.7800  178.8520  145.0560 C   0  0  0  0  0  3  0  0  0  0  0  0
  189.1220  177.2960  136.6190 C   0  0  2  0  0  3  0  0  0  0  0  0
  188.6550  179.5180  137.3560 C   0  0  0  0  0  2  0  0  0  0  0  0
  190.2070  176.5990  140.8290 C   0  0  2  0  0  3  0  0  0  0  0  0
  184.0330  178.7950  143.6730 C   0  0  0  0  0  3  0  0  0  0  0  0
  188.4170  177.2380  139.1590 C   0  0  0  0  0  2  0  0  0  0  0  0
  189.5140  177.2390  138.0860 C   0  0  1  0  0  0  0  0  0  0  0  0
  189.6870  177.0650  147.1520 C   0  0  0  0  0  3  0  0  0  0  0  0
  189.2950  177.1810  145.7010 C   0  0  0  0  0  0  0  0  0  0  0  0
  187.0940  177.8510  146.1890 O   0  0  0  0  0  0  0  0  0  0  0  0
  187.9280  177.3120  141.5770 C   0  0  0  0  0  2  0  0  0  0  0  0
  185.5040  178.4110  141.8160 O   0  0  0  0  0  1  0  0  0  0  0  0
  184.5540  178.6000  147.3380 O   0  0  0  0  0  1  0  0  0  0  0  0
  187.6370  177.6760  144.0260 C   0  0  0  0  0  0  0  0  0  0  0  0
  186.0390  178.1610  145.4760 C   0  0  0  0  0  0  0  0  0  0  0  0
  1 20  1  0  0  0  0
  2 12  1  0  0  0  0
  3 28  1  1  0  0  0
  3 14  1  0  0  0  0
  3 31  1  0  0  0  0
  4  5  1  0  0  0  0
  6 32  1  0  0  0  0
  7 22  1  0  0  0  0
  7  6  2  0  0  0  0
  8 23  1  6  0  0  0
  8 21  1  0  0  0  0
  8 28  1  0  0  0  0
  9 14  1  0  0  0  0
 10 20  1  1  0  0  0
 10 24  1  0  0  0  0
 11 30  1  0  0  0  0
 13  4  2  0  0  0  0
 14 15  1  0  0  0  0
 15 13  1  0  0  0  0
 15 26  2  0  0  0  0
 16 26  1  0  0  0  0
 16 27  1  0  0  0  0
 17  1  1  0  0  0  0
 18 11  1  0  0  0  0
 19 17  1  1  0  0  0
 19 10  1  0  0  0  0
 19 24  1  0  0  0  0
 21 12  1  6  0  0  0
 21  9  1  0  0  0  0
 22 18  2  0  0  0  0
 24  2  1  1  0  0  0
 24 23  1  0  0  0  0
 25  5  2  0  0  0  0
 26 25  1  0  0  0  0
 29  7  1  0  0  0  0
 31  6  1  0  0  0  0
 31 16  2  0  0  0  0
 32 11  2  0  0  0  0
 32 27  1  0  0  0  0
M  END
>  <MODEL>
1

>  <REMARK>
 VINA RESULT:     -12.7      0.000      0.000
  Name = 
  0 active torsions:
  status: ('A' for Active; 'I' for Inactive)
                            x       y       z     vdW  Elec       q    Type
                         _______ _______ _______ _____ _____    ______ ____

>  <TORSDO>
F 0

$$$$
=
 OpenBabel10262421243D

 32 39  0  0  1  0  0  0  0  0999 V2000
  181.3160  177.9070  138.7010 O   0  0  0  0  0  0  0  0  0  0  0  0
  181.5200  179.3550  143.0280 C   0  0  0  0  0  2  0  0  0  0  0  0
  186.6200  178.1500  142.9070 C   0  0  1  0  0  3  0  0  0  0  0  0
  187.8550  177.6240  147.6670 C   0  0  0  0  0  3  0  0  0  0  0  0
  189.1370  177.3990  147.3650 C   0  0  0  0  0  3  0  0  0  0  0  0
  188.6450  177.8480  141.4250 C   0  0  0  0  0  0  0  0  0  0  0  0
  188.3160  177.9590  140.0580 C   0  0  0  0  0  0  0  0  0  0  0  0
  184.2120  178.3380  142.2230 C   0  0  1  0  0  3  0  0  0  0  0  0
  184.7670  178.0850  144.6370 C   0  0  0  0  0  2  0  0  0  0  0  0
  180.9670  177.8200  141.0550 C   0  0  1  0  0  3  0  0  0  0  0  0
  190.9820  177.4610  140.8760 C   0  0  0  0  0  0  0  0  0  0  0  0
  182.4460  178.6320  144.0000 C   0  0  0  0  0  2  0  0  0  0  0  0
  186.8480  177.8710  146.6220 C   0  0  0  0  0  3  0  0  0  0  0  0
  186.1940  178.1240  144.2950 N   0  0  0  0  0  0  0  0  0  0  0  0
  187.1780  177.8800  145.3260 C   0  0  0  0  0  0  0  0  0  0  0  0
  188.8660  177.6620  143.6200 C   0  0  0  0  0  0  0  0  0  0  0  0
  181.2460  179.2330  139.1530 C   0  0  0  0  0  2  0  0  0  0  0  0
  190.6730  177.5900  139.5170 C   0  0  0  0  0  3  0  0  0  0  0  0
  180.7620  179.2480  140.5900 C   0  0  2  0  0  3  0  0  0  0  0  0
  181.5530  177.1240  139.8410 C   0  0  0  0  0  2  0  0  0  0  0  0
  183.9150  178.8540  143.6380 C   0  0  2  0  0  3  0  0  0  0  0  0
  189.3470  177.8340  139.1130 C   0  0  0  0  0  3  0  0  0  0  0  0
  183.3200  179.0160  141.1850 C   0  0  0  0  0  2  0  0  0  0  0  0
  181.8470  178.9310  141.6050 C   0  0  1  0  0  0  0  0  0  0  0  0
  189.6550  177.3800  145.9510 C   0  0  0  0  0  3  0  0  0  0  0  0
  188.5820  177.6390  144.9250 C   0  0  0  0  0  0  0  0  0  0  0  0
  190.0640  177.4790  143.1070 O   0  0  0  0  0  0  0  0  0  0  0  0
  185.6610  178.6260  141.8600 C   0  0  0  0  0  2  0  0  0  0  0  0
  187.0210  178.1620  139.6080 O   0  0  0  0  0  1  0  0  0  0  0  0
  192.2860  177.2090  141.2840 O   0  0  0  0  0  1  0  0  0  0  0  0
  187.9210  177.9040  142.6240 C   0  0  0  0  0  0  0  0  0  0  0  0
  189.9520  177.5880  141.8050 C   0  0  0  0  0  0  0  0  0  0  0  0
  1 17  1  0  0  0  0
  1 20  1  0  0  0  0
  2 12  1  0  0  0  0
  3 28  1  1  0  0  0
  3 14  1  0  0  0  0
  5  4  1  0  0  0  0
  6 32  1  0  0  0  0
  6 31  1  0  0  0  0
  7  6  2  0  0  0  0
  8 23  1  6  0  0  0
  8 21  1  0  0  0  0
 10 20  1  6  0  0  0
 10 24  1  0  0  0  0
 11 30  1  0  0  0  0
 11 32  2  0  0  0  0
 13  4  2  0  0  0  0
 14  9  1  0  0  0  0
 14 15  1  0  0  0  0
 15 13  1  0  0  0  0
 16 26  1  0  0  0  0
 18 11  1  0  0  0  0
 19 17  1  6  0  0  0
 19 10  1  0  0  0  0
 19 24  1  0  0  0  0
 21 12  1  1  0  0  0
 21  9  1  0  0  0  0
 22 18  2  0  0  0  0
 22  7  1  0  0  0  0
 24 23  1  6  0  0  0
 24  2  1  0  0  0  0
 25  5  2  0  0  0  0
 26 15  2  0  0  0  0
 26 25  1  0  0  0  0
 27 16  1  0  0  0  0
 28  8  1  0  0  0  0
 29  7  1  0  0  0  0
 31  3  1  0  0  0  0
 31 16  2  0  0  0  0
 32 27  1  0  0  0  0
M  END
>  <MODEL>
2

>  <REMARK>
 VINA RESULT:     -12.2      2.823      6.286
  Name = 
  0 active torsions:
  status: ('A' for Active; 'I' for Inactive)
                            x       y       z     vdW  Elec       q    Type
                         _______ _______ _______ _____ _____    ______ ____

>  <TORSDO>
F 0

$$$$
=
 OpenBabel10262421243D

 32 39  0  0  1  0  0  0  0  0999 V2000
  192.2460  175.1600  137.7430 O   0  0  0  0  0  0  0  0  0  0  0  0
  188.7280  178.0530  137.4040 C   0  0  0  0  0  2  0  0  0  0  0  0
  188.2990  177.7190  142.6180 C   0  0  1  0  0  3  0  0  0  0  0  0
  183.6450  179.1110  143.5440 C   0  0  0  0  0  3  0  0  0  0  0  0
  183.8180  179.0030  144.8640 C   0  0  0  0  0  3  0  0  0  0  0  0
  189.5310  177.2430  144.7740 C   0  0  0  0  0  0  0  0  0  0  0  0
  190.8520  176.8110  144.5390 C   0  0  0  0  0  0  0  0  0  0  0  0
  189.0560  177.2630  140.2680 C   0  0  1  0  0  3  0  0  0  0  0  0
  186.7010  177.9720  140.6650 C   0  0  0  0  0  2  0  0  0  0  0  0
  190.0260  175.8530  137.2300 C   0  0  1  0  0  3  0  0  0  0  0  0
  189.8540  177.0680  147.1780 C   0  0  0  0  0  0  0  0  0  0  0  0
  187.5410  177.8780  138.3460 C   0  0  0  0  0  2  0  0  0  0  0  0
  184.7300  178.8080  142.5960 C   0  0  0  0  0  3  0  0  0  0  0  0
  187.0040  178.1150  142.0940 N   0  0  0  0  0  0  0  0  0  0  0  0
  185.9350  178.4120  143.0200 C   0  0  0  0  0  0  0  0  0  0  0  0
  187.4120  177.8810  144.8490 C   0  0  0  0  0  0  0  0  0  0  0  0
  192.3030  176.5300  137.4510 C   0  0  0  0  0  2  0  0  0  0  0  0
  191.1750  176.6590  146.9590 C   0  0  0  0  0  3  0  0  0  0  0  0
  190.9780  176.9730  136.8600 C   0  0  2  0  0  3  0  0  0  0  0  0
  190.8960  174.8780  138.0010 C   0  0  0  0  0  2  0  0  0  0  0  0
  187.9290  178.1910  139.7920 C   0  0  2  0  0  3  0  0  0  0  0  0
  191.6670  176.5280  145.6470 C   0  0  0  0  0  3  0  0  0  0  0  0
  190.2870  177.3800  139.3710 C   0  0  0  0  0  2  0  0  0  0  0  0
  189.8950  177.2130  137.8980 C   0  0  1  0  0  0  0  0  0  0  0  0
  185.1200  178.5700  145.4870 C   0  0  0  0  0  3  0  0  0  0  0  0
  186.1930  178.2740  144.4710 C   0  0  0  0  0  0  0  0  0  0  0  0
  187.8000  177.7240  146.0970 O   0  0  0  0  0  0  0  0  0  0  0  0
  189.4670  177.6340  141.6840 C   0  0  0  0  0  2  0  0  0  0  0  0
  191.3730  176.6310  143.2670 O   0  0  0  0  0  1  0  0  0  0  0  0
  189.3560  177.1900  148.4690 O   0  0  0  0  0  1  0  0  0  0  0  0
  188.4480  177.6010  143.9590 C   0  0  0  0  0  0  0  0  0  0  0  0
  189.0550  177.3470  146.0710 C   0  0  0  0  0  0  0  0  0  0  0  0
  1 20  1  0  0  0  0
  2 12  1  0  0  0  0
  3 28  1  1  0  0  0
  3 31  1  0  0  0  0
  4  5  1  0  0  0  0
  5 25  2  0  0  0  0
  6 32  1  0  0  0  0
  7  6  2  0  0  0  0
  7 22  1  0  0  0  0
  8 23  1  6  0  0  0
  8 28  1  0  0  0  0
  9 14  1  0  0  0  0
 10 24  1  0  0  0  0
 10 20  1  1  0  0  0
 11 30  1  0  0  0  0
 13 15  1  0  0  0  0
 13  4  2  0  0  0  0
 14  3  1  0  0  0  0
 14 15  1  0  0  0  0
 15 26  2  0  0  0  0
 16 27  1  0  0  0  0
 17  1  1  0  0  0  0
 18 11  1  0  0  0  0
 19 10  1  0  0  0  0
 19 17  1  1  0  0  0
 19 24  1  0  0  0  0
 21 12  1  6  0  0  0
 21  8  1  0  0  0  0
 21  9  1  0  0  0  0
 22 18  2  0  0  0  0
 24  2  1  6  0  0  0
 24 23  1  0  0  0  0
 26 16  1  0  0  0  0
 26 25  1  0  0  0  0
 29  7  1  0  0  0  0
 31  6  1  0  0  0  0
 31 16  2  0  0  0  0
 32 27  1  0  0  0  0
 32 11  2  0  0  0  0
M  END
>  <MODEL>
3

>  <REMARK>
 VINA RESULT:     -11.9      1.905      4.756
  Name = 
  0 active torsions:
  status: ('A' for Active; 'I' for Inactive)
                            x       y       z     vdW  Elec       q    Type
                         _______ _______ _______ _____ _____    ______ ____

>  <TORSDO>
F 0

$$$$
=
 OpenBabel10262421243D

 32 39  0  0  1  0  0  0  0  0999 V2000
  181.0980  178.2150  137.2810 O   0  0  0  0  0  0  0  0  0  0  0  0
  180.7940  179.7190  141.5830 C   0  0  0  0  0  2  0  0  0  0  0  0
  185.8200  178.3390  142.1360 C   0  0  1  0  0  3  0  0  0  0  0  0
  186.4110  177.8410  147.0210 C   0  0  0  0  0  3  0  0  0  0  0  0
  187.7120  177.5680  146.8900 C   0  0  0  0  0  3  0  0  0  0  0  0
  188.0080  177.9460  140.9320 C   0  0  0  0  0  0  0  0  0  0  0  0
  187.8620  178.0480  139.5330 C   0  0  0  0  0  0  0  0  0  0  0  0
  183.5290  178.5980  141.1430 C   0  0  1  0  0  3  0  0  0  0  0  0
  183.7580  178.3630  143.6120 C   0  0  0  0  0  2  0  0  0  0  0  0
  180.4460  178.1740  139.5710 C   0  0  1  0  0  3  0  0  0  0  0  0
  190.3810  177.4710  140.6940 C   0  0  0  0  0  0  0  0  0  0  0  0
  181.5600  178.9790  142.6740 C   0  0  0  0  0  2  0  0  0  0  0  0
  185.5570  178.1070  145.8520 C   0  0  0  0  0  3  0  0  0  0  0  0
  185.2180  178.3470  143.4570 N   0  0  0  0  0  0  0  0  0  0  0  0
  186.0510  178.0850  144.6090 C   0  0  0  0  0  0  0  0  0  0  0  0
  187.9360  177.7850  143.1380 C   0  0  0  0  0  0  0  0  0  0  0  0
  181.0180  179.5490  137.7060 C   0  0  0  0  0  2  0  0  0  0  0  0
  190.2540  177.5920  139.3050 C   0  0  0  0  0  3  0  0  0  0  0  0
  180.3530  179.6010  139.0690 C   0  0  2  0  0  3  0  0  0  0  0  0
  181.1580  177.4410  138.4500 C   0  0  0  0  0  2  0  0  0  0  0  0
  183.0710  179.1450  142.5030 C   0  0  2  0  0  3  0  0  0  0  0  0
  189.0010  177.8740  138.7300 C   0  0  0  0  0  3  0  0  0  0  0  0
  182.8030  179.2910  139.9920 C   0  0  0  0  0  2  0  0  0  0  0  0
  181.2870  179.2630  140.2190 C   0  0  1  0  0  0  0  0  0  0  0  0
  188.4070  177.5110  145.5550 C   0  0  0  0  0  3  0  0  0  0  0  0
  187.4850  177.7910  144.3960 C   0  0  0  0  0  0  0  0  0  0  0  0
  189.1830  177.5540  142.7870 O   0  0  0  0  0  0  0  0  0  0  0  0
  185.0220  178.8310  140.9690 C   0  0  0  0  0  2  0  0  0  0  0  0
  186.6450  178.2890  138.9160 O   0  0  0  0  0  1  0  0  0  0  0  0
  191.6110  177.1820  141.2700 O   0  0  0  0  0  1  0  0  0  0  0  0
  187.1370  178.0440  142.0260 C   0  0  0  0  0  0  0  0  0  0  0  0
  189.2440  177.6470  141.4800 C   0  0  0  0  0  0  0  0  0  0  0  0
  1 17  1  0  0  0  0
  1 20  1  0  0  0  0
  2 12  1  0  0  0  0
  3 28  1  1  0  0  0
  3 14  1  0  0  0  0
  5  4  1  0  0  0  0
  6 32  1  0  0  0  0
  6 31  1  0  0  0  0
  7  6  2  0  0  0  0
  8 23  1  6  0  0  0
  8 21  1  0  0  0  0
 10 20  1  6  0  0  0
 10 24  1  0  0  0  0
 11 30  1  0  0  0  0
 11 32  2  0  0  0  0
 13  4  2  0  0  0  0
 14  9  1  0  0  0  0
 14 15  1  0  0  0  0
 15 13  1  0  0  0  0
 16 26  1  0  0  0  0
 18 11  1  0  0  0  0
 19 17  1  6  0  0  0
 19 10  1  0  0  0  0
 19 24  1  0  0  0  0
 21 12  1  1  0  0  0
 21  9  1  0  0  0  0
 22 18  2  0  0  0  0
 22  7  1  0  0  0  0
 24 23  1  6  0  0  0
 24  2  1  0  0  0  0
 25  5  2  0  0  0  0
 26 15  2  0  0  0  0
 26 25  1  0  0  0  0
 27 16  1  0  0  0  0
 28  8  1  0  0  0  0
 29  7  1  0  0  0  0
 31  3  1  0  0  0  0
 31 16  2  0  0  0  0
 32 27  1  0  0  0  0
M  END
>  <MODEL>
4

>  <REMARK>
 VINA RESULT:     -10.7      3.361      6.493
  Name = 
  0 active torsions:
  status: ('A' for Active; 'I' for Inactive)
                            x       y       z     vdW  Elec       q    Type
                         _______ _______ _______ _____ _____    ______ ____

>  <TORSDO>
F 0

$$$$
