=
 OpenBabel10262420543D

 28 31  0  0  0  0  0  0  0  0999 V2000
  190.5670  176.5940  143.6710 N   0  0  0  0  0  0  0  0  0  0  0  0
  185.5120  178.0350  143.2330 C   0  0  0  0  0  3  0  0  0  0  0  0
  189.3110  177.7000  148.0830 O   0  0  0  0  0  1  0  0  0  0  0  0
  184.9960  178.5800  145.5460 C   0  0  0  0  0  0  0  0  0  0  0  0
  187.2370  177.7960  144.9670 C   0  0  0  0  0  0  0  0  0  0  0  0
  183.3010  178.8220  143.8300 C   0  0  0  0  0  0  0  0  0  0  0  0
  185.9240  178.1310  144.5730 C   0  0  0  0  0  0  0  0  0  0  0  0
  186.6690  178.3570  147.2800 C   0  0  0  0  0  3  0  0  0  0  0  0
  183.6940  178.9210  145.1680 C   0  0  0  0  0  3  0  0  0  0  0  0
  189.8250  177.1570  145.7810 C   0  0  0  0  0  0  0  0  0  0  0  0
  188.1880  177.3500  144.0250 C   0  0  0  0  0  3  0  0  0  0  0  0
  185.3740  178.6870  146.8840 C   0  0  0  0  0  3  0  0  0  0  0  0
  191.2210  176.7650  145.8840 C   0  0  0  0  0  0  0  0  0  0  0  0
  188.9210  177.5910  146.7520 C   0  0  0  0  0  0  0  0  0  0  0  0
  191.9000  176.7500  146.9440 O   0  0  0  0  0  0  0  0  0  0  0  0
  181.9170  179.1860  143.4350 C   0  0  0  0  0  1  0  0  0  0  0  0
  184.2090  178.3790  142.8650 C   0  0  0  0  0  3  0  0  0  0  0  0
  187.6100  177.9150  146.3420 C   0  0  0  0  0  0  0  0  0  0  0  0
  191.7350  176.3900  144.5260 C   0  0  0  0  0  2  0  0  0  0  0  0
  189.4720  177.0410  144.4660 C   0  0  0  0  0  0  0  0  0  0  0  0
  190.5410  176.3590  142.2360 C   0  0  0  0  0  2  0  0  0  0  0  0
  191.1590  177.4220  141.5750 O   0  0  0  0  0  0  0  0  0  0  0  0
  190.6000  177.4230  140.2940 C   0  0  0  0  0  2  0  0  0  0  0  0
  189.0870  177.2700  140.3760 C   0  0  0  0  0  2  0  0  0  0  0  0
  188.4010  178.3380  139.5950 C   0  0  0  0  0  0  0  0  0  0  0  0
  187.1670  178.5360  139.7550 O   0  0  0  0  0  0  0  0  0  0  0  0
  188.5690  179.4920  137.5250 O   0  0  0  0  0  1  0  0  0  0  0  0
  189.1250  179.0950  138.6780 O   0  0  0  0  0  0  0  0  0  0  0  0
  1 20  1  0  0  0  0
  1 19  1  0  0  0  0
  2  7  1  0  0  0  0
  4 12  1  0  0  0  0
  5 18  1  0  0  0  0
  6  9  2  0  0  0  0
  7  5  1  0  0  0  0
  7  4  2  0  0  0  0
  9  4  1  0  0  0  0
 10 13  1  0  0  0  0
 10 14  1  0  0  0  0
 11 20  1  0  0  0  0
 11  5  2  0  0  0  0
 12  8  2  0  0  0  0
 13 15  2  0  0  0  0
 14  3  1  0  0  0  0
 16  6  1  0  0  0  0
 17  2  2  0  0  0  0
 17  6  1  0  0  0  0
 18 14  2  0  0  0  0
 18  8  1  0  0  0  0
 19 13  1  0  0  0  0
 20 10  2  0  0  0  0
 21  1  1  0  0  0  0
 22 21  1  0  0  0  0
 23 24  1  0  0  0  0
 23 22  1  0  0  0  0
 25 26  2  0  0  0  0
 25 24  1  0  0  0  0
 27 28  1  0  0  0  0
 28 25  1  0  0  0  0
M  END
>  <MODEL>
1

>  <REMARK>
 VINA RESULT:     -11.2      0.000      0.000
  Name = 
  6 active torsions:
  status: ('A' for Active; 'I' for Inactive)
    1  A    between atoms: N_1  and  C_2
    2  A    between atoms: C_2  and  O_3
    3  A    between atoms: O_3  and  C_8
    4  A    between atoms: C_6  and  C_11
    5  A    between atoms: C_6  and  O_28
    6  A    between atoms: C_8  and  C_11
                            x       y       z     vdW  Elec       q    Type
                         _______ _______ _______ _____ _____    ______ ____

>  <TORSDO>
F 6

$$$$
=
 OpenBabel10262420543D

 28 31  0  0  0  0  0  0  0  0999 V2000
  190.6030  176.5660  143.9580 N   0  0  0  0  0  0  0  0  0  0  0  0
  185.5660  177.9930  143.3160 C   0  0  0  0  0  3  0  0  0  0  0  0
  189.2070  177.8000  148.2930 O   0  0  0  0  0  1  0  0  0  0  0  0
  184.9760  178.6040  145.5940 C   0  0  0  0  0  0  0  0  0  0  0  0
  187.2340  177.8040  145.1110 C   0  0  0  0  0  0  0  0  0  0  0  0
  183.3380  178.7960  143.8190 C   0  0  0  0  0  0  0  0  0  0  0  0
  185.9340  178.1270  144.6650 C   0  0  0  0  0  0  0  0  0  0  0  0
  186.5930  178.4320  147.3860 C   0  0  0  0  0  3  0  0  0  0  0  0
  183.6880  178.9340  145.1650 C   0  0  0  0  0  3  0  0  0  0  0  0
  189.7940  177.1900  146.0260 C   0  0  0  0  0  0  0  0  0  0  0  0
  188.2140  177.3310  144.2130 C   0  0  0  0  0  3  0  0  0  0  0  0
  185.3110  178.7500  146.9400 C   0  0  0  0  0  3  0  0  0  0  0  0
  191.1860  176.8010  146.1850 C   0  0  0  0  0  0  0  0  0  0  0  0
  188.8590  177.6520  146.9540 C   0  0  0  0  0  0  0  0  0  0  0  0
  191.8300  176.8170  147.2660 O   0  0  0  0  0  0  0  0  0  0  0  0
  181.9670  179.1480  143.3690 C   0  0  0  0  0  1  0  0  0  0  0  0
  184.2760  178.3260  142.8960 C   0  0  0  0  0  3  0  0  0  0  0  0
  187.5620  177.9630  146.4930 C   0  0  0  0  0  0  0  0  0  0  0  0
  191.7430  176.3870  144.8550 C   0  0  0  0  0  2  0  0  0  0  0  0
  189.4840  177.0350  144.7040 C   0  0  0  0  0  0  0  0  0  0  0  0
  190.6230  176.2900  142.5300 C   0  0  0  0  0  2  0  0  0  0  0  0
  190.6240  177.4910  141.8190 O   0  0  0  0  0  0  0  0  0  0  0  0
  191.0640  177.1500  140.5370 C   0  0  0  0  0  2  0  0  0  0  0  0
  189.9630  177.3960  139.5150 C   0  0  0  0  0  2  0  0  0  0  0  0
  190.0460  176.4150  138.3960 C   0  0  0  0  0  0  0  0  0  0  0  0
  189.2620  176.5150  137.4160 O   0  0  0  0  0  0  0  0  0  0  0  0
  190.7410  174.2110  137.8420 O   0  0  0  0  0  1  0  0  0  0  0  0
  190.9760  175.3800  138.4550 O   0  0  0  0  0  0  0  0  0  0  0  0
  1 20  1  0  0  0  0
  1 19  1  0  0  0  0
  2  7  1  0  0  0  0
  4 12  1  0  0  0  0
  5 18  1  0  0  0  0
  6  9  2  0  0  0  0
  7  5  1  0  0  0  0
  7  4  2  0  0  0  0
  9  4  1  0  0  0  0
 10 13  1  0  0  0  0
 10 14  1  0  0  0  0
 11 20  1  0  0  0  0
 11  5  2  0  0  0  0
 12  8  2  0  0  0  0
 13 15  2  0  0  0  0
 14  3  1  0  0  0  0
 16  6  1  0  0  0  0
 17  2  2  0  0  0  0
 17  6  1  0  0  0  0
 18 14  2  0  0  0  0
 18  8  1  0  0  0  0
 19 13  1  0  0  0  0
 20 10  2  0  0  0  0
 21  1  1  0  0  0  0
 22 21  1  0  0  0  0
 23 22  1  0  0  0  0
 24 23  1  0  0  0  0
 25 28  1  0  0  0  0
 25 24  1  0  0  0  0
 26 25  2  0  0  0  0
 27 28  1  0  0  0  0
M  END
>  <MODEL>
2

>  <REMARK>
 VINA RESULT:     -10.5      1.391      1.635
  Name = 
  6 active torsions:
  status: ('A' for Active; 'I' for Inactive)
    1  A    between atoms: N_1  and  C_2
    2  A    between atoms: C_2  and  O_3
    3  A    between atoms: O_3  and  C_8
    4  A    between atoms: C_6  and  C_11
    5  A    between atoms: C_6  and  O_28
    6  A    between atoms: C_8  and  C_11
                            x       y       z     vdW  Elec       q    Type
                         _______ _______ _______ _____ _____    ______ ____

>  <TORSDO>
F 6

$$$$
=
 OpenBabel10262420543D

 28 31  0  0  0  0  0  0  0  0999 V2000
  185.7930  178.4130  141.7800 N   0  0  0  0  0  0  0  0  0  0  0  0
  189.8680  176.9710  144.8010 C   0  0  0  0  0  3  0  0  0  0  0  0
  184.1760  178.9070  146.1860 O   0  0  0  0  0  1  0  0  0  0  0  0
  188.9130  177.2610  147.0170 C   0  0  0  0  0  0  0  0  0  0  0  0
  187.5580  177.7710  145.0490 C   0  0  0  0  0  0  0  0  0  0  0  0
  191.1880  176.4640  146.7670 C   0  0  0  0  0  0  0  0  0  0  0  0
  188.7790  177.3370  145.6090 C   0  0  0  0  0  0  0  0  0  0  0  0
  186.6410  178.0450  147.3000 C   0  0  0  0  0  3  0  0  0  0  0  0
  190.1130  176.8260  147.5850 C   0  0  0  0  0  3  0  0  0  0  0  0
  185.1280  178.6190  143.9790 C   0  0  0  0  0  0  0  0  0  0  0  0
  187.3880  177.8540  143.6500 C   0  0  0  0  0  3  0  0  0  0  0  0
  187.8480  177.6160  147.8470 C   0  0  0  0  0  3  0  0  0  0  0  0
  184.0110  179.0050  143.1330 C   0  0  0  0  0  0  0  0  0  0  0  0
  185.2460  178.5560  145.3680 C   0  0  0  0  0  0  0  0  0  0  0  0
  182.8790  179.3760  143.5400 O   0  0  0  0  0  0  0  0  0  0  0  0
  192.4610  176.0030  147.3760 C   0  0  0  0  0  1  0  0  0  0  0  0
  191.0640  176.5370  145.3770 C   0  0  0  0  0  3  0  0  0  0  0  0
  186.4760  178.1270  145.9120 C   0  0  0  0  0  0  0  0  0  0  0  0
  184.4120  178.8850  141.6920 C   0  0  0  0  0  2  0  0  0  0  0  0
  186.1600  178.2800  143.1500 C   0  0  0  0  0  0  0  0  0  0  0  0
  186.6480  178.1410  140.6360 C   0  0  0  0  0  2  0  0  0  0  0  0
  187.7350  179.0160  140.6420 O   0  0  0  0  0  0  0  0  0  0  0  0
  188.7420  178.3440  139.9460 C   0  0  0  0  0  2  0  0  0  0  0  0
  189.3370  177.2390  140.8070 C   0  0  0  0  0  2  0  0  0  0  0  0
  190.8040  177.1150  140.5770 C   0  0  0  0  0  0  0  0  0  0  0  0
  191.6100  177.4310  141.4930 O   0  0  0  0  0  0  0  0  0  0  0  0
  190.7660  175.5740  138.7690 O   0  0  0  0  0  1  0  0  0  0  0  0
  191.2740  176.6740  139.3440 O   0  0  0  0  0  0  0  0  0  0  0  0
  1 20  1  0  0  0  0
  2 17  2  0  0  0  0
  2  7  1  0  0  0  0
  4  9  1  0  0  0  0
  4 12  1  0  0  0  0
  5  7  1  0  0  0  0
  5 18  1  0  0  0  0
  6 16  1  0  0  0  0
  6  9  2  0  0  0  0
  7  4  2  0  0  0  0
  8 12  2  0  0  0  0
 10 14  1  0  0  0  0
 11  5  2  0  0  0  0
 13 15  2  0  0  0  0
 13 10  1  0  0  0  0
 14 18  2  0  0  0  0
 14  3  1  0  0  0  0
 17  6  1  0  0  0  0
 18  8  1  0  0  0  0
 19  1  1  0  0  0  0
 19 13  1  0  0  0  0
 20 11  1  0  0  0  0
 20 10  2  0  0  0  0
 21 22  1  0  0  0  0
 21  1  1  0  0  0  0
 23 22  1  0  0  0  0
 23 24  1  0  0  0  0
 25 24  1  0  0  0  0
 25 26  2  0  0  0  0
 27 28  1  0  0  0  0
 28 25  1  0  0  0  0
M  END
>  <MODEL>
3

>  <REMARK>
 VINA RESULT:      -9.7      2.209      5.480
  Name = 
  6 active torsions:
  status: ('A' for Active; 'I' for Inactive)
    1  A    between atoms: N_1  and  C_2
    2  A    between atoms: C_2  and  O_3
    3  A    between atoms: O_3  and  C_8
    4  A    between atoms: C_6  and  C_11
    5  A    between atoms: C_6  and  O_28
    6  A    between atoms: C_8  and  C_11
                            x       y       z     vdW  Elec       q    Type
                         _______ _______ _______ _____ _____    ______ ____

>  <TORSDO>
F 6

$$$$
=
 OpenBabel10262420543D

 28 31  0  0  0  0  0  0  0  0999 V2000
  189.6780  177.1300  141.5260 N   0  0  0  0  0  0  0  0  0  0  0  0
  184.6220  178.4050  142.3170 C   0  0  0  0  0  3  0  0  0  0  0  0
  189.2830  177.3640  146.2220 O   0  0  0  0  0  1  0  0  0  0  0  0
  184.5540  178.5000  144.7450 C   0  0  0  0  0  0  0  0  0  0  0  0
  186.6490  177.9310  143.6220 C   0  0  0  0  0  0  0  0  0  0  0  0
  182.5600  178.9740  143.4520 C   0  0  0  0  0  0  0  0  0  0  0  0
  185.2820  178.2750  143.5500 C   0  0  0  0  0  0  0  0  0  0  0  0
  186.5310  178.0410  146.0630 C   0  0  0  0  0  3  0  0  0  0  0  0
  183.2020  178.8470  144.6870 C   0  0  0  0  0  3  0  0  0  0  0  0
  189.3500  177.2690  143.8050 C   0  0  0  0  0  0  0  0  0  0  0  0
  187.4050  177.7050  142.4530 C   0  0  0  0  0  3  0  0  0  0  0  0
  185.1810  178.3790  145.9850 C   0  0  0  0  0  3  0  0  0  0  0  0
  190.7430  176.9270  143.5700 C   0  0  0  0  0  0  0  0  0  0  0  0
  188.6460  177.4810  144.9910 C   0  0  0  0  0  0  0  0  0  0  0  0
  191.6120  176.7490  144.4630 O   0  0  0  0  0  0  0  0  0  0  0  0
  181.1230  179.3430  143.3980 C   0  0  0  0  0  1  0  0  0  0  0  0
  183.2700  178.7540  142.2690 C   0  0  0  0  0  3  0  0  0  0  0  0
  187.2780  177.8160  144.9010 C   0  0  0  0  0  0  0  0  0  0  0  0
  190.9900  176.8260  142.0940 C   0  0  0  0  0  2  0  0  0  0  0  0
  188.7530  177.3780  142.5810 C   0  0  0  0  0  0  0  0  0  0  0  0
  189.3790  177.1580  140.1030 C   0  0  0  0  0  2  0  0  0  0  0  0
  189.6130  178.4380  139.5980 O   0  0  0  0  0  0  0  0  0  0  0  0
  188.9760  178.4570  138.3550 C   0  0  0  0  0  2  0  0  0  0  0  0
  187.8930  177.3880  138.2980 C   0  0  0  0  0  2  0  0  0  0  0  0
  186.5490  178.0010  138.0990 C   0  0  0  0  0  0  0  0  0  0  0  0
  185.8970  177.7530  137.0500 O   0  0  0  0  0  0  0  0  0  0  0  0
  184.7970  179.3630  138.9470 O   0  0  0  0  0  1  0  0  0  0  0  0
  186.0340  178.8610  139.0650 O   0  0  0  0  0  0  0  0  0  0  0  0
  1 19  1  0  0  0  0
  1 20  1  0  0  0  0
  2  7  1  0  0  0  0
  4 12  1  0  0  0  0
  5 18  1  0  0  0  0
  6  9  2  0  0  0  0
  7  5  1  0  0  0  0
  7  4  2  0  0  0  0
  9  4  1  0  0  0  0
 10 14  1  0  0  0  0
 11 20  1  0  0  0  0
 11  5  2  0  0  0  0
 12  8  2  0  0  0  0
 13 10  1  0  0  0  0
 13 15  2  0  0  0  0
 14  3  1  0  0  0  0
 16  6  1  0  0  0  0
 17  2  2  0  0  0  0
 17  6  1  0  0  0  0
 18 14  2  0  0  0  0
 18  8  1  0  0  0  0
 19 13  1  0  0  0  0
 20 10  2  0  0  0  0
 21  1  1  0  0  0  0
 22 21  1  0  0  0  0
 23 22  1  0  0  0  0
 24 23  1  0  0  0  0
 25 24  1  0  0  0  0
 25 28  1  0  0  0  0
 26 25  2  0  0  0  0
 27 28  1  0  0  0  0
M  END
>  <MODEL>
4

>  <REMARK>
 VINA RESULT:      -9.5      1.505      2.114
  Name = 
  6 active torsions:
  status: ('A' for Active; 'I' for Inactive)
    1  A    between atoms: N_1  and  C_2
    2  A    between atoms: C_2  and  O_3
    3  A    between atoms: O_3  and  C_8
    4  A    between atoms: C_6  and  C_11
    5  A    between atoms: C_6  and  O_28
    6  A    between atoms: C_8  and  C_11
                            x       y       z     vdW  Elec       q    Type
                         _______ _______ _______ _____ _____    ______ ____

>  <TORSDO>
F 6

$$$$
=
 OpenBabel10262420543D

 28 31  0  0  0  0  0  0  0  0999 V2000
  186.6050  178.4530  141.2650 N   0  0  0  0  0  0  0  0  0  0  0  0
  190.2200  177.0030  144.8210 C   0  0  0  0  0  3  0  0  0  0  0  0
  184.3210  178.7200  145.3850 O   0  0  0  0  0  1  0  0  0  0  0  0
  188.9290  177.1750  146.8730 C   0  0  0  0  0  0  0  0  0  0  0  0
  187.8730  177.7270  144.7400 C   0  0  0  0  0  0  0  0  0  0  0  0
  191.2410  176.4530  146.9470 C   0  0  0  0  0  0  0  0  0  0  0  0
  189.0080  177.3050  145.4650 C   0  0  0  0  0  0  0  0  0  0  0  0
  186.6150  177.8830  146.8320 C   0  0  0  0  0  3  0  0  0  0  0  0
  190.0430  176.7510  147.6020 C   0  0  0  0  0  3  0  0  0  0  0  0
  185.6070  178.5500  143.3420 C   0  0  0  0  0  0  0  0  0  0  0  0
  187.9150  177.8620  143.3360 C   0  0  0  0  0  3  0  0  0  0  0  0
  187.7390  177.4660  147.5420 C   0  0  0  0  0  3  0  0  0  0  0  0
  184.6190  178.9390  142.3480 C   0  0  0  0  0  0  0  0  0  0  0  0
  185.5140  178.4340  144.7290 C   0  0  0  0  0  0  0  0  0  0  0  0
  183.4270  179.2610  142.5910 O   0  0  0  0  0  0  0  0  0  0  0  0
  192.4220  176.0030  147.7270 C   0  0  0  0  0  1  0  0  0  0  0  0
  191.3290  176.5790  145.5580 C   0  0  0  0  0  3  0  0  0  0  0  0
  186.6610  178.0170  145.4390 C   0  0  0  0  0  0  0  0  0  0  0  0
  185.2390  178.8890  140.9830 C   0  0  0  0  0  2  0  0  0  0  0  0
  186.7640  178.2740  142.6690 C   0  0  0  0  0  0  0  0  0  0  0  0
  187.6330  178.2510  140.2560 C   0  0  0  0  0  2  0  0  0  0  0  0
  187.1270  178.5810  138.9970 O   0  0  0  0  0  0  0  0  0  0  0  0
  188.0690  178.0890  138.0900 C   0  0  0  0  0  2  0  0  0  0  0  0
  189.0290  177.1340  138.7870 C   0  0  0  0  0  2  0  0  0  0  0  0
  189.8690  176.4060  137.7950 C   0  0  0  0  0  0  0  0  0  0  0  0
  189.9340  176.8180  136.6070 O   0  0  0  0  0  0  0  0  0  0  0  0
  190.3200  174.0810  137.5950 O   0  0  0  0  0  1  0  0  0  0  0  0
  190.5590  175.2600  138.1850 O   0  0  0  0  0  0  0  0  0  0  0  0
  1 20  1  0  0  0  0
  2  7  2  0  0  0  0
  2 17  1  0  0  0  0
  4 12  1  0  0  0  0
  4  9  2  0  0  0  0
  5 18  1  0  0  0  0
  5  7  1  0  0  0  0
  6  9  1  0  0  0  0
  6 16  1  0  0  0  0
  7  4  1  0  0  0  0
  8 12  2  0  0  0  0
 10 14  1  0  0  0  0
 11  5  2  0  0  0  0
 13 15  2  0  0  0  0
 13 10  1  0  0  0  0
 14  3  1  0  0  0  0
 14 18  2  0  0  0  0
 17  6  2  0  0  0  0
 18  8  1  0  0  0  0
 19  1  1  0  0  0  0
 19 13  1  0  0  0  0
 20 11  1  0  0  0  0
 20 10  2  0  0  0  0
 21  1  1  0  0  0  0
 22 21  1  0  0  0  0
 23 24  1  0  0  0  0
 23 22  1  0  0  0  0
 25 28  1  0  0  0  0
 25 24  1  0  0  0  0
 26 25  2  0  0  0  0
 27 28  1  0  0  0  0
M  END
>  <MODEL>
5

>  <REMARK>
 VINA RESULT:      -9.3      2.610      5.545
  Name = 
  6 active torsions:
  status: ('A' for Active; 'I' for Inactive)
    1  A    between atoms: N_1  and  C_2
    2  A    between atoms: C_2  and  O_3
    3  A    between atoms: O_3  and  C_8
    4  A    between atoms: C_6  and  C_11
    5  A    between atoms: C_6  and  O_28
    6  A    between atoms: C_8  and  C_11
                            x       y       z     vdW  Elec       q    Type
                         _______ _______ _______ _____ _____    ______ ____

>  <TORSDO>
F 6

$$$$
=
 OpenBabel10262420543D

 28 31  0  0  0  0  0  0  0  0999 V2000
  187.4070  178.1690  139.8510 N   0  0  0  0  0  0  0  0  0  0  0  0
  187.4080  177.8470  145.1150 C   0  0  0  0  0  3  0  0  0  0  0  0
  191.8840  177.1370  140.9280 O   0  0  0  0  0  1  0  0  0  0  0  0
  189.7440  177.3240  145.5350 C   0  0  0  0  0  0  0  0  0  0  0  0
  188.9730  177.6150  143.2340 C   0  0  0  0  0  0  0  0  0  0  0  0
  188.1980  177.5630  147.3860 C   0  0  0  0  0  0  0  0  0  0  0  0
  188.6980  177.5960  144.6190 C   0  0  0  0  0  0  0  0  0  0  0  0
  191.3150  177.0890  143.7090 C   0  0  0  0  0  3  0  0  0  0  0  0
  189.4880  177.3090  146.9090 C   0  0  0  0  0  3  0  0  0  0  0  0
  189.5580  177.6570  140.5100 C   0  0  0  0  0  0  0  0  0  0  0  0
  187.9560  177.8870  142.2950 C   0  0  0  0  0  3  0  0  0  0  0  0
  191.0370  177.0720  145.0740 C   0  0  0  0  0  3  0  0  0  0  0  0
  189.5430  177.7580  139.0600 C   0  0  0  0  0  0  0  0  0  0  0  0
  190.5970  177.3800  141.3990 C   0  0  0  0  0  0  0  0  0  0  0  0
  190.5380  177.6000  138.3060 O   0  0  0  0  0  0  0  0  0  0  0  0
  187.9320  177.5460  148.8460 C   0  0  0  0  0  1  0  0  0  0  0  0
  187.1610  177.8310  146.4900 C   0  0  0  0  0  3  0  0  0  0  0  0
  190.3040  177.3590  142.7790 C   0  0  0  0  0  0  0  0  0  0  0  0
  188.1550  178.0890  138.5970 C   0  0  0  0  0  2  0  0  0  0  0  0
  188.2840  177.9010  140.9410 C   0  0  0  0  0  0  0  0  0  0  0  0
  185.9870  178.4650  139.9490 C   0  0  0  0  0  2  0  0  0  0  0  0
  185.7670  179.3780  140.9820 O   0  0  0  0  0  0  0  0  0  0  0  0
  184.5340  179.0130  141.5280 C   0  0  0  0  0  2  0  0  0  0  0  0
  184.5370  179.2260  143.0350 C   0  0  0  0  0  2  0  0  0  0  0  0
  183.1820  178.9900  143.6100 C   0  0  0  0  0  0  0  0  0  0  0  0
  182.1720  179.0040  142.8560 O   0  0  0  0  0  0  0  0  0  0  0  0
  184.0610  179.0050  145.8170 O   0  0  0  0  0  1  0  0  0  0  0  0
  183.0400  178.7790  144.9780 O   0  0  0  0  0  0  0  0  0  0  0  0
  1 21  1  0  0  0  0
  1 20  1  0  0  0  0
  2 17  1  0  0  0  0
  3 14  1  0  0  0  0
  4  9  2  0  0  0  0
  5  7  1  0  0  0  0
  6 16  1  0  0  0  0
  7  2  2  0  0  0  0
  7  4  1  0  0  0  0
  8 12  2  0  0  0  0
  9  6  1  0  0  0  0
 10 20  2  0  0  0  0
 10 14  1  0  0  0  0
 11  5  2  0  0  0  0
 12  4  1  0  0  0  0
 13 10  1  0  0  0  0
 14 18  2  0  0  0  0
 15 13  2  0  0  0  0
 17  6  2  0  0  0  0
 18  5  1  0  0  0  0
 18  8  1  0  0  0  0
 19 13  1  0  0  0  0
 19  1  1  0  0  0  0
 20 11  1  0  0  0  0
 21 22  1  0  0  0  0
 22 23  1  0  0  0  0
 23 24  1  0  0  0  0
 24 25  1  0  0  0  0
 25 28  1  0  0  0  0
 26 25  2  0  0  0  0
 28 27  1  0  0  0  0
M  END
>  <MODEL>
6

>  <REMARK>
 VINA RESULT:      -9.2      2.540      6.063
  Name = 
  6 active torsions:
  status: ('A' for Active; 'I' for Inactive)
    1  A    between atoms: N_1  and  C_2
    2  A    between atoms: C_2  and  O_3
    3  A    between atoms: O_3  and  C_8
    4  A    between atoms: C_6  and  C_11
    5  A    between atoms: C_6  and  O_28
    6  A    between atoms: C_8  and  C_11
                            x       y       z     vdW  Elec       q    Type
                         _______ _______ _______ _____ _____    ______ ____

>  <TORSDO>
F 6

$$$$
=
 OpenBabel10262420543D

 28 31  0  0  0  0  0  0  0  0999 V2000
  189.6260  177.0910  141.8840 N   0  0  0  0  0  0  0  0  0  0  0  0
  184.5610  178.4110  142.5280 C   0  0  0  0  0  3  0  0  0  0  0  0
  189.0980  177.3270  146.5660 O   0  0  0  0  0  1  0  0  0  0  0  0
  184.4240  178.5050  144.9530 C   0  0  0  0  0  0  0  0  0  0  0  0
  186.5460  177.9180  143.8920 C   0  0  0  0  0  0  0  0  0  0  0  0
  182.4730  178.9970  143.6040 C   0  0  0  0  0  0  0  0  0  0  0  0
  185.1840  178.2740  143.7800 C   0  0  0  0  0  0  0  0  0  0  0  0
  186.3580  178.0280  146.3280 C   0  0  0  0  0  3  0  0  0  0  0  0
  183.0770  178.8640  144.8570 C   0  0  0  0  0  3  0  0  0  0  0  0
  189.2340  177.2320  144.1520 C   0  0  0  0  0  0  0  0  0  0  0  0
  187.3330  177.6860  142.7440 C   0  0  0  0  0  3  0  0  0  0  0  0
  185.0140  178.3780  146.2120 C   0  0  0  0  0  3  0  0  0  0  0  0
  190.6300  176.8770  143.9570 C   0  0  0  0  0  0  0  0  0  0  0  0
  188.4980  177.4490  145.3170 C   0  0  0  0  0  0  0  0  0  0  0  0
  191.4720  176.6910  144.8750 O   0  0  0  0  0  0  0  0  0  0  0  0
  181.0410  179.3790  143.5080 C   0  0  0  0  0  1  0  0  0  0  0  0
  183.2140  178.7710  142.4410 C   0  0  0  0  0  3  0  0  0  0  0  0
  187.1360  177.7970  145.1880 C   0  0  0  0  0  0  0  0  0  0  0  0
  190.9190  176.7740  142.4890 C   0  0  0  0  0  2  0  0  0  0  0  0
  188.6740  177.3460  142.9110 C   0  0  0  0  0  0  0  0  0  0  0  0
  189.3700  177.1210  140.4530 C   0  0  0  0  0  2  0  0  0  0  0  0
  190.3760  176.4270  139.7790 O   0  0  0  0  0  0  0  0  0  0  0  0
  190.7660  177.2750  138.7400 C   0  0  0  0  0  2  0  0  0  0  0  0
  191.0340  176.4740  137.4730 C   0  0  0  0  0  2  0  0  0  0  0  0
  192.0130  175.3800  137.7310 C   0  0  0  0  0  0  0  0  0  0  0  0
  191.6000  174.2100  137.9480 O   0  0  0  0  0  0  0  0  0  0  0  0
  193.8330  176.8580  137.3470 O   0  0  0  0  0  1  0  0  0  0  0  0
  193.3750  175.6660  137.7540 O   0  0  0  0  0  0  0  0  0  0  0  0
  1 19  1  0  0  0  0
  1 20  1  0  0  0  0
  2  7  1  0  0  0  0
  4 12  1  0  0  0  0
  5 18  1  0  0  0  0
  6  9  2  0  0  0  0
  7  5  1  0  0  0  0
  7  4  2  0  0  0  0
  9  4  1  0  0  0  0
 10 14  1  0  0  0  0
 11 20  1  0  0  0  0
 11  5  2  0  0  0  0
 12  8  2  0  0  0  0
 13 10  1  0  0  0  0
 13 15  2  0  0  0  0
 14  3  1  0  0  0  0
 16  6  1  0  0  0  0
 17  2  2  0  0  0  0
 17  6  1  0  0  0  0
 18 14  2  0  0  0  0
 18  8  1  0  0  0  0
 19 13  1  0  0  0  0
 20 10  2  0  0  0  0
 21  1  1  0  0  0  0
 22 21  1  0  0  0  0
 23 22  1  0  0  0  0
 24 25  1  0  0  0  0
 24 23  1  0  0  0  0
 25 28  1  0  0  0  0
 25 26  2  0  0  0  0
 27 28  1  0  0  0  0
M  END
>  <MODEL>
7

>  <REMARK>
 VINA RESULT:      -9.1      2.129      2.676
  Name = 
  6 active torsions:
  status: ('A' for Active; 'I' for Inactive)
    1  A    between atoms: N_1  and  C_2
    2  A    between atoms: C_2  and  O_3
    3  A    between atoms: O_3  and  C_8
    4  A    between atoms: C_6  and  C_11
    5  A    between atoms: C_6  and  O_28
    6  A    between atoms: C_8  and  C_11
                            x       y       z     vdW  Elec       q    Type
                         _______ _______ _______ _____ _____    ______ ____

>  <TORSDO>
F 6

$$$$
=
 OpenBabel10262420543D

 28 31  0  0  0  0  0  0  0  0999 V2000
  186.1480  178.0910  146.0650 N   0  0  0  0  0  0  0  0  0  0  0  0
  188.4110  177.6050  141.3260 C   0  0  0  0  0  3  0  0  0  0  0  0
  190.6690  177.1660  147.0510 O   0  0  0  0  0  1  0  0  0  0  0  0
  190.7070  177.1290  141.9680 C   0  0  0  0  0  0  0  0  0  0  0  0
  189.0260  177.4990  143.7030 C   0  0  0  0  0  0  0  0  0  0  0  0
  190.0930  177.2270  139.6260 C   0  0  0  0  0  0  0  0  0  0  0  0
  189.3690  177.4160  142.3360 C   0  0  0  0  0  0  0  0  0  0  0  0
  191.3490  177.0160  144.2990 C   0  0  0  0  0  3  0  0  0  0  0  0
  191.0580  177.0370  140.6190 C   0  0  0  0  0  3  0  0  0  0  0  0
  188.3840  177.6410  146.4110 C   0  0  0  0  0  0  0  0  0  0  0  0
  187.7020  177.7780  144.1050 C   0  0  0  0  0  3  0  0  0  0  0  0
  191.6810  176.9350  142.9480 C   0  0  0  0  0  3  0  0  0  0  0  0
  187.7440  177.7700  147.7100 C   0  0  0  0  0  0  0  0  0  0  0  0
  189.7070  177.3650  146.0650 C   0  0  0  0  0  0  0  0  0  0  0  0
  188.3180  177.6450  148.8230 O   0  0  0  0  0  0  0  0  0  0  0  0
  190.4730  177.1280  138.1940 C   0  0  0  0  0  1  0  0  0  0  0  0
  188.7710  177.5100  139.9800 C   0  0  0  0  0  3  0  0  0  0  0  0
  190.0350  177.2930  144.6940 C   0  0  0  0  0  0  0  0  0  0  0  0
  186.2860  178.0650  147.5200 C   0  0  0  0  0  2  0  0  0  0  0  0
  187.4170  177.8400  145.4670 C   0  0  0  0  0  0  0  0  0  0  0  0
  184.9050  178.3480  145.3570 C   0  0  0  0  0  2  0  0  0  0  0  0
  184.7730  179.7180  145.1210 O   0  0  0  0  0  0  0  0  0  0  0  0
  184.4660  179.8210  143.7620 C   0  0  0  0  0  2  0  0  0  0  0  0
  184.2940  178.4380  143.1500 C   0  0  0  0  0  2  0  0  0  0  0  0
  184.3110  178.5090  141.6610 C   0  0  0  0  0  0  0  0  0  0  0  0
  183.6140  177.7030  140.9880 O   0  0  0  0  0  0  0  0  0  0  0  0
  184.9270  179.7520  139.7330 O   0  0  0  0  0  1  0  0  0  0  0  0
  185.1150  179.4500  141.0250 O   0  0  0  0  0  0  0  0  0  0  0  0
  1 19  1  0  0  0  0
  2  7  1  0  0  0  0
  4  7  2  0  0  0  0
  4 12  1  0  0  0  0
  5 11  2  0  0  0  0
  5 18  1  0  0  0  0
  6 17  1  0  0  0  0
  6  9  2  0  0  0  0
  7  5  1  0  0  0  0
  8 18  1  0  0  0  0
  9  4  1  0  0  0  0
 10 13  1  0  0  0  0
 11 20  1  0  0  0  0
 12  8  2  0  0  0  0
 13 15  2  0  0  0  0
 14 10  1  0  0  0  0
 14  3  1  0  0  0  0
 16  6  1  0  0  0  0
 17  2  2  0  0  0  0
 18 14  2  0  0  0  0
 19 13  1  0  0  0  0
 20  1  1  0  0  0  0
 20 10  2  0  0  0  0
 21  1  1  0  0  0  0
 22 21  1  0  0  0  0
 23 22  1  0  0  0  0
 24 23  1  0  0  0  0
 25 24  1  0  0  0  0
 26 25  2  0  0  0  0
 27 28  1  0  0  0  0
 28 25  1  0  0  0  0
M  END
>  <MODEL>
8

>  <REMARK>
 VINA RESULT:      -9.0      2.139      5.493
  Name = 
  6 active torsions:
  status: ('A' for Active; 'I' for Inactive)
    1  A    between atoms: N_1  and  C_2
    2  A    between atoms: C_2  and  O_3
    3  A    between atoms: O_3  and  C_8
    4  A    between atoms: C_6  and  C_11
    5  A    between atoms: C_6  and  O_28
    6  A    between atoms: C_8  and  C_11
                            x       y       z     vdW  Elec       q    Type
                         _______ _______ _______ _____ _____    ______ ____

>  <TORSDO>
F 6

$$$$
=
 OpenBabel10262420543D

 28 31  0  0  0  0  0  0  0  0999 V2000
  186.6300  177.7380  146.3800 N   0  0  0  0  0  0  0  0  0  0  0  0
  189.7890  177.0250  142.2170 C   0  0  0  0  0  3  0  0  0  0  0  0
  184.0480  179.2260  142.7220 O   0  0  0  0  0  1  0  0  0  0  0  0
  188.3590  177.8270  140.4230 C   0  0  0  0  0  0  0  0  0  0  0  0
  187.5270  177.8430  142.7200 C   0  0  0  0  0  0  0  0  0  0  0  0
  190.5930  177.0270  139.9330 C   0  0  0  0  0  0  0  0  0  0  0  0
  188.5590  177.5600  141.8000 C   0  0  0  0  0  0  0  0  0  0  0  0
  186.1260  178.6410  140.8800 C   0  0  0  0  0  3  0  0  0  0  0  0
  189.3750  177.5580  139.5010 C   0  0  0  0  0  3  0  0  0  0  0  0
  185.4710  178.4270  144.5080 C   0  0  0  0  0  0  0  0  0  0  0  0
  187.6940  177.5950  144.0990 C   0  0  0  0  0  3  0  0  0  0  0  0
  187.1490  178.3600  139.9760 C   0  0  0  0  0  3  0  0  0  0  0  0
  184.6150  178.6250  145.6670 C   0  0  0  0  0  0  0  0  0  0  0  0
  185.2550  178.6880  143.1550 C   0  0  0  0  0  0  0  0  0  0  0  0
  183.4500  179.1010  145.6420 O   0  0  0  0  0  0  0  0  0  0  0  0
  191.6690  176.7430  138.9500 C   0  0  0  0  0  1  0  0  0  0  0  0
  190.7990  176.7600  141.2900 C   0  0  0  0  0  3  0  0  0  0  0  0
  186.2950  178.3930  142.2470 C   0  0  0  0  0  0  0  0  0  0  0  0
  185.3400  178.1840  146.9040 C   0  0  0  0  0  2  0  0  0  0  0  0
  186.6460  177.9000  144.9650 C   0  0  0  0  0  0  0  0  0  0  0  0
  187.7110  177.2020  147.1910 C   0  0  0  0  0  2  0  0  0  0  0  0
  188.1740  178.1860  148.0670 O   0  0  0  0  0  0  0  0  0  0  0  0
  189.5610  178.0170  148.0960 C   0  0  0  0  0  2  0  0  0  0  0  0
  189.9660  176.8070  147.2660 C   0  0  0  0  0  2  0  0  0  0  0  0
  191.4460  176.7510  147.0930 C   0  0  0  0  0  0  0  0  0  0  0  0
  192.1910  176.6600  148.1040 O   0  0  0  0  0  0  0  0  0  0  0  0
  191.6070  177.7770  144.9560 O   0  0  0  0  0  1  0  0  0  0  0  0
  191.9930  176.8230  145.8150 O   0  0  0  0  0  0  0  0  0  0  0  0
  1 19  1  0  0  0  0
  1 21  1  0  0  0  0
  3 14  1  0  0  0  0
  4  7  1  0  0  0  0
  5 11  1  0  0  0  0
  6 17  1  0  0  0  0
  7  2  1  0  0  0  0
  7  5  2  0  0  0  0
  8 18  2  0  0  0  0
  9  6  2  0  0  0  0
  9  4  1  0  0  0  0
 10 20  1  0  0  0  0
 10 13  1  0  0  0  0
 11 20  2  0  0  0  0
 12  4  2  0  0  0  0
 12  8  1  0  0  0  0
 13 19  1  0  0  0  0
 14 10  2  0  0  0  0
 15 13  2  0  0  0  0
 16  6  1  0  0  0  0
 17  2  2  0  0  0  0
 18  5  1  0  0  0  0
 18 14  1  0  0  0  0
 20  1  1  0  0  0  0
 21 22  1  0  0  0  0
 22 23  1  0  0  0  0
 24 23  1  0  0  0  0
 25 24  1  0  0  0  0
 25 26  2  0  0  0  0
 27 28  1  0  0  0  0
 28 25  1  0  0  0  0
M  END
>  <MODEL>
9

>  <REMARK>
 VINA RESULT:      -8.9      2.604      6.836
  Name = 
  6 active torsions:
  status: ('A' for Active; 'I' for Inactive)
    1  A    between atoms: N_1  and  C_2
    2  A    between atoms: C_2  and  O_3
    3  A    between atoms: O_3  and  C_8
    4  A    between atoms: C_6  and  C_11
    5  A    between atoms: C_6  and  O_28
    6  A    between atoms: C_8  and  C_11
                            x       y       z     vdW  Elec       q    Type
                         _______ _______ _______ _____ _____    ______ ____

>  <TORSDO>
F 6

$$$$
