=
 OpenBabel10262420043D

 27 31  0  0  1  0  0  0  0  0999 V2000
  188.5790  178.4810  138.4260 C   0  0  0  0  0  3  0  0  0  0  0  0
  189.5080  176.3150  137.6820 C   0  0  1  0  0  3  0  0  0  0  0  0
  190.5560  176.1850  139.9540 N   0  0  0  0  0  0  0  0  0  0  0  0
  192.7480  173.9060  137.1690 N   0  0  0  0  0  0  0  0  0  0  0  0
  195.3510  174.3750  137.7090 S   0  0  0  0  0  0  0  0  0  0  0  0
  189.3110  174.8320  137.4040 C   0  0  0  0  0  3  0  0  0  0  0  0
  193.1830  176.0200  138.1470 C   0  0  0  0  0  0  0  0  0  0  0  0
  189.0790  176.3740  143.2940 C   0  0  0  0  0  3  0  0  0  0  0  0
  193.8680  177.1190  138.8860 C   0  0  0  0  0  1  0  0  0  0  0  0
  188.4530  177.5510  143.2780 C   0  0  0  0  0  2  0  0  0  0  0  0
  191.8800  175.8650  137.9950 C   0  0  0  0  0  0  0  0  0  0  0  0
  188.2260  177.0830  138.0140 C   0  0  2  0  0  3  0  0  0  0  0  0
  193.7770  174.8030  137.5930 C   0  0  0  0  0  0  0  0  0  0  0  0
  191.6590  174.5630  137.3960 C   0  0  0  0  0  0  0  0  0  0  0  0
  188.8890  178.7630  139.6940 C   0  0  0  0  0  3  0  0  0  0  0  0
  190.7390  176.6370  138.5760 C   0  0  1  0  0  3  0  0  0  0  0  0
  189.8560  175.9490  142.1690 N   0  0  0  0  0  0  0  0  0  0  0  0
  190.3370  174.0440  137.2250 N   0  0  0  0  0  0  0  0  0  0  0  0
  188.6300  178.4960  142.1240 C   0  0  0  0  0  2  0  0  0  0  0  0
  188.7630  177.7510  140.7960 C   0  0  2  0  0  3  0  0  0  0  0  0
  189.8070  176.6450  140.9180 C   0  0  0  0  0  0  0  0  0  0  0  0
  185.4650  177.1280  134.7160 C   0  0  0  0  0  3  0  0  0  0  0  0
  187.2790  177.1040  136.8520 C   0  0  0  0  0  0  0  0  0  0  0  0
  186.0450  176.4560  136.9700 C   0  0  0  0  0  3  0  0  0  0  0  0
  185.1400  176.4670  135.9040 C   0  0  0  0  0  3  0  0  0  0  0  0
  186.6950  177.7800  134.5940 C   0  0  0  0  0  3  0  0  0  0  0  0
  187.6020  177.7690  135.6580 C   0  0  0  0  0  3  0  0  0  0  0  0
  1 15  2  0  0  0  0
  2  6  1  1  0  0  0
  2 12  1  0  0  0  0
  2 16  1  0  0  0  0
  3 21  2  0  0  0  0
  4 14  2  0  0  0  0
  4 13  1  0  0  0  0
  7  9  1  0  0  0  0
 10  8  1  0  0  0  0
 11  7  2  0  0  0  0
 12 23  1  6  0  0  0
 12  1  1  0  0  0  0
 13  5  2  0  0  0  0
 13  7  1  0  0  0  0
 14 11  1  0  0  0  0
 16 11  1  6  0  0  0
 16  3  1  0  0  0  0
 17  8  2  0  0  0  0
 18 14  1  0  0  0  0
 18  6  2  0  0  0  0
 19 10  1  0  0  0  0
 20 15  1  6  0  0  0
 20 21  1  0  0  0  0
 20 19  1  0  0  0  0
 21 17  1  0  0  0  0
 22 25  1  0  0  0  0
 23 24  1  0  0  0  0
 25 24  2  0  0  0  0
 26 22  2  0  0  0  0
 26 27  1  0  0  0  0
 27 23  2  0  0  0  0
M  END
>  <MODEL>
1

>  <REMARK>
 VINA RESULT:      -7.2      0.000      0.000
  Name = 
  1 active torsions:
  status: ('A' for Active; 'I' for Inactive)
    1  A    between atoms: C_9  and  C_15
                            x       y       z     vdW  Elec       q    Type
                         _______ _______ _______ _____ _____    ______ ____

>  <TORSDO>
F 1

$$$$
=
 OpenBabel10262420043D

 27 31  0  0  1  0  0  0  0  0999 V2000
  183.3120  177.5930  140.0570 C   0  0  0  0  0  3  0  0  0  0  0  0
  181.6840  179.3680  140.6090 C   0  0  1  0  0  3  0  0  0  0  0  0
  180.2350  178.3420  138.8410 N   0  0  0  0  0  0  0  0  0  0  0  0
  179.2970  182.4180  139.3580 N   0  0  0  0  0  0  0  0  0  0  0  0
  178.9310  183.4170  136.8770 S   0  0  0  0  0  0  0  0  0  0  0  0
  180.6090  179.9170  141.5360 C   0  0  0  0  0  3  0  0  0  0  0  0
  180.5080  181.2960  137.6580 C   0  0  0  0  0  0  0  0  0  0  0  0
  178.9950  174.9260  138.4360 C   0  0  0  0  0  3  0  0  0  0  0  0
  180.9350  180.8130  136.3130 C   0  0  0  0  0  1  0  0  0  0  0  0
  180.1150  174.2020  138.4170 C   0  0  0  0  0  3  0  0  0  0  0  0
  180.6990  180.6830  138.8120 C   0  0  0  0  0  0  0  0  0  0  0  0
  182.4070  178.1230  141.1280 C   0  0  2  0  0  3  0  0  0  0  0  0
  179.6470  182.4360  137.9710 C   0  0  0  0  0  0  0  0  0  0  0  0
  179.9440  181.4000  139.8210 C   0  0  0  0  0  0  0  0  0  0  0  0
  182.8560  176.7480  139.1290 C   0  0  0  0  0  3  0  0  0  0  0  0
  181.2740  179.3350  139.1090 C   0  0  1  0  0  3  0  0  0  0  0  0
  179.0550  176.3550  138.5120 N   0  0  0  0  0  2  0  0  0  0  0  0
  179.8400  180.9030  141.1590 N   0  0  0  0  0  0  0  0  0  0  0  0
  181.4580  174.8710  138.3740 C   0  0  0  0  0  2  0  0  0  0  0  0
  181.4720  176.1680  139.1840 C   0  0  2  0  0  3  0  0  0  0  0  0
  180.2800  177.0390  138.7990 C   0  0  0  0  0  0  0  0  0  0  0  0
  184.6920  178.9780  144.6700 C   0  0  0  0  0  3  0  0  0  0  0  0
  183.1870  178.4170  142.3740 C   0  0  0  0  0  0  0  0  0  0  0  0
  184.5850  178.3900  142.3220 C   0  0  0  0  0  3  0  0  0  0  0  0
  185.3360  178.6690  143.4690 C   0  0  0  0  0  3  0  0  0  0  0  0
  183.2970  179.0100  144.7270 C   0  0  0  0  0  3  0  0  0  0  0  0
  182.5430  178.7310  143.5830 C   0  0  0  0  0  3  0  0  0  0  0  0
  1 12  1  0  0  0  0
  2 12  1  0  0  0  0
  2  6  1  1  0  0  0
  3 16  1  0  0  0  0
  4 14  2  0  0  0  0
  5 13  2  0  0  0  0
  7 13  1  0  0  0  0
  7 11  2  0  0  0  0
  8 17  1  0  0  0  0
  9  7  1  0  0  0  0
 10  8  2  0  0  0  0
 11 14  1  0  0  0  0
 12 23  1  1  0  0  0
 13  4  1  0  0  0  0
 14 18  1  0  0  0  0
 15 20  1  0  0  0  0
 15  1  2  0  0  0  0
 16 11  1  1  0  0  0
 16  2  1  0  0  0  0
 17 21  1  0  0  0  0
 18  6  2  0  0  0  0
 19 10  1  0  0  0  0
 20 19  1  6  0  0  0
 21  3  2  0  0  0  0
 21 20  1  0  0  0  0
 22 26  1  0  0  0  0
 23 27  1  0  0  0  0
 24 23  2  0  0  0  0
 24 25  1  0  0  0  0
 25 22  2  0  0  0  0
 27 26  2  0  0  0  0
M  END
>  <MODEL>
2

>  <REMARK>
 VINA RESULT:      -7.1      8.242     11.102
  Name = 
  1 active torsions:
  status: ('A' for Active; 'I' for Inactive)
    1  A    between atoms: C_9  and  C_15
                            x       y       z     vdW  Elec       q    Type
                         _______ _______ _______ _____ _____    ______ ____

>  <TORSDO>
F 1

$$$$
=
 OpenBabel10262420043D

 27 31  0  0  1  0  0  0  0  0999 V2000
  180.4090  180.0090  139.9860 C   0  0  0  0  0  3  0  0  0  0  0  0
  182.7480  179.6610  139.2700 C   0  0  1  0  0  3  0  0  0  0  0  0
  182.5580  177.4090  140.3520 N   0  0  0  0  0  0  0  0  0  0  0  0
  186.5770  178.6720  140.2330 N   0  0  0  0  0  0  0  0  0  0  0  0
  187.6380  178.0030  142.6230 S   0  0  0  0  0  0  0  0  0  0  0  0
  183.7450  179.3330  138.1670 C   0  0  0  0  0  3  0  0  0  0  0  0
  185.0150  178.5930  142.0130 C   0  0  0  0  0  0  0  0  0  0  0  0
  180.1700  174.6890  139.8340 C   0  0  0  0  0  3  0  0  0  0  0  0
  184.3910  178.2780  143.3300 C   0  0  0  0  0  1  0  0  0  0  0  0
  178.9950  175.2760  140.0650 C   0  0  0  0  0  2  0  0  0  0  0  0
  184.3820  178.8530  140.8840 C   0  0  0  0  0  0  0  0  0  0  0  0
  181.3070  179.8600  138.7950 C   0  0  2  0  0  3  0  0  0  0  0  0
  186.4280  178.5080  141.6460 C   0  0  0  0  0  0  0  0  0  0  0  0
  185.3710  178.8930  139.8240 C   0  0  0  0  0  0  0  0  0  0  0  0
  179.8940  178.9380  140.5950 C   0  0  0  0  0  3  0  0  0  0  0  0
  182.9240  178.8100  140.5590 C   0  0  1  0  0  3  0  0  0  0  0  0
  181.3910  175.4180  140.0050 N   0  0  0  0  0  0  0  0  0  0  0  0
  184.9810  179.0250  138.4540 N   0  0  0  0  0  0  0  0  0  0  0  0
  178.9310  176.6760  140.6030 C   0  0  0  0  0  2  0  0  0  0  0  0
  180.0550  177.5490  140.0470 C   0  0  2  0  0  3  0  0  0  0  0  0
  181.3960  176.8360  140.2000 C   0  0  0  0  0  0  0  0  0  0  0  0
  180.9140  183.2490  136.1760 C   0  0  0  0  0  3  0  0  0  0  0  0
  181.1830  181.0520  137.8940 C   0  0  0  0  0  0  0  0  0  0  0  0
  180.7050  180.8720  136.5910 C   0  0  0  0  0  3  0  0  0  0  0  0
  180.5730  181.9680  135.7330 C   0  0  0  0  0  3  0  0  0  0  0  0
  181.3880  183.4360  137.4760 C   0  0  0  0  0  3  0  0  0  0  0  0
  181.5230  182.3410  138.3360 C   0  0  0  0  0  3  0  0  0  0  0  0
  1 15  2  0  0  0  0
  2  6  1  6  0  0  0
  2 16  1  0  0  0  0
  4 13  1  0  0  0  0
  6 18  2  0  0  0  0
  7  9  1  0  0  0  0
  8 17  2  0  0  0  0
  8 10  1  0  0  0  0
 10 19  1  0  0  0  0
 11  7  2  0  0  0  0
 12 23  1  6  0  0  0
 12  2  1  0  0  0  0
 12  1  1  0  0  0  0
 13  7  1  0  0  0  0
 13  5  2  0  0  0  0
 14  4  2  0  0  0  0
 14 11  1  0  0  0  0
 16  3  1  6  0  0  0
 16 11  1  0  0  0  0
 17 21  1  0  0  0  0
 18 14  1  0  0  0  0
 20 21  1  0  0  0  0
 20 15  1  1  0  0  0
 20 19  1  0  0  0  0
 21  3  2  0  0  0  0
 22 26  1  0  0  0  0
 23 27  1  0  0  0  0
 24 23  2  0  0  0  0
 25 22  2  0  0  0  0
 25 24  1  0  0  0  0
 26 27  2  0  0  0  0
M  END
>  <MODEL>
3

>  <REMARK>
 VINA RESULT:      -7.1      6.433      8.540
  Name = 
  1 active torsions:
  status: ('A' for Active; 'I' for Inactive)
    1  A    between atoms: C_9  and  C_15
                            x       y       z     vdW  Elec       q    Type
                         _______ _______ _______ _____ _____    ______ ____

>  <TORSDO>
F 1

$$$$
=
 OpenBabel10262420043D

 27 31  0  0  1  0  0  0  0  0999 V2000
  181.6600  177.5390  140.5910 C   0  0  0  0  0  3  0  0  0  0  0  0
  183.9090  178.0440  139.7000 C   0  0  1  0  0  3  0  0  0  0  0  0
  182.7540  178.4680  137.5170 N   0  0  0  0  0  0  0  0  0  0  0  0
  186.7740  177.3710  136.8890 N   0  0  0  0  0  0  0  0  0  0  0  0
  186.7640  175.6820  134.7840 S   0  0  0  0  0  0  0  0  0  0  0  0
  185.0770  179.0100  139.5650 C   0  0  0  0  0  3  0  0  0  0  0  0
  184.7600  176.1520  136.6170 C   0  0  0  0  0  0  0  0  0  0  0  0
  180.0070  180.7210  136.6510 C   0  0  0  0  0  3  0  0  0  0  0  0
  183.6780  175.3340  135.9980 C   0  0  0  0  0  1  0  0  0  0  0  0
  179.0350  180.3380  137.4790 C   0  0  0  0  0  2  0  0  0  0  0  0
  184.6310  176.9970  137.6240 C   0  0  0  0  0  0  0  0  0  0  0  0
  182.8180  178.4880  140.6780 C   0  0  2  0  0  3  0  0  0  0  0  0
  186.1330  176.3320  136.1450 C   0  0  0  0  0  0  0  0  0  0  0  0
  185.8810  177.7200  137.7560 C   0  0  0  0  0  0  0  0  0  0  0  0
  180.6970  177.7150  139.6840 C   0  0  0  0  0  3  0  0  0  0  0  0
  183.4080  177.4590  138.3490 C   0  0  1  0  0  3  0  0  0  0  0  0
  181.2570  180.0230  136.6270 N   0  0  0  0  0  0  0  0  0  0  0  0
  186.0130  178.8060  138.6770 N   0  0  0  0  0  0  0  0  0  0  0  0
  179.1920  179.1110  138.3290 C   0  0  0  0  0  2  0  0  0  0  0  0
  180.6330  178.9330  138.8070 C   0  0  2  0  0  3  0  0  0  0  0  0
  181.5950  179.0560  137.6280 C   0  0  0  0  0  0  0  0  0  0  0  0
  184.3510  178.6870  144.6920 C   0  0  0  0  0  3  0  0  0  0  0  0
  183.3340  178.5570  142.0840 C   0  0  0  0  0  0  0  0  0  0  0  0
  184.6710  178.2290  142.3350 C   0  0  0  0  0  3  0  0  0  0  0  0
  185.1780  178.2920  143.6360 C   0  0  0  0  0  3  0  0  0  0  0  0
  183.0160  179.0180  144.4480 C   0  0  0  0  0  3  0  0  0  0  0  0
  182.5060  178.9540  143.1480 C   0  0  0  0  0  3  0  0  0  0  0  0
  1 12  1  0  0  0  0
  2  6  1  6  0  0  0
  2 12  1  0  0  0  0
  3 21  2  0  0  0  0
  4 14  2  0  0  0  0
  5 13  2  0  0  0  0
  7 11  2  0  0  0  0
  8 10  1  0  0  0  0
  9  7  1  0  0  0  0
 10 19  1  0  0  0  0
 11 14  1  0  0  0  0
 11 16  1  0  0  0  0
 12 23  1  1  0  0  0
 13  7  1  0  0  0  0
 13  4  1  0  0  0  0
 14 18  1  0  0  0  0
 15  1  2  0  0  0  0
 16  3  1  6  0  0  0
 16  2  1  0  0  0  0
 17  8  2  0  0  0  0
 17 21  1  0  0  0  0
 18  6  2  0  0  0  0
 20 19  1  6  0  0  0
 20 15  1  0  0  0  0
 21 20  1  0  0  0  0
 23 24  2  0  0  0  0
 23 27  1  0  0  0  0
 24 25  1  0  0  0  0
 25 22  2  0  0  0  0
 26 22  1  0  0  0  0
 27 26  2  0  0  0  0
M  END
>  <MODEL>
4

>  <REMARK>
 VINA RESULT:      -6.7      5.502      8.576
  Name = 
  1 active torsions:
  status: ('A' for Active; 'I' for Inactive)
    1  A    between atoms: C_9  and  C_15
                            x       y       z     vdW  Elec       q    Type
                         _______ _______ _______ _____ _____    ______ ____

>  <TORSDO>
F 1

$$$$
=
 OpenBabel10262420043D

 27 31  0  0  1  0  0  0  0  0999 V2000
  183.9300  177.6170  141.8310 C   0  0  0  0  0  3  0  0  0  0  0  0
  186.2140  178.3570  141.2480 C   0  0  1  0  0  3  0  0  0  0  0  0
  185.1990  179.2290  139.1300 N   0  0  0  0  0  0  0  0  0  0  0  0
  189.2940  178.3890  138.5870 N   0  0  0  0  0  0  0  0  0  0  0  0
  189.4960  177.2090  136.1670 S   0  0  0  0  0  0  0  0  0  0  0  0
  187.3510  179.3550  141.4180 C   0  0  0  0  0  3  0  0  0  0  0  0
  187.3520  177.2160  137.9000 C   0  0  0  0  0  0  0  0  0  0  0  0
  182.4350  181.5560  138.5710 C   0  0  0  0  0  3  0  0  0  0  0  0
  186.3490  176.5320  137.0350 C   0  0  0  0  0  1  0  0  0  0  0  0
  181.4220  180.9770  139.2170 C   0  0  0  0  0  2  0  0  0  0  0  0
  187.1200  177.8140  139.0540 C   0  0  0  0  0  0  0  0  0  0  0  0
  185.0420  178.5480  142.2130 C   0  0  2  0  0  3  0  0  0  0  0  0
  188.7460  177.5270  137.5850 C   0  0  0  0  0  0  0  0  0  0  0  0
  188.3290  178.5170  139.4370 C   0  0  0  0  0  0  0  0  0  0  0  0
  183.0270  177.9680  140.9130 C   0  0  0  0  0  3  0  0  0  0  0  0
  185.8320  178.0750  139.7670 C   0  0  1  0  0  3  0  0  0  0  0  0
  183.7090  180.9090  138.4910 N   0  0  0  0  0  0  0  0  0  0  0  0
  188.3540  179.3740  140.5830 N   0  0  0  0  0  0  0  0  0  0  0  0
  181.5670  179.5950  139.7860 C   0  0  0  0  0  2  0  0  0  0  0  0
  182.9770  179.3480  140.3230 C   0  0  2  0  0  3  0  0  0  0  0  0
  184.0130  179.7510  139.2770 C   0  0  0  0  0  0  0  0  0  0  0  0
  186.1710  177.8940  146.3110 C   0  0  0  0  0  3  0  0  0  0  0  0
  185.4540  178.3140  143.6350 C   0  0  0  0  0  0  0  0  0  0  0  0
  184.7020  178.8920  144.6640 C   0  0  0  0  0  3  0  0  0  0  0  0
  185.0610  178.6830  146.0000 C   0  0  0  0  0  3  0  0  0  0  0  0
  186.9250  177.3130  145.2880 C   0  0  0  0  0  3  0  0  0  0  0  0
  186.5690  177.5210  143.9530 C   0  0  0  0  0  3  0  0  0  0  0  0
  1 12  1  0  0  0  0
  2  6  1  6  0  0  0
  2 12  1  0  0  0  0
  3 21  2  0  0  0  0
  3 16  1  0  0  0  0
  4 14  2  0  0  0  0
  5 13  2  0  0  0  0
  7 11  2  0  0  0  0
  8 10  1  0  0  0  0
  9  7  1  0  0  0  0
 10 19  1  0  0  0  0
 11 14  1  0  0  0  0
 12 23  1  1  0  0  0
 13  7  1  0  0  0  0
 13  4  1  0  0  0  0
 14 18  1  0  0  0  0
 15  1  2  0  0  0  0
 16 11  1  6  0  0  0
 16  2  1  0  0  0  0
 17  8  2  0  0  0  0
 17 21  1  0  0  0  0
 18  6  2  0  0  0  0
 20 19  1  6  0  0  0
 20 15  1  0  0  0  0
 21 20  1  0  0  0  0
 23 27  2  0  0  0  0
 23 24  1  0  0  0  0
 24 25  2  0  0  0  0
 25 22  1  0  0  0  0
 26 22  2  0  0  0  0
 27 26  1  0  0  0  0
M  END
>  <MODEL>
5

>  <REMARK>
 VINA RESULT:      -6.5      4.345      7.389
  Name = 
  1 active torsions:
  status: ('A' for Active; 'I' for Inactive)
    1  A    between atoms: C_9  and  C_15
                            x       y       z     vdW  Elec       q    Type
                         _______ _______ _______ _____ _____    ______ ____

>  <TORSDO>
F 1

$$$$
=
 OpenBabel10262420043D

 27 31  0  0  1  0  0  0  0  0999 V2000
  181.9280  178.7420  141.8180 C   0  0  0  0  0  3  0  0  0  0  0  0
  182.7930  177.3330  139.9810 C   0  0  1  0  0  3  0  0  0  0  0  0
  180.7500  178.0410  138.7150 N   0  0  0  0  0  0  0  0  0  0  0  0
  182.1700  174.3330  137.3020 N   0  0  0  0  0  0  0  0  0  0  0  0
  179.9830  172.8030  136.9020 S   0  0  0  0  0  0  0  0  0  0  0  0
  183.7600  177.1410  138.8220 C   0  0  0  0  0  3  0  0  0  0  0  0
  180.3250  174.8760  138.6860 C   0  0  0  0  0  0  0  0  0  0  0  0
  179.4690  181.3640  137.8870 C   0  0  0  0  0  3  0  0  0  0  0  0
  178.9310  174.9700  139.2070 C   0  0  0  0  0  1  0  0  0  0  0  0
  179.3420  181.9420  139.0820 C   0  0  0  0  0  2  0  0  0  0  0  0
  181.3080  175.7290  138.9090 C   0  0  0  0  0  0  0  0  0  0  0  0
  183.0410  178.5860  140.8250 C   0  0  2  0  0  3  0  0  0  0  0  0
  180.8510  173.9420  137.6910 C   0  0  0  0  0  0  0  0  0  0  0  0
  182.4140  175.3620  138.0460 C   0  0  0  0  0  0  0  0  0  0  0  0
  180.8010  179.3780  141.4900 C   0  0  0  0  0  3  0  0  0  0  0  0
  181.3070  177.0410  139.6250 C   0  0  1  0  0  3  0  0  0  0  0  0
  179.8870  179.9990  137.7810 N   0  0  0  0  0  0  0  0  0  0  0  0
  183.5850  176.1780  137.9580 N   0  0  0  0  0  0  0  0  0  0  0  0
  179.5390  181.1470  140.3410 C   0  0  0  0  0  2  0  0  0  0  0  0
  180.6350  180.0940  140.1810 C   0  0  2  0  0  3  0  0  0  0  0  0
  180.4000  179.2820  138.9100 C   0  0  0  0  0  0  0  0  0  0  0  0
  186.8610  178.4440  142.7950 C   0  0  0  0  0  3  0  0  0  0  0  0
  184.3640  178.5260  141.5260 C   0  0  0  0  0  0  0  0  0  0  0  0
  185.5290  178.8010  140.8030 C   0  0  0  0  0  3  0  0  0  0  0  0
  186.7760  178.7590  141.4360 C   0  0  0  0  0  3  0  0  0  0  0  0
  185.7010  178.1710  143.5230 C   0  0  0  0  0  3  0  0  0  0  0  0
  184.4530  178.2120  142.8930 C   0  0  0  0  0  3  0  0  0  0  0  0
  2  6  1  6  0  0  0
  2 12  1  0  0  0  0
  3 21  2  0  0  0  0
  4 13  1  0  0  0  0
  4 14  2  0  0  0  0
  5 13  2  0  0  0  0
  7 11  2  0  0  0  0
  7  9  1  0  0  0  0
  8 10  1  0  0  0  0
 10 19  1  0  0  0  0
 11 16  1  0  0  0  0
 12 23  1  1  0  0  0
 12  1  1  0  0  0  0
 13  7  1  0  0  0  0
 14 11  1  0  0  0  0
 15  1  2  0  0  0  0
 16  3  1  6  0  0  0
 16  2  1  0  0  0  0
 17  8  2  0  0  0  0
 17 21  1  0  0  0  0
 18 14  1  0  0  0  0
 18  6  2  0  0  0  0
 20 19  1  1  0  0  0
 20 15  1  0  0  0  0
 21 20  1  0  0  0  0
 22 26  1  0  0  0  0
 23 27  1  0  0  0  0
 24 25  1  0  0  0  0
 24 23  2  0  0  0  0
 25 22  2  0  0  0  0
 27 26  2  0  0  0  0
M  END
>  <MODEL>
6

>  <REMARK>
 VINA RESULT:      -6.4      6.907      9.768
  Name = 
  1 active torsions:
  status: ('A' for Active; 'I' for Inactive)
    1  A    between atoms: C_9  and  C_15
                            x       y       z     vdW  Elec       q    Type
                         _______ _______ _______ _____ _____    ______ ____

>  <TORSDO>
F 1

$$$$
=
 OpenBabel10262420043D

 27 31  0  0  1  0  0  0  0  0999 V2000
  184.3260  179.2350  139.3360 C   0  0  0  0  0  3  0  0  0  0  0  0
  182.7040  177.3710  139.3120 C   0  0  1  0  0  3  0  0  0  0  0  0
  183.8620  176.6240  137.2190 N   0  0  0  0  0  0  0  0  0  0  0  0
  179.8850  175.2310  137.3020 N   0  0  0  0  0  0  0  0  0  0  0  0
  178.9310  175.5570  134.7980 S   0  0  0  0  0  0  0  0  0  0  0  0
  182.2510  176.0210  139.8510 C   0  0  0  0  0  3  0  0  0  0  0  0
  180.8990  176.9940  136.0860 C   0  0  0  0  0  0  0  0  0  0  0  0
  187.3770  175.8630  136.5610 C   0  0  0  0  0  3  0  0  0  0  0  0
  181.3460  177.8510  134.9500 C   0  0  0  0  0  1  0  0  0  0  0  0
  187.9970  176.9920  136.9050 C   0  0  0  0  0  2  0  0  0  0  0  0
  181.4890  176.8750  137.2610 C   0  0  0  0  0  0  0  0  0  0  0  0
  183.8770  178.0030  140.0640 C   0  0  2  0  0  3  0  0  0  0  0  0
  179.8410  175.9850  136.0870 C   0  0  0  0  0  0  0  0  0  0  0  0
  180.8400  175.7890  137.9710 C   0  0  0  0  0  0  0  0  0  0  0  0
  185.2120  179.1570  138.3400 C   0  0  0  0  0  3  0  0  0  0  0  0
  182.7780  177.4430  137.7600 C   0  0  1  0  0  3  0  0  0  0  0  0
  185.9490  175.7750  136.6080 N   0  0  0  0  0  0  0  0  0  0  0  0
  181.3400  175.3240  139.2280 N   0  0  0  0  0  0  0  0  0  0  0  0
  187.2090  178.2220  137.2530 C   0  0  0  0  0  2  0  0  0  0  0  0
  185.9150  177.8770  137.9890 C   0  0  2  0  0  3  0  0  0  0  0  0
  185.1550  176.7910  137.2320 C   0  0  0  0  0  0  0  0  0  0  0  0
  182.8790  178.9710  144.1350 C   0  0  0  0  0  3  0  0  0  0  0  0
  183.5100  178.3370  141.4790 C   0  0  0  0  0  0  0  0  0  0  0  0
  184.5040  178.3130  142.4620 C   0  0  0  0  0  3  0  0  0  0  0  0
  184.1890  178.6280  143.7880 C   0  0  0  0  0  3  0  0  0  0  0  0
  181.8830  179.0000  143.1560 C   0  0  0  0  0  3  0  0  0  0  0  0
  182.1950  178.6840  141.8300 C   0  0  0  0  0  3  0  0  0  0  0  0
  1 12  1  0  0  0  0
  2  6  1  6  0  0  0
  2 12  1  0  0  0  0
  3 21  2  0  0  0  0
  4 14  2  0  0  0  0
  5 13  2  0  0  0  0
  7 13  1  0  0  0  0
  7 11  2  0  0  0  0
  8 17  2  0  0  0  0
  8 10  1  0  0  0  0
  9  7  1  0  0  0  0
 10 19  1  0  0  0  0
 11 16  1  0  0  0  0
 11 14  1  0  0  0  0
 12 23  1  1  0  0  0
 13  4  1  0  0  0  0
 14 18  1  0  0  0  0
 15  1  2  0  0  0  0
 16  3  1  6  0  0  0
 16  2  1  0  0  0  0
 17 21  1  0  0  0  0
 18  6  2  0  0  0  0
 20 19  1  6  0  0  0
 20 15  1  0  0  0  0
 21 20  1  0  0  0  0
 23 27  2  0  0  0  0
 23 24  1  0  0  0  0
 24 25  2  0  0  0  0
 25 22  1  0  0  0  0
 26 22  2  0  0  0  0
 27 26  1  0  0  0  0
M  END
>  <MODEL>
7

>  <REMARK>
 VINA RESULT:      -6.4      5.868      9.008
  Name = 
  1 active torsions:
  status: ('A' for Active; 'I' for Inactive)
    1  A    between atoms: C_9  and  C_15
                            x       y       z     vdW  Elec       q    Type
                         _______ _______ _______ _____ _____    ______ ____

>  <TORSDO>
F 1

$$$$
=
 OpenBabel10262420043D

 27 31  0  0  1  0  0  0  0  0999 V2000
  189.0840  174.6100  137.2890 C   0  0  0  0  0  3  0  0  0  0  0  0
  188.6710  176.7600  138.4350 C   0  0  1  0  0  3  0  0  0  0  0  0
  191.0950  176.6850  139.0670 N   0  0  0  0  0  0  0  0  0  0  0  0
  188.9060  179.0030  141.8230 N   0  0  0  0  0  0  0  0  0  0  0  0
  189.8550  178.3490  144.2640 S   0  0  0  0  0  0  0  0  0  0  0  0
  188.4710  178.2660  138.3600 C   0  0  0  0  0  3  0  0  0  0  0  0
  189.7890  176.8090  141.9790 C   0  0  0  0  0  0  0  0  0  0  0  0
  194.1040  176.3730  137.0130 C   0  0  0  0  0  3  0  0  0  0  0  0
  190.5550  175.6280  142.4690 C   0  0  0  0  0  1  0  0  0  0  0  0
  193.8940  175.2380  136.3460 C   0  0  0  0  0  3  0  0  0  0  0  0
  189.4250  177.0500  140.7320 C   0  0  0  0  0  0  0  0  0  0  0  0
  188.7180  176.0490  137.0800 C   0  0  2  0  0  3  0  0  0  0  0  0
  189.4370  178.0220  142.7170 C   0  0  0  0  0  0  0  0  0  0  0  0
  188.8910  178.3970  140.6820 C   0  0  0  0  0  0  0  0  0  0  0  0
  190.3630  174.2300  137.3550 C   0  0  0  0  0  3  0  0  0  0  0  0
  189.7400  176.3110  139.4720 C   0  0  1  0  0  3  0  0  0  0  0  0
  193.1650  176.8220  137.9960 N   0  0  0  0  0  2  0  0  0  0  0  0
  188.5310  179.0030  139.4370 N   0  0  0  0  0  0  0  0  0  0  0  0
  192.7240  174.3590  136.6810 C   0  0  0  0  0  2  0  0  0  0  0  0
  191.4960  175.1760  137.0820 C   0  0  2  0  0  3  0  0  0  0  0  0
  191.8780  176.2100  138.1380 C   0  0  0  0  0  0  0  0  0  0  0  0
  184.9400  176.3360  135.0460 C   0  0  0  0  0  3  0  0  0  0  0  0
  187.4110  176.1570  136.3550 C   0  0  0  0  0  0  0  0  0  0  0  0
  186.3210  175.4040  136.8050 C   0  0  0  0  0  3  0  0  0  0  0  0
  185.0880  175.4920  136.1510 C   0  0  0  0  0  3  0  0  0  0  0  0
  186.0240  177.0920  134.5940 C   0  0  0  0  0  3  0  0  0  0  0  0
  187.2580  177.0050  135.2460 C   0  0  0  0  0  3  0  0  0  0  0  0
  1 15  2  0  0  0  0
  2  6  1  6  0  0  0
  2 16  1  0  0  0  0
  4 13  1  0  0  0  0
  6 18  2  0  0  0  0
  7  9  1  0  0  0  0
  7 13  1  0  0  0  0
  8 17  1  0  0  0  0
 10 19  1  0  0  0  0
 10  8  2  0  0  0  0
 11  7  2  0  0  0  0
 12 23  1  1  0  0  0
 12  1  1  0  0  0  0
 12  2  1  0  0  0  0
 13  5  2  0  0  0  0
 14 11  1  0  0  0  0
 14  4  2  0  0  0  0
 16  3  1  6  0  0  0
 16 11  1  0  0  0  0
 17 21  1  0  0  0  0
 18 14  1  0  0  0  0
 20 19  1  1  0  0  0
 20 15  1  0  0  0  0
 20 21  1  0  0  0  0
 21  3  2  0  0  0  0
 22 25  1  0  0  0  0
 23 24  1  0  0  0  0
 25 24  2  0  0  0  0
 26 22  2  0  0  0  0
 26 27  1  0  0  0  0
 27 23  2  0  0  0  0
M  END
>  <MODEL>
8

>  <REMARK>
 VINA RESULT:      -6.0      2.323      5.063
  Name = 
  1 active torsions:
  status: ('A' for Active; 'I' for Inactive)
    1  A    between atoms: C_9  and  C_15
                            x       y       z     vdW  Elec       q    Type
                         _______ _______ _______ _____ _____    ______ ____

>  <TORSDO>
F 1

$$$$
=
 OpenBabel10262420043D

 27 31  0  0  1  0  0  0  0  0999 V2000
  184.5780  178.8070  139.3480 C   0  0  0  0  0  3  0  0  0  0  0  0
  184.4090  177.0540  137.6150 C   0  0  1  0  0  3  0  0  0  0  0  0
  182.0130  177.7530  137.3930 N   0  0  0  0  0  0  0  0  0  0  0  0
  182.5180  173.7510  136.1730 N   0  0  0  0  0  0  0  0  0  0  0  0
  180.4070  172.3970  137.1710 S   0  0  0  0  0  0  0  0  0  0  0  0
  184.6750  176.5910  136.1890 C   0  0  0  0  0  3  0  0  0  0  0  0
  181.6030  174.6780  138.1520 C   0  0  0  0  0  0  0  0  0  0  0  0
  180.5180  181.0170  136.6990 C   0  0  0  0  0  3  0  0  0  0  0  0
  180.6500  174.9870  139.2570 C   0  0  0  0  0  1  0  0  0  0  0  0
  181.0040  181.7820  137.6770 C   0  0  0  0  0  2  0  0  0  0  0  0
  182.5750  175.4550  137.7110 C   0  0  0  0  0  0  0  0  0  0  0  0
  185.0530  178.3920  137.9870 C   0  0  2  0  0  3  0  0  0  0  0  0
  181.5610  173.5550  137.2170 C   0  0  0  0  0  0  0  0  0  0  0  0
  183.1060  174.8530  136.5030 C   0  0  0  0  0  0  0  0  0  0  0  0
  183.4410  179.4910  139.4980 C   0  0  0  0  0  3  0  0  0  0  0  0
  182.9390  176.8560  138.0830 C   0  0  1  0  0  3  0  0  0  0  0  0
  180.8180  179.6170  136.6550 N   0  0  0  0  0  0  0  0  0  0  0  0
  184.0880  175.5280  135.7110 N   0  0  0  0  0  0  0  0  0  0  0  0
  181.7910  181.1760  138.8030 C   0  0  0  0  0  2  0  0  0  0  0  0
  182.6560  180.0090  138.3280 C   0  0  2  0  0  3  0  0  0  0  0  0
  181.8160  179.0370  137.5030 C   0  0  0  0  0  0  0  0  0  0  0  0
  189.3450  178.1270  137.9470 C   0  0  0  0  0  3  0  0  0  0  0  0
  186.5490  178.3120  137.9570 C   0  0  0  0  0  0  0  0  0  0  0  0
  187.2300  177.8960  139.1060 C   0  0  0  0  0  3  0  0  0  0  0  0
  188.6260  177.8050  139.1020 C   0  0  0  0  0  3  0  0  0  0  0  0
  188.6700  178.5410  136.7960 C   0  0  0  0  0  3  0  0  0  0  0  0
  187.2750  178.6330  136.7980 C   0  0  0  0  0  3  0  0  0  0  0  0
  1 15  2  0  0  0  0
  2  6  1  6  0  0  0
  2 12  1  0  0  0  0
  2 16  1  0  0  0  0
  3 21  2  0  0  0  0
  4 14  2  0  0  0  0
  4 13  1  0  0  0  0
  5 13  2  0  0  0  0
  7  9  1  0  0  0  0
  8 10  1  0  0  0  0
 10 19  1  0  0  0  0
 11 16  1  0  0  0  0
 11  7  2  0  0  0  0
 12 23  1  1  0  0  0
 12  1  1  0  0  0  0
 13  7  1  0  0  0  0
 14 11  1  0  0  0  0
 16  3  1  6  0  0  0
 17  8  2  0  0  0  0
 17 21  1  0  0  0  0
 18  6  2  0  0  0  0
 18 14  1  0  0  0  0
 20 19  1  1  0  0  0
 20 15  1  0  0  0  0
 21 20  1  0  0  0  0
 22 25  1  0  0  0  0
 23 24  1  0  0  0  0
 25 24  2  0  0  0  0
 26 27  1  0  0  0  0
 26 22  2  0  0  0  0
 27 23  2  0  0  0  0
M  END
>  <MODEL>
9

>  <REMARK>
 VINA RESULT:      -5.8      5.688      8.378
  Name = 
  1 active torsions:
  status: ('A' for Active; 'I' for Inactive)
    1  A    between atoms: C_9  and  C_15
                            x       y       z     vdW  Elec       q    Type
                         _______ _______ _______ _____ _____    ______ ____

>  <TORSDO>
F 1

$$$$
