=
 OpenBabel10262422213D

 43 49  0  0  1  0  0  0  0  0999 V2000
  191.1890  176.9390  146.9880 C   0  0  0  0  0  0  0  0  0  0  0  0
  187.1610  177.6460  144.0090 C   0  0  0  0  0  0  0  0  0  0  0  0
  188.1940  178.1240  141.4700 C   0  0  0  0  0  0  0  0  0  0  0  0
  188.9360  177.1720  146.1360 C   0  0  0  0  0  0  0  0  0  0  0  0
  191.7000  177.1670  145.7070 C   0  0  0  0  0  3  0  0  0  0  0  0
  192.0520  176.7120  148.0490 O   0  0  0  0  0  1  0  0  0  0  0  0
  189.4460  177.4060  144.8370 C   0  0  0  0  0  0  0  0  0  0  0  0
  189.8090  176.9400  147.2020 C   0  0  0  0  0  3  0  0  0  0  0  0
  190.8340  177.3990  144.6360 C   0  0  0  0  0  3  0  0  0  0  0  0
  189.0270  177.8790  142.5150 N   0  0  0  0  0  0  0  0  0  0  0  0
  188.5580  177.6440  143.7730 C   0  0  0  0  0  0  0  0  0  0  0  0
  186.6770  177.4080  145.3040 C   0  0  0  0  0  3  0  0  0  0  0  0
  186.2880  177.8880  142.9330 C   0  0  0  0  0  0  0  0  0  0  0  0
  186.8120  178.1310  141.6620 C   0  0  0  0  0  3  0  0  0  0  0  0
  187.5590  177.1730  146.3590 C   0  0  0  0  0  3  0  0  0  0  0  0
  184.8040  177.9340  143.1140 C   0  0  0  0  0  2  0  0  0  0  0  0
  182.3220  178.3520  141.5220 C   0  0  0  0  0  2  0  0  0  0  0  0
  181.4280  178.7670  142.6090 N   0  0  0  0  0  0  0  0  0  0  0  0
  183.3960  179.7600  143.7850 C   0  0  0  0  0  2  0  0  0  0  0  0
  183.6060  179.1910  141.4590 C   0  0  0  0  0  2  0  0  0  0  0  0
  184.2980  179.2550  142.7480 N   0  0  0  0  0  0  0  0  0  0  0  0
  182.1090  178.9310  143.8980 C   0  0  0  0  0  2  0  0  0  0  0  0
  179.3220  180.0300  143.1270 C   0  0  0  0  0  1  0  0  0  0  0  0
  180.5670  179.9020  142.2540 C   0  0  0  0  0  2  0  0  0  0  0  0
  188.7560  178.3630  140.1150 C   0  0  0  0  0  2  0  0  0  0  0  0
  190.0650  177.7400  140.0100 N   0  0  0  0  0  2  0  0  0  0  0  0
  189.9170  176.5850  139.1400 C   0  0  0  0  0  2  0  0  0  0  0  0
  190.7730  177.0480  136.9720 F   0  0  0  0  0  0  0  0  0  0  0  0
  191.1040  176.4910  138.1930 C   0  0  2  0  0  3  0  0  0  0  0  0
  191.4920  175.0360  137.9880 C   0  0  0  0  0  2  0  0  0  0  0  0
  192.1340  174.8610  136.6890 N   0  0  0  0  0  0  0  0  0  0  0  0
  194.3370  173.9100  136.3030 C   0  0  2  0  0  3  0  0  0  0  0  0
  194.3660  174.2040  137.8020 C   0  0  2  0  0  3  0  0  0  0  0  0
  191.9420  173.4750  136.2760 C   0  0  0  0  0  3  0  0  0  0  0  0
  193.5720  175.0930  136.8380 C   0  0  2  0  0  0  0  0  0  0  0  0
  194.1180  176.4150  136.3190 C   0  0  0  0  0  1  0  0  0  0  0  0
  193.3000  172.8550  136.0030 C   0  0  0  0  0  3  0  0  0  0  0  0
  195.6370  174.8180  138.1640 N   0  0  2  0  0  0  0  0  0  0  0  0
  197.1480  175.1280  140.0580 C   0  0  0  0  0  3  0  0  0  0  0  0
  198.0460  174.6610  137.8640 C   0  0  0  0  0  2  0  0  0  0  0  0
  198.1600  175.0570  139.2570 N   0  0  0  0  0  0  0  0  0  0  0  0
  196.6960  174.0060  137.5710 C   0  0  0  0  0  2  0  0  0  0  0  0
  195.7720  174.7040  139.6170 C   0  0  0  0  0  2  0  0  0  0  0  0
  1  8  1  0  0  0  0
  1  6  1  0  0  0  0
  2 12  1  0  0  0  0
  3 14  2  0  0  0  0
  3 10  1  0  0  0  0
  4 15  1  0  0  0  0
  4  8  2  0  0  0  0
  5  1  2  0  0  0  0
  7  4  1  0  0  0  0
  9  7  2  0  0  0  0
  9  5  1  0  0  0  0
 10 11  2  0  0  0  0
 11  2  1  0  0  0  0
 11  7  1  0  0  0  0
 12 15  2  0  0  0  0
 13 16  1  0  0  0  0
 13  2  2  0  0  0  0
 14 13  1  0  0  0  0
 17 18  1  0  0  0  0
 18 22  1  0  0  0  0
 19 22  1  0  0  0  0
 20 17  1  0  0  0  0
 20 21  1  0  0  0  0
 21 16  1  0  0  0  0
 21 19  1  0  0  0  0
 24 18  1  0  0  0  0
 24 23  1  0  0  0  0
 25  3  1  0  0  0  0
 26 25  1  0  0  0  0
 27 26  1  0  0  0  0
 29 28  1  6  0  0  0
 29 27  1  0  0  0  0
 30 29  1  0  0  0  0
 31 35  1  0  0  0  0
 31 30  1  0  0  0  0
 32 37  1  1  0  0  0
 32 35  1  0  0  0  0
 32 33  1  0  0  0  0
 33 38  1  6  0  0  0
 34 31  1  0  0  0  0
 35 36  1  6  0  0  0
 35 33  1  0  0  0  0
 37 34  2  0  0  0  0
 38 42  1  6  0  0  0
 38 43  1  0  0  0  0
 40 41  1  0  0  0  0
 41 39  2  0  0  0  0
 42 40  1  0  0  0  0
 43 39  1  0  0  0  0
M  END
>  <MODEL>
1

>  <REMARK>
 VINA RESULT:      -9.2      0.000      0.000
  Name = 
  10 active torsions:
  status: ('A' for Active; 'I' for Inactive)
    1  A    between atoms: C_1  and  C_34
    2  A    between atoms: C_1  and  N_35
    3  A    between atoms: C_2  and  N_7
    4  A    between atoms: C_2  and  C_13
    5  A    between atoms: C_3  and  N_4
    6  A    between atoms: C_3  and  C_12
    7  A    between atoms: N_7  and  C_17
    8  A    between atoms: N_11  and  C_14
    9  A    between atoms: C_12  and  C_17
   10  A    between atoms: N_19  and  C_37
                            x       y       z     vdW  Elec       q    Type
                         _______ _______ _______ _____ _____    ______ ____

>  <TORSDO>
F 10

$$$$
=
 OpenBabel10262422213D

 43 49  0  0  1  0  0  0  0  0999 V2000
  191.2620  176.7320  146.9880 C   0  0  0  0  0  0  0  0  0  0  0  0
  188.8550  177.9810  142.7170 C   0  0  0  0  0  0  0  0  0  0  0  0
  186.1590  178.0980  143.3940 C   0  0  0  0  0  0  0  0  0  0  0  0
  190.7320  177.3230  144.7020 C   0  0  0  0  0  0  0  0  0  0  0  0
  189.9070  176.8050  147.3230 C   0  0  0  0  0  3  0  0  0  0  0  0
  192.1990  176.4000  147.9540 O   0  0  0  0  0  1  0  0  0  0  0  0
  189.3580  177.3970  145.0340 C   0  0  0  0  0  0  0  0  0  0  0  0
  191.6740  176.9920  145.6790 C   0  0  0  0  0  3  0  0  0  0  0  0
  188.9590  177.1360  146.3520 C   0  0  0  0  0  3  0  0  0  0  0  0
  187.0900  177.7940  144.3350 N   0  0  0  0  0  0  0  0  0  0  0  0
  188.4190  177.7250  144.0400 C   0  0  0  0  0  0  0  0  0  0  0  0
  190.2220  177.9070  142.4100 C   0  0  0  0  0  3  0  0  0  0  0  0
  187.9010  178.3070  141.7360 C   0  0  0  0  0  0  0  0  0  0  0  0
  186.5490  178.3600  142.0810 C   0  0  0  0  0  3  0  0  0  0  0  0
  191.1530  177.5800  143.3970 C   0  0  0  0  0  3  0  0  0  0  0  0
  188.2850  178.5610  140.3120 C   0  0  0  0  0  2  0  0  0  0  0  0
  188.1540  178.6130  137.3380 C   0  0  0  0  0  2  0  0  0  0  0  0
  189.4500  177.9900  137.0480 N   0  0  0  0  0  0  0  0  0  0  0  0
  189.2420  176.6810  139.1660 C   0  0  0  0  0  2  0  0  0  0  0  0
  187.2880  177.7660  138.2810 C   0  0  0  0  0  2  0  0  0  0  0  0
  188.0000  177.3810  139.5010 N   0  0  0  0  0  0  0  0  0  0  0  0
  190.1500  177.5070  138.2440 C   0  0  0  0  0  2  0  0  0  0  0  0
  190.6110  176.0860  135.8970 C   0  0  0  0  0  1  0  0  0  0  0  0
  189.3910  176.9990  135.9650 C   0  0  0  0  0  2  0  0  0  0  0  0
  184.7220  178.1720  143.7700 C   0  0  0  0  0  2  0  0  0  0  0  0
  183.9380  178.6070  142.6280 N   0  0  0  0  0  2  0  0  0  0  0  0
  182.8810  179.4650  143.1390 C   0  0  0  0  0  2  0  0  0  0  0  0
  180.9480  178.1200  143.4540 F   0  0  0  0  0  0  0  0  0  0  0  0
  181.5360  179.0190  142.5850 C   0  0  2  0  0  3  0  0  0  0  0  0
  181.7260  178.3540  141.2320 C   0  0  0  0  0  2  0  0  0  0  0  0
  181.8070  179.3600  140.1790 N   0  0  0  0  0  0  0  0  0  0  0  0
  182.0580  178.9200  137.8010 C   0  0  2  0  0  3  0  0  0  0  0  0
  182.4260  177.5740  138.4230 C   0  0  2  0  0  3  0  0  0  0  0  0
  180.4860  179.4850  139.5720 C   0  0  0  0  0  3  0  0  0  0  0  0
  182.7340  178.8900  139.1470 C   0  0  2  0  0  0  0  0  0  0  0  0
  184.1150  179.5280  139.1120 C   0  0  0  0  0  1  0  0  0  0  0  0
  180.6080  179.2390  138.0800 C   0  0  0  0  0  3  0  0  0  0  0  0
  183.6140  177.0340  137.7740 N   0  0  2  0  0  0  0  0  0  0  0  0
  184.7100  174.9210  137.2290 C   0  0  0  0  0  3  0  0  0  0  0  0
  184.7010  176.7230  135.6200 C   0  0  0  0  0  2  0  0  0  0  0  0
  185.1420  175.4340  136.1240 N   0  0  0  0  0  0  0  0  0  0  0  0
  183.4390  177.2080  136.3350 C   0  0  0  0  0  2  0  0  0  0  0  0
  183.6290  175.5940  138.0330 C   0  0  0  0  0  2  0  0  0  0  0  0
  1  5  1  0  0  0  0
  1  6  1  0  0  0  0
  2 11  1  0  0  0  0
  3 25  1  0  0  0  0
  3 10  1  0  0  0  0
  4  7  2  0  0  0  0
  4  8  1  0  0  0  0
  7  9  1  0  0  0  0
  8  1  2  0  0  0  0
  9  5  2  0  0  0  0
 11 10  2  0  0  0  0
 11  7  1  0  0  0  0
 12  2  1  0  0  0  0
 12 15  2  0  0  0  0
 13 14  1  0  0  0  0
 13  2  2  0  0  0  0
 14  3  2  0  0  0  0
 15  4  1  0  0  0  0
 16 13  1  0  0  0  0
 17 20  1  0  0  0  0
 18 17  1  0  0  0  0
 18 22  1  0  0  0  0
 19 21  1  0  0  0  0
 20 21  1  0  0  0  0
 21 16  1  0  0  0  0
 22 19  1  0  0  0  0
 23 24  1  0  0  0  0
 24 18  1  0  0  0  0
 26 27  1  0  0  0  0
 26 25  1  0  0  0  0
 29 27  1  0  0  0  0
 29 28  1  1  0  0  0
 30 29  1  0  0  0  0
 31 30  1  0  0  0  0
 32 37  1  1  0  0  0
 32 33  1  0  0  0  0
 32 35  1  0  0  0  0
 33 38  1  6  0  0  0
 33 35  1  0  0  0  0
 34 31  1  0  0  0  0
 35 36  1  1  0  0  0
 35 31  1  0  0  0  0
 37 34  2  0  0  0  0
 38 42  1  6  0  0  0
 38 43  1  0  0  0  0
 39 43  1  0  0  0  0
 40 41  1  0  0  0  0
 40 42  1  0  0  0  0
 41 39  2  0  0  0  0
M  END
>  <MODEL>
2

>  <REMARK>
 VINA RESULT:      -9.1      3.848      8.954
  Name = 
  10 active torsions:
  status: ('A' for Active; 'I' for Inactive)
    1  A    between atoms: C_1  and  C_34
    2  A    between atoms: C_1  and  N_35
    3  A    between atoms: C_2  and  N_7
    4  A    between atoms: C_2  and  C_13
    5  A    between atoms: C_3  and  N_4
    6  A    between atoms: C_3  and  C_12
    7  A    between atoms: N_7  and  C_17
    8  A    between atoms: N_11  and  C_14
    9  A    between atoms: C_12  and  C_17
   10  A    between atoms: N_19  and  C_37
                            x       y       z     vdW  Elec       q    Type
                         _______ _______ _______ _____ _____    ______ ____

>  <TORSDO>
F 10

$$$$
=
 OpenBabel10262422213D

 43 49  0  0  1  0  0  0  0  0999 V2000
  191.2710  176.8740  147.0680 C   0  0  0  0  0  0  0  0  0  0  0  0
  187.2510  177.6330  144.0920 C   0  0  0  0  0  0  0  0  0  0  0  0
  188.2860  178.0640  141.5460 C   0  0  0  0  0  0  0  0  0  0  0  0
  189.0220  177.1430  146.2190 C   0  0  0  0  0  0  0  0  0  0  0  0
  191.7840  177.0790  145.7830 C   0  0  0  0  0  3  0  0  0  0  0  0
  192.1330  176.6400  148.1290 O   0  0  0  0  0  1  0  0  0  0  0  0
  189.5330  177.3540  144.9160 C   0  0  0  0  0  0  0  0  0  0  0  0
  189.8920  176.9050  147.2850 C   0  0  0  0  0  3  0  0  0  0  0  0
  190.9190  177.3180  144.7120 C   0  0  0  0  0  3  0  0  0  0  0  0
  189.1170  177.8130  142.5910 N   0  0  0  0  0  0  0  0  0  0  0  0
  188.6460  177.6000  143.8520 C   0  0  0  0  0  0  0  0  0  0  0  0
  186.7650  177.4170  145.3910 C   0  0  0  0  0  3  0  0  0  0  0  0
  186.3800  177.8810  143.0160 C   0  0  0  0  0  0  0  0  0  0  0  0
  186.9060  178.1010  141.7420 C   0  0  0  0  0  3  0  0  0  0  0  0
  187.6450  177.1740  146.4460 C   0  0  0  0  0  3  0  0  0  0  0  0
  184.8970  177.9590  143.2000 C   0  0  0  0  0  2  0  0  0  0  0  0
  182.5080  178.2010  141.4400 C   0  0  0  0  0  2  0  0  0  0  0  0
  181.5470  178.6910  142.4350 N   0  0  0  0  0  0  0  0  0  0  0  0
  183.4320  179.8120  143.6320 C   0  0  0  0  0  2  0  0  0  0  0  0
  183.7830  179.0520  141.3780 C   0  0  0  0  0  2  0  0  0  0  0  0
  184.3980  179.2360  142.6950 N   0  0  0  0  0  0  0  0  0  0  0  0
  182.1510  178.9740  143.7420 C   0  0  0  0  0  2  0  0  0  0  0  0
  179.6690  179.3310  140.8990 C   0  0  0  0  0  1  0  0  0  0  0  0
  180.6960  179.7780  141.9360 C   0  0  0  0  0  2  0  0  0  0  0  0
  188.8490  178.2790  140.1870 C   0  0  0  0  0  2  0  0  0  0  0  0
  187.7880  178.1990  139.1980 N   0  0  0  0  0  2  0  0  0  0  0  0
  188.3710  178.5650  137.9170 C   0  0  0  0  0  2  0  0  0  0  0  0
  186.5220  178.5120  136.4270 F   0  0  0  0  0  0  0  0  0  0  0  0
  187.6640  177.8240  136.7930 C   0  0  2  0  0  3  0  0  0  0  0  0
  187.2780  176.4280  137.2530 C   0  0  0  0  0  2  0  0  0  0  0  0
  187.7070  175.4350  136.2740 N   0  0  0  0  0  0  0  0  0  0  0  0
  189.6830  174.0280  136.4390 C   0  0  2  0  0  3  0  0  0  0  0  0
  189.9550  175.1000  137.4930 C   0  0  2  0  0  3  0  0  0  0  0  0
  187.2690  174.1240  136.7400 C   0  0  0  0  0  3  0  0  0  0  0  0
  189.1700  175.4280  136.2180 C   0  0  2  0  0  0  0  0  0  0  0  0
  189.8210  176.0970  135.0160 C   0  0  0  0  0  1  0  0  0  0  0  0
  188.4760  173.2100  136.8330 C   0  0  0  0  0  3  0  0  0  0  0  0
  191.3370  175.5520  137.3970 N   0  0  2  0  0  0  0  0  0  0  0  0
  193.0650  176.7220  138.6650 C   0  0  0  0  0  3  0  0  0  0  0  0
  193.6470  174.7940  137.3290 C   0  0  0  0  0  2  0  0  0  0  0  0
  193.9660  175.9650  138.1290 N   0  0  0  0  0  0  0  0  0  0  0  0
  192.1890  174.3710  137.5020 C   0  0  0  0  0  2  0  0  0  0  0  0
  191.6020  176.3790  138.5750 C   0  0  0  0  0  2  0  0  0  0  0  0
  1  8  1  0  0  0  0
  1  6  1  0  0  0  0
  2 12  1  0  0  0  0
  3 14  2  0  0  0  0
  3 10  1  0  0  0  0
  4 15  1  0  0  0  0
  4  8  2  0  0  0  0
  5  1  2  0  0  0  0
  7  4  1  0  0  0  0
  9  7  2  0  0  0  0
  9  5  1  0  0  0  0
 10 11  2  0  0  0  0
 11  2  1  0  0  0  0
 11  7  1  0  0  0  0
 12 15  2  0  0  0  0
 13 16  1  0  0  0  0
 13  2  2  0  0  0  0
 14 13  1  0  0  0  0
 17 18  1  0  0  0  0
 18 22  1  0  0  0  0
 19 22  1  0  0  0  0
 20 17  1  0  0  0  0
 20 21  1  0  0  0  0
 21 16  1  0  0  0  0
 21 19  1  0  0  0  0
 23 24  1  0  0  0  0
 24 18  1  0  0  0  0
 25  3  1  0  0  0  0
 26 25  1  0  0  0  0
 27 26  1  0  0  0  0
 29 28  1  1  0  0  0
 29 30  1  0  0  0  0
 29 27  1  0  0  0  0
 31 34  1  0  0  0  0
 31 30  1  0  0  0  0
 32 37  1  1  0  0  0
 32 33  1  0  0  0  0
 33 38  1  6  0  0  0
 34 37  2  0  0  0  0
 35 36  1  6  0  0  0
 35 31  1  0  0  0  0
 35 32  1  0  0  0  0
 35 33  1  0  0  0  0
 38 42  1  1  0  0  0
 38 43  1  0  0  0  0
 40 42  1  0  0  0  0
 40 41  1  0  0  0  0
 41 39  2  0  0  0  0
 43 39  1  0  0  0  0
M  END
>  <MODEL>
3

>  <REMARK>
 VINA RESULT:      -9.1      1.865      2.841
  Name = 
  10 active torsions:
  status: ('A' for Active; 'I' for Inactive)
    1  A    between atoms: C_1  and  C_34
    2  A    between atoms: C_1  and  N_35
    3  A    between atoms: C_2  and  N_7
    4  A    between atoms: C_2  and  C_13
    5  A    between atoms: C_3  and  N_4
    6  A    between atoms: C_3  and  C_12
    7  A    between atoms: N_7  and  C_17
    8  A    between atoms: N_11  and  C_14
    9  A    between atoms: C_12  and  C_17
   10  A    between atoms: N_19  and  C_37
                            x       y       z     vdW  Elec       q    Type
                         _______ _______ _______ _____ _____    ______ ____

>  <TORSDO>
F 10

$$$$
=
 OpenBabel10262422213D

 43 49  0  0  1  0  0  0  0  0999 V2000
  187.9260  177.6060  147.6060 C   0  0  0  0  0  0  0  0  0  0  0  0
  186.1830  178.4770  142.9370 C   0  0  0  0  0  0  0  0  0  0  0  0
  188.2880  177.8450  141.2310 C   0  0  0  0  0  0  0  0  0  0  0  0
  186.5420  178.1930  145.7100 C   0  0  0  0  0  0  0  0  0  0  0  0
  188.9750  177.2780  146.7420 C   0  0  0  0  0  3  0  0  0  0  0  0
  188.0910  177.4800  148.9760 O   0  0  0  0  0  1  0  0  0  0  0  0
  187.6010  177.8660  144.8290 C   0  0  0  0  0  0  0  0  0  0  0  0
  186.7110  178.0620  147.0900 C   0  0  0  0  0  3  0  0  0  0  0  0
  188.8140  177.4070  145.3600 C   0  0  0  0  0  3  0  0  0  0  0  0
  188.4290  177.7060  142.5750 N   0  0  0  0  0  0  0  0  0  0  0  0
  187.4210  178.0090  143.4410 C   0  0  0  0  0  0  0  0  0  0  0  0
  185.1450  178.7920  143.8270 C   0  0  0  0  0  3  0  0  0  0  0  0
  186.0220  178.6140  141.5460 C   0  0  0  0  0  0  0  0  0  0  0  0
  187.0830  178.3000  140.6960 C   0  0  0  0  0  3  0  0  0  0  0  0
  185.3250  178.6510  145.2040 C   0  0  0  0  0  3  0  0  0  0  0  0
  184.7530  179.1300  140.9440 C   0  0  0  0  0  2  0  0  0  0  0  0
  181.8860  178.4700  140.4840 C   0  0  0  0  0  2  0  0  0  0  0  0
  181.6540  179.3020  139.2980 N   0  0  0  0  0  0  0  0  0  0  0  0
  184.0460  178.9690  138.6550 C   0  0  0  0  0  2  0  0  0  0  0  0
  183.0840  177.5250  140.3190 C   0  0  0  0  0  2  0  0  0  0  0  0
  184.2970  178.2260  139.8910 N   0  0  0  0  0  0  0  0  0  0  0  0
  182.8690  179.9470  138.7870 C   0  0  0  0  0  2  0  0  0  0  0  0
  180.6680  179.4620  136.9960 C   0  0  0  0  0  1  0  0  0  0  0  0
  180.8690  178.6260  138.2570 C   0  0  0  0  0  2  0  0  0  0  0  0
  189.4150  177.4910  140.3280 C   0  0  0  0  0  2  0  0  0  0  0  0
  189.0380  177.7480  138.9490 N   0  0  0  0  0  2  0  0  0  0  0  0
  189.3400  176.5440  138.1930 C   0  0  0  0  0  2  0  0  0  0  0  0
  190.6550  176.8860  136.2450 F   0  0  0  0  0  0  0  0  0  0  0  0
  190.7390  176.6380  137.6020 C   0  0  2  0  0  3  0  0  0  0  0  0
  191.4860  175.3340  137.8250 C   0  0  0  0  0  2  0  0  0  0  0  0
  192.1110  174.8890  136.5840 N   0  0  0  0  0  0  0  0  0  0  0  0
  194.2480  173.7460  136.3920 C   0  0  2  0  0  3  0  0  0  0  0  0
  194.3000  174.3000  137.8150 C   0  0  2  0  0  3  0  0  0  0  0  0
  191.8300  173.4660  136.4220 C   0  0  0  0  0  3  0  0  0  0  0  0
  193.5620  175.0510  136.7010 C   0  0  2  0  0  0  0  0  0  0  0  0
  194.1910  176.2220  135.9610 C   0  0  0  0  0  1  0  0  0  0  0  0
  193.1440  172.7220  136.2760 C   0  0  0  0  0  3  0  0  0  0  0  0
  195.6090  174.8860  138.0740 N   0  0  2  0  0  0  0  0  0  0  0  0
  197.3140  175.0840  139.8110 C   0  0  0  0  0  3  0  0  0  0  0  0
  197.9710  174.7320  137.5130 C   0  0  0  0  0  2  0  0  0  0  0  0
  198.2350  175.0520  138.9060 N   0  0  0  0  0  0  0  0  0  0  0  0
  196.5910  174.1020  137.3300 C   0  0  0  0  0  2  0  0  0  0  0  0
  195.8940  174.6920  139.4960 C   0  0  0  0  0  2  0  0  0  0  0  0
  1  6  1  0  0  0  0
  2 11  1  0  0  0  0
  2 12  1  0  0  0  0
  3 10  1  0  0  0  0
  4  8  2  0  0  0  0
  5  1  2  0  0  0  0
  7  9  2  0  0  0  0
  7  4  1  0  0  0  0
  8  1  1  0  0  0  0
  9  5  1  0  0  0  0
 10 11  2  0  0  0  0
 11  7  1  0  0  0  0
 12 15  2  0  0  0  0
 13  2  2  0  0  0  0
 14  3  2  0  0  0  0
 14 13  1  0  0  0  0
 15  4  1  0  0  0  0
 16 13  1  0  0  0  0
 18 17  1  0  0  0  0
 19 22  1  0  0  0  0
 19 21  1  0  0  0  0
 20 17  1  0  0  0  0
 21 20  1  0  0  0  0
 21 16  1  0  0  0  0
 22 18  1  0  0  0  0
 23 24  1  0  0  0  0
 24 18  1  0  0  0  0
 25  3  1  0  0  0  0
 26 25  1  0  0  0  0
 27 26  1  0  0  0  0
 29 28  1  6  0  0  0
 29 30  1  0  0  0  0
 29 27  1  0  0  0  0
 31 35  1  0  0  0  0
 31 30  1  0  0  0  0
 32 37  1  1  0  0  0
 32 35  1  0  0  0  0
 32 33  1  0  0  0  0
 33 38  1  6  0  0  0
 34 31  1  0  0  0  0
 35 36  1  6  0  0  0
 35 33  1  0  0  0  0
 37 34  2  0  0  0  0
 38 42  1  6  0  0  0
 38 43  1  0  0  0  0
 40 41  1  0  0  0  0
 41 39  2  0  0  0  0
 42 40  1  0  0  0  0
 43 39  1  0  0  0  0
M  END
>  <MODEL>
4

>  <REMARK>
 VINA RESULT:      -9.1      1.659      2.353
  Name = 
  10 active torsions:
  status: ('A' for Active; 'I' for Inactive)
    1  A    between atoms: C_1  and  C_34
    2  A    between atoms: C_1  and  N_35
    3  A    between atoms: C_2  and  N_7
    4  A    between atoms: C_2  and  C_13
    5  A    between atoms: C_3  and  N_4
    6  A    between atoms: C_3  and  C_12
    7  A    between atoms: N_7  and  C_17
    8  A    between atoms: N_11  and  C_14
    9  A    between atoms: C_12  and  C_17
   10  A    between atoms: N_19  and  C_37
                            x       y       z     vdW  Elec       q    Type
                         _______ _______ _______ _____ _____    ______ ____

>  <TORSDO>
F 10

$$$$
=
 OpenBabel10262422213D

 43 49  0  0  1  0  0  0  0  0999 V2000
  188.1430  177.2960  147.1040 C   0  0  0  0  0  0  0  0  0  0  0  0
  186.3830  178.3910  142.4900 C   0  0  0  0  0  0  0  0  0  0  0  0
  188.5540  178.0830  140.7770 C   0  0  0  0  0  0  0  0  0  0  0  0
  186.7350  177.9150  145.2370 C   0  0  0  0  0  0  0  0  0  0  0  0
  189.2270  177.1310  146.2360 C   0  0  0  0  0  3  0  0  0  0  0  0
  188.3030  177.0730  148.4630 O   0  0  0  0  0  1  0  0  0  0  0  0
  187.8270  177.7520  144.3520 C   0  0  0  0  0  0  0  0  0  0  0  0
  186.8990  177.6860  146.6050 C   0  0  0  0  0  3  0  0  0  0  0  0
  189.0700  177.3570  144.8660 C   0  0  0  0  0  3  0  0  0  0  0  0
  188.6910  177.8480  142.1080 N   0  0  0  0  0  0  0  0  0  0  0  0
  187.6510  177.9910  142.9770 C   0  0  0  0  0  0  0  0  0  0  0  0
  185.3120  178.5430  143.3830 C   0  0  0  0  0  3  0  0  0  0  0  0
  186.2260  178.6270  141.1120 C   0  0  0  0  0  0  0  0  0  0  0  0
  187.3200  178.4750  140.2580 C   0  0  0  0  0  3  0  0  0  0  0  0
  185.4880  178.3060  144.7470 C   0  0  0  0  0  3  0  0  0  0  0  0
  184.9240  179.0800  140.5300 C   0  0  0  0  0  2  0  0  0  0  0  0
  182.0470  178.3660  140.8120 C   0  0  0  0  0  2  0  0  0  0  0  0
  181.5520  178.9370  139.5550 N   0  0  0  0  0  0  0  0  0  0  0  0
  183.7730  178.4560  138.5170 C   0  0  0  0  0  2  0  0  0  0  0  0
  183.2180  177.3960  140.6020 C   0  0  0  0  0  2  0  0  0  0  0  0
  184.2940  177.9820  139.8010 N   0  0  0  0  0  0  0  0  0  0  0  0
  182.6160  179.4500  138.6850 C   0  0  0  0  0  2  0  0  0  0  0  0
  179.4370  177.5980  139.7330 C   0  0  0  0  0  1  0  0  0  0  0  0
  180.5950  178.0670  138.8570 C   0  0  0  0  0  2  0  0  0  0  0  0
  189.7170  177.9010  139.8690 C   0  0  0  0  0  2  0  0  0  0  0  0
  190.0560  176.4910  139.7830 N   0  0  0  0  0  2  0  0  0  0  0  0
  190.9440  176.3360  138.6420 C   0  0  0  0  0  2  0  0  0  0  0  0
  190.7890  175.7430  136.3470 F   0  0  0  0  0  0  0  0  0  0  0  0
  190.3000  175.4320  137.6010 C   0  0  2  0  0  3  0  0  0  0  0  0
  188.7920  175.6220  137.6100 C   0  0  0  0  0  2  0  0  0  0  0  0
  188.3490  176.2130  136.3520 N   0  0  0  0  0  0  0  0  0  0  0  0
  186.0410  176.4850  135.6370 C   0  0  2  0  0  3  0  0  0  0  0  0
  185.9120  175.4880  136.7880 C   0  0  2  0  0  3  0  0  0  0  0  0
  187.9740  177.5990  136.6120 C   0  0  0  0  0  3  0  0  0  0  0  0
  187.1540  175.5020  135.8900 C   0  0  2  0  0  0  0  0  0  0  0  0
  187.3320  174.5230  134.7390 C   0  0  0  0  0  1  0  0  0  0  0  0
  186.5420  177.8110  136.1560 C   0  0  0  0  0  3  0  0  0  0  0  0
  185.0000  174.4140  136.4160 N   0  0  2  0  0  0  0  0  0  0  0  0
  184.1380  172.2690  137.2040 C   0  0  0  0  0  3  0  0  0  0  0  0
  182.6520  173.8450  136.1350 C   0  0  0  0  0  2  0  0  0  0  0  0
  182.9910  172.5390  136.6740 N   0  0  0  0  0  0  0  0  0  0  0  0
  183.6410  174.9190  136.5890 C   0  0  0  0  0  2  0  0  0  0  0  0
  185.1850  173.3370  137.3890 C   0  0  0  0  0  2  0  0  0  0  0  0
  1  6  1  0  0  0  0
  2 11  1  0  0  0  0
  2 12  1  0  0  0  0
  3 10  1  0  0  0  0
  4  8  2  0  0  0  0
  5  1  2  0  0  0  0
  7  9  2  0  0  0  0
  7  4  1  0  0  0  0
  8  1  1  0  0  0  0
  9  5  1  0  0  0  0
 10 11  2  0  0  0  0
 11  7  1  0  0  0  0
 12 15  2  0  0  0  0
 13  2  2  0  0  0  0
 14  3  2  0  0  0  0
 14 13  1  0  0  0  0
 15  4  1  0  0  0  0
 16 13  1  0  0  0  0
 18 17  1  0  0  0  0
 19 22  1  0  0  0  0
 19 21  1  0  0  0  0
 20 17  1  0  0  0  0
 21 16  1  0  0  0  0
 21 20  1  0  0  0  0
 22 18  1  0  0  0  0
 24 18  1  0  0  0  0
 24 23  1  0  0  0  0
 25  3  1  0  0  0  0
 26 25  1  0  0  0  0
 27 26  1  0  0  0  0
 29 28  1  6  0  0  0
 29 30  1  0  0  0  0
 29 27  1  0  0  0  0
 31 34  1  0  0  0  0
 31 30  1  0  0  0  0
 32 35  1  0  0  0  0
 32 37  1  1  0  0  0
 32 33  1  0  0  0  0
 33 38  1  6  0  0  0
 35 36  1  6  0  0  0
 35 31  1  0  0  0  0
 35 33  1  0  0  0  0
 37 34  2  0  0  0  0
 38 42  1  1  0  0  0
 38 43  1  0  0  0  0
 39 43  1  0  0  0  0
 40 42  1  0  0  0  0
 40 41  1  0  0  0  0
 41 39  2  0  0  0  0
M  END
>  <MODEL>
5

>  <REMARK>
 VINA RESULT:      -8.9      3.579      6.209
  Name = 
  10 active torsions:
  status: ('A' for Active; 'I' for Inactive)
    1  A    between atoms: C_1  and  C_34
    2  A    between atoms: C_1  and  N_35
    3  A    between atoms: C_2  and  N_7
    4  A    between atoms: C_2  and  C_13
    5  A    between atoms: C_3  and  N_4
    6  A    between atoms: C_3  and  C_12
    7  A    between atoms: N_7  and  C_17
    8  A    between atoms: N_11  and  C_14
    9  A    between atoms: C_12  and  C_17
   10  A    between atoms: N_19  and  C_37
                            x       y       z     vdW  Elec       q    Type
                         _______ _______ _______ _____ _____    ______ ____

>  <TORSDO>
F 10

$$$$
=
 OpenBabel10262422213D

 43 49  0  0  1  0  0  0  0  0999 V2000
  191.2480  176.6050  146.7670 C   0  0  0  0  0  0  0  0  0  0  0  0
  188.9540  177.9670  142.4690 C   0  0  0  0  0  0  0  0  0  0  0  0
  186.2600  178.2240  143.1170 C   0  0  0  0  0  0  0  0  0  0  0  0
  190.7740  177.2180  144.4750 C   0  0  0  0  0  0  0  0  0  0  0  0
  189.8950  176.7480  147.0880 C   0  0  0  0  0  3  0  0  0  0  0  0
  192.1560  176.2280  147.7440 O   0  0  0  0  0  1  0  0  0  0  0  0
  189.4020  177.3630  144.7920 C   0  0  0  0  0  0  0  0  0  0  0  0
  191.6870  176.8410  145.4630 C   0  0  0  0  0  3  0  0  0  0  0  0
  188.9750  177.1250  146.1060 C   0  0  0  0  0  3  0  0  0  0  0  0
  187.1650  177.8750  144.0680 N   0  0  0  0  0  0  0  0  0  0  0  0
  188.4920  177.7370  143.7870 C   0  0  0  0  0  0  0  0  0  0  0  0
  190.3190  177.8220  142.1770 C   0  0  0  0  0  3  0  0  0  0  0  0
  188.0290  178.3400  141.4770 C   0  0  0  0  0  0  0  0  0  0  0  0
  186.6780  178.4630  141.8070 C   0  0  0  0  0  3  0  0  0  0  0  0
  191.2210  177.4500  143.1740 C   0  0  0  0  0  3  0  0  0  0  0  0
  188.4410  178.5700  140.0570 C   0  0  0  0  0  2  0  0  0  0  0  0
  188.1350  178.7490  137.1010 C   0  0  0  0  0  2  0  0  0  0  0  0
  189.3570  178.0380  136.7080 N   0  0  0  0  0  0  0  0  0  0  0  0
  189.1710  176.6670  138.7880 C   0  0  0  0  0  2  0  0  0  0  0  0
  187.2620  177.9370  138.0670 C   0  0  0  0  0  2  0  0  0  0  0  0
  188.0120  177.4480  139.2250 N   0  0  0  0  0  0  0  0  0  0  0  0
  190.0860  177.4540  137.8400 C   0  0  0  0  0  2  0  0  0  0  0  0
  190.2740  176.0770  135.4390 C   0  0  0  0  0  1  0  0  0  0  0  0
  189.1520  177.0980  135.5980 C   0  0  0  0  0  2  0  0  0  0  0  0
  184.8260  178.3720  143.4770 C   0  0  0  0  0  2  0  0  0  0  0  0
  184.0070  178.2790  142.2800 N   0  0  0  0  0  2  0  0  0  0  0  0
  182.6490  178.6270  142.6660 C   0  0  0  0  0  2  0  0  0  0  0  0
  180.8290  177.6550  141.4890 F   0  0  0  0  0  0  0  0  0  0  0  0
  181.7560  178.6790  141.4350 C   0  0  2  0  0  3  0  0  0  0  0  0
  182.5960  178.5250  140.1780 C   0  0  0  0  0  2  0  0  0  0  0  0
  181.8510  177.7940  139.1580 N   0  0  0  0  0  0  0  0  0  0  0  0
  181.3020  178.6080  136.9340 C   0  0  2  0  0  3  0  0  0  0  0  0
  181.7080  179.8890  137.6600 C   0  0  2  0  0  3  0  0  0  0  0  0
  182.8140  177.2090  138.2310 C   0  0  0  0  0  3  0  0  0  0  0  0
  181.0220  178.7410  138.4080 C   0  0  2  0  0  0  0  0  0  0  0  0
  179.5320  178.7490  138.7140 C   0  0  0  0  0  1  0  0  0  0  0  0
  182.4860  177.6780  136.8260 C   0  0  0  0  0  3  0  0  0  0  0  0
  180.7660  180.9570  137.3490 N   0  0  2  0  0  0  0  0  0  0  0  0
  180.4880  183.3780  137.5110 C   0  0  0  0  0  3  0  0  0  0  0  0
  179.7560  182.2110  135.5250 C   0  0  0  0  0  2  0  0  0  0  0  0
  179.8420  183.3750  136.3910 N   0  0  0  0  0  0  0  0  0  0  0  0
  180.7900  181.1490  135.9020 C   0  0  0  0  0  2  0  0  0  0  0  0
  181.2900  182.1830  137.9530 C   0  0  0  0  0  2  0  0  0  0  0  0
  1  5  1  0  0  0  0
  1  6  1  0  0  0  0
  2 11  1  0  0  0  0
  3 25  1  0  0  0  0
  3 10  1  0  0  0  0
  4  7  2  0  0  0  0
  4  8  1  0  0  0  0
  7  9  1  0  0  0  0
  8  1  2  0  0  0  0
  9  5  2  0  0  0  0
 11 10  2  0  0  0  0
 11  7  1  0  0  0  0
 12  2  1  0  0  0  0
 12 15  2  0  0  0  0
 13 14  1  0  0  0  0
 13  2  2  0  0  0  0
 14  3  2  0  0  0  0
 15  4  1  0  0  0  0
 16 13  1  0  0  0  0
 17 20  1  0  0  0  0
 18 17  1  0  0  0  0
 18 22  1  0  0  0  0
 19 21  1  0  0  0  0
 20 21  1  0  0  0  0
 21 16  1  0  0  0  0
 22 19  1  0  0  0  0
 23 24  1  0  0  0  0
 24 18  1  0  0  0  0
 26 27  1  0  0  0  0
 26 25  1  0  0  0  0
 29 28  1  1  0  0  0
 29 27  1  0  0  0  0
 30 29  1  0  0  0  0
 31 30  1  0  0  0  0
 32 37  1  1  0  0  0
 32 33  1  0  0  0  0
 32 35  1  0  0  0  0
 33 38  1  6  0  0  0
 33 35  1  0  0  0  0
 34 31  1  0  0  0  0
 35 36  1  1  0  0  0
 35 31  1  0  0  0  0
 37 34  2  0  0  0  0
 38 42  1  6  0  0  0
 38 43  1  0  0  0  0
 39 43  1  0  0  0  0
 40 42  1  0  0  0  0
 40 41  1  0  0  0  0
 41 39  2  0  0  0  0
M  END
>  <MODEL>
6

>  <REMARK>
 VINA RESULT:      -8.8      3.924     10.132
  Name = 
  10 active torsions:
  status: ('A' for Active; 'I' for Inactive)
    1  A    between atoms: C_1  and  C_34
    2  A    between atoms: C_1  and  N_35
    3  A    between atoms: C_2  and  N_7
    4  A    between atoms: C_2  and  C_13
    5  A    between atoms: C_3  and  N_4
    6  A    between atoms: C_3  and  C_12
    7  A    between atoms: N_7  and  C_17
    8  A    between atoms: N_11  and  C_14
    9  A    between atoms: C_12  and  C_17
   10  A    between atoms: N_19  and  C_37
                            x       y       z     vdW  Elec       q    Type
                         _______ _______ _______ _____ _____    ______ ____

>  <TORSDO>
F 10

$$$$
=
 OpenBabel10262422213D

 43 49  0  0  1  0  0  0  0  0999 V2000
  191.1510  176.6090  146.9780 C   0  0  0  0  0  0  0  0  0  0  0  0
  189.1900  177.8000  142.4690 C   0  0  0  0  0  0  0  0  0  0  0  0
  186.4730  178.1950  142.9240 C   0  0  0  0  0  0  0  0  0  0  0  0
  190.8470  177.1030  144.6290 C   0  0  0  0  0  0  0  0  0  0  0  0
  189.7870  176.8220  147.2010 C   0  0  0  0  0  3  0  0  0  0  0  0
  191.9800  176.2570  148.0320 O   0  0  0  0  0  1  0  0  0  0  0  0
  189.4650  177.3180  144.8470 C   0  0  0  0  0  0  0  0  0  0  0  0
  191.6800  176.7510  145.6940 C   0  0  0  0  0  3  0  0  0  0  0  0
  188.9470  177.1740  146.1420 C   0  0  0  0  0  3  0  0  0  0  0  0
  187.3010  177.8690  143.9510 N   0  0  0  0  0  0  0  0  0  0  0  0
  188.6360  177.6660  143.7660 C   0  0  0  0  0  0  0  0  0  0  0  0
  190.5630  177.5870  142.2750 C   0  0  0  0  0  3  0  0  0  0  0  0
  188.3440  178.1480  141.4000 C   0  0  0  0  0  0  0  0  0  0  0  0
  186.9820  178.3400  141.6340 C   0  0  0  0  0  3  0  0  0  0  0  0
  191.3850  177.2410  143.3490 C   0  0  0  0  0  3  0  0  0  0  0  0
  188.8540  178.2790  139.9990 C   0  0  0  0  0  2  0  0  0  0  0  0
  188.3130  178.6510  137.0940 C   0  0  0  0  0  2  0  0  0  0  0  0
  189.4310  177.8660  136.5580 N   0  0  0  0  0  0  0  0  0  0  0  0
  189.3060  176.3980  138.5760 C   0  0  0  0  0  2  0  0  0  0  0  0
  187.4590  177.8580  138.0930 C   0  0  0  0  0  2  0  0  0  0  0  0
  188.2610  177.2450  139.1540 N   0  0  0  0  0  0  0  0  0  0  0  0
  190.2010  177.1610  137.5890 C   0  0  0  0  0  2  0  0  0  0  0  0
  190.2220  176.2510  134.8080 C   0  0  0  0  0  1  0  0  0  0  0  0
  189.0520  177.0110  135.4250 C   0  0  0  0  0  2  0  0  0  0  0  0
  185.0260  178.4170  143.1820 C   0  0  0  0  0  2  0  0  0  0  0  0
  184.3610  178.7970  141.9470 N   0  0  0  0  0  2  0  0  0  0  0  0
  182.9330  178.6280  142.1630 C   0  0  0  0  0  2  0  0  0  0  0  0
  180.9320  177.9210  141.0960 F   0  0  0  0  0  0  0  0  0  0  0  0
  182.2480  178.2670  140.8540 C   0  0  2  0  0  3  0  0  0  0  0  0
  182.9590  177.0930  140.2010 C   0  0  0  0  0  2  0  0  0  0  0  0
  183.3640  177.4370  138.8420 N   0  0  0  0  0  0  0  0  0  0  0  0
  182.1370  176.9120  136.8110 C   0  0  2  0  0  3  0  0  0  0  0  0
  181.4770  175.9950  137.8390 C   0  0  2  0  0  3  0  0  0  0  0  0
  182.6420  178.6420  138.4480 C   0  0  0  0  0  3  0  0  0  0  0  0
  182.9630  176.3550  137.9410 C   0  0  2  0  0  0  0  0  0  0  0  0
  184.0580  175.4210  137.4490 C   0  0  0  0  0  1  0  0  0  0  0  0
  181.8800  178.3570  137.1670 C   0  0  0  0  0  3  0  0  0  0  0  0
  181.2900  174.6650  137.2720 N   0  0  2  0  0  0  0  0  0  0  0  0
  180.0260  172.6010  137.5960 C   0  0  0  0  0  3  0  0  0  0  0  0
  180.3860  173.4560  135.3650 C   0  0  0  0  0  2  0  0  0  0  0  0
  179.9720  172.4380  136.3150 N   0  0  0  0  0  0  0  0  0  0  0  0
  180.5360  174.8230  136.0320 C   0  0  0  0  0  2  0  0  0  0  0  0
  180.4400  173.9180  138.1990 C   0  0  0  0  0  2  0  0  0  0  0  0
  1  5  1  0  0  0  0
  1  6  1  0  0  0  0
  2 11  1  0  0  0  0
  3 25  1  0  0  0  0
  3 10  1  0  0  0  0
  4  7  2  0  0  0  0
  4  8  1  0  0  0  0
  7  9  1  0  0  0  0
  8  1  2  0  0  0  0
  9  5  2  0  0  0  0
 11 10  2  0  0  0  0
 11  7  1  0  0  0  0
 12  2  1  0  0  0  0
 12 15  2  0  0  0  0
 13 14  1  0  0  0  0
 13  2  2  0  0  0  0
 14  3  2  0  0  0  0
 15  4  1  0  0  0  0
 16 13  1  0  0  0  0
 17 20  1  0  0  0  0
 18 17  1  0  0  0  0
 18 22  1  0  0  0  0
 19 21  1  0  0  0  0
 20 21  1  0  0  0  0
 21 16  1  0  0  0  0
 22 19  1  0  0  0  0
 23 24  1  0  0  0  0
 24 18  1  0  0  0  0
 26 27  1  0  0  0  0
 26 25  1  0  0  0  0
 29 28  1  1  0  0  0
 29 27  1  0  0  0  0
 30 29  1  0  0  0  0
 31 30  1  0  0  0  0
 32 37  1  1  0  0  0
 32 33  1  0  0  0  0
 32 35  1  0  0  0  0
 33 38  1  6  0  0  0
 33 35  1  0  0  0  0
 34 31  1  0  0  0  0
 35 36  1  6  0  0  0
 35 31  1  0  0  0  0
 37 34  2  0  0  0  0
 38 42  1  6  0  0  0
 38 43  1  0  0  0  0
 39 43  1  0  0  0  0
 40 42  1  0  0  0  0
 40 41  1  0  0  0  0
 41 39  2  0  0  0  0
M  END
>  <MODEL>
7

>  <REMARK>
 VINA RESULT:      -8.7      3.954      9.466
  Name = 
  10 active torsions:
  status: ('A' for Active; 'I' for Inactive)
    1  A    between atoms: C_1  and  C_34
    2  A    between atoms: C_1  and  N_35
    3  A    between atoms: C_2  and  N_7
    4  A    between atoms: C_2  and  C_13
    5  A    between atoms: C_3  and  N_4
    6  A    between atoms: C_3  and  C_12
    7  A    between atoms: N_7  and  C_17
    8  A    between atoms: N_11  and  C_14
    9  A    between atoms: C_12  and  C_17
   10  A    between atoms: N_19  and  C_37
                            x       y       z     vdW  Elec       q    Type
                         _______ _______ _______ _____ _____    ______ ____

>  <TORSDO>
F 10

$$$$
=
 OpenBabel10262422213D

 43 49  0  0  1  0  0  0  0  0999 V2000
  181.5840  178.8380  142.5990 C   0  0  0  0  0  0  0  0  0  0  0  0
  186.6210  178.4010  142.7610 C   0  0  0  0  0  0  0  0  0  0  0  0
  187.4380  178.2610  140.1040 C   0  0  0  0  0  0  0  0  0  0  0  0
  183.8820  178.6560  143.3340 C   0  0  0  0  0  0  0  0  0  0  0  0
  182.0030  178.7800  141.2660 C   0  0  0  0  0  3  0  0  0  0  0  0
  180.2350  178.9560  142.8980 O   0  0  0  0  0  1  0  0  0  0  0  0
  184.3130  178.5950  141.9870 C   0  0  0  0  0  0  0  0  0  0  0  0
  182.5230  178.7780  143.6310 C   0  0  0  0  0  3  0  0  0  0  0  0
  183.3610  178.6590  140.9610 C   0  0  0  0  0  3  0  0  0  0  0  0
  186.1220  178.3970  140.4110 N   0  0  0  0  0  0  0  0  0  0  0  0
  185.6840  178.4660  141.7010 C   0  0  0  0  0  0  0  0  0  0  0  0
  186.1730  178.4680  144.0880 C   0  0  0  0  0  3  0  0  0  0  0  0
  187.9880  178.2710  142.4550 C   0  0  0  0  0  0  0  0  0  0  0  0
  188.3910  178.1970  141.1200 C   0  0  0  0  0  3  0  0  0  0  0  0
  184.8130  178.5950  144.3710 C   0  0  0  0  0  3  0  0  0  0  0  0
  189.0310  178.1670  143.5230 C   0  0  0  0  0  2  0  0  0  0  0  0
  191.6290  176.8210  144.0770 C   0  0  0  0  0  2  0  0  0  0  0  0
  191.5970  176.8720  145.5430 N   0  0  0  0  0  0  0  0  0  0  0  0
  189.1040  176.7320  145.4470 C   0  0  0  0  0  2  0  0  0  0  0  0
  190.3700  176.1770  143.4800 C   0  0  0  0  0  2  0  0  0  0  0  0
  189.1370  176.7850  143.9840 N   0  0  0  0  0  0  0  0  0  0  0  0
  190.3360  177.3900  146.0840 C   0  0  0  0  0  2  0  0  0  0  0  0
  192.0290  175.6720  147.7040 C   0  0  0  0  0  1  0  0  0  0  0  0
  192.0370  175.6230  146.1790 C   0  0  0  0  0  2  0  0  0  0  0  0
  187.8640  178.2020  138.6810 C   0  0  0  0  0  2  0  0  0  0  0  0
  186.7500  178.5600  137.8200 N   0  0  0  0  0  2  0  0  0  0  0  0
  186.9470  177.8660  136.5580 C   0  0  0  0  0  2  0  0  0  0  0  0
  184.5840  177.8840  136.8050 F   0  0  0  0  0  0  0  0  0  0  0  0
  185.6030  177.4650  135.9700 C   0  0  2  0  0  3  0  0  0  0  0  0
  185.5320  175.9550  135.8170 C   0  0  0  0  0  2  0  0  0  0  0  0
  185.5830  175.3100  137.1250 N   0  0  0  0  0  0  0  0  0  0  0  0
  184.5630  173.1820  137.7090 C   0  0  2  0  0  3  0  0  0  0  0  0
  183.8680  173.5280  136.3930 C   0  0  2  0  0  3  0  0  0  0  0  0
  186.6350  174.3000  137.0890 C   0  0  0  0  0  3  0  0  0  0  0  0
  184.3100  174.6270  137.3660 C   0  0  2  0  0  0  0  0  0  0  0  0
  183.3400  175.2880  138.3340 C   0  0  0  0  0  1  0  0  0  0  0  0
  186.0370  172.9590  137.4720 C   0  0  0  0  0  3  0  0  0  0  0  0
  182.4390  173.2670  136.5010 N   0  0  2  0  0  0  0  0  0  0  0  0
  180.3580  173.4220  135.2320 C   0  0  0  0  0  3  0  0  0  0  0  0
  180.7740  171.4970  136.6320 C   0  0  0  0  0  2  0  0  0  0  0  0
  179.9320  172.3450  135.8060 N   0  0  0  0  0  0  0  0  0  0  0  0
  182.2570  171.8190  136.4450 C   0  0  0  0  0  2  0  0  0  0  0  0
  181.8070  173.8250  135.3050 C   0  0  0  0  0  2  0  0  0  0  0  0
  1  6  1  0  0  0  0
  1  8  1  0  0  0  0
  2 12  1  0  0  0  0
  3 10  2  0  0  0  0
  3 14  1  0  0  0  0
  4  8  2  0  0  0  0
  4 15  1  0  0  0  0
  5  1  2  0  0  0  0
  7  4  1  0  0  0  0
  9  5  1  0  0  0  0
  9  7  2  0  0  0  0
 10 11  1  0  0  0  0
 11  7  1  0  0  0  0
 11  2  2  0  0  0  0
 12 15  2  0  0  0  0
 13  2  1  0  0  0  0
 13 16  1  0  0  0  0
 14 13  2  0  0  0  0
 16 21  1  0  0  0  0
 17 18  1  0  0  0  0
 18 22  1  0  0  0  0
 18 24  1  0  0  0  0
 19 22  1  0  0  0  0
 20 21  1  0  0  0  0
 20 17  1  0  0  0  0
 21 19  1  0  0  0  0
 24 23  1  0  0  0  0
 25  3  1  0  0  0  0
 26 25  1  0  0  0  0
 27 26  1  0  0  0  0
 29 27  1  0  0  0  0
 29 28  1  1  0  0  0
 30 29  1  0  0  0  0
 30 31  1  0  0  0  0
 31 35  1  0  0  0  0
 32 37  1  6  0  0  0
 33 38  1  1  0  0  0
 33 35  1  0  0  0  0
 33 32  1  0  0  0  0
 34 31  1  0  0  0  0
 34 37  2  0  0  0  0
 35 32  1  0  0  0  0
 35 36  1  1  0  0  0
 38 43  1  6  0  0  0
 39 43  1  0  0  0  0
 39 41  2  0  0  0  0
 41 40  1  0  0  0  0
 42 38  1  0  0  0  0
 42 40  1  0  0  0  0
M  END
>  <MODEL>
8

>  <REMARK>
 VINA RESULT:      -8.5      5.017      9.338
  Name = 
  10 active torsions:
  status: ('A' for Active; 'I' for Inactive)
    1  A    between atoms: C_1  and  C_34
    2  A    between atoms: C_1  and  N_35
    3  A    between atoms: C_2  and  N_7
    4  A    between atoms: C_2  and  C_13
    5  A    between atoms: C_3  and  N_4
    6  A    between atoms: C_3  and  C_12
    7  A    between atoms: N_7  and  C_17
    8  A    between atoms: N_11  and  C_14
    9  A    between atoms: C_12  and  C_17
   10  A    between atoms: N_19  and  C_37
                            x       y       z     vdW  Elec       q    Type
                         _______ _______ _______ _____ _____    ______ ____

>  <TORSDO>
F 10

$$$$
=
 OpenBabel10262422213D

 43 49  0  0  1  0  0  0  0  0999 V2000
  189.6980  176.4940  135.8250 C   0  0  0  0  0  0  0  0  0  0  0  0
  189.1100  177.7310  140.6950 C   0  0  0  0  0  0  0  0  0  0  0  0
  186.5170  178.7220  140.8990 C   0  0  0  0  0  0  0  0  0  0  0  0
  190.0450  176.8640  138.1910 C   0  0  0  0  0  0  0  0  0  0  0  0
  188.3920  176.9820  135.9380 C   0  0  0  0  0  3  0  0  0  0  0  0
  190.1760  176.0710  134.5950 O   0  0  0  0  0  1  0  0  0  0  0  0
  188.7240  177.3600  138.3120 C   0  0  0  0  0  0  0  0  0  0  0  0
  190.5220  176.4350  136.9500 C   0  0  0  0  0  3  0  0  0  0  0  0
  187.9070  177.4130  137.1750 C   0  0  0  0  0  3  0  0  0  0  0  0
  186.9930  178.2840  139.7040 N   0  0  0  0  0  0  0  0  0  0  0  0
  188.2570  177.7950  139.5660 C   0  0  0  0  0  0  0  0  0  0  0  0
  190.4130  177.2320  140.5530 C   0  0  0  0  0  3  0  0  0  0  0  0
  188.6250  178.1720  141.9400 C   0  0  0  0  0  0  0  0  0  0  0  0
  187.3250  178.6720  142.0350 C   0  0  0  0  0  3  0  0  0  0  0  0
  190.8760  176.8010  139.3090 C   0  0  0  0  0  3  0  0  0  0  0  0
  189.4780  178.1620  143.1690 C   0  0  0  0  0  2  0  0  0  0  0  0
  191.5190  177.1200  145.0710 C   0  0  0  0  0  2  0  0  0  0  0  0
  190.8060  177.3790  146.3270 N   0  0  0  0  0  0  0  0  0  0  0  0
  188.6480  177.0290  145.1170 C   0  0  0  0  0  2  0  0  0  0  0  0
  190.6880  176.2990  144.0760 C   0  0  0  0  0  2  0  0  0  0  0  0
  189.3600  176.8730  143.8470 N   0  0  0  0  0  0  0  0  0  0  0  0
  189.4360  177.8680  146.1320 C   0  0  0  0  0  2  0  0  0  0  0  0
  192.3040  175.6890  147.4200 C   0  0  0  0  0  1  0  0  0  0  0  0
  190.9010  176.2740  147.2900 C   0  0  0  0  0  2  0  0  0  0  0  0
  185.1260  179.2360  141.0000 C   0  0  0  0  0  2  0  0  0  0  0  0
  184.6440  179.6060  139.6800 N   0  0  0  0  0  2  0  0  0  0  0  0
  183.2420  179.2270  139.6180 C   0  0  0  0  0  2  0  0  0  0  0  0
  183.5730  176.8930  139.9130 F   0  0  0  0  0  0  0  0  0  0  0  0
  183.1050  177.8360  139.0170 C   0  0  2  0  0  3  0  0  0  0  0  0
  183.9100  177.7440  137.7320 C   0  0  0  0  0  2  0  0  0  0  0  0
  183.0990  177.1660  136.6660 N   0  0  0  0  0  0  0  0  0  0  0  0
  182.9660  174.8070  136.0930 C   0  0  2  0  0  3  0  0  0  0  0  0
  184.2160  174.8610  136.9700 C   0  0  2  0  0  3  0  0  0  0  0  0
  181.8760  176.6420  137.2640 C   0  0  0  0  0  3  0  0  0  0  0  0
  183.8290  176.0420  136.0740 C   0  0  2  0  0  0  0  0  0  0  0  0
  184.4740  176.2730  134.7150 C   0  0  0  0  0  1  0  0  0  0  0  0
  181.7480  175.1730  136.9070 C   0  0  0  0  0  3  0  0  0  0  0  0
  185.2800  174.0660  136.3700 N   0  0  2  0  0  0  0  0  0  0  0  0
  187.5120  173.1870  136.8290 C   0  0  0  0  0  3  0  0  0  0  0  0
  185.8920  171.8160  135.6740 C   0  0  0  0  0  2  0  0  0  0  0  0
  187.2300  172.1250  136.1480 N   0  0  0  0  0  0  0  0  0  0  0  0
  184.8340  172.6750  136.3670 C   0  0  0  0  0  2  0  0  0  0  0  0
  186.4340  174.1440  137.2660 C   0  0  0  0  0  2  0  0  0  0  0  0
  1  5  2  0  0  0  0
  1  8  1  0  0  0  0
  2 13  1  0  0  0  0
  3 25  1  0  0  0  0
  3 14  1  0  0  0  0
  4  7  1  0  0  0  0
  4 15  1  0  0  0  0
  5  9  1  0  0  0  0
  6  1  1  0  0  0  0
  7 11  1  0  0  0  0
  8  4  2  0  0  0  0
  9  7  2  0  0  0  0
 10  3  2  0  0  0  0
 11 10  1  0  0  0  0
 11  2  2  0  0  0  0
 12  2  1  0  0  0  0
 13 14  2  0  0  0  0
 13 16  1  0  0  0  0
 15 12  2  0  0  0  0
 16 21  1  0  0  0  0
 17 18  1  0  0  0  0
 18 24  1  0  0  0  0
 19 22  1  0  0  0  0
 20 17  1  0  0  0  0
 21 20  1  0  0  0  0
 21 19  1  0  0  0  0
 22 18  1  0  0  0  0
 24 23  1  0  0  0  0
 26 25  1  0  0  0  0
 27 26  1  0  0  0  0
 29 27  1  0  0  0  0
 29 28  1  1  0  0  0
 30 29  1  0  0  0  0
 31 34  1  0  0  0  0
 31 30  1  0  0  0  0
 32 37  1  1  0  0  0
 32 33  1  0  0  0  0
 33 38  1  6  0  0  0
 35 36  1  6  0  0  0
 35 32  1  0  0  0  0
 35 31  1  0  0  0  0
 35 33  1  0  0  0  0
 37 34  2  0  0  0  0
 38 42  1  1  0  0  0
 38 43  1  0  0  0  0
 39 43  1  0  0  0  0
 40 41  1  0  0  0  0
 40 42  1  0  0  0  0
 41 39  2  0  0  0  0
M  END
>  <MODEL>
9

>  <REMARK>
 VINA RESULT:      -8.4      4.531      8.930
  Name = 
  10 active torsions:
  status: ('A' for Active; 'I' for Inactive)
    1  A    between atoms: C_1  and  C_34
    2  A    between atoms: C_1  and  N_35
    3  A    between atoms: C_2  and  N_7
    4  A    between atoms: C_2  and  C_13
    5  A    between atoms: C_3  and  N_4
    6  A    between atoms: C_3  and  C_12
    7  A    between atoms: N_7  and  C_17
    8  A    between atoms: N_11  and  C_14
    9  A    between atoms: C_12  and  C_17
   10  A    between atoms: N_19  and  C_37
                            x       y       z     vdW  Elec       q    Type
                         _______ _______ _______ _____ _____    ______ ____

>  <TORSDO>
F 10

$$$$
