=
 OpenBabel10262419263D

 31 34  0  0  1  0  0  0  0  0999 V2000
  190.8300  177.2790  144.5940 C   0  0  0  0  0  0  0  0  0  0  0  0
  187.5760  178.0140  142.5590 C   0  0  0  0  0  0  0  0  0  0  0  0
  186.4830  178.0220  143.4620 C   0  0  0  0  0  0  0  0  0  0  0  0
  186.3710  178.2060  145.9270 C   0  0  0  0  0  3  0  0  0  0  0  0
  188.9360  177.5130  142.9390 C   0  0  0  0  0  0  0  0  0  0  0  0
  191.6490  176.8030  143.4810 C   0  0  0  0  0  3  0  0  0  0  0  0
  186.5690  177.2890  144.7670 C   0  0  0  0  0  2  0  0  0  0  0  0
  188.4870  178.4610  140.2430 C   0  0  2  0  0  3  0  0  0  0  0  0
  191.3110  177.3150  145.7560 O   0  0  0  0  0  0  0  0  0  0  0  0
  185.1180  179.0700  141.7650 C   0  0  0  0  0  3  0  0  0  0  0  0
  185.2250  178.8420  146.1540 C   0  0  0  0  0  3  0  0  0  0  0  0
  189.2180  176.8000  140.2980 S   0  0  0  0  0  0  0  0  0  0  0  0
  187.3670  178.5070  141.2500 C   0  0  0  0  0  0  0  0  0  0  0  0
  189.4330  177.7560  144.3490 C   0  0  0  0  0  2  0  0  0  0  0  0
  184.0470  178.8010  145.2680 C   0  0  0  0  0  3  0  0  0  0  0  0
  189.7770  177.0350  141.9900 C   0  0  0  0  0  0  0  0  0  0  0  0
  191.1420  176.7070  142.2920 N   0  0  0  0  0  0  0  0  0  0  0  0
  186.1580  179.0190  140.8980 N   0  0  0  0  0  0  0  0  0  0  0  0
  185.2510  178.5850  143.0640 C   0  0  0  0  0  0  0  0  0  0  0  0
  184.0620  178.6830  143.9350 C   0  0  0  0  0  3  0  0  0  0  0  0
  188.0010  178.7270  138.8970 N   0  0  0  0  0  2  0  0  0  0  0  0
  186.3850  177.2320  138.1540 O   0  0  0  0  0  1  0  0  0  0  0  0
  187.7610  177.4380  138.2630 C   0  0  1  0  0  3  0  0  0  0  0  0
  189.3530  178.5840  136.6950 C   0  0  0  0  0  1  0  0  0  0  0  0
  188.4200  177.3980  136.8770 C   0  0  1  0  0  3  0  0  0  0  0  0
  188.7970  175.5010  135.4220 O   0  0  0  0  0  1  0  0  0  0  0  0
  189.2070  176.1080  136.6130 C   0  0  1  0  0  3  0  0  0  0  0  0
  190.7100  176.3470  136.5860 C   0  0  0  0  0  2  0  0  0  0  0  0
  191.3590  175.6110  137.6590 N   0  0  0  0  0  0  0  0  0  0  0  0
  191.9370  174.4180  137.0670 C   0  0  0  0  0  1  0  0  0  0  0  0
  192.4690  176.4290  138.1100 C   0  0  0  0  0  1  0  0  0  0  0  0
  1  9  2  0  0  0  0
  2  5  1  0  0  0  0
  2  3  1  0  0  0  0
  3  7  1  0  0  0  0
  4 11  2  0  0  0  0
  5 14  1  0  0  0  0
  6  1  1  0  0  0  0
  7  4  1  0  0  0  0
  8 21  1  6  0  0  0
  8 12  1  0  0  0  0
  8 13  1  0  0  0  0
 10 19  1  0  0  0  0
 12 16  1  0  0  0  0
 13  2  2  0  0  0  0
 14  1  1  0  0  0  0
 15 11  1  0  0  0  0
 16 17  1  0  0  0  0
 16  5  2  0  0  0  0
 17  6  2  0  0  0  0
 18 13  1  0  0  0  0
 18 10  2  0  0  0  0
 19  3  2  0  0  0  0
 19 20  1  0  0  0  0
 20 15  2  0  0  0  0
 23 22  1  6  0  0  0
 23 21  1  0  0  0  0
 25 24  1  1  0  0  0
 25 23  1  0  0  0  0
 27 26  1  6  0  0  0
 27 25  1  0  0  0  0
 28 27  1  0  0  0  0
 28 29  1  0  0  0  0
 29 31  1  0  0  0  0
 30 29  1  0  0  0  0
M  END
>  <MODEL>
1

>  <REMARK>
 VINA RESULT:      -9.0      0.000      0.000
  Name = 
  6 active torsions:
  status: ('A' for Active; 'I' for Inactive)
    1  A    between atoms: N_1  and  C_24
    2  A    between atoms: C_9  and  C_22
    3  A    between atoms: C_9  and  N_23
    4  A    between atoms: C_15  and  N_23
    5  A    between atoms: C_19  and  C_22
    6  A    between atoms: C_19  and  C_24
                            x       y       z     vdW  Elec       q    Type
                         _______ _______ _______ _____ _____    ______ ____

>  <TORSDO>
F 6

$$$$
=
 OpenBabel10262419263D

 31 34  0  0  1  0  0  0  0  0999 V2000
  190.6580  177.1090  145.4790 C   0  0  0  0  0  0  0  0  0  0  0  0
  187.7950  177.9240  142.9480 C   0  0  0  0  0  0  0  0  0  0  0  0
  186.5690  177.9480  143.6610 C   0  0  0  0  0  0  0  0  0  0  0  0
  186.0600  178.1180  146.0770 C   0  0  0  0  0  3  0  0  0  0  0  0
  189.0650  177.3920  143.5400 C   0  0  0  0  0  0  0  0  0  0  0  0
  191.6380  176.6230  144.5100 C   0  0  0  0  0  3  0  0  0  0  0  0
  186.4270  177.2060  144.9560 C   0  0  0  0  0  2  0  0  0  0  0  0
  189.0790  178.3680  140.8170 C   0  0  2  0  0  3  0  0  0  0  0  0
  190.9430  177.1260  146.7040 O   0  0  0  0  0  0  0  0  0  0  0  0
  185.5190  179.0360  141.7750 C   0  0  0  0  0  3  0  0  0  0  0  0
  184.9040  178.7760  146.1200 C   0  0  0  0  0  3  0  0  0  0  0  0
  189.7590  176.6920  140.9730 S   0  0  0  0  0  0  0  0  0  0  0  0
  187.8110  178.4300  141.6270 C   0  0  0  0  0  0  0  0  0  0  0  0
  189.3290  177.6160  145.0150 C   0  0  0  0  0  2  0  0  0  0  0  0
  183.8870  178.7650  145.0540 C   0  0  0  0  0  3  0  0  0  0  0  0
  190.0400  176.9040  142.7360 C   0  0  0  0  0  0  0  0  0  0  0  0
  191.3300  176.5460  143.2530 N   0  0  0  0  0  0  0  0  0  0  0  0
  186.6860  178.9700  141.0880 N   0  0  0  0  0  0  0  0  0  0  0  0
  185.4300  178.5390  143.0740 C   0  0  0  0  0  0  0  0  0  0  0  0
  184.1160  178.6560  143.7400 C   0  0  0  0  0  3  0  0  0  0  0  0
  188.8250  178.6530  139.4120 N   0  0  0  0  0  2  0  0  0  0  0  0
  187.5570  177.0340  138.3310 O   0  0  0  0  0  1  0  0  0  0  0  0
  188.8570  177.3820  138.7020 C   0  0  1  0  0  3  0  0  0  0  0  0
  191.0730  176.7640  137.6960 C   0  0  0  0  0  1  0  0  0  0  0  0
  189.7570  177.4890  137.4620 C   0  0  1  0  0  3  0  0  0  0  0  0
  189.3320  177.7830  135.0990 O   0  0  0  0  0  1  0  0  0  0  0  0
  189.1090  176.9360  136.1870 C   0  0  1  0  0  3  0  0  0  0  0  0
  189.5920  175.5300  135.8620 C   0  0  0  0  0  2  0  0  0  0  0  0
  188.5970  174.5480  136.2610 N   0  0  0  0  0  0  0  0  0  0  0  0
  187.9690  174.0610  135.0450 C   0  0  0  0  0  1  0  0  0  0  0  0
  189.3240  173.4270  136.8280 C   0  0  0  0  0  1  0  0  0  0  0  0
  1  9  2  0  0  0  0
  2  5  1  0  0  0  0
  2  3  1  0  0  0  0
  3  7  1  0  0  0  0
  4 11  2  0  0  0  0
  5 14  1  0  0  0  0
  6  1  1  0  0  0  0
  7  4  1  0  0  0  0
  8 21  1  6  0  0  0
  8 12  1  0  0  0  0
  8 13  1  0  0  0  0
 10 19  1  0  0  0  0
 12 16  1  0  0  0  0
 13  2  2  0  0  0  0
 14  1  1  0  0  0  0
 15 11  1  0  0  0  0
 16 17  1  0  0  0  0
 16  5  2  0  0  0  0
 17  6  2  0  0  0  0
 18 13  1  0  0  0  0
 18 10  2  0  0  0  0
 19  3  2  0  0  0  0
 19 20  1  0  0  0  0
 20 15  2  0  0  0  0
 23 22  1  6  0  0  0
 23 21  1  0  0  0  0
 25 24  1  1  0  0  0
 25 23  1  0  0  0  0
 27 26  1  6  0  0  0
 27 25  1  0  0  0  0
 28 27  1  0  0  0  0
 28 29  1  0  0  0  0
 29 31  1  0  0  0  0
 30 29  1  0  0  0  0
M  END
>  <MODEL>
2

>  <REMARK>
 VINA RESULT:      -9.0      1.263      1.625
  Name = 
  6 active torsions:
  status: ('A' for Active; 'I' for Inactive)
    1  A    between atoms: N_1  and  C_24
    2  A    between atoms: C_9  and  C_22
    3  A    between atoms: C_9  and  N_23
    4  A    between atoms: C_15  and  N_23
    5  A    between atoms: C_19  and  C_22
    6  A    between atoms: C_19  and  C_24
                            x       y       z     vdW  Elec       q    Type
                         _______ _______ _______ _____ _____    ______ ____

>  <TORSDO>
F 6

$$$$
=
 OpenBabel10262419263D

 31 34  0  0  1  0  0  0  0  0999 V2000
  190.9600  177.1530  146.8820 C   0  0  0  0  0  0  0  0  0  0  0  0
  188.1920  177.3920  144.1340 C   0  0  0  0  0  0  0  0  0  0  0  0
  186.9530  177.6470  144.7760 C   0  0  0  0  0  0  0  0  0  0  0  0
  186.4000  178.4570  147.0480 C   0  0  0  0  0  3  0  0  0  0  0  0
  189.4230  176.9830  144.8850 C   0  0  0  0  0  0  0  0  0  0  0  0
  191.9380  176.3950  146.1030 C   0  0  0  0  0  3  0  0  0  0  0  0
  186.7500  177.2710  146.2130 C   0  0  0  0  0  2  0  0  0  0  0  0
  189.5410  177.2170  142.0040 C   0  0  2  0  0  3  0  0  0  0  0  0
  191.2190  177.4770  148.0700 O   0  0  0  0  0  0  0  0  0  0  0  0
  185.9950  178.2460  142.6400 C   0  0  0  0  0  3  0  0  0  0  0  0
  185.2750  179.1470  146.8820 C   0  0  0  0  0  3  0  0  0  0  0  0
  190.1410  175.6150  142.6100 S   0  0  0  0  0  0  0  0  0  0  0  0
  188.2600  177.5360  142.7290 C   0  0  0  0  0  0  0  0  0  0  0  0
  189.6660  177.5720  146.2590 C   0  0  0  0  0  2  0  0  0  0  0  0
  184.2810  178.8990  145.8220 C   0  0  0  0  0  3  0  0  0  0  0  0
  190.3930  176.2660  144.2660 C   0  0  0  0  0  0  0  0  0  0  0  0
  191.6540  176.0060  144.9000 N   0  0  0  0  0  0  0  0  0  0  0  0
  187.1720  177.9590  142.0320 N   0  0  0  0  0  0  0  0  0  0  0  0
  185.8550  178.1070  144.0190 C   0  0  0  0  0  0  0  0  0  0  0  0
  184.5340  178.4430  144.5900 C   0  0  0  0  0  3  0  0  0  0  0  0
  189.3300  177.1370  140.5650 N   0  0  0  0  0  2  0  0  0  0  0  0
  191.6280  177.2360  140.2360 O   0  0  0  0  0  1  0  0  0  0  0  0
  190.4190  177.8640  139.9290 C   0  0  1  0  0  3  0  0  0  0  0  0
  190.3800  176.5250  137.8050 C   0  0  0  0  0  1  0  0  0  0  0  0
  190.2100  177.9100  138.4080 C   0  0  1  0  0  3  0  0  0  0  0  0
  188.9540  179.7460  137.4580 O   0  0  0  0  0  1  0  0  0  0  0  0
  188.8400  178.4620  137.9970 C   0  0  1  0  0  3  0  0  0  0  0  0
  188.1230  177.5470  137.0150 C   0  0  0  0  0  2  0  0  0  0  0  0
  186.9400  176.9690  137.6330 N   0  0  0  0  0  0  0  0  0  0  0  0
  185.9240  178.0060  137.6570 C   0  0  0  0  0  1  0  0  0  0  0  0
  186.4610  175.9400  136.7290 C   0  0  0  0  0  1  0  0  0  0  0  0
  1  9  2  0  0  0  0
  2  3  1  0  0  0  0
  2  5  1  0  0  0  0
  3  7  1  0  0  0  0
  5 14  1  0  0  0  0
  6  1  1  0  0  0  0
  7  4  1  0  0  0  0
  8 21  1  6  0  0  0
  8 12  1  0  0  0  0
  8 13  1  0  0  0  0
 10 19  1  0  0  0  0
 11  4  2  0  0  0  0
 12 16  1  0  0  0  0
 13  2  2  0  0  0  0
 14  1  1  0  0  0  0
 15 11  1  0  0  0  0
 16  5  2  0  0  0  0
 16 17  1  0  0  0  0
 17  6  2  0  0  0  0
 18 10  2  0  0  0  0
 18 13  1  0  0  0  0
 19 20  1  0  0  0  0
 19  3  2  0  0  0  0
 20 15  2  0  0  0  0
 23 22  1  6  0  0  0
 23 21  1  0  0  0  0
 25 24  1  1  0  0  0
 25 23  1  0  0  0  0
 27 26  1  6  0  0  0
 27 25  1  0  0  0  0
 28 29  1  0  0  0  0
 28 27  1  0  0  0  0
 29 30  1  0  0  0  0
 31 29  1  0  0  0  0
M  END
>  <MODEL>
3

>  <REMARK>
 VINA RESULT:      -8.8      2.017      3.020
  Name = 
  6 active torsions:
  status: ('A' for Active; 'I' for Inactive)
    1  A    between atoms: N_1  and  C_24
    2  A    between atoms: C_9  and  C_22
    3  A    between atoms: C_9  and  N_23
    4  A    between atoms: C_15  and  N_23
    5  A    between atoms: C_19  and  C_22
    6  A    between atoms: C_19  and  C_24
                            x       y       z     vdW  Elec       q    Type
                         _______ _______ _______ _____ _____    ______ ____

>  <TORSDO>
F 6

$$$$
=
 OpenBabel10262419263D

 31 34  0  0  1  0  0  0  0  0999 V2000
  190.6510  177.1360  146.7850 C   0  0  0  0  0  0  0  0  0  0  0  0
  188.1700  177.5420  143.7940 C   0  0  0  0  0  0  0  0  0  0  0  0
  186.8680  177.7360  144.3240 C   0  0  0  0  0  0  0  0  0  0  0  0
  186.0750  178.3720  146.5790 C   0  0  0  0  0  3  0  0  0  0  0  0
  189.3270  177.0950  144.6350 C   0  0  0  0  0  0  0  0  0  0  0  0
  191.7170  176.4480  146.0580 C   0  0  0  0  0  3  0  0  0  0  0  0
  186.5290  177.2550  145.7020 C   0  0  0  0  0  2  0  0  0  0  0  0
  189.7290  177.5380  141.8050 C   0  0  2  0  0  3  0  0  0  0  0  0
  190.7840  177.3760  148.0130 O   0  0  0  0  0  0  0  0  0  0  0  0
  186.1190  178.4780  142.1490 C   0  0  0  0  0  3  0  0  0  0  0  0
  184.9590  179.0600  146.3490 C   0  0  0  0  0  3  0  0  0  0  0  0
  190.2950  175.9030  142.3540 S   0  0  0  0  0  0  0  0  0  0  0  0
  188.3760  177.7890  142.4170 C   0  0  0  0  0  0  0  0  0  0  0  0
  189.4190  177.5850  146.0650 C   0  0  0  0  0  2  0  0  0  0  0  0
  184.0820  178.8780  145.1790 C   0  0  0  0  0  3  0  0  0  0  0  0
  190.3670  176.4360  144.0690 C   0  0  0  0  0  0  0  0  0  0  0  0
  191.5630  176.1440  144.8080 N   0  0  0  0  0  0  0  0  0  0  0  0
  187.3560  178.2500  141.6450 N   0  0  0  0  0  0  0  0  0  0  0  0
  185.8430  178.2380  143.4930 C   0  0  0  0  0  0  0  0  0  0  0  0
  184.4650  178.5160  143.9490 C   0  0  0  0  0  3  0  0  0  0  0  0
  189.6660  177.5610  140.3500 N   0  0  0  0  0  2  0  0  0  0  0  0
  191.9090  177.6520  140.9490 O   0  0  0  0  0  1  0  0  0  0  0  0
  191.0360  177.6070  139.8600 C   0  0  1  0  0  3  0  0  0  0  0  0
  190.0770  175.9350  138.2510 C   0  0  0  0  0  1  0  0  0  0  0  0
  191.3300  176.3780  138.9880 C   0  0  1  0  0  3  0  0  0  0  0  0
  193.6690  176.8580  138.5980 O   0  0  0  0  0  1  0  0  0  0  0  0
  192.4490  176.6090  137.9650 C   0  0  1  0  0  3  0  0  0  0  0  0
  192.5910  175.4430  136.9970 C   0  0  0  0  0  2  0  0  0  0  0  0
  192.9240  175.9270  135.6670 N   0  0  0  0  0  0  0  0  0  0  0  0
  193.8530  174.9730  135.0880 C   0  0  0  0  0  1  0  0  0  0  0  0
  191.7060  175.8490  134.8810 C   0  0  0  0  0  1  0  0  0  0  0  0
  1  9  2  0  0  0  0
  2  3  1  0  0  0  0
  2  5  1  0  0  0  0
  3  7  1  0  0  0  0
  5 14  1  0  0  0  0
  6  1  1  0  0  0  0
  7  4  1  0  0  0  0
  8 21  1  6  0  0  0
  8 12  1  0  0  0  0
  8 13  1  0  0  0  0
 10 19  1  0  0  0  0
 11  4  2  0  0  0  0
 12 16  1  0  0  0  0
 13  2  2  0  0  0  0
 14  1  1  0  0  0  0
 15 11  1  0  0  0  0
 16  5  2  0  0  0  0
 16 17  1  0  0  0  0
 17  6  2  0  0  0  0
 18 10  2  0  0  0  0
 18 13  1  0  0  0  0
 19 20  1  0  0  0  0
 19  3  2  0  0  0  0
 20 15  2  0  0  0  0
 23 21  1  0  0  0  0
 23 22  1  1  0  0  0
 25 24  1  6  0  0  0
 25 23  1  0  0  0  0
 27 26  1  1  0  0  0
 27 25  1  0  0  0  0
 28 27  1  0  0  0  0
 29 28  1  0  0  0  0
 30 29  1  0  0  0  0
 31 29  1  0  0  0  0
M  END
>  <MODEL>
4

>  <REMARK>
 VINA RESULT:      -8.6      2.252      2.658
  Name = 
  6 active torsions:
  status: ('A' for Active; 'I' for Inactive)
    1  A    between atoms: N_1  and  C_24
    2  A    between atoms: C_9  and  C_22
    3  A    between atoms: C_9  and  N_23
    4  A    between atoms: C_15  and  N_23
    5  A    between atoms: C_19  and  C_22
    6  A    between atoms: C_19  and  C_24
                            x       y       z     vdW  Elec       q    Type
                         _______ _______ _______ _____ _____    ______ ____

>  <TORSDO>
F 6

$$$$
=
 OpenBabel10262419263D

 31 34  0  0  1  0  0  0  0  0999 V2000
  185.1260  178.2990  143.7150 C   0  0  0  0  0  0  0  0  0  0  0  0
  188.9070  177.4680  143.1780 C   0  0  0  0  0  0  0  0  0  0  0  0
  189.5450  177.4780  144.4440 C   0  0  0  0  0  0  0  0  0  0  0  0
  188.6540  177.3700  146.7500 C   0  0  0  0  0  3  0  0  0  0  0  0
  187.5200  177.9950  142.9670 C   0  0  0  0  0  0  0  0  0  0  0  0
  184.8340  178.7490  142.3550 C   0  0  0  0  0  3  0  0  0  0  0  0
  188.9580  178.2520  145.5860 C   0  0  0  0  0  2  0  0  0  0  0  0
  188.9940  176.9590  140.7040 C   0  0  2  0  0  3  0  0  0  0  0  0
  184.2190  178.3050  144.5860 O   0  0  0  0  0  0  0  0  0  0  0  0
  191.4540  176.3640  143.4660 C   0  0  0  0  0  3  0  0  0  0  0  0
  189.5980  176.7290  147.4340 C   0  0  0  0  0  3  0  0  0  0  0  0
  188.3390  178.6280  140.4190 S   0  0  0  0  0  0  0  0  0  0  0  0
  189.6140  176.9330  142.0760 C   0  0  0  0  0  0  0  0  0  0  0  0
  186.4940  177.8010  144.0640 C   0  0  0  0  0  2  0  0  0  0  0  0
  191.0330  176.7310  147.0960 C   0  0  0  0  0  3  0  0  0  0  0  0
  187.1410  178.4510  141.7480 C   0  0  0  0  0  0  0  0  0  0  0  0
  185.7780  178.8020  141.4680 N   0  0  0  0  0  0  0  0  0  0  0  0
  190.8510  176.3980  142.2530 N   0  0  0  0  0  0  0  0  0  0  0  0
  190.8200  176.8910  144.5890 C   0  0  0  0  0  0  0  0  0  0  0  0
  191.5570  176.8080  145.8670 C   0  0  0  0  0  3  0  0  0  0  0  0
  189.9730  176.6460  139.6730 N   0  0  0  0  0  2  0  0  0  0  0  0
  190.1220  177.9010  137.7230 O   0  0  0  0  0  1  0  0  0  0  0  0
  189.3560  176.9410  138.3880 C   0  0  1  0  0  3  0  0  0  0  0  0
  188.9420  176.0050  136.0950 C   0  0  0  0  0  1  0  0  0  0  0  0
  189.2480  175.6630  137.5440 C   0  0  1  0  0  3  0  0  0  0  0  0
  190.2080  173.4500  137.3560 O   0  0  0  0  0  1  0  0  0  0  0  0
  190.5110  174.7940  137.5900 C   0  0  1  0  0  3  0  0  0  0  0  0
  191.5700  175.2680  136.6040 C   0  0  0  0  0  2  0  0  0  0  0  0
  192.8980  175.1090  137.1740 N   0  0  0  0  0  0  0  0  0  0  0  0
  193.8350  175.0770  136.0650 C   0  0  0  0  0  1  0  0  0  0  0  0
  193.1790  176.3240  137.9170 C   0  0  0  0  0  1  0  0  0  0  0  0
  1 14  1  0  0  0  0
  1  9  2  0  0  0  0
  2  3  1  0  0  0  0
  3 19  2  0  0  0  0
  3  7  1  0  0  0  0
  4 11  2  0  0  0  0
  5  2  1  0  0  0  0
  5 14  1  0  0  0  0
  6  1  1  0  0  0  0
  7  4  1  0  0  0  0
  8 21  1  6  0  0  0
  8 13  1  0  0  0  0
 10 19  1  0  0  0  0
 12  8  1  0  0  0  0
 12 16  1  0  0  0  0
 13 18  1  0  0  0  0
 13  2  2  0  0  0  0
 15 11  1  0  0  0  0
 16  5  2  0  0  0  0
 17 16  1  0  0  0  0
 17  6  2  0  0  0  0
 18 10  2  0  0  0  0
 19 20  1  0  0  0  0
 20 15  2  0  0  0  0
 23 22  1  6  0  0  0
 23 21  1  0  0  0  0
 25 24  1  6  0  0  0
 25 27  1  0  0  0  0
 25 23  1  0  0  0  0
 27 26  1  6  0  0  0
 28 29  1  0  0  0  0
 28 27  1  0  0  0  0
 29 31  1  0  0  0  0
 30 29  1  0  0  0  0
M  END
>  <MODEL>
5

>  <REMARK>
 VINA RESULT:      -8.3      2.049      4.246
  Name = 
  6 active torsions:
  status: ('A' for Active; 'I' for Inactive)
    1  A    between atoms: N_1  and  C_24
    2  A    between atoms: C_9  and  C_22
    3  A    between atoms: C_9  and  N_23
    4  A    between atoms: C_15  and  N_23
    5  A    between atoms: C_19  and  C_22
    6  A    between atoms: C_19  and  C_24
                            x       y       z     vdW  Elec       q    Type
                         _______ _______ _______ _____ _____    ______ ____

>  <TORSDO>
F 6

$$$$
=
 OpenBabel10262419263D

 31 34  0  0  1  0  0  0  0  0999 V2000
  185.6270  179.0010  140.9560 C   0  0  0  0  0  0  0  0  0  0  0  0
  189.0500  177.3820  139.9880 C   0  0  0  0  0  0  0  0  0  0  0  0
  189.0360  177.1210  138.5940 C   0  0  0  0  0  0  0  0  0  0  0  0
  187.5950  177.9580  136.7650 C   0  0  0  0  0  3  0  0  0  0  0  0
  187.8170  177.7580  140.7530 C   0  0  0  0  0  0  0  0  0  0  0  0
  185.6610  178.6810  142.3820 C   0  0  0  0  0  3  0  0  0  0  0  0
  187.7370  176.9590  137.8640 C   0  0  0  0  0  2  0  0  0  0  0  0
  190.3280  177.4980  142.1660 C   0  0  2  0  0  3  0  0  0  0  0  0
  184.6420  179.6170  140.4740 O   0  0  0  0  0  0  0  0  0  0  0  0
  191.4290  176.7910  138.6550 C   0  0  0  0  0  3  0  0  0  0  0  0
  188.3960  177.9800  135.7040 C   0  0  0  0  0  3  0  0  0  0  0  0
  188.9920  176.5210  142.9090 S   0  0  0  0  0  0  0  0  0  0  0  0
  190.2830  177.2870  140.6750 C   0  0  0  0  0  0  0  0  0  0  0  0
  186.7780  178.6270  140.0750 C   0  0  0  0  0  2  0  0  0  0  0  0
  189.5620  177.0980  135.5080 C   0  0  0  0  0  3  0  0  0  0  0  0
  187.7320  177.4980  142.0800 C   0  0  0  0  0  0  0  0  0  0  0  0
  186.6440  177.9940  142.8740 N   0  0  0  0  0  0  0  0  0  0  0  0
  191.4240  177.0020  139.9940 N   0  0  0  0  0  0  0  0  0  0  0  0
  190.2470  176.8520  137.9210 C   0  0  0  0  0  0  0  0  0  0  0  0
  190.3550  176.6080  136.4680 C   0  0  0  0  0  3  0  0  0  0  0  0
  191.6030  177.0700  142.7240 N   0  0  0  0  0  2  0  0  0  0  0  0
  192.0410  175.1660  143.9810 O   0  0  0  0  0  1  0  0  0  0  0  0
  191.3150  176.3590  143.9600 C   0  0  1  0  0  3  0  0  0  0  0  0
  191.5030  178.7030  144.8420 C   0  0  0  0  0  1  0  0  0  0  0  0
  191.6810  177.2290  145.1710 C   0  0  1  0  0  3  0  0  0  0  0  0
  191.6740  176.8680  147.5640 O   0  0  0  0  0  1  0  0  0  0  0  0
  190.8620  176.9030  146.4270 C   0  0  1  0  0  3  0  0  0  0  0  0
  189.7160  177.8820  146.6350 C   0  0  0  0  0  2  0  0  0  0  0  0
  188.5580  177.1960  147.1860 N   0  0  0  0  0  0  0  0  0  0  0  0
  188.2730  177.8100  148.4710 C   0  0  0  0  0  1  0  0  0  0  0  0
  187.4380  177.5110  146.3190 C   0  0  0  0  0  1  0  0  0  0  0  0
  1  6  1  0  0  0  0
  2 13  1  0  0  0  0
  2  5  1  0  0  0  0
  3  2  2  0  0  0  0
  4  7  1  0  0  0  0
  5 16  2  0  0  0  0
  6 17  2  0  0  0  0
  7  3  1  0  0  0  0
  8 21  1  1  0  0  0
  8 12  1  0  0  0  0
  9  1  2  0  0  0  0
 10 18  1  0  0  0  0
 11  4  2  0  0  0  0
 13  8  1  0  0  0  0
 14  5  1  0  0  0  0
 14  1  1  0  0  0  0
 15 11  1  0  0  0  0
 15 20  2  0  0  0  0
 16 17  1  0  0  0  0
 16 12  1  0  0  0  0
 18 13  2  0  0  0  0
 19  3  1  0  0  0  0
 19 10  2  0  0  0  0
 20 19  1  0  0  0  0
 21 23  1  0  0  0  0
 23 22  1  6  0  0  0
 23 25  1  0  0  0  0
 25 24  1  6  0  0  0
 25 27  1  0  0  0  0
 27 28  1  0  0  0  0
 27 26  1  1  0  0  0
 28 29  1  0  0  0  0
 29 30  1  0  0  0  0
 31 29  1  0  0  0  0
M  END
>  <MODEL>
6

>  <REMARK>
 VINA RESULT:      -7.8      2.354      7.868
  Name = 
  6 active torsions:
  status: ('A' for Active; 'I' for Inactive)
    1  A    between atoms: N_1  and  C_24
    2  A    between atoms: C_9  and  C_22
    3  A    between atoms: C_9  and  N_23
    4  A    between atoms: C_15  and  N_23
    5  A    between atoms: C_19  and  C_22
    6  A    between atoms: C_19  and  C_24
                            x       y       z     vdW  Elec       q    Type
                         _______ _______ _______ _____ _____    ______ ____

>  <TORSDO>
F 6

$$$$
=
 OpenBabel10262419263D

 31 34  0  0  1  0  0  0  0  0999 V2000
  184.1200  178.7680  145.2820 C   0  0  0  0  0  0  0  0  0  0  0  0
  185.7880  178.3210  141.7760 C   0  0  0  0  0  0  0  0  0  0  0  0
  184.7610  178.2910  140.7990 C   0  0  0  0  0  0  0  0  0  0  0  0
  182.3860  178.9810  140.8700 C   0  0  0  0  0  3  0  0  0  0  0  0
  185.5110  178.2200  143.2460 C   0  0  0  0  0  0  0  0  0  0  0  0
  185.2240  178.2470  146.0870 C   0  0  0  0  0  3  0  0  0  0  0  0
  183.3640  177.8980  141.1760 C   0  0  0  0  0  2  0  0  0  0  0  0
  188.2500  178.4350  142.3400 C   0  0  2  0  0  3  0  0  0  0  0  0
  183.0650  179.1590  145.8430 O   0  0  0  0  0  0  0  0  0  0  0  0
  186.4220  178.6230  139.0750 C   0  0  0  0  0  3  0  0  0  0  0  0
  182.1290  179.3900  139.6300 C   0  0  0  0  0  3  0  0  0  0  0  0
  187.9790  177.0250  143.4490 S   0  0  0  0  0  0  0  0  0  0  0  0
  187.1260  178.4590  141.3370 C   0  0  0  0  0  0  0  0  0  0  0  0
  184.2570  178.8670  143.7950 C   0  0  0  0  0  2  0  0  0  0  0  0
  182.8190  178.9030  138.4220 C   0  0  0  0  0  3  0  0  0  0  0  0
  186.4580  177.7390  144.0870 C   0  0  0  0  0  0  0  0  0  0  0  0
  186.2910  177.7860  145.5120 N   0  0  0  0  0  0  0  0  0  0  0  0
  187.3990  178.6090  140.0140 N   0  0  0  0  0  0  0  0  0  0  0  0
  185.0850  178.4740  139.4380 C   0  0  0  0  0  0  0  0  0  0  0  0
  184.0930  178.5020  138.3430 C   0  0  0  0  0  3  0  0  0  0  0  0
  189.5420  178.2890  141.6850 N   0  0  0  0  0  2  0  0  0  0  0  0
  190.4350  176.2920  140.9040 O   0  0  0  0  0  1  0  0  0  0  0  0
  190.0700  176.9850  142.0600 C   0  0  1  0  0  3  0  0  0  0  0  0
  191.3760  178.5820  143.4920 C   0  0  0  0  0  1  0  0  0  0  0  0
  191.2800  177.1500  142.9910 C   0  0  1  0  0  3  0  0  0  0  0  0
  192.0550  175.0820  143.9780 O   0  0  0  0  0  1  0  0  0  0  0  0
  191.2530  176.2050  144.1980 C   0  0  1  0  0  3  0  0  0  0  0  0
  191.6760  176.9030  145.4830 C   0  0  0  0  0  2  0  0  0  0  0  0
  191.0650  176.2570  146.6340 N   0  0  0  0  0  0  0  0  0  0  0  0
  192.0570  176.2540  147.6950 C   0  0  0  0  0  1  0  0  0  0  0  0
  189.9900  177.1260  147.0750 C   0  0  0  0  0  1  0  0  0  0  0  0
  1  9  2  0  0  0  0
  1  6  1  0  0  0  0
  2  5  1  0  0  0  0
  3  7  1  0  0  0  0
  3  2  2  0  0  0  0
  4  7  1  0  0  0  0
  5 14  1  0  0  0  0
  5 16  2  0  0  0  0
  8 21  1  6  0  0  0
  8 12  1  0  0  0  0
 10 19  2  0  0  0  0
 10 18  1  0  0  0  0
 11  4  2  0  0  0  0
 12 16  1  0  0  0  0
 13  2  1  0  0  0  0
 13  8  1  0  0  0  0
 14  1  1  0  0  0  0
 15 11  1  0  0  0  0
 16 17  1  0  0  0  0
 17  6  2  0  0  0  0
 18 13  2  0  0  0  0
 19  3  1  0  0  0  0
 20 15  2  0  0  0  0
 20 19  1  0  0  0  0
 21 23  1  0  0  0  0
 23 22  1  6  0  0  0
 23 25  1  0  0  0  0
 25 24  1  1  0  0  0
 25 27  1  0  0  0  0
 27 26  1  6  0  0  0
 27 28  1  0  0  0  0
 28 29  1  0  0  0  0
 29 31  1  0  0  0  0
 29 30  1  0  0  0  0
M  END
>  <MODEL>
7

>  <REMARK>
 VINA RESULT:      -7.8      2.933      6.157
  Name = 
  6 active torsions:
  status: ('A' for Active; 'I' for Inactive)
    1  A    between atoms: N_1  and  C_24
    2  A    between atoms: C_9  and  C_22
    3  A    between atoms: C_9  and  N_23
    4  A    between atoms: C_15  and  N_23
    5  A    between atoms: C_19  and  C_22
    6  A    between atoms: C_19  and  C_24
                            x       y       z     vdW  Elec       q    Type
                         _______ _______ _______ _____ _____    ______ ____

>  <TORSDO>
F 6

$$$$
=
 OpenBabel10262419263D

 31 34  0  0  1  0  0  0  0  0999 V2000
  185.7720  178.4670  146.2380 C   0  0  0  0  0  0  0  0  0  0  0  0
  185.1740  178.5680  142.3780 C   0  0  0  0  0  0  0  0  0  0  0  0
  183.7750  178.5640  142.1480 C   0  0  0  0  0  0  0  0  0  0  0  0
  181.8510  179.0420  143.6290 C   0  0  0  0  0  3  0  0  0  0  0  0
  185.7740  178.2750  143.7200 C   0  0  0  0  0  0  0  0  0  0  0  0
  187.1400  177.9510  146.2060 C   0  0  0  0  0  3  0  0  0  0  0  0
  182.8360  178.0160  143.1790 C   0  0  0  0  0  2  0  0  0  0  0  0
  187.5240  178.8200  141.4820 C   0  0  2  0  0  3  0  0  0  0  0  0
  185.2160  178.7020  147.3420 O   0  0  0  0  0  0  0  0  0  0  0  0
  184.1730  179.2300  139.8580 C   0  0  0  0  0  3  0  0  0  0  0  0
  180.9380  179.5680  142.8160 C   0  0  0  0  0  3  0  0  0  0  0  0
  187.9320  177.2740  142.3390 S   0  0  0  0  0  0  0  0  0  0  0  0
  186.0310  178.8650  141.2920 C   0  0  0  0  0  0  0  0  0  0  0  0
  185.0460  178.7480  144.9600 C   0  0  0  0  0  2  0  0  0  0  0  0
  180.8280  179.2830  141.3740 C   0  0  0  0  0  3  0  0  0  0  0  0
  187.0330  177.7810  143.8110 C   0  0  0  0  0  0  0  0  0  0  0  0
  187.6980  177.6500  145.0760 N   0  0  0  0  0  0  0  0  0  0  0  0
  185.5090  179.1890  140.0790 N   0  0  0  0  0  0  0  0  0  0  0  0
  183.2740  178.9300  140.8800 C   0  0  0  0  0  0  0  0  0  0  0  0
  181.8370  179.0010  140.5420 C   0  0  0  0  0  3  0  0  0  0  0  0
  188.2230  178.8590  140.2040 N   0  0  0  0  0  2  0  0  0  0  0  0
  187.9610  176.8920  138.9960 O   0  0  0  0  0  1  0  0  0  0  0  0
  188.7480  177.5230  139.9600 C   0  0  1  0  0  3  0  0  0  0  0  0
  191.1470  177.1280  140.5880 C   0  0  0  0  0  1  0  0  0  0  0  0
  190.2080  177.6040  139.4920 C   0  0  1  0  0  3  0  0  0  0  0  0
  190.1810  177.5360  137.0740 O   0  0  0  0  0  1  0  0  0  0  0  0
  190.4860  176.7950  138.2190 C   0  0  1  0  0  3  0  0  0  0  0  0
  191.9250  176.3040  138.1540 C   0  0  0  0  0  2  0  0  0  0  0  0
  192.1110  175.4330  137.0040 N   0  0  0  0  0  0  0  0  0  0  0  0
  193.4810  174.9540  137.0510 C   0  0  0  0  0  1  0  0  0  0  0  0
  191.2600  174.2770  137.2190 C   0  0  0  0  0  1  0  0  0  0  0  0
  1  9  2  0  0  0  0
  2  5  1  0  0  0  0
  3  2  1  0  0  0  0
  3  7  1  0  0  0  0
  5 16  2  0  0  0  0
  5 14  1  0  0  0  0
  6  1  1  0  0  0  0
  7  4  1  0  0  0  0
  8 21  1  6  0  0  0
  8 12  1  0  0  0  0
 10 18  2  0  0  0  0
 10 19  1  0  0  0  0
 11  4  2  0  0  0  0
 12 16  1  0  0  0  0
 13  8  1  0  0  0  0
 13  2  2  0  0  0  0
 14  1  1  0  0  0  0
 15 11  1  0  0  0  0
 16 17  1  0  0  0  0
 17  6  2  0  0  0  0
 18 13  1  0  0  0  0
 19  3  2  0  0  0  0
 20 19  1  0  0  0  0
 20 15  2  0  0  0  0
 23 22  1  6  0  0  0
 23 21  1  0  0  0  0
 25 23  1  0  0  0  0
 25 24  1  1  0  0  0
 27 26  1  6  0  0  0
 27 25  1  0  0  0  0
 28 27  1  0  0  0  0
 29 30  1  0  0  0  0
 29 31  1  0  0  0  0
 29 28  1  0  0  0  0
M  END
>  <MODEL>
8

>  <REMARK>
 VINA RESULT:      -7.6      2.306      3.537
  Name = 
  6 active torsions:
  status: ('A' for Active; 'I' for Inactive)
    1  A    between atoms: N_1  and  C_24
    2  A    between atoms: C_9  and  C_22
    3  A    between atoms: C_9  and  N_23
    4  A    between atoms: C_15  and  N_23
    5  A    between atoms: C_19  and  C_22
    6  A    between atoms: C_19  and  C_24
                            x       y       z     vdW  Elec       q    Type
                         _______ _______ _______ _____ _____    ______ ____

>  <TORSDO>
F 6

$$$$
=
 OpenBabel10262419263D

 31 34  0  0  1  0  0  0  0  0999 V2000
  191.0870  177.5930  143.7840 C   0  0  0  0  0  0  0  0  0  0  0  0
  187.6040  178.1050  142.0890 C   0  0  0  0  0  0  0  0  0  0  0  0
  186.6100  178.0590  143.1000 C   0  0  0  0  0  0  0  0  0  0  0  0
  186.7400  178.2690  145.5620 C   0  0  0  0  0  3  0  0  0  0  0  0
  189.0230  177.6900  142.3310 C   0  0  0  0  0  0  0  0  0  0  0  0
  191.8150  177.1520  142.5950 C   0  0  0  0  0  3  0  0  0  0  0  0
  186.8740  177.3510  144.3950 C   0  0  0  0  0  2  0  0  0  0  0  0
  188.2430  178.5730  139.6890 C   0  0  2  0  0  3  0  0  0  0  0  0
  191.6820  177.6730  144.8900 O   0  0  0  0  0  0  0  0  0  0  0  0
  185.0170  179.0000  141.5450 C   0  0  0  0  0  3  0  0  0  0  0  0
  185.5870  178.8390  145.9010 C   0  0  0  0  0  3  0  0  0  0  0  0
  189.0750  176.9600  139.6800 S   0  0  0  0  0  0  0  0  0  0  0  0
  187.2310  178.5660  140.8050 C   0  0  0  0  0  0  0  0  0  0  0  0
  189.6460  177.9820  143.6800 C   0  0  0  0  0  2  0  0  0  0  0  0
  184.3290  178.7160  145.1420 C   0  0  0  0  0  3  0  0  0  0  0  0
  189.7900  177.2510  141.3040 C   0  0  0  0  0  0  0  0  0  0  0  0
  191.1960  177.0090  141.4660 N   0  0  0  0  0  0  0  0  0  0  0  0
  185.9640  179.0000  140.5760 N   0  0  0  0  0  0  0  0  0  0  0  0
  185.3120  178.5420  142.8270 C   0  0  0  0  0  0  0  0  0  0  0  0
  184.2140  178.5800  143.8160 C   0  0  0  0  0  3  0  0  0  0  0  0
  187.6060  178.7910  138.3970 N   0  0  0  0  0  2  0  0  0  0  0  0
  185.7800  177.3570  138.3480 O   0  0  0  0  0  1  0  0  0  0  0  0
  187.1070  177.5030  137.9400 C   0  0  1  0  0  3  0  0  0  0  0  0
  188.5420  176.7890  136.0070 C   0  0  0  0  0  1  0  0  0  0  0  0
  187.2120  177.4040  136.4120 C   0  0  1  0  0  3  0  0  0  0  0  0
  185.1990  177.4190  135.0690 O   0  0  0  0  0  1  0  0  0  0  0  0
  186.0780  176.5920  135.7730 C   0  0  1  0  0  3  0  0  0  0  0  0
  186.6040  175.4930  134.8610 C   0  0  0  0  0  2  0  0  0  0  0  0
  186.1430  174.1910  135.3190 N   0  0  0  0  0  0  0  0  0  0  0  0
  185.7720  174.3400  136.7160 C   0  0  0  0  0  1  0  0  0  0  0  0
  184.9190  173.9060  134.5940 C   0  0  0  0  0  1  0  0  0  0  0  0
  1  9  2  0  0  0  0
  2  5  1  0  0  0  0
  2  3  1  0  0  0  0
  3  7  1  0  0  0  0
  4 11  2  0  0  0  0
  5 14  1  0  0  0  0
  6  1  1  0  0  0  0
  7  4  1  0  0  0  0
  8 21  1  6  0  0  0
  8 13  1  0  0  0  0
 10 19  1  0  0  0  0
 12  8  1  0  0  0  0
 12 16  1  0  0  0  0
 13  2  2  0  0  0  0
 14  1  1  0  0  0  0
 15 11  1  0  0  0  0
 16 17  1  0  0  0  0
 16  5  2  0  0  0  0
 17  6  2  0  0  0  0
 18 13  1  0  0  0  0
 18 10  2  0  0  0  0
 19  3  2  0  0  0  0
 19 20  1  0  0  0  0
 20 15  2  0  0  0  0
 23 22  1  6  0  0  0
 23 21  1  0  0  0  0
 25 24  1  1  0  0  0
 25 23  1  0  0  0  0
 27 26  1  6  0  0  0
 27 25  1  0  0  0  0
 28 29  1  0  0  0  0
 28 27  1  0  0  0  0
 29 30  1  0  0  0  0
 31 29  1  0  0  0  0
M  END
>  <MODEL>
9

>  <REMARK>
 VINA RESULT:      -7.4      1.944      2.612
  Name = 
  6 active torsions:
  status: ('A' for Active; 'I' for Inactive)
    1  A    between atoms: N_1  and  C_24
    2  A    between atoms: C_9  and  C_22
    3  A    between atoms: C_9  and  N_23
    4  A    between atoms: C_15  and  N_23
    5  A    between atoms: C_19  and  C_22
    6  A    between atoms: C_19  and  C_24
                            x       y       z     vdW  Elec       q    Type
                         _______ _______ _______ _____ _____    ______ ____

>  <TORSDO>
F 6

$$$$
