=
 OpenBabel10262421433D

 30 34  0  0  1  0  0  0  0  0999 V2000
  191.1380  176.2960  137.1910 C   0  0  1  0  0  3  0  0  0  0  0  0
  193.5910  176.0510  136.8940 C   0  0  0  0  0  0  0  0  0  0  0  0
  190.1520  173.1510  135.6190 C   0  0  0  0  0  2  0  0  0  0  0  0
  189.8610  176.8450  136.4840 C   0  0  2  0  0  3  0  0  0  0  0  0
  190.9080  175.7350  138.5270 N   0  0  0  0  0  2  0  0  0  0  0  0
  188.3030  177.8090  139.9470 C   0  0  0  0  0  2  0  0  0  0  0  0
  187.4850  178.2380  135.3990 C   0  0  0  0  0  2  0  0  0  0  0  0
  188.9100  177.0410  138.8000 C   0  0  2  0  0  3  0  0  0  0  0  0
  190.0610  176.4700  140.7470 C   0  0  0  0  0  2  0  0  0  0  0  0
  187.2360  174.4770  135.8700 C   0  0  0  0  0  2  0  0  0  0  0  0
  189.4710  173.7550  136.8450 C   0  0  2  0  0  3  0  0  0  0  0  0
  190.2950  176.8060  139.2970 C   0  0  1  0  0  3  0  0  0  0  0  0
  188.9700  177.7220  137.4290 C   0  0  2  0  0  3  0  0  0  0  0  0
  194.7360  175.4390  136.3840 C   0  0  0  0  0  3  0  0  0  0  0  0
  186.2800  175.4990  135.9170 O   0  0  0  0  0  0  0  0  0  0  0  0
  186.2160  177.6330  134.8100 C   0  0  0  0  0  2  0  0  0  0  0  0
  189.3600  178.3510  141.9700 C   0  0  0  0  0  1  0  0  0  0  0  0
  193.7400  177.0510  137.8500 O   0  0  0  0  0  1  0  0  0  0  0  0
  190.9370  174.1900  134.8250 C   0  0  0  0  0  2  0  0  0  0  0  0
  194.6290  174.4270  135.4360 C   0  0  0  0  0  3  0  0  0  0  0  0
  188.8840  177.2390  141.1660 N   0  0  0  0  0  0  0  0  0  0  0  0
  192.3060  175.6600  136.4600 C   0  0  0  0  0  0  0  0  0  0  0  0
  189.1480  175.8930  135.7210 O   0  0  0  0  0  0  0  0  0  0  0  0
  188.8130  172.7620  137.5710 O   0  0  0  0  0  1  0  0  0  0  0  0
  188.5260  174.9340  136.5450 C   0  0  1  0  0  3  0  0  0  0  0  0
  186.3280  176.1170  134.6620 C   0  0  0  0  0  2  0  0  0  0  0  0
  186.9550  179.0360  137.5790 O   0  0  0  0  0  1  0  0  0  0  0  0
  193.3740  174.0310  134.9840 C   0  0  0  0  0  3  0  0  0  0  0  0
  192.2080  174.6270  135.4790 C   0  0  0  0  0  0  0  0  0  0  0  0
  187.5470  177.9710  136.8980 C   0  0  1  0  0  3  0  0  0  0  0  0
  1 22  1  6  0  0  0
  1  5  1  0  0  0  0
  2 18  1  0  0  0  0
  3 11  1  0  0  0  0
  4 23  1  1  0  0  0
  4  1  1  0  0  0  0
  4 13  1  0  0  0  0
  5 12  1  0  0  0  0
  6 21  1  0  0  0  0
  7 30  1  0  0  0  0
  8 12  1  0  0  0  0
  8  6  1  1  0  0  0
  9 21  1  0  0  0  0
 10 15  1  0  0  0  0
 10 25  1  0  0  0  0
 11 24  1  6  0  0  0
 12  9  1  1  0  0  0
 13  8  1  0  0  0  0
 14  2  2  0  0  0  0
 16  7  1  0  0  0  0
 19 29  1  0  0  0  0
 19  3  1  0  0  0  0
 20 14  1  0  0  0  0
 21 17  1  0  0  0  0
 22  2  1  0  0  0  0
 23 25  1  0  0  0  0
 25 11  1  0  0  0  0
 26 16  1  0  0  0  0
 26 15  1  0  0  0  0
 28 20  2  0  0  0  0
 28 29  1  0  0  0  0
 29 22  2  0  0  0  0
 30 13  1  0  0  0  0
 30 27  1  0  0  0  0
M  END
>  <MODEL>
1

>  <REMARK>
 VINA RESULT:      -6.9      0.000      0.000
  Name = 
  0 active torsions:
  status: ('A' for Active; 'I' for Inactive)
                            x       y       z     vdW  Elec       q    Type
                         _______ _______ _______ _____ _____    ______ ____

>  <TORSDO>
F 0

$$$$
=
 OpenBabel10262421433D

 30 34  0  0  1  0  0  0  0  0999 V2000
  183.7450  177.6930  140.4340 C   0  0  1  0  0  3  0  0  0  0  0  0
  184.5850  178.2290  142.7080 C   0  0  0  0  0  0  0  0  0  0  0  0
  180.7980  179.8510  140.4950 C   0  0  0  0  0  2  0  0  0  0  0  0
  182.7960  176.7190  139.6690 C   0  0  2  0  0  3  0  0  0  0  0  0
  184.4620  178.6480  139.5810 N   0  0  0  0  0  2  0  0  0  0  0  0
  185.1520  176.8090  136.5410 C   0  0  0  0  0  2  0  0  0  0  0  0
  181.3600  174.6480  138.1170 C   0  0  0  0  0  2  0  0  0  0  0  0
  184.2380  177.2070  137.6720 C   0  0  2  0  0  3  0  0  0  0  0  0
  186.0900  178.6240  137.7020 C   0  0  0  0  0  2  0  0  0  0  0  0
  180.1270  178.2270  137.8050 C   0  0  0  0  0  2  0  0  0  0  0  0
  181.6740  179.6190  139.2670 C   0  0  2  0  0  3  0  0  0  0  0  0
  185.1960  177.8360  138.6230 C   0  0  1  0  0  3  0  0  0  0  0  0
  183.4590  176.1010  138.3910 C   0  0  2  0  0  3  0  0  0  0  0  0
  184.4890  178.8030  143.9760 C   0  0  0  0  0  3  0  0  0  0  0  0
  180.1110  177.1430  136.9190 O   0  0  0  0  0  0  0  0  0  0  0  0
  180.0530  174.7770  137.3430 C   0  0  0  0  0  2  0  0  0  0  0  0
  187.4590  177.2160  136.4090 C   0  0  0  0  0  1  0  0  0  0  0  0
  185.8010  177.6790  142.3160 O   0  0  0  0  0  1  0  0  0  0  0  0
  180.9590  178.7460  141.5350 C   0  0  0  0  0  2  0  0  0  0  0  0
  183.2940  179.3750  144.4010 C   0  0  0  0  0  3  0  0  0  0  0  0
  186.1620  177.8680  136.4460 N   0  0  0  0  0  0  0  0  0  0  0  0
  183.4760  178.2140  141.8340 C   0  0  0  0  0  0  0  0  0  0  0  0
  181.4810  177.1990  139.4760 O   0  0  0  0  0  0  0  0  0  0  0  0
  181.5380  180.6790  138.3700 O   0  0  0  0  0  1  0  0  0  0  0  0
  181.4530  178.2680  138.5590 C   0  0  1  0  0  3  0  0  0  0  0  0
  179.3920  176.1340  137.5710 C   0  0  0  0  0  2  0  0  0  0  0  0
  183.1340  174.6060  136.5290 O   0  0  0  0  0  1  0  0  0  0  0  0
  182.1850  179.3630  143.5610 C   0  0  0  0  0  3  0  0  0  0  0  0
  182.2520  178.7950  142.2840 C   0  0  0  0  0  0  0  0  0  0  0  0
  182.4610  175.4400  137.4230 C   0  0  1  0  0  3  0  0  0  0  0  0
  1  5  1  6  0  0  0
  1 22  1  0  0  0  0
  2 14  1  0  0  0  0
  3 19  1  0  0  0  0
  4 23  1  6  0  0  0
  4  1  1  0  0  0  0
  8  6  1  6  0  0  0
  8 13  1  0  0  0  0
  8 12  1  0  0  0  0
 10 25  1  0  0  0  0
 11 24  1  6  0  0  0
 11  3  1  0  0  0  0
 12  9  1  6  0  0  0
 12  5  1  0  0  0  0
 13  4  1  0  0  0  0
 14 20  2  0  0  0  0
 15 26  1  0  0  0  0
 15 10  1  0  0  0  0
 16 26  1  0  0  0  0
 16  7  1  0  0  0  0
 17 21  1  0  0  0  0
 18  2  1  0  0  0  0
 19 29  1  0  0  0  0
 21  6  1  0  0  0  0
 21  9  1  0  0  0  0
 22 29  1  0  0  0  0
 22  2  2  0  0  0  0
 25 11  1  0  0  0  0
 25 23  1  0  0  0  0
 27 30  1  0  0  0  0
 28 20  1  0  0  0  0
 29 28  2  0  0  0  0
 30  7  1  0  0  0  0
 30 13  1  0  0  0  0
M  END
>  <MODEL>
2

>  <REMARK>
 VINA RESULT:      -6.4      5.579      9.162
  Name = 
  0 active torsions:
  status: ('A' for Active; 'I' for Inactive)
                            x       y       z     vdW  Elec       q    Type
                         _______ _______ _______ _____ _____    ______ ____

>  <TORSDO>
F 0

$$$$
=
 OpenBabel10262421433D

 30 34  0  0  1  0  0  0  0  0999 V2000
  183.4500  179.1350  140.1900 C   0  0  1  0  0  3  0  0  0  0  0  0
  185.6740  179.1510  141.2940 C   0  0  0  0  0  0  0  0  0  0  0  0
  184.2480  176.7400  137.5500 C   0  0  0  0  0  2  0  0  0  0  0  0
  182.6300  179.8350  139.0630 C   0  0  2  0  0  3  0  0  0  0  0  0
  182.7150  178.1090  140.9380 N   0  0  0  0  0  2  0  0  0  0  0  0
  179.3260  179.3690  141.1150 C   0  0  0  0  0  2  0  0  0  0  0  0
  180.8920  181.3970  137.2460 C   0  0  0  0  0  2  0  0  0  0  0  0
  180.6080  179.1120  140.3640 C   0  0  2  0  0  3  0  0  0  0  0  0
  180.6910  177.9270  142.3720 C   0  0  0  0  0  2  0  0  0  0  0  0
  181.3950  177.7190  136.4400 C   0  0  0  0  0  2  0  0  0  0  0  0
  182.9060  176.8120  138.2740 C   0  0  2  0  0  3  0  0  0  0  0  0
  181.5450  178.7860  141.4760 C   0  0  1  0  0  3  0  0  0  0  0  0
  181.1920  180.2520  139.5240 C   0  0  2  0  0  3  0  0  0  0  0  0
  187.0290  178.8330  141.3860 C   0  0  0  0  0  3  0  0  0  0  0  0
  180.3300  178.5980  136.2090 O   0  0  0  0  0  0  0  0  0  0  0  0
  180.3080  180.9830  135.9000 C   0  0  0  0  0  2  0  0  0  0  0  0
  179.0110  179.1850  143.4330 C   0  0  0  0  0  1  0  0  0  0  0  0
  185.0500  179.7350  142.3920 O   0  0  0  0  0  1  0  0  0  0  0  0
  185.0370  178.0400  137.6670 C   0  0  0  0  0  2  0  0  0  0  0  0
  187.6860  178.2370  140.3150 C   0  0  0  0  0  3  0  0  0  0  0  0
  179.3170  178.4230  142.2350 N   0  0  0  0  0  0  0  0  0  0  0  0
  184.9440  178.8770  140.1170 C   0  0  0  0  0  0  0  0  0  0  0  0
  182.6800  179.1930  137.8040 O   0  0  0  0  0  0  0  0  0  0  0  0
  182.2440  175.5880  138.1880 O   0  0  0  0  0  1  0  0  0  0  0  0
  181.9890  177.9660  137.8240 C   0  0  1  0  0  3  0  0  0  0  0  0
  180.8600  179.6370  135.4350 C   0  0  0  0  0  2  0  0  0  0  0  0
  179.1330  181.3060  138.8480 O   0  0  0  0  0  1  0  0  0  0  0  0
  186.9900  177.9670  139.1400 C   0  0  0  0  0  3  0  0  0  0  0  0
  185.6300  178.2740  139.0190 C   0  0  0  0  0  0  0  0  0  0  0  0
  180.2370  180.6010  138.3680 C   0  0  1  0  0  3  0  0  0  0  0  0
  1 22  1  6  0  0  0
  1  5  1  0  0  0  0
  2 14  1  0  0  0  0
  2 18  1  0  0  0  0
  3 19  1  0  0  0  0
  3 11  1  0  0  0  0
  4 23  1  6  0  0  0
  4 13  1  0  0  0  0
  4  1  1  0  0  0  0
  5 12  1  0  0  0  0
  6 21  1  0  0  0  0
  7 30  1  0  0  0  0
  8  6  1  1  0  0  0
  8 12  1  0  0  0  0
 10 25  1  0  0  0  0
 11 24  1  6  0  0  0
 12  9  1  1  0  0  0
 13  8  1  0  0  0  0
 15 10  1  0  0  0  0
 16  7  1  0  0  0  0
 19 29  1  0  0  0  0
 20 14  2  0  0  0  0
 21  9  1  0  0  0  0
 21 17  1  0  0  0  0
 22  2  2  0  0  0  0
 23 25  1  0  0  0  0
 25 11  1  0  0  0  0
 26 16  1  0  0  0  0
 26 15  1  0  0  0  0
 28 20  1  0  0  0  0
 29 28  2  0  0  0  0
 29 22  1  0  0  0  0
 30 27  1  0  0  0  0
 30 13  1  0  0  0  0
M  END
>  <MODEL>
3

>  <REMARK>
 VINA RESULT:      -6.0      6.063      8.420
  Name = 
  0 active torsions:
  status: ('A' for Active; 'I' for Inactive)
                            x       y       z     vdW  Elec       q    Type
                         _______ _______ _______ _____ _____    ______ ____

>  <TORSDO>
F 0

$$$$
=
 OpenBabel10262421433D

 30 34  0  0  1  0  0  0  0  0999 V2000
  183.3180  177.5480  139.7840 C   0  0  1  0  0  3  0  0  0  0  0  0
  183.5640  178.2960  142.1380 C   0  0  0  0  0  0  0  0  0  0  0  0
  180.2170  179.3280  139.0410 C   0  0  0  0  0  2  0  0  0  0  0  0
  182.6760  176.4280  138.9090 C   0  0  2  0  0  3  0  0  0  0  0  0
  184.1000  178.5390  139.0370 N   0  0  0  0  0  2  0  0  0  0  0  0
  185.6490  176.6480  136.3670 C   0  0  0  0  0  2  0  0  0  0  0  0
  181.8570  174.1210  137.2440 C   0  0  0  0  0  2  0  0  0  0  0  0
  184.4670  176.9870  137.2400 C   0  0  2  0  0  3  0  0  0  0  0  0
  186.1010  178.6200  137.5620 C   0  0  0  0  0  2  0  0  0  0  0  0
  180.3450  177.5010  136.4000 C   0  0  0  0  0  2  0  0  0  0  0  0
  181.3650  179.1440  138.0520 C   0  0  2  0  0  3  0  0  0  0  0  0
  185.1140  177.7760  138.3260 C   0  0  1  0  0  3  0  0  0  0  0  0
  183.6710  175.8310  137.8560 C   0  0  2  0  0  3  0  0  0  0  0  0
  183.1240  178.9170  143.3080 C   0  0  0  0  0  3  0  0  0  0  0  0
  180.6460  176.3800  135.6170 O   0  0  0  0  0  0  0  0  0  0  0  0
  180.7510  174.0490  136.1980 C   0  0  0  0  0  2  0  0  0  0  0  0
  187.8690  177.3270  136.7080 C   0  0  0  0  0  1  0  0  0  0  0  0
  184.8890  177.8800  142.0630 O   0  0  0  0  0  1  0  0  0  0  0  0
  180.2590  178.3050  140.1710 C   0  0  0  0  0  2  0  0  0  0  0  0
  181.8100  179.3590  143.4190 C   0  0  0  0  0  3  0  0  0  0  0  0
  186.5330  177.8160  136.4140 N   0  0  0  0  0  0  0  0  0  0  0  0
  182.6870  178.1020  141.0480 C   0  0  0  0  0  0  0  0  0  0  0  0
  181.3930  176.7320  138.3990 O   0  0  0  0  0  0  0  0  0  0  0  0
  181.3200  180.1330  137.0690 O   0  0  0  0  0  1  0  0  0  0  0  0
  181.4560  177.7430  137.4190 C   0  0  1  0  0  3  0  0  0  0  0  0
  179.9130  175.3250  136.1730 C   0  0  0  0  0  2  0  0  0  0  0  0
  183.9360  174.2160  136.0860 O   0  0  0  0  0  1  0  0  0  0  0  0
  180.9250  179.1690  142.3620 C   0  0  0  0  0  3  0  0  0  0  0  0
  181.3380  178.5500  141.1760 C   0  0  0  0  0  0  0  0  0  0  0  0
  182.9940  175.0050  136.7470 C   0  0  1  0  0  3  0  0  0  0  0  0
  1  5  1  6  0  0  0
  1 22  1  0  0  0  0
  2 14  1  0  0  0  0
  3 19  1  0  0  0  0
  4 23  1  6  0  0  0
  4  1  1  0  0  0  0
  6 21  1  0  0  0  0
  8  6  1  6  0  0  0
  8 13  1  0  0  0  0
  8 12  1  0  0  0  0
 10 25  1  0  0  0  0
 11 24  1  6  0  0  0
 11  3  1  0  0  0  0
 12  9  1  6  0  0  0
 12  5  1  0  0  0  0
 13  4  1  0  0  0  0
 14 20  2  0  0  0  0
 15 26  1  0  0  0  0
 15 10  1  0  0  0  0
 16  7  1  0  0  0  0
 18  2  1  0  0  0  0
 19 29  1  0  0  0  0
 21 17  1  0  0  0  0
 21  9  1  0  0  0  0
 22 29  1  0  0  0  0
 22  2  2  0  0  0  0
 25 11  1  0  0  0  0
 25 23  1  0  0  0  0
 26 16  1  0  0  0  0
 27 30  1  0  0  0  0
 28 20  1  0  0  0  0
 29 28  2  0  0  0  0
 30  7  1  0  0  0  0
 30 13  1  0  0  0  0
M  END
>  <MODEL>
4

>  <REMARK>
 VINA RESULT:      -5.7      5.495      9.147
  Name = 
  0 active torsions:
  status: ('A' for Active; 'I' for Inactive)
                            x       y       z     vdW  Elec       q    Type
                         _______ _______ _______ _____ _____    ______ ____

>  <TORSDO>
F 0

$$$$
=
 OpenBabel10262421433D

 30 34  0  0  1  0  0  0  0  0999 V2000
  182.2860  175.3830  137.2040 C   0  0  1  0  0  3  0  0  0  0  0  0
  181.5530  173.0430  136.8110 C   0  0  0  0  0  0  0  0  0  0  0  0
  185.8140  174.9200  136.3850 C   0  0  0  0  0  2  0  0  0  0  0  0
  182.8490  176.3270  138.3100 C   0  0  2  0  0  3  0  0  0  0  0  0
  182.0400  176.0290  135.9100 N   0  0  0  0  0  2  0  0  0  0  0  0
  180.9220  179.3650  136.7610 C   0  0  0  0  0  2  0  0  0  0  0  0
  183.5070  178.2600  140.4530 C   0  0  0  0  0  2  0  0  0  0  0  0
  181.8380  178.1840  136.9550 C   0  0  2  0  0  3  0  0  0  0  0  0
  180.6560  177.8680  134.9690 C   0  0  0  0  0  2  0  0  0  0  0  0
  186.0110  177.8780  137.6230 C   0  0  0  0  0  2  0  0  0  0  0  0
  185.0030  176.1650  136.0370 C   0  0  2  0  0  3  0  0  0  0  0  0
  181.1220  177.1230  136.1920 C   0  0  1  0  0  3  0  0  0  0  0  0
  182.0930  177.6970  138.3860 C   0  0  2  0  0  3  0  0  0  0  0  0
  181.7690  171.6880  136.5580 C   0  0  0  0  0  3  0  0  0  0  0  0
  185.6810  178.9580  138.4510 O   0  0  0  0  0  0  0  0  0  0  0  0
  184.8160  179.0030  140.6950 C   0  0  0  0  0  2  0  0  0  0  0  0
  178.9510  179.4020  135.4880 C   0  0  0  0  0  1  0  0  0  0  0  0
  180.2490  173.5270  136.7750 O   0  0  0  0  0  1  0  0  0  0  0  0
  185.1790  174.1140  137.5140 C   0  0  0  0  0  2  0  0  0  0  0  0
  183.0590  171.1670  136.5730 C   0  0  0  0  0  3  0  0  0  0  0  0
  180.3920  179.2460  135.3990 N   0  0  0  0  0  0  0  0  0  0  0  0
  182.6330  173.9100  137.0890 C   0  0  0  0  0  0  0  0  0  0  0  0
  184.2580  176.4310  138.3420 O   0  0  0  0  0  0  0  0  0  0  0  0
  185.5890  176.8400  134.9660 O   0  0  0  0  0  1  0  0  0  0  0  0
  184.7490  177.1220  137.2170 C   0  0  1  0  0  3  0  0  0  0  0  0
  185.9210  178.5180  139.7580 C   0  0  0  0  0  2  0  0  0  0  0  0
  181.9610  179.8160  139.5260 O   0  0  0  0  0  1  0  0  0  0  0  0
  184.1380  172.0000  136.8550 C   0  0  0  0  0  3  0  0  0  0  0  0
  183.9510  173.3630  137.1120 C   0  0  0  0  0  0  0  0  0  0  0  0
  182.8340  178.7810  139.1890 C   0  0  1  0  0  3  0  0  0  0  0  0
  1  5  1  6  0  0  0
  1  4  1  0  0  0  0
  2 22  1  0  0  0  0
  3 19  1  0  0  0  0
  4 23  1  6  0  0  0
  4 13  1  0  0  0  0
  5 12  1  0  0  0  0
  7 16  1  0  0  0  0
  8  6  1  1  0  0  0
  8 13  1  0  0  0  0
  9 21  1  0  0  0  0
 10 15  1  0  0  0  0
 11 24  1  6  0  0  0
 11  3  1  0  0  0  0
 11 25  1  0  0  0  0
 12  9  1  6  0  0  0
 12  8  1  0  0  0  0
 13 30  1  0  0  0  0
 14 20  1  0  0  0  0
 14  2  2  0  0  0  0
 15 26  1  0  0  0  0
 18  2  1  0  0  0  0
 20 28  2  0  0  0  0
 21 17  1  0  0  0  0
 21  6  1  0  0  0  0
 22 29  2  0  0  0  0
 22  1  1  0  0  0  0
 25 10  1  0  0  0  0
 25 23  1  0  0  0  0
 26 16  1  0  0  0  0
 28 29  1  0  0  0  0
 29 19  1  0  0  0  0
 30 27  1  0  0  0  0
 30  7  1  0  0  0  0
M  END
>  <MODEL>
5

>  <REMARK>
 VINA RESULT:      -5.4      5.406      8.532
  Name = 
  0 active torsions:
  status: ('A' for Active; 'I' for Inactive)
                            x       y       z     vdW  Elec       q    Type
                         _______ _______ _______ _____ _____    ______ ____

>  <TORSDO>
F 0

$$$$
=
 OpenBabel10262421433D

 30 34  0  0  1  0  0  0  0  0999 V2000
  183.1280  178.8510  138.7570 C   0  0  1  0  0  3  0  0  0  0  0  0
  185.5590  178.6300  139.2110 C   0  0  0  0  0  0  0  0  0  0  0  0
  182.7990  175.9820  136.5210 C   0  0  0  0  0  2  0  0  0  0  0  0
  182.1140  179.5100  137.7720 C   0  0  2  0  0  3  0  0  0  0  0  0
  182.5150  178.1000  139.8590 N   0  0  0  0  0  2  0  0  0  0  0  0
  179.5210  179.9640  140.6730 C   0  0  0  0  0  2  0  0  0  0  0  0
  180.1430  181.0700  136.2090 C   0  0  0  0  0  2  0  0  0  0  0  0
  180.4830  179.3700  139.6760 C   0  0  2  0  0  3  0  0  0  0  0  0
  180.9910  178.5050  141.7820 C   0  0  0  0  0  2  0  0  0  0  0  0
  179.9020  177.2830  136.0330 C   0  0  0  0  0  2  0  0  0  0  0  0
  181.7490  176.4040  137.5450 C   0  0  2  0  0  3  0  0  0  0  0  0
  181.6520  179.0510  140.5430 C   0  0  1  0  0  3  0  0  0  0  0  0
  180.9410  180.2460  138.5050 C   0  0  2  0  0  3  0  0  0  0  0  0
  186.8280  178.0900  139.0030 C   0  0  0  0  0  3  0  0  0  0  0  0
  178.9410  178.2960  135.9240 O   0  0  0  0  0  0  0  0  0  0  0  0
  179.1440  180.5710  135.1710 C   0  0  0  0  0  2  0  0  0  0  0  0
  179.8740  180.1910  142.9810 C   0  0  0  0  0  1  0  0  0  0  0  0
  185.3650  179.4760  140.2990 O   0  0  0  0  0  1  0  0  0  0  0  0
  183.7530  177.1200  136.1700 C   0  0  0  0  0  2  0  0  0  0  0  0
  187.0600  177.2300  137.9340 C   0  0  0  0  0  3  0  0  0  0  0  0
  179.7140  179.2150  141.9170 N   0  0  0  0  0  0  0  0  0  0  0  0
  184.4880  178.3190  138.3450 C   0  0  0  0  0  0  0  0  0  0  0  0
  181.7110  178.6880  136.6950 O   0  0  0  0  0  0  0  0  0  0  0  0
  180.9350  175.3210  137.8770 O   0  0  0  0  0  1  0  0  0  0  0  0
  180.9000  177.6240  137.1360 C   0  0  1  0  0  3  0  0  0  0  0  0
  179.3530  179.0930  134.8500 C   0  0  0  0  0  2  0  0  0  0  0  0
  178.9310  181.5410  138.2040 O   0  0  0  0  0  1  0  0  0  0  0  0
  186.0230  176.9170  137.0600 C   0  0  0  0  0  3  0  0  0  0  0  0
  184.7390  177.4440  137.2450 C   0  0  0  0  0  0  0  0  0  0  0  0
  179.7460  180.5840  137.5970 C   0  0  1  0  0  3  0  0  0  0  0  0
  1 22  1  6  0  0  0
  1  5  1  0  0  0  0
  2 18  1  0  0  0  0
  3 11  1  0  0  0  0
  4 23  1  6  0  0  0
  4 13  1  0  0  0  0
  4  1  1  0  0  0  0
  5 12  1  0  0  0  0
  6 21  1  0  0  0  0
  7 30  1  0  0  0  0
  8 12  1  0  0  0  0
  8  6  1  1  0  0  0
  9 21  1  0  0  0  0
 10 25  1  0  0  0  0
 11 24  1  6  0  0  0
 12  9  1  1  0  0  0
 13  8  1  0  0  0  0
 14  2  1  0  0  0  0
 15 10  1  0  0  0  0
 16  7  1  0  0  0  0
 19  3  1  0  0  0  0
 19 29  1  0  0  0  0
 20 14  2  0  0  0  0
 21 17  1  0  0  0  0
 22  2  2  0  0  0  0
 23 25  1  0  0  0  0
 25 11  1  0  0  0  0
 26 16  1  0  0  0  0
 26 15  1  0  0  0  0
 28 29  2  0  0  0  0
 28 20  1  0  0  0  0
 29 22  1  0  0  0  0
 30 27  1  0  0  0  0
 30 13  1  0  0  0  0
M  END
>  <MODEL>
6

>  <REMARK>
 VINA RESULT:      -5.3      6.191      8.459
  Name = 
  0 active torsions:
  status: ('A' for Active; 'I' for Inactive)
                            x       y       z     vdW  Elec       q    Type
                         _______ _______ _______ _____ _____    ______ ____

>  <TORSDO>
F 0

$$$$
=
 OpenBabel10262421433D

 30 34  0  0  1  0  0  0  0  0999 V2000
  181.1550  176.4980  140.1720 C   0  0  1  0  0  3  0  0  0  0  0  0
  179.8800  174.4760  139.5000 C   0  0  0  0  0  0  0  0  0  0  0  0
  182.2940  177.4700  136.8410 C   0  0  0  0  0  2  0  0  0  0  0  0
  182.5770  176.9700  140.6020 C   0  0  2  0  0  3  0  0  0  0  0  0
  180.1340  177.5520  140.1630 N   0  0  0  0  0  2  0  0  0  0  0  0
  181.0140  179.6930  142.9450 C   0  0  0  0  0  2  0  0  0  0  0  0
  185.1240  177.8480  141.8290 C   0  0  0  0  0  2  0  0  0  0  0  0
  181.3830  178.8620  141.7430 C   0  0  2  0  0  3  0  0  0  0  0  0
  179.0670  179.1400  141.7510 C   0  0  0  0  0  2  0  0  0  0  0  0
  184.1090  179.4910  138.5590 C   0  0  0  0  0  2  0  0  0  0  0  0
  181.8730  178.4520  137.9310 C   0  0  2  0  0  3  0  0  0  0  0  0
  180.1260  178.0960  141.5120 C   0  0  1  0  0  3  0  0  0  0  0  0
  182.5570  177.8860  141.8730 C   0  0  2  0  0  3  0  0  0  0  0  0
  179.4680  173.4980  138.5940 C   0  0  0  0  0  3  0  0  0  0  0  0
  184.8550  179.9470  139.6510 O   0  0  0  0  0  0  0  0  0  0  0  0
  186.2060  178.7440  141.2360 C   0  0  0  0  0  2  0  0  0  0  0  0
  178.9310  179.7300  144.0230 C   0  0  0  0  0  1  0  0  0  0  0  0
  179.2610  174.5340  140.7450 O   0  0  0  0  0  1  0  0  0  0  0  0
  182.6670  176.1040  137.4080 C   0  0  0  0  0  2  0  0  0  0  0  0
  180.0540  173.4150  137.3350 C   0  0  0  0  0  3  0  0  0  0  0  0
  179.6020  180.0460  142.7750 N   0  0  0  0  0  0  0  0  0  0  0  0
  180.8960  175.3960  139.1610 C   0  0  0  0  0  0  0  0  0  0  0  0
  183.3910  177.4440  139.5490 O   0  0  0  0  0  0  0  0  0  0  0  0
  181.4890  179.6680  137.3640 O   0  0  0  0  0  1  0  0  0  0  0  0
  182.9170  178.6700  139.0440 C   0  0  1  0  0  3  0  0  0  0  0  0
  185.9330  179.0620  139.7670 C   0  0  0  0  0  2  0  0  0  0  0  0
  183.9130  179.1440  143.4190 O   0  0  0  0  0  1  0  0  0  0  0  0
  181.0650  174.3040  136.9820 C   0  0  0  0  0  3  0  0  0  0  0  0
  181.4970  175.2950  137.8700 C   0  0  0  0  0  0  0  0  0  0  0  0
  183.8660  178.6610  142.1110 C   0  0  1  0  0  3  0  0  0  0  0  0
  1 22  1  6  0  0  0
  1  4  1  0  0  0  0
  2 18  1  0  0  0  0
  3 19  1  0  0  0  0
  3 11  1  0  0  0  0
  4 23  1  6  0  0  0
  4 13  1  0  0  0  0
  5  1  1  0  0  0  0
  5 12  1  0  0  0  0
  7 30  1  0  0  0  0
  8 13  1  0  0  0  0
  8  6  1  1  0  0  0
  9 21  1  0  0  0  0
 10 25  1  0  0  0  0
 10 15  1  0  0  0  0
 11 24  1  6  0  0  0
 11 25  1  0  0  0  0
 12  8  1  0  0  0  0
 12  9  1  6  0  0  0
 13 30  1  0  0  0  0
 14  2  2  0  0  0  0
 15 26  1  0  0  0  0
 16  7  1  0  0  0  0
 19 29  1  0  0  0  0
 20 14  1  0  0  0  0
 21  6  1  0  0  0  0
 21 17  1  0  0  0  0
 22  2  1  0  0  0  0
 25 23  1  0  0  0  0
 26 16  1  0  0  0  0
 28 20  2  0  0  0  0
 28 29  1  0  0  0  0
 29 22  2  0  0  0  0
 30 27  1  0  0  0  0
M  END
>  <MODEL>
7

>  <REMARK>
 VINA RESULT:      -5.3      6.973      9.954
  Name = 
  0 active torsions:
  status: ('A' for Active; 'I' for Inactive)
                            x       y       z     vdW  Elec       q    Type
                         _______ _______ _______ _____ _____    ______ ____

>  <TORSDO>
F 0

$$$$
=
 OpenBabel10262421433D

 30 34  0  0  1  0  0  0  0  0999 V2000
  190.3660  176.3030  139.0930 C   0  0  1  0  0  3  0  0  0  0  0  0
  190.3840  177.1660  141.4210 C   0  0  0  0  0  0  0  0  0  0  0  0
  187.8260  178.5660  137.7660 C   0  0  0  0  0  2  0  0  0  0  0  0
  189.6630  175.2590  138.1730 C   0  0  2  0  0  3  0  0  0  0  0  0
  191.4340  177.0730  138.4450 N   0  0  0  0  0  2  0  0  0  0  0  0
  192.9810  174.7340  136.1570 C   0  0  0  0  0  2  0  0  0  0  0  0
  188.6800  173.0250  136.4970 C   0  0  0  0  0  2  0  0  0  0  0  0
  191.7660  175.3500  136.8040 C   0  0  2  0  0  3  0  0  0  0  0  0
  193.6160  176.6720  137.3240 C   0  0  0  0  0  2  0  0  0  0  0  0
  188.0060  176.5550  135.2660 C   0  0  0  0  0  2  0  0  0  0  0  0
  189.0560  178.0990  136.9920 C   0  0  2  0  0  3  0  0  0  0  0  0
  192.3770  176.0850  137.9470 C   0  0  1  0  0  3  0  0  0  0  0  0
  190.6740  174.4110  137.3280 C   0  0  2  0  0  3  0  0  0  0  0  0
  189.8970  177.9430  142.4730 C   0  0  0  0  0  3  0  0  0  0  0  0
  188.2000  175.3420  134.5940 O   0  0  0  0  0  0  0  0  0  0  0  0
  187.7580  173.0810  135.2840 C   0  0  0  0  0  2  0  0  0  0  0  0
  195.2100  175.0140  136.8340 C   0  0  0  0  0  1  0  0  0  0  0  0
  191.5980  176.5070  141.5860 O   0  0  0  0  0  1  0  0  0  0  0  0
  187.4910  177.6400  138.9310 C   0  0  0  0  0  2  0  0  0  0  0  0
  188.6930  178.6280  142.3430 C   0  0  0  0  0  3  0  0  0  0  0  0
  194.0570  175.7180  136.3000 N   0  0  0  0  0  0  0  0  0  0  0  0
  189.6670  177.0560  140.2100 C   0  0  0  0  0  0  0  0  0  0  0  0
  188.5600  175.7560  137.4430 O   0  0  0  0  0  0  0  0  0  0  0  0
  189.3580  179.0030  135.9730 O   0  0  0  0  0  1  0  0  0  0  0  0
  188.9690  176.6620  136.4440 C   0  0  1  0  0  3  0  0  0  0  0  0
  187.1980  174.4860  135.0640 C   0  0  0  0  0  2  0  0  0  0  0  0
  190.8910  172.6480  135.7000 O   0  0  0  0  0  1  0  0  0  0  0  0
  187.9640  178.5260  141.1620 C   0  0  0  0  0  3  0  0  0  0  0  0
  188.4270  177.7550  140.0910 C   0  0  0  0  0  0  0  0  0  0  0  0
  190.0300  173.6450  136.1590 C   0  0  1  0  0  3  0  0  0  0  0  0
  1  5  1  6  0  0  0
  1 22  1  0  0  0  0
  2 18  1  0  0  0  0
  2 14  1  0  0  0  0
  3 19  1  0  0  0  0
  4 23  1  6  0  0  0
  4  1  1  0  0  0  0
  6 21  1  0  0  0  0
  8  6  1  1  0  0  0
  8 13  1  0  0  0  0
  8 12  1  0  0  0  0
 10 25  1  0  0  0  0
 11 24  1  6  0  0  0
 11  3  1  0  0  0  0
 12  9  1  6  0  0  0
 12  5  1  0  0  0  0
 13  4  1  0  0  0  0
 15 26  1  0  0  0  0
 15 10  1  0  0  0  0
 16  7  1  0  0  0  0
 19 29  1  0  0  0  0
 20 14  2  0  0  0  0
 21 17  1  0  0  0  0
 21  9  1  0  0  0  0
 22  2  2  0  0  0  0
 25 11  1  0  0  0  0
 25 23  1  0  0  0  0
 26 16  1  0  0  0  0
 27 30  1  0  0  0  0
 28 20  1  0  0  0  0
 29 22  1  0  0  0  0
 29 28  2  0  0  0  0
 30  7  1  0  0  0  0
 30 13  1  0  0  0  0
M  END
>  <MODEL>
8

>  <REMARK>
 VINA RESULT:      -5.1      1.765      5.526
  Name = 
  0 active torsions:
  status: ('A' for Active; 'I' for Inactive)
                            x       y       z     vdW  Elec       q    Type
                         _______ _______ _______ _____ _____    ______ ____

>  <TORSDO>
F 0

$$$$
=
 OpenBabel10262421433D

 30 34  0  0  1  0  0  0  0  0999 V2000
  183.4340  176.3480  138.4830 C   0  0  1  0  0  3  0  0  0  0  0  0
  182.8220  177.8030  140.4000 C   0  0  0  0  0  0  0  0  0  0  0  0
  180.2040  176.4260  136.7790 C   0  0  0  0  0  2  0  0  0  0  0  0
  183.4420  174.8590  138.0220 C   0  0  2  0  0  3  0  0  0  0  0  0
  184.0000  177.2950  137.5160 N   0  0  0  0  0  2  0  0  0  0  0  0
  186.7030  175.4740  135.9410 C   0  0  0  0  0  2  0  0  0  0  0  0
  183.8810  172.0330  137.2560 C   0  0  0  0  0  2  0  0  0  0  0  0
  185.2990  175.5570  136.4820 C   0  0  2  0  0  3  0  0  0  0  0  0
  186.1590  177.7220  136.3570 C   0  0  0  0  0  2  0  0  0  0  0  0
  181.5880  174.1010  135.0440 C   0  0  0  0  0  2  0  0  0  0  0  0
  181.5560  176.4290  136.0700 C   0  0  2  0  0  3  0  0  0  0  0  0
  185.3530  176.8260  137.2620 C   0  0  1  0  0  3  0  0  0  0  0  0
  184.8070  174.4240  137.3890 C   0  0  2  0  0  3  0  0  0  0  0  0
  181.9250  178.5170  141.1950 C   0  0  0  0  0  3  0  0  0  0  0  0
  182.4290  173.0150  134.7760 O   0  0  0  0  0  0  0  0  0  0  0  0
  183.1600  171.2140  136.1920 C   0  0  0  0  0  2  0  0  0  0  0  0
  188.4110  177.0520  136.2560 C   0  0  0  0  0  1  0  0  0  0  0  0
  184.1850  177.9500  140.6380 O   0  0  0  0  0  1  0  0  0  0  0  0
  180.3030  175.8970  138.2060 C   0  0  0  0  0  2  0  0  0  0  0  0
  180.5550  178.4070  140.9810 C   0  0  0  0  0  3  0  0  0  0  0  0
  187.1060  176.8530  135.6490 N   0  0  0  0  0  0  0  0  0  0  0  0
  182.3610  176.9560  139.3690 C   0  0  0  0  0  0  0  0  0  0  0  0
  182.3010  174.4560  137.2910 O   0  0  0  0  0  0  0  0  0  0  0  0
  181.4290  176.9700  134.7900 O   0  0  0  0  0  1  0  0  0  0  0  0
  182.2640  175.0600  136.0200 C   0  0  1  0  0  3  0  0  0  0  0  0
  181.9770  171.9760  135.5970 C   0  0  0  0  0  2  0  0  0  0  0  0
  186.0270  172.5990  136.3930 O   0  0  0  0  0  1  0  0  0  0  0  0
  180.0760  177.5700  139.9770 C   0  0  0  0  0  3  0  0  0  0  0  0
  180.9530  176.8430  139.1650 C   0  0  0  0  0  0  0  0  0  0  0  0
  184.7420  173.1040  136.5990 C   0  0  1  0  0  3  0  0  0  0  0  0
  1  5  1  6  0  0  0
  1 22  1  0  0  0  0
  2 18  1  0  0  0  0
  2 14  1  0  0  0  0
  3 19  1  0  0  0  0
  4 23  1  6  0  0  0
  4  1  1  0  0  0  0
  8  6  1  1  0  0  0
  8 12  1  0  0  0  0
  8 13  1  0  0  0  0
 10 25  1  0  0  0  0
 11 24  1  6  0  0  0
 11  3  1  0  0  0  0
 12  9  1  6  0  0  0
 12  5  1  0  0  0  0
 13  4  1  0  0  0  0
 15 10  1  0  0  0  0
 15 26  1  0  0  0  0
 16  7  1  0  0  0  0
 19 29  1  0  0  0  0
 20 14  2  0  0  0  0
 21  6  1  0  0  0  0
 21 17  1  0  0  0  0
 21  9  1  0  0  0  0
 22  2  2  0  0  0  0
 25 11  1  0  0  0  0
 25 23  1  0  0  0  0
 26 16  1  0  0  0  0
 27 30  1  0  0  0  0
 28 20  1  0  0  0  0
 29 22  1  0  0  0  0
 29 28  2  0  0  0  0
 30  7  1  0  0  0  0
 30 13  1  0  0  0  0
M  END
>  <MODEL>
9

>  <REMARK>
 VINA RESULT:      -5.1      5.009      8.683
  Name = 
  0 active torsions:
  status: ('A' for Active; 'I' for Inactive)
                            x       y       z     vdW  Elec       q    Type
                         _______ _______ _______ _____ _____    ______ ____

>  <TORSDO>
F 0

$$$$
