=
 OpenBabel10252414583D

 34 37  0  0  1  0  0  0  0  0999 V2000
  180.3400  179.5220  141.6520 C   0  0  0  0  0  0  0  0  0  0  0  0
  180.3180  180.9620  139.5000 C   0  0  1  0  0  3  0  0  0  0  0  0
  181.8190  178.9730  139.6360 C   0  0  2  0  0  3  0  0  0  0  0  0
  178.9320  179.9270  143.5260 O   0  0  0  0  0  1  0  0  0  0  0  0
  178.9310  180.3890  139.2300 C   0  0  0  0  0  1  0  0  0  0  0  0
  182.4750  181.0380  138.3270 C   0  0  0  0  0  2  0  0  0  0  0  0
  181.1220  180.0570  140.4700 C   0  0  2  0  0  3  0  0  0  0  0  0
  184.1480  179.7640  139.4300 O   0  0  0  0  0  0  0  0  0  0  0  0
  179.6330  180.3640  142.4070 C   0  0  0  0  0  3  0  0  0  0  0  0
  182.3310  177.7760  140.4520 C   0  0  1  0  0  3  0  0  0  0  0  0
  180.4370  178.0980  142.0250 C   0  0  0  0  0  3  0  0  0  0  0  0
  181.0170  181.1670  138.2040 N   0  0  2  0  0  0  0  0  0  0  0  0
  184.6050  178.5320  139.9460 C   0  0  0  0  0  2  0  0  0  0  0  0
  183.6990  178.0470  141.0680 C   0  0  1  0  0  3  0  0  0  0  0  0
  182.9140  179.6140  138.7360 C   0  0  1  0  0  0  0  0  0  0  0  0
  181.3280  177.2840  141.4580 C   0  0  0  0  0  3  0  0  0  0  0  0
  180.9330  181.2970  135.5520 F   0  0  0  0  0  0  0  0  0  0  0  0
  179.6940  183.2940  138.4230 C   0  0  0  0  0  2  0  0  0  0  0  0
  180.3930  182.4290  136.1400 C   0  0  1  0  0  3  0  0  0  0  0  0
  180.7530  182.5010  137.6340 C   0  0  2  0  0  3  0  0  0  0  0  0
  179.5060  185.1070  136.7840 N   0  0  0  0  0  2  0  0  0  0  0  0
  180.7650  184.9900  136.0630 C   0  0  0  0  0  2  0  0  0  0  0  0
  180.8660  183.6480  135.3400 C   0  0  0  0  0  2  0  0  0  0  0  0
  179.7970  184.7940  138.1760 C   0  0  0  0  0  2  0  0  0  0  0  0
  183.6220  179.0250  142.0690 O   0  0  0  0  0  0  0  0  0  0  0  0
  184.1930  178.4410  143.2070 C   0  0  2  0  0  3  0  0  0  0  0  0
  183.5040  178.9190  144.4460 C   0  0  0  0  0  0  0  0  0  0  0  0
  184.2210  179.0340  145.6290 O   0  0  0  0  0  1  0  0  0  0  0  0
  182.2880  179.2460  144.4190 O   0  0  0  0  0  0  0  0  0  0  0  0
  186.5580  177.7470  143.5030 C   0  0  0  0  0  2  0  0  0  0  0  0
  185.6710  178.7120  143.2610 C   0  0  0  0  0  3  0  0  0  0  0  0
  183.0740  178.7570  137.4640 C   0  0  0  0  0  2  0  0  0  0  0  0
  181.9010  176.8810  136.2930 C   0  0  0  0  0  1  0  0  0  0  0  0
  181.7490  178.2710  136.8810 C   0  0  0  0  0  2  0  0  0  0  0  0
  1 11  1  0  0  0  0
  1  9  2  0  0  0  0
  2  5  1  6  0  0  0
  2  7  1  0  0  0  0
  3 10  1  0  0  0  0
  3  7  1  0  0  0  0
  6 15  1  0  0  0  0
  7  1  1  0  0  0  0
  8 13  1  0  0  0  0
  9  4  1  0  0  0  0
 10 14  1  0  0  0  0
 10 16  1  0  0  0  0
 12  6  1  0  0  0  0
 12  2  1  0  0  0  0
 13 14  1  0  0  0  0
 14 25  1  0  0  0  0
 15  8  1  0  0  0  0
 15  3  1  0  0  0  0
 16 11  2  0  0  0  0
 17 19  1  0  0  0  0
 19 20  1  0  0  0  0
 20 12  1  0  0  0  0
 20 18  1  0  0  0  0
 21 24  1  0  0  0  0
 22 21  1  0  0  0  0
 23 22  1  0  0  0  0
 23 19  1  0  0  0  0
 24 18  1  0  0  0  0
 25 26  1  0  0  0  0
 26 31  1  0  0  0  0
 26 27  1  0  0  0  0
 27 28  1  0  0  0  0
 29 27  2  0  0  0  0
 31 30  2  0  0  0  0
 32 15  1  0  0  0  0
 33 34  1  0  0  0  0
 34 32  1  0  0  0  0
M  END
>  <MODEL>
1

>  <REMARK>
 VINA RESULT:      -5.7      0.000      0.000
  Name = 
  7 active torsions:
  status: ('A' for Active; 'I' for Inactive)
    1  A    between atoms: C_7  and  C_23
    2  A    between atoms: O_12  and  C_23
    3  A    between atoms: O_12  and  C_28
    4  A    between atoms: C_14  and  N_25
    5  A    between atoms: C_17  and  C_29
    6  A    between atoms: C_23  and  C_27
    7  A    between atoms: C_29  and  C_31
                            x       y       z     vdW  Elec       q    Type
                         _______ _______ _______ _____ _____    ______ ____

>  <TORSDO>
F 7

$$$$
=
 OpenBabel10252414583D

 34 37  0  0  1  0  0  0  0  0999 V2000
  184.4700  178.0750  138.3830 C   0  0  0  0  0  0  0  0  0  0  0  0
  183.2840  176.0940  137.2100 C   0  0  1  0  0  3  0  0  0  0  0  0
  181.9380  177.7260  138.5340 C   0  0  2  0  0  3  0  0  0  0  0  0
  186.8030  178.5040  138.2130 O   0  0  0  0  0  1  0  0  0  0  0  0
  183.5780  176.8040  135.8930 C   0  0  0  0  0  1  0  0  0  0  0  0
  181.2880  175.2830  138.3910 C   0  0  0  0  0  2  0  0  0  0  0  0
  183.3260  177.0820  138.4050 C   0  0  2  0  0  3  0  0  0  0  0  0
  180.8650  176.4980  140.3870 O   0  0  0  0  0  0  0  0  0  0  0  0
  185.7160  177.6370  138.2010 C   0  0  0  0  0  3  0  0  0  0  0  0
  181.9070  178.9960  139.3980 C   0  0  1  0  0  3  0  0  0  0  0  0
  184.2210  179.5030  138.6570 C   0  0  0  0  0  3  0  0  0  0  0  0
  181.9780  175.3920  137.0990 N   0  0  2  0  0  0  0  0  0  0  0  0
  180.6120  177.7230  141.0430 C   0  0  0  0  0  2  0  0  0  0  0  0
  181.7890  178.6730  140.8840 C   0  0  1  0  0  3  0  0  0  0  0  0
  180.8940  176.6590  138.9730 C   0  0  1  0  0  0  0  0  0  0  0  0
  183.0390  179.9360  139.0960 C   0  0  0  0  0  3  0  0  0  0  0  0
  181.0760  174.9890  134.6320 F   0  0  0  0  0  0  0  0  0  0  0  0
  183.4660  173.3700  136.9640 C   0  0  0  0  0  2  0  0  0  0  0  0
  181.8930  173.9550  135.0570 C   0  0  1  0  0  3  0  0  0  0  0  0
  182.1240  174.0210  136.5770 C   0  0  2  0  0  3  0  0  0  0  0  0
  183.1850  171.4070  135.5230 N   0  0  0  0  0  2  0  0  0  0  0  0
  181.7430  171.3830  135.3280 C   0  0  0  0  0  2  0  0  0  0  0  0
  181.2630  172.6350  134.5950 C   0  0  0  0  0  2  0  0  0  0  0  0
  183.4090  171.8500  136.8920 C   0  0  0  0  0  2  0  0  0  0  0  0
  182.9570  178.0650  141.3660 O   0  0  0  0  0  0  0  0  0  0  0  0
  183.4850  178.9610  142.3040 C   0  0  2  0  0  3  0  0  0  0  0  0
  184.9790  178.8850  142.3200 C   0  0  0  0  0  0  0  0  0  0  0  0
  185.6040  177.7540  142.8280 O   0  0  0  0  0  1  0  0  0  0  0  0
  185.6760  179.8240  141.8510 O   0  0  0  0  0  0  0  0  0  0  0  0
  183.5070  179.1350  144.7800 C   0  0  0  0  0  2  0  0  0  0  0  0
  182.9080  178.7080  143.6690 C   0  0  0  0  0  3  0  0  0  0  0  0
  179.5130  177.0590  138.4150 C   0  0  0  0  0  2  0  0  0  0  0  0
  178.9370  177.1530  135.9800 C   0  0  0  0  0  1  0  0  0  0  0  0
  179.5850  177.8910  137.1370 C   0  0  0  0  0  2  0  0  0  0  0  0
  1  7  1  0  0  0  0
  1 11  1  0  0  0  0
  2  5  1  6  0  0  0
  2  7  1  0  0  0  0
  3 15  1  0  0  0  0
  3 10  1  0  0  0  0
  6 15  1  0  0  0  0
  7  3  1  0  0  0  0
  8 13  1  0  0  0  0
  9  4  1  0  0  0  0
  9  1  2  0  0  0  0
 10 14  1  0  0  0  0
 11 16  2  0  0  0  0
 12  2  1  0  0  0  0
 12  6  1  0  0  0  0
 14 13  1  0  0  0  0
 14 25  1  0  0  0  0
 15  8  1  0  0  0  0
 16 10  1  0  0  0  0
 17 19  1  0  0  0  0
 19 20  1  0  0  0  0
 20 18  1  0  0  0  0
 20 12  1  0  0  0  0
 21 24  1  0  0  0  0
 22 21  1  0  0  0  0
 23 19  1  0  0  0  0
 23 22  1  0  0  0  0
 24 18  1  0  0  0  0
 25 26  1  0  0  0  0
 26 27  1  0  0  0  0
 26 31  1  0  0  0  0
 27 28  1  0  0  0  0
 29 27  2  0  0  0  0
 31 30  2  0  0  0  0
 32 15  1  0  0  0  0
 33 34  1  0  0  0  0
 34 32  1  0  0  0  0
M  END
>  <MODEL>
2

>  <REMARK>
 VINA RESULT:      -5.5      3.683      6.755
  Name = 
  7 active torsions:
  status: ('A' for Active; 'I' for Inactive)
    1  A    between atoms: C_7  and  C_23
    2  A    between atoms: O_12  and  C_23
    3  A    between atoms: O_12  and  C_28
    4  A    between atoms: C_14  and  N_25
    5  A    between atoms: C_17  and  C_29
    6  A    between atoms: C_23  and  C_27
    7  A    between atoms: C_29  and  C_31
                            x       y       z     vdW  Elec       q    Type
                         _______ _______ _______ _____ _____    ______ ____

>  <TORSDO>
F 7

$$$$
=
 OpenBabel10252414583D

 34 37  0  0  1  0  0  0  0  0999 V2000
  187.0990  178.0610  138.6650 C   0  0  0  0  0  0  0  0  0  0  0  0
  188.3570  178.0610  140.9280 C   0  0  1  0  0  3  0  0  0  0  0  0
  189.6300  177.7070  138.8110 C   0  0  2  0  0  3  0  0  0  0  0  0
  184.7640  178.4670  138.4530 O   0  0  0  0  0  1  0  0  0  0  0  0
  188.0930  179.5620  140.9820 C   0  0  0  0  0  1  0  0  0  0  0  0
  190.3280  176.5950  140.9750 C   0  0  0  0  0  2  0  0  0  0  0  0
  188.2590  177.5230  139.4760 C   0  0  2  0  0  3  0  0  0  0  0  0
  190.6630  175.4680  138.9120 O   0  0  0  0  0  0  0  0  0  0  0  0
  185.8670  178.0230  139.1750 C   0  0  0  0  0  3  0  0  0  0  0  0
  189.6100  177.5950  137.2790 C   0  0  1  0  0  3  0  0  0  0  0  0
  187.3130  178.5350  137.2840 C   0  0  0  0  0  3  0  0  0  0  0  0
  189.6780  177.7800  141.5490 N   0  0  2  0  0  0  0  0  0  0  0  0
  190.8740  175.5100  137.5160 C   0  0  0  0  0  2  0  0  0  0  0  0
  189.6850  176.1460  136.8110 C   0  0  1  0  0  3  0  0  0  0  0  0
  190.6780  176.7730  139.4810 C   0  0  1  0  0  0  0  0  0  0  0  0
  188.4720  178.3500  136.6530 C   0  0  0  0  0  3  0  0  0  0  0  0
  191.6030  178.8510  143.0370 F   0  0  0  0  0  0  0  0  0  0  0  0
  188.1270  177.6460  143.5230 C   0  0  0  0  0  2  0  0  0  0  0  0
  190.5150  178.4640  143.8020 C   0  0  1  0  0  3  0  0  0  0  0  0
  189.5730  177.5480  143.0020 C   0  0  2  0  0  3  0  0  0  0  0  0
  188.7390  177.5480  145.8950 N   0  0  0  0  0  2  0  0  0  0  0  0
  190.0560  176.9320  145.8390 C   0  0  0  0  0  2  0  0  0  0  0  0
  191.0490  177.8160  145.0860 C   0  0  0  0  0  2  0  0  0  0  0  0
  187.9440  176.9190  144.8500 C   0  0  0  0  0  2  0  0  0  0  0  0
  188.5140  175.4460  137.1330 O   0  0  0  0  0  0  0  0  0  0  0  0
  188.0540  174.9100  135.9230 C   0  0  2  0  0  3  0  0  0  0  0  0
  186.5960  175.1950  135.7420 C   0  0  0  0  0  0  0  0  0  0  0  0
  185.7660  175.2620  136.8530 O   0  0  0  0  0  1  0  0  0  0  0  0
  186.1200  175.4040  134.5950 O   0  0  0  0  0  0  0  0  0  0  0  0
  188.1080  172.6190  136.8770 C   0  0  0  0  0  2  0  0  0  0  0  0
  188.3390  173.4360  135.8500 C   0  0  0  0  0  3  0  0  0  0  0  0
  192.0680  177.4300  139.3700 C   0  0  0  0  0  2  0  0  0  0  0  0
  194.3390  176.6760  140.1090 C   0  0  0  0  0  1  0  0  0  0  0  0
  192.9750  177.1560  140.5670 C   0  0  0  0  0  2  0  0  0  0  0  0
  1  9  2  0  0  0  0
  1  7  1  0  0  0  0
  2  5  1  6  0  0  0
  2 12  1  0  0  0  0
  3  7  1  0  0  0  0
  3 15  1  0  0  0  0
  4  9  1  0  0  0  0
  6 12  1  0  0  0  0
  7  2  1  0  0  0  0
  8 15  1  0  0  0  0
 10  3  1  0  0  0  0
 11  1  1  0  0  0  0
 12 20  1  0  0  0  0
 13  8  1  0  0  0  0
 14 25  1  0  0  0  0
 14 10  1  0  0  0  0
 14 13  1  0  0  0  0
 15  6  1  0  0  0  0
 16 10  1  0  0  0  0
 16 11  2  0  0  0  0
 17 19  1  0  0  0  0
 18 24  1  0  0  0  0
 19 23  1  0  0  0  0
 20 18  1  0  0  0  0
 20 19  1  0  0  0  0
 22 21  1  0  0  0  0
 23 22  1  0  0  0  0
 24 21  1  0  0  0  0
 26 25  1  0  0  0  0
 27 26  1  0  0  0  0
 27 28  1  0  0  0  0
 29 27  2  0  0  0  0
 31 26  1  0  0  0  0
 31 30  2  0  0  0  0
 32 15  1  0  0  0  0
 32 34  1  0  0  0  0
 33 34  1  0  0  0  0
M  END
>  <MODEL>
3

>  <REMARK>
 VINA RESULT:      -5.4      6.649     10.296
  Name = 
  7 active torsions:
  status: ('A' for Active; 'I' for Inactive)
    1  A    between atoms: C_7  and  C_23
    2  A    between atoms: O_12  and  C_23
    3  A    between atoms: O_12  and  C_28
    4  A    between atoms: C_14  and  N_25
    5  A    between atoms: C_17  and  C_29
    6  A    between atoms: C_23  and  C_27
    7  A    between atoms: C_29  and  C_31
                            x       y       z     vdW  Elec       q    Type
                         _______ _______ _______ _____ _____    ______ ____

>  <TORSDO>
F 7

$$$$
=
 OpenBabel10252414583D

 34 37  0  0  1  0  0  0  0  0999 V2000
  187.1080  177.5590  137.2360 C   0  0  0  0  0  0  0  0  0  0  0  0
  188.7550  177.4350  139.2290 C   0  0  1  0  0  3  0  0  0  0  0  0
  189.5370  176.8060  136.9440 C   0  0  2  0  0  3  0  0  0  0  0  0
  184.8650  178.3300  137.4220 O   0  0  0  0  0  1  0  0  0  0  0  0
  188.7380  178.9600  139.2330 C   0  0  0  0  0  1  0  0  0  0  0  0
  190.4530  175.6720  139.0150 C   0  0  0  0  0  2  0  0  0  0  0  0
  188.3040  176.8690  137.8570 C   0  0  2  0  0  3  0  0  0  0  0  0
  190.2170  174.4340  137.0020 O   0  0  0  0  0  0  0  0  0  0  0  0
  186.0030  177.7390  137.9610 C   0  0  0  0  0  3  0  0  0  0  0  0
  189.2120  176.6440  135.4520 C   0  0  1  0  0  3  0  0  0  0  0  0
  187.1270  177.9430  135.8110 C   0  0  0  0  0  3  0  0  0  0  0  0
  190.1110  176.9660  139.6190 N   0  0  2  0  0  0  0  0  0  0  0  0
  190.1640  174.3920  135.5910 C   0  0  0  0  0  2  0  0  0  0  0  0
  188.9750  175.1870  135.0730 C   0  0  1  0  0  3  0  0  0  0  0  0
  190.5380  175.7380  137.4730 C   0  0  1  0  0  0  0  0  0  0  0  0
  188.1040  177.5510  134.9940 C   0  0  0  0  0  3  0  0  0  0  0  0
  192.2950  178.0240  140.7020 F   0  0  0  0  0  0  0  0  0  0  0  0
  188.9160  176.9860  141.8300 C   0  0  0  0  0  2  0  0  0  0  0  0
  191.3420  177.7170  141.6590 C   0  0  1  0  0  3  0  0  0  0  0  0
  190.2480  176.8060  141.0780 C   0  0  2  0  0  3  0  0  0  0  0  0
  189.9190  176.9720  144.0670 N   0  0  0  0  0  2  0  0  0  0  0  0
  191.1870  176.3010  143.8220 C   0  0  0  0  0  2  0  0  0  0  0  0
  192.0650  177.1070  142.8670 C   0  0  0  0  0  2  0  0  0  0  0  0
  188.9380  176.3300  143.2050 C   0  0  0  0  0  2  0  0  0  0  0  0
  187.7930  174.6980  135.6450 O   0  0  0  0  0  0  0  0  0  0  0  0
  187.1740  173.9440  134.6400 C   0  0  2  0  0  3  0  0  0  0  0  0
  185.7050  174.2260  134.6000 C   0  0  0  0  0  0  0  0  0  0  0  0
  184.8030  173.1710  134.5970 O   0  0  0  0  0  0  0  0  0  0  0  0
  185.2790  175.4120  134.5980 O   0  0  0  0  0  1  0  0  0  0  0  0
  187.5060  171.9180  136.0350 C   0  0  0  0  0  2  0  0  0  0  0  0
  187.4460  172.4770  134.8270 C   0  0  0  0  0  3  0  0  0  0  0  0
  191.9660  176.1570  137.0710 C   0  0  0  0  0  2  0  0  0  0  0  0
  194.0940  174.9790  137.6650 C   0  0  0  0  0  1  0  0  0  0  0  0
  193.0070  175.9150  138.1610 C   0  0  0  0  0  2  0  0  0  0  0  0
  1  7  1  0  0  0  0
  1  9  2  0  0  0  0
  2  5  1  6  0  0  0
  2 12  1  0  0  0  0
  3 15  1  0  0  0  0
  3  7  1  0  0  0  0
  4  9  1  0  0  0  0
  6 12  1  0  0  0  0
  7  2  1  0  0  0  0
  8 15  1  0  0  0  0
 10  3  1  0  0  0  0
 11  1  1  0  0  0  0
 12 20  1  0  0  0  0
 13  8  1  0  0  0  0
 14 10  1  0  0  0  0
 14 13  1  0  0  0  0
 14 25  1  0  0  0  0
 15  6  1  0  0  0  0
 16 10  1  0  0  0  0
 16 11  2  0  0  0  0
 17 19  1  0  0  0  0
 18 24  1  0  0  0  0
 19 23  1  0  0  0  0
 20 19  1  0  0  0  0
 20 18  1  0  0  0  0
 22 21  1  0  0  0  0
 23 22  1  0  0  0  0
 24 21  1  0  0  0  0
 26 31  1  0  0  0  0
 26 25  1  0  0  0  0
 27 26  1  0  0  0  0
 28 27  2  0  0  0  0
 29 27  1  0  0  0  0
 31 30  2  0  0  0  0
 32 15  1  0  0  0  0
 32 34  1  0  0  0  0
 33 34  1  0  0  0  0
M  END
>  <MODEL>
4

>  <REMARK>
 VINA RESULT:      -5.4      7.025     10.715
  Name = 
  7 active torsions:
  status: ('A' for Active; 'I' for Inactive)
    1  A    between atoms: C_7  and  C_23
    2  A    between atoms: O_12  and  C_23
    3  A    between atoms: O_12  and  C_28
    4  A    between atoms: C_14  and  N_25
    5  A    between atoms: C_17  and  C_29
    6  A    between atoms: C_23  and  C_27
    7  A    between atoms: C_29  and  C_31
                            x       y       z     vdW  Elec       q    Type
                         _______ _______ _______ _____ _____    ______ ____

>  <TORSDO>
F 7

$$$$
=
 OpenBabel10252414583D

 34 37  0  0  1  0  0  0  0  0999 V2000
  181.9540  178.1460  137.6560 C   0  0  0  0  0  0  0  0  0  0  0  0
  182.6430  178.0090  140.1480 C   0  0  1  0  0  3  0  0  0  0  0  0
  180.3860  178.8850  139.5410 C   0  0  2  0  0  3  0  0  0  0  0  0
  183.3270  177.3980  135.8630 O   0  0  0  0  0  1  0  0  0  0  0  0
  182.5260  176.4940  140.0130 C   0  0  0  0  0  1  0  0  0  0  0  0
  181.6440  179.7540  141.5590 C   0  0  0  0  0  2  0  0  0  0  0  0
  181.8320  178.7380  139.0450 C   0  0  2  0  0  3  0  0  0  0  0  0
  180.2450  181.2220  140.3230 O   0  0  0  0  0  0  0  0  0  0  0  0
  183.1630  177.9020  137.1490 C   0  0  0  0  0  3  0  0  0  0  0  0
  179.3710  179.2240  138.4390 C   0  0  1  0  0  3  0  0  0  0  0  0
  180.7500  177.9300  136.8310 C   0  0  0  0  0  3  0  0  0  0  0  0
  182.2220  178.4050  141.5180 N   0  0  2  0  0  0  0  0  0  0  0  0
  179.1300  181.4280  139.4810 C   0  0  0  0  0  2  0  0  0  0  0  0
  179.3220  180.7200  138.1480 C   0  0  1  0  0  3  0  0  0  0  0  0
  180.3330  179.8660  140.7470 C   0  0  1  0  0  0  0  0  0  0  0  0
  179.5560  178.3970  137.1990 C   0  0  0  0  0  3  0  0  0  0  0  0
  184.6220  178.8910  140.4880 F   0  0  0  0  0  0  0  0  0  0  0  0
  182.9980  179.0530  143.8200 C   0  0  0  0  0  2  0  0  0  0  0  0
  184.6220  179.0020  141.8680 C   0  0  1  0  0  3  0  0  0  0  0  0
  183.3460  178.3930  142.4720 C   0  0  2  0  0  3  0  0  0  0  0  0
  185.2920  179.0180  144.6840 N   0  0  0  0  0  2  0  0  0  0  0  0
  185.9010  177.9750  143.8720 C   0  0  0  0  0  2  0  0  0  0  0  0
  185.9120  178.3590  142.3930 C   0  0  0  0  0  2  0  0  0  0  0  0
  183.9230  178.5950  144.9400 C   0  0  0  0  0  2  0  0  0  0  0  0
  180.5080  181.1600  137.5450 O   0  0  0  0  0  0  0  0  0  0  0  0
  180.1930  182.3880  136.9510 C   0  0  2  0  0  3  0  0  0  0  0  0
  179.9520  182.2160  135.4840 C   0  0  0  0  0  0  0  0  0  0  0  0
  180.8430  181.4690  134.7250 O   0  0  0  0  0  0  0  0  0  0  0  0
  178.9350  182.7190  134.9360 O   0  0  0  0  0  1  0  0  0  0  0  0
  181.1820  184.6590  136.7790 C   0  0  0  0  0  2  0  0  0  0  0  0
  181.2700  183.4030  137.2160 C   0  0  0  0  0  3  0  0  0  0  0  0
  179.1510  179.4710  141.6540 C   0  0  0  0  0  2  0  0  0  0  0  0
  179.2470  179.0070  144.1120 C   0  0  0  0  0  1  0  0  0  0  0  0
  179.2130  180.0880  143.0490 C   0  0  0  0  0  2  0  0  0  0  0  0
  1  7  1  0  0  0  0
  2  5  1  1  0  0  0
  2 12  1  0  0  0  0
  3 15  1  0  0  0  0
  4  9  1  0  0  0  0
  7  3  1  0  0  0  0
  7  2  1  0  0  0  0
  8 15  1  0  0  0  0
  9  1  2  0  0  0  0
 10  3  1  0  0  0  0
 11 16  2  0  0  0  0
 11  1  1  0  0  0  0
 12  6  1  0  0  0  0
 12 20  1  0  0  0  0
 13  8  1  0  0  0  0
 14 10  1  0  0  0  0
 14 13  1  0  0  0  0
 15  6  1  0  0  0  0
 15 32  1  0  0  0  0
 16 10  1  0  0  0  0
 17 19  1  0  0  0  0
 18 24  1  0  0  0  0
 19 23  1  0  0  0  0
 19 20  1  0  0  0  0
 20 18  1  0  0  0  0
 21 24  1  0  0  0  0
 22 21  1  0  0  0  0
 23 22  1  0  0  0  0
 25 14  1  0  0  0  0
 26 31  1  0  0  0  0
 26 25  1  0  0  0  0
 27 26  1  0  0  0  0
 28 27  2  0  0  0  0
 29 27  1  0  0  0  0
 30 31  2  0  0  0  0
 32 34  1  0  0  0  0
 34 33  1  0  0  0  0
M  END
>  <MODEL>
5

>  <REMARK>
 VINA RESULT:      -5.2      3.023      7.472
  Name = 
  7 active torsions:
  status: ('A' for Active; 'I' for Inactive)
    1  A    between atoms: C_7  and  C_23
    2  A    between atoms: O_12  and  C_23
    3  A    between atoms: O_12  and  C_28
    4  A    between atoms: C_14  and  N_25
    5  A    between atoms: C_17  and  C_29
    6  A    between atoms: C_23  and  C_27
    7  A    between atoms: C_29  and  C_31
                            x       y       z     vdW  Elec       q    Type
                         _______ _______ _______ _____ _____    ______ ____

>  <TORSDO>
F 7

$$$$
=
 OpenBabel10252414583D

 34 37  0  0  1  0  0  0  0  0999 V2000
  187.0310  177.9970  138.5250 C   0  0  0  0  0  0  0  0  0  0  0  0
  188.6360  178.0280  140.5570 C   0  0  1  0  0  3  0  0  0  0  0  0
  189.5260  177.4720  138.2930 C   0  0  2  0  0  3  0  0  0  0  0  0
  184.7230  178.5570  138.6570 O   0  0  0  0  0  1  0  0  0  0  0  0
  188.4780  179.5450  140.5550 C   0  0  0  0  0  1  0  0  0  0  0  0
  190.4940  176.4300  140.3880 C   0  0  0  0  0  2  0  0  0  0  0  0
  188.2720  177.4210  139.1770 C   0  0  2  0  0  3  0  0  0  0  0  0
  190.4220  175.1730  138.3740 O   0  0  0  0  0  0  0  0  0  0  0  0
  185.8980  178.0750  139.2240 C   0  0  0  0  0  3  0  0  0  0  0  0
  189.2530  177.2790  136.7940 C   0  0  1  0  0  3  0  0  0  0  0  0
  187.0490  178.3790  137.1000 C   0  0  0  0  0  3  0  0  0  0  0  0
  190.0200  177.6870  140.9800 N   0  0  2  0  0  0  0  0  0  0  0  0
  190.4060  175.1240  136.9630 C   0  0  0  0  0  2  0  0  0  0  0  0
  189.1610  175.8050  136.4140 C   0  0  1  0  0  3  0  0  0  0  0  0
  190.6090  176.5020  138.8490 C   0  0  1  0  0  0  0  0  0  0  0  0
  188.0780  178.0790  136.3070 C   0  0  0  0  0  3  0  0  0  0  0  0
  188.0440  176.3720  142.1740 F   0  0  0  0  0  0  0  0  0  0  0  0
  191.5760  177.2460  142.9050 C   0  0  0  0  0  2  0  0  0  0  0  0
  189.1490  176.5010  142.9990 C   0  0  1  0  0  3  0  0  0  0  0  0
  190.1360  177.5410  142.4430 C   0  0  2  0  0  3  0  0  0  0  0  0
  190.9690  176.7740  145.2330 N   0  0  0  0  0  2  0  0  0  0  0  0
  189.6850  177.4470  145.3490 C   0  0  0  0  0  2  0  0  0  0  0  0
  188.6490  176.8310  144.4110 C   0  0  0  0  0  2  0  0  0  0  0  0
  191.7950  177.6050  144.3690 C   0  0  0  0  0  2  0  0  0  0  0  0
  188.0160  175.2090  136.9600 O   0  0  0  0  0  0  0  0  0  0  0  0
  187.3440  174.6290  135.8780 C   0  0  2  0  0  3  0  0  0  0  0  0
  185.9060  175.0410  135.8690 C   0  0  0  0  0  0  0  0  0  0  0  0
  185.2170  175.1060  134.6650 O   0  0  0  0  0  0  0  0  0  0  0  0
  185.3060  175.3030  136.9460 O   0  0  0  0  0  1  0  0  0  0  0  0
  187.6570  172.4560  137.0360 C   0  0  0  0  0  2  0  0  0  0  0  0
  187.4860  173.1320  135.9010 C   0  0  0  0  0  3  0  0  0  0  0  0
  192.0010  177.0510  138.4790 C   0  0  0  0  0  2  0  0  0  0  0  0
  193.8880  175.4830  137.9770 C   0  0  0  0  0  1  0  0  0  0  0  0
  193.1560  176.2440  139.0670 C   0  0  0  0  0  2  0  0  0  0  0  0
  1  7  1  0  0  0  0
  1  9  2  0  0  0  0
  2  5  1  6  0  0  0
  2 12  1  0  0  0  0
  3 15  1  0  0  0  0
  3  7  1  0  0  0  0
  4  9  1  0  0  0  0
  6 12  1  0  0  0  0
  7  2  1  0  0  0  0
  8 15  1  0  0  0  0
 10  3  1  0  0  0  0
 11  1  1  0  0  0  0
 12 20  1  0  0  0  0
 13  8  1  0  0  0  0
 14 10  1  0  0  0  0
 14 25  1  0  0  0  0
 14 13  1  0  0  0  0
 15  6  1  0  0  0  0
 16 10  1  0  0  0  0
 16 11  2  0  0  0  0
 17 19  1  0  0  0  0
 18 24  1  0  0  0  0
 19 23  1  0  0  0  0
 20 18  1  0  0  0  0
 20 19  1  0  0  0  0
 21 22  1  0  0  0  0
 23 22  1  0  0  0  0
 24 21  1  0  0  0  0
 26 31  1  0  0  0  0
 26 25  1  0  0  0  0
 27 26  1  0  0  0  0
 27 29  1  0  0  0  0
 28 27  2  0  0  0  0
 31 30  2  0  0  0  0
 32 15  1  0  0  0  0
 32 34  1  0  0  0  0
 33 34  1  0  0  0  0
M  END
>  <MODEL>
6

>  <REMARK>
 VINA RESULT:      -4.9      6.541     10.305
  Name = 
  7 active torsions:
  status: ('A' for Active; 'I' for Inactive)
    1  A    between atoms: C_7  and  C_23
    2  A    between atoms: O_12  and  C_23
    3  A    between atoms: O_12  and  C_28
    4  A    between atoms: C_14  and  N_25
    5  A    between atoms: C_17  and  C_29
    6  A    between atoms: C_23  and  C_27
    7  A    between atoms: C_29  and  C_31
                            x       y       z     vdW  Elec       q    Type
                         _______ _______ _______ _____ _____    ______ ____

>  <TORSDO>
F 7

$$$$
=
 OpenBabel10252414583D

 34 37  0  0  1  0  0  0  0  0999 V2000
  188.1360  176.5260  137.0370 C   0  0  0  0  0  0  0  0  0  0  0  0
  185.5820  176.3200  136.6680 C   0  0  1  0  0  3  0  0  0  0  0  0
  186.4800  178.2000  138.0410 C   0  0  2  0  0  3  0  0  0  0  0  0
  189.7340  175.0560  136.0650 O   0  0  0  0  0  1  0  0  0  0  0  0
  185.8400  176.7310  135.2220 C   0  0  0  0  0  1  0  0  0  0  0  0
  184.2300  177.1520  138.5430 C   0  0  0  0  0  2  0  0  0  0  0  0
  186.7470  176.7560  137.5940 C   0  0  2  0  0  3  0  0  0  0  0  0
  185.5690  177.9750  140.3240 O   0  0  0  0  0  0  0  0  0  0  0  0
  188.4590  175.3280  136.5490 C   0  0  0  0  0  3  0  0  0  0  0  0
  187.7030  178.9170  138.6330 C   0  0  1  0  0  3  0  0  0  0  0  0
  189.1560  177.5890  137.1200 C   0  0  0  0  0  3  0  0  0  0  0  0
  184.2730  176.8760  137.1010 N   0  0  2  0  0  0  0  0  0  0  0  0
  186.5620  178.8600  140.7990 C   0  0  0  0  0  2  0  0  0  0  0  0
  187.8930  178.5970  140.1110 C   0  0  1  0  0  3  0  0  0  0  0  0
  185.2320  178.2500  138.9680 C   0  0  1  0  0  0  0  0  0  0  0  0
  188.9520  178.7010  137.8270 C   0  0  0  0  0  3  0  0  0  0  0  0
  182.3460  177.8560  135.5560 F   0  0  0  0  0  0  0  0  0  0  0  0
  183.6130  174.5130  136.5500 C   0  0  0  0  0  2  0  0  0  0  0  0
  182.2710  176.4770  135.6610 C   0  0  1  0  0  3  0  0  0  0  0  0
  183.1540  175.9600  136.8090 C   0  0  2  0  0  3  0  0  0  0  0  0
  181.4200  173.7140  135.8010 N   0  0  0  0  0  2  0  0  0  0  0  0
  180.5270  174.7040  136.3840 C   0  0  0  0  0  2  0  0  0  0  0  0
  180.7930  176.0950  135.8110 C   0  0  0  0  0  2  0  0  0  0  0  0
  182.4910  173.5060  136.7650 C   0  0  0  0  0  2  0  0  0  0  0  0
  188.2660  177.2590  140.2980 O   0  0  0  0  0  0  0  0  0  0  0  0
  189.3000  177.2870  141.2420 C   0  0  2  0  0  3  0  0  0  0  0  0
  190.5990  176.8960  140.6100 C   0  0  0  0  0  0  0  0  0  0  0  0
  191.7760  177.5030  141.0280 O   0  0  0  0  0  1  0  0  0  0  0  0
  190.6390  176.0030  139.7220 O   0  0  0  0  0  0  0  0  0  0  0  0
  188.2840  176.8560  143.4650 C   0  0  0  0  0  2  0  0  0  0  0  0
  188.9760  176.4080  142.4180 C   0  0  0  0  0  3  0  0  0  0  0  0
  184.5560  179.6270  138.8140 C   0  0  0  0  0  2  0  0  0  0  0  0
  182.1830  180.2740  138.3430 C   0  0  0  0  0  1  0  0  0  0  0  0
  183.1330  179.6780  139.3650 C   0  0  0  0  0  2  0  0  0  0  0  0
  1 11  1  0  0  0  0
  1  7  1  0  0  0  0
  2  5  1  6  0  0  0
  2 12  1  0  0  0  0
  2  7  1  0  0  0  0
  3 10  1  0  0  0  0
  3 15  1  0  0  0  0
  4  9  1  0  0  0  0
  6 15  1  0  0  0  0
  7  3  1  0  0  0  0
  8 13  1  0  0  0  0
  9  1  2  0  0  0  0
 10 14  1  0  0  0  0
 11 16  2  0  0  0  0
 12  6  1  0  0  0  0
 14 25  1  0  0  0  0
 14 13  1  0  0  0  0
 15  8  1  0  0  0  0
 16 10  1  0  0  0  0
 17 19  1  0  0  0  0
 18 24  1  0  0  0  0
 18 20  1  0  0  0  0
 19 23  1  0  0  0  0
 19 20  1  0  0  0  0
 20 12  1  0  0  0  0
 21 22  1  0  0  0  0
 21 24  1  0  0  0  0
 23 22  1  0  0  0  0
 25 26  1  0  0  0  0
 26 31  1  0  0  0  0
 27 28  1  0  0  0  0
 27 26  1  0  0  0  0
 29 27  2  0  0  0  0
 31 30  2  0  0  0  0
 32 15  1  0  0  0  0
 32 34  1  0  0  0  0
 33 34  1  0  0  0  0
M  END
>  <MODEL>
7

>  <REMARK>
 VINA RESULT:      -4.8      4.224      7.519
  Name = 
  7 active torsions:
  status: ('A' for Active; 'I' for Inactive)
    1  A    between atoms: C_7  and  C_23
    2  A    between atoms: O_12  and  C_23
    3  A    between atoms: O_12  and  C_28
    4  A    between atoms: C_14  and  N_25
    5  A    between atoms: C_17  and  C_29
    6  A    between atoms: C_23  and  C_27
    7  A    between atoms: C_29  and  C_31
                            x       y       z     vdW  Elec       q    Type
                         _______ _______ _______ _____ _____    ______ ____

>  <TORSDO>
F 7

$$$$
=
 OpenBabel10252414583D

 34 37  0  0  1  0  0  0  0  0999 V2000
  186.2180  176.9690  137.4940 C   0  0  0  0  0  0  0  0  0  0  0  0
  184.1340  175.4890  137.0760 C   0  0  1  0  0  3  0  0  0  0  0  0
  183.8650  177.7110  138.1790 C   0  0  2  0  0  3  0  0  0  0  0  0
  188.4170  176.3770  136.8070 O   0  0  0  0  0  1  0  0  0  0  0  0
  184.3090  175.8050  135.5940 C   0  0  0  0  0  1  0  0  0  0  0  0
  182.3650  175.7560  138.7590 C   0  0  0  0  0  2  0  0  0  0  0  0
  184.8410  176.5460  137.9640 C   0  0  2  0  0  3  0  0  0  0  0  0
  182.9480  177.3290  140.4390 O   0  0  0  0  0  0  0  0  0  0  0  0
  187.1280  176.0380  137.2030 C   0  0  0  0  0  3  0  0  0  0  0  0
  184.5220  179.0000  138.6970 C   0  0  1  0  0  3  0  0  0  0  0  0
  186.5820  178.3980  137.4500 C   0  0  0  0  0  3  0  0  0  0  0  0
  182.6830  175.3730  137.3770 N   0  0  2  0  0  0  0  0  0  0  0  0
  183.3350  178.6370  140.8090 C   0  0  0  0  0  2  0  0  0  0  0  0
  184.6900  178.9870  140.2120 C   0  0  1  0  0  3  0  0  0  0  0  0
  182.6610  177.2450  139.0470 C   0  0  1  0  0  0  0  0  0  0  0  0
  185.7950  179.3370  137.9740 C   0  0  0  0  0  3  0  0  0  0  0  0
  180.4220  175.1400  136.0010 F   0  0  0  0  0  0  0  0  0  0  0  0
  183.3060  172.9840  136.8990 C   0  0  0  0  0  2  0  0  0  0  0  0
  181.0800  173.9270  136.1200 C   0  0  1  0  0  3  0  0  0  0  0  0
  182.1830  173.9980  137.1890 C   0  0  2  0  0  3  0  0  0  0  0  0
  181.7970  171.1320  136.3500 N   0  0  0  0  0  2  0  0  0  0  0  0
  180.5640  171.5470  137.0020 C   0  0  0  0  0  2  0  0  0  0  0  0
  180.0290  172.8460  136.4000 C   0  0  0  0  0  2  0  0  0  0  0  0
  182.8860  171.5550  137.2180 C   0  0  0  0  0  2  0  0  0  0  0  0
  185.6420  178.0380  140.6110 O   0  0  0  0  0  0  0  0  0  0  0  0
  186.3340  178.6270  141.6760 C   0  0  2  0  0  3  0  0  0  0  0  0
  187.8100  178.5880  141.4300 C   0  0  0  0  0  0  0  0  0  0  0  0
  188.6560  178.0880  142.4100 O   0  0  0  0  0  1  0  0  0  0  0  0
  188.2880  178.9770  140.3310 O   0  0  0  0  0  0  0  0  0  0  0  0
  185.3060  178.6050  143.9350 C   0  0  0  0  0  2  0  0  0  0  0  0
  185.9760  177.9650  142.9770 C   0  0  0  0  0  3  0  0  0  0  0  0
  181.4230  178.0810  138.6660 C   0  0  0  0  0  2  0  0  0  0  0  0
  181.1810  180.1460  137.2700 C   0  0  0  0  0  1  0  0  0  0  0  0
  181.4840  178.6600  137.2540 C   0  0  0  0  0  2  0  0  0  0  0  0
  1  7  1  0  0  0  0
  2  5  1  6  0  0  0
  2 12  1  0  0  0  0
  2  7  1  0  0  0  0
  3 10  1  0  0  0  0
  3 15  1  0  0  0  0
  4  9  1  0  0  0  0
  6 15  1  0  0  0  0
  7  3  1  0  0  0  0
  8 13  1  0  0  0  0
  9  1  2  0  0  0  0
 10 14  1  0  0  0  0
 11  1  1  0  0  0  0
 11 16  2  0  0  0  0
 12  6  1  0  0  0  0
 14 25  1  0  0  0  0
 14 13  1  0  0  0  0
 15  8  1  0  0  0  0
 16 10  1  0  0  0  0
 17 19  1  0  0  0  0
 18 20  1  0  0  0  0
 18 24  1  0  0  0  0
 19 23  1  0  0  0  0
 19 20  1  0  0  0  0
 20 12  1  0  0  0  0
 21 22  1  0  0  0  0
 21 24  1  0  0  0  0
 23 22  1  0  0  0  0
 25 26  1  0  0  0  0
 26 31  1  0  0  0  0
 27 26  1  0  0  0  0
 27 28  1  0  0  0  0
 29 27  2  0  0  0  0
 31 30  2  0  0  0  0
 32 15  1  0  0  0  0
 34 33  1  0  0  0  0
 34 32  1  0  0  0  0
M  END
>  <MODEL>
8

>  <REMARK>
 VINA RESULT:      -4.8      3.804      7.257
  Name = 
  7 active torsions:
  status: ('A' for Active; 'I' for Inactive)
    1  A    between atoms: C_7  and  C_23
    2  A    between atoms: O_12  and  C_23
    3  A    between atoms: O_12  and  C_28
    4  A    between atoms: C_14  and  N_25
    5  A    between atoms: C_17  and  C_29
    6  A    between atoms: C_23  and  C_27
    7  A    between atoms: C_29  and  C_31
                            x       y       z     vdW  Elec       q    Type
                         _______ _______ _______ _____ _____    ______ ____

>  <TORSDO>
F 7

$$$$
=
 OpenBabel10252414583D

 34 37  0  0  1  0  0  0  0  0999 V2000
  187.7190  175.8060  136.2620 C   0  0  0  0  0  0  0  0  0  0  0  0
  185.3580  174.7540  136.1110 C   0  0  1  0  0  3  0  0  0  0  0  0
  185.6020  177.1370  136.8110 C   0  0  2  0  0  3  0  0  0  0  0  0
  189.7180  174.6520  135.6850 O   0  0  0  0  0  1  0  0  0  0  0  0
  185.5380  174.7690  134.5970 C   0  0  0  0  0  1  0  0  0  0  0  0
  183.7500  175.6740  137.7240 C   0  0  0  0  0  2  0  0  0  0  0  0
  186.3040  175.7720  136.8010 C   0  0  2  0  0  3  0  0  0  0  0  0
  184.7130  177.3490  139.1040 O   0  0  0  0  0  0  0  0  0  0  0  0
  188.4020  174.6680  136.1360 C   0  0  0  0  0  3  0  0  0  0  0  0
  186.5330  178.3260  137.0960 C   0  0  1  0  0  3  0  0  0  0  0  0
  188.3730  177.0960  135.9690 C   0  0  0  0  0  3  0  0  0  0  0  0
  183.9270  175.0030  136.4300 N   0  0  2  0  0  0  0  0  0  0  0  0
  185.3790  178.5870  139.2400 C   0  0  0  0  0  2  0  0  0  0  0  0
  186.7530  178.5350  138.5900 C   0  0  1  0  0  3  0  0  0  0  0  0
  184.3610  177.0930  137.7490 C   0  0  1  0  0  0  0  0  0  0  0  0
  187.8200  178.2570  136.3230 C   0  0  0  0  0  3  0  0  0  0  0  0
  181.7670  174.9210  134.8860 F   0  0  0  0  0  0  0  0  0  0  0  0
  184.0250  172.4930  136.5500 C   0  0  0  0  0  2  0  0  0  0  0  0
  182.1250  173.6620  135.3360 C   0  0  1  0  0  3  0  0  0  0  0  0
  183.1440  173.7540  136.4850 C   0  0  2  0  0  3  0  0  0  0  0  0
  182.1770  170.9130  136.2410 N   0  0  0  0  0  2  0  0  0  0  0  0
  181.0300  171.7130  136.6440 C   0  0  0  0  0  2  0  0  0  0  0  0
  180.8410  172.9150  135.7200 C   0  0  0  0  0  2  0  0  0  0  0  0
  183.2750  171.2950  137.1180 C   0  0  0  0  0  2  0  0  0  0  0  0
  187.5000  177.4870  139.1460 O   0  0  0  0  0  0  0  0  0  0  0  0
  188.6190  178.0940  139.7290 C   0  0  2  0  0  3  0  0  0  0  0  0
  189.8080  177.1890  139.6530 C   0  0  0  0  0  0  0  0  0  0  0  0
  190.9940  177.5580  140.2730 O   0  0  0  0  0  1  0  0  0  0  0  0
  189.7350  176.0810  139.0560 O   0  0  0  0  0  0  0  0  0  0  0  0
  187.9620  177.6170  142.0750 C   0  0  0  0  0  2  0  0  0  0  0  0
  188.3290  178.5000  141.1470 C   0  0  0  0  0  3  0  0  0  0  0  0
  183.3130  178.0960  137.2290 C   0  0  0  0  0  2  0  0  0  0  0  0
  180.9930  177.8470  136.3200 C   0  0  0  0  0  1  0  0  0  0  0  0
  181.8730  177.7000  137.5470 C   0  0  0  0  0  2  0  0  0  0  0  0
  1  7  1  0  0  0  0
  2  5  1  6  0  0  0
  2 12  1  0  0  0  0
  2  7  1  0  0  0  0
  3 10  1  0  0  0  0
  3 15  1  0  0  0  0
  4  9  1  0  0  0  0
  6 15  1  0  0  0  0
  7  3  1  0  0  0  0
  8 13  1  0  0  0  0
  9  1  2  0  0  0  0
 10 14  1  0  0  0  0
 11  1  1  0  0  0  0
 11 16  2  0  0  0  0
 12 20  1  0  0  0  0
 12  6  1  0  0  0  0
 14 25  1  0  0  0  0
 14 13  1  0  0  0  0
 15  8  1  0  0  0  0
 16 10  1  0  0  0  0
 17 19  1  0  0  0  0
 18 24  1  0  0  0  0
 19 23  1  0  0  0  0
 19 20  1  0  0  0  0
 20 18  1  0  0  0  0
 21 22  1  0  0  0  0
 21 24  1  0  0  0  0
 23 22  1  0  0  0  0
 25 26  1  0  0  0  0
 26 31  1  0  0  0  0
 27 26  1  0  0  0  0
 27 28  1  0  0  0  0
 29 27  2  0  0  0  0
 31 30  2  0  0  0  0
 32 34  1  0  0  0  0
 32 15  1  0  0  0  0
 33 34  1  0  0  0  0
M  END
>  <MODEL>
9

>  <REMARK>
 VINA RESULT:      -4.7      4.962      8.357
  Name = 
  7 active torsions:
  status: ('A' for Active; 'I' for Inactive)
    1  A    between atoms: C_7  and  C_23
    2  A    between atoms: O_12  and  C_23
    3  A    between atoms: O_12  and  C_28
    4  A    between atoms: C_14  and  N_25
    5  A    between atoms: C_17  and  C_29
    6  A    between atoms: C_23  and  C_27
    7  A    between atoms: C_29  and  C_31
                            x       y       z     vdW  Elec       q    Type
                         _______ _______ _______ _____ _____    ______ ____

>  <TORSDO>
F 7

$$$$
