=
 OpenBabel10262419333D

 31 34  0  0  1  0  0  0  0  0999 V2000
  189.2420  177.3320  143.5220 N   0  0  0  0  0  0  0  0  0  0  0  0
  188.4980  176.9770  144.7380 C   0  0  2  0  0  3  0  0  0  0  0  0
  187.3560  177.9670  145.0340 C   0  0  1  0  0  3  0  0  0  0  0  0
  184.8330  178.1930  144.5860 C   0  0  0  0  0  2  0  0  0  0  0  0
  186.1960  177.7270  144.0580 C   0  0  0  0  0  2  0  0  0  0  0  0
  189.4210  177.8510  146.9340 C   0  0  0  0  0  2  0  0  0  0  0  0
  184.9850  179.3400  145.5760 C   0  0  0  0  0  2  0  0  0  0  0  0
  189.4450  176.7140  145.9180 C   0  0  0  0  0  2  0  0  0  0  0  0
  185.7710  178.8900  146.8110 C   0  0  0  0  0  2  0  0  0  0  0  0
  187.8250  177.1560  148.5790 O   0  0  0  0  0  1  0  0  0  0  0  0
  186.8860  177.8790  146.4990 C   0  0  2  0  0  3  0  0  0  0  0  0
  188.0200  178.0430  147.5210 C   0  0  2  0  0  3  0  0  0  0  0  0
  190.5490  177.9550  143.5360 C   0  0  0  0  0  0  0  0  0  0  0  0
  190.7150  179.2110  143.9390 C   0  0  0  0  0  2  0  0  0  0  0  0
  191.7630  177.1980  143.0980 C   0  0  0  0  0  2  0  0  0  0  0  0
  191.7550  175.7940  143.6760 C   0  0  0  0  0  1  0  0  0  0  0  0
  188.6350  176.9580  142.2460 C   0  0  0  0  0  2  0  0  0  0  0  0
  188.7100  178.1050  141.2510 C   0  0  0  0  0  2  0  0  0  0  0  0
  189.5220  177.6900  140.0410 C   0  0  0  0  0  2  0  0  0  0  0  0
  188.6080  177.4930  138.8480 C   0  0  0  0  0  2  0  0  0  0  0  0
  187.5690  178.5130  138.8480 N   0  0  0  0  0  2  0  0  0  0  0  0
  182.5650  178.4280  140.3430 C   0  0  0  0  0  0  0  0  0  0  0  0
  184.9720  178.8040  140.5970 C   0  0  0  0  0  3  0  0  0  0  0  0
  184.4460  177.6260  137.3180 O   0  0  0  0  0  0  0  0  0  0  0  0
  185.7620  177.7600  137.2490 C   0  0  0  0  0  3  0  0  0  0  0  0
  181.3190  178.4540  140.8740 F   0  0  0  0  0  0  0  0  0  0  0  0
  186.2160  178.2340  138.4780 C   0  0  0  0  0  0  0  0  0  0  0  0
  183.6700  178.8270  141.1280 C   0  0  0  0  0  3  0  0  0  0  0  0
  184.0500  177.9870  138.5160 C   0  0  0  0  0  0  0  0  0  0  0  0
  185.1150  178.3750  139.2800 C   0  0  0  0  0  0  0  0  0  0  0  0
  182.7500  177.9980  139.0150 C   0  0  0  0  0  3  0  0  0  0  0  0
  1 13  1  0  0  0  0
  2  1  1  6  0  0  0
  2  3  1  0  0  0  0
  2  8  1  0  0  0  0
  3  5  1  6  0  0  0
  3 11  1  0  0  0  0
  4  7  1  0  0  0  0
  5  4  1  0  0  0  0
  6 12  1  0  0  0  0
  7  9  1  0  0  0  0
  8  6  1  0  0  0  0
 11  9  1  1  0  0  0
 11 12  1  0  0  0  0
 12 10  1  1  0  0  0
 13 14  2  0  0  0  0
 15 13  1  0  0  0  0
 15 16  1  0  0  0  0
 17  1  1  0  0  0  0
 18 17  1  0  0  0  0
 19 18  1  0  0  0  0
 20 21  1  0  0  0  0
 20 19  1  0  0  0  0
 22 26  1  0  0  0  0
 22 28  1  0  0  0  0
 23 28  2  0  0  0  0
 24 29  1  0  0  0  0
 25 24  1  0  0  0  0
 25 27  2  0  0  0  0
 27 21  1  0  0  0  0
 27 30  1  0  0  0  0
 29 31  1  0  0  0  0
 29 30  2  0  0  0  0
 30 23  1  0  0  0  0
 31 22  2  0  0  0  0
M  END
>  <MODEL>
1

>  <REMARK>
 VINA RESULT:      -8.1      0.000      0.000
  Name = 
  9 active torsions:
  status: ('A' for Active; 'I' for Inactive)
    1  A    between atoms: C_2  and  N_12
    2  A    between atoms: C_2  and  C_13
    3  A    between atoms: C_4  and  N_12
    4  A    between atoms: C_9  and  N_23
    5  A    between atoms: N_12  and  C_25
    6  A    between atoms: C_15  and  C_20
    7  A    between atoms: C_15  and  N_23
    8  A    between atoms: C_20  and  C_27
    9  A    between atoms: C_25  and  C_27
                            x       y       z     vdW  Elec       q    Type
                         _______ _______ _______ _____ _____    ______ ____

>  <TORSDO>
F 9

$$$$
=
 OpenBabel10262419333D

 31 34  0  0  1  0  0  0  0  0999 V2000
  189.2740  177.9810  140.9500 N   0  0  0  0  0  0  0  0  0  0  0  0
  189.6480  177.8560  139.5350 C   0  0  2  0  0  3  0  0  0  0  0  0
  188.6120  177.0550  138.7250 C   0  0  1  0  0  3  0  0  0  0  0  0
  186.5480  177.5000  137.2550 C   0  0  0  0  0  2  0  0  0  0  0  0
  187.3620  177.9140  138.4870 C   0  0  0  0  0  2  0  0  0  0  0  0
  191.1740  175.9230  138.9260 C   0  0  0  0  0  2  0  0  0  0  0  0
  186.7220  176.0190  136.9480 C   0  0  0  0  0  2  0  0  0  0  0  0
  191.0990  177.3780  139.3780 C   0  0  0  0  0  2  0  0  0  0  0  0
  188.1810  175.7050  136.6000 C   0  0  0  0  0  2  0  0  0  0  0  0
  191.3800  176.0430  136.5430 O   0  0  0  0  0  1  0  0  0  0  0  0
  189.1980  176.5360  137.3970 C   0  0  2  0  0  3  0  0  0  0  0  0
  190.4910  175.7270  137.5700 C   0  0  2  0  0  3  0  0  0  0  0  0
  189.9080  177.2320  142.0150 C   0  0  0  0  0  0  0  0  0  0  0  0
  189.4930  176.0140  142.3490 C   0  0  0  0  0  2  0  0  0  0  0  0
  191.0620  177.8090  142.7740 C   0  0  0  0  0  2  0  0  0  0  0  0
  191.5670  176.8210  143.8100 C   0  0  0  0  0  1  0  0  0  0  0  0
  188.2530  178.9750  141.2750 C   0  0  0  0  0  2  0  0  0  0  0  0
  187.0400  178.3190  141.9170 C   0  0  0  0  0  2  0  0  0  0  0  0
  185.7920  179.1200  141.6070 C   0  0  0  0  0  2  0  0  0  0  0  0
  184.8690  179.1220  142.8100 C   0  0  0  0  0  2  0  0  0  0  0  0
  185.2480  178.0570  143.7260 N   0  0  0  0  0  2  0  0  0  0  0  0
  188.7470  177.8770  147.6000 C   0  0  0  0  0  0  0  0  0  0  0  0
  187.9320  177.6190  145.3050 C   0  0  0  0  0  3  0  0  0  0  0  0
  185.2410  178.8290  147.2320 O   0  0  0  0  0  0  0  0  0  0  0  0
  184.6110  178.7610  146.0690 C   0  0  0  0  0  3  0  0  0  0  0  0
  189.7570  177.7710  148.4970 F   0  0  0  0  0  0  0  0  0  0  0  0
  185.5090  178.2910  145.1130 C   0  0  0  0  0  0  0  0  0  0  0  0
  188.9680  177.5190  146.2510 C   0  0  0  0  0  3  0  0  0  0  0  0
  186.4800  178.4290  147.0610 C   0  0  0  0  0  0  0  0  0  0  0  0
  186.6990  178.0820  145.7560 C   0  0  0  0  0  0  0  0  0  0  0  0
  187.4860  178.3400  148.0200 C   0  0  0  0  0  3  0  0  0  0  0  0
  1 17  1  0  0  0  0
  1 13  1  0  0  0  0
  2  1  1  1  0  0  0
  3  5  1  6  0  0  0
  3  2  1  0  0  0  0
  4  5  1  0  0  0  0
  6  8  1  0  0  0  0
  7  4  1  0  0  0  0
  8  2  1  0  0  0  0
  9  7  1  0  0  0  0
 11  9  1  1  0  0  0
 11 12  1  0  0  0  0
 11  3  1  0  0  0  0
 12 10  1  6  0  0  0
 12  6  1  0  0  0  0
 13 14  2  0  0  0  0
 13 15  1  0  0  0  0
 15 16  1  0  0  0  0
 17 18  1  0  0  0  0
 19 18  1  0  0  0  0
 19 20  1  0  0  0  0
 20 21  1  0  0  0  0
 21 27  1  0  0  0  0
 22 31  1  0  0  0  0
 22 26  1  0  0  0  0
 23 30  2  0  0  0  0
 23 28  1  0  0  0  0
 25 24  1  0  0  0  0
 27 30  1  0  0  0  0
 27 25  2  0  0  0  0
 28 22  2  0  0  0  0
 29 24  1  0  0  0  0
 29 31  2  0  0  0  0
 30 29  1  0  0  0  0
M  END
>  <MODEL>
2

>  <REMARK>
 VINA RESULT:      -7.9      2.984      7.454
  Name = 
  9 active torsions:
  status: ('A' for Active; 'I' for Inactive)
    1  A    between atoms: C_2  and  N_12
    2  A    between atoms: C_2  and  C_13
    3  A    between atoms: C_4  and  N_12
    4  A    between atoms: C_9  and  N_23
    5  A    between atoms: N_12  and  C_25
    6  A    between atoms: C_15  and  C_20
    7  A    between atoms: C_15  and  N_23
    8  A    between atoms: C_20  and  C_27
    9  A    between atoms: C_25  and  C_27
                            x       y       z     vdW  Elec       q    Type
                         _______ _______ _______ _____ _____    ______ ____

>  <TORSDO>
F 9

$$$$
=
 OpenBabel10262419333D

 31 34  0  0  1  0  0  0  0  0999 V2000
  189.2580  177.4010  143.3920 N   0  0  0  0  0  0  0  0  0  0  0  0
  188.5720  176.9870  144.6230 C   0  0  2  0  0  3  0  0  0  0  0  0
  187.4480  177.9610  145.0230 C   0  0  1  0  0  3  0  0  0  0  0  0
  184.9060  178.2110  144.7070 C   0  0  0  0  0  2  0  0  0  0  0  0
  186.2410  177.7710  144.0930 C   0  0  0  0  0  2  0  0  0  0  0  0
  189.6000  177.7490  146.8140 C   0  0  0  0  0  2  0  0  0  0  0  0
  185.1090  179.3060  145.7440 C   0  0  0  0  0  2  0  0  0  0  0  0
  189.5730  176.6640  145.7420 C   0  0  0  0  0  2  0  0  0  0  0  0
  185.9520  178.7950  146.9170 C   0  0  0  0  0  2  0  0  0  0  0  0
  188.0820  176.9740  148.4970 O   0  0  0  0  0  1  0  0  0  0  0  0
  187.0470  177.8010  146.5020 C   0  0  2  0  0  3  0  0  0  0  0  0
  188.2290  177.9120  147.4750 C   0  0  2  0  0  3  0  0  0  0  0  0
  190.5990  177.9450  143.3680 C   0  0  0  0  0  0  0  0  0  0  0  0
  190.8570  179.1760  143.8010 C   0  0  0  0  0  2  0  0  0  0  0  0
  191.7460  177.1320  142.8550 C   0  0  0  0  0  2  0  0  0  0  0  0
  192.0690  177.5070  141.4200 C   0  0  0  0  0  1  0  0  0  0  0  0
  188.5490  177.1730  142.1350 C   0  0  0  0  0  2  0  0  0  0  0  0
  188.2700  178.4860  141.4210 C   0  0  0  0  0  2  0  0  0  0  0  0
  188.7790  178.4200  139.9960 C   0  0  0  0  0  2  0  0  0  0  0  0
  187.6350  178.1010  139.0530 C   0  0  0  0  0  2  0  0  0  0  0  0
  188.1590  177.7300  137.7470 N   0  0  0  0  0  2  0  0  0  0  0  0
  192.2710  174.5210  137.4590 C   0  0  0  0  0  0  0  0  0  0  0  0
  191.1020  176.6320  137.8840 C   0  0  0  0  0  3  0  0  0  0  0  0
  188.6770  174.2910  136.8570 O   0  0  0  0  0  0  0  0  0  0  0  0
  187.8660  175.3250  137.0280 C   0  0  0  0  0  3  0  0  0  0  0  0
  193.4260  173.8140  137.4270 F   0  0  0  0  0  0  0  0  0  0  0  0
  188.6280  176.4110  137.4520 C   0  0  0  0  0  0  0  0  0  0  0  0
  192.2910  175.8800  137.8470 C   0  0  0  0  0  3  0  0  0  0  0  0
  189.9000  174.6670  137.1480 C   0  0  0  0  0  0  0  0  0  0  0  0
  189.9250  175.9810  137.5250 C   0  0  0  0  0  0  0  0  0  0  0  0
  191.0600  173.8980  137.1010 C   0  0  0  0  0  3  0  0  0  0  0  0
  2  1  1  6  0  0  0
  2  3  1  0  0  0  0
  2  8  1  0  0  0  0
  3  5  1  6  0  0  0
  3 11  1  0  0  0  0
  4  7  1  0  0  0  0
  5  4  1  0  0  0  0
  6 12  1  0  0  0  0
  7  9  1  0  0  0  0
  8  6  1  0  0  0  0
 11  9  1  1  0  0  0
 11 12  1  0  0  0  0
 12 10  1  1  0  0  0
 13  1  1  0  0  0  0
 13 14  2  0  0  0  0
 15 13  1  0  0  0  0
 16 15  1  0  0  0  0
 17  1  1  0  0  0  0
 18 17  1  0  0  0  0
 19 18  1  0  0  0  0
 20 19  1  0  0  0  0
 21 20  1  0  0  0  0
 22 28  1  0  0  0  0
 24 25  1  0  0  0  0
 24 29  1  0  0  0  0
 25 27  2  0  0  0  0
 26 22  1  0  0  0  0
 27 30  1  0  0  0  0
 27 21  1  0  0  0  0
 28 23  2  0  0  0  0
 29 30  2  0  0  0  0
 30 23  1  0  0  0  0
 31 29  1  0  0  0  0
 31 22  2  0  0  0  0
M  END
>  <MODEL>
3

>  <REMARK>
 VINA RESULT:      -7.8      3.210      4.661
  Name = 
  9 active torsions:
  status: ('A' for Active; 'I' for Inactive)
    1  A    between atoms: C_2  and  N_12
    2  A    between atoms: C_2  and  C_13
    3  A    between atoms: C_4  and  N_12
    4  A    between atoms: C_9  and  N_23
    5  A    between atoms: N_12  and  C_25
    6  A    between atoms: C_15  and  C_20
    7  A    between atoms: C_15  and  N_23
    8  A    between atoms: C_20  and  C_27
    9  A    between atoms: C_25  and  C_27
                            x       y       z     vdW  Elec       q    Type
                         _______ _______ _______ _____ _____    ______ ____

>  <TORSDO>
F 9

$$$$
=
 OpenBabel10262419333D

 31 34  0  0  1  0  0  0  0  0999 V2000
  190.0960  177.2080  141.6050 N   0  0  0  0  0  0  0  0  0  0  0  0
  190.7880  177.4890  140.3410 C   0  0  2  0  0  3  0  0  0  0  0  0
  190.5750  176.3770  139.2970 C   0  0  1  0  0  3  0  0  0  0  0  0
  189.0020  175.8500  137.3300 C   0  0  0  0  0  2  0  0  0  0  0  0
  189.1530  176.4650  138.7270 C   0  0  0  0  0  2  0  0  0  0  0  0
  193.2130  176.7600  140.1810 C   0  0  0  0  0  2  0  0  0  0  0  0
  190.0220  174.7430  137.1000 C   0  0  0  0  0  2  0  0  0  0  0  0
  192.2550  177.8780  140.5780 C   0  0  0  0  0  2  0  0  0  0  0  0
  191.4490  175.2990  137.1530 C   0  0  0  0  0  2  0  0  0  0  0  0
  193.8560  177.2860  137.9340 O   0  0  0  0  0  1  0  0  0  0  0  0
  191.6330  176.4290  138.1780 C   0  0  2  0  0  3  0  0  0  0  0  0
  193.0780  176.4130  138.6960 C   0  0  2  0  0  3  0  0  0  0  0  0
  190.7800  177.0100  142.8660 C   0  0  0  0  0  0  0  0  0  0  0  0
  191.5810  175.9680  143.0640 C   0  0  0  0  0  2  0  0  0  0  0  0
  190.6100  177.9830  143.9900 C   0  0  0  0  0  2  0  0  0  0  0  0
  191.2730  179.3070  143.6560 C   0  0  0  0  0  1  0  0  0  0  0  0
  188.6350  177.2040  141.5690 C   0  0  0  0  0  2  0  0  0  0  0  0
  188.0910  178.6170  141.4240 C   0  0  0  0  0  2  0  0  0  0  0  0
  186.7200  178.5810  140.7790 C   0  0  0  0  0  2  0  0  0  0  0  0
  185.7050  179.2470  141.6870 C   0  0  0  0  0  2  0  0  0  0  0  0
  185.0900  178.2520  142.5540 N   0  0  0  0  0  2  0  0  0  0  0  0
  187.0320  178.1270  147.4010 C   0  0  0  0  0  0  0  0  0  0  0  0
  187.0680  177.8620  144.9660 C   0  0  0  0  0  3  0  0  0  0  0  0
  183.8520  179.0100  145.8370 O   0  0  0  0  0  0  0  0  0  0  0  0
  183.6660  178.9340  144.5280 C   0  0  0  0  0  3  0  0  0  0  0  0
  187.6690  178.0380  148.5930 F   0  0  0  0  0  0  0  0  0  0  0  0
  184.8480  178.4860  143.9440 C   0  0  0  0  0  0  0  0  0  0  0  0
  187.7140  177.7790  146.2140 C   0  0  0  0  0  3  0  0  0  0  0  0
  185.0810  178.6350  146.1070 C   0  0  0  0  0  0  0  0  0  0  0  0
  185.7460  178.2980  144.9610 C   0  0  0  0  0  0  0  0  0  0  0  0
  185.6940  178.5630  147.3560 C   0  0  0  0  0  3  0  0  0  0  0  0
  1 13  1  0  0  0  0
  2  8  1  0  0  0  0
  2  1  1  1  0  0  0
  3  5  1  6  0  0  0
  3  2  1  0  0  0  0
  4  5  1  0  0  0  0
  6  8  1  0  0  0  0
  7  9  1  0  0  0  0
  7  4  1  0  0  0  0
 11  9  1  6  0  0  0
 11 12  1  0  0  0  0
 11  3  1  0  0  0  0
 12 10  1  6  0  0  0
 12  6  1  0  0  0  0
 13 14  2  0  0  0  0
 13 15  1  0  0  0  0
 16 15  1  0  0  0  0
 17  1  1  0  0  0  0
 18 17  1  0  0  0  0
 19 18  1  0  0  0  0
 19 20  1  0  0  0  0
 20 21  1  0  0  0  0
 21 27  1  0  0  0  0
 22 26  1  0  0  0  0
 23 28  1  0  0  0  0
 24 29  1  0  0  0  0
 25 24  1  0  0  0  0
 27 25  2  0  0  0  0
 27 30  1  0  0  0  0
 28 22  2  0  0  0  0
 29 31  2  0  0  0  0
 30 23  2  0  0  0  0
 30 29  1  0  0  0  0
 31 22  1  0  0  0  0
M  END
>  <MODEL>
4

>  <REMARK>
 VINA RESULT:      -7.4      3.300      7.064
  Name = 
  9 active torsions:
  status: ('A' for Active; 'I' for Inactive)
    1  A    between atoms: C_2  and  N_12
    2  A    between atoms: C_2  and  C_13
    3  A    between atoms: C_4  and  N_12
    4  A    between atoms: C_9  and  N_23
    5  A    between atoms: N_12  and  C_25
    6  A    between atoms: C_15  and  C_20
    7  A    between atoms: C_15  and  N_23
    8  A    between atoms: C_20  and  C_27
    9  A    between atoms: C_25  and  C_27
                            x       y       z     vdW  Elec       q    Type
                         _______ _______ _______ _____ _____    ______ ____

>  <TORSDO>
F 9

$$$$
=
 OpenBabel10262419333D

 31 34  0  0  1  0  0  0  0  0999 V2000
  189.2860  177.3690  143.2760 N   0  0  0  0  0  0  0  0  0  0  0  0
  188.5740  176.9650  144.4960 C   0  0  2  0  0  3  0  0  0  0  0  0
  187.4510  177.9490  144.8710 C   0  0  1  0  0  3  0  0  0  0  0  0
  184.9180  178.2170  144.5080 C   0  0  0  0  0  2  0  0  0  0  0  0
  186.2600  177.7650  143.9200 C   0  0  0  0  0  2  0  0  0  0  0  0
  189.5690  177.7290  146.7020 C   0  0  0  0  0  2  0  0  0  0  0  0
  185.1100  179.3160  145.5450 C   0  0  0  0  0  2  0  0  0  0  0  0
  189.5520  176.6400  145.6350 C   0  0  0  0  0  2  0  0  0  0  0  0
  185.9270  178.8030  146.7350 C   0  0  0  0  0  2  0  0  0  0  0  0
  188.0150  176.9720  148.3600 O   0  0  0  0  0  1  0  0  0  0  0  0
  187.0220  177.7980  146.3430 C   0  0  2  0  0  3  0  0  0  0  0  0
  188.1880  177.9050  147.3380 C   0  0  2  0  0  3  0  0  0  0  0  0
  190.6060  177.9630  143.2790 C   0  0  0  0  0  0  0  0  0  0  0  0
  190.8020  179.2180  143.6710 C   0  0  0  0  0  2  0  0  0  0  0  0
  191.8010  177.1750  142.8420 C   0  0  0  0  0  2  0  0  0  0  0  0
  192.1760  177.5220  141.4120 C   0  0  0  0  0  1  0  0  0  0  0  0
  188.6290  177.0760  142.0040 C   0  0  0  0  0  2  0  0  0  0  0  0
  188.4230  178.3460  141.1930 C   0  0  0  0  0  2  0  0  0  0  0  0
  189.0340  178.1880  139.8160 C   0  0  0  0  0  2  0  0  0  0  0  0
  188.0190  177.5780  138.8690 C   0  0  0  0  0  2  0  0  0  0  0  0
  187.0390  178.5810  138.4810 N   0  0  0  0  0  2  0  0  0  0  0  0
  182.8780  176.3840  136.2140 C   0  0  0  0  0  0  0  0  0  0  0  0
  185.2410  176.9790  136.4590 C   0  0  0  0  0  3  0  0  0  0  0  0
  183.5310  178.3660  139.2110 O   0  0  0  0  0  0  0  0  0  0  0  0
  184.7460  178.7900  139.5240 C   0  0  0  0  0  3  0  0  0  0  0  0
  181.8980  175.7670  135.5100 F   0  0  0  0  0  0  0  0  0  0  0  0
  185.6290  178.3450  138.5440 C   0  0  0  0  0  0  0  0  0  0  0  0
  184.2100  176.3430  135.7450 C   0  0  0  0  0  3  0  0  0  0  0  0
  183.6010  177.6830  138.0910 C   0  0  0  0  0  0  0  0  0  0  0  0
  184.8890  177.6390  137.6330 C   0  0  0  0  0  0  0  0  0  0  0  0
  182.5600  177.0630  137.4060 C   0  0  0  0  0  3  0  0  0  0  0  0
  1 13  1  0  0  0  0
  2  1  1  6  0  0  0
  2  3  1  0  0  0  0
  2  8  1  0  0  0  0
  3  5  1  6  0  0  0
  3 11  1  0  0  0  0
  4  7  1  0  0  0  0
  5  4  1  0  0  0  0
  6 12  1  0  0  0  0
  7  9  1  0  0  0  0
  8  6  1  0  0  0  0
 11  9  1  1  0  0  0
 11 12  1  0  0  0  0
 12 10  1  1  0  0  0
 13 14  2  0  0  0  0
 15 13  1  0  0  0  0
 16 15  1  0  0  0  0
 17  1  1  0  0  0  0
 18 17  1  0  0  0  0
 19 18  1  0  0  0  0
 20 19  1  0  0  0  0
 21 27  1  0  0  0  0
 21 20  1  0  0  0  0
 22 31  1  0  0  0  0
 23 30  2  0  0  0  0
 24 25  1  0  0  0  0
 26 22  1  0  0  0  0
 27 25  2  0  0  0  0
 28 22  2  0  0  0  0
 28 23  1  0  0  0  0
 29 24  1  0  0  0  0
 30 29  1  0  0  0  0
 30 27  1  0  0  0  0
 31 29  2  0  0  0  0
M  END
>  <MODEL>
5

>  <REMARK>
 VINA RESULT:      -7.3      1.502      2.157
  Name = 
  9 active torsions:
  status: ('A' for Active; 'I' for Inactive)
    1  A    between atoms: C_2  and  N_12
    2  A    between atoms: C_2  and  C_13
    3  A    between atoms: C_4  and  N_12
    4  A    between atoms: C_9  and  N_23
    5  A    between atoms: N_12  and  C_25
    6  A    between atoms: C_15  and  C_20
    7  A    between atoms: C_15  and  N_23
    8  A    between atoms: C_20  and  C_27
    9  A    between atoms: C_25  and  C_27
                            x       y       z     vdW  Elec       q    Type
                         _______ _______ _______ _____ _____    ______ ____

>  <TORSDO>
F 9

$$$$
=
 OpenBabel10262419333D

 31 34  0  0  1  0  0  0  0  0999 V2000
  190.0020  177.0750  138.7100 N   0  0  0  0  0  0  0  0  0  0  0  0
  190.3670  176.3450  137.4890 C   0  0  2  0  0  3  0  0  0  0  0  0
  189.6120  175.0090  137.3580 C   0  0  1  0  0  3  0  0  0  0  0  0
  187.4800  174.0980  136.2420 C   0  0  0  0  0  2  0  0  0  0  0  0
  188.1530  175.2750  136.9590 C   0  0  0  0  0  2  0  0  0  0  0  0
  192.4010  174.8350  137.6270 C   0  0  0  0  0  2  0  0  0  0  0  0
  188.0960  172.7700  136.6590 C   0  0  0  0  0  2  0  0  0  0  0  0
  191.8910  176.2410  137.3300 C   0  0  0  0  0  2  0  0  0  0  0  0
  189.5730  172.7050  136.2570 C   0  0  0  0  0  2  0  0  0  0  0  0
  192.5090  173.7680  135.4850 O   0  0  0  0  0  1  0  0  0  0  0  0
  190.3000  174.0540  136.3640 C   0  0  2  0  0  3  0  0  0  0  0  0
  191.7840  173.8070  136.6760 C   0  0  2  0  0  3  0  0  0  0  0  0
  189.1020  178.2090  138.7260 C   0  0  0  0  0  0  0  0  0  0  0  0
  188.3240  178.4630  139.7740 C   0  0  0  0  0  2  0  0  0  0  0  0
  189.0240  179.1410  137.5580 C   0  0  0  0  0  2  0  0  0  0  0  0
  187.7530  178.8960  136.7640 C   0  0  0  0  0  1  0  0  0  0  0  0
  190.5360  176.5590  139.9690 C   0  0  0  0  0  2  0  0  0  0  0  0
  191.6740  177.4320  140.4750 C   0  0  0  0  0  2  0  0  0  0  0  0
  191.6860  177.4430  141.9900 C   0  0  0  0  0  2  0  0  0  0  0  0
  190.2730  177.2840  142.5180 C   0  0  0  0  0  2  0  0  0  0  0  0
  190.2800  176.4300  143.6970 N   0  0  0  0  0  2  0  0  0  0  0  0
  186.2190  178.1060  146.5240 C   0  0  0  0  0  0  0  0  0  0  0  0
  187.3710  177.2950  144.5190 C   0  0  0  0  0  3  0  0  0  0  0  0
  189.7700  177.4740  147.0930 O   0  0  0  0  0  0  0  0  0  0  0  0
  190.5700  177.0320  146.1340 C   0  0  0  0  0  3  0  0  0  0  0  0
  185.0800  178.5290  147.1230 F   0  0  0  0  0  0  0  0  0  0  0  0
  189.8160  176.8770  144.9740 C   0  0  0  0  0  0  0  0  0  0  0  0
  186.1980  177.7340  145.1610 C   0  0  0  0  0  3  0  0  0  0  0  0
  188.5600  177.6060  146.6010 C   0  0  0  0  0  0  0  0  0  0  0  0
  188.5340  177.2460  145.2820 C   0  0  0  0  0  0  0  0  0  0  0  0
  187.4160  178.0440  147.2630 C   0  0  0  0  0  3  0  0  0  0  0  0
  1 13  1  0  0  0  0
  1 17  1  0  0  0  0
  2  1  1  1  0  0  0
  3  5  1  6  0  0  0
  3  2  1  0  0  0  0
  4  7  1  0  0  0  0
  4  5  1  0  0  0  0
  8  2  1  0  0  0  0
  8  6  1  0  0  0  0
  9  7  1  0  0  0  0
 11  9  1  1  0  0  0
 11 12  1  0  0  0  0
 11  3  1  0  0  0  0
 12 10  1  6  0  0  0
 12  6  1  0  0  0  0
 13 14  2  0  0  0  0
 15 13  1  0  0  0  0
 16 15  1  0  0  0  0
 17 18  1  0  0  0  0
 18 19  1  0  0  0  0
 19 20  1  0  0  0  0
 20 21  1  0  0  0  0
 21 27  1  0  0  0  0
 22 26  1  0  0  0  0
 22 31  1  0  0  0  0
 23 28  1  0  0  0  0
 23 30  2  0  0  0  0
 25 24  1  0  0  0  0
 27 30  1  0  0  0  0
 27 25  2  0  0  0  0
 28 22  2  0  0  0  0
 29 24  1  0  0  0  0
 29 31  2  0  0  0  0
 30 29  1  0  0  0  0
M  END
>  <MODEL>
6

>  <REMARK>
 VINA RESULT:      -7.3      3.444      8.376
  Name = 
  9 active torsions:
  status: ('A' for Active; 'I' for Inactive)
    1  A    between atoms: C_2  and  N_12
    2  A    between atoms: C_2  and  C_13
    3  A    between atoms: C_4  and  N_12
    4  A    between atoms: C_9  and  N_23
    5  A    between atoms: N_12  and  C_25
    6  A    between atoms: C_15  and  C_20
    7  A    between atoms: C_15  and  N_23
    8  A    between atoms: C_20  and  C_27
    9  A    between atoms: C_25  and  C_27
                            x       y       z     vdW  Elec       q    Type
                         _______ _______ _______ _____ _____    ______ ____

>  <TORSDO>
F 9

$$$$
=
 OpenBabel10262419333D

 31 34  0  0  1  0  0  0  0  0999 V2000
  186.8990  178.0220  145.0950 N   0  0  0  0  0  0  0  0  0  0  0  0
  188.2560  178.2290  145.6170 C   0  0  2  0  0  3  0  0  0  0  0  0
  189.3130  177.4340  144.8300 C   0  0  1  0  0  3  0  0  0  0  0  0
  190.9350  177.7970  142.8650 C   0  0  0  0  0  2  0  0  0  0  0  0
  189.5590  178.1020  143.4690 C   0  0  0  0  0  2  0  0  0  0  0  0
  188.9850  176.7270  147.5270 C   0  0  0  0  0  2  0  0  0  0  0  0
  191.4620  176.4490  143.3410 C   0  0  0  0  0  2  0  0  0  0  0  0
  188.3070  178.0370  147.1400 C   0  0  0  0  0  2  0  0  0  0  0  0
  191.6710  176.4530  144.8590 C   0  0  0  0  0  2  0  0  0  0  0  0
  191.2690  177.3240  147.9290 O   0  0  0  0  0  1  0  0  0  0  0  0
  190.6250  177.2780  145.6240 C   0  0  2  0  0  3  0  0  0  0  0  0
  190.4290  176.6770  147.0230 C   0  0  2  0  0  3  0  0  0  0  0  0
  185.7050  178.5070  145.7550 C   0  0  0  0  0  0  0  0  0  0  0  0
  185.3460  178.0640  146.9560 C   0  0  0  0  0  2  0  0  0  0  0  0
  184.8330  179.5340  145.1020 C   0  0  0  0  0  2  0  0  0  0  0  0
  183.4190  179.0080  144.9380 C   0  0  0  0  0  1  0  0  0  0  0  0
  186.7860  177.3500  143.8030 C   0  0  0  0  0  2  0  0  0  0  0  0
  186.3590  178.3250  142.7170 C   0  0  0  0  0  2  0  0  0  0  0  0
  185.0470  177.8780  142.1060 C   0  0  0  0  0  2  0  0  0  0  0  0
  184.5640  178.9110  141.1070 C   0  0  0  0  0  2  0  0  0  0  0  0
  185.6810  179.3780  140.3000 N   0  0  0  0  0  2  0  0  0  0  0  0
  189.8720  177.1300  138.1400 C   0  0  0  0  0  0  0  0  0  0  0  0
  188.6270  178.3800  139.8390 C   0  0  0  0  0  3  0  0  0  0  0  0
  186.3450  177.5380  137.2900 O   0  0  0  0  0  0  0  0  0  0  0  0
  185.5000  178.1860  138.0790 C   0  0  0  0  0  3  0  0  0  0  0  0
  191.0420  176.6020  137.7050 F   0  0  0  0  0  0  0  0  0  0  0  0
  186.2010  178.6290  139.1980 C   0  0  0  0  0  0  0  0  0  0  0  0
  189.8310  177.8220  139.3710 C   0  0  0  0  0  3  0  0  0  0  0  0
  187.5320  177.5500  137.8490 C   0  0  0  0  0  0  0  0  0  0  0  0
  187.4980  178.2180  139.0420 C   0  0  0  0  0  0  0  0  0  0  0  0
  188.7090  176.9880  137.3600 C   0  0  0  0  0  3  0  0  0  0  0  0
  1 13  1  0  0  0  0
  2  1  1  6  0  0  0
  2  8  1  0  0  0  0
  3  5  1  6  0  0  0
  3  2  1  0  0  0  0
  3 11  1  0  0  0  0
  4  7  1  0  0  0  0
  4  5  1  0  0  0  0
  7  9  1  0  0  0  0
  8  6  1  0  0  0  0
 11  9  1  6  0  0  0
 11 12  1  0  0  0  0
 12  6  1  0  0  0  0
 12 10  1  1  0  0  0
 13 14  2  0  0  0  0
 15 13  1  0  0  0  0
 16 15  1  0  0  0  0
 17  1  1  0  0  0  0
 18 17  1  0  0  0  0
 19 18  1  0  0  0  0
 20 19  1  0  0  0  0
 21 20  1  0  0  0  0
 22 28  1  0  0  0  0
 24 29  1  0  0  0  0
 24 25  1  0  0  0  0
 25 27  2  0  0  0  0
 26 22  1  0  0  0  0
 27 21  1  0  0  0  0
 28 23  2  0  0  0  0
 29 30  2  0  0  0  0
 30 27  1  0  0  0  0
 30 23  1  0  0  0  0
 31 29  1  0  0  0  0
 31 22  2  0  0  0  0
M  END
>  <MODEL>
7

>  <REMARK>
 VINA RESULT:      -7.2      2.428      4.986
  Name = 
  9 active torsions:
  status: ('A' for Active; 'I' for Inactive)
    1  A    between atoms: C_2  and  N_12
    2  A    between atoms: C_2  and  C_13
    3  A    between atoms: C_4  and  N_12
    4  A    between atoms: C_9  and  N_23
    5  A    between atoms: N_12  and  C_25
    6  A    between atoms: C_15  and  C_20
    7  A    between atoms: C_15  and  N_23
    8  A    between atoms: C_20  and  C_27
    9  A    between atoms: C_25  and  C_27
                            x       y       z     vdW  Elec       q    Type
                         _______ _______ _______ _____ _____    ______ ____

>  <TORSDO>
F 9

$$$$
=
 OpenBabel10262419333D

 31 34  0  0  1  0  0  0  0  0999 V2000
  182.4180  178.5730  141.6310 N   0  0  0  0  0  0  0  0  0  0  0  0
  181.6880  178.6430  140.3580 C   0  0  2  0  0  3  0  0  0  0  0  0
  181.4060  177.2500  139.7680 C   0  0  1  0  0  3  0  0  0  0  0  0
  179.5200  175.4990  139.7690 C   0  0  0  0  0  2  0  0  0  0  0  0
  180.2820  176.5680  140.5610 C   0  0  0  0  0  2  0  0  0  0  0  0
  183.0850  178.9180  138.2570 C   0  0  0  0  0  2  0  0  0  0  0  0
  180.3990  174.8760  138.6930 C   0  0  0  0  0  2  0  0  0  0  0  0
  182.3490  179.6320  139.3860 C   0  0  0  0  0  2  0  0  0  0  0  0
  180.8230  175.9270  137.6620 C   0  0  0  0  0  2  0  0  0  0  0  0
  181.5010  178.8350  136.4630 O   0  0  0  0  0  1  0  0  0  0  0  0
  181.0700  177.3180  138.2650 C   0  0  2  0  0  3  0  0  0  0  0  0
  182.1300  178.0530  137.4310 C   0  0  2  0  0  3  0  0  0  0  0  0
  181.8730  179.0300  142.8920 C   0  0  0  0  0  0  0  0  0  0  0  0
  182.5870  178.9860  144.0130 C   0  0  0  0  0  2  0  0  0  0  0  0
  180.4810  179.5740  142.9730 C   0  0  0  0  0  2  0  0  0  0  0  0
  179.5900  178.6450  143.7780 C   0  0  0  0  0  1  0  0  0  0  0  0
  183.7330  177.9370  141.6010 C   0  0  0  0  0  2  0  0  0  0  0  0
  184.8380  178.9760  141.4930 C   0  0  0  0  0  2  0  0  0  0  0  0
  185.8290  178.8000  142.6240 C   0  0  0  0  0  2  0  0  0  0  0  0
  187.1500  178.2920  142.0790 C   0  0  0  0  0  2  0  0  0  0  0  0
  187.5420  177.0790  142.7820 N   0  0  0  0  0  2  0  0  0  0  0  0
  188.2610  177.8820  147.8930 C   0  0  0  0  0  0  0  0  0  0  0  0
  186.9880  177.7490  145.8040 C   0  0  0  0  0  3  0  0  0  0  0  0
  190.3290  176.9280  145.0390 O   0  0  0  0  0  0  0  0  0  0  0  0
  189.8300  176.8010  143.8180 C   0  0  0  0  0  3  0  0  0  0  0  0
  188.2920  178.1290  149.2250 F   0  0  0  0  0  0  0  0  0  0  0  0
  188.4680  177.0860  143.8720 C   0  0  0  0  0  0  0  0  0  0  0  0
  187.0420  177.9980  147.1880 C   0  0  0  0  0  3  0  0  0  0  0  0
  189.3590  177.2760  145.8530 C   0  0  0  0  0  0  0  0  0  0  0  0
  188.1770  177.3880  145.1760 C   0  0  0  0  0  0  0  0  0  0  0  0
  189.4430  177.5160  147.2220 C   0  0  0  0  0  3  0  0  0  0  0  0
  1 13  1  0  0  0  0
  2  1  1  1  0  0  0
  3  2  1  0  0  0  0
  3  5  1  1  0  0  0
  4  5  1  0  0  0  0
  6  8  1  0  0  0  0
  7  4  1  0  0  0  0
  8  2  1  0  0  0  0
  9  7  1  0  0  0  0
 11  9  1  6  0  0  0
 11  3  1  0  0  0  0
 12 10  1  6  0  0  0
 12  6  1  0  0  0  0
 12 11  1  0  0  0  0
 13 15  1  0  0  0  0
 13 14  2  0  0  0  0
 15 16  1  0  0  0  0
 17  1  1  0  0  0  0
 18 17  1  0  0  0  0
 18 19  1  0  0  0  0
 20 19  1  0  0  0  0
 20 21  1  0  0  0  0
 21 27  1  0  0  0  0
 22 26  1  0  0  0  0
 23 28  1  0  0  0  0
 24 29  1  0  0  0  0
 25 27  2  0  0  0  0
 25 24  1  0  0  0  0
 27 30  1  0  0  0  0
 28 22  2  0  0  0  0
 29 31  2  0  0  0  0
 30 23  2  0  0  0  0
 30 29  1  0  0  0  0
 31 22  1  0  0  0  0
M  END
>  <MODEL>
8

>  <REMARK>
 VINA RESULT:      -7.2      3.165      8.777
  Name = 
  9 active torsions:
  status: ('A' for Active; 'I' for Inactive)
    1  A    between atoms: C_2  and  N_12
    2  A    between atoms: C_2  and  C_13
    3  A    between atoms: C_4  and  N_12
    4  A    between atoms: C_9  and  N_23
    5  A    between atoms: N_12  and  C_25
    6  A    between atoms: C_15  and  C_20
    7  A    between atoms: C_15  and  N_23
    8  A    between atoms: C_20  and  C_27
    9  A    between atoms: C_25  and  C_27
                            x       y       z     vdW  Elec       q    Type
                         _______ _______ _______ _____ _____    ______ ____

>  <TORSDO>
F 9

$$$$
=
 OpenBabel10262419333D

 31 34  0  0  1  0  0  0  0  0999 V2000
  187.9240  177.8370  138.5220 N   0  0  0  0  0  0  0  0  0  0  0  0
  186.6110  178.4960  138.4930 C   0  0  2  0  0  3  0  0  0  0  0  0
  185.7830  178.2070  139.7590 C   0  0  1  0  0  3  0  0  0  0  0  0
  185.3190  179.2810  142.0500 C   0  0  0  0  0  2  0  0  0  0  0  0
  186.3420  179.0100  140.9410 C   0  0  0  0  0  2  0  0  0  0  0  0
  184.7310  177.2420  137.3400 C   0  0  0  0  0  2  0  0  0  0  0  0
  184.2510  178.1950  142.0940 C   0  0  0  0  0  2  0  0  0  0  0  0
  185.8790  178.2310  137.1690 C   0  0  0  0  0  2  0  0  0  0  0  0
  183.4470  178.1710  140.7900 C   0  0  0  0  0  2  0  0  0  0  0  0
  182.7970  178.6150  137.6710 O   0  0  0  0  0  1  0  0  0  0  0  0
  184.2850  178.4930  139.5430 C   0  0  2  0  0  3  0  0  0  0  0  0
  183.6870  177.7670  138.3290 C   0  0  2  0  0  3  0  0  0  0  0  0
  188.3400  176.8400  137.5590 C   0  0  0  0  0  0  0  0  0  0  0  0
  187.8650  175.5990  137.5940 C   0  0  0  0  0  2  0  0  0  0  0  0
  189.3220  177.1800  136.4810 C   0  0  0  0  0  2  0  0  0  0  0  0
  190.4280  176.1420  136.4190 C   0  0  0  0  0  1  0  0  0  0  0  0
  188.8630  178.2860  139.5480 C   0  0  0  0  0  2  0  0  0  0  0  0
  189.4660  177.1030  140.2880 C   0  0  0  0  0  2  0  0  0  0  0  0
  190.9750  177.2310  140.3290 C   0  0  0  0  0  2  0  0  0  0  0  0
  191.4430  177.3690  141.7650 C   0  0  0  0  0  2  0  0  0  0  0  0
  190.6900  176.4620  142.6190 N   0  0  0  0  0  2  0  0  0  0  0  0
  187.0090  177.6260  146.1370 C   0  0  0  0  0  0  0  0  0  0  0  0
  187.8950  177.0760  143.9200 C   0  0  0  0  0  3  0  0  0  0  0  0
  190.6290  177.1500  146.1410 O   0  0  0  0  0  0  0  0  0  0  0  0
  191.3020  176.8470  145.0410 C   0  0  0  0  0  3  0  0  0  0  0  0
  185.9500  177.9240  146.9280 F   0  0  0  0  0  0  0  0  0  0  0  0
  190.3960  176.7590  143.9870 C   0  0  0  0  0  0  0  0  0  0  0  0
  186.8080  177.3840  144.7590 C   0  0  0  0  0  3  0  0  0  0  0  0
  189.3560  177.2570  145.8380 C   0  0  0  0  0  0  0  0  0  0  0  0
  189.1560  177.0220  144.5060 C   0  0  0  0  0  0  0  0  0  0  0  0
  188.3010  177.5640  146.6920 C   0  0  0  0  0  3  0  0  0  0  0  0
  1 17  1  0  0  0  0
  2  1  1  1  0  0  0
  2  3  1  0  0  0  0
  3  5  1  1  0  0  0
  4  7  1  0  0  0  0
  5  4  1  0  0  0  0
  6 12  1  0  0  0  0
  8  6  1  0  0  0  0
  8  2  1  0  0  0  0
  9  7  1  0  0  0  0
 11  3  1  0  0  0  0
 11  9  1  1  0  0  0
 12 10  1  6  0  0  0
 12 11  1  0  0  0  0
 13 14  2  0  0  0  0
 13  1  1  0  0  0  0
 15 13  1  0  0  0  0
 16 15  1  0  0  0  0
 17 18  1  0  0  0  0
 18 19  1  0  0  0  0
 19 20  1  0  0  0  0
 20 21  1  0  0  0  0
 21 27  1  0  0  0  0
 22 31  1  0  0  0  0
 22 26  1  0  0  0  0
 23 30  2  0  0  0  0
 23 28  1  0  0  0  0
 25 24  1  0  0  0  0
 27 30  1  0  0  0  0
 27 25  2  0  0  0  0
 28 22  2  0  0  0  0
 29 24  1  0  0  0  0
 29 31  2  0  0  0  0
 30 29  1  0  0  0  0
M  END
>  <MODEL>
9

>  <REMARK>
 VINA RESULT:      -7.1      2.049      7.165
  Name = 
  9 active torsions:
  status: ('A' for Active; 'I' for Inactive)
    1  A    between atoms: C_2  and  N_12
    2  A    between atoms: C_2  and  C_13
    3  A    between atoms: C_4  and  N_12
    4  A    between atoms: C_9  and  N_23
    5  A    between atoms: N_12  and  C_25
    6  A    between atoms: C_15  and  C_20
    7  A    between atoms: C_15  and  N_23
    8  A    between atoms: C_20  and  C_27
    9  A    between atoms: C_25  and  C_27
                            x       y       z     vdW  Elec       q    Type
                         _______ _______ _______ _____ _____    ______ ____

>  <TORSDO>
F 9

$$$$
