=
 OpenBabel10262421333D

 32 36  0  0  1  0  0  0  0  0999 V2000
  188.7250  177.1460  147.0010 C   0  0  2  0  0  3  0  0  0  0  0  0
  189.3590  177.6640  142.7810 C   0  0  0  0  0  0  0  0  0  0  0  0
  184.7200  178.8870  142.0530 C   0  0  0  0  0  3  0  0  0  0  0  0
  185.0110  179.0080  140.6950 C   0  0  0  0  0  3  0  0  0  0  0  0
  190.2180  177.1530  144.9860 C   0  0  0  0  0  0  0  0  0  0  0  0
  187.8810  177.7430  144.7100 C   0  0  0  0  0  3  0  0  0  0  0  0
  188.0680  175.9420  147.1760 F   0  0  0  0  0  0  0  0  0  0  0  0
  185.7310  178.5150  142.9390 C   0  0  0  0  0  3  0  0  0  0  0  0
  188.0750  177.8950  143.3280 C   0  0  0  0  0  0  0  0  0  0  0  0
  187.0280  178.2680  142.4660 C   0  0  0  0  0  0  0  0  0  0  0  0
  188.5710  178.1570  140.5900 C   0  0  0  0  0  0  0  0  0  0  0  0
  191.1880  176.7950  147.1310 C   0  0  0  0  0  0  0  0  0  0  0  0
  188.9470  177.3810  145.5370 C   0  0  0  0  0  0  0  0  0  0  0  0
  191.3130  176.8060  145.8370 N   0  0  0  0  0  0  0  0  0  0  0  0
  189.9590  177.1190  147.7260 O   0  0  0  0  0  0  0  0  0  0  0  0
  186.2700  178.7670  140.2410 N   0  0  0  0  0  0  0  0  0  0  0  0
  187.2800  178.4030  141.0820 C   0  0  0  0  0  0  0  0  0  0  0  0
  190.4200  177.2960  143.6120 C   0  0  0  0  0  3  0  0  0  0  0  0
  189.5680  177.8030  141.4450 N   0  0  0  0  0  0  0  0  0  0  0  0
  192.3390  176.4740  147.9810 C   0  0  0  0  0  0  0  0  0  0  0  0
  193.0130  175.4290  147.7660 O   0  0  0  0  0  0  0  0  0  0  0  0
  192.6790  177.3340  149.0270 O   0  0  0  0  0  0  0  0  0  0  0  0
  193.6970  177.0110  149.9610 C   0  0  0  0  0  1  0  0  0  0  0  0
  188.8880  178.3230  139.1380 C   0  0  0  0  0  2  0  0  0  0  0  0
  186.5830  174.9840  137.3890 C   0  0  0  0  0  1  0  0  0  0  0  0
  187.8740  177.1190  137.4050 C   0  0  0  0  0  2  0  0  0  0  0  0
  190.2100  176.8030  137.9020 C   0  0  2  0  0  3  0  0  0  0  0  0
  190.2050  175.8390  136.7010 C   0  0  0  0  0  2  0  0  0  0  0  0
  188.9770  174.9350  136.7240 C   0  0  0  0  0  2  0  0  0  0  0  0
  187.6920  175.7650  136.7130 C   0  0  1  0  0  3  0  0  0  0  0  0
  191.1380  176.2460  138.9680 C   0  0  0  0  0  1  0  0  0  0  0  0
  188.8690  177.0260  138.4750 N   0  0  0  0  0  0  0  0  0  0  0  0
  1  7  1  6  0  0  0
  1 15  1  0  0  0  0
  2  9  2  0  0  0  0
  2 18  1  0  0  0  0
  3  8  1  0  0  0  0
  4  3  2  0  0  0  0
  5 13  1  0  0  0  0
  5 14  1  0  0  0  0
  6 13  2  0  0  0  0
  9  6  1  0  0  0  0
 10  8  2  0  0  0  0
 10  9  1  0  0  0  0
 11 17  1  0  0  0  0
 11 19  2  0  0  0  0
 12 15  1  0  0  0  0
 12 20  1  0  0  0  0
 13  1  1  0  0  0  0
 14 12  2  0  0  0  0
 16  4  1  0  0  0  0
 16 17  2  0  0  0  0
 17 10  1  0  0  0  0
 18  5  2  0  0  0  0
 19  2  1  0  0  0  0
 20 22  1  0  0  0  0
 21 20  2  0  0  0  0
 22 23  1  0  0  0  0
 24 11  1  0  0  0  0
 26 32  1  0  0  0  0
 27 32  1  0  0  0  0
 27 31  1  1  0  0  0
 28 29  1  0  0  0  0
 28 27  1  0  0  0  0
 30 29  1  0  0  0  0
 30 25  1  1  0  0  0
 30 26  1  0  0  0  0
 32 24  1  0  0  0  0
M  END
>  <MODEL>
1

>  <REMARK>
 VINA RESULT:      -9.2      0.000      0.000
  Name = 
  4 active torsions:
  status: ('A' for Active; 'I' for Inactive)
    1  A    between atoms: C_1  and  O_10
    2  A    between atoms: C_1  and  C_19
    3  A    between atoms: C_16  and  C_27
    4  A    between atoms: C_27  and  N_32
                            x       y       z     vdW  Elec       q    Type
                         _______ _______ _______ _____ _____    ______ ____

>  <TORSDO>
F 4

$$$$
=
 OpenBabel10262421333D

 32 36  0  0  1  0  0  0  0  0999 V2000
  184.4750  178.3590  145.1510 C   0  0  2  0  0  3  0  0  0  0  0  0
  187.1490  178.1820  141.7890 C   0  0  0  0  0  0  0  0  0  0  0  0
  190.8420  176.7190  144.5760 C   0  0  0  0  0  3  0  0  0  0  0  0
  191.6420  176.7130  143.4350 C   0  0  0  0  0  3  0  0  0  0  0  0
  184.9420  178.5900  142.6980 C   0  0  0  0  0  0  0  0  0  0  0  0
  186.7350  177.8720  144.1660 C   0  0  0  0  0  3  0  0  0  0  0  0
  184.7820  179.5030  145.8650 F   0  0  0  0  0  0  0  0  0  0  0  0
  189.5020  177.0910  144.4690 C   0  0  0  0  0  3  0  0  0  0  0  0
  187.6200  177.8310  143.0760 C   0  0  0  0  0  0  0  0  0  0  0  0
  188.9670  177.4540  143.2250 C   0  0  0  0  0  0  0  0  0  0  0  0
  189.2970  177.7960  140.8400 C   0  0  0  0  0  0  0  0  0  0  0  0
  182.7050  178.8570  143.4710 C   0  0  0  0  0  0  0  0  0  0  0  0
  185.4020  178.2430  143.9790 C   0  0  0  0  0  0  0  0  0  0  0  0
  183.5710  178.9460  142.5040 N   0  0  0  0  0  0  0  0  0  0  0  0
  183.1050  178.4130  144.7400 O   0  0  0  0  0  0  0  0  0  0  0  0
  191.1190  177.0670  142.2310 N   0  0  0  0  0  0  0  0  0  0  0  0
  189.8140  177.4340  142.0940 C   0  0  0  0  0  0  0  0  0  0  0  0
  185.8150  178.5580  141.6090 C   0  0  0  0  0  3  0  0  0  0  0  0
  187.9890  178.1520  140.7220 N   0  0  0  0  0  0  0  0  0  0  0  0
  181.2970  179.1900  143.2320 C   0  0  0  0  0  0  0  0  0  0  0  0
  180.9900  180.0680  142.3790 O   0  0  0  0  0  0  0  0  0  0  0  0
  180.3050  178.5270  143.9560 O   0  0  0  0  0  0  0  0  0  0  0  0
  179.0820  179.1580  144.3030 C   0  0  0  0  0  1  0  0  0  0  0  0
  190.1500  177.7540  139.6130 C   0  0  0  0  0  2  0  0  0  0  0  0
  186.4450  178.3150  137.2720 C   0  0  0  0  0  1  0  0  0  0  0  0
  188.8300  178.6730  137.9110 C   0  0  0  0  0  2  0  0  0  0  0  0
  190.2200  176.7540  137.4730 C   0  0  2  0  0  3  0  0  0  0  0  0
  189.7160  176.8780  136.0230 C   0  0  0  0  0  2  0  0  0  0  0  0
  188.2140  177.1400  135.9810 C   0  0  0  0  0  2  0  0  0  0  0  0
  187.8640  178.4150  136.7510 C   0  0  1  0  0  3  0  0  0  0  0  0
  190.3610  175.2800  137.8130 C   0  0  0  0  0  1  0  0  0  0  0  0
  189.3360  177.4110  138.4550 N   0  0  0  0  0  0  0  0  0  0  0  0
  1  7  1  6  0  0  0
  2  9  1  0  0  0  0
  4  3  2  0  0  0  0
  5 13  2  0  0  0  0
  8  3  1  0  0  0  0
  9 10  1  0  0  0  0
  9  6  2  0  0  0  0
 10  8  2  0  0  0  0
 11 17  1  0  0  0  0
 12 15  1  0  0  0  0
 13  6  1  0  0  0  0
 13  1  1  0  0  0  0
 14  5  1  0  0  0  0
 14 12  2  0  0  0  0
 15  1  1  0  0  0  0
 16  4  1  0  0  0  0
 17 16  2  0  0  0  0
 17 10  1  0  0  0  0
 18  2  2  0  0  0  0
 18  5  1  0  0  0  0
 19 11  2  0  0  0  0
 19  2  1  0  0  0  0
 20 12  1  0  0  0  0
 20 22  1  0  0  0  0
 21 20  2  0  0  0  0
 22 23  1  0  0  0  0
 24 11  1  0  0  0  0
 26 32  1  0  0  0  0
 27 31  1  1  0  0  0
 27 32  1  0  0  0  0
 28 27  1  0  0  0  0
 29 28  1  0  0  0  0
 29 30  1  0  0  0  0
 30 25  1  1  0  0  0
 30 26  1  0  0  0  0
 32 24  1  0  0  0  0
M  END
>  <MODEL>
2

>  <REMARK>
 VINA RESULT:      -9.1      3.663      6.473
  Name = 
  4 active torsions:
  status: ('A' for Active; 'I' for Inactive)
    1  A    between atoms: C_1  and  O_10
    2  A    between atoms: C_1  and  C_19
    3  A    between atoms: C_16  and  C_27
    4  A    between atoms: C_27  and  N_32
                            x       y       z     vdW  Elec       q    Type
                         _______ _______ _______ _____ _____    ______ ____

>  <TORSDO>
F 4

$$$$
=
 OpenBabel10262421333D

 32 36  0  0  1  0  0  0  0  0999 V2000
  187.3770  177.5890  146.6420 C   0  0  2  0  0  3  0  0  0  0  0  0
  186.3040  178.3170  142.5430 C   0  0  0  0  0  0  0  0  0  0  0  0
  181.6390  178.9900  143.6970 C   0  0  0  0  0  3  0  0  0  0  0  0
  181.3790  179.1900  142.3420 C   0  0  0  0  0  3  0  0  0  0  0  0
  187.9830  177.8430  144.2220 C   0  0  0  0  0  0  0  0  0  0  0  0
  185.6700  178.1530  144.8850 C   0  0  0  0  0  3  0  0  0  0  0  0
  186.9590  176.3090  146.9580 F   0  0  0  0  0  0  0  0  0  0  0  0
  182.9430  178.7160  144.1090 C   0  0  0  0  0  3  0  0  0  0  0  0
  185.3080  178.3720  143.5460 C   0  0  0  0  0  0  0  0  0  0  0  0
  183.9810  178.6430  143.1690 C   0  0  0  0  0  0  0  0  0  0  0  0
  184.6980  178.7810  140.8490 C   0  0  0  0  0  0  0  0  0  0  0  0
  189.7260  177.5350  145.8150 C   0  0  0  0  0  0  0  0  0  0  0  0
  187.0010  177.8960  145.2240 C   0  0  0  0  0  0  0  0  0  0  0  0
  189.3480  177.6030  144.5720 N   0  0  0  0  0  0  0  0  0  0  0  0
  188.7900  177.6890  146.8490 O   0  0  0  0  0  0  0  0  0  0  0  0
  182.3880  179.1180  141.4330 N   0  0  0  0  0  0  0  0  0  0  0  0
  183.6730  178.8520  141.8050 C   0  0  0  0  0  0  0  0  0  0  0  0
  187.6330  178.0540  142.8870 C   0  0  0  0  0  3  0  0  0  0  0  0
  185.9740  178.5230  141.2400 N   0  0  0  0  0  0  0  0  0  0  0  0
  191.1400  177.3300  146.1460 C   0  0  0  0  0  0  0  0  0  0  0  0
  192.0330  177.5760  145.2880 O   0  0  0  0  0  0  0  0  0  0  0  0
  191.4860  176.8590  147.4130 O   0  0  0  0  0  0  0  0  0  0  0  0
  192.3730  175.7660  147.5920 C   0  0  0  0  0  1  0  0  0  0  0  0
  184.4200  179.0310  139.4010 C   0  0  0  0  0  2  0  0  0  0  0  0
  182.9180  175.0100  138.3540 C   0  0  0  0  0  1  0  0  0  0  0  0
  183.2510  177.4710  138.1060 C   0  0  0  0  0  2  0  0  0  0  0  0
  185.5190  178.0620  137.5470 C   0  0  2  0  0  3  0  0  0  0  0  0
  185.3350  177.1180  136.3440 C   0  0  0  0  0  2  0  0  0  0  0  0
  184.6400  175.8250  136.7580 C   0  0  0  0  0  2  0  0  0  0  0  0
  183.2760  176.1190  137.3850 C   0  0  1  0  0  3  0  0  0  0  0  0
  186.9450  177.9300  138.0530 C   0  0  0  0  0  1  0  0  0  0  0  0
  184.5730  177.7950  138.6470 N   0  0  0  0  0  0  0  0  0  0  0  0
  1 15  1  0  0  0  0
  1  7  1  6  0  0  0
  2 18  2  0  0  0  0
  2  9  1  0  0  0  0
  3  8  1  0  0  0  0
  4  3  2  0  0  0  0
  5 14  1  0  0  0  0
  5 13  2  0  0  0  0
  6 13  1  0  0  0  0
  9  6  2  0  0  0  0
 10  9  1  0  0  0  0
 10  8  2  0  0  0  0
 11 19  2  0  0  0  0
 11 17  1  0  0  0  0
 12 20  1  0  0  0  0
 12 15  1  0  0  0  0
 13  1  1  0  0  0  0
 14 12  2  0  0  0  0
 16 17  2  0  0  0  0
 16  4  1  0  0  0  0
 17 10  1  0  0  0  0
 18  5  1  0  0  0  0
 19  2  1  0  0  0  0
 20 22  1  0  0  0  0
 21 20  2  0  0  0  0
 22 23  1  0  0  0  0
 24 11  1  0  0  0  0
 26 32  1  0  0  0  0
 27 31  1  1  0  0  0
 27 32  1  0  0  0  0
 28 29  1  0  0  0  0
 28 27  1  0  0  0  0
 29 30  1  0  0  0  0
 30 26  1  0  0  0  0
 30 25  1  1  0  0  0
 32 24  1  0  0  0  0
M  END
>  <MODEL>
3

>  <REMARK>
 VINA RESULT:      -8.9      2.288      3.453
  Name = 
  4 active torsions:
  status: ('A' for Active; 'I' for Inactive)
    1  A    between atoms: C_1  and  O_10
    2  A    between atoms: C_1  and  C_19
    3  A    between atoms: C_16  and  C_27
    4  A    between atoms: C_27  and  N_32
                            x       y       z     vdW  Elec       q    Type
                         _______ _______ _______ _____ _____    ______ ____

>  <TORSDO>
F 4

$$$$
=
 OpenBabel10262421333D

 32 36  0  0  1  0  0  0  0  0999 V2000
  190.5810  177.1320  142.6950 C   0  0  2  0  0  3  0  0  0  0  0  0
  186.7890  178.3450  141.0740 C   0  0  0  0  0  0  0  0  0  0  0  0
  184.7920  178.6280  145.4880 C   0  0  0  0  0  3  0  0  0  0  0  0
  183.5950  178.9930  144.8740 C   0  0  0  0  0  3  0  0  0  0  0  0
  189.1100  177.7360  140.7560 C   0  0  0  0  0  0  0  0  0  0  0  0
  188.1890  177.8400  142.9970 C   0  0  0  0  0  3  0  0  0  0  0  0
  190.4700  175.8030  143.0580 F   0  0  0  0  0  0  0  0  0  0  0  0
  185.9120  178.3660  144.6990 C   0  0  0  0  0  3  0  0  0  0  0  0
  186.9420  178.2180  142.4740 C   0  0  0  0  0  0  0  0  0  0  0  0
  185.8330  178.4700  143.3030 C   0  0  0  0  0  0  0  0  0  0  0  0
  184.5010  178.9510  141.3260 C   0  0  0  0  0  0  0  0  0  0  0  0
  191.4180  177.3050  140.3550 C   0  0  0  0  0  0  0  0  0  0  0  0
  189.2700  177.6060  142.1440 C   0  0  0  0  0  0  0  0  0  0  0  0
  190.2240  177.5200  139.8860 N   0  0  0  0  0  0  0  0  0  0  0  0
  191.6390  177.2730  141.7400 O   0  0  0  0  0  0  0  0  0  0  0  0
  183.5230  179.0920  143.5190 N   0  0  0  0  0  0  0  0  0  0  0  0
  184.6000  178.8430  142.7220 C   0  0  0  0  0  0  0  0  0  0  0  0
  187.8730  178.1050  140.2250 C   0  0  0  0  0  3  0  0  0  0  0  0
  185.5890  178.7070  140.5480 N   0  0  0  0  0  0  0  0  0  0  0  0
  192.5500  177.1280  139.4390 C   0  0  0  0  0  0  0  0  0  0  0  0
  193.7290  177.3290  139.8430 O   0  0  0  0  0  0  0  0  0  0  0  0
  192.3100  176.7370  138.1210 O   0  0  0  0  0  0  0  0  0  0  0  0
  193.2650  176.0030  137.3700 C   0  0  0  0  0  1  0  0  0  0  0  0
  183.2250  179.3770  140.6740 C   0  0  0  0  0  2  0  0  0  0  0  0
  180.0510  178.2530  143.5340 C   0  0  0  0  0  1  0  0  0  0  0  0
  181.0380  179.3210  141.5060 C   0  0  0  0  0  2  0  0  0  0  0  0
  181.7530  177.7210  139.8530 C   0  0  2  0  0  3  0  0  0  0  0  0
  180.3020  177.2090  139.9050 C   0  0  0  0  0  2  0  0  0  0  0  0
  179.8030  177.1070  141.3430 C   0  0  0  0  0  2  0  0  0  0  0  0
  179.8870  178.4650  142.0420 C   0  0  1  0  0  3  0  0  0  0  0  0
  182.6810  176.5330  139.6660 C   0  0  0  0  0  1  0  0  0  0  0  0
  182.1470  178.4770  141.0570 N   0  0  0  0  0  0  0  0  0  0  0  0
  1  7  1  6  0  0  0
  2  9  1  0  0  0  0
  4  3  1  0  0  0  0
  5 13  1  0  0  0  0
  8  3  2  0  0  0  0
  9  6  1  0  0  0  0
  9 10  2  0  0  0  0
 10  8  1  0  0  0  0
 11 17  2  0  0  0  0
 12 15  1  0  0  0  0
 13  1  1  0  0  0  0
 13  6  2  0  0  0  0
 14 12  2  0  0  0  0
 14  5  1  0  0  0  0
 15  1  1  0  0  0  0
 16  4  2  0  0  0  0
 17 10  1  0  0  0  0
 17 16  1  0  0  0  0
 18  5  2  0  0  0  0
 18  2  1  0  0  0  0
 19  2  2  0  0  0  0
 19 11  1  0  0  0  0
 20 21  2  0  0  0  0
 20 12  1  0  0  0  0
 22 20  1  0  0  0  0
 23 22  1  0  0  0  0
 24 32  1  0  0  0  0
 24 11  1  0  0  0  0
 26 30  1  0  0  0  0
 27 31  1  1  0  0  0
 27 28  1  0  0  0  0
 27 32  1  0  0  0  0
 28 29  1  0  0  0  0
 29 30  1  0  0  0  0
 30 25  1  1  0  0  0
 32 26  1  0  0  0  0
M  END
>  <MODEL>
4

>  <REMARK>
 VINA RESULT:      -8.6      3.726      6.768
  Name = 
  4 active torsions:
  status: ('A' for Active; 'I' for Inactive)
    1  A    between atoms: C_1  and  O_10
    2  A    between atoms: C_1  and  C_19
    3  A    between atoms: C_16  and  C_27
    4  A    between atoms: C_27  and  N_32
                            x       y       z     vdW  Elec       q    Type
                         _______ _______ _______ _____ _____    ______ ____

>  <TORSDO>
F 4

$$$$
=
 OpenBabel10262421333D

 32 36  0  0  1  0  0  0  0  0999 V2000
  188.6320  177.2340  147.6660 C   0  0  2  0  0  3  0  0  0  0  0  0
  188.6220  177.6900  143.3910 C   0  0  0  0  0  0  0  0  0  0  0  0
  183.9090  178.8450  143.3470 C   0  0  0  0  0  3  0  0  0  0  0  0
  183.9940  178.9480  141.9590 C   0  0  0  0  0  3  0  0  0  0  0  0
  189.8070  177.2260  145.4510 C   0  0  0  0  0  0  0  0  0  0  0  0
  187.4470  177.7830  145.5190 C   0  0  0  0  0  3  0  0  0  0  0  0
  188.0260  176.0260  147.9550 F   0  0  0  0  0  0  0  0  0  0  0  0
  185.0470  178.5010  144.0770 C   0  0  0  0  0  3  0  0  0  0  0  0
  187.4310  177.9150  144.1210 C   0  0  0  0  0  0  0  0  0  0  0  0
  186.2620  178.2610  143.4200 C   0  0  0  0  0  0  0  0  0  0  0  0
  187.5090  178.1370  141.3360 C   0  0  0  0  0  0  0  0  0  0  0  0
  191.0910  176.9140  147.4320 C   0  0  0  0  0  0  0  0  0  0  0  0
  188.6300  177.4470  146.1820 C   0  0  0  0  0  0  0  0  0  0  0  0
  191.0220  176.9060  146.1330 N   0  0  0  0  0  0  0  0  0  0  0  0
  189.9610  177.2340  148.1990 O   0  0  0  0  0  0  0  0  0  0  0  0
  185.1740  178.7130  141.3260 N   0  0  0  0  0  0  0  0  0  0  0  0
  186.3030  178.3760  142.0120 C   0  0  0  0  0  0  0  0  0  0  0  0
  189.8010  177.3490  144.0600 C   0  0  0  0  0  3  0  0  0  0  0  0
  188.6270  177.8100  142.0380 N   0  0  0  0  0  0  0  0  0  0  0  0
  192.3610  176.6220  148.1050 C   0  0  0  0  0  0  0  0  0  0  0  0
  193.0740  175.6540  147.7190 O   0  0  0  0  0  0  0  0  0  0  0  0
  192.7710  177.4220  149.1730 O   0  0  0  0  0  0  0  0  0  0  0  0
  193.8090  177.0220  150.0540 C   0  0  0  0  0  1  0  0  0  0  0  0
  187.6040  178.2820  139.8510 C   0  0  0  0  0  2  0  0  0  0  0  0
  191.7820  177.2420  140.8390 C   0  0  0  0  0  1  0  0  0  0  0  0
  189.4450  176.8520  140.0570 C   0  0  0  0  0  2  0  0  0  0  0  0
  188.9660  177.9240  137.9530 C   0  0  2  0  0  3  0  0  0  0  0  0
  190.1700  177.1280  137.4170 C   0  0  0  0  0  2  0  0  0  0  0  0
  191.3400  177.1710  138.3950 C   0  0  0  0  0  2  0  0  0  0  0  0
  190.9280  176.6120  139.7580 C   0  0  1  0  0  3  0  0  0  0  0  0
  188.9500  179.2890  137.2860 C   0  0  0  0  0  1  0  0  0  0  0  0
  188.9800  178.0860  139.4190 N   0  0  0  0  0  0  0  0  0  0  0  0
  1  7  1  6  0  0  0
  1 15  1  0  0  0  0
  2 18  2  0  0  0  0
  2  9  1  0  0  0  0
  3  8  1  0  0  0  0
  4  3  2  0  0  0  0
  5 14  1  0  0  0  0
  5 13  2  0  0  0  0
  6 13  1  0  0  0  0
  9  6  2  0  0  0  0
 10  8  2  0  0  0  0
 10  9  1  0  0  0  0
 11 17  1  0  0  0  0
 11 19  2  0  0  0  0
 12 20  1  0  0  0  0
 12 15  1  0  0  0  0
 13  1  1  0  0  0  0
 14 12  2  0  0  0  0
 16  4  1  0  0  0  0
 16 17  2  0  0  0  0
 17 10  1  0  0  0  0
 18  5  1  0  0  0  0
 19  2  1  0  0  0  0
 20 22  1  0  0  0  0
 21 20  2  0  0  0  0
 22 23  1  0  0  0  0
 24 11  1  0  0  0  0
 27 31  1  6  0  0  0
 27 32  1  0  0  0  0
 28 27  1  0  0  0  0
 28 29  1  0  0  0  0
 29 30  1  0  0  0  0
 30 26  1  0  0  0  0
 30 25  1  1  0  0  0
 32 24  1  0  0  0  0
 32 26  1  0  0  0  0
M  END
>  <MODEL>
5

>  <REMARK>
 VINA RESULT:      -8.6      1.288      2.053
  Name = 
  4 active torsions:
  status: ('A' for Active; 'I' for Inactive)
    1  A    between atoms: C_1  and  O_10
    2  A    between atoms: C_1  and  C_19
    3  A    between atoms: C_16  and  C_27
    4  A    between atoms: C_27  and  N_32
                            x       y       z     vdW  Elec       q    Type
                         _______ _______ _______ _____ _____    ______ ____

>  <TORSDO>
F 4

$$$$
=
 OpenBabel10262421333D

 32 36  0  0  1  0  0  0  0  0999 V2000
  190.7540  176.9580  142.9140 C   0  0  2  0  0  3  0  0  0  0  0  0
  186.8250  178.1650  141.6560 C   0  0  0  0  0  0  0  0  0  0  0  0
  185.1960  178.2580  146.2260 C   0  0  0  0  0  3  0  0  0  0  0  0
  183.9470  178.6250  145.7260 C   0  0  0  0  0  3  0  0  0  0  0  0
  189.1200  177.6050  141.1260 C   0  0  0  0  0  0  0  0  0  0  0  0
  188.3860  177.6150  143.4380 C   0  0  0  0  0  3  0  0  0  0  0  0
  190.6910  175.6150  143.2360 F   0  0  0  0  0  0  0  0  0  0  0  0
  186.2510  178.0420  145.3390 C   0  0  0  0  0  3  0  0  0  0  0  0
  187.0940  177.9900  143.0340 C   0  0  0  0  0  0  0  0  0  0  0  0
  186.0550  178.1950  143.9590 C   0  0  0  0  0  0  0  0  0  0  0  0
  184.5580  178.7240  142.1180 C   0  0  0  0  0  0  0  0  0  0  0  0
  191.3920  177.2280  140.5210 C   0  0  0  0  0  0  0  0  0  0  0  0
  189.3960  177.4300  142.4910 C   0  0  0  0  0  0  0  0  0  0  0  0
  190.1600  177.4390  140.1600 N   0  0  0  0  0  0  0  0  0  0  0  0
  191.7270  177.1500  141.8810 O   0  0  0  0  0  0  0  0  0  0  0  0
  183.7620  178.7710  144.3870 N   0  0  0  0  0  0  0  0  0  0  0  0
  184.7730  178.5690  143.4960 C   0  0  0  0  0  0  0  0  0  0  0  0
  187.8380  177.9730  140.7130 C   0  0  0  0  0  3  0  0  0  0  0  0
  185.5810  178.5260  141.2440 N   0  0  0  0  0  0  0  0  0  0  0  0
  192.4460  177.1010  139.5090 C   0  0  0  0  0  0  0  0  0  0  0  0
  193.6380  177.4050  139.7950 O   0  0  0  0  0  0  0  0  0  0  0  0
  192.1190  176.6440  138.2320 O   0  0  0  0  0  0  0  0  0  0  0  0
  193.1140  176.2910  137.2840 C   0  0  0  0  0  1  0  0  0  0  0  0
  183.2270  179.1520  141.5880 C   0  0  0  0  0  2  0  0  0  0  0  0
  182.4370  175.5200  139.2010 C   0  0  0  0  0  1  0  0  0  0  0  0
  181.8820  177.5900  140.4800 C   0  0  0  0  0  2  0  0  0  0  0  0
  182.5840  179.6040  139.3590 C   0  0  2  0  0  3  0  0  0  0  0  0
  181.7310  179.0960  138.1820 C   0  0  0  0  0  2  0  0  0  0  0  0
  181.9560  177.6070  137.9400 C   0  0  0  0  0  2  0  0  0  0  0  0
  181.6210  176.7970  139.1950 C   0  0  1  0  0  3  0  0  0  0  0  0
  183.8190  180.2910  138.8030 C   0  0  0  0  0  1  0  0  0  0  0  0
  182.9850  178.5340  140.2920 N   0  0  0  0  0  0  0  0  0  0  0  0
  1  7  1  6  0  0  0
  2  9  1  0  0  0  0
  4  3  1  0  0  0  0
  5 13  1  0  0  0  0
  8  3  2  0  0  0  0
  9  6  1  0  0  0  0
  9 10  2  0  0  0  0
 10  8  1  0  0  0  0
 11 17  2  0  0  0  0
 12 15  1  0  0  0  0
 13  1  1  0  0  0  0
 13  6  2  0  0  0  0
 14 12  2  0  0  0  0
 14  5  1  0  0  0  0
 15  1  1  0  0  0  0
 16  4  2  0  0  0  0
 17 10  1  0  0  0  0
 17 16  1  0  0  0  0
 18  5  2  0  0  0  0
 18  2  1  0  0  0  0
 19  2  2  0  0  0  0
 19 11  1  0  0  0  0
 20 21  2  0  0  0  0
 20 12  1  0  0  0  0
 22 20  1  0  0  0  0
 23 22  1  0  0  0  0
 24 11  1  0  0  0  0
 27 31  1  6  0  0  0
 27 32  1  0  0  0  0
 28 27  1  0  0  0  0
 29 28  1  0  0  0  0
 29 30  1  0  0  0  0
 30 25  1  1  0  0  0
 30 26  1  0  0  0  0
 32 26  1  0  0  0  0
 32 24  1  0  0  0  0
M  END
>  <MODEL>
6

>  <REMARK>
 VINA RESULT:      -8.4      3.627      6.186
  Name = 
  4 active torsions:
  status: ('A' for Active; 'I' for Inactive)
    1  A    between atoms: C_1  and  O_10
    2  A    between atoms: C_1  and  C_19
    3  A    between atoms: C_16  and  C_27
    4  A    between atoms: C_27  and  N_32
                            x       y       z     vdW  Elec       q    Type
                         _______ _______ _______ _____ _____    ______ ____

>  <TORSDO>
F 4

$$$$
=
 OpenBabel10262421333D

 32 36  0  0  1  0  0  0  0  0999 V2000
  191.1080  176.9090  144.3120 C   0  0  2  0  0  3  0  0  0  0  0  0
  188.4530  177.8110  141.0530 C   0  0  0  0  0  0  0  0  0  0  0  0
  191.7190  176.3760  137.7630 C   0  0  0  0  0  3  0  0  0  0  0  0
  190.8020  176.7180  136.7690 C   0  0  0  0  0  3  0  0  0  0  0  0
  188.8960  177.6960  143.4310 C   0  0  0  0  0  0  0  0  0  0  0  0
  190.5900  176.9700  141.8540 C   0  0  0  0  0  3  0  0  0  0  0  0
  192.0510  177.9180  144.3690 F   0  0  0  0  0  0  0  0  0  0  0  0
  191.3760  176.5600  139.1020 C   0  0  0  0  0  3  0  0  0  0  0  0
  189.7360  177.2810  140.7830 C   0  0  0  0  0  0  0  0  0  0  0  0
  190.1200  177.0840  139.4440 C   0  0  0  0  0  0  0  0  0  0  0  0
  187.9620  177.9450  138.7280 C   0  0  0  0  0  0  0  0  0  0  0  0
  189.1780  177.4700  145.7840 C   0  0  0  0  0  0  0  0  0  0  0  0
  190.1710  177.1700  143.1710 C   0  0  0  0  0  0  0  0  0  0  0  0
  188.4600  177.8780  144.7800 N   0  0  0  0  0  0  0  0  0  0  0  0
  190.4130  176.8430  145.5630 O   0  0  0  0  0  0  0  0  0  0  0  0
  189.5870  177.2260  137.1060 N   0  0  0  0  0  0  0  0  0  0  0  0
  189.2220  177.4170  138.4060 C   0  0  0  0  0  0  0  0  0  0  0  0
  188.0420  178.0140  142.3730 C   0  0  0  0  0  3  0  0  0  0  0  0
  187.6130  178.1200  140.0310 N   0  0  0  0  0  0  0  0  0  0  0  0
  188.6870  177.6320  147.1570 C   0  0  0  0  0  0  0  0  0  0  0  0
  189.4960  177.8770  148.0940 O   0  0  0  0  0  0  0  0  0  0  0  0
  187.3210  177.5120  147.4140 O   0  0  0  0  0  0  0  0  0  0  0  0
  186.4440  178.6260  147.3450 C   0  0  0  0  0  1  0  0  0  0  0  0
  186.9690  178.2780  137.6610 C   0  0  0  0  0  2  0  0  0  0  0  0
  183.4310  177.7020  140.2440 C   0  0  0  0  0  1  0  0  0  0  0  0
  184.7570  178.6270  138.3440 C   0  0  0  0  0  2  0  0  0  0  0  0
  185.2660  176.9800  136.6610 C   0  0  2  0  0  3  0  0  0  0  0  0
  183.7430  176.7660  136.5900 C   0  0  0  0  0  2  0  0  0  0  0  0
  183.1270  176.7120  137.9850 C   0  0  0  0  0  2  0  0  0  0  0  0
  183.4230  177.9980  138.7580 C   0  0  1  0  0  3  0  0  0  0  0  0
  185.9540  175.6390  136.4740 C   0  0  0  0  0  1  0  0  0  0  0  0
  185.7090  177.5960  137.9250 N   0  0  0  0  0  0  0  0  0  0  0  0
  1  7  1  1  0  0  0
  1 15  1  0  0  0  0
  2 18  1  0  0  0  0
  3  8  1  0  0  0  0
  4 16  1  0  0  0  0
  4  3  2  0  0  0  0
  5 14  1  0  0  0  0
  6 13  2  0  0  0  0
  8 10  2  0  0  0  0
  9  2  2  0  0  0  0
  9  6  1  0  0  0  0
 10  9  1  0  0  0  0
 11 19  2  0  0  0  0
 12 20  1  0  0  0  0
 13  5  1  0  0  0  0
 13  1  1  0  0  0  0
 14 12  2  0  0  0  0
 15 12  1  0  0  0  0
 16 17  2  0  0  0  0
 17 11  1  0  0  0  0
 17 10  1  0  0  0  0
 18  5  2  0  0  0  0
 19  2  1  0  0  0  0
 20 22  1  0  0  0  0
 20 21  2  0  0  0  0
 23 22  1  0  0  0  0
 24 32  1  0  0  0  0
 24 11  1  0  0  0  0
 26 30  1  0  0  0  0
 27 31  1  1  0  0  0
 27 32  1  0  0  0  0
 28 27  1  0  0  0  0
 28 29  1  0  0  0  0
 29 30  1  0  0  0  0
 30 25  1  1  0  0  0
 32 26  1  0  0  0  0
M  END
>  <MODEL>
7

>  <REMARK>
 VINA RESULT:      -8.3      2.323      4.694
  Name = 
  4 active torsions:
  status: ('A' for Active; 'I' for Inactive)
    1  A    between atoms: C_1  and  O_10
    2  A    between atoms: C_1  and  C_19
    3  A    between atoms: C_16  and  C_27
    4  A    between atoms: C_27  and  N_32
                            x       y       z     vdW  Elec       q    Type
                         _______ _______ _______ _____ _____    ______ ____

>  <TORSDO>
F 4

$$$$
=
 OpenBabel10262421333D

 32 36  0  0  1  0  0  0  0  0999 V2000
  185.1840  178.7250  146.4670 C   0  0  2  0  0  3  0  0  0  0  0  0
  184.1170  178.2700  142.3270 C   0  0  0  0  0  0  0  0  0  0  0  0
  179.6910  180.1090  143.0820 C   0  0  0  0  0  3  0  0  0  0  0  0
  179.4240  179.9040  141.7290 C   0  0  0  0  0  3  0  0  0  0  0  0
  185.7420  178.0700  144.1120 C   0  0  0  0  0  0  0  0  0  0  0  0
  183.5460  178.9890  144.5790 C   0  0  0  0  0  3  0  0  0  0  0  0
  184.5570  177.7140  147.1700 F   0  0  0  0  0  0  0  0  0  0  0  0
  180.9380  179.7520  143.5940 C   0  0  0  0  0  3  0  0  0  0  0  0
  183.1830  178.8250  143.2330 C   0  0  0  0  0  0  0  0  0  0  0  0
  181.9130  179.1940  142.7550 C   0  0  0  0  0  0  0  0  0  0  0  0
  182.5620  178.4440  140.5340 C   0  0  0  0  0  0  0  0  0  0  0  0
  187.4560  177.9850  145.7620 C   0  0  0  0  0  0  0  0  0  0  0  0
  184.8210  178.6200  145.0170 C   0  0  0  0  0  0  0  0  0  0  0  0
  187.0540  177.7150  144.5550 N   0  0  0  0  0  0  0  0  0  0  0  0
  186.5990  178.6300  146.6670 O   0  0  0  0  0  0  0  0  0  0  0  0
  180.3720  179.3610  140.9190 N   0  0  0  0  0  0  0  0  0  0  0  0
  181.6000  179.0030  141.3900 C   0  0  0  0  0  0  0  0  0  0  0  0
  185.3890  177.8980  142.7720 C   0  0  0  0  0  3  0  0  0  0  0  0
  183.7850  178.1010  141.0200 N   0  0  0  0  0  0  0  0  0  0  0  0
  188.8220  177.6460  146.1780 C   0  0  0  0  0  0  0  0  0  0  0  0
  189.0320  177.1600  147.3240 O   0  0  0  0  0  0  0  0  0  0  0  0
  189.8800  177.8670  145.2970 O   0  0  0  0  0  0  0  0  0  0  0  0
  190.6580  176.8010  144.7770 C   0  0  0  0  0  1  0  0  0  0  0  0
  182.2840  178.2580  139.0770 C   0  0  0  0  0  2  0  0  0  0  0  0
  180.0560  174.5390  139.9270 C   0  0  0  0  0  1  0  0  0  0  0  0
  180.5900  176.6750  138.7530 C   0  0  0  0  0  2  0  0  0  0  0  0
  182.6260  176.5600  137.4690 C   0  0  2  0  0  3  0  0  0  0  0  0
  181.9640  175.3620  136.7630 C   0  0  0  0  0  2  0  0  0  0  0  0
  181.2810  174.4380  137.7670 C   0  0  0  0  0  2  0  0  0  0  0  0
  180.2260  175.1990  138.5730 C   0  0  1  0  0  3  0  0  0  0  0  0
  184.1120  176.2780  137.6120 C   0  0  0  0  0  1  0  0  0  0  0  0
  182.0440  176.8500  138.7930 N   0  0  0  0  0  0  0  0  0  0  0  0
  1 15  1  0  0  0  0
  1  7  1  1  0  0  0
  2 18  2  0  0  0  0
  2  9  1  0  0  0  0
  3  8  1  0  0  0  0
  4  3  2  0  0  0  0
  5 14  1  0  0  0  0
  5 13  2  0  0  0  0
  6 13  1  0  0  0  0
  9  6  2  0  0  0  0
 10  9  1  0  0  0  0
 10  8  2  0  0  0  0
 11 19  2  0  0  0  0
 11 17  1  0  0  0  0
 12 20  1  0  0  0  0
 12 15  1  0  0  0  0
 13  1  1  0  0  0  0
 14 12  2  0  0  0  0
 16 17  2  0  0  0  0
 16  4  1  0  0  0  0
 17 10  1  0  0  0  0
 18  5  1  0  0  0  0
 19  2  1  0  0  0  0
 20 21  2  0  0  0  0
 22 20  1  0  0  0  0
 23 22  1  0  0  0  0
 24 11  1  0  0  0  0
 26 32  1  0  0  0  0
 27 31  1  1  0  0  0
 27 32  1  0  0  0  0
 28 27  1  0  0  0  0
 28 29  1  0  0  0  0
 29 30  1  0  0  0  0
 30 26  1  0  0  0  0
 30 25  1  1  0  0  0
 32 24  1  0  0  0  0
M  END
>  <MODEL>
8

>  <REMARK>
 VINA RESULT:      -8.3      3.772      5.757
  Name = 
  4 active torsions:
  status: ('A' for Active; 'I' for Inactive)
    1  A    between atoms: C_1  and  O_10
    2  A    between atoms: C_1  and  C_19
    3  A    between atoms: C_16  and  C_27
    4  A    between atoms: C_27  and  N_32
                            x       y       z     vdW  Elec       q    Type
                         _______ _______ _______ _____ _____    ______ ____

>  <TORSDO>
F 4

$$$$
=
 OpenBabel10262421333D

 32 36  0  0  1  0  0  0  0  0999 V2000
  186.8610  177.8470  146.1440 C   0  0  2  0  0  3  0  0  0  0  0  0
  185.4710  178.3320  142.1050 C   0  0  0  0  0  0  0  0  0  0  0  0
  180.9240  179.1640  143.5800 C   0  0  0  0  0  3  0  0  0  0  0  0
  180.5590  179.2820  142.2390 C   0  0  0  0  0  3  0  0  0  0  0  0
  187.2740  177.9350  143.6730 C   0  0  0  0  0  0  0  0  0  0  0  0
  185.0260  178.3290  144.4960 C   0  0  0  0  0  3  0  0  0  0  0  0
  186.4530  176.5980  146.5750 F   0  0  0  0  0  0  0  0  0  0  0  0
  182.2530  178.8920  143.9040 C   0  0  0  0  0  3  0  0  0  0  0  0
  184.5610  178.4700  143.1780 C   0  0  0  0  0  0  0  0  0  0  0  0
  183.2110  178.7400  142.8910 C   0  0  0  0  0  0  0  0  0  0  0  0
  183.7410  178.7170  140.5180 C   0  0  0  0  0  0  0  0  0  0  0  0
  189.1350  177.6970  145.1390 C   0  0  0  0  0  0  0  0  0  0  0  0
  186.3760  178.0700  144.7440 C   0  0  0  0  0  0  0  0  0  0  0  0
  188.6590  177.6930  143.9280 N   0  0  0  0  0  0  0  0  0  0  0  0
  188.2870  177.9330  146.2320 O   0  0  0  0  0  0  0  0  0  0  0  0
  181.4910  179.1330  141.2600 N   0  0  0  0  0  0  0  0  0  0  0  0
  182.7970  178.8680  141.5460 C   0  0  0  0  0  0  0  0  0  0  0  0
  186.8200  178.0670  142.3590 C   0  0  0  0  0  3  0  0  0  0  0  0
  185.0410  178.4620  140.8220 N   0  0  0  0  0  0  0  0  0  0  0  0
  190.5680  177.4870  145.3690 C   0  0  0  0  0  0  0  0  0  0  0  0
  190.9650  176.9570  146.4440 O   0  0  0  0  0  0  0  0  0  0  0  0
  191.4840  177.8790  144.3920 O   0  0  0  0  0  0  0  0  0  0  0  0
  191.6460  179.2380  144.0170 C   0  0  0  0  0  1  0  0  0  0  0  0
  183.3510  178.8800  139.0830 C   0  0  0  0  0  2  0  0  0  0  0  0
  181.0340  175.1290  138.7980 C   0  0  0  0  0  1  0  0  0  0  0  0
  181.7210  177.4510  138.1980 C   0  0  0  0  0  2  0  0  0  0  0  0
  183.9150  177.5570  137.2070 C   0  0  2  0  0  3  0  0  0  0  0  0
  183.3590  176.5580  136.1760 C   0  0  0  0  0  2  0  0  0  0  0  0
  182.5460  175.4600  136.8540 C   0  0  0  0  0  2  0  0  0  0  0  0
  181.3880  176.0590  137.6550 C   0  0  1  0  0  3  0  0  0  0  0  0
  185.3680  177.2100  137.4860 C   0  0  0  0  0  1  0  0  0  0  0  0
  183.1550  177.5730  138.4720 N   0  0  0  0  0  0  0  0  0  0  0  0
  1 15  1  0  0  0  0
  1  7  1  6  0  0  0
  2 18  2  0  0  0  0
  2  9  1  0  0  0  0
  3  8  1  0  0  0  0
  4  3  2  0  0  0  0
  5 14  1  0  0  0  0
  5 13  2  0  0  0  0
  6 13  1  0  0  0  0
  9  6  2  0  0  0  0
 10  9  1  0  0  0  0
 10  8  2  0  0  0  0
 11 19  2  0  0  0  0
 11 17  1  0  0  0  0
 12 20  1  0  0  0  0
 12 15  1  0  0  0  0
 13  1  1  0  0  0  0
 14 12  2  0  0  0  0
 16 17  2  0  0  0  0
 16  4  1  0  0  0  0
 17 10  1  0  0  0  0
 18  5  1  0  0  0  0
 19  2  1  0  0  0  0
 20 21  2  0  0  0  0
 22 20  1  0  0  0  0
 23 22  1  0  0  0  0
 24 11  1  0  0  0  0
 26 32  1  0  0  0  0
 27 31  1  1  0  0  0
 27 32  1  0  0  0  0
 28 29  1  0  0  0  0
 28 27  1  0  0  0  0
 29 30  1  0  0  0  0
 30 26  1  0  0  0  0
 30 25  1  1  0  0  0
 32 24  1  0  0  0  0
M  END
>  <MODEL>
9

>  <REMARK>
 VINA RESULT:      -8.3      2.959      4.649
  Name = 
  4 active torsions:
  status: ('A' for Active; 'I' for Inactive)
    1  A    between atoms: C_1  and  O_10
    2  A    between atoms: C_1  and  C_19
    3  A    between atoms: C_16  and  C_27
    4  A    between atoms: C_27  and  N_32
                            x       y       z     vdW  Elec       q    Type
                         _______ _______ _______ _____ _____    ______ ____

>  <TORSDO>
F 4

$$$$
