=
 OpenBabel10262420473D

 28 30  0  0  1  0  0  0  0  0999 V2000
  190.0270  177.8400  145.0750 C   0  0  1  0  0  3  0  0  0  0  0  0
  192.4220  175.4910  146.5480 C   0  0  0  0  0  3  0  0  0  0  0  0
  190.9720  177.0230  145.8960 C   0  0  0  0  0  0  0  0  0  0  0  0
  192.2330  176.3960  147.6940 N   0  0  0  0  0  0  0  0  0  0  0  0
  191.5830  175.9850  145.4620 N   0  0  0  0  0  0  0  0  0  0  0  0
  191.3120  177.3400  147.2220 N   0  0  0  0  0  2  0  0  0  0  0  0
  190.7030  178.4480  143.8440 C   0  0  1  0  0  3  0  0  0  0  0  0
  191.8920  179.3300  144.2000 C   0  0  0  0  0  1  0  0  0  0  0  0
  191.1260  177.3880  142.9400 N   0  0  0  0  0  2  0  0  0  0  0  0
  190.1510  177.3050  141.8600 C   0  0  1  0  0  3  0  0  0  0  0  0
  189.3380  178.4230  141.8880 F   0  0  0  0  0  0  0  0  0  0  0  0
  192.1340  177.4920  140.4520 C   0  0  0  0  0  2  0  0  0  0  0  0
  190.8320  177.2100  140.5270 C   0  0  0  0  0  0  0  0  0  0  0  0
  190.0870  176.6790  139.3340 C   0  0  1  0  0  3  0  0  0  0  0  0
  189.7640  177.7910  138.3510 C   0  0  0  0  0  1  0  0  0  0  0  0
  190.8580  175.6430  138.6690 N   0  0  0  0  0  1  0  0  0  0  0  0
  188.7470  177.0750  144.7450 C   0  0  0  0  0  2  0  0  0  0  0  0
  186.0400  177.4930  143.7420 C   0  0  0  0  0  3  0  0  0  0  0  0
  185.2710  178.0780  146.1110 C   0  0  2  0  0  3  0  0  0  0  0  0
  187.6370  177.5380  145.6310 C   0  0  0  0  0  0  0  0  0  0  0  0
  183.9890  178.7850  144.1160 C   0  0  0  0  0  0  0  0  0  0  0  0
  186.3890  177.7070  145.1610 C   0  0  0  0  0  0  0  0  0  0  0  0
  187.0120  178.5540  147.7750 C   0  0  0  0  0  3  0  0  0  0  0  0
  184.1940  178.8790  145.4360 C   0  0  0  0  0  3  0  0  0  0  0  0
  185.7490  178.7180  147.3810 C   0  0  0  0  0  3  0  0  0  0  0  0
  182.6780  179.6790  143.3810 Cl  0  0  0  0  0  0  0  0  0  0  0  0
  184.9000  177.9940  143.2580 C   0  0  0  0  0  3  0  0  0  0  0  0
  187.9300  177.8740  146.9610 O   0  0  0  0  0  0  0  0  0  0  0  0
  1 17  1  6  0  0  0
  1  3  1  0  0  0  0
  2  4  2  0  0  0  0
  3  6  1  0  0  0  0
  5  3  2  0  0  0  0
  5  2  1  0  0  0  0
  6  4  1  0  0  0  0
  7  8  1  1  0  0  0
  7  1  1  0  0  0  0
  9  7  1  0  0  0  0
 10 11  1  6  0  0  0
 10  9  1  0  0  0  0
 12 13  2  0  0  0  0
 13 10  1  0  0  0  0
 14 15  1  6  0  0  0
 14 13  1  0  0  0  0
 16 14  1  0  0  0  0
 17 20  1  0  0  0  0
 18 22  1  0  0  0  0
 19 24  1  6  0  0  0
 19 25  1  0  0  0  0
 20 28  1  0  0  0  0
 21 24  2  0  0  0  0
 22 20  2  0  0  0  0
 22 19  1  0  0  0  0
 25 23  2  0  0  0  0
 26 21  1  0  0  0  0
 27 18  2  0  0  0  0
 27 21  1  0  0  0  0
 28 23  1  0  0  0  0
M  END
>  <MODEL>
1

>  <REMARK>
 VINA RESULT:      -8.4      0.000      0.000
  Name = 
  8 active torsions:
  status: ('A' for Active; 'I' for Inactive)
    1  A    between atoms: C_1  and  N_2
    2  A    between atoms: C_1  and  C_27
    3  A    between atoms: N_2  and  C_3
    4  A    between atoms: C_3  and  C_11
    5  A    between atoms: C_6  and  C_11
    6  A    between atoms: C_10  and  C_17
    7  A    between atoms: C_16  and  C_27
    8  A    between atoms: C_17  and  C_27
                            x       y       z     vdW  Elec       q    Type
                         _______ _______ _______ _____ _____    ______ ____

>  <TORSDO>
F 8

$$$$
=
 OpenBabel10262420473D

 28 30  0  0  1  0  0  0  0  0999 V2000
  188.8320  177.2270  141.3990 C   0  0  1  0  0  3  0  0  0  0  0  0
  191.6580  176.6660  139.1370 C   0  0  0  0  0  3  0  0  0  0  0  0
  190.1280  177.1200  140.6620 C   0  0  0  0  0  0  0  0  0  0  0  0
  192.3410  177.4300  140.1950 N   0  0  0  0  0  0  0  0  0  0  0  0
  190.2610  176.5340  139.5310 N   0  0  0  0  0  0  0  0  0  0  0  0
  191.3260  177.6880  141.1240 N   0  0  0  0  0  2  0  0  0  0  0  0
  188.9140  176.6320  142.8070 C   0  0  1  0  0  3  0  0  0  0  0  0
  190.0300  175.6060  142.9490 C   0  0  0  0  0  1  0  0  0  0  0  0
  189.0920  177.6960  143.7830 N   0  0  0  0  0  2  0  0  0  0  0  0
  187.9970  177.6140  144.7410 C   0  0  1  0  0  3  0  0  0  0  0  0
  187.1720  176.5560  144.4070 F   0  0  0  0  0  0  0  0  0  0  0  0
  189.8220  177.2180  146.3100 C   0  0  0  0  0  2  0  0  0  0  0  0
  188.5160  177.4280  146.1360 C   0  0  0  0  0  0  0  0  0  0  0  0
  187.5990  177.6090  147.3140 C   0  0  1  0  0  3  0  0  0  0  0  0
  188.3440  178.1830  148.5060 C   0  0  0  0  0  1  0  0  0  0  0  0
  186.4850  178.4750  146.9660 N   0  0  0  0  0  1  0  0  0  0  0  0
  188.2770  178.6490  141.3760 C   0  0  0  0  0  2  0  0  0  0  0  0
  185.6690  179.1880  142.5680 C   0  0  0  0  0  3  0  0  0  0  0  0
  184.6070  179.0980  140.2420 C   0  0  2  0  0  3  0  0  0  0  0  0
  187.0260  178.6930  140.5600 C   0  0  0  0  0  0  0  0  0  0  0  0
  183.2670  178.7720  142.2970 C   0  0  0  0  0  0  0  0  0  0  0  0
  185.8330  178.9620  141.1180 C   0  0  0  0  0  0  0  0  0  0  0  0
  185.9490  178.1350  138.4270 C   0  0  0  0  0  3  0  0  0  0  0  0
  183.3480  178.7040  140.9620 C   0  0  0  0  0  3  0  0  0  0  0  0
  184.7410  178.4200  138.9110 C   0  0  0  0  0  3  0  0  0  0  0  0
  181.7600  178.3740  143.0900 Cl  0  0  0  0  0  0  0  0  0  0  0  0
  184.4520  179.1090  143.1160 C   0  0  0  0  0  3  0  0  0  0  0  0
  187.0990  178.3690  139.1970 O   0  0  0  0  0  0  0  0  0  0  0  0
  1 17  1  1  0  0  0
  1  7  1  0  0  0  0
  2  5  1  0  0  0  0
  2  4  2  0  0  0  0
  3  6  1  0  0  0  0
  3  1  1  0  0  0  0
  4  6  1  0  0  0  0
  5  3  2  0  0  0  0
  7  8  1  6  0  0  0
  7  9  1  0  0  0  0
  9 10  1  0  0  0  0
 10 11  1  6  0  0  0
 10 13  1  0  0  0  0
 13 12  2  0  0  0  0
 13 14  1  0  0  0  0
 14 15  1  1  0  0  0
 16 14  1  0  0  0  0
 18 27  2  0  0  0  0
 19 25  1  6  0  0  0
 19 24  1  0  0  0  0
 19 22  1  0  0  0  0
 20 22  2  0  0  0  0
 20 17  1  0  0  0  0
 21 26  1  0  0  0  0
 21 27  1  0  0  0  0
 22 18  1  0  0  0  0
 23 25  2  0  0  0  0
 23 28  1  0  0  0  0
 24 21  2  0  0  0  0
 28 20  1  0  0  0  0
M  END
>  <MODEL>
2

>  <REMARK>
 VINA RESULT:      -8.2      2.832      5.950
  Name = 
  8 active torsions:
  status: ('A' for Active; 'I' for Inactive)
    1  A    between atoms: C_1  and  N_2
    2  A    between atoms: C_1  and  C_27
    3  A    between atoms: N_2  and  C_3
    4  A    between atoms: C_3  and  C_11
    5  A    between atoms: C_6  and  C_11
    6  A    between atoms: C_10  and  C_17
    7  A    between atoms: C_16  and  C_27
    8  A    between atoms: C_17  and  C_27
                            x       y       z     vdW  Elec       q    Type
                         _______ _______ _______ _____ _____    ______ ____

>  <TORSDO>
F 8

$$$$
=
 OpenBabel10262420473D

 28 30  0  0  1  0  0  0  0  0999 V2000
  187.2390  178.3350  142.3210 C   0  0  1  0  0  3  0  0  0  0  0  0
  189.2920  178.3830  139.2870 C   0  0  0  0  0  3  0  0  0  0  0  0
  188.1560  178.1160  141.1600 C   0  0  0  0  0  0  0  0  0  0  0  0
  189.7270  177.0960  139.8550 N   0  0  0  0  0  0  0  0  0  0  0  0
  188.3020  178.9460  140.1970 N   0  0  0  0  0  0  0  0  0  0  0  0
  188.9790  176.9850  141.0330 N   0  0  0  0  0  2  0  0  0  0  0  0
  185.8690  178.8610  141.8870 C   0  0  1  0  0  3  0  0  0  0  0  0
  185.6450  178.7540  140.3850 C   0  0  0  0  0  1  0  0  0  0  0  0
  184.8190  178.1450  142.5950 N   0  0  0  0  0  2  0  0  0  0  0  0
  183.5360  178.5890  142.0640 C   0  0  1  0  0  3  0  0  0  0  0  0
  183.0270  177.6190  141.2210 F   0  0  0  0  0  0  0  0  0  0  0  0
  183.0330  179.1540  144.3830 C   0  0  0  0  0  2  0  0  0  0  0  0
  182.5600  178.8580  143.1710 C   0  0  0  0  0  0  0  0  0  0  0  0
  181.0870  178.9230  142.8800 C   0  0  1  0  0  3  0  0  0  0  0  0
  180.2920  178.1190  143.8950 C   0  0  0  0  0  1  0  0  0  0  0  0
  180.6270  180.3000  142.8730 N   0  0  0  0  0  1  0  0  0  0  0  0
  187.1560  177.1070  143.2250 C   0  0  0  0  0  2  0  0  0  0  0  0
  189.8060  176.9250  144.4320 C   0  0  0  0  0  3  0  0  0  0  0  0
  188.8740  177.9410  146.5870 C   0  0  2  0  0  3  0  0  0  0  0  0
  187.4100  177.5040  144.6430 C   0  0  0  0  0  0  0  0  0  0  0  0
  190.9680  176.6220  146.5710 C   0  0  0  0  0  0  0  0  0  0  0  0
  188.6390  177.4340  145.1810 C   0  0  0  0  0  0  0  0  0  0  0  0
  186.4330  178.0170  146.8350 C   0  0  0  0  0  3  0  0  0  0  0  0
  189.9930  177.2110  147.2750 C   0  0  0  0  0  3  0  0  0  0  0  0
  187.6290  177.9960  147.4220 C   0  0  0  0  0  3  0  0  0  0  0  0
  192.2910  175.8460  147.4110 Cl  0  0  0  0  0  0  0  0  0  0  0  0
  190.9060  176.5550  145.0940 C   0  0  0  0  0  3  0  0  0  0  0  0
  186.3210  177.8820  145.4420 O   0  0  0  0  0  0  0  0  0  0  0  0
  1 17  1  6  0  0  0
  2  4  2  0  0  0  0
  2  5  1  0  0  0  0
  3  1  1  0  0  0  0
  4  6  1  0  0  0  0
  5  3  2  0  0  0  0
  6  3  1  0  0  0  0
  7  8  1  6  0  0  0
  7  1  1  0  0  0  0
  7  9  1  0  0  0  0
 10 11  1  6  0  0  0
 10  9  1  0  0  0  0
 10 13  1  0  0  0  0
 13 12  2  0  0  0  0
 14 13  1  0  0  0  0
 14 15  1  1  0  0  0
 16 14  1  0  0  0  0
 17 20  1  0  0  0  0
 18 27  2  0  0  0  0
 18 22  1  0  0  0  0
 19 24  1  1  0  0  0
 19 25  1  0  0  0  0
 20 22  2  0  0  0  0
 20 28  1  0  0  0  0
 21 24  2  0  0  0  0
 21 26  1  0  0  0  0
 22 19  1  0  0  0  0
 23 25  2  0  0  0  0
 27 21  1  0  0  0  0
 28 23  1  0  0  0  0
M  END
>  <MODEL>
3

>  <REMARK>
 VINA RESULT:      -8.1      3.911      6.922
  Name = 
  8 active torsions:
  status: ('A' for Active; 'I' for Inactive)
    1  A    between atoms: C_1  and  N_2
    2  A    between atoms: C_1  and  C_27
    3  A    between atoms: N_2  and  C_3
    4  A    between atoms: C_3  and  C_11
    5  A    between atoms: C_6  and  C_11
    6  A    between atoms: C_10  and  C_17
    7  A    between atoms: C_16  and  C_27
    8  A    between atoms: C_17  and  C_27
                            x       y       z     vdW  Elec       q    Type
                         _______ _______ _______ _____ _____    ______ ____

>  <TORSDO>
F 8

$$$$
=
 OpenBabel10262420473D

 28 30  0  0  1  0  0  0  0  0999 V2000
  188.6980  177.0690  141.5040 C   0  0  1  0  0  3  0  0  0  0  0  0
  191.6920  176.6830  139.4290 C   0  0  0  0  0  3  0  0  0  0  0  0
  190.0390  177.0550  140.8440 C   0  0  0  0  0  0  0  0  0  0  0  0
  192.2360  177.5570  140.4820 N   0  0  0  0  0  0  0  0  0  0  0  0
  190.2930  176.4340  139.7530 N   0  0  0  0  0  0  0  0  0  0  0  0
  191.1490  177.7570  141.3410 N   0  0  0  0  0  2  0  0  0  0  0  0
  188.7020  176.3290  142.8430 C   0  0  1  0  0  3  0  0  0  0  0  0
  190.1010  175.9360  143.2950 C   0  0  0  0  0  1  0  0  0  0  0  0
  188.0650  177.1500  143.8620 N   0  0  0  0  0  2  0  0  0  0  0  0
  189.0470  177.4070  144.9080 C   0  0  1  0  0  3  0  0  0  0  0  0
  189.6840  178.6080  144.6570 F   0  0  0  0  0  0  0  0  0  0  0  0
  187.0880  177.7150  146.3280 C   0  0  0  0  0  2  0  0  0  0  0  0
  188.3950  177.4540  146.2580 C   0  0  0  0  0  0  0  0  0  0  0  0
  189.1760  177.0850  147.4890 C   0  0  1  0  0  3  0  0  0  0  0  0
  190.6090  176.7200  147.1400 C   0  0  0  0  0  1  0  0  0  0  0  0
  189.1650  178.1760  148.4470 N   0  0  0  0  0  1  0  0  0  0  0  0
  188.1200  178.4800  141.5950 C   0  0  0  0  0  2  0  0  0  0  0  0
  185.4270  179.0710  142.5490 C   0  0  0  0  0  3  0  0  0  0  0  0
  184.6030  179.1370  140.1280 C   0  0  2  0  0  3  0  0  0  0  0  0
  186.9600  178.6150  140.6620 C   0  0  0  0  0  0  0  0  0  0  0  0
  183.0510  178.7710  142.0210 C   0  0  0  0  0  0  0  0  0  0  0  0
  185.7290  178.9080  141.1130 C   0  0  0  0  0  0  0  0  0  0  0  0
  186.0840  178.2050  138.4070 C   0  0  0  0  0  3  0  0  0  0  0  0
  183.2640  178.7630  140.6990 C   0  0  0  0  0  3  0  0  0  0  0  0
  184.8450  178.5170  138.7840 C   0  0  0  0  0  3  0  0  0  0  0  0
  181.4580  178.4000  142.6410 Cl  0  0  0  0  0  0  0  0  0  0  0  0
  184.1600  179.0180  142.9700 C   0  0  0  0  0  3  0  0  0  0  0  0
  187.1580  178.3530  139.2990 O   0  0  0  0  0  0  0  0  0  0  0  0
  1 17  1  1  0  0  0
  1  7  1  0  0  0  0
  2  5  1  0  0  0  0
  2  4  2  0  0  0  0
  3  6  1  0  0  0  0
  3  1  1  0  0  0  0
  4  6  1  0  0  0  0
  5  3  2  0  0  0  0
  7  8  1  1  0  0  0
  7  9  1  0  0  0  0
  9 10  1  0  0  0  0
 10 11  1  6  0  0  0
 10 13  1  0  0  0  0
 13 12  2  0  0  0  0
 13 14  1  0  0  0  0
 14 15  1  6  0  0  0
 14 16  1  0  0  0  0
 18 27  2  0  0  0  0
 19 25  1  6  0  0  0
 19 24  1  0  0  0  0
 19 22  1  0  0  0  0
 20 22  2  0  0  0  0
 20 17  1  0  0  0  0
 21 26  1  0  0  0  0
 21 27  1  0  0  0  0
 22 18  1  0  0  0  0
 23 25  2  0  0  0  0
 23 28  1  0  0  0  0
 24 21  2  0  0  0  0
 28 20  1  0  0  0  0
M  END
>  <MODEL>
4

>  <REMARK>
 VINA RESULT:      -8.0      2.735      5.905
  Name = 
  8 active torsions:
  status: ('A' for Active; 'I' for Inactive)
    1  A    between atoms: C_1  and  N_2
    2  A    between atoms: C_1  and  C_27
    3  A    between atoms: N_2  and  C_3
    4  A    between atoms: C_3  and  C_11
    5  A    between atoms: C_6  and  C_11
    6  A    between atoms: C_10  and  C_17
    7  A    between atoms: C_16  and  C_27
    8  A    between atoms: C_17  and  C_27
                            x       y       z     vdW  Elec       q    Type
                         _______ _______ _______ _____ _____    ______ ____

>  <TORSDO>
F 8

$$$$
=
 OpenBabel10262420473D

 28 30  0  0  1  0  0  0  0  0999 V2000
  188.7180  177.6200  141.8650 C   0  0  1  0  0  3  0  0  0  0  0  0
  192.0180  177.3390  140.2990 C   0  0  0  0  0  3  0  0  0  0  0  0
  189.9470  177.3340  141.0640 C   0  0  0  0  0  0  0  0  0  0  0  0
  191.2860  176.3370  139.5060 N   0  0  0  0  0  0  0  0  0  0  0  0
  191.0770  177.9040  141.2590 N   0  0  0  0  0  0  0  0  0  0  0  0
  189.9900  176.3780  140.0360 N   0  0  0  0  0  2  0  0  0  0  0  0
  187.5310  178.0200  140.9840 C   0  0  1  0  0  3  0  0  0  0  0  0
  186.5690  178.9680  141.6870 C   0  0  0  0  0  1  0  0  0  0  0  0
  188.0140  178.6270  139.7530 N   0  0  0  0  0  2  0  0  0  0  0  0
  187.3210  177.9930  138.6390 C   0  0  1  0  0  3  0  0  0  0  0  0
  186.1210  178.6420  138.4130 F   0  0  0  0  0  0  0  0  0  0  0  0
  189.0550  179.0060  137.2560 C   0  0  0  0  0  2  0  0  0  0  0  0
  188.1570  178.0290  137.3940 C   0  0  0  0  0  0  0  0  0  0  0  0
  188.0710  176.9110  136.3930 C   0  0  1  0  0  3  0  0  0  0  0  0
  187.7110  175.5980  137.0660 C   0  0  0  0  0  1  0  0  0  0  0  0
  187.0930  177.2210  135.3640 N   0  0  0  0  0  1  0  0  0  0  0  0
  188.3930  176.4900  142.8380 C   0  0  0  0  0  2  0  0  0  0  0  0
  190.7310  176.5810  144.5810 C   0  0  0  0  0  3  0  0  0  0  0  0
  189.3210  177.7230  146.3840 C   0  0  2  0  0  3  0  0  0  0  0  0
  188.3230  177.0250  144.2320 C   0  0  0  0  0  0  0  0  0  0  0  0
  191.4240  176.5410  146.9340 C   0  0  0  0  0  0  0  0  0  0  0  0
  189.4120  177.0800  145.0170 C   0  0  0  0  0  0  0  0  0  0  0  0
  186.8820  177.6680  146.1110 C   0  0  0  0  0  3  0  0  0  0  0  0
  190.2980  177.1280  147.3580 C   0  0  0  0  0  3  0  0  0  0  0  0
  187.9250  177.7740  146.9330 C   0  0  0  0  0  3  0  0  0  0  0  0
  192.5700  175.9270  148.1030 Cl  0  0  0  0  0  0  0  0  0  0  0  0
  191.6810  176.3400  145.4900 C   0  0  0  0  0  3  0  0  0  0  0  0
  187.0740  177.4040  144.7460 O   0  0  0  0  0  0  0  0  0  0  0  0
  1 17  1  6  0  0  0
  2  5  1  0  0  0  0
  3  5  2  0  0  0  0
  3  1  1  0  0  0  0
  4  6  1  0  0  0  0
  4  2  2  0  0  0  0
  6  3  1  0  0  0  0
  7  8  1  1  0  0  0
  7  1  1  0  0  0  0
  9  7  1  0  0  0  0
 10 11  1  6  0  0  0
 10  9  1  0  0  0  0
 12 13  2  0  0  0  0
 13 10  1  0  0  0  0
 14 15  1  1  0  0  0
 14 13  1  0  0  0  0
 16 14  1  0  0  0  0
 17 20  1  0  0  0  0
 18 22  1  0  0  0  0
 18 27  2  0  0  0  0
 19 25  1  1  0  0  0
 19 24  1  0  0  0  0
 20 28  1  0  0  0  0
 20 22  2  0  0  0  0
 21 24  2  0  0  0  0
 21 26  1  0  0  0  0
 22 19  1  0  0  0  0
 23 25  2  0  0  0  0
 27 21  1  0  0  0  0
 28 23  1  0  0  0  0
M  END
>  <MODEL>
5

>  <REMARK>
 VINA RESULT:      -8.0      3.487      5.350
  Name = 
  8 active torsions:
  status: ('A' for Active; 'I' for Inactive)
    1  A    between atoms: C_1  and  N_2
    2  A    between atoms: C_1  and  C_27
    3  A    between atoms: N_2  and  C_3
    4  A    between atoms: C_3  and  C_11
    5  A    between atoms: C_6  and  C_11
    6  A    between atoms: C_10  and  C_17
    7  A    between atoms: C_16  and  C_27
    8  A    between atoms: C_17  and  C_27
                            x       y       z     vdW  Elec       q    Type
                         _______ _______ _______ _____ _____    ______ ____

>  <TORSDO>
F 8

$$$$
=
 OpenBabel10262420473D

 28 30  0  0  1  0  0  0  0  0999 V2000
  188.1790  178.1800  141.0900 C   0  0  1  0  0  3  0  0  0  0  0  0
  189.4940  177.1270  137.8370 C   0  0  0  0  0  3  0  0  0  0  0  0
  188.7260  178.0090  139.7100 C   0  0  0  0  0  0  0  0  0  0  0  0
  189.4310  178.5810  137.6150 N   0  0  0  0  0  0  0  0  0  0  0  0
  189.0190  176.8740  139.1920 N   0  0  0  0  0  0  0  0  0  0  0  0
  188.9390  179.0800  138.8270 N   0  0  0  0  0  2  0  0  0  0  0  0
  186.7480  178.7230  141.0840 C   0  0  1  0  0  3  0  0  0  0  0  0
  186.0860  178.6230  139.7180 C   0  0  0  0  0  1  0  0  0  0  0  0
  185.9490  178.0160  142.0740 N   0  0  0  0  0  2  0  0  0  0  0  0
  185.3470  179.0080  142.9550 C   0  0  1  0  0  3  0  0  0  0  0  0
  185.6950  180.2760  142.5270 F   0  0  0  0  0  0  0  0  0  0  0  0
  183.2520  178.2640  141.9520 C   0  0  0  0  0  2  0  0  0  0  0  0
  183.8530  178.8750  142.9750 C   0  0  0  0  0  0  0  0  0  0  0  0
  183.0710  179.3040  144.1860 C   0  0  1  0  0  3  0  0  0  0  0  0
  181.7100  178.6310  144.2260 C   0  0  0  0  0  1  0  0  0  0  0  0
  183.8060  179.0020  145.4020 N   0  0  0  0  0  1  0  0  0  0  0  0
  188.3430  176.9160  141.9320 C   0  0  0  0  0  2  0  0  0  0  0  0
  187.7120  176.9230  144.7800 C   0  0  0  0  0  3  0  0  0  0  0  0
  190.1950  177.2360  145.3110 C   0  0  2  0  0  3  0  0  0  0  0  0
  189.3910  177.1340  142.9750 C   0  0  0  0  0  0  0  0  0  0  0  0
  188.4320  177.8250  146.9440 C   0  0  0  0  0  0  0  0  0  0  0  0
  189.0900  177.1140  144.2850 C   0  0  0  0  0  0  0  0  0  0  0  0
  191.6670  177.9070  143.4650 C   0  0  0  0  0  3  0  0  0  0  0  0
  189.7210  177.8790  146.5840 C   0  0  0  0  0  3  0  0  0  0  0  0
  191.4430  177.8760  144.7780 C   0  0  0  0  0  3  0  0  0  0  0  0
  187.9330  178.5220  148.4690 Cl  0  0  0  0  0  0  0  0  0  0  0  0
  187.4110  177.2490  146.0400 C   0  0  0  0  0  3  0  0  0  0  0  0
  190.6970  177.4400  142.5650 O   0  0  0  0  0  0  0  0  0  0  0  0
  1 17  1  6  0  0  0
  2  5  1  0  0  0  0
  3  1  1  0  0  0  0
  4  2  2  0  0  0  0
  4  6  1  0  0  0  0
  5  3  2  0  0  0  0
  6  3  1  0  0  0  0
  7  8  1  6  0  0  0
  7  1  1  0  0  0  0
  7  9  1  0  0  0  0
  9 10  1  0  0  0  0
 10 11  1  6  0  0  0
 10 13  1  0  0  0  0
 12 13  2  0  0  0  0
 13 14  1  0  0  0  0
 14 15  1  1  0  0  0
 14 16  1  0  0  0  0
 17 20  1  0  0  0  0
 18 27  2  0  0  0  0
 19 25  1  6  0  0  0
 19 24  1  0  0  0  0
 20 22  2  0  0  0  0
 21 26  1  0  0  0  0
 22 18  1  0  0  0  0
 22 19  1  0  0  0  0
 23 25  2  0  0  0  0
 24 21  2  0  0  0  0
 27 21  1  0  0  0  0
 28 20  1  0  0  0  0
 28 23  1  0  0  0  0
M  END
>  <MODEL>
6

>  <REMARK>
 VINA RESULT:      -7.9      3.593      6.712
  Name = 
  8 active torsions:
  status: ('A' for Active; 'I' for Inactive)
    1  A    between atoms: C_1  and  N_2
    2  A    between atoms: C_1  and  C_27
    3  A    between atoms: N_2  and  C_3
    4  A    between atoms: C_3  and  C_11
    5  A    between atoms: C_6  and  C_11
    6  A    between atoms: C_10  and  C_17
    7  A    between atoms: C_16  and  C_27
    8  A    between atoms: C_17  and  C_27
                            x       y       z     vdW  Elec       q    Type
                         _______ _______ _______ _____ _____    ______ ____

>  <TORSDO>
F 8

$$$$
=
 OpenBabel10262420473D

 28 30  0  0  1  0  0  0  0  0999 V2000
  188.5820  177.9090  142.4230 C   0  0  1  0  0  3  0  0  0  0  0  0
  190.7680  176.6860  139.7500 C   0  0  0  0  0  3  0  0  0  0  0  0
  189.6670  177.5270  141.4690 C   0  0  0  0  0  0  0  0  0  0  0  0
  191.7520  177.4400  140.5440 N   0  0  0  0  0  0  0  0  0  0  0  0
  189.4800  176.8140  140.4220 N   0  0  0  0  0  0  0  0  0  0  0  0
  191.0000  177.9470  141.6100 N   0  0  0  0  0  2  0  0  0  0  0  0
  187.3870  178.5520  141.7160 C   0  0  1  0  0  3  0  0  0  0  0  0
  187.5210  178.5390  140.2000 C   0  0  0  0  0  1  0  0  0  0  0  0
  186.1590  177.8780  142.1100 N   0  0  0  0  0  2  0  0  0  0  0  0
  185.3090  178.8510  142.7840 C   0  0  1  0  0  3  0  0  0  0  0  0
  185.6800  180.1280  142.4040 F   0  0  0  0  0  0  0  0  0  0  0  0
  183.5340  178.3500  141.1880 C   0  0  0  0  0  2  0  0  0  0  0  0
  183.8640  178.6260  142.4520 C   0  0  0  0  0  0  0  0  0  0  0  0
  182.8340  178.5810  143.5460 C   0  0  1  0  0  3  0  0  0  0  0  0
  183.4300  179.0080  144.8770 C   0  0  0  0  0  1  0  0  0  0  0  0
  181.7030  179.4310  143.2180 N   0  0  0  0  0  1  0  0  0  0  0  0
  188.1910  176.7510  143.3380 C   0  0  0  0  0  2  0  0  0  0  0  0
  190.6680  176.6380  144.8740 C   0  0  0  0  0  3  0  0  0  0  0  0
  189.4610  177.6960  146.8670 C   0  0  2  0  0  3  0  0  0  0  0  0
  188.2580  177.1870  144.7660 C   0  0  0  0  0  0  0  0  0  0  0  0
  191.5550  176.4080  147.1500 C   0  0  0  0  0  0  0  0  0  0  0  0
  189.4110  177.1490  145.4560 C   0  0  0  0  0  0  0  0  0  0  0  0
  187.0070  177.7410  146.8030 C   0  0  0  0  0  3  0  0  0  0  0  0
  190.4920  177.0000  147.7100 C   0  0  0  0  0  3  0  0  0  0  0  0
  188.1190  177.7530  147.5360 C   0  0  0  0  0  3  0  0  0  0  0  0
  192.7700  175.6730  148.1700 Cl  0  0  0  0  0  0  0  0  0  0  0  0
  191.6810  176.3020  145.6790 C   0  0  0  0  0  3  0  0  0  0  0  0
  187.0730  177.5690  145.4110 O   0  0  0  0  0  0  0  0  0  0  0  0
  1 17  1  6  0  0  0
  2  5  1  0  0  0  0
  2  4  2  0  0  0  0
  3  6  1  0  0  0  0
  3  1  1  0  0  0  0
  4  6  1  0  0  0  0
  5  3  2  0  0  0  0
  7  8  1  6  0  0  0
  7  9  1  0  0  0  0
  7  1  1  0  0  0  0
  9 10  1  0  0  0  0
 10 11  1  6  0  0  0
 12 13  2  0  0  0  0
 13 10  1  0  0  0  0
 13 14  1  0  0  0  0
 14 15  1  1  0  0  0
 16 14  1  0  0  0  0
 17 20  1  0  0  0  0
 18 22  1  0  0  0  0
 18 27  2  0  0  0  0
 19 25  1  1  0  0  0
 19 24  1  0  0  0  0
 20 28  1  0  0  0  0
 20 22  2  0  0  0  0
 21 24  2  0  0  0  0
 21 26  1  0  0  0  0
 22 19  1  0  0  0  0
 23 25  2  0  0  0  0
 27 21  1  0  0  0  0
 28 23  1  0  0  0  0
M  END
>  <MODEL>
7

>  <REMARK>
 VINA RESULT:      -7.9      3.509      6.282
  Name = 
  8 active torsions:
  status: ('A' for Active; 'I' for Inactive)
    1  A    between atoms: C_1  and  N_2
    2  A    between atoms: C_1  and  C_27
    3  A    between atoms: N_2  and  C_3
    4  A    between atoms: C_3  and  C_11
    5  A    between atoms: C_6  and  C_11
    6  A    between atoms: C_10  and  C_17
    7  A    between atoms: C_16  and  C_27
    8  A    between atoms: C_17  and  C_27
                            x       y       z     vdW  Elec       q    Type
                         _______ _______ _______ _____ _____    ______ ____

>  <TORSDO>
F 8

$$$$
=
 OpenBabel10262420473D

 28 30  0  0  1  0  0  0  0  0999 V2000
  184.5100  178.2990  141.0850 C   0  0  1  0  0  3  0  0  0  0  0  0
  181.3330  178.9520  142.7890 C   0  0  0  0  0  3  0  0  0  0  0  0
  183.1060  178.4290  141.5820 C   0  0  0  0  0  0  0  0  0  0  0  0
  180.8300  178.2460  141.5980 N   0  0  0  0  0  0  0  0  0  0  0  0
  182.7850  179.0170  142.6730 N   0  0  0  0  0  0  0  0  0  0  0  0
  181.9920  177.9450  140.8770 N   0  0  0  0  0  2  0  0  0  0  0  0
  184.6180  178.5540  139.5800 C   0  0  1  0  0  3  0  0  0  0  0  0
  183.8050  179.7570  139.1260 C   0  0  0  0  0  1  0  0  0  0  0  0
  186.0140  178.7310  139.2090 N   0  0  0  0  0  2  0  0  0  0  0  0
  186.2900  177.8610  138.0740 C   0  0  1  0  0  3  0  0  0  0  0  0
  186.0200  178.5370  136.8980 F   0  0  0  0  0  0  0  0  0  0  0  0
  188.0180  176.2240  137.5410 C   0  0  0  0  0  2  0  0  0  0  0  0
  187.7200  177.4080  138.0780 C   0  0  0  0  0  0  0  0  0  0  0  0
  188.8040  178.3320  138.5600 C   0  0  1  0  0  3  0  0  0  0  0  0
  190.0890  177.5700  138.8400 C   0  0  0  0  0  1  0  0  0  0  0  0
  189.0550  179.3780  137.5840 N   0  0  0  0  0  1  0  0  0  0  0  0
  185.4880  179.1320  141.9110 C   0  0  0  0  0  2  0  0  0  0  0  0
  185.5840  178.5710  144.7720 C   0  0  0  0  0  3  0  0  0  0  0  0
  187.5590  176.9930  144.3780 C   0  0  2  0  0  3  0  0  0  0  0  0
  186.5300  178.2450  142.5100 C   0  0  0  0  0  0  0  0  0  0  0  0
  187.1040  177.9780  146.6030 C   0  0  0  0  0  0  0  0  0  0  0  0
  186.5510  177.9780  143.8270 C   0  0  0  0  0  0  0  0  0  0  0  0
  188.6940  177.1280  142.2060 C   0  0  0  0  0  3  0  0  0  0  0  0
  187.9360  177.3030  145.8000 C   0  0  0  0  0  3  0  0  0  0  0  0
  188.7580  176.8030  143.4970 C   0  0  0  0  0  3  0  0  0  0  0  0
  187.5500  178.2540  148.2710 Cl  0  0  0  0  0  0  0  0  0  0  0  0
  185.8450  178.5570  146.0820 C   0  0  0  0  0  3  0  0  0  0  0  0
  187.5480  177.7470  141.6830 O   0  0  0  0  0  0  0  0  0  0  0  0
  1  3  1  0  0  0  0
  1 17  1  1  0  0  0
  3  5  2  0  0  0  0
  4  2  2  0  0  0  0
  5  2  1  0  0  0  0
  6  3  1  0  0  0  0
  6  4  1  0  0  0  0
  7  8  1  1  0  0  0
  7  1  1  0  0  0  0
  9  7  1  0  0  0  0
 10 11  1  6  0  0  0
 10 13  1  0  0  0  0
 10  9  1  0  0  0  0
 12 13  2  0  0  0  0
 13 14  1  0  0  0  0
 14 15  1  6  0  0  0
 16 14  1  0  0  0  0
 17 20  1  0  0  0  0
 18 27  2  0  0  0  0
 19 25  1  6  0  0  0
 19 24  1  0  0  0  0
 20 22  2  0  0  0  0
 21 26  1  0  0  0  0
 22 19  1  0  0  0  0
 22 18  1  0  0  0  0
 23 25  2  0  0  0  0
 24 21  2  0  0  0  0
 27 21  1  0  0  0  0
 28 23  1  0  0  0  0
 28 20  1  0  0  0  0
M  END
>  <MODEL>
8

>  <REMARK>
 VINA RESULT:      -7.9      4.428      6.608
  Name = 
  8 active torsions:
  status: ('A' for Active; 'I' for Inactive)
    1  A    between atoms: C_1  and  N_2
    2  A    between atoms: C_1  and  C_27
    3  A    between atoms: N_2  and  C_3
    4  A    between atoms: C_3  and  C_11
    5  A    between atoms: C_6  and  C_11
    6  A    between atoms: C_10  and  C_17
    7  A    between atoms: C_16  and  C_27
    8  A    between atoms: C_17  and  C_27
                            x       y       z     vdW  Elec       q    Type
                         _______ _______ _______ _____ _____    ______ ____

>  <TORSDO>
F 8

$$$$
=
 OpenBabel10262420473D

 28 30  0  0  1  0  0  0  0  0999 V2000
  189.9870  177.4270  140.2290 C   0  0  1  0  0  3  0  0  0  0  0  0
  192.7160  176.0420  138.2160 C   0  0  0  0  0  3  0  0  0  0  0  0
  190.9240  176.6800  139.3350 C   0  0  0  0  0  0  0  0  0  0  0  0
  191.6790  175.0320  137.9470 N   0  0  0  0  0  0  0  0  0  0  0  0
  192.1330  177.0340  139.1110 N   0  0  0  0  0  0  0  0  0  0  0  0
  190.5760  175.4870  138.6810 N   0  0  0  0  0  2  0  0  0  0  0  0
  188.9560  178.2380  139.4400 C   0  0  1  0  0  3  0  0  0  0  0  0
  189.3810  178.4920  138.0010 C   0  0  0  0  0  1  0  0  0  0  0  0
  187.6700  177.5570  139.4630 N   0  0  0  0  0  2  0  0  0  0  0  0
  186.6640  178.4810  138.9550 C   0  0  1  0  0  3  0  0  0  0  0  0
  186.0970  177.9580  137.8080 F   0  0  0  0  0  0  0  0  0  0  0  0
  185.9510  178.8390  141.2600 C   0  0  0  0  0  2  0  0  0  0  0  0
  185.5960  178.7280  139.9780 C   0  0  0  0  0  0  0  0  0  0  0  0
  184.1780  178.9770  139.5460 C   0  0  1  0  0  3  0  0  0  0  0  0
  183.2050  178.7350  140.6880 C   0  0  0  0  0  1  0  0  0  0  0  0
  184.0260  180.3340  139.0490 N   0  0  0  0  0  1  0  0  0  0  0  0
  189.3610  176.5220  141.2870 C   0  0  0  0  0  2  0  0  0  0  0  0
  187.6230  176.7020  143.6230 C   0  0  0  0  0  3  0  0  0  0  0  0
  189.6630  177.2150  145.0800 C   0  0  2  0  0  3  0  0  0  0  0  0
  189.8850  176.8850  142.6390 C   0  0  0  0  0  0  0  0  0  0  0  0
  187.3700  177.8100  145.7970 C   0  0  0  0  0  0  0  0  0  0  0  0
  189.0770  176.9450  143.7110 C   0  0  0  0  0  0  0  0  0  0  0  0
  191.7400  177.8390  143.9310 C   0  0  0  0  0  3  0  0  0  0  0  0
  188.6910  177.9200  145.9840 C   0  0  0  0  0  3  0  0  0  0  0  0
  191.0000  177.8930  145.0380 C   0  0  0  0  0  3  0  0  0  0  0  0
  186.2720  178.5860  146.9150 Cl  0  0  0  0  0  0  0  0  0  0  0  0
  186.8240  177.1020  144.6170 C   0  0  0  0  0  3  0  0  0  0  0  0
  191.2350  177.2440  142.7650 O   0  0  0  0  0  0  0  0  0  0  0  0
  1 17  1  1  0  0  0
  2  5  1  0  0  0  0
  3  1  1  0  0  0  0
  4  2  2  0  0  0  0
  4  6  1  0  0  0  0
  5  3  2  0  0  0  0
  6  3  1  0  0  0  0
  7  8  1  6  0  0  0
  7  9  1  0  0  0  0
  7  1  1  0  0  0  0
 10 11  1  6  0  0  0
 10  9  1  0  0  0  0
 10 13  1  0  0  0  0
 13 12  2  0  0  0  0
 14 13  1  0  0  0  0
 14 15  1  1  0  0  0
 16 14  1  0  0  0  0
 17 20  1  0  0  0  0
 18 22  1  0  0  0  0
 18 27  2  0  0  0  0
 19 25  1  6  0  0  0
 19 24  1  0  0  0  0
 20 28  1  0  0  0  0
 20 22  2  0  0  0  0
 21 24  2  0  0  0  0
 21 26  1  0  0  0  0
 22 19  1  0  0  0  0
 23 25  2  0  0  0  0
 27 21  1  0  0  0  0
 28 23  1  0  0  0  0
M  END
>  <MODEL>
9

>  <REMARK>
 VINA RESULT:      -7.9      3.535      5.837
  Name = 
  8 active torsions:
  status: ('A' for Active; 'I' for Inactive)
    1  A    between atoms: C_1  and  N_2
    2  A    between atoms: C_1  and  C_27
    3  A    between atoms: N_2  and  C_3
    4  A    between atoms: C_3  and  C_11
    5  A    between atoms: C_6  and  C_11
    6  A    between atoms: C_10  and  C_17
    7  A    between atoms: C_16  and  C_27
    8  A    between atoms: C_17  and  C_27
                            x       y       z     vdW  Elec       q    Type
                         _______ _______ _______ _____ _____    ______ ____

>  <TORSDO>
F 8

$$$$
