=
 OpenBabel10262420103D

 27 31  0  0  1  0  0  0  0  0999 V2000
  187.2790  177.8740  143.9860 C   0  0  0  0  0  3  0  0  0  0  0  0
  187.0390  178.3560  141.5890 C   0  0  0  0  0  0  0  0  0  0  0  0
  189.1490  177.8060  142.5100 O   0  0  0  0  0  0  0  0  0  0  0  0
  187.8560  177.4500  137.3810 C   0  0  0  0  0  3  0  0  0  0  0  0
  189.6530  175.7930  137.4190 F   0  0  0  0  0  0  0  0  0  0  0  0
  186.3780  178.5610  140.3480 N   0  0  0  0  0  0  0  0  0  0  0  0
  189.3180  177.0920  139.3420 C   0  0  0  0  0  0  0  0  0  0  0  0
  190.6710  176.2810  140.1200 Cl  0  0  0  0  0  0  0  0  0  0  0  0
  188.6930  178.3000  140.0040 C   0  0  1  0  0  3  0  0  0  0  0  0
  186.4150  178.2280  142.8820 N   0  0  0  0  0  0  0  0  0  0  0  0
  188.9830  176.7720  138.0750 C   0  0  0  0  0  0  0  0  0  0  0  0
  187.3130  178.5280  139.4500 C   0  0  0  0  0  0  0  0  0  0  0  0
  188.6010  177.6730  143.8000 C   0  0  0  0  0  0  0  0  0  0  0  0
  188.3230  178.1290  141.4310 C   0  0  0  0  0  0  0  0  0  0  0  0
  187.0360  178.2800  138.0350 C   0  0  0  0  0  3  0  0  0  0  0  0
  182.3010  178.8980  143.5730 N   0  0  0  0  0  0  0  0  0  0  0  0
  185.0060  178.4490  143.1120 C   0  0  0  0  0  0  0  0  0  0  0  0
  184.0840  178.4320  142.0540 C   0  0  0  0  0  3  0  0  0  0  0  0
  182.7290  178.6580  142.3050 C   0  0  0  0  0  3  0  0  0  0  0  0
  183.1670  178.9260  144.6190 C   0  0  0  0  0  3  0  0  0  0  0  0
  184.5300  178.7040  144.4080 C   0  0  0  0  0  3  0  0  0  0  0  0
  189.8010  177.0180  147.3210 C   0  0  0  0  0  3  0  0  0  0  0  0
  191.1270  176.6380  147.1030 C   0  0  0  0  0  3  0  0  0  0  0  0
  188.9820  177.3530  146.2380 C   0  0  0  0  0  3  0  0  0  0  0  0
  191.6360  176.5930  145.8020 C   0  0  0  0  0  3  0  0  0  0  0  0
  190.8180  176.9300  144.7200 C   0  0  0  0  0  3  0  0  0  0  0  0
  189.4820  177.3130  144.9290 C   0  0  0  0  0  0  0  0  0  0  0  0
  2 10  1  0  0  0  0
  3 13  1  0  0  0  0
  4 15  2  0  0  0  0
  4 11  1  0  0  0  0
  5 11  1  0  0  0  0
  6  2  1  0  0  0  0
  7  8  1  0  0  0  0
  9  7  1  6  0  0  0
  9 14  1  0  0  0  0
 10 17  1  0  0  0  0
 10  1  1  0  0  0  0
 11  7  2  0  0  0  0
 12  9  1  0  0  0  0
 12  6  2  0  0  0  0
 13  1  2  0  0  0  0
 13 27  1  0  0  0  0
 14  2  2  0  0  0  0
 14  3  1  0  0  0  0
 15 12  1  0  0  0  0
 16 20  1  0  0  0  0
 17 21  1  0  0  0  0
 18 19  1  0  0  0  0
 18 17  2  0  0  0  0
 19 16  2  0  0  0  0
 21 20  2  0  0  0  0
 23 22  1  0  0  0  0
 24 22  2  0  0  0  0
 25 23  2  0  0  0  0
 26 27  2  0  0  0  0
 26 25  1  0  0  0  0
 27 24  1  0  0  0  0
M  END
>  <MODEL>
1

>  <REMARK>
 VINA RESULT:      -9.7      0.000      0.000
  Name = 
  2 active torsions:
  status: ('A' for Active; 'I' for Inactive)
    1  A    between atoms: C_9  and  N_15
    2  A    between atoms: C_18  and  C_26
                            x       y       z     vdW  Elec       q    Type
                         _______ _______ _______ _____ _____    ______ ____

>  <TORSDO>
F 2

$$$$
=
 OpenBabel10262420103D

 27 31  0  0  1  0  0  0  0  0999 V2000
  186.3430  178.0420  143.7390 C   0  0  0  0  0  3  0  0  0  0  0  0
  186.6390  178.4050  141.3270 C   0  0  0  0  0  0  0  0  0  0  0  0
  188.5040  178.0110  142.7320 O   0  0  0  0  0  0  0  0  0  0  0  0
  188.4390  177.3620  137.4710 C   0  0  0  0  0  3  0  0  0  0  0  0
  190.2480  175.8070  138.0070 F   0  0  0  0  0  0  0  0  0  0  0  0
  186.2730  178.5200  139.9590 N   0  0  0  0  0  0  0  0  0  0  0  0
  189.4250  177.1690  139.7290 C   0  0  0  0  0  0  0  0  0  0  0  0
  190.5970  176.4670  140.8370 Cl  0  0  0  0  0  0  0  0  0  0  0  0
  188.6140  178.3700  140.1640 C   0  0  1  0  0  3  0  0  0  0  0  0
  185.7420  178.3010  142.4500 N   0  0  0  0  0  0  0  0  0  0  0  0
  189.4040  176.7770  138.4390 C   0  0  0  0  0  0  0  0  0  0  0  0
  187.3890  178.4980  139.3000 C   0  0  0  0  0  0  0  0  0  0  0  0
  187.6800  177.9040  143.8700 C   0  0  0  0  0  0  0  0  0  0  0  0
  187.9340  178.2410  141.4780 C   0  0  0  0  0  0  0  0  0  0  0  0
  187.4550  178.1740  137.8750 C   0  0  0  0  0  3  0  0  0  0  0  0
  181.5550  178.7800  142.1460 N   0  0  0  0  0  0  0  0  0  0  0  0
  184.3090  178.4550  142.3410 C   0  0  0  0  0  0  0  0  0  0  0  0
  183.6330  178.1600  141.1470 C   0  0  0  0  0  3  0  0  0  0  0  0
  182.2500  178.3270  141.0680 C   0  0  0  0  0  3  0  0  0  0  0  0
  182.1780  179.0780  143.3160 C   0  0  0  0  0  3  0  0  0  0  0  0
  183.5610  178.9230  143.4330 C   0  0  0  0  0  3  0  0  0  0  0  0
  190.2410  177.0130  146.4980 C   0  0  0  0  0  3  0  0  0  0  0  0
  189.4960  177.1330  147.6730 C   0  0  0  0  0  3  0  0  0  0  0  0
  189.6420  177.2670  145.2600 C   0  0  0  0  0  3  0  0  0  0  0  0
  188.1500  177.5070  147.6120 C   0  0  0  0  0  3  0  0  0  0  0  0
  187.5520  177.7600  146.3750 C   0  0  0  0  0  3  0  0  0  0  0  0
  188.2930  177.6420  145.1860 C   0  0  0  0  0  0  0  0  0  0  0  0
  1 13  2  0  0  0  0
  2 14  2  0  0  0  0
  2 10  1  0  0  0  0
  3 13  1  0  0  0  0
  4 15  2  0  0  0  0
  4 11  1  0  0  0  0
  5 11  1  0  0  0  0
  6  2  1  0  0  0  0
  7  9  1  0  0  0  0
  7  8  1  0  0  0  0
  9 12  1  6  0  0  0
  9 14  1  0  0  0  0
 10  1  1  0  0  0  0
 11  7  2  0  0  0  0
 12  6  2  0  0  0  0
 13 27  1  0  0  0  0
 14  3  1  0  0  0  0
 15 12  1  0  0  0  0
 16 20  1  0  0  0  0
 17 10  1  0  0  0  0
 17 21  1  0  0  0  0
 18 17  2  0  0  0  0
 19 18  1  0  0  0  0
 19 16  2  0  0  0  0
 20 21  2  0  0  0  0
 22 23  1  0  0  0  0
 24 22  2  0  0  0  0
 25 23  2  0  0  0  0
 26 25  1  0  0  0  0
 27 24  1  0  0  0  0
 27 26  2  0  0  0  0
M  END
>  <MODEL>
2

>  <REMARK>
 VINA RESULT:      -9.6      0.895      1.423
  Name = 
  2 active torsions:
  status: ('A' for Active; 'I' for Inactive)
    1  A    between atoms: C_9  and  N_15
    2  A    between atoms: C_18  and  C_26
                            x       y       z     vdW  Elec       q    Type
                         _______ _______ _______ _____ _____    ______ ____

>  <TORSDO>
F 2

$$$$
=
 OpenBabel10262420103D

 27 31  0  0  1  0  0  0  0  0999 V2000
  186.9720  178.0690  141.6960 C   0  0  0  0  0  3  0  0  0  0  0  0
  189.1210  177.9750  142.8860 C   0  0  0  0  0  0  0  0  0  0  0  0
  187.1030  178.3750  144.0570 O   0  0  0  0  0  0  0  0  0  0  0  0
  191.6130  176.6320  146.2290 C   0  0  0  0  0  3  0  0  0  0  0  0
  190.0460  175.7380  147.8790 F   0  0  0  0  0  0  0  0  0  0  0  0
  190.5000  177.7000  143.0920 N   0  0  0  0  0  0  0  0  0  0  0  0
  189.2030  177.1790  146.2320 C   0  0  0  0  0  0  0  0  0  0  0  0
  187.6010  177.0490  146.9460 Cl  0  0  0  0  0  0  0  0  0  0  0  0
  189.4530  178.1980  145.1420 C   0  0  1  0  0  3  0  0  0  0  0  0
  188.4060  177.8870  141.6370 N   0  0  0  0  0  0  0  0  0  0  0  0
  190.2430  176.5300  146.7960 C   0  0  0  0  0  0  0  0  0  0  0  0
  190.6880  177.8250  144.3690 C   0  0  0  0  0  0  0  0  0  0  0  0
  186.3480  178.3060  142.8690 C   0  0  0  0  0  0  0  0  0  0  0  0
  188.4850  178.1820  144.0170 C   0  0  0  0  0  0  0  0  0  0  0  0
  191.8370  177.2340  145.0550 C   0  0  0  0  0  3  0  0  0  0  0  0
  190.2900  177.2110  137.9160 N   0  0  0  0  0  0  0  0  0  0  0  0
  189.0490  177.6450  140.3670 C   0  0  0  0  0  0  0  0  0  0  0  0
  190.0790  176.6990  140.2390 C   0  0  0  0  0  3  0  0  0  0  0  0
  190.6890  176.4940  139.0010 C   0  0  0  0  0  3  0  0  0  0  0  0
  189.2990  178.1370  138.0050 C   0  0  0  0  0  3  0  0  0  0  0  0
  188.6650  178.3700  139.2270 C   0  0  0  0  0  3  0  0  0  0  0  0
  182.8810  178.9020  144.2420 C   0  0  0  0  0  3  0  0  0  0  0  0
  182.1040  178.8530  143.0830 C   0  0  0  0  0  3  0  0  0  0  0  0
  184.2650  178.7230  144.1650 C   0  0  0  0  0  3  0  0  0  0  0  0
  182.7110  178.6260  141.8440 C   0  0  0  0  0  3  0  0  0  0  0  0
  184.0940  178.4460  141.7670 C   0  0  0  0  0  3  0  0  0  0  0  0
  184.8850  178.4940  142.9280 C   0  0  0  0  0  0  0  0  0  0  0  0
  1 13  2  0  0  0  0
  2  6  1  0  0  0  0
  2 14  2  0  0  0  0
  4 11  1  0  0  0  0
  6 12  2  0  0  0  0
  7 11  2  0  0  0  0
  7  8  1  0  0  0  0
  9 14  1  6  0  0  0
  9  7  1  0  0  0  0
 10  1  1  0  0  0  0
 10  2  1  0  0  0  0
 11  5  1  0  0  0  0
 12 15  1  0  0  0  0
 12  9  1  0  0  0  0
 13 27  1  0  0  0  0
 13  3  1  0  0  0  0
 14  3  1  0  0  0  0
 15  4  2  0  0  0  0
 16 20  2  0  0  0  0
 16 19  1  0  0  0  0
 17 10  1  0  0  0  0
 18 17  1  0  0  0  0
 19 18  2  0  0  0  0
 20 21  1  0  0  0  0
 21 17  2  0  0  0  0
 23 22  2  0  0  0  0
 24 22  1  0  0  0  0
 25 23  1  0  0  0  0
 26 25  2  0  0  0  0
 26 27  1  0  0  0  0
 27 24  2  0  0  0  0
M  END
>  <MODEL>
3

>  <REMARK>
 VINA RESULT:      -9.4      3.031      7.013
  Name = 
  2 active torsions:
  status: ('A' for Active; 'I' for Inactive)
    1  A    between atoms: C_9  and  N_15
    2  A    between atoms: C_18  and  C_26
                            x       y       z     vdW  Elec       q    Type
                         _______ _______ _______ _____ _____    ______ ____

>  <TORSDO>
F 2

$$$$
=
 OpenBabel10262420103D

 27 31  0  0  1  0  0  0  0  0999 V2000
  185.4520  178.3500  142.2250 C   0  0  0  0  0  3  0  0  0  0  0  0
  186.6700  178.4740  140.0940 C   0  0  0  0  0  0  0  0  0  0  0  0
  187.8330  178.2610  142.1450 O   0  0  0  0  0  0  0  0  0  0  0  0
  189.8050  177.0840  137.3670 C   0  0  0  0  0  3  0  0  0  0  0  0
  191.2300  175.6270  138.7180 F   0  0  0  0  0  0  0  0  0  0  0  0
  186.8660  178.4430  138.6870 N   0  0  0  0  0  0  0  0  0  0  0  0
  189.8310  177.1390  139.8380 C   0  0  0  0  0  0  0  0  0  0  0  0
  190.4650  176.5760  141.3790 Cl  0  0  0  0  0  0  0  0  0  0  0  0
  188.9400  178.3610  139.8010 C   0  0  1  0  0  3  0  0  0  0  0  0
  185.4040  178.4650  140.7840 N   0  0  0  0  0  0  0  0  0  0  0  0
  190.3050  176.6180  138.6880 C   0  0  0  0  0  0  0  0  0  0  0  0
  188.1500  178.3770  138.5200 C   0  0  0  0  0  0  0  0  0  0  0  0
  186.6290  178.2530  142.8770 C   0  0  0  0  0  0  0  0  0  0  0  0
  187.8000  178.3520  140.7520 C   0  0  0  0  0  0  0  0  0  0  0  0
  188.7590  177.9130  137.2740 C   0  0  0  0  0  3  0  0  0  0  0  0
  181.6650  178.7860  138.8440 N   0  0  0  0  0  0  0  0  0  0  0  0
  184.1310  178.5790  140.1120 C   0  0  0  0  0  0  0  0  0  0  0  0
  183.8050  179.7150  139.3550 C   0  0  0  0  0  3  0  0  0  0  0  0
  182.5620  179.8010  138.7240 C   0  0  0  0  0  3  0  0  0  0  0  0
  181.9460  177.6740  139.5720 C   0  0  0  0  0  3  0  0  0  0  0  0
  183.1790  177.5520  140.2170 C   0  0  0  0  0  3  0  0  0  0  0  0
  187.8890  177.5030  146.3580 C   0  0  0  0  0  3  0  0  0  0  0  0
  186.8040  177.8990  147.1440 C   0  0  0  0  0  3  0  0  0  0  0  0
  187.8250  177.6220  144.9660 C   0  0  0  0  0  3  0  0  0  0  0  0
  185.6550  178.4150  146.5390 C   0  0  0  0  0  3  0  0  0  0  0  0
  185.5900  178.5330  145.1480 C   0  0  0  0  0  3  0  0  0  0  0  0
  186.6760  178.1370  144.3480 C   0  0  0  0  0  0  0  0  0  0  0  0
  1 13  2  0  0  0  0
  2 14  2  0  0  0  0
  2 10  1  0  0  0  0
  3 13  1  0  0  0  0
  4 11  1  0  0  0  0
  6  2  1  0  0  0  0
  7  8  1  0  0  0  0
  9 12  1  6  0  0  0
  9  7  1  0  0  0  0
  9 14  1  0  0  0  0
 10  1  1  0  0  0  0
 11  5  1  0  0  0  0
 11  7  2  0  0  0  0
 12  6  2  0  0  0  0
 13 27  1  0  0  0  0
 14  3  1  0  0  0  0
 15  4  2  0  0  0  0
 15 12  1  0  0  0  0
 16 20  1  0  0  0  0
 17 21  1  0  0  0  0
 17 10  1  0  0  0  0
 18 17  2  0  0  0  0
 19 16  2  0  0  0  0
 19 18  1  0  0  0  0
 20 21  2  0  0  0  0
 22 23  1  0  0  0  0
 24 22  2  0  0  0  0
 25 23  2  0  0  0  0
 26 25  1  0  0  0  0
 27 24  1  0  0  0  0
 27 26  2  0  0  0  0
M  END
>  <MODEL>
4

>  <REMARK>
 VINA RESULT:      -9.3      1.964      3.074
  Name = 
  2 active torsions:
  status: ('A' for Active; 'I' for Inactive)
    1  A    between atoms: C_9  and  N_15
    2  A    between atoms: C_18  and  C_26
                            x       y       z     vdW  Elec       q    Type
                         _______ _______ _______ _____ _____    ______ ____

>  <TORSDO>
F 2

$$$$
=
 OpenBabel10262420103D

 27 31  0  0  1  0  0  0  0  0999 V2000
  185.4180  178.3210  142.2660 C   0  0  0  0  0  3  0  0  0  0  0  0
  186.6380  178.4390  140.1360 C   0  0  0  0  0  0  0  0  0  0  0  0
  187.8010  178.2670  142.1920 O   0  0  0  0  0  0  0  0  0  0  0  0
  189.7980  177.0660  137.4300 C   0  0  0  0  0  3  0  0  0  0  0  0
  191.2430  175.6460  138.8000 F   0  0  0  0  0  0  0  0  0  0  0  0
  186.8370  178.3950  138.7300 N   0  0  0  0  0  0  0  0  0  0  0  0
  189.8190  177.1490  139.9010 C   0  0  0  0  0  0  0  0  0  0  0  0
  190.4590  176.6130  141.4480 Cl  0  0  0  0  0  0  0  0  0  0  0  0
  188.9100  178.3570  139.8480 C   0  0  1  0  0  3  0  0  0  0  0  0
  185.3710  178.4190  140.8250 N   0  0  0  0  0  0  0  0  0  0  0  0
  190.3030  176.6230  138.7570 C   0  0  0  0  0  0  0  0  0  0  0  0
  188.1230  178.3470  138.5660 C   0  0  0  0  0  0  0  0  0  0  0  0
  186.5960  178.2490  142.9220 C   0  0  0  0  0  0  0  0  0  0  0  0
  187.7690  178.3410  140.7970 C   0  0  0  0  0  0  0  0  0  0  0  0
  188.7400  177.8780  137.3260 C   0  0  0  0  0  3  0  0  0  0  0  0
  181.6600  178.6830  138.8220 N   0  0  0  0  0  0  0  0  0  0  0  0
  184.0970  178.5060  140.1490 C   0  0  0  0  0  0  0  0  0  0  0  0
  183.1260  177.5030  140.2930 C   0  0  0  0  0  3  0  0  0  0  0  0
  181.9080  177.6100  139.6200 C   0  0  0  0  0  3  0  0  0  0  0  0
  182.5800  179.6700  138.6580 C   0  0  0  0  0  3  0  0  0  0  0  0
  183.8100  179.5990  139.3150 C   0  0  0  0  0  3  0  0  0  0  0  0
  185.5670  178.4910  146.5480 C   0  0  0  0  0  3  0  0  0  0  0  0
  186.6930  177.9820  147.1970 C   0  0  0  0  0  3  0  0  0  0  0  0
  185.5420  178.5740  145.1520 C   0  0  0  0  0  3  0  0  0  0  0  0
  187.7960  177.5560  146.4520 C   0  0  0  0  0  3  0  0  0  0  0  0
  187.7720  177.6400  145.0580 C   0  0  0  0  0  3  0  0  0  0  0  0
  186.6430  178.1510  144.3940 C   0  0  0  0  0  0  0  0  0  0  0  0
  1 13  2  0  0  0  0
  2 14  2  0  0  0  0
  2 10  1  0  0  0  0
  3 13  1  0  0  0  0
  4 11  1  0  0  0  0
  6  2  1  0  0  0  0
  7  8  1  0  0  0  0
  9 12  1  6  0  0  0
  9  7  1  0  0  0  0
  9 14  1  0  0  0  0
 10  1  1  0  0  0  0
 11  5  1  0  0  0  0
 11  7  2  0  0  0  0
 12  6  2  0  0  0  0
 13 27  1  0  0  0  0
 14  3  1  0  0  0  0
 15  4  2  0  0  0  0
 15 12  1  0  0  0  0
 16 19  1  0  0  0  0
 17 18  1  0  0  0  0
 17 10  1  0  0  0  0
 19 18  2  0  0  0  0
 20 16  2  0  0  0  0
 20 21  1  0  0  0  0
 21 17  2  0  0  0  0
 22 23  1  0  0  0  0
 24 22  2  0  0  0  0
 25 23  2  0  0  0  0
 26 25  1  0  0  0  0
 27 26  2  0  0  0  0
 27 24  1  0  0  0  0
M  END
>  <MODEL>
5

>  <REMARK>
 VINA RESULT:      -9.3      1.983      3.014
  Name = 
  2 active torsions:
  status: ('A' for Active; 'I' for Inactive)
    1  A    between atoms: C_9  and  N_15
    2  A    between atoms: C_18  and  C_26
                            x       y       z     vdW  Elec       q    Type
                         _______ _______ _______ _____ _____    ______ ____

>  <TORSDO>
F 2

$$$$
=
 OpenBabel10262420103D

 27 31  0  0  1  0  0  0  0  0999 V2000
  188.7750  177.5660  142.4020 C   0  0  0  0  0  3  0  0  0  0  0  0
  186.7330  178.4720  143.4250 C   0  0  0  0  0  0  0  0  0  0  0  0
  187.0330  178.5130  141.0770 O   0  0  0  0  0  0  0  0  0  0  0  0
  182.3770  178.9180  143.5790 C   0  0  0  0  0  3  0  0  0  0  0  0
  181.5670  178.0480  141.4420 F   0  0  0  0  0  0  0  0  0  0  0  0
  185.7610  178.7100  144.4340 N   0  0  0  0  0  0  0  0  0  0  0  0
  183.8260  178.6590  141.5930 C   0  0  0  0  0  0  0  0  0  0  0  0
  184.0510  178.2270  139.9040 Cl  0  0  0  0  0  0  0  0  0  0  0  0
  184.9340  179.3780  142.3320 C   0  0  1  0  0  3  0  0  0  0  0  0
  188.0140  177.8350  143.6010 N   0  0  0  0  0  0  0  0  0  0  0  0
  182.6070  178.5450  142.1580 C   0  0  0  0  0  0  0  0  0  0  0  0
  184.7420  179.2210  143.8160 C   0  0  0  0  0  0  0  0  0  0  0  0
  188.2960  177.8970  141.1840 C   0  0  0  0  0  0  0  0  0  0  0  0
  186.2790  178.7600  142.2260 C   0  0  0  0  0  0  0  0  0  0  0  0
  183.3960  179.2260  144.3900 C   0  0  0  0  0  3  0  0  0  0  0  0
  189.6230  176.8140  147.3720 N   0  0  0  0  0  0  0  0  0  0  0  0
  188.5550  177.4800  144.8930 C   0  0  0  0  0  0  0  0  0  0  0  0
  187.7560  177.4930  146.0470 C   0  0  0  0  0  3  0  0  0  0  0  0
  188.3090  177.1540  147.2830 C   0  0  0  0  0  3  0  0  0  0  0  0
  190.4260  176.7950  146.2760 C   0  0  0  0  0  3  0  0  0  0  0  0
  189.9090  177.1280  145.0220 C   0  0  0  0  0  3  0  0  0  0  0  0
  189.4300  177.9890  137.5830 C   0  0  0  0  0  3  0  0  0  0  0  0
  190.5290  177.1270  137.6090 C   0  0  0  0  0  3  0  0  0  0  0  0
  188.7070  178.2360  138.7530 C   0  0  0  0  0  3  0  0  0  0  0  0
  190.9060  176.5120  138.8060 C   0  0  0  0  0  3  0  0  0  0  0  0
  190.1820  176.7580  139.9760 C   0  0  0  0  0  3  0  0  0  0  0  0
  189.0750  177.6240  139.9600 C   0  0  0  0  0  0  0  0  0  0  0  0
  1 10  1  0  0  0  0
  2 10  1  0  0  0  0
  2  6  1  0  0  0  0
  3 13  1  0  0  0  0
  3 14  1  0  0  0  0
  4 15  2  0  0  0  0
  5 11  1  0  0  0  0
  7 11  2  0  0  0  0
  8  7  1  0  0  0  0
  9  7  1  6  0  0  0
  9 12  1  0  0  0  0
 10 17  1  0  0  0  0
 11  4  1  0  0  0  0
 12 15  1  0  0  0  0
 12  6  2  0  0  0  0
 13  1  2  0  0  0  0
 14  9  1  0  0  0  0
 14  2  2  0  0  0  0
 17 21  2  0  0  0  0
 17 18  1  0  0  0  0
 18 19  2  0  0  0  0
 19 16  1  0  0  0  0
 20 16  2  0  0  0  0
 21 20  1  0  0  0  0
 22 23  2  0  0  0  0
 22 24  1  0  0  0  0
 23 25  1  0  0  0  0
 24 27  2  0  0  0  0
 25 26  2  0  0  0  0
 27 26  1  0  0  0  0
 27 13  1  0  0  0  0
M  END
>  <MODEL>
6

>  <REMARK>
 VINA RESULT:      -9.1      2.755      6.273
  Name = 
  2 active torsions:
  status: ('A' for Active; 'I' for Inactive)
    1  A    between atoms: C_9  and  N_15
    2  A    between atoms: C_18  and  C_26
                            x       y       z     vdW  Elec       q    Type
                         _______ _______ _______ _____ _____    ______ ____

>  <TORSDO>
F 2

$$$$
=
 OpenBabel10262420103D

 27 31  0  0  1  0  0  0  0  0999 V2000
  188.4230  177.8170  140.6500 C   0  0  0  0  0  3  0  0  0  0  0  0
  189.9970  177.7640  142.5370 C   0  0  0  0  0  0  0  0  0  0  0  0
  187.7400  178.4000  142.8590 O   0  0  0  0  0  0  0  0  0  0  0  0
  191.0230  176.7150  146.6650 C   0  0  0  0  0  3  0  0  0  0  0  0
  188.9020  176.1040  147.7170 F   0  0  0  0  0  0  0  0  0  0  0  0
  191.1850  177.4490  143.2510 N   0  0  0  0  0  0  0  0  0  0  0  0
  188.8240  177.3740  145.7470 C   0  0  0  0  0  0  0  0  0  0  0  0
  187.0690  177.4100  145.8460 Cl  0  0  0  0  0  0  0  0  0  0  0  0
  189.5310  178.2410  144.7290 C   0  0  1  0  0  3  0  0  0  0  0  0
  189.7630  177.5600  141.1290 N   0  0  0  0  0  0  0  0  0  0  0  0
  189.5370  176.7490  146.7070 C   0  0  0  0  0  0  0  0  0  0  0  0
  190.9220  177.7170  144.4920 C   0  0  0  0  0  0  0  0  0  0  0  0
  187.4490  178.2250  141.4920 C   0  0  0  0  0  0  0  0  0  0  0  0
  189.0250  178.1360  143.3380 C   0  0  0  0  0  0  0  0  0  0  0  0
  191.6980  177.1590  145.5980 C   0  0  0  0  0  3  0  0  0  0  0  0
  192.7440  176.3250  138.4020 N   0  0  0  0  0  0  0  0  0  0  0  0
  190.7890  177.1360  140.2050 C   0  0  0  0  0  0  0  0  0  0  0  0
  192.1310  177.5050  140.3850 C   0  0  0  0  0  3  0  0  0  0  0  0
  193.0990  177.0880  139.4700 C   0  0  0  0  0  3  0  0  0  0  0  0
  191.4540  175.9530  138.1950 C   0  0  0  0  0  3  0  0  0  0  0  0
  190.4570  176.3510  139.0880 C   0  0  0  0  0  3  0  0  0  0  0  0
  183.7110  178.7630  141.4650 C   0  0  0  0  0  3  0  0  0  0  0  0
  183.4660  178.9860  140.1090 C   0  0  0  0  0  3  0  0  0  0  0  0
  185.0140  178.5160  141.9100 C   0  0  0  0  0  3  0  0  0  0  0  0
  184.5230  178.9630  139.1950 C   0  0  0  0  0  3  0  0  0  0  0  0
  185.8240  178.7150  139.6380 C   0  0  0  0  0  3  0  0  0  0  0  0
  186.0820  178.4890  141.0020 C   0  0  0  0  0  0  0  0  0  0  0  0
  1 10  1  0  0  0  0
  1 13  2  0  0  0  0
  2  6  1  0  0  0  0
  2 14  2  0  0  0  0
  3 14  1  0  0  0  0
  4 11  1  0  0  0  0
  6 12  2  0  0  0  0
  7  8  1  0  0  0  0
  7 11  2  0  0  0  0
  9 14  1  6  0  0  0
  9  7  1  0  0  0  0
 10  2  1  0  0  0  0
 11  5  1  0  0  0  0
 12  9  1  0  0  0  0
 12 15  1  0  0  0  0
 13  3  1  0  0  0  0
 15  4  2  0  0  0  0
 16 19  1  0  0  0  0
 17 18  1  0  0  0  0
 17 10  1  0  0  0  0
 19 18  2  0  0  0  0
 20 16  2  0  0  0  0
 20 21  1  0  0  0  0
 21 17  2  0  0  0  0
 22 24  1  0  0  0  0
 23 22  2  0  0  0  0
 25 26  2  0  0  0  0
 25 23  1  0  0  0  0
 26 27  1  0  0  0  0
 27 13  1  0  0  0  0
 27 24  2  0  0  0  0
M  END
>  <MODEL>
7

>  <REMARK>
 VINA RESULT:      -9.0      3.349      7.597
  Name = 
  2 active torsions:
  status: ('A' for Active; 'I' for Inactive)
    1  A    between atoms: C_9  and  N_15
    2  A    between atoms: C_18  and  C_26
                            x       y       z     vdW  Elec       q    Type
                         _______ _______ _______ _____ _____    ______ ____

>  <TORSDO>
F 2

$$$$
=
 OpenBabel10262420103D

 27 31  0  0  1  0  0  0  0  0999 V2000
  186.1310  178.1200  144.8120 C   0  0  0  0  0  3  0  0  0  0  0  0
  188.2520  177.2690  143.9090 C   0  0  0  0  0  0  0  0  0  0  0  0
  186.3620  177.5450  142.5100 O   0  0  0  0  0  0  0  0  0  0  0  0
  191.3840  177.2140  140.8470 C   0  0  0  0  0  3  0  0  0  0  0  0
  190.4570  178.4600  138.9580 F   0  0  0  0  0  0  0  0  0  0  0  0
  189.6420  176.9780  143.8680 N   0  0  0  0  0  0  0  0  0  0  0  0
  188.9630  177.6250  140.5620 C   0  0  0  0  0  0  0  0  0  0  0  0
  187.6160  178.2770  139.6390 Cl  0  0  0  0  0  0  0  0  0  0  0  0
  188.6900  176.7050  141.7320 C   0  0  1  0  0  3  0  0  0  0  0  0
  187.5090  177.7510  145.0470 N   0  0  0  0  0  0  0  0  0  0  0  0
  190.2230  177.7690  140.1010 C   0  0  0  0  0  0  0  0  0  0  0  0
  189.8910  176.6600  142.6360 C   0  0  0  0  0  0  0  0  0  0  0  0
  185.5810  178.0170  143.5840 C   0  0  0  0  0  0  0  0  0  0  0  0
  187.7000  177.2030  142.7190 C   0  0  0  0  0  0  0  0  0  0  0  0
  191.2400  176.6970  142.0720 C   0  0  0  0  0  3  0  0  0  0  0  0
  189.1210  178.0550  148.9400 N   0  0  0  0  0  0  0  0  0  0  0  0
  188.0690  177.8600  146.3740 C   0  0  0  0  0  0  0  0  0  0  0  0
  189.4390  177.6650  146.6060 C   0  0  0  0  0  3  0  0  0  0  0  0
  189.9500  177.7680  147.9010 C   0  0  0  0  0  3  0  0  0  0  0  0
  187.7890  178.2460  148.7520 C   0  0  0  0  0  3  0  0  0  0  0  0
  187.2410  178.1520  147.4710 C   0  0  0  0  0  3  0  0  0  0  0  0
  182.3440  178.7700  141.7900 C   0  0  0  0  0  3  0  0  0  0  0  0
  181.5020  179.1050  142.8520 C   0  0  0  0  0  3  0  0  0  0  0  0
  183.6740  178.4150  142.0360 C   0  0  0  0  0  3  0  0  0  0  0  0
  181.9880  179.0860  144.1620 C   0  0  0  0  0  3  0  0  0  0  0  0
  183.3180  178.7320  144.4080 C   0  0  0  0  0  3  0  0  0  0  0  0
  184.1740  178.3930  143.3460 C   0  0  0  0  0  0  0  0  0  0  0  0
  1 10  1  0  0  0  0
  2 10  1  0  0  0  0
  3 14  1  0  0  0  0
  3 13  1  0  0  0  0
  4 15  2  0  0  0  0
  5 11  1  0  0  0  0
  6  2  1  0  0  0  0
  8  7  1  0  0  0  0
  9  7  1  6  0  0  0
  9 12  1  0  0  0  0
  9 14  1  0  0  0  0
 10 17  1  0  0  0  0
 11  7  2  0  0  0  0
 11  4  1  0  0  0  0
 12  6  2  0  0  0  0
 13  1  2  0  0  0  0
 14  2  2  0  0  0  0
 15 12  1  0  0  0  0
 17 18  2  0  0  0  0
 17 21  1  0  0  0  0
 18 19  1  0  0  0  0
 19 16  2  0  0  0  0
 20 16  1  0  0  0  0
 21 20  2  0  0  0  0
 22 24  2  0  0  0  0
 22 23  1  0  0  0  0
 23 25  2  0  0  0  0
 24 27  1  0  0  0  0
 25 26  1  0  0  0  0
 27 13  1  0  0  0  0
 27 26  2  0  0  0  0
M  END
>  <MODEL>
8

>  <REMARK>
 VINA RESULT:      -8.9      2.406      5.818
  Name = 
  2 active torsions:
  status: ('A' for Active; 'I' for Inactive)
    1  A    between atoms: C_9  and  N_15
    2  A    between atoms: C_18  and  C_26
                            x       y       z     vdW  Elec       q    Type
                         _______ _______ _______ _____ _____    ______ ____

>  <TORSDO>
F 2

$$$$
=
 OpenBabel10262420103D

 27 31  0  0  1  0  0  0  0  0999 V2000
  186.2510  178.4330  140.8860 C   0  0  0  0  0  3  0  0  0  0  0  0
  186.9880  177.6730  143.1030 C   0  0  0  0  0  0  0  0  0  0  0  0
  188.4240  177.5130  141.2270 O   0  0  0  0  0  0  0  0  0  0  0  0
  189.9810  177.4440  146.2940 C   0  0  0  0  0  3  0  0  0  0  0  0
  192.0560  178.2550  145.2870 F   0  0  0  0  0  0  0  0  0  0  0  0
  186.9720  177.5270  144.5160 N   0  0  0  0  0  0  0  0  0  0  0  0
  190.3440  177.5440  143.8510 C   0  0  0  0  0  0  0  0  0  0  0  0
  191.3700  177.8900  142.4650 Cl  0  0  0  0  0  0  0  0  0  0  0  0
  189.0390  176.8070  143.6470 C   0  0  1  0  0  3  0  0  0  0  0  0
  185.9510  178.2550  142.2890 N   0  0  0  0  0  0  0  0  0  0  0  0
  190.8150  177.7420  145.1000 C   0  0  0  0  0  0  0  0  0  0  0  0
  188.1330  177.0390  144.8250 C   0  0  0  0  0  0  0  0  0  0  0  0
  187.4490  178.0720  140.3780 C   0  0  0  0  0  0  0  0  0  0  0  0
  188.1540  177.3540  142.5880 C   0  0  0  0  0  0  0  0  0  0  0  0
  188.6870  177.1240  146.1760 C   0  0  0  0  0  3  0  0  0  0  0  0
  182.1540  179.3580  143.7790 N   0  0  0  0  0  0  0  0  0  0  0  0
  184.6570  178.6400  142.8030 C   0  0  0  0  0  0  0  0  0  0  0  0
  184.4900  179.0200  144.1450 C   0  0  0  0  0  3  0  0  0  0  0  0
  183.2260  179.3780  144.6160 C   0  0  0  0  0  3  0  0  0  0  0  0
  182.2800  178.9930  142.4760 C   0  0  0  0  0  3  0  0  0  0  0  0
  183.5290  178.6280  141.9680 C   0  0  0  0  0  3  0  0  0  0  0  0
  187.0110  178.2290  136.6300 C   0  0  0  0  0  3  0  0  0  0  0  0
  188.2940  178.5860  136.2090 C   0  0  0  0  0  3  0  0  0  0  0  0
  186.7420  178.0630  137.9920 C   0  0  0  0  0  3  0  0  0  0  0  0
  189.3100  178.7780  137.1500 C   0  0  0  0  0  3  0  0  0  0  0  0
  189.0410  178.6120  138.5110 C   0  0  0  0  0  3  0  0  0  0  0  0
  187.7530  178.2530  138.9450 C   0  0  0  0  0  0  0  0  0  0  0  0
  1 10  1  0  0  0  0
  2  6  1  0  0  0  0
  3 14  1  0  0  0  0
  6 12  2  0  0  0  0
  7 11  2  0  0  0  0
  8  7  1  0  0  0  0
  9 14  1  6  0  0  0
  9  7  1  0  0  0  0
  9 12  1  0  0  0  0
 10 17  1  0  0  0  0
 10  2  1  0  0  0  0
 11  5  1  0  0  0  0
 11  4  1  0  0  0  0
 12 15  1  0  0  0  0
 13  1  2  0  0  0  0
 13  3  1  0  0  0  0
 14  2  2  0  0  0  0
 15  4  2  0  0  0  0
 16 19  1  0  0  0  0
 17 18  1  0  0  0  0
 18 19  2  0  0  0  0
 20 16  2  0  0  0  0
 21 20  1  0  0  0  0
 21 17  2  0  0  0  0
 22 24  1  0  0  0  0
 23 22  2  0  0  0  0
 23 25  1  0  0  0  0
 24 27  2  0  0  0  0
 25 26  2  0  0  0  0
 26 27  1  0  0  0  0
 27 13  1  0  0  0  0
M  END
>  <MODEL>
9

>  <REMARK>
 VINA RESULT:      -8.8      2.071      5.870
  Name = 
  2 active torsions:
  status: ('A' for Active; 'I' for Inactive)
    1  A    between atoms: C_9  and  N_15
    2  A    between atoms: C_18  and  C_26
                            x       y       z     vdW  Elec       q    Type
                         _______ _______ _______ _____ _____    ______ ____

>  <TORSDO>
F 2

$$$$
