=
 OpenBabel10262419553D

 25 27  0  0  1  0  0  0  0  0999 V2000
  188.6250  177.6990  145.1290 N   0  0  0  0  0  0  0  0  0  0  0  0
  187.2190  177.9840  145.0470 C   0  0  0  0  0  0  0  0  0  0  0  0
  188.4410  177.0110  147.4650 C   0  0  0  0  0  2  0  0  0  0  0  0
  189.4470  177.3530  143.9770 C   0  0  1  0  0  3  0  0  0  0  0  0
  187.0830  177.5550  147.4530 N   0  0  0  0  0  2  0  0  0  0  0  0
  190.8910  177.2270  144.4420 C   0  0  2  0  0  3  0  0  0  0  0  0
  185.0860  178.2370  146.1830 C   0  0  0  0  0  0  0  0  0  0  0  0
  184.3400  178.1960  147.3160 F   0  0  0  0  0  0  0  0  0  0  0  0
  186.6070  178.3220  143.8330 C   0  0  0  0  0  3  0  0  0  0  0  0
  189.2930  177.7300  146.4220 C   0  0  1  0  0  3  0  0  0  0  0  0
  190.9050  176.9190  146.2380 S   0  0  0  0  0  0  0  0  0  0  0  0
  184.4840  178.5770  144.9690 C   0  0  0  0  0  3  0  0  0  0  0  0
  185.2340  178.6180  143.7890 C   0  0  0  0  0  0  0  0  0  0  0  0
  186.4510  177.9280  146.2220 C   0  0  0  0  0  0  0  0  0  0  0  0
  184.5800  178.9680  142.5630 N   0  0  0  0  0  0  0  0  0  0  0  0
  184.2230  178.0920  141.6770 C   0  0  0  0  0  3  0  0  0  0  0  0
  183.5480  178.5210  140.4190 C   0  0  2  0  0  3  0  0  0  0  0  0
  183.0450  177.4040  139.7530 O   0  0  0  0  0  1  0  0  0  0  0  0
  184.4970  179.2590  139.5320 C   0  0  0  0  0  0  0  0  0  0  0  0
  185.7180  178.6860  139.2030 O   0  0  0  0  0  1  0  0  0  0  0  0
  184.1900  180.3890  139.0650 O   0  0  0  0  0  0  0  0  0  0  0  0
  192.1790  179.4530  143.9260 N   0  0  0  0  0  0  0  0  0  0  0  0
  191.6110  178.4710  144.1540 C   0  0  0  0  0  0  0  0  0  0  0  0
  190.0500  175.3320  142.8050 O   0  0  0  0  0  1  0  0  0  0  0  0
  188.9740  176.0490  143.3360 C   0  0  0  0  0  2  0  0  0  0  0  0
  1 10  1  0  0  0  0
  2  1  1  0  0  0  0
  2 14  1  0  0  0  0
  4 25  1  1  0  0  0
  4  6  1  0  0  0  0
  4  1  1  0  0  0  0
  5  3  1  0  0  0  0
  6 23  1  1  0  0  0
  6 11  1  0  0  0  0
  7 14  2  0  0  0  0
  7  8  1  0  0  0  0
  9  2  2  0  0  0  0
 10  3  1  1  0  0  0
 11 10  1  0  0  0  0
 12  7  1  0  0  0  0
 13  9  1  0  0  0  0
 13 12  2  0  0  0  0
 14  5  1  0  0  0  0
 15 13  1  0  0  0  0
 16 15  2  0  0  0  0
 17 18  1  6  0  0  0
 17 16  1  0  0  0  0
 19 17  1  0  0  0  0
 20 19  1  0  0  0  0
 21 19  2  0  0  0  0
 22 23  3  0  0  0  0
 24 25  1  0  0  0  0
M  END
>  <MODEL>
1

>  <REMARK>
 VINA RESULT:      -7.8      0.000      0.000
  Name = 
  5 active torsions:
  status: ('A' for Active; 'I' for Inactive)
    1  A    between atoms: C_2  and  C_21
    2  A    between atoms: C_5  and  C_22
    3  A    between atoms: N_6  and  C_23
    4  A    between atoms: C_10  and  C_11
    5  A    between atoms: C_15  and  C_21
                            x       y       z     vdW  Elec       q    Type
                         _______ _______ _______ _____ _____    ______ ____

>  <TORSDO>
F 5

$$$$
=
 OpenBabel10262419553D

 25 27  0  0  1  0  0  0  0  0999 V2000
  184.0170  178.2500  142.5810 N   0  0  0  0  0  0  0  0  0  0  0  0
  185.0200  178.1860  143.6070 C   0  0  0  0  0  0  0  0  0  0  0  0
  182.4660  179.4380  144.0480 C   0  0  0  0  0  2  0  0  0  0  0  0
  184.3150  178.2070  141.1550 C   0  0  1  0  0  3  0  0  0  0  0  0
  183.3740  179.1310  145.1520 N   0  0  0  0  0  2  0  0  0  0  0  0
  182.9970  178.1930  140.3930 C   0  0  2  0  0  3  0  0  0  0  0  0
  185.6300  178.5270  145.9330 C   0  0  0  0  0  0  0  0  0  0  0  0
  185.3130  178.9270  147.1910 F   0  0  0  0  0  0  0  0  0  0  0  0
  186.3090  177.7020  143.3450 C   0  0  0  0  0  3  0  0  0  0  0  0
  182.6140  178.3870  142.9510 C   0  0  1  0  0  3  0  0  0  0  0  0
  181.6890  178.8680  141.4670 S   0  0  0  0  0  0  0  0  0  0  0  0
  186.9130  178.0400  145.6650 C   0  0  0  0  0  3  0  0  0  0  0  0
  187.2620  177.6290  144.3740 C   0  0  0  0  0  0  0  0  0  0  0  0
  184.6870  178.6130  144.9030 C   0  0  0  0  0  0  0  0  0  0  0  0
  188.5870  177.1380  144.1380 N   0  0  0  0  0  0  0  0  0  0  0  0
  189.5570  177.2820  144.9850 C   0  0  0  0  0  3  0  0  0  0  0  0
  190.9150  176.7500  144.6770 C   0  0  2  0  0  3  0  0  0  0  0  0
  191.6550  176.6480  145.8550 O   0  0  0  0  0  1  0  0  0  0  0  0
  191.6240  177.6350  143.7050 C   0  0  0  0  0  0  0  0  0  0  0  0
  191.9150  178.9470  144.0540 O   0  0  0  0  0  1  0  0  0  0  0  0
  191.9780  177.1940  142.5790 O   0  0  0  0  0  0  0  0  0  0  0  0
  182.3940  175.7310  139.7220 N   0  0  0  0  0  0  0  0  0  0  0  0
  182.6600  176.8180  140.0180 C   0  0  0  0  0  0  0  0  0  0  0  0
  184.7530  179.9040  139.4970 O   0  0  0  0  0  1  0  0  0  0  0  0
  185.1660  179.4040  140.7350 C   0  0  0  0  0  2  0  0  0  0  0  0
  1 10  1  0  0  0  0
  1  2  1  0  0  0  0
  2 14  1  0  0  0  0
  3  5  1  0  0  0  0
  4 25  1  6  0  0  0
  4  1  1  0  0  0  0
  6 23  1  1  0  0  0
  6  4  1  0  0  0  0
  6 11  1  0  0  0  0
  7  8  1  0  0  0  0
  9  2  2  0  0  0  0
  9 13  1  0  0  0  0
 10  3  1  1  0  0  0
 11 10  1  0  0  0  0
 12  7  1  0  0  0  0
 13 12  2  0  0  0  0
 14  5  1  0  0  0  0
 14  7  2  0  0  0  0
 15 13  1  0  0  0  0
 15 16  2  0  0  0  0
 17 16  1  0  0  0  0
 17 18  1  1  0  0  0
 19 20  1  0  0  0  0
 19 17  1  0  0  0  0
 21 19  2  0  0  0  0
 22 23  3  0  0  0  0
 24 25  1  0  0  0  0
M  END
>  <MODEL>
2

>  <REMARK>
 VINA RESULT:      -7.4      2.881      6.923
  Name = 
  5 active torsions:
  status: ('A' for Active; 'I' for Inactive)
    1  A    between atoms: C_2  and  C_21
    2  A    between atoms: C_5  and  C_22
    3  A    between atoms: N_6  and  C_23
    4  A    between atoms: C_10  and  C_11
    5  A    between atoms: C_15  and  C_21
                            x       y       z     vdW  Elec       q    Type
                         _______ _______ _______ _____ _____    ______ ____

>  <TORSDO>
F 5

$$$$
=
 OpenBabel10262419553D

 25 27  0  0  1  0  0  0  0  0999 V2000
  188.0300  177.8750  144.6650 N   0  0  0  0  0  0  0  0  0  0  0  0
  186.6850  178.1780  144.2600 C   0  0  0  0  0  0  0  0  0  0  0  0
  187.3450  177.5050  146.9810 C   0  0  0  0  0  2  0  0  0  0  0  0
  189.0500  177.3620  143.7600 C   0  0  1  0  0  3  0  0  0  0  0  0
  186.0460  178.0730  146.6210 N   0  0  0  0  0  2  0  0  0  0  0  0
  190.3630  177.2660  144.5260 C   0  0  2  0  0  3  0  0  0  0  0  0
  184.3830  178.6260  144.8910 C   0  0  0  0  0  0  0  0  0  0  0  0
  183.4220  178.7520  145.8410 F   0  0  0  0  0  0  0  0  0  0  0  0
  186.3480  178.3670  142.9130 C   0  0  0  0  0  3  0  0  0  0  0  0
  188.4250  178.0610  146.0550 C   0  0  1  0  0  3  0  0  0  0  0  0
  189.9990  177.1970  146.3100 S   0  0  0  0  0  0  0  0  0  0  0  0
  184.0550  178.8160  143.5460 C   0  0  0  0  0  3  0  0  0  0  0  0
  185.0290  178.6850  142.5510 C   0  0  0  0  0  0  0  0  0  0  0  0
  185.6940  178.2940  145.2490 C   0  0  0  0  0  0  0  0  0  0  0  0
  184.6540  178.8840  141.1820 N   0  0  0  0  0  0  0  0  0  0  0  0
  185.4000  178.5280  140.1850 C   0  0  0  0  0  3  0  0  0  0  0  0
  184.9530  178.7660  138.7830 C   0  0  2  0  0  3  0  0  0  0  0  0
  183.7250  178.1400  138.5710 O   0  0  0  0  0  1  0  0  0  0  0  0
  185.9630  178.2530  137.8090 C   0  0  0  0  0  0  0  0  0  0  0  0
  187.2940  178.6250  137.9390 O   0  0  0  0  0  1  0  0  0  0  0  0
  185.6190  177.4710  136.8830 O   0  0  0  0  0  0  0  0  0  0  0  0
  191.8350  179.3750  144.0130 N   0  0  0  0  0  0  0  0  0  0  0  0
  191.1850  178.4440  144.2390 C   0  0  0  0  0  0  0  0  0  0  0  0
  189.7810  175.2530  142.8430 O   0  0  0  0  0  1  0  0  0  0  0  0
  188.6530  175.9950  143.2020 C   0  0  0  0  0  2  0  0  0  0  0  0
  1 10  1  0  0  0  0
  2  1  1  0  0  0  0
  2 14  1  0  0  0  0
  4 25  1  1  0  0  0
  4  6  1  0  0  0  0
  4  1  1  0  0  0  0
  5  3  1  0  0  0  0
  6 23  1  1  0  0  0
  6 11  1  0  0  0  0
  7 14  2  0  0  0  0
  7  8  1  0  0  0  0
  9  2  2  0  0  0  0
 10 11  1  0  0  0  0
 10  3  1  1  0  0  0
 12  7  1  0  0  0  0
 13  9  1  0  0  0  0
 13 12  2  0  0  0  0
 14  5  1  0  0  0  0
 15 13  1  0  0  0  0
 16 15  2  0  0  0  0
 17 18  1  6  0  0  0
 17 16  1  0  0  0  0
 19 20  1  0  0  0  0
 19 17  1  0  0  0  0
 21 19  2  0  0  0  0
 22 23  3  0  0  0  0
 24 25  1  0  0  0  0
M  END
>  <MODEL>
3

>  <REMARK>
 VINA RESULT:      -7.1      1.266      1.531
  Name = 
  5 active torsions:
  status: ('A' for Active; 'I' for Inactive)
    1  A    between atoms: C_2  and  C_21
    2  A    between atoms: C_5  and  C_22
    3  A    between atoms: N_6  and  C_23
    4  A    between atoms: C_10  and  C_11
    5  A    between atoms: C_15  and  C_21
                            x       y       z     vdW  Elec       q    Type
                         _______ _______ _______ _____ _____    ______ ____

>  <TORSDO>
F 5

$$$$
=
 OpenBabel10262419553D

 25 27  0  0  1  0  0  0  0  0999 V2000
  189.7470  177.0220  139.3710 N   0  0  0  0  0  0  0  0  0  0  0  0
  189.0360  177.3500  140.5760 C   0  0  0  0  0  0  0  0  0  0  0  0
  188.4060  178.5790  138.0500 C   0  0  0  0  0  2  0  0  0  0  0  0
  191.1100  176.5060  139.3520 C   0  0  1  0  0  3  0  0  0  0  0  0
  187.5220  178.7020  139.2090 N   0  0  0  0  0  2  0  0  0  0  0  0
  191.4760  176.1830  137.9100 C   0  0  2  0  0  3  0  0  0  0  0  0
  187.1710  178.4880  141.6370 C   0  0  0  0  0  0  0  0  0  0  0  0
  186.0720  179.2800  141.5580 F   0  0  0  0  0  0  0  0  0  0  0  0
  189.4390  176.8550  141.8240 C   0  0  0  0  0  3  0  0  0  0  0  0
  189.1070  177.2220  138.0780 C   0  0  1  0  0  3  0  0  0  0  0  0
  190.3890  177.1330  136.7990 S   0  0  0  0  0  0  0  0  0  0  0  0
  187.5760  177.9880  142.8780 C   0  0  0  0  0  3  0  0  0  0  0  0
  188.7100  177.1750  142.9820 C   0  0  0  0  0  0  0  0  0  0  0  0
  187.9070  178.1810  140.4870 C   0  0  0  0  0  0  0  0  0  0  0  0
  189.0950  176.6840  144.2710 N   0  0  0  0  0  0  0  0  0  0  0  0
  189.2630  177.4530  145.3000 C   0  0  0  0  0  3  0  0  0  0  0  0
  189.6680  176.8800  146.6160 C   0  0  2  0  0  3  0  0  0  0  0  0
  189.2890  177.7470  147.6400 O   0  0  0  0  0  1  0  0  0  0  0  0
  191.1430  176.6480  146.6620 C   0  0  0  0  0  0  0  0  0  0  0  0
  191.6680  175.7410  147.5730 O   0  0  0  0  0  1  0  0  0  0  0  0
  191.9120  177.2540  145.8690 O   0  0  0  0  0  0  0  0  0  0  0  0
  191.1470  173.6180  137.4720 N   0  0  0  0  0  0  0  0  0  0  0  0
  191.2930  174.7500  137.6650 C   0  0  0  0  0  0  0  0  0  0  0  0
  193.4080  177.1890  139.6170 O   0  0  0  0  0  1  0  0  0  0  0  0
  192.0900  177.5200  139.9400 C   0  0  0  0  0  2  0  0  0  0  0  0
  1  2  1  0  0  0  0
  2  9  1  0  0  0  0
  3  5  1  0  0  0  0
  4  1  1  0  0  0  0
  4 25  1  6  0  0  0
  5 14  1  0  0  0  0
  6 23  1  1  0  0  0
  6  4  1  0  0  0  0
  7 12  2  0  0  0  0
  8  7  1  0  0  0  0
  9 13  2  0  0  0  0
 10  3  1  1  0  0  0
 10  1  1  0  0  0  0
 11  6  1  0  0  0  0
 11 10  1  0  0  0  0
 12 13  1  0  0  0  0
 13 15  1  0  0  0  0
 14  2  2  0  0  0  0
 14  7  1  0  0  0  0
 15 16  2  0  0  0  0
 16 17  1  0  0  0  0
 17 19  1  0  0  0  0
 17 18  1  1  0  0  0
 19 20  1  0  0  0  0
 21 19  2  0  0  0  0
 22 23  3  0  0  0  0
 24 25  1  0  0  0  0
M  END
>  <MODEL>
4

>  <REMARK>
 VINA RESULT:      -6.9      4.744      7.344
  Name = 
  5 active torsions:
  status: ('A' for Active; 'I' for Inactive)
    1  A    between atoms: C_2  and  C_21
    2  A    between atoms: C_5  and  C_22
    3  A    between atoms: N_6  and  C_23
    4  A    between atoms: C_10  and  C_11
    5  A    between atoms: C_15  and  C_21
                            x       y       z     vdW  Elec       q    Type
                         _______ _______ _______ _____ _____    ______ ____

>  <TORSDO>
F 5

$$$$
=
 OpenBabel10262419553D

 25 27  0  0  1  0  0  0  0  0999 V2000
  183.0630  178.2290  141.1480 N   0  0  0  0  0  0  0  0  0  0  0  0
  183.8690  178.3250  142.3340 C   0  0  0  0  0  0  0  0  0  0  0  0
  181.1590  179.2940  142.2480 C   0  0  0  0  0  2  0  0  0  0  0  0
  183.6140  178.1590  139.8010 C   0  0  1  0  0  3  0  0  0  0  0  0
  181.8830  179.1410  143.5100 N   0  0  0  0  0  2  0  0  0  0  0  0
  182.4620  177.9620  138.8250 C   0  0  2  0  0  3  0  0  0  0  0  0
  184.0150  178.8330  144.7050 C   0  0  0  0  0  0  0  0  0  0  0  0
  183.4370  179.2480  145.8610 F   0  0  0  0  0  0  0  0  0  0  0  0
  185.2270  177.9810  142.3290 C   0  0  0  0  0  3  0  0  0  0  0  0
  181.6110  178.2200  141.2610 C   0  0  1  0  0  3  0  0  0  0  0  0
  180.9200  178.5280  139.6130 S   0  0  0  0  0  0  0  0  0  0  0  0
  185.3680  178.4850  144.6930 C   0  0  0  0  0  3  0  0  0  0  0  0
  185.9830  178.0620  143.5100 C   0  0  0  0  0  0  0  0  0  0  0  0
  183.2660  178.7660  143.5240 C   0  0  0  0  0  0  0  0  0  0  0  0
  187.3740  177.7170  143.5370 N   0  0  0  0  0  0  0  0  0  0  0  0
  188.0290  177.5060  144.6340 C   0  0  0  0  0  3  0  0  0  0  0  0
  189.4770  177.1520  144.5940 C   0  0  2  0  0  3  0  0  0  0  0  0
  190.0210  177.2640  145.8740 O   0  0  0  0  0  1  0  0  0  0  0  0
  190.2150  178.0400  143.6460 C   0  0  0  0  0  0  0  0  0  0  0  0
  190.4910  177.5940  142.3600 O   0  0  0  0  0  0  0  0  0  0  0  0
  190.5710  179.1960  143.9970 O   0  0  0  0  0  1  0  0  0  0  0  0
  182.2510  175.4200  138.2150 N   0  0  0  0  0  0  0  0  0  0  0  0
  182.3440  176.5420  138.4840 C   0  0  0  0  0  0  0  0  0  0  0  0
  185.6140  179.1170  138.8510 O   0  0  0  0  0  1  0  0  0  0  0  0
  184.3950  179.4270  139.4590 C   0  0  0  0  0  2  0  0  0  0  0  0
  1 10  1  0  0  0  0
  1  2  1  0  0  0  0
  2 14  1  0  0  0  0
  3  5  1  0  0  0  0
  4 25  1  6  0  0  0
  4  1  1  0  0  0  0
  5 14  1  0  0  0  0
  6 23  1  1  0  0  0
  6 11  1  0  0  0  0
  6  4  1  0  0  0  0
  7  8  1  0  0  0  0
  9  2  2  0  0  0  0
  9 13  1  0  0  0  0
 10  3  1  1  0  0  0
 11 10  1  0  0  0  0
 12  7  1  0  0  0  0
 13 15  1  0  0  0  0
 13 12  2  0  0  0  0
 14  7  2  0  0  0  0
 15 16  2  0  0  0  0
 17 16  1  0  0  0  0
 17 18  1  1  0  0  0
 19 21  1  0  0  0  0
 19 17  1  0  0  0  0
 20 19  2  0  0  0  0
 22 23  3  0  0  0  0
 24 25  1  0  0  0  0
M  END
>  <MODEL>
5

>  <REMARK>
 VINA RESULT:      -6.5      3.334      7.233
  Name = 
  5 active torsions:
  status: ('A' for Active; 'I' for Inactive)
    1  A    between atoms: C_2  and  C_21
    2  A    between atoms: C_5  and  C_22
    3  A    between atoms: N_6  and  C_23
    4  A    between atoms: C_10  and  C_11
    5  A    between atoms: C_15  and  C_21
                            x       y       z     vdW  Elec       q    Type
                         _______ _______ _______ _____ _____    ______ ____

>  <TORSDO>
F 5

$$$$
=
 OpenBabel10262419553D

 25 27  0  0  1  0  0  0  0  0999 V2000
  188.4540  177.8320  143.7990 N   0  0  0  0  0  0  0  0  0  0  0  0
  187.3720  178.0660  142.8830 C   0  0  0  0  0  0  0  0  0  0  0  0
  186.9170  177.4690  145.6620 C   0  0  0  0  0  2  0  0  0  0  0  0
  189.7680  177.3520  143.3910 C   0  0  1  0  0  3  0  0  0  0  0  0
  185.8490  177.9700  144.7970 N   0  0  0  0  0  2  0  0  0  0  0  0
  190.6690  177.3300  144.6180 C   0  0  2  0  0  3  0  0  0  0  0  0
  184.9940  178.4170  142.5310 C   0  0  0  0  0  0  0  0  0  0  0  0
  183.7310  178.5140  143.0160 F   0  0  0  0  0  0  0  0  0  0  0  0
  187.5930  178.2160  141.5070 C   0  0  0  0  0  3  0  0  0  0  0  0
  188.2550  178.0590  145.2240 C   0  0  1  0  0  3  0  0  0  0  0  0
  189.6270  177.2740  146.1120 S   0  0  0  0  0  0  0  0  0  0  0  0
  185.2230  178.5690  141.1600 C   0  0  0  0  0  3  0  0  0  0  0  0
  186.5170  178.4660  140.6400 C   0  0  0  0  0  0  0  0  0  0  0  0
  186.0650  178.1520  143.3920 C   0  0  0  0  0  0  0  0  0  0  0  0
  186.7110  178.6250  139.2290 N   0  0  0  0  0  0  0  0  0  0  0  0
  187.6210  177.9860  138.5640 C   0  0  0  0  0  3  0  0  0  0  0  0
  187.7740  178.1980  137.0960 C   0  0  2  0  0  3  0  0  0  0  0  0
  187.5480  179.5410  136.7910 O   0  0  0  0  0  1  0  0  0  0  0  0
  186.8240  177.3350  136.3320 C   0  0  0  0  0  0  0  0  0  0  0  0
  186.2460  177.8140  135.1640 O   0  0  0  0  0  0  0  0  0  0  0  0
  186.5590  176.1690  136.7290 O   0  0  0  0  0  1  0  0  0  0  0  0
  192.1470  179.4960  144.6630 N   0  0  0  0  0  0  0  0  0  0  0  0
  191.4950  178.5400  144.6430 C   0  0  0  0  0  0  0  0  0  0  0  0
  190.1800  175.9580  141.4660 O   0  0  0  0  0  1  0  0  0  0  0  0
  189.6760  175.9590  142.7690 C   0  0  0  0  0  2  0  0  0  0  0  0
  1 10  1  0  0  0  0
  2 14  1  0  0  0  0
  2  1  1  0  0  0  0
  4 25  1  1  0  0  0
  4  1  1  0  0  0  0
  4  6  1  0  0  0  0
  5  3  1  0  0  0  0
  6 23  1  1  0  0  0
  6 11  1  0  0  0  0
  7  8  1  0  0  0  0
  7 14  2  0  0  0  0
  9  2  2  0  0  0  0
 10  3  1  1  0  0  0
 10 11  1  0  0  0  0
 12  7  1  0  0  0  0
 13 12  2  0  0  0  0
 13  9  1  0  0  0  0
 14  5  1  0  0  0  0
 15 13  1  0  0  0  0
 16 15  2  0  0  0  0
 17 18  1  1  0  0  0
 17 16  1  0  0  0  0
 19 21  1  0  0  0  0
 19 17  1  0  0  0  0
 20 19  2  0  0  0  0
 23 22  3  0  0  0  0
 24 25  1  0  0  0  0
M  END
>  <MODEL>
6

>  <REMARK>
 VINA RESULT:      -6.3      2.525      3.278
  Name = 
  5 active torsions:
  status: ('A' for Active; 'I' for Inactive)
    1  A    between atoms: C_2  and  C_21
    2  A    between atoms: C_5  and  C_22
    3  A    between atoms: N_6  and  C_23
    4  A    between atoms: C_10  and  C_11
    5  A    between atoms: C_15  and  C_21
                            x       y       z     vdW  Elec       q    Type
                         _______ _______ _______ _____ _____    ______ ____

>  <TORSDO>
F 5

$$$$
=
 OpenBabel10262419553D

 25 27  0  0  1  0  0  0  0  0999 V2000
  187.4380  177.5140  138.2460 N   0  0  0  0  0  0  0  0  0  0  0  0
  187.5830  177.8510  139.6350 C   0  0  0  0  0  0  0  0  0  0  0  0
  185.2960  178.6800  138.0950 C   0  0  0  0  0  2  0  0  0  0  0  0
  188.5600  177.2280  137.3610 C   0  0  1  0  0  3  0  0  0  0  0  0
  185.3210  178.7830  139.5550 N   0  0  0  0  0  2  0  0  0  0  0  0
  188.0050  176.8140  136.0050 C   0  0  2  0  0  3  0  0  0  0  0  0
  186.6060  178.7790  141.6560 C   0  0  0  0  0  0  0  0  0  0  0  0
  185.5690  179.3690  142.3020 F   0  0  0  0  0  0  0  0  0  0  0  0
  188.7600  177.5660  140.3400 C   0  0  0  0  0  3  0  0  0  0  0  0
  186.1090  177.4670  137.6500 C   0  0  1  0  0  3  0  0  0  0  0  0
  186.3040  177.4490  135.8470 S   0  0  0  0  0  0  0  0  0  0  0  0
  187.7820  178.4890  142.3530 C   0  0  0  0  0  3  0  0  0  0  0  0
  188.8640  177.8870  141.7040 C   0  0  0  0  0  0  0  0  0  0  0  0
  186.5090  178.4730  140.2930 C   0  0  0  0  0  0  0  0  0  0  0  0
  190.0540  177.6080  142.4520 N   0  0  0  0  0  0  0  0  0  0  0  0
  190.0400  177.0460  143.6190 C   0  0  0  0  0  3  0  0  0  0  0  0
  191.3140  176.7850  144.3480 C   0  0  2  0  0  3  0  0  0  0  0  0
  191.8310  175.5490  143.9590 O   0  0  0  0  0  1  0  0  0  0  0  0
  191.0950  176.8040  145.8260 C   0  0  0  0  0  0  0  0  0  0  0  0
  192.1720  176.6270  146.6830 O   0  0  0  0  0  1  0  0  0  0  0  0
  189.9440  176.9990  146.2990 O   0  0  0  0  0  0  0  0  0  0  0  0
  187.9820  174.1980  135.8250 N   0  0  0  0  0  0  0  0  0  0  0  0
  187.9920  175.3520  135.9050 C   0  0  0  0  0  0  0  0  0  0  0  0
  188.7370  179.6320  137.2630 O   0  0  0  0  0  1  0  0  0  0  0  0
  189.4720  178.4450  137.2190 C   0  0  0  0  0  2  0  0  0  0  0  0
  1  2  1  0  0  0  0
  2 14  2  0  0  0  0
  2  9  1  0  0  0  0
  3  5  1  0  0  0  0
  4 25  1  6  0  0  0
  4  1  1  0  0  0  0
  5 14  1  0  0  0  0
  6 23  1  1  0  0  0
  6  4  1  0  0  0  0
  7  8  1  0  0  0  0
  7 12  2  0  0  0  0
  9 13  2  0  0  0  0
 10  3  1  6  0  0  0
 10  1  1  0  0  0  0
 11  6  1  0  0  0  0
 11 10  1  0  0  0  0
 13 12  1  0  0  0  0
 13 15  1  0  0  0  0
 14  7  1  0  0  0  0
 15 16  2  0  0  0  0
 16 17  1  0  0  0  0
 17 18  1  6  0  0  0
 17 19  1  0  0  0  0
 19 21  2  0  0  0  0
 19 20  1  0  0  0  0
 22 23  3  0  0  0  0
 25 24  1  0  0  0  0
M  END
>  <MODEL>
7

>  <REMARK>
 VINA RESULT:      -6.0      4.582      7.894
  Name = 
  5 active torsions:
  status: ('A' for Active; 'I' for Inactive)
    1  A    between atoms: C_2  and  C_21
    2  A    between atoms: C_5  and  C_22
    3  A    between atoms: N_6  and  C_23
    4  A    between atoms: C_10  and  C_11
    5  A    between atoms: C_15  and  C_21
                            x       y       z     vdW  Elec       q    Type
                         _______ _______ _______ _____ _____    ______ ____

>  <TORSDO>
F 5

$$$$
=
 OpenBabel10262419553D

 25 27  0  0  1  0  0  0  0  0999 V2000
  182.1260  179.2390  140.4840 N   0  0  0  0  0  0  0  0  0  0  0  0
  183.3880  179.0160  141.1340 C   0  0  0  0  0  0  0  0  0  0  0  0
  183.1110  178.9260  138.2700 C   0  0  0  0  0  2  0  0  0  0  0  0
  180.8360  179.0030  141.1200 C   0  0  1  0  0  3  0  0  0  0  0  0
  184.4220  178.9720  138.9160 N   0  0  0  0  0  2  0  0  0  0  0  0
  179.7420  179.4500  140.1590 C   0  0  2  0  0  3  0  0  0  0  0  0
  185.7920  178.7230  140.9480 C   0  0  0  0  0  0  0  0  0  0  0  0
  186.9130  178.6220  140.1910 F   0  0  0  0  0  0  0  0  0  0  0  0
  183.4880  178.9230  142.5290 C   0  0  0  0  0  3  0  0  0  0  0  0
  182.0970  179.7070  139.1050 C   0  0  1  0  0  3  0  0  0  0  0  0
  180.4170  179.4670  138.4670 S   0  0  0  0  0  0  0  0  0  0  0  0
  185.8850  178.6340  142.3400 C   0  0  0  0  0  3  0  0  0  0  0  0
  184.7400  178.7280  143.1370 C   0  0  0  0  0  0  0  0  0  0  0  0
  184.5420  178.9010  140.3430 C   0  0  0  0  0  0  0  0  0  0  0  0
  184.8750  178.6290  144.5600 N   0  0  0  0  0  0  0  0  0  0  0  0
  185.9720  178.2580  145.1420 C   0  0  0  0  0  3  0  0  0  0  0  0
  186.0480  178.1720  146.6290 C   0  0  2  0  0  3  0  0  0  0  0  0
  185.6190  179.3760  147.1890 O   0  0  0  0  0  1  0  0  0  0  0  0
  187.4410  177.8700  147.0730 C   0  0  0  0  0  0  0  0  0  0  0  0
  187.7950  178.0580  148.4030 O   0  0  0  0  0  1  0  0  0  0  0  0
  188.2920  177.4270  146.2560 O   0  0  0  0  0  0  0  0  0  0  0  0
  178.9350  181.8610  140.8040 N   0  0  0  0  0  0  0  0  0  0  0  0
  179.2910  180.7970  140.5200 C   0  0  0  0  0  0  0  0  0  0  0  0
  179.4450  177.3120  142.1320 O   0  0  0  0  0  1  0  0  0  0  0  0
  180.6630  177.5290  141.4830 C   0  0  0  0  0  2  0  0  0  0  0  0
  1  4  1  0  0  0  0
  1  2  1  0  0  0  0
  2  9  1  0  0  0  0
  3  5  1  0  0  0  0
  4 25  1  6  0  0  0
  5 14  1  0  0  0  0
  6 23  1  1  0  0  0
  6  4  1  0  0  0  0
  7 12  2  0  0  0  0
  8  7  1  0  0  0  0
  9 13  2  0  0  0  0
 10  3  1  6  0  0  0
 10  1  1  0  0  0  0
 11 10  1  0  0  0  0
 11  6  1  0  0  0  0
 12 13  1  0  0  0  0
 13 15  1  0  0  0  0
 14  7  1  0  0  0  0
 14  2  2  0  0  0  0
 15 16  2  0  0  0  0
 16 17  1  0  0  0  0
 17 19  1  0  0  0  0
 17 18  1  1  0  0  0
 19 20  1  0  0  0  0
 21 19  2  0  0  0  0
 23 22  3  0  0  0  0
 25 24  1  0  0  0  0
M  END
>  <MODEL>
8

>  <REMARK>
 VINA RESULT:      -6.0      4.673      8.667
  Name = 
  5 active torsions:
  status: ('A' for Active; 'I' for Inactive)
    1  A    between atoms: C_2  and  C_21
    2  A    between atoms: C_5  and  C_22
    3  A    between atoms: N_6  and  C_23
    4  A    between atoms: C_10  and  C_11
    5  A    between atoms: C_15  and  C_21
                            x       y       z     vdW  Elec       q    Type
                         _______ _______ _______ _____ _____    ______ ____

>  <TORSDO>
F 5

$$$$
=
 OpenBabel10262419553D

 25 27  0  0  1  0  0  0  0  0999 V2000
  186.9430  177.8700  140.1530 N   0  0  0  0  0  0  0  0  0  0  0  0
  187.1280  177.8660  141.5780 C   0  0  0  0  0  0  0  0  0  0  0  0
  184.8970  179.1940  140.3320 C   0  0  0  0  0  2  0  0  0  0  0  0
  188.0310  177.7130  139.1960 C   0  0  1  0  0  3  0  0  0  0  0  0
  184.9440  178.9550  141.7740 N   0  0  0  0  0  2  0  0  0  0  0  0
  187.4330  177.6650  137.7970 C   0  0  2  0  0  3  0  0  0  0  0  0
  186.2440  178.3730  143.7830 C   0  0  0  0  0  0  0  0  0  0  0  0
  185.2630  178.8720  144.5750 F   0  0  0  0  0  0  0  0  0  0  0  0
  188.2850  177.3410  142.1670 C   0  0  0  0  0  3  0  0  0  0  0  0
  185.6090  178.0590  139.5980 C   0  0  1  0  0  3  0  0  0  0  0  0
  185.7850  178.4430  137.8350 S   0  0  0  0  0  0  0  0  0  0  0  0
  187.4010  177.8440  144.3640 C   0  0  0  0  0  3  0  0  0  0  0  0
  188.4270  177.3300  143.5640 C   0  0  0  0  0  0  0  0  0  0  0  0
  186.1120  178.3970  142.3900 C   0  0  0  0  0  0  0  0  0  0  0  0
  189.5980  176.7990  144.1960 N   0  0  0  0  0  0  0  0  0  0  0  0
  190.3740  177.5060  144.9570 C   0  0  0  0  0  3  0  0  0  0  0  0
  191.5810  176.8940  145.5830 C   0  0  2  0  0  3  0  0  0  0  0  0
  191.9370  175.7410  144.8840 O   0  0  0  0  0  1  0  0  0  0  0  0
  191.3250  176.5630  147.0170 C   0  0  0  0  0  0  0  0  0  0  0  0
  192.2540  175.8130  147.7260 O   0  0  0  0  0  1  0  0  0  0  0  0
  190.2840  176.9760  147.5940 O   0  0  0  0  0  0  0  0  0  0  0  0
  187.2050  175.1700  137.0230 N   0  0  0  0  0  0  0  0  0  0  0  0
  187.3050  176.2710  137.3650 C   0  0  0  0  0  0  0  0  0  0  0  0
  189.1410  179.5570  138.1060 O   0  0  0  0  0  1  0  0  0  0  0  0
  189.0340  178.8600  139.3120 C   0  0  0  0  0  2  0  0  0  0  0  0
  1  2  1  0  0  0  0
  2  9  2  0  0  0  0
  2 14  1  0  0  0  0
  3  5  1  0  0  0  0
  4 25  1  6  0  0  0
  4  1  1  0  0  0  0
  5 14  1  0  0  0  0
  6 23  1  1  0  0  0
  6 11  1  0  0  0  0
  6  4  1  0  0  0  0
  7 12  1  0  0  0  0
  7  8  1  0  0  0  0
  9 13  1  0  0  0  0
 10  1  1  0  0  0  0
 10  3  1  1  0  0  0
 11 10  1  0  0  0  0
 13 15  1  0  0  0  0
 13 12  2  0  0  0  0
 14  7  2  0  0  0  0
 15 16  2  0  0  0  0
 16 17  1  0  0  0  0
 17 18  1  6  0  0  0
 17 19  1  0  0  0  0
 19 21  2  0  0  0  0
 19 20  1  0  0  0  0
 22 23  3  0  0  0  0
 24 25  1  0  0  0  0
M  END
>  <MODEL>
9

>  <REMARK>
 VINA RESULT:      -5.8      3.738      7.238
  Name = 
  5 active torsions:
  status: ('A' for Active; 'I' for Inactive)
    1  A    between atoms: C_2  and  C_21
    2  A    between atoms: C_5  and  C_22
    3  A    between atoms: N_6  and  C_23
    4  A    between atoms: C_10  and  C_11
    5  A    between atoms: C_15  and  C_21
                            x       y       z     vdW  Elec       q    Type
                         _______ _______ _______ _____ _____    ______ ____

>  <TORSDO>
F 5

$$$$
