=
 OpenBabel10262422193D

 43 47  0  0  1  0  0  0  0  0999 V2000
  191.2960  176.6770  146.9980 C   0  0  0  0  0  0  0  0  0  0  0  0
  186.9020  177.8870  144.7810 C   0  0  0  0  0  0  0  0  0  0  0  0
  187.4590  178.3160  142.0500 C   0  0  0  0  0  0  0  0  0  0  0  0
  188.9670  177.1730  146.5560 C   0  0  0  0  0  0  0  0  0  0  0  0
  191.6000  176.8800  145.6500 C   0  0  0  0  0  3  0  0  0  0  0  0
  192.3020  176.3300  147.8910 O   0  0  0  0  0  1  0  0  0  0  0  0
  189.2630  177.3830  145.1870 C   0  0  0  0  0  0  0  0  0  0  0  0
  189.9820  176.8230  147.4500 C   0  0  0  0  0  3  0  0  0  0  0  0
  190.5910  177.2310  144.7490 C   0  0  0  0  0  3  0  0  0  0  0  0
  188.4870  177.9560  142.9350 C   0  0  0  0  0  3  0  0  0  0  0  0
  188.2270  177.7390  144.2960 C   0  0  0  0  0  0  0  0  0  0  0  0
  186.6360  177.6720  146.1420 C   0  0  0  0  0  3  0  0  0  0  0  0
  185.8690  178.2530  143.8950 C   0  0  0  0  0  0  0  0  0  0  0  0
  186.1580  178.4690  142.5430 C   0  0  0  0  0  3  0  0  0  0  0  0
  187.6600  177.3160  147.0200 C   0  0  0  0  0  3  0  0  0  0  0  0
  187.7150  178.5710  140.5860 C   0  0  2  0  0  3  0  0  0  0  0  0
  186.5050  178.5850  139.8900 O   0  0  0  0  0  1  0  0  0  0  0  0
  188.6370  177.5640  139.9620 C   0  0  0  0  0  3  0  0  0  0  0  0
  189.2780  177.7890  138.8170 C   0  0  0  0  0  0  0  0  0  0  0  0
  189.1350  178.9990  138.1450 O   0  0  0  0  0  1  0  0  0  0  0  0
  190.1620  176.7200  138.2380 C   0  0  0  0  0  2  0  0  0  0  0  0
  189.9720  176.4960  136.7970 N   0  0  0  0  0  0  0  0  0  0  0  0
  191.2030  175.9860  136.2010 C   0  0  0  0  0  2  0  0  0  0  0  0
  193.9470  176.0140  136.2510 S   0  0  0  0  0  1  0  0  0  0  0  0
  192.3760  176.2160  137.1410 C   0  0  0  0  0  2  0  0  0  0  0  0
  188.9020  175.5330  136.5600 C   0  0  0  0  0  2  0  0  0  0  0  0
  187.6410  176.2530  136.2060 C   0  0  0  0  0  0  0  0  0  0  0  0
  187.7090  177.2600  135.4480 O   0  0  0  0  0  0  0  0  0  0  0  0
  186.3370  175.8130  136.7400 C   0  0  0  0  0  0  0  0  0  0  0  0
  184.8820  174.0530  137.4700 N   0  0  0  0  0  0  0  0  0  0  0  0
  184.1090  176.3110  137.5600 C   0  0  0  0  0  3  0  0  0  0  0  0
  183.9000  174.9480  137.7670 C   0  0  0  0  0  3  0  0  0  0  0  0
  185.3330  176.7420  137.0460 C   0  0  0  0  0  3  0  0  0  0  0  0
  186.0820  174.4530  136.9670 C   0  0  0  0  0  3  0  0  0  0  0  0
  184.4500  178.4100  144.3600 C   0  0  0  0  0  2  0  0  0  0  0  0
  182.8160  178.4260  140.8460 C   0  0  0  0  0  2  0  0  0  0  0  0
  181.5660  179.2220  141.2750 C   0  0  2  0  0  3  0  0  0  0  0  0
  182.1000  178.9800  143.7470 C   0  0  0  0  0  2  0  0  0  0  0  0
  183.6160  177.8950  142.0410 C   0  0  0  0  0  2  0  0  0  0  0  0
  183.5390  178.8590  143.2250 C   0  0  2  0  0  3  0  0  0  0  0  0
  181.0270  178.8290  142.6590 C   0  0  0  0  0  2  0  0  0  0  0  0
  180.5680  179.2750  140.2780 O   0  0  0  0  0  0  0  0  0  0  0  0
  180.3400  180.6180  139.9350 C   0  0  0  0  0  1  0  0  0  0  0  0
  1  8  1  0  0  0  0
  1  6  1  0  0  0  0
  2 12  1  0  0  0  0
  3 14  2  0  0  0  0
  3 10  1  0  0  0  0
  4 15  1  0  0  0  0
  4  8  2  0  0  0  0
  5  1  2  0  0  0  0
  7  4  1  0  0  0  0
  9  7  2  0  0  0  0
  9  5  1  0  0  0  0
 10 11  2  0  0  0  0
 11  2  1  0  0  0  0
 11  7  1  0  0  0  0
 12 15  2  0  0  0  0
 13 35  1  0  0  0  0
 13  2  2  0  0  0  0
 14 13  1  0  0  0  0
 16 17  1  6  0  0  0
 16  3  1  0  0  0  0
 18 16  1  0  0  0  0
 19 18  2  0  0  0  0
 20 19  1  0  0  0  0
 21 19  1  0  0  0  0
 22 21  1  0  0  0  0
 23 22  1  0  0  0  0
 23 25  1  0  0  0  0
 24 25  1  0  0  0  0
 26 22  1  0  0  0  0
 27 26  1  0  0  0  0
 27 29  1  0  0  0  0
 28 27  2  0  0  0  0
 29 34  2  0  0  0  0
 29 33  1  0  0  0  0
 30 32  2  0  0  0  0
 31 32  1  0  0  0  0
 33 31  2  0  0  0  0
 34 30  1  0  0  0  0
 36 37  1  0  0  0  0
 36 39  1  0  0  0  0
 37 42  1  6  0  0  0
 37 41  1  0  0  0  0
 39 40  1  0  0  0  0
 40 38  1  0  0  0  0
 40 35  1  1  0  0  0
 41 38  1  0  0  0  0
 43 42  1  0  0  0  0
M  END
>  <MODEL>
1

>  <REMARK>
 VINA RESULT:      -9.8      0.000      0.000
  Name = 
  12 active torsions:
  status: ('A' for Active; 'I' for Inactive)
    1  A    between atoms: C_1  and  C_34
    2  A    between atoms: C_1  and  C_35
    3  A    between atoms: C_2  and  C_6
    4  A    between atoms: C_2  and  C_13
    5  A    between atoms: C_3  and  N_4
    6  A    between atoms: C_3  and  C_12
    7  A    between atoms: N_4  and  C_15
    8  A    between atoms: N_4  and  C_22
    9  A    between atoms: C_11  and  C_14
   10  A    between atoms: C_14  and  C_22
   11  A    between atoms: C_15  and  C_42
   12  A    between atoms: C_19  and  O_25
                            x       y       z     vdW  Elec       q    Type
                         _______ _______ _______ _____ _____    ______ ____

>  <TORSDO>
F 12

$$$$
=
 OpenBabel10262422193D

 43 47  0  0  1  0  0  0  0  0999 V2000
  181.2340  179.0710  141.9290 C   0  0  0  0  0  0  0  0  0  0  0  0
  185.6680  178.3220  144.2670 C   0  0  0  0  0  0  0  0  0  0  0  0
  187.5680  177.7780  142.2550 C   0  0  0  0  0  0  0  0  0  0  0  0
  182.9850  178.8330  143.5850 C   0  0  0  0  0  0  0  0  0  0  0  0
  182.1540  178.8080  140.9120 C   0  0  0  0  0  3  0  0  0  0  0  0
  179.9040  179.3200  141.6130 O   0  0  0  0  0  1  0  0  0  0  0  0
  183.9270  178.5630  142.5630 C   0  0  0  0  0  0  0  0  0  0  0  0
  181.6480  179.0840  143.2620 C   0  0  0  0  0  3  0  0  0  0  0  0
  183.4930  178.5550  141.2250 C   0  0  0  0  0  3  0  0  0  0  0  0
  186.2300  178.0370  141.9160 C   0  0  0  0  0  3  0  0  0  0  0  0
  185.2730  178.3090  142.9040 C   0  0  0  0  0  0  0  0  0  0  0  0
  184.7130  178.5930  145.2600 C   0  0  0  0  0  3  0  0  0  0  0  0
  187.0090  178.0570  144.6110 C   0  0  0  0  0  0  0  0  0  0  0  0
  187.9410  177.7830  143.6050 C   0  0  0  0  0  3  0  0  0  0  0  0
  183.3850  178.8480  144.9210 C   0  0  0  0  0  3  0  0  0  0  0  0
  188.6120  177.4670  141.2140 C   0  0  2  0  0  3  0  0  0  0  0  0
  189.8840  177.7260  141.7280 O   0  0  0  0  0  1  0  0  0  0  0  0
  188.4240  178.2360  139.9390 C   0  0  0  0  0  3  0  0  0  0  0  0
  188.8070  177.7660  138.7530 C   0  0  0  0  0  0  0  0  0  0  0  0
  189.3920  176.5080  138.6390 O   0  0  0  0  0  1  0  0  0  0  0  0
  188.6140  178.6070  137.5230 C   0  0  0  0  0  2  0  0  0  0  0  0
  187.3660  178.3330  136.7960 N   0  0  0  0  0  0  0  0  0  0  0  0
  187.6620  177.7620  135.4850 C   0  0  0  0  0  2  0  0  0  0  0  0
  189.1090  175.4630  135.0930 S   0  0  0  0  0  1  0  0  0  0  0  0
  187.5290  176.2480  135.5300 C   0  0  0  0  0  2  0  0  0  0  0  0
  186.5310  177.3930  137.5370 C   0  0  0  0  0  2  0  0  0  0  0  0
  185.2540  178.0570  137.9380 C   0  0  0  0  0  0  0  0  0  0  0  0
  185.3030  179.2020  138.4670 O   0  0  0  0  0  0  0  0  0  0  0  0
  183.9530  177.3880  137.7410 C   0  0  0  0  0  0  0  0  0  0  0  0
  182.6260  175.3910  137.7530 N   0  0  0  0  0  0  0  0  0  0  0  0
  181.5870  177.4720  137.2090 C   0  0  0  0  0  3  0  0  0  0  0  0
  181.5140  176.0920  137.4010 C   0  0  0  0  0  3  0  0  0  0  0  0
  182.8130  178.1190  137.3810 C   0  0  0  0  0  3  0  0  0  0  0  0
  183.8300  176.0030  137.9250 C   0  0  0  0  0  3  0  0  0  0  0  0
  187.4740  178.0710  146.0370 C   0  0  0  0  0  2  0  0  0  0  0  0
  191.1710  177.0850  145.4200 C   0  0  0  0  0  2  0  0  0  0  0  0
  191.3560  176.3740  146.7760 C   0  0  2  0  0  3  0  0  0  0  0  0
  189.1590  177.2650  147.6910 C   0  0  0  0  0  2  0  0  0  0  0  0
  189.8990  177.9390  145.3700 C   0  0  0  0  0  2  0  0  0  0  0  0
  188.7820  177.3090  146.2030 C   0  0  2  0  0  3  0  0  0  0  0  0
  190.6630  177.0860  147.9480 C   0  0  0  0  0  2  0  0  0  0  0  0
  192.6970  176.0260  147.0460 O   0  0  0  0  0  0  0  0  0  0  0  0
  192.8310  175.7670  148.4210 C   0  0  0  0  0  1  0  0  0  0  0  0
  1  8  1  0  0  0  0
  2 13  1  0  0  0  0
  2 12  1  0  0  0  0
  3 14  1  0  0  0  0
  4 15  1  0  0  0  0
  5  9  1  0  0  0  0
  5  1  2  0  0  0  0
  6  1  1  0  0  0  0
  7 11  1  0  0  0  0
  7  4  1  0  0  0  0
  8  4  2  0  0  0  0
  9  7  2  0  0  0  0
 10  3  2  0  0  0  0
 10 11  1  0  0  0  0
 11  2  2  0  0  0  0
 13 35  1  0  0  0  0
 14 13  2  0  0  0  0
 15 12  2  0  0  0  0
 16 17  1  1  0  0  0
 16  3  1  0  0  0  0
 18 16  1  0  0  0  0
 19 18  2  0  0  0  0
 20 19  1  0  0  0  0
 21 19  1  0  0  0  0
 22 21  1  0  0  0  0
 22 26  1  0  0  0  0
 23 25  1  0  0  0  0
 23 22  1  0  0  0  0
 24 25  1  0  0  0  0
 26 27  1  0  0  0  0
 27 28  2  0  0  0  0
 29 34  1  0  0  0  0
 29 27  1  0  0  0  0
 30 34  2  0  0  0  0
 31 33  1  0  0  0  0
 31 32  2  0  0  0  0
 32 30  1  0  0  0  0
 33 29  2  0  0  0  0
 36 37  1  0  0  0  0
 37 42  1  1  0  0  0
 37 41  1  0  0  0  0
 38 41  1  0  0  0  0
 39 36  1  0  0  0  0
 39 40  1  0  0  0  0
 40 35  1  1  0  0  0
 40 38  1  0  0  0  0
 42 43  1  0  0  0  0
M  END
>  <MODEL>
2

>  <REMARK>
 VINA RESULT:      -9.7      1.826      6.683
  Name = 
  12 active torsions:
  status: ('A' for Active; 'I' for Inactive)
    1  A    between atoms: C_1  and  C_34
    2  A    between atoms: C_1  and  C_35
    3  A    between atoms: C_2  and  C_6
    4  A    between atoms: C_2  and  C_13
    5  A    between atoms: C_3  and  N_4
    6  A    between atoms: C_3  and  C_12
    7  A    between atoms: N_4  and  C_15
    8  A    between atoms: N_4  and  C_22
    9  A    between atoms: C_11  and  C_14
   10  A    between atoms: C_14  and  C_22
   11  A    between atoms: C_15  and  C_42
   12  A    between atoms: C_19  and  O_25
                            x       y       z     vdW  Elec       q    Type
                         _______ _______ _______ _____ _____    ______ ____

>  <TORSDO>
F 12

$$$$
=
 OpenBabel10262422193D

 43 47  0  0  1  0  0  0  0  0999 V2000
  184.5970  178.8070  145.4290 C   0  0  0  0  0  0  0  0  0  0  0  0
  182.4830  178.6850  140.8240 C   0  0  0  0  0  0  0  0  0  0  0  0
  184.5810  178.3130  138.9760 C   0  0  0  0  0  0  0  0  0  0  0  0
  183.0310  178.8330  143.5810 C   0  0  0  0  0  0  0  0  0  0  0  0
  185.6540  178.6200  144.5360 C   0  0  0  0  0  3  0  0  0  0  0  0
  184.8470  178.8890  146.7930 O   0  0  0  0  0  1  0  0  0  0  0  0
  184.0960  178.6450  142.6660 C   0  0  0  0  0  0  0  0  0  0  0  0
  183.2890  178.9140  144.9530 C   0  0  0  0  0  3  0  0  0  0  0  0
  185.4070  178.5380  143.1630 C   0  0  0  0  0  3  0  0  0  0  0  0
  184.8520  178.3830  140.3510 C   0  0  0  0  0  3  0  0  0  0  0  0
  183.8210  178.5680  141.2840 C   0  0  0  0  0  0  0  0  0  0  0  0
  181.4480  178.8700  141.7530 C   0  0  0  0  0  3  0  0  0  0  0  0
  182.2090  178.6190  139.4430 C   0  0  0  0  0  0  0  0  0  0  0  0
  183.2580  178.4400  138.5350 C   0  0  0  0  0  3  0  0  0  0  0  0
  181.7210  178.9420  143.1190 C   0  0  0  0  0  3  0  0  0  0  0  0
  185.6720  178.1310  137.9520 C   0  0  2  0  0  3  0  0  0  0  0  0
  185.3830  177.0300  137.1430 O   0  0  0  0  0  1  0  0  0  0  0  0
  187.0320  177.9560  138.5620 C   0  0  0  0  0  3  0  0  0  0  0  0
  188.1190  178.5550  138.0780 C   0  0  0  0  0  0  0  0  0  0  0  0
  188.0370  179.4020  136.9760 O   0  0  0  0  0  1  0  0  0  0  0  0
  189.4540  178.3090  138.7240 C   0  0  0  0  0  2  0  0  0  0  0  0
  189.5380  177.0430  139.4670 N   0  0  0  0  0  0  0  0  0  0  0  0
  190.1850  176.0210  138.6480 C   0  0  0  0  0  2  0  0  0  0  0  0
  191.4250  175.9500  136.2000 S   0  0  0  0  0  1  0  0  0  0  0  0
  191.3560  176.6230  137.8870 C   0  0  0  0  0  2  0  0  0  0  0  0
  190.3070  177.2150  140.6940 C   0  0  0  0  0  2  0  0  0  0  0  0
  189.3940  177.1640  141.8760 C   0  0  0  0  0  0  0  0  0  0  0  0
  188.1480  177.2040  141.6840 O   0  0  0  0  0  0  0  0  0  0  0  0
  189.9300  177.0870  143.2500 C   0  0  0  0  0  0  0  0  0  0  0  0
  191.6630  176.4180  144.7660 N   0  0  0  0  0  0  0  0  0  0  0  0
  189.7480  177.5610  145.6220 C   0  0  0  0  0  3  0  0  0  0  0  0
  190.9830  176.9420  145.8220 C   0  0  0  0  0  3  0  0  0  0  0  0
  189.2230  177.6330  144.3310 C   0  0  0  0  0  3  0  0  0  0  0  0
  191.1680  176.4770  143.4990 C   0  0  0  0  0  3  0  0  0  0  0  0
  180.8090  178.7270  138.9120 C   0  0  0  0  0  2  0  0  0  0  0  0
  181.3600  182.4680  138.0690 C   0  0  0  0  0  2  0  0  0  0  0  0
  180.5610  182.4360  136.7500 C   0  0  2  0  0  3  0  0  0  0  0  0
  180.4260  179.8980  136.7430 C   0  0  0  0  0  2  0  0  0  0  0  0
  181.6840  181.0670  138.5980 C   0  0  0  0  0  2  0  0  0  0  0  0
  180.5640  180.0810  138.2620 C   0  0  2  0  0  3  0  0  0  0  0  0
  180.7730  181.1540  135.9300 C   0  0  0  0  0  2  0  0  0  0  0  0
  180.6900  183.6170  135.9880 O   0  0  0  0  0  0  0  0  0  0  0  0
  181.3370  184.5910  136.7670 C   0  0  0  0  0  1  0  0  0  0  0  0
  1  6  1  0  0  0  0
  2 11  1  0  0  0  0
  2 12  1  0  0  0  0
  3 10  1  0  0  0  0
  4  8  2  0  0  0  0
  5  1  2  0  0  0  0
  7  9  2  0  0  0  0
  7  4  1  0  0  0  0
  8  1  1  0  0  0  0
  9  5  1  0  0  0  0
 10 11  2  0  0  0  0
 11  7  1  0  0  0  0
 12 15  2  0  0  0  0
 13  2  2  0  0  0  0
 14  3  2  0  0  0  0
 14 13  1  0  0  0  0
 15  4  1  0  0  0  0
 16 17  1  1  0  0  0
 16 18  1  0  0  0  0
 16  3  1  0  0  0  0
 19 18  2  0  0  0  0
 19 21  1  0  0  0  0
 20 19  1  0  0  0  0
 21 22  1  0  0  0  0
 22 26  1  0  0  0  0
 23 22  1  0  0  0  0
 24 25  1  0  0  0  0
 25 23  1  0  0  0  0
 26 27  1  0  0  0  0
 27 29  1  0  0  0  0
 28 27  2  0  0  0  0
 29 34  2  0  0  0  0
 29 33  1  0  0  0  0
 30 32  2  0  0  0  0
 31 32  1  0  0  0  0
 33 31  2  0  0  0  0
 34 30  1  0  0  0  0
 35 13  1  0  0  0  0
 36 39  1  0  0  0  0
 37 42  1  6  0  0  0
 37 36  1  0  0  0  0
 38 40  1  0  0  0  0
 40 39  1  0  0  0  0
 40 35  1  1  0  0  0
 41 38  1  0  0  0  0
 41 37  1  0  0  0  0
 42 43  1  0  0  0  0
M  END
>  <MODEL>
3

>  <REMARK>
 VINA RESULT:      -9.6      2.754      6.080
  Name = 
  12 active torsions:
  status: ('A' for Active; 'I' for Inactive)
    1  A    between atoms: C_1  and  C_34
    2  A    between atoms: C_1  and  C_35
    3  A    between atoms: C_2  and  C_6
    4  A    between atoms: C_2  and  C_13
    5  A    between atoms: C_3  and  N_4
    6  A    between atoms: C_3  and  C_12
    7  A    between atoms: N_4  and  C_15
    8  A    between atoms: N_4  and  C_22
    9  A    between atoms: C_11  and  C_14
   10  A    between atoms: C_14  and  C_22
   11  A    between atoms: C_15  and  C_42
   12  A    between atoms: C_19  and  O_25
                            x       y       z     vdW  Elec       q    Type
                         _______ _______ _______ _____ _____    ______ ____

>  <TORSDO>
F 12

$$$$
=
 OpenBabel10262422193D

 43 47  0  0  1  0  0  0  0  0999 V2000
  191.3330  176.5730  146.7310 C   0  0  0  0  0  0  0  0  0  0  0  0
  186.8590  177.8950  144.7480 C   0  0  0  0  0  0  0  0  0  0  0  0
  187.2980  178.3870  142.0060 C   0  0  0  0  0  0  0  0  0  0  0  0
  188.9930  177.1090  146.4080 C   0  0  0  0  0  0  0  0  0  0  0  0
  191.5780  176.8070  145.3760 C   0  0  0  0  0  3  0  0  0  0  0  0
  192.3730  176.1900  147.5680 O   0  0  0  0  0  1  0  0  0  0  0  0
  189.2300  177.3520  145.0330 C   0  0  0  0  0  0  0  0  0  0  0  0
  190.0440  176.7240  147.2460 C   0  0  0  0  0  3  0  0  0  0  0  0
  190.5340  177.1940  144.5310 C   0  0  0  0  0  3  0  0  0  0  0  0
  188.3600  177.9910  142.8340 C   0  0  0  0  0  3  0  0  0  0  0  0
  188.1600  177.7430  144.2000 C   0  0  0  0  0  0  0  0  0  0  0  0
  186.6530  177.6480  146.1150 C   0  0  0  0  0  3  0  0  0  0  0  0
  185.7920  178.2970  143.9200 C   0  0  0  0  0  0  0  0  0  0  0  0
  186.0230  178.5440  142.5630 C   0  0  0  0  0  3  0  0  0  0  0  0
  187.7110  177.2570  146.9360 C   0  0  0  0  0  3  0  0  0  0  0  0
  187.4910  178.6760  140.5390 C   0  0  2  0  0  3  0  0  0  0  0  0
  186.2690  178.5650  139.8720 O   0  0  0  0  0  1  0  0  0  0  0  0
  188.4990  177.7770  139.8860 C   0  0  0  0  0  3  0  0  0  0  0  0
  189.2160  178.1500  138.8280 C   0  0  0  0  0  0  0  0  0  0  0  0
  189.0740  179.4220  138.2820 O   0  0  0  0  0  1  0  0  0  0  0  0
  190.1860  177.1830  138.2090 C   0  0  0  0  0  2  0  0  0  0  0  0
  189.5880  176.2880  137.2080 N   0  0  0  0  0  0  0  0  0  0  0  0
  188.6470  177.0260  136.3720 C   0  0  0  0  0  2  0  0  0  0  0  0
  186.0860  177.2680  135.4130 S   0  0  0  0  0  1  0  0  0  0  0  0
  187.3480  176.2480  136.2310 C   0  0  0  0  0  2  0  0  0  0  0  0
  190.6180  175.7070  136.3540 C   0  0  0  0  0  2  0  0  0  0  0  0
  191.2220  174.5160  137.0250 C   0  0  0  0  0  0  0  0  0  0  0  0
  190.4570  173.6120  137.4640 O   0  0  0  0  0  0  0  0  0  0  0  0
  192.6830  174.3960  137.1950 C   0  0  0  0  0  0  0  0  0  0  0  0
  194.7560  175.2840  138.0090 N   0  0  0  0  0  0  0  0  0  0  0  0
  194.7550  173.1680  136.9010 C   0  0  0  0  0  3  0  0  0  0  0  0
  195.4360  174.1970  137.5530 C   0  0  0  0  0  3  0  0  0  0  0  0
  193.3740  173.2710  136.7240 C   0  0  0  0  0  3  0  0  0  0  0  0
  193.4100  175.4040  137.8460 C   0  0  0  0  0  3  0  0  0  0  0  0
  184.3990  178.4600  144.4540 C   0  0  0  0  0  2  0  0  0  0  0  0
  182.6470  178.5020  140.9980 C   0  0  0  0  0  2  0  0  0  0  0  0
  181.3830  179.2380  141.4880 C   0  0  2  0  0  3  0  0  0  0  0  0
  182.0100  178.9540  143.9340 C   0  0  0  0  0  2  0  0  0  0  0  0
  183.5060  177.9720  142.1500 C   0  0  0  0  0  2  0  0  0  0  0  0
  183.4330  178.9010  143.3620 C   0  0  2  0  0  3  0  0  0  0  0  0
  180.9070  178.7890  142.8780 C   0  0  0  0  0  2  0  0  0  0  0  0
  180.3500  179.2780  140.5270 O   0  0  0  0  0  0  0  0  0  0  0  0
  179.4790  180.3330  140.8410 C   0  0  0  0  0  1  0  0  0  0  0  0
  1  8  1  0  0  0  0
  1  6  1  0  0  0  0
  2 12  1  0  0  0  0
  3 14  2  0  0  0  0
  3 10  1  0  0  0  0
  4 15  1  0  0  0  0
  4  8  2  0  0  0  0
  5  1  2  0  0  0  0
  7  4  1  0  0  0  0
  9  7  2  0  0  0  0
  9  5  1  0  0  0  0
 10 11  2  0  0  0  0
 11  2  1  0  0  0  0
 11  7  1  0  0  0  0
 12 15  2  0  0  0  0
 13 35  1  0  0  0  0
 13  2  2  0  0  0  0
 14 13  1  0  0  0  0
 16 17  1  6  0  0  0
 16  3  1  0  0  0  0
 18 16  1  0  0  0  0
 19 18  2  0  0  0  0
 20 19  1  0  0  0  0
 21 19  1  0  0  0  0
 22 21  1  0  0  0  0
 23 22  1  0  0  0  0
 24 25  1  0  0  0  0
 25 23  1  0  0  0  0
 26 27  1  0  0  0  0
 26 22  1  0  0  0  0
 27 29  1  0  0  0  0
 27 28  2  0  0  0  0
 29 34  1  0  0  0  0
 31 32  2  0  0  0  0
 32 30  1  0  0  0  0
 33 31  1  0  0  0  0
 33 29  2  0  0  0  0
 34 30  2  0  0  0  0
 36 37  1  0  0  0  0
 36 39  1  0  0  0  0
 37 42  1  6  0  0  0
 37 41  1  0  0  0  0
 39 40  1  0  0  0  0
 40 38  1  0  0  0  0
 40 35  1  1  0  0  0
 41 38  1  0  0  0  0
 42 43  1  0  0  0  0
M  END
>  <MODEL>
4

>  <REMARK>
 VINA RESULT:      -9.6      1.975      3.969
  Name = 
  12 active torsions:
  status: ('A' for Active; 'I' for Inactive)
    1  A    between atoms: C_1  and  C_34
    2  A    between atoms: C_1  and  C_35
    3  A    between atoms: C_2  and  C_6
    4  A    between atoms: C_2  and  C_13
    5  A    between atoms: C_3  and  N_4
    6  A    between atoms: C_3  and  C_12
    7  A    between atoms: N_4  and  C_15
    8  A    between atoms: N_4  and  C_22
    9  A    between atoms: C_11  and  C_14
   10  A    between atoms: C_14  and  C_22
   11  A    between atoms: C_15  and  C_42
   12  A    between atoms: C_19  and  O_25
                            x       y       z     vdW  Elec       q    Type
                         _______ _______ _______ _____ _____    ______ ____

>  <TORSDO>
F 12

$$$$
=
 OpenBabel10262422193D

 43 47  0  0  1  0  0  0  0  0999 V2000
  191.1910  176.5880  146.8170 C   0  0  0  0  0  0  0  0  0  0  0  0
  189.1450  177.8980  142.3680 C   0  0  0  0  0  0  0  0  0  0  0  0
  186.4070  178.3780  142.8420 C   0  0  0  0  0  0  0  0  0  0  0  0
  190.8370  177.1290  144.4830 C   0  0  0  0  0  0  0  0  0  0  0  0
  189.8390  176.8220  147.0800 C   0  0  0  0  0  3  0  0  0  0  0  0
  192.0400  176.2010  147.8450 O   0  0  0  0  0  1  0  0  0  0  0  0
  189.4640  177.3670  144.7370 C   0  0  0  0  0  0  0  0  0  0  0  0
  191.6880  176.7410  145.5210 C   0  0  0  0  0  3  0  0  0  0  0  0
  188.9800  177.2100  146.0480 C   0  0  0  0  0  3  0  0  0  0  0  0
  187.2520  177.9980  143.8960 C   0  0  0  0  0  3  0  0  0  0  0  0
  188.6160  177.7550  143.6780 C   0  0  0  0  0  0  0  0  0  0  0  0
  190.5100  177.6560  142.1450 C   0  0  0  0  0  3  0  0  0  0  0  0
  188.2970  178.2760  141.3080 C   0  0  0  0  0  0  0  0  0  0  0  0
  186.9400  178.5050  141.5530 C   0  0  0  0  0  3  0  0  0  0  0  0
  191.3470  177.2760  143.1940 C   0  0  0  0  0  3  0  0  0  0  0  0
  184.9340  178.6290  143.0460 C   0  0  2  0  0  3  0  0  0  0  0  0
  184.4920  177.9450  144.1800 O   0  0  0  0  0  1  0  0  0  0  0  0
  184.0970  178.2320  141.8660 C   0  0  0  0  0  3  0  0  0  0  0  0
  182.8200  178.5910  141.7370 C   0  0  0  0  0  0  0  0  0  0  0  0
  182.2010  179.3830  142.7000 O   0  0  0  0  0  1  0  0  0  0  0  0
  182.0360  178.1300  140.5410 C   0  0  0  0  0  2  0  0  0  0  0  0
  182.1860  178.9860  139.3560 N   0  0  0  0  0  0  0  0  0  0  0  0
  183.0420  178.3330  138.3690 C   0  0  0  0  0  2  0  0  0  0  0  0
  182.8890  175.9440  137.0260 S   0  0  0  0  0  1  0  0  0  0  0  0
  183.0600  176.8310  138.6030 C   0  0  0  0  0  2  0  0  0  0  0  0
  180.8880  179.2550  138.7460 C   0  0  0  0  0  2  0  0  0  0  0  0
  180.6060  180.7220  138.7810 C   0  0  0  0  0  0  0  0  0  0  0  0
  180.2870  181.2540  139.8800 O   0  0  0  0  0  0  0  0  0  0  0  0
  180.6780  181.5420  137.5550 C   0  0  0  0  0  0  0  0  0  0  0  0
  180.7900  181.6920  135.1650 N   0  0  0  0  0  0  0  0  0  0  0  0
  180.7350  183.7020  136.4530 C   0  0  0  0  0  3  0  0  0  0  0  0
  180.7920  183.0520  135.2200 C   0  0  0  0  0  3  0  0  0  0  0  0
  180.6770  182.9420  137.6230 C   0  0  0  0  0  3  0  0  0  0  0  0
  180.7350  180.9320  136.2930 C   0  0  0  0  0  3  0  0  0  0  0  0
  188.8140  178.4490  139.9090 C   0  0  0  0  0  2  0  0  0  0  0  0
  186.9440  176.6690  137.0200 C   0  0  0  0  0  2  0  0  0  0  0  0
  187.8910  175.4520  136.9670 C   0  0  2  0  0  3  0  0  0  0  0  0
  189.5990  176.5500  138.4950 C   0  0  0  0  0  2  0  0  0  0  0  0
  187.5180  177.8280  137.8420 C   0  0  0  0  0  2  0  0  0  0  0  0
  188.3660  177.3100  139.0050 C   0  0  2  0  0  3  0  0  0  0  0  0
  189.3710  175.8110  137.1680 C   0  0  0  0  0  2  0  0  0  0  0  0
  187.6630  174.6140  135.8540 O   0  0  0  0  0  0  0  0  0  0  0  0
  186.8710  175.3050  134.9210 C   0  0  0  0  0  1  0  0  0  0  0  0
  1  5  1  0  0  0  0
  1  6  1  0  0  0  0
  2 11  1  0  0  0  0
  3 16  1  0  0  0  0
  3 10  1  0  0  0  0
  4  7  2  0  0  0  0
  4  8  1  0  0  0  0
  7  9  1  0  0  0  0
  8  1  2  0  0  0  0
  9  5  2  0  0  0  0
 11 10  2  0  0  0  0
 11  7  1  0  0  0  0
 12  2  1  0  0  0  0
 12 15  2  0  0  0  0
 13 14  1  0  0  0  0
 13  2  2  0  0  0  0
 14  3  2  0  0  0  0
 15  4  1  0  0  0  0
 16 17  1  1  0  0  0
 18 16  1  0  0  0  0
 19 18  2  0  0  0  0
 19 20  1  0  0  0  0
 21 19  1  0  0  0  0
 22 21  1  0  0  0  0
 23 25  1  0  0  0  0
 23 22  1  0  0  0  0
 24 25  1  0  0  0  0
 26 27  1  0  0  0  0
 26 22  1  0  0  0  0
 27 28  2  0  0  0  0
 29 33  1  0  0  0  0
 29 27  1  0  0  0  0
 30 32  2  0  0  0  0
 30 34  1  0  0  0  0
 31 33  2  0  0  0  0
 32 31  1  0  0  0  0
 34 29  2  0  0  0  0
 35 13  1  0  0  0  0
 36 39  1  0  0  0  0
 37 42  1  6  0  0  0
 37 36  1  0  0  0  0
 37 41  1  0  0  0  0
 38 40  1  0  0  0  0
 39 40  1  0  0  0  0
 40 35  1  6  0  0  0
 41 38  1  0  0  0  0
 43 42  1  0  0  0  0
M  END
>  <MODEL>
5

>  <REMARK>
 VINA RESULT:      -8.8      3.067      6.846
  Name = 
  12 active torsions:
  status: ('A' for Active; 'I' for Inactive)
    1  A    between atoms: C_1  and  C_34
    2  A    between atoms: C_1  and  C_35
    3  A    between atoms: C_2  and  C_6
    4  A    between atoms: C_2  and  C_13
    5  A    between atoms: C_3  and  N_4
    6  A    between atoms: C_3  and  C_12
    7  A    between atoms: N_4  and  C_15
    8  A    between atoms: N_4  and  C_22
    9  A    between atoms: C_11  and  C_14
   10  A    between atoms: C_14  and  C_22
   11  A    between atoms: C_15  and  C_42
   12  A    between atoms: C_19  and  O_25
                            x       y       z     vdW  Elec       q    Type
                         _______ _______ _______ _____ _____    ______ ____

>  <TORSDO>
F 12

$$$$
=
 OpenBabel10262422193D

 43 47  0  0  1  0  0  0  0  0999 V2000
  188.0600  177.3860  146.9750 C   0  0  0  0  0  0  0  0  0  0  0  0
  185.9580  178.4170  142.4800 C   0  0  0  0  0  0  0  0  0  0  0  0
  188.0180  178.2520  140.5610 C   0  0  0  0  0  0  0  0  0  0  0  0
  186.5090  177.9370  145.1980 C   0  0  0  0  0  0  0  0  0  0  0  0
  189.0990  177.2940  146.0460 C   0  0  0  0  0  3  0  0  0  0  0  0
  188.3130  177.1590  148.3220 O   0  0  0  0  0  1  0  0  0  0  0  0
  187.5540  177.8490  144.2470 C   0  0  0  0  0  0  0  0  0  0  0  0
  186.7680  177.7070  146.5520 C   0  0  0  0  0  3  0  0  0  0  0  0
  188.8490  177.5240  144.6900 C   0  0  0  0  0  3  0  0  0  0  0  0
  188.2910  178.0090  141.9160 C   0  0  0  0  0  3  0  0  0  0  0  0
  187.2780  178.0870  142.8840 C   0  0  0  0  0  0  0  0  0  0  0  0
  184.9410  178.4970  143.4440 C   0  0  0  0  0  3  0  0  0  0  0  0
  185.6830  178.6660  141.1200 C   0  0  0  0  0  0  0  0  0  0  0  0
  186.7140  178.5870  140.1780 C   0  0  0  0  0  3  0  0  0  0  0  0
  185.2150  178.2570  144.7900 C   0  0  0  0  0  3  0  0  0  0  0  0
  189.0920  178.1900  139.5040 C   0  0  2  0  0  3  0  0  0  0  0  0
  189.0310  179.3310  138.7020 O   0  0  0  0  0  1  0  0  0  0  0  0
  189.0010  176.9670  138.6390 C   0  0  0  0  0  3  0  0  0  0  0  0
  190.0680  176.2420  138.3060 C   0  0  0  0  0  0  0  0  0  0  0  0
  191.3350  176.5820  138.7700 O   0  0  0  0  0  1  0  0  0  0  0  0
  189.9030  175.0460  137.4100 C   0  0  0  0  0  2  0  0  0  0  0  0
  189.9160  175.3630  135.9750 N   0  0  0  0  0  0  0  0  0  0  0  0
  191.2220  175.0490  135.4020 C   0  0  0  0  0  2  0  0  0  0  0  0
  193.6780  173.9600  135.9620 S   0  0  0  0  0  1  0  0  0  0  0  0
  191.8740  173.9130  136.1750 C   0  0  0  0  0  2  0  0  0  0  0  0
  188.8980  174.5940  135.2670 C   0  0  0  0  0  2  0  0  0  0  0  0
  187.5560  175.2200  135.4730 C   0  0  0  0  0  0  0  0  0  0  0  0
  187.4060  176.4420  135.1980 O   0  0  0  0  0  0  0  0  0  0  0  0
  186.4230  174.4360  136.0050 C   0  0  0  0  0  0  0  0  0  0  0  0
  185.4810  173.0610  137.7290 N   0  0  0  0  0  0  0  0  0  0  0  0
  184.1490  173.6100  135.8240 C   0  0  0  0  0  3  0  0  0  0  0  0
  184.3040  172.9670  137.0510 C   0  0  0  0  0  3  0  0  0  0  0  0
  185.2140  174.3470  135.3020 C   0  0  0  0  0  3  0  0  0  0  0  0
  186.5320  173.7740  137.2360 C   0  0  0  0  0  3  0  0  0  0  0  0
  184.3000  179.0070  140.6460 C   0  0  0  0  0  2  0  0  0  0  0  0
  182.3960  175.9120  139.3010 C   0  0  0  0  0  2  0  0  0  0  0  0
  182.3650  176.3910  137.8350 C   0  0  2  0  0  3  0  0  0  0  0  0
  183.1620  178.7250  138.4440 C   0  0  0  0  0  2  0  0  0  0  0  0
  182.7920  177.0250  140.2770 C   0  0  0  0  0  2  0  0  0  0  0  0
  183.7910  177.9890  139.6350 C   0  0  2  0  0  3  0  0  0  0  0  0
  182.1160  177.8990  137.6820 C   0  0  0  0  0  2  0  0  0  0  0  0
  181.5420  175.5990  137.0050 O   0  0  0  0  0  0  0  0  0  0  0  0
  180.8020  174.7160  137.8100 C   0  0  0  0  0  1  0  0  0  0  0  0
  1  6  1  0  0  0  0
  2 11  1  0  0  0  0
  2 12  1  0  0  0  0
  3 10  1  0  0  0  0
  4  8  2  0  0  0  0
  5  1  2  0  0  0  0
  7  9  2  0  0  0  0
  7  4  1  0  0  0  0
  8  1  1  0  0  0  0
  9  5  1  0  0  0  0
 10 11  2  0  0  0  0
 11  7  1  0  0  0  0
 12 15  2  0  0  0  0
 13  2  2  0  0  0  0
 14  3  2  0  0  0  0
 14 13  1  0  0  0  0
 15  4  1  0  0  0  0
 16 17  1  6  0  0  0
 16  3  1  0  0  0  0
 18 16  1  0  0  0  0
 19 18  2  0  0  0  0
 19 20  1  0  0  0  0
 21 19  1  0  0  0  0
 22 21  1  0  0  0  0
 23 22  1  0  0  0  0
 23 25  1  0  0  0  0
 24 25  1  0  0  0  0
 26 27  1  0  0  0  0
 26 22  1  0  0  0  0
 27 29  1  0  0  0  0
 28 27  2  0  0  0  0
 29 34  1  0  0  0  0
 31 32  2  0  0  0  0
 32 30  1  0  0  0  0
 33 31  1  0  0  0  0
 33 29  2  0  0  0  0
 34 30  2  0  0  0  0
 35 13  1  0  0  0  0
 36 39  1  0  0  0  0
 37 42  1  6  0  0  0
 37 36  1  0  0  0  0
 38 40  1  0  0  0  0
 40 39  1  0  0  0  0
 40 35  1  1  0  0  0
 41 37  1  0  0  0  0
 41 38  1  0  0  0  0
 42 43  1  0  0  0  0
M  END
>  <MODEL>
6

>  <REMARK>
 VINA RESULT:      -8.8      1.956      2.947
  Name = 
  12 active torsions:
  status: ('A' for Active; 'I' for Inactive)
    1  A    between atoms: C_1  and  C_34
    2  A    between atoms: C_1  and  C_35
    3  A    between atoms: C_2  and  C_6
    4  A    between atoms: C_2  and  C_13
    5  A    between atoms: C_3  and  N_4
    6  A    between atoms: C_3  and  C_12
    7  A    between atoms: N_4  and  C_15
    8  A    between atoms: N_4  and  C_22
    9  A    between atoms: C_11  and  C_14
   10  A    between atoms: C_14  and  C_22
   11  A    between atoms: C_15  and  C_42
   12  A    between atoms: C_19  and  O_25
                            x       y       z     vdW  Elec       q    Type
                         _______ _______ _______ _____ _____    ______ ____

>  <TORSDO>
F 12

$$$$
=
 OpenBabel10262422193D

 43 47  0  0  1  0  0  0  0  0999 V2000
  181.5850  179.0480  141.1830 C   0  0  0  0  0  0  0  0  0  0  0  0
  185.8610  178.1900  143.7660 C   0  0  0  0  0  0  0  0  0  0  0  0
  187.8940  177.7670  141.8580 C   0  0  0  0  0  0  0  0  0  0  0  0
  183.2250  178.7270  142.9360 C   0  0  0  0  0  0  0  0  0  0  0  0
  182.5730  178.8450  140.2160 C   0  0  0  0  0  3  0  0  0  0  0  0
  180.2770  179.3080  140.7940 O   0  0  0  0  0  1  0  0  0  0  0  0
  184.2350  178.5180  141.9660 C   0  0  0  0  0  0  0  0  0  0  0  0
  181.9100  178.9890  142.5400 C   0  0  0  0  0  3  0  0  0  0  0  0
  183.8900  178.5820  140.6030 C   0  0  0  0  0  3  0  0  0  0  0  0
  186.5800  178.0380  141.4460 C   0  0  0  0  0  3  0  0  0  0  0  0
  185.5570  178.2510  142.3820 C   0  0  0  0  0  0  0  0  0  0  0  0
  184.8410  178.4020  144.7070 C   0  0  0  0  0  3  0  0  0  0  0  0
  187.1780  177.9140  144.1830 C   0  0  0  0  0  0  0  0  0  0  0  0
  188.1770  177.6990  143.2280 C   0  0  0  0  0  3  0  0  0  0  0  0
  183.5350  178.6690  144.2940 C   0  0  0  0  0  3  0  0  0  0  0  0
  189.0070  177.5180  140.8730 C   0  0  2  0  0  3  0  0  0  0  0  0
  190.2300  177.8850  141.4400 O   0  0  0  0  0  1  0  0  0  0  0  0
  188.8220  178.2470  139.5740 C   0  0  0  0  0  3  0  0  0  0  0  0
  188.5650  177.6190  138.4280 C   0  0  0  0  0  0  0  0  0  0  0  0
  188.4340  176.2340  138.3870 O   0  0  0  0  0  1  0  0  0  0  0  0
  188.4210  178.4140  137.1610 C   0  0  0  0  0  2  0  0  0  0  0  0
  188.1530  177.6010  135.9660 N   0  0  0  0  0  0  0  0  0  0  0  0
  187.0830  178.2040  135.1770 C   0  0  0  0  0  2  0  0  0  0  0  0
  185.3590  176.5280  136.5000 S   0  0  0  0  0  1  0  0  0  0  0  0
  185.9800  177.1880  134.9250 C   0  0  0  0  0  2  0  0  0  0  0  0
  189.3460  177.4950  135.1340 C   0  0  0  0  0  2  0  0  0  0  0  0
  190.0180  176.1810  135.3750 C   0  0  0  0  0  0  0  0  0  0  0  0
  189.3470  175.1210  135.2380 O   0  0  0  0  0  0  0  0  0  0  0  0
  191.4340  176.1140  135.7850 C   0  0  0  0  0  0  0  0  0  0  0  0
  193.7530  175.9110  135.2070 N   0  0  0  0  0  0  0  0  0  0  0  0
  193.1460  176.1580  137.5040 C   0  0  0  0  0  3  0  0  0  0  0  0
  194.1180  176.0040  136.5150 C   0  0  0  0  0  3  0  0  0  0  0  0
  191.8010  176.2130  137.1340 C   0  0  0  0  0  3  0  0  0  0  0  0
  192.4460  175.9620  134.8260 C   0  0  0  0  0  3  0  0  0  0  0  0
  187.5480  177.8500  145.6360 C   0  0  0  0  0  2  0  0  0  0  0  0
  191.3460  177.1200  145.3960 C   0  0  0  0  0  2  0  0  0  0  0  0
  191.3830  176.1590  146.6010 C   0  0  2  0  0  3  0  0  0  0  0  0
  189.0310  176.7820  147.3340 C   0  0  0  0  0  2  0  0  0  0  0  0
  190.0460  177.9280  145.3230 C   0  0  0  0  0  2  0  0  0  0  0  0
  188.8630  177.1100  145.8440 C   0  0  2  0  0  3  0  0  0  0  0  0
  190.4920  176.6010  147.7720 C   0  0  0  0  0  2  0  0  0  0  0  0
  192.6910  175.8050  146.9950 O   0  0  0  0  0  0  0  0  0  0  0  0
  192.8140  175.9890  148.3820 C   0  0  0  0  0  1  0  0  0  0  0  0
  1  8  1  0  0  0  0
  2 13  1  0  0  0  0
  2 12  1  0  0  0  0
  3 14  1  0  0  0  0
  4 15  1  0  0  0  0
  5  9  1  0  0  0  0
  5  1  2  0  0  0  0
  6  1  1  0  0  0  0
  7 11  1  0  0  0  0
  7  4  1  0  0  0  0
  8  4  2  0  0  0  0
  9  7  2  0  0  0  0
 10  3  2  0  0  0  0
 10 11  1  0  0  0  0
 11  2  2  0  0  0  0
 13 35  1  0  0  0  0
 14 13  2  0  0  0  0
 15 12  2  0  0  0  0
 16 17  1  1  0  0  0
 16  3  1  0  0  0  0
 18 16  1  0  0  0  0
 19 18  2  0  0  0  0
 20 19  1  0  0  0  0
 21 19  1  0  0  0  0
 22 21  1  0  0  0  0
 23 22  1  0  0  0  0
 25 23  1  0  0  0  0
 25 24  1  0  0  0  0
 26 27  1  0  0  0  0
 26 22  1  0  0  0  0
 27 29  1  0  0  0  0
 28 27  2  0  0  0  0
 29 33  1  0  0  0  0
 30 32  2  0  0  0  0
 32 31  1  0  0  0  0
 33 31  2  0  0  0  0
 34 30  1  0  0  0  0
 34 29  2  0  0  0  0
 36 37  1  0  0  0  0
 37 42  1  1  0  0  0
 37 41  1  0  0  0  0
 38 41  1  0  0  0  0
 39 36  1  0  0  0  0
 39 40  1  0  0  0  0
 40 35  1  1  0  0  0
 40 38  1  0  0  0  0
 42 43  1  0  0  0  0
M  END
>  <MODEL>
7

>  <REMARK>
 VINA RESULT:      -8.8      2.258      7.349
  Name = 
  12 active torsions:
  status: ('A' for Active; 'I' for Inactive)
    1  A    between atoms: C_1  and  C_34
    2  A    between atoms: C_1  and  C_35
    3  A    between atoms: C_2  and  C_6
    4  A    between atoms: C_2  and  C_13
    5  A    between atoms: C_3  and  N_4
    6  A    between atoms: C_3  and  C_12
    7  A    between atoms: N_4  and  C_15
    8  A    between atoms: N_4  and  C_22
    9  A    between atoms: C_11  and  C_14
   10  A    between atoms: C_14  and  C_22
   11  A    between atoms: C_15  and  C_42
   12  A    between atoms: C_19  and  O_25
                            x       y       z     vdW  Elec       q    Type
                         _______ _______ _______ _____ _____    ______ ____

>  <TORSDO>
F 12

$$$$
=
 OpenBabel10262422193D

 43 47  0  0  1  0  0  0  0  0999 V2000
  190.9390  176.7030  146.6740 C   0  0  0  0  0  0  0  0  0  0  0  0
  189.1570  177.8880  142.0790 C   0  0  0  0  0  0  0  0  0  0  0  0
  186.4050  178.4230  142.3870 C   0  0  0  0  0  0  0  0  0  0  0  0
  190.7200  177.1680  144.3070 C   0  0  0  0  0  0  0  0  0  0  0  0
  189.5790  176.9660  146.8560 C   0  0  0  0  0  3  0  0  0  0  0  0
  191.7260  176.3410  147.7590 O   0  0  0  0  0  1  0  0  0  0  0  0
  189.3400  177.4350  144.4780 C   0  0  0  0  0  0  0  0  0  0  0  0
  191.5080  176.8040  145.4030 C   0  0  0  0  0  3  0  0  0  0  0  0
  188.7830  177.3290  145.7660 C   0  0  0  0  0  3  0  0  0  0  0  0
  187.1870  178.0680  143.4980 C   0  0  0  0  0  3  0  0  0  0  0  0
  188.5560  177.7980  143.3620 C   0  0  0  0  0  0  0  0  0  0  0  0
  190.5270  177.6190  141.9380 C   0  0  0  0  0  3  0  0  0  0  0  0
  188.3730  178.2400  140.9620 C   0  0  0  0  0  0  0  0  0  0  0  0
  187.0080  178.4970  141.1260 C   0  0  0  0  0  3  0  0  0  0  0  0
  191.3010  177.2630  143.0430 C   0  0  0  0  0  3  0  0  0  0  0  0
  184.9280  178.7020  142.5030 C   0  0  2  0  0  3  0  0  0  0  0  0
  184.3890  177.9620  143.5580 O   0  0  0  0  0  1  0  0  0  0  0  0
  184.1680  178.4010  141.2450 C   0  0  0  0  0  3  0  0  0  0  0  0
  182.8610  178.6240  141.1230 C   0  0  0  0  0  0  0  0  0  0  0  0
  182.1310  179.1760  142.1720 O   0  0  0  0  0  1  0  0  0  0  0  0
  182.1620  178.2690  139.8410 C   0  0  0  0  0  2  0  0  0  0  0  0
  181.9960  176.8240  139.6260 N   0  0  0  0  0  0  0  0  0  0  0  0
  180.7160  176.3790  140.1690 C   0  0  0  0  0  2  0  0  0  0  0  0
  179.1410  174.3100  139.2890 S   0  0  0  0  0  1  0  0  0  0  0  0
  179.7720  175.9960  139.0400 C   0  0  0  0  0  2  0  0  0  0  0  0
  182.0370  176.5050  138.2030 C   0  0  0  0  0  2  0  0  0  0  0  0
  183.3380  175.8510  137.8670 C   0  0  0  0  0  0  0  0  0  0  0  0
  184.3850  176.5550  137.8450 O   0  0  0  0  0  0  0  0  0  0  0  0
  183.4070  174.4110  137.5480 C   0  0  0  0  0  0  0  0  0  0  0  0
  182.3230  172.3860  136.8590 N   0  0  0  0  0  0  0  0  0  0  0  0
  184.6720  172.3570  137.2930 C   0  0  0  0  0  3  0  0  0  0  0  0
  183.4990  171.7020  136.9170 C   0  0  0  0  0  3  0  0  0  0  0  0
  184.6220  173.7170  137.6080 C   0  0  0  0  0  3  0  0  0  0  0  0
  182.2540  173.7120  137.1630 C   0  0  0  0  0  3  0  0  0  0  0  0
  188.9670  178.3580  139.5890 C   0  0  0  0  0  2  0  0  0  0  0  0
  187.7410  175.5870  137.1730 C   0  0  0  0  0  2  0  0  0  0  0  0
  189.1030  174.8690  137.0780 C   0  0  2  0  0  3  0  0  0  0  0  0
  190.3320  176.7690  138.2340 C   0  0  0  0  0  2  0  0  0  0  0  0
  187.8510  176.9810  137.7990 C   0  0  0  0  0  2  0  0  0  0  0  0
  188.9530  177.0210  138.8600 C   0  0  2  0  0  3  0  0  0  0  0  0
  190.3040  175.8250  137.0230 C   0  0  0  0  0  2  0  0  0  0  0  0
  189.1380  173.8650  136.0860 O   0  0  0  0  0  0  0  0  0  0  0  0
  188.3550  172.7790  136.5110 C   0  0  0  0  0  1  0  0  0  0  0  0
  1  5  1  0  0  0  0
  1  6  1  0  0  0  0
  2 11  1  0  0  0  0
  3 16  1  0  0  0  0
  3 10  1  0  0  0  0
  4  7  2  0  0  0  0
  4  8  1  0  0  0  0
  7  9  1  0  0  0  0
  8  1  2  0  0  0  0
  9  5  2  0  0  0  0
 11 10  2  0  0  0  0
 11  7  1  0  0  0  0
 12  2  1  0  0  0  0
 12 15  2  0  0  0  0
 13 14  1  0  0  0  0
 13  2  2  0  0  0  0
 14  3  2  0  0  0  0
 15  4  1  0  0  0  0
 16 17  1  1  0  0  0
 18 16  1  0  0  0  0
 19 18  2  0  0  0  0
 19 20  1  0  0  0  0
 21 19  1  0  0  0  0
 22 21  1  0  0  0  0
 22 23  1  0  0  0  0
 25 24  1  0  0  0  0
 25 23  1  0  0  0  0
 26 22  1  0  0  0  0
 27 26  1  0  0  0  0
 28 27  2  0  0  0  0
 29 33  1  0  0  0  0
 29 27  1  0  0  0  0
 30 32  2  0  0  0  0
 30 34  1  0  0  0  0
 31 33  2  0  0  0  0
 32 31  1  0  0  0  0
 34 29  2  0  0  0  0
 35 13  1  0  0  0  0
 36 39  1  0  0  0  0
 37 42  1  6  0  0  0
 37 36  1  0  0  0  0
 38 40  1  0  0  0  0
 39 40  1  0  0  0  0
 40 35  1  6  0  0  0
 41 37  1  0  0  0  0
 41 38  1  0  0  0  0
 42 43  1  0  0  0  0
M  END
>  <MODEL>
8

>  <REMARK>
 VINA RESULT:      -8.8      3.216      6.591
  Name = 
  12 active torsions:
  status: ('A' for Active; 'I' for Inactive)
    1  A    between atoms: C_1  and  C_34
    2  A    between atoms: C_1  and  C_35
    3  A    between atoms: C_2  and  C_6
    4  A    between atoms: C_2  and  C_13
    5  A    between atoms: C_3  and  N_4
    6  A    between atoms: C_3  and  C_12
    7  A    between atoms: N_4  and  C_15
    8  A    between atoms: N_4  and  C_22
    9  A    between atoms: C_11  and  C_14
   10  A    between atoms: C_14  and  C_22
   11  A    between atoms: C_15  and  C_42
   12  A    between atoms: C_19  and  O_25
                            x       y       z     vdW  Elec       q    Type
                         _______ _______ _______ _____ _____    ______ ____

>  <TORSDO>
F 12

$$$$
=
 OpenBabel10262422193D

 43 47  0  0  1  0  0  0  0  0999 V2000
  193.6410  175.3220  136.5590 C   0  0  0  0  0  0  0  0  0  0  0  0
  190.0750  177.4630  139.4560 C   0  0  0  0  0  0  0  0  0  0  0  0
  187.6710  177.3760  137.9850 C   0  0  0  0  0  0  0  0  0  0  0  0
  192.4460  176.4080  138.3640 C   0  0  0  0  0  0  0  0  0  0  0  0
  192.4630  175.2630  135.8100 C   0  0  0  0  0  3  0  0  0  0  0  0
  194.8220  174.8130  136.0350 O   0  0  0  0  0  1  0  0  0  0  0  0
  191.2460  176.3560  137.6130 C   0  0  0  0  0  0  0  0  0  0  0  0
  193.6320  175.8930  137.8330 C   0  0  0  0  0  3  0  0  0  0  0  0
  191.2730  175.7760  136.3320 C   0  0  0  0  0  3  0  0  0  0  0  0
  188.8530  176.8470  137.4430 C   0  0  0  0  0  3  0  0  0  0  0  0
  190.0570  176.8830  138.1610 C   0  0  0  0  0  0  0  0  0  0  0  0
  191.2780  177.5010  140.1790 C   0  0  0  0  0  3  0  0  0  0  0  0
  188.8910  177.9990  140.0000 C   0  0  0  0  0  0  0  0  0  0  0  0
  187.7050  177.9560  139.2590 C   0  0  0  0  0  3  0  0  0  0  0  0
  192.4520  176.9770  139.6370 C   0  0  0  0  0  3  0  0  0  0  0  0
  186.3670  177.3650  137.2280 C   0  0  2  0  0  3  0  0  0  0  0  0
  186.4180  178.2960  136.1880 O   0  0  0  0  0  1  0  0  0  0  0  0
  185.1760  177.6510  138.0950 C   0  0  0  0  0  3  0  0  0  0  0  0
  184.1290  176.8320  138.1700 C   0  0  0  0  0  0  0  0  0  0  0  0
  184.1010  175.6420  137.4490 O   0  0  0  0  0  1  0  0  0  0  0  0
  182.9580  177.2000  139.0380 C   0  0  0  0  0  2  0  0  0  0  0  0
  183.1670  178.4080  139.8490 N   0  0  0  0  0  0  0  0  0  0  0  0
  182.0760  179.3540  139.6310 C   0  0  0  0  0  2  0  0  0  0  0  0
  181.3390  181.6700  138.3560 S   0  0  0  0  0  1  0  0  0  0  0  0
  182.3040  180.1300  138.3440 C   0  0  0  0  0  2  0  0  0  0  0  0
  183.2220  178.0750  141.2680 C   0  0  0  0  0  2  0  0  0  0  0  0
  184.3830  178.7660  141.9070 C   0  0  0  0  0  0  0  0  0  0  0  0
  185.1870  179.4060  141.1750 O   0  0  0  0  0  0  0  0  0  0  0  0
  184.6060  178.6920  143.3640 C   0  0  0  0  0  0  0  0  0  0  0  0
  183.8050  179.0030  145.6030 N   0  0  0  0  0  0  0  0  0  0  0  0
  186.0080  178.1440  145.2670 C   0  0  0  0  0  3  0  0  0  0  0  0
  184.9790  178.5470  146.1180 C   0  0  0  0  0  3  0  0  0  0  0  0
  185.8170  178.2170  143.8850 C   0  0  0  0  0  3  0  0  0  0  0  0
  183.6000  179.0830  144.2590 C   0  0  0  0  0  3  0  0  0  0  0  0
  188.8600  178.6130  141.3700 C   0  0  0  0  0  2  0  0  0  0  0  0
  191.4850  178.1720  144.1850 C   0  0  0  0  0  2  0  0  0  0  0  0
  191.1470  176.6930  144.4640 C   0  0  2  0  0  3  0  0  0  0  0  0
  189.0430  176.7710  143.0410 C   0  0  0  0  0  2  0  0  0  0  0  0
  190.4240  178.8680  143.3260 C   0  0  0  0  0  2  0  0  0  0  0  0
  189.8040  177.8940  142.3230 C   0  0  2  0  0  3  0  0  0  0  0  0
  189.6450  176.3780  144.3990 C   0  0  0  0  0  2  0  0  0  0  0  0
  191.7780  176.1830  145.6190 O   0  0  0  0  0  0  0  0  0  0  0  0
  191.2050  176.7850  146.7520 C   0  0  0  0  0  1  0  0  0  0  0  0
  1  8  1  0  0  0  0
  2 13  1  0  0  0  0
  2 12  1  0  0  0  0
  3 14  1  0  0  0  0
  4 15  1  0  0  0  0
  5  9  1  0  0  0  0
  5  1  2  0  0  0  0
  6  1  1  0  0  0  0
  7 11  1  0  0  0  0
  7  4  1  0  0  0  0
  8  4  2  0  0  0  0
  9  7  2  0  0  0  0
 10  3  2  0  0  0  0
 10 11  1  0  0  0  0
 11  2  2  0  0  0  0
 13 35  1  0  0  0  0
 14 13  2  0  0  0  0
 15 12  2  0  0  0  0
 16 17  1  6  0  0  0
 16  3  1  0  0  0  0
 16 18  1  0  0  0  0
 18 19  2  0  0  0  0
 19 21  1  0  0  0  0
 20 19  1  0  0  0  0
 21 22  1  0  0  0  0
 22 26  1  0  0  0  0
 23 22  1  0  0  0  0
 25 24  1  0  0  0  0
 25 23  1  0  0  0  0
 26 27  1  0  0  0  0
 27 29  1  0  0  0  0
 28 27  2  0  0  0  0
 29 33  2  0  0  0  0
 29 34  1  0  0  0  0
 30 32  1  0  0  0  0
 31 32  2  0  0  0  0
 33 31  1  0  0  0  0
 34 30  2  0  0  0  0
 36 37  1  0  0  0  0
 37 42  1  1  0  0  0
 38 41  1  0  0  0  0
 39 36  1  0  0  0  0
 40 35  1  6  0  0  0
 40 38  1  0  0  0  0
 40 39  1  0  0  0  0
 41 37  1  0  0  0  0
 42 43  1  0  0  0  0
M  END
>  <MODEL>
9

>  <REMARK>
 VINA RESULT:      -8.7      3.322      8.359
  Name = 
  12 active torsions:
  status: ('A' for Active; 'I' for Inactive)
    1  A    between atoms: C_1  and  C_34
    2  A    between atoms: C_1  and  C_35
    3  A    between atoms: C_2  and  C_6
    4  A    between atoms: C_2  and  C_13
    5  A    between atoms: C_3  and  N_4
    6  A    between atoms: C_3  and  C_12
    7  A    between atoms: N_4  and  C_15
    8  A    between atoms: N_4  and  C_22
    9  A    between atoms: C_11  and  C_14
   10  A    between atoms: C_14  and  C_22
   11  A    between atoms: C_15  and  C_42
   12  A    between atoms: C_19  and  O_25
                            x       y       z     vdW  Elec       q    Type
                         _______ _______ _______ _____ _____    ______ ____

>  <TORSDO>
F 12

$$$$
