=
 OpenBabel10262422473D

 37 43  0  0  1  0  0  0  0  0999 V2000
  186.5960  178.1520  138.5170 C   0  0  0  0  0  0  0  0  0  0  0  0
  187.7880  178.0340  142.2600 C   0  0  0  0  0  2  0  0  0  0  0  0
  186.5210  178.1030  136.0550 C   0  0  2  0  0  3  0  0  0  0  0  0
  187.3510  178.4180  139.7710 C   0  0  1  0  0  3  0  0  0  0  0  0
  187.2410  178.1820  137.3700 C   0  0  0  0  0  0  0  0  0  0  0  0
  186.7400  177.9910  141.1700 C   0  0  2  0  0  3  0  0  0  0  0  0
  185.2270  177.2510  136.2130 C   0  0  0  0  0  3  0  0  0  0  0  0
  188.8550  178.7330  137.6030 S   0  0  0  0  0  0  0  0  0  0  0  0
  188.9530  180.2130  137.3940 O   0  0  0  0  0  0  0  0  0  0  0  0
  184.2730  178.2490  139.4130 C   0  0  0  0  0  3  0  0  0  0  0  0
  184.6440  177.1140  137.4240 C   0  0  0  0  0  3  0  0  0  0  0  0
  189.8760  178.0250  136.7790 O   0  0  0  0  0  0  0  0  0  0  0  0
  188.5610  176.7500  142.1090 C   0  0  0  0  0  2  0  0  0  0  0  0
  185.1600  177.8100  138.5740 C   0  0  0  0  0  0  0  0  0  0  0  0
  188.8600  178.3630  139.3610 C   0  0  2  0  0  3  0  0  0  0  0  0
  185.6350  178.9730  141.4930 C   0  0  1  0  0  3  0  0  0  0  0  0
  189.7480  177.2100  141.1390 C   0  0  2  0  0  3  0  0  0  0  0  0
  189.5230  177.0420  139.7480 N   0  0  0  0  0  0  0  0  0  0  0  0
  184.5460  179.0520  140.5780 O   0  0  0  0  0  0  0  0  0  0  0  0
  185.8910  178.9160  144.0890 C   0  0  0  0  0  3  0  0  0  0  0  0
  185.1020  178.9030  142.9170 C   0  0  0  0  0  0  0  0  0  0  0  0
  183.7410  178.8170  142.9960 C   0  0  0  0  0  3  0  0  0  0  0  0
  181.7470  178.7460  144.3930 F   0  0  0  0  0  0  0  0  0  0  0  0
  183.8280  178.8960  145.4310 C   0  0  0  0  0  3  0  0  0  0  0  0
  183.0940  178.7840  144.2360 C   0  0  0  0  0  0  0  0  0  0  0  0
  185.2290  178.9340  145.3370 C   0  0  0  0  0  3  0  0  0  0  0  0
  191.5380  177.9660  142.8110 C   0  0  0  0  0  2  0  0  0  0  0  0
  191.1230  176.9810  141.7610 C   0  0  1  0  0  3  0  0  0  0  0  0
  191.0450  176.6940  143.1000 O   0  0  0  0  0  0  0  0  0  0  0  0
  190.7840  177.0010  139.1580 O   0  0  0  0  0  0  0  0  0  0  0  0
  190.9420  175.9260  138.2780 C   0  0  1  0  0  3  0  0  0  0  0  0
  191.8880  174.0240  137.1540 C   0  0  0  0  0  1  0  0  0  0  0  0
  192.0970  176.2450  137.2760 C   0  0  0  0  0  2  0  0  0  0  0  0
  192.1610  175.0590  138.1800 C   0  0  1  0  0  3  0  0  0  0  0  0
  187.3660  177.6020  134.8860 C   0  0  0  0  0  2  0  0  0  0  0  0
  187.7400  176.1940  134.9950 C   0  0  0  0  0  0  0  0  0  0  0  0
  188.0850  175.0530  135.0910 C   0  0  0  0  0  3  0  0  0  0  0  0
  1 14  1  0  0  0  0
  3 35  1  6  0  0  0
  3  7  1  0  0  0  0
  3  5  1  0  0  0  0
  4  1  1  6  0  0  0
  4  6  1  0  0  0  0
  5  8  1  0  0  0  0
  5  1  2  0  0  0  0
  6 16  1  0  0  0  0
  6  2  1  1  0  0  0
  7 11  2  0  0  0  0
  8 15  1  0  0  0  0
  9  8  2  0  0  0  0
 10 19  1  0  0  0  0
 11 14  1  0  0  0  0
 12  8  2  0  0  0  0
 13  2  1  0  0  0  0
 14 10  2  0  0  0  0
 15 18  1  6  0  0  0
 15  4  1  0  0  0  0
 16 21  1  1  0  0  0
 17 28  1  0  0  0  0
 17 13  1  1  0  0  0
 18 17  1  0  0  0  0
 19 16  1  0  0  0  0
 20 26  1  0  0  0  0
 21 22  1  0  0  0  0
 21 20  2  0  0  0  0
 22 25  2  0  0  0  0
 25 23  1  0  0  0  0
 25 24  1  0  0  0  0
 26 24  2  0  0  0  0
 27 29  1  0  0  0  0
 28 27  1  1  0  0  0
 28 29  1  0  0  0  0
 30 18  1  0  0  0  0
 31 30  1  1  0  0  0
 33 34  1  0  0  0  0
 33 31  1  0  0  0  0
 34 32  1  6  0  0  0
 34 31  1  0  0  0  0
 35 36  1  0  0  0  0
 36 37  3  0  0  0  0
M  END
>  <MODEL>
1

>  <REMARK>
 VINA RESULT:      -8.3      0.000      0.000
  Name = 
  6 active torsions:
  status: ('A' for Active; 'I' for Inactive)
    1  A    between atoms: O_1  and  C_5
    2  A    between atoms: O_1  and  N_36
    3  A    between atoms: C_3  and  C_30
    4  A    between atoms: C_6  and  C_31
    5  A    between atoms: C_9  and  C_30
    6  A    between atoms: C_26  and  C_33
                            x       y       z     vdW  Elec       q    Type
                         _______ _______ _______ _____ _____    ______ ____

>  <TORSDO>
F 6

$$$$
=
 OpenBabel10262422473D

 37 43  0  0  1  0  0  0  0  0999 V2000
  186.4000  178.2590  139.9740 C   0  0  0  0  0  0  0  0  0  0  0  0
  186.7110  176.5490  136.4490 C   0  0  0  0  0  2  0  0  0  0  0  0
  185.5290  179.2620  142.0480 C   0  0  2  0  0  3  0  0  0  0  0  0
  186.2320  177.9590  138.5260 C   0  0  1  0  0  3  0  0  0  0  0  0
  185.3840  178.7680  140.6380 C   0  0  0  0  0  0  0  0  0  0  0  0
  187.2450  176.9840  137.7950 C   0  0  2  0  0  3  0  0  0  0  0  0
  186.6230  178.4360  142.7860 C   0  0  0  0  0  3  0  0  0  0  0  0
  184.0950  179.1530  139.5630 S   0  0  0  0  0  0  0  0  0  0  0  0
  184.1770  180.5800  139.1160 O   0  0  0  0  0  0  0  0  0  0  0  0
  188.8700  177.9870  140.1600 C   0  0  0  0  0  3  0  0  0  0  0  0
  187.5890  177.8030  142.0850 C   0  0  0  0  0  3  0  0  0  0  0  0
  182.7350  178.8520  140.0950 O   0  0  0  0  0  0  0  0  0  0  0  0
  185.7340  175.4440  136.7550 C   0  0  0  0  0  2  0  0  0  0  0  0
  187.6710  177.9390  140.6540 C   0  0  0  0  0  0  0  0  0  0  0  0
  184.6940  178.0700  138.2600 C   0  0  2  0  0  3  0  0  0  0  0  0
  188.5390  177.7450  137.6030 C   0  0  1  0  0  3  0  0  0  0  0  0
  184.3640  176.2620  136.8810 C   0  0  2  0  0  3  0  0  0  0  0  0
  184.0140  176.7030  138.1830 N   0  0  0  0  0  0  0  0  0  0  0  0
  189.1970  178.2160  138.7760 O   0  0  0  0  0  0  0  0  0  0  0  0
  189.6560  177.2980  135.2890 C   0  0  0  0  0  3  0  0  0  0  0  0
  189.5510  177.0810  136.6800 C   0  0  0  0  0  0  0  0  0  0  0  0
  190.3920  176.2130  137.3140 C   0  0  0  0  0  3  0  0  0  0  0  0
  192.3060  174.7110  137.1800 F   0  0  0  0  0  0  0  0  0  0  0  0
  191.6150  175.8100  135.2450 C   0  0  0  0  0  3  0  0  0  0  0  0
  191.4040  175.5510  136.6110 C   0  0  0  0  0  0  0  0  0  0  0  0
  190.7130  176.6670  134.5940 C   0  0  0  0  0  3  0  0  0  0  0  0
  183.0680  176.6630  134.7060 C   0  0  0  0  0  2  0  0  0  0  0  0
  183.3090  175.7770  135.8900 C   0  0  1  0  0  3  0  0  0  0  0  0
  183.8430  175.5050  134.6560 O   0  0  0  0  0  0  0  0  0  0  0  0
  182.6370  176.9060  138.1630 O   0  0  0  0  0  0  0  0  0  0  0  0
  181.9370  175.9920  138.9570 C   0  0  1  0  0  3  0  0  0  0  0  0
  180.3190  174.3620  139.6650 C   0  0  0  0  0  1  0  0  0  0  0  0
  180.5060  176.5490  139.2470 C   0  0  0  0  0  2  0  0  0  0  0  0
  180.7040  175.2480  138.5410 C   0  0  1  0  0  3  0  0  0  0  0  0
  184.2330  179.2980  142.8560 C   0  0  0  0  0  2  0  0  0  0  0  0
  184.4270  179.0660  144.2840 C   0  0  0  0  0  0  0  0  0  0  0  0
  184.5480  178.8580  145.4560 C   0  0  0  0  0  3  0  0  0  0  0  0
  1  5  2  0  0  0  0
  1 14  1  0  0  0  0
  2 13  1  0  0  0  0
  3  7  1  0  0  0  0
  3 35  1  1  0  0  0
  4  1  1  1  0  0  0
  5  3  1  0  0  0  0
  6  2  1  6  0  0  0
  6  4  1  0  0  0  0
  8 12  2  0  0  0  0
  8  5  1  0  0  0  0
  9  8  2  0  0  0  0
 10 14  2  0  0  0  0
 11  7  2  0  0  0  0
 14 11  1  0  0  0  0
 15 18  1  1  0  0  0
 15  4  1  0  0  0  0
 15  8  1  0  0  0  0
 16 21  1  1  0  0  0
 16  6  1  0  0  0  0
 16 19  1  0  0  0  0
 17 13  1  1  0  0  0
 17 18  1  0  0  0  0
 19 10  1  0  0  0  0
 20 21  1  0  0  0  0
 21 22  2  0  0  0  0
 24 25  2  0  0  0  0
 25 23  1  0  0  0  0
 25 22  1  0  0  0  0
 26 24  1  0  0  0  0
 26 20  2  0  0  0  0
 28 27  1  6  0  0  0
 28 17  1  0  0  0  0
 29 27  1  0  0  0  0
 29 28  1  0  0  0  0
 30 18  1  0  0  0  0
 31 30  1  6  0  0  0
 31 33  1  0  0  0  0
 34 31  1  0  0  0  0
 34 33  1  0  0  0  0
 34 32  1  1  0  0  0
 35 36  1  0  0  0  0
 36 37  3  0  0  0  0
M  END
>  <MODEL>
2

>  <REMARK>
 VINA RESULT:      -7.5      3.498      8.445
  Name = 
  6 active torsions:
  status: ('A' for Active; 'I' for Inactive)
    1  A    between atoms: O_1  and  C_5
    2  A    between atoms: O_1  and  N_36
    3  A    between atoms: C_3  and  C_30
    4  A    between atoms: C_6  and  C_31
    5  A    between atoms: C_9  and  C_30
    6  A    between atoms: C_26  and  C_33
                            x       y       z     vdW  Elec       q    Type
                         _______ _______ _______ _____ _____    ______ ____

>  <TORSDO>
F 6

$$$$
=
 OpenBabel10262422473D

 37 43  0  0  1  0  0  0  0  0999 V2000
  190.6170  176.9060  140.1720 C   0  0  0  0  0  0  0  0  0  0  0  0
  187.1690  177.8480  141.8050 C   0  0  0  0  0  2  0  0  0  0  0  0
  192.4200  176.4210  138.5650 C   0  0  2  0  0  3  0  0  0  0  0  0
  189.1670  176.9290  140.5030 C   0  0  1  0  0  3  0  0  0  0  0  0
  190.9820  176.6390  138.9360 C   0  0  0  0  0  0  0  0  0  0  0  0
  188.6670  177.6370  141.8290 C   0  0  2  0  0  3  0  0  0  0  0  0
  193.3390  177.2650  139.4970 C   0  0  0  0  0  3  0  0  0  0  0  0
  189.6180  176.1780  137.9930 S   0  0  0  0  0  0  0  0  0  0  0  0
  189.4500  174.6900  137.9840 O   0  0  0  0  0  0  0  0  0  0  0  0
  191.5590  176.9660  142.4790 C   0  0  0  0  0  3  0  0  0  0  0  0
  192.9040  177.6510  140.7170 C   0  0  0  0  0  3  0  0  0  0  0  0
  189.6200  176.7080  136.6000 O   0  0  0  0  0  0  0  0  0  0  0  0
  186.9620  179.0820  140.9660 C   0  0  0  0  0  2  0  0  0  0  0  0
  191.6180  177.2280  141.2100 C   0  0  0  0  0  0  0  0  0  0  0  0
  188.4310  176.9180  139.1220 C   0  0  2  0  0  3  0  0  0  0  0  0
  189.0300  176.7300  142.9850 C   0  0  1  0  0  3  0  0  0  0  0  0
  186.7570  178.4430  139.5130 C   0  0  2  0  0  3  0  0  0  0  0  0
  187.9250  178.3030  138.7190 N   0  0  0  0  0  0  0  0  0  0  0  0
  190.4120  176.4380  143.1720 O   0  0  0  0  0  0  0  0  0  0  0  0
  187.0120  177.1850  144.5740 C   0  0  0  0  0  3  0  0  0  0  0  0
  188.3990  177.0970  144.3200 C   0  0  0  0  0  0  0  0  0  0  0  0
  189.3050  177.3550  145.3090 C   0  0  0  0  0  3  0  0  0  0  0  0
  189.7220  177.8920  147.6480 F   0  0  0  0  0  0  0  0  0  0  0  0
  187.5160  177.6700  146.9340 C   0  0  0  0  0  3  0  0  0  0  0  0
  188.8840  177.6690  146.6050 C   0  0  0  0  0  0  0  0  0  0  0  0
  186.5930  177.4510  145.8970 C   0  0  0  0  0  3  0  0  0  0  0  0
  184.2010  178.4500  139.6970 C   0  0  0  0  0  2  0  0  0  0  0  0
  185.4120  178.8230  138.8990 C   0  0  1  0  0  3  0  0  0  0  0  0
  184.7330  179.7380  139.6630 O   0  0  0  0  0  0  0  0  0  0  0  0
  187.4850  178.2360  137.3990 O   0  0  0  0  0  0  0  0  0  0  0  0
  186.3960  177.3770  137.2270 C   0  0  1  0  0  3  0  0  0  0  0  0
  185.0590  175.5080  136.5210 C   0  0  0  0  0  1  0  0  0  0  0  0
  185.9540  177.3970  135.7290 C   0  0  0  0  0  2  0  0  0  0  0  0
  186.3960  176.1330  136.3890 C   0  0  1  0  0  3  0  0  0  0  0  0
  192.7530  176.6720  137.0960 C   0  0  0  0  0  2  0  0  0  0  0  0
  193.9420  175.9590  136.6350 C   0  0  0  0  0  0  0  0  0  0  0  0
  194.8940  175.3390  136.2590 C   0  0  0  0  0  3  0  0  0  0  0  0
  1 14  1  0  0  0  0
  3 35  1  6  0  0  0
  3  5  1  0  0  0  0
  3  7  1  0  0  0  0
  4  1  1  6  0  0  0
  4  6  1  0  0  0  0
  5  1  2  0  0  0  0
  6  2  1  6  0  0  0
  6 16  1  0  0  0  0
  7 11  2  0  0  0  0
  8  5  1  0  0  0  0
  8 15  1  0  0  0  0
  9  8  2  0  0  0  0
 10 19  1  0  0  0  0
 11 14  1  0  0  0  0
 12  8  2  0  0  0  0
 13  2  1  0  0  0  0
 14 10  2  0  0  0  0
 15 18  1  6  0  0  0
 15  4  1  0  0  0  0
 16 19  1  0  0  0  0
 16 21  1  1  0  0  0
 17 13  1  1  0  0  0
 18 17  1  0  0  0  0
 20 26  1  0  0  0  0
 21 20  2  0  0  0  0
 21 22  1  0  0  0  0
 22 25  2  0  0  0  0
 25 24  1  0  0  0  0
 25 23  1  0  0  0  0
 26 24  2  0  0  0  0
 28 17  1  0  0  0  0
 28 29  1  0  0  0  0
 28 27  1  1  0  0  0
 29 27  1  0  0  0  0
 30 18  1  0  0  0  0
 31 30  1  6  0  0  0
 33 34  1  0  0  0  0
 33 31  1  0  0  0  0
 34 32  1  1  0  0  0
 34 31  1  0  0  0  0
 36 35  1  0  0  0  0
 37 36  3  0  0  0  0
M  END
>  <MODEL>
3

>  <REMARK>
 VINA RESULT:      -7.5      2.357      5.591
  Name = 
  6 active torsions:
  status: ('A' for Active; 'I' for Inactive)
    1  A    between atoms: O_1  and  C_5
    2  A    between atoms: O_1  and  N_36
    3  A    between atoms: C_3  and  C_30
    4  A    between atoms: C_6  and  C_31
    5  A    between atoms: C_9  and  C_30
    6  A    between atoms: C_26  and  C_33
                            x       y       z     vdW  Elec       q    Type
                         _______ _______ _______ _____ _____    ______ ____

>  <TORSDO>
F 6

$$$$
=
 OpenBabel10262422473D

 37 43  0  0  1  0  0  0  0  0999 V2000
  189.8580  177.2140  139.3940 C   0  0  0  0  0  0  0  0  0  0  0  0
  191.3790  174.8290  136.6650 C   0  0  0  0  0  2  0  0  0  0  0  0
  188.3180  178.5610  140.7670 C   0  0  2  0  0  3  0  0  0  0  0  0
  190.2060  176.6040  138.0830 C   0  0  1  0  0  3  0  0  0  0  0  0
  188.6750  177.7710  139.5410 C   0  0  0  0  0  0  0  0  0  0  0  0
  191.4090  175.5780  137.9790 C   0  0  2  0  0  3  0  0  0  0  0  0
  189.0850  177.9960  141.9980 C   0  0  0  0  0  3  0  0  0  0  0  0
  187.8430  177.8200  138.0340 S   0  0  0  0  0  0  0  0  0  0  0  0
  188.0770  179.1230  137.3330 O   0  0  0  0  0  0  0  0  0  0  0  0
  192.1070  177.1790  140.4670 C   0  0  0  0  0  3  0  0  0  0  0  0
  190.2340  177.3060  141.8300 C   0  0  0  0  0  3  0  0  0  0  0  0
  186.3820  177.5340  138.1240 O   0  0  0  0  0  0  0  0  0  0  0  0
  190.3550  173.7410  136.8590 C   0  0  0  0  0  2  0  0  0  0  0  0
  190.8120  177.1430  140.5200 C   0  0  0  0  0  0  0  0  0  0  0  0
  188.8580  176.5370  137.2910 C   0  0  2  0  0  3  0  0  0  0  0  0
  192.6900  176.3800  138.0730 C   0  0  1  0  0  3  0  0  0  0  0  0
  189.0280  174.4590  136.3250 C   0  0  2  0  0  3  0  0  0  0  0  0
  188.2460  175.1360  137.2960 N   0  0  0  0  0  0  0  0  0  0  0  0
  192.8970  177.1360  139.2620 O   0  0  0  0  0  0  0  0  0  0  0  0
  194.6170  174.6920  138.5660 C   0  0  0  0  0  3  0  0  0  0  0  0
  193.9600  175.6160  137.7240 C   0  0  0  0  0  0  0  0  0  0  0  0
  194.4530  175.9000  136.4830 C   0  0  0  0  0  3  0  0  0  0  0  0
  196.1150  175.4450  134.7610 F   0  0  0  0  0  0  0  0  0  0  0  0
  196.2250  174.2490  136.7570 C   0  0  0  0  0  3  0  0  0  0  0  0
  195.5940  175.2510  135.9980 C   0  0  0  0  0  0  0  0  0  0  0  0
  195.7370  174.0020  138.0510 C   0  0  0  0  0  3  0  0  0  0  0  0
  189.1950  172.5760  134.5940 C   0  0  0  0  0  2  0  0  0  0  0  0
  188.3850  173.6970  135.1690 C   0  0  1  0  0  3  0  0  0  0  0  0
  188.1410  172.3840  135.4860 O   0  0  0  0  0  0  0  0  0  0  0  0
  186.9630  175.2230  136.7630 O   0  0  0  0  0  0  0  0  0  0  0  0
  186.0720  174.3050  137.3280 C   0  0  1  0  0  3  0  0  0  0  0  0
  184.3860  172.6050  137.5440 C   0  0  0  0  0  1  0  0  0  0  0  0
  184.6070  174.7760  137.0620 C   0  0  0  0  0  2  0  0  0  0  0  0
  185.0990  173.4580  136.5630 C   0  0  1  0  0  3  0  0  0  0  0  0
  186.8230  178.6650  141.0550 C   0  0  0  0  0  2  0  0  0  0  0  0
  186.4560  178.2500  142.4060 C   0  0  0  0  0  0  0  0  0  0  0  0
  186.1220  177.8930  143.4980 C   0  0  0  0  0  3  0  0  0  0  0  0
  1  5  2  0  0  0  0
  1 14  1  0  0  0  0
  2 13  1  0  0  0  0
  3 35  1  1  0  0  0
  3  7  1  0  0  0  0
  4  1  1  1  0  0  0
  5  3  1  0  0  0  0
  6  2  1  6  0  0  0
  6 16  1  0  0  0  0
  6  4  1  0  0  0  0
  8 12  2  0  0  0  0
  8  5  1  0  0  0  0
  9  8  2  0  0  0  0
 10 14  2  0  0  0  0
 11  7  2  0  0  0  0
 14 11  1  0  0  0  0
 15 18  1  1  0  0  0
 15  8  1  0  0  0  0
 15  4  1  0  0  0  0
 16 21  1  1  0  0  0
 16 19  1  0  0  0  0
 17 13  1  1  0  0  0
 17 18  1  0  0  0  0
 19 10  1  0  0  0  0
 21 20  2  0  0  0  0
 22 21  1  0  0  0  0
 23 25  1  0  0  0  0
 24 26  2  0  0  0  0
 25 22  2  0  0  0  0
 25 24  1  0  0  0  0
 26 20  1  0  0  0  0
 27 29  1  0  0  0  0
 28 27  1  6  0  0  0
 28 29  1  0  0  0  0
 28 17  1  0  0  0  0
 30 18  1  0  0  0  0
 31 30  1  6  0  0  0
 33 31  1  0  0  0  0
 34 33  1  0  0  0  0
 34 31  1  0  0  0  0
 34 32  1  1  0  0  0
 35 36  1  0  0  0  0
 36 37  3  0  0  0  0
M  END
>  <MODEL>
4

>  <REMARK>
 VINA RESULT:      -7.5      3.843      8.460
  Name = 
  6 active torsions:
  status: ('A' for Active; 'I' for Inactive)
    1  A    between atoms: O_1  and  C_5
    2  A    between atoms: O_1  and  N_36
    3  A    between atoms: C_3  and  C_30
    4  A    between atoms: C_6  and  C_31
    5  A    between atoms: C_9  and  C_30
    6  A    between atoms: C_26  and  C_33
                            x       y       z     vdW  Elec       q    Type
                         _______ _______ _______ _____ _____    ______ ____

>  <TORSDO>
F 6

$$$$
=
 OpenBabel10262422473D

 37 43  0  0  1  0  0  0  0  0999 V2000
  182.8920  178.6330  140.9820 C   0  0  0  0  0  0  0  0  0  0  0  0
  183.9940  176.8950  137.6340 C   0  0  0  0  0  2  0  0  0  0  0  0
  181.5850  179.4620  142.8990 C   0  0  2  0  0  3  0  0  0  0  0  0
  182.9520  178.2230  139.5530 C   0  0  1  0  0  3  0  0  0  0  0  0
  181.7170  178.8730  141.5240 C   0  0  0  0  0  0  0  0  0  0  0  0
  184.2570  177.5310  138.9800 C   0  0  2  0  0  3  0  0  0  0  0  0
  182.7880  179.0140  143.7810 C   0  0  0  0  0  3  0  0  0  0  0  0
  180.4810  178.8260  140.3260 S   0  0  0  0  0  0  0  0  0  0  0  0
  180.2120  180.1930  139.7780 O   0  0  0  0  0  0  0  0  0  0  0  0
  185.3130  179.0710  141.3790 C   0  0  0  0  0  3  0  0  0  0  0  0
  183.9520  178.6390  143.2080 C   0  0  0  0  0  3  0  0  0  0  0  0
  179.2100  178.1870  140.7730 O   0  0  0  0  0  0  0  0  0  0  0  0
  183.3310  175.5780  137.9480 C   0  0  0  0  0  2  0  0  0  0  0  0
  184.1310  178.7170  141.7810 C   0  0  0  0  0  0  0  0  0  0  0  0
  181.4750  177.8860  139.1610 C   0  0  2  0  0  3  0  0  0  0  0  0
  185.3070  178.6120  138.8300 C   0  0  1  0  0  3  0  0  0  0  0  0
  181.7840  175.9880  137.9050 C   0  0  2  0  0  3  0  0  0  0  0  0
  181.2050  176.3820  139.1380 N   0  0  0  0  0  0  0  0  0  0  0  0
  185.6960  179.3090  140.0110 O   0  0  0  0  0  0  0  0  0  0  0  0
  186.6710  178.2510  136.6370 C   0  0  0  0  0  3  0  0  0  0  0  0
  186.5450  178.2090  138.0430 C   0  0  0  0  0  0  0  0  0  0  0  0
  187.5800  177.7760  138.8210 C   0  0  0  0  0  3  0  0  0  0  0  0
  189.8890  177.0120  138.9600 F   0  0  0  0  0  0  0  0  0  0  0  0
  189.0120  177.5260  136.8640 C   0  0  0  0  0  3  0  0  0  0  0  0
  188.8020  177.4060  138.2500 C   0  0  0  0  0  0  0  0  0  0  0  0
  187.9240  177.9260  136.0700 C   0  0  0  0  0  3  0  0  0  0  0  0
  180.7050  175.8730  135.5820 C   0  0  0  0  0  2  0  0  0  0  0  0
  181.0010  175.1760  136.8750 C   0  0  1  0  0  3  0  0  0  0  0  0
  181.7310  174.9410  135.7370 O   0  0  0  0  0  0  0  0  0  0  0  0
  179.8330  176.1910  138.9950 O   0  0  0  0  0  0  0  0  0  0  0  0
  179.2750  175.4320  140.0290 C   0  0  1  0  0  3  0  0  0  0  0  0
  178.9890  173.7440  141.7160 C   0  0  0  0  0  1  0  0  0  0  0  0
  178.9390  174.0020  139.4970 C   0  0  0  0  0  2  0  0  0  0  0  0
  179.8880  174.2040  140.6310 C   0  0  1  0  0  3  0  0  0  0  0  0
  180.2580  179.1770  143.5990 C   0  0  0  0  0  2  0  0  0  0  0  0
  180.1580  177.8240  144.1360 C   0  0  0  0  0  0  0  0  0  0  0  0
  180.0520  176.7290  144.6070 C   0  0  0  0  0  3  0  0  0  0  0  0
  1  5  2  0  0  0  0
  1 14  1  0  0  0  0
  2 13  1  0  0  0  0
  3 35  1  1  0  0  0
  3  7  1  0  0  0  0
  4  1  1  1  0  0  0
  5  3  1  0  0  0  0
  6  2  1  6  0  0  0
  6  4  1  0  0  0  0
  8 12  2  0  0  0  0
  8  5  1  0  0  0  0
  9  8  2  0  0  0  0
 10 14  2  0  0  0  0
 11  7  2  0  0  0  0
 14 11  1  0  0  0  0
 15 18  1  1  0  0  0
 15  4  1  0  0  0  0
 15  8  1  0  0  0  0
 16 21  1  1  0  0  0
 16  6  1  0  0  0  0
 16 19  1  0  0  0  0
 17 13  1  1  0  0  0
 17 18  1  0  0  0  0
 19 10  1  0  0  0  0
 20 21  1  0  0  0  0
 21 22  2  0  0  0  0
 24 25  2  0  0  0  0
 25 22  1  0  0  0  0
 25 23  1  0  0  0  0
 26 20  2  0  0  0  0
 26 24  1  0  0  0  0
 27 29  1  0  0  0  0
 28 27  1  6  0  0  0
 28 17  1  0  0  0  0
 29 28  1  0  0  0  0
 30 18  1  0  0  0  0
 31 30  1  6  0  0  0
 31 34  1  0  0  0  0
 33 31  1  0  0  0  0
 33 34  1  0  0  0  0
 34 32  1  1  0  0  0
 35 36  1  0  0  0  0
 36 37  3  0  0  0  0
M  END
>  <MODEL>
5

>  <REMARK>
 VINA RESULT:      -7.1      4.246      9.037
  Name = 
  6 active torsions:
  status: ('A' for Active; 'I' for Inactive)
    1  A    between atoms: O_1  and  C_5
    2  A    between atoms: O_1  and  N_36
    3  A    between atoms: C_3  and  C_30
    4  A    between atoms: C_6  and  C_31
    5  A    between atoms: C_9  and  C_30
    6  A    between atoms: C_26  and  C_33
                            x       y       z     vdW  Elec       q    Type
                         _______ _______ _______ _____ _____    ______ ____

>  <TORSDO>
F 6

$$$$
=
 OpenBabel10262422473D

 37 43  0  0  1  0  0  0  0  0999 V2000
  188.9670  178.0790  142.1830 C   0  0  0  0  0  0  0  0  0  0  0  0
  186.3620  178.0280  145.1240 C   0  0  0  0  0  2  0  0  0  0  0  0
  191.0440  177.9950  140.8590 C   0  0  2  0  0  3  0  0  0  0  0  0
  188.2780  178.3720  143.4680 C   0  0  1  0  0  3  0  0  0  0  0  0
  190.2830  178.1020  142.1490 C   0  0  0  0  0  0  0  0  0  0  0  0
  186.7620  177.9560  143.6680 C   0  0  2  0  0  3  0  0  0  0  0  0
  190.2410  177.1280  139.8450 C   0  0  0  0  0  3  0  0  0  0  0  0
  190.9120  178.6790  143.6440 S   0  0  0  0  0  0  0  0  0  0  0  0
  191.1480  180.1570  143.5940 O   0  0  0  0  0  0  0  0  0  0  0  0
  187.0080  178.1560  140.6440 C   0  0  0  0  0  3  0  0  0  0  0  0
  188.9010  176.9990  139.9660 C   0  0  0  0  0  3  0  0  0  0  0  0
  192.1390  177.9730  144.1120 O   0  0  0  0  0  0  0  0  0  0  0  0
  186.8820  176.7530  145.7350 C   0  0  0  0  0  2  0  0  0  0  0  0
  188.1810  177.7180  140.9850 C   0  0  0  0  0  0  0  0  0  0  0  0
  189.4020  178.3330  144.5550 C   0  0  2  0  0  3  0  0  0  0  0  0
  185.9220  178.9270  142.8650 C   0  0  1  0  0  3  0  0  0  0  0  0
  188.3250  177.2160  146.2490 C   0  0  2  0  0  3  0  0  0  0  0  0
  189.4030  177.0260  145.3480 N   0  0  0  0  0  0  0  0  0  0  0  0
  186.1510  178.9780  141.4600 O   0  0  0  0  0  0  0  0  0  0  0  0
  183.8180  179.0000  144.4060 C   0  0  0  0  0  3  0  0  0  0  0  0
  184.4260  178.8690  143.1380 C   0  0  0  0  0  0  0  0  0  0  0  0
  183.6670  178.6660  142.0210 C   0  0  0  0  0  3  0  0  0  0  0  0
  181.4500  178.4760  141.0290 F   0  0  0  0  0  0  0  0  0  0  0  0
  181.6140  178.8530  143.3220 C   0  0  0  0  0  3  0  0  0  0  0  0
  182.2710  178.6270  142.0990 C   0  0  0  0  0  0  0  0  0  0  0  0
  182.4070  179.0120  144.4710 C   0  0  0  0  0  3  0  0  0  0  0  0
  188.7650  178.2530  148.5530 C   0  0  0  0  0  2  0  0  0  0  0  0
  188.4940  177.0150  147.7530 C   0  0  1  0  0  3  0  0  0  0  0  0
  187.5120  177.6460  148.4750 O   0  0  0  0  0  0  0  0  0  0  0  0
  190.5560  176.9950  146.1290 O   0  0  0  0  0  0  0  0  0  0  0  0
  191.5340  176.1320  145.6270 C   0  0  1  0  0  3  0  0  0  0  0  0
  192.7990  174.1370  145.1800 C   0  0  0  0  0  1  0  0  0  0  0  0
  192.4300  175.6270  146.8030 C   0  0  0  0  0  2  0  0  0  0  0  0
  191.6550  174.6740  145.9560 C   0  0  1  0  0  3  0  0  0  0  0  0
  192.4780  177.4900  140.9950 C   0  0  0  0  0  2  0  0  0  0  0  0
  193.0850  177.1020  139.7250 C   0  0  0  0  0  0  0  0  0  0  0  0
  193.5550  176.7530  138.6820 C   0  0  0  0  0  3  0  0  0  0  0  0
  2 13  1  0  0  0  0
  3 35  1  1  0  0  0
  3  5  1  0  0  0  0
  4  1  1  6  0  0  0
  4  6  1  0  0  0  0
  4 15  1  0  0  0  0
  5  1  2  0  0  0  0
  5  8  1  0  0  0  0
  6  2  1  1  0  0  0
  7 11  2  0  0  0  0
  7  3  1  0  0  0  0
  8 12  2  0  0  0  0
  8 15  1  0  0  0  0
  9  8  2  0  0  0  0
 10 14  2  0  0  0  0
 10 19  1  0  0  0  0
 11 14  1  0  0  0  0
 14  1  1  0  0  0  0
 15 18  1  6  0  0  0
 16 21  1  6  0  0  0
 16  6  1  0  0  0  0
 17 13  1  6  0  0  0
 17 28  1  0  0  0  0
 18 30  1  0  0  0  0
 18 17  1  0  0  0  0
 19 16  1  0  0  0  0
 20 26  1  0  0  0  0
 21 20  2  0  0  0  0
 22 25  2  0  0  0  0
 22 21  1  0  0  0  0
 23 25  1  0  0  0  0
 24 26  2  0  0  0  0
 25 24  1  0  0  0  0
 28 29  1  0  0  0  0
 28 27  1  1  0  0  0
 29 27  1  0  0  0  0
 31 34  1  0  0  0  0
 31 30  1  1  0  0  0
 31 33  1  0  0  0  0
 34 32  1  6  0  0  0
 34 33  1  0  0  0  0
 36 35  1  0  0  0  0
 37 36  3  0  0  0  0
M  END
>  <MODEL>
6

>  <REMARK>
 VINA RESULT:      -6.8      3.305      5.481
  Name = 
  6 active torsions:
  status: ('A' for Active; 'I' for Inactive)
    1  A    between atoms: O_1  and  C_5
    2  A    between atoms: O_1  and  N_36
    3  A    between atoms: C_3  and  C_30
    4  A    between atoms: C_6  and  C_31
    5  A    between atoms: C_9  and  C_30
    6  A    between atoms: C_26  and  C_33
                            x       y       z     vdW  Elec       q    Type
                         _______ _______ _______ _____ _____    ______ ____

>  <TORSDO>
F 6

$$$$
=
 OpenBabel10262422473D

 37 43  0  0  1  0  0  0  0  0999 V2000
  184.9590  177.9740  140.4000 C   0  0  0  0  0  0  0  0  0  0  0  0
  183.5430  178.6290  144.0080 C   0  0  0  0  0  2  0  0  0  0  0  0
  185.1780  177.6360  137.9690 C   0  0  2  0  0  3  0  0  0  0  0  0
  184.1410  177.8760  141.6390 C   0  0  1  0  0  3  0  0  0  0  0  0
  184.3850  177.7340  139.2400 C   0  0  0  0  0  0  0  0  0  0  0  0
  184.6510  178.5450  142.9810 C   0  0  2  0  0  3  0  0  0  0  0  0
  186.4290  178.5600  138.0580 C   0  0  0  0  0  3  0  0  0  0  0  0
  182.7800  177.1550  139.4720 S   0  0  0  0  0  0  0  0  0  0  0  0
  182.7480  175.6580  139.4990 O   0  0  0  0  0  0  0  0  0  0  0  0
  187.2270  178.1240  141.4220 C   0  0  0  0  0  3  0  0  0  0  0  0
  186.9340  178.9120  139.2600 C   0  0  0  0  0  3  0  0  0  0  0  0
  181.7850  177.6780  138.4930 O   0  0  0  0  0  0  0  0  0  0  0  0
  182.7350  179.8370  143.6120 C   0  0  0  0  0  2  0  0  0  0  0  0
  186.3760  178.3840  140.4780 C   0  0  0  0  0  0  0  0  0  0  0  0
  182.6580  177.7980  141.1470 C   0  0  2  0  0  3  0  0  0  0  0  0
  185.7700  177.6770  143.5170 C   0  0  1  0  0  3  0  0  0  0  0  0
  181.6250  179.1760  142.6660 C   0  0  2  0  0  3  0  0  0  0  0  0
  181.9260  179.1330  141.2810 N   0  0  0  0  0  0  0  0  0  0  0  0
  186.9130  177.5040  142.6850 O   0  0  0  0  0  0  0  0  0  0  0  0
  185.5560  178.8770  145.8230 C   0  0  0  0  0  3  0  0  0  0  0  0
  186.2150  177.9960  144.9370 C   0  0  0  0  0  0  0  0  0  0  0  0
  187.3530  177.3460  145.3200 C   0  0  0  0  0  3  0  0  0  0  0  0
  188.9670  176.8550  147.0780 F   0  0  0  0  0  0  0  0  0  0  0  0
  187.1960  178.2890  147.5620 C   0  0  0  0  0  3  0  0  0  0  0  0
  187.8700  177.5020  146.6100 C   0  0  0  0  0  0  0  0  0  0  0  0
  186.0530  178.9900  147.1410 C   0  0  0  0  0  3  0  0  0  0  0  0
  179.4820  178.2530  143.7280 C   0  0  0  0  0  2  0  0  0  0  0  0
  180.2080  179.4390  143.1700 C   0  0  1  0  0  3  0  0  0  0  0  0
  180.0890  179.2260  144.5210 O   0  0  0  0  0  0  0  0  0  0  0  0
  180.7020  179.0230  140.6260 O   0  0  0  0  0  0  0  0  0  0  0  0
  180.4150  180.1250  139.8150 C   0  0  1  0  0  3  0  0  0  0  0  0
  179.4620  182.1870  139.0280 C   0  0  0  0  0  1  0  0  0  0  0  0
  178.9310  180.0380  139.3330 C   0  0  0  0  0  2  0  0  0  0  0  0
  179.4190  181.2000  140.1330 C   0  0  1  0  0  3  0  0  0  0  0  0
  184.3870  177.9080  136.6920 C   0  0  0  0  0  2  0  0  0  0  0  0
  184.0820  176.7040  135.9250 C   0  0  0  0  0  0  0  0  0  0  0  0
  183.8730  175.7100  135.2930 C   0  0  0  0  0  3  0  0  0  0  0  0
  1 14  1  0  0  0  0
  3 35  1  6  0  0  0
  3  7  1  0  0  0  0
  3  5  1  0  0  0  0
  4  1  1  6  0  0  0
  4  6  1  0  0  0  0
  5  8  1  0  0  0  0
  5  1  2  0  0  0  0
  6 16  1  0  0  0  0
  6  2  1  1  0  0  0
  7 11  2  0  0  0  0
  8  9  2  0  0  0  0
  8 15  1  0  0  0  0
 10 19  1  0  0  0  0
 11 14  1  0  0  0  0
 12  8  2  0  0  0  0
 13  2  1  0  0  0  0
 14 10  2  0  0  0  0
 15 18  1  6  0  0  0
 15  4  1  0  0  0  0
 16 21  1  1  0  0  0
 17 28  1  0  0  0  0
 17 13  1  1  0  0  0
 18 17  1  0  0  0  0
 19 16  1  0  0  0  0
 20 26  1  0  0  0  0
 21 22  1  0  0  0  0
 21 20  2  0  0  0  0
 22 25  2  0  0  0  0
 25 23  1  0  0  0  0
 25 24  1  0  0  0  0
 26 24  2  0  0  0  0
 27 29  1  0  0  0  0
 28 27  1  6  0  0  0
 28 29  1  0  0  0  0
 30 18  1  0  0  0  0
 31 34  1  0  0  0  0
 31 30  1  1  0  0  0
 33 31  1  0  0  0  0
 33 34  1  0  0  0  0
 34 32  1  6  0  0  0
 36 35  1  0  0  0  0
 37 36  3  0  0  0  0
M  END
>  <MODEL>
7

>  <REMARK>
 VINA RESULT:      -6.6      3.978      7.298
  Name = 
  6 active torsions:
  status: ('A' for Active; 'I' for Inactive)
    1  A    between atoms: O_1  and  C_5
    2  A    between atoms: O_1  and  N_36
    3  A    between atoms: C_3  and  C_30
    4  A    between atoms: C_6  and  C_31
    5  A    between atoms: C_9  and  C_30
    6  A    between atoms: C_26  and  C_33
                            x       y       z     vdW  Elec       q    Type
                         _______ _______ _______ _____ _____    ______ ____

>  <TORSDO>
F 6

$$$$
=
 OpenBabel10262422473D

 37 43  0  0  1  0  0  0  0  0999 V2000
  186.7520  178.0310  142.4080 C   0  0  0  0  0  0  0  0  0  0  0  0
  185.7680  178.3420  138.6160 C   0  0  0  0  0  2  0  0  0  0  0  0
  186.7030  178.0100  144.8710 C   0  0  2  0  0  3  0  0  0  0  0  0
  186.2280  178.5620  141.1210 C   0  0  1  0  0  3  0  0  0  0  0  0
  186.1350  178.3540  143.5250 C   0  0  0  0  0  0  0  0  0  0  0  0
  186.6570  177.8880  139.7520 C   0  0  2  0  0  3  0  0  0  0  0  0
  187.5250  176.6910  144.7730 C   0  0  0  0  0  3  0  0  0  0  0  0
  184.9120  179.5260  143.2190 S   0  0  0  0  0  0  0  0  0  0  0  0
  185.4360  180.9150  143.4170 O   0  0  0  0  0  0  0  0  0  0  0  0
  188.9350  177.1260  141.6160 C   0  0  0  0  0  3  0  0  0  0  0  0
  188.0440  176.2950  143.5900 C   0  0  0  0  0  3  0  0  0  0  0  0
  183.6560  179.3290  143.9990 O   0  0  0  0  0  0  0  0  0  0  0  0
  184.5210  177.5040  138.7370 C   0  0  0  0  0  2  0  0  0  0  0  0
  187.9130  177.1180  142.4160 C   0  0  0  0  0  0  0  0  0  0  0  0
  184.8210  179.1540  141.4630 C   0  0  2  0  0  3  0  0  0  0  0  0
  188.0840  178.3090  139.4740 C   0  0  1  0  0  3  0  0  0  0  0  0
  183.6000  178.4400  139.6520 C   0  0  2  0  0  3  0  0  0  0  0  0
  183.6800  178.2240  141.0520 N   0  0  0  0  0  0  0  0  0  0  0  0
  189.0690  177.9440  140.4370 O   0  0  0  0  0  0  0  0  0  0  0  0
  188.8770  178.9420  137.0710 C   0  0  0  0  0  3  0  0  0  0  0  0
  188.5940  177.9900  138.0760 C   0  0  0  0  0  0  0  0  0  0  0  0
  188.7640  176.6570  137.8390 C   0  0  0  0  0  3  0  0  0  0  0  0
  189.5030  174.9000  136.3210 F   0  0  0  0  0  0  0  0  0  0  0  0
  189.6560  177.1150  135.6170 C   0  0  0  0  0  3  0  0  0  0  0  0
  189.2630  176.2030  136.6130 C   0  0  0  0  0  0  0  0  0  0  0  0
  189.4300  178.4820  135.8550 C   0  0  0  0  0  3  0  0  0  0  0  0
  182.1940  180.1760  138.3940 C   0  0  0  0  0  2  0  0  0  0  0  0
  182.2820  178.7960  138.9700 C   0  0  1  0  0  3  0  0  0  0  0  0
  182.4400  179.0370  137.6280 O   0  0  0  0  0  0  0  0  0  0  0  0
  182.4970  178.7280  141.5850 O   0  0  0  0  0  0  0  0  0  0  0  0
  181.4640  177.7870  141.6150 C   0  0  1  0  0  3  0  0  0  0  0  0
  179.3050  176.7650  141.3430 C   0  0  0  0  0  1  0  0  0  0  0  0
  180.3690  178.2520  142.6280 C   0  0  0  0  0  2  0  0  0  0  0  0
  180.0500  178.0370  141.1850 C   0  0  1  0  0  3  0  0  0  0  0  0
  185.6820  177.9340  146.0030 C   0  0  0  0  0  2  0  0  0  0  0  0
  185.8680  178.9560  147.0300 C   0  0  0  0  0  0  0  0  0  0  0  0
  186.0610  179.7970  147.8580 C   0  0  0  0  0  3  0  0  0  0  0  0
  1 14  1  0  0  0  0
  1  5  2  0  0  0  0
  2 13  1  0  0  0  0
  3 35  1  1  0  0  0
  4 15  1  0  0  0  0
  4  1  1  1  0  0  0
  5  3  1  0  0  0  0
  6  2  1  6  0  0  0
  6  4  1  0  0  0  0
  7  3  1  0  0  0  0
  8  9  2  0  0  0  0
  8  5  1  0  0  0  0
  8 12  2  0  0  0  0
 10 14  2  0  0  0  0
 11  7  2  0  0  0  0
 14 11  1  0  0  0  0
 15 18  1  1  0  0  0
 15  8  1  0  0  0  0
 16 21  1  6  0  0  0
 16  6  1  0  0  0  0
 16 19  1  0  0  0  0
 17 13  1  6  0  0  0
 17 18  1  0  0  0  0
 18 30  1  0  0  0  0
 19 10  1  0  0  0  0
 20 21  1  0  0  0  0
 22 21  2  0  0  0  0
 23 25  1  0  0  0  0
 24 26  1  0  0  0  0
 24 25  2  0  0  0  0
 25 22  1  0  0  0  0
 26 20  2  0  0  0  0
 28 27  1  1  0  0  0
 28 17  1  0  0  0  0
 29 27  1  0  0  0  0
 29 28  1  0  0  0  0
 31 30  1  6  0  0  0
 31 33  1  0  0  0  0
 34 32  1  1  0  0  0
 34 31  1  0  0  0  0
 34 33  1  0  0  0  0
 35 36  1  0  0  0  0
 36 37  3  0  0  0  0
M  END
>  <MODEL>
8

>  <REMARK>
 VINA RESULT:      -6.5      3.324      8.703
  Name = 
  6 active torsions:
  status: ('A' for Active; 'I' for Inactive)
    1  A    between atoms: O_1  and  C_5
    2  A    between atoms: O_1  and  N_36
    3  A    between atoms: C_3  and  C_30
    4  A    between atoms: C_6  and  C_31
    5  A    between atoms: C_9  and  C_30
    6  A    between atoms: C_26  and  C_33
                            x       y       z     vdW  Elec       q    Type
                         _______ _______ _______ _____ _____    ______ ____

>  <TORSDO>
F 6

$$$$
=
 OpenBabel10262422473D

 37 43  0  0  1  0  0  0  0  0999 V2000
  188.4600  177.3310  144.1830 C   0  0  0  0  0  0  0  0  0  0  0  0
  186.5140  178.2790  140.9020 C   0  0  0  0  0  2  0  0  0  0  0  0
  190.2110  176.6960  145.7950 C   0  0  2  0  0  3  0  0  0  0  0  0
  187.9200  177.2960  142.7970 C   0  0  1  0  0  3  0  0  0  0  0  0
  189.6690  176.8600  144.4050 C   0  0  0  0  0  0  0  0  0  0  0  0
  186.6840  178.2050  142.4040 C   0  0  2  0  0  3  0  0  0  0  0  0
  189.6000  177.7810  146.7300 C   0  0  0  0  0  3  0  0  0  0  0  0
  190.2920  176.1090  142.9860 S   0  0  0  0  0  0  0  0  0  0  0  0
  190.0050  174.6390  142.9860 O   0  0  0  0  0  0  0  0  0  0  0  0
  186.3760  177.9210  145.4150 C   0  0  0  0  0  3  0  0  0  0  0  0
  188.4180  178.3600  146.4230 C   0  0  0  0  0  3  0  0  0  0  0  0
  191.7420  176.3560  142.7410 O   0  0  0  0  0  0  0  0  0  0  0  0
  187.5210  179.3030  140.4460 C   0  0  0  0  0  2  0  0  0  0  0  0
  187.6650  177.9330  145.2720 C   0  0  0  0  0  0  0  0  0  0  0  0
  189.1470  176.9530  141.8870 C   0  0  2  0  0  3  0  0  0  0  0  0
  185.4520  177.5750  143.0190 C   0  0  1  0  0  3  0  0  0  0  0  0
  188.7850  178.3770  140.1210 C   0  0  2  0  0  3  0  0  0  0  0  0
  189.7110  178.1840  141.1790 N   0  0  0  0  0  0  0  0  0  0  0  0
  185.4300  177.4440  144.4380 O   0  0  0  0  0  0  0  0  0  0  0  0
  183.7310  178.2720  141.1870 C   0  0  0  0  0  3  0  0  0  0  0  0
  184.1240  178.1420  142.5370 C   0  0  0  0  0  0  0  0  0  0  0  0
  183.2950  178.5420  143.5450 C   0  0  0  0  0  3  0  0  0  0  0  0
  181.1240  179.4230  144.2140 F   0  0  0  0  0  0  0  0  0  0  0  0
  181.5430  179.1050  141.9450 C   0  0  0  0  0  3  0  0  0  0  0  0
  182.0210  179.0490  143.2670 C   0  0  0  0  0  0  0  0  0  0  0  0
  182.4250  178.7350  140.9150 C   0  0  0  0  0  3  0  0  0  0  0  0
  188.3220  177.9440  137.6370 C   0  0  0  0  0  2  0  0  0  0  0  0
  189.2430  178.5150  138.6710 C   0  0  1  0  0  3  0  0  0  0  0  0
  188.3980  179.3040  137.9320 O   0  0  0  0  0  0  0  0  0  0  0  0
  190.9130  177.8240  140.5750 O   0  0  0  0  0  0  0  0  0  0  0  0
  190.7380  177.0550  139.4210 C   0  0  1  0  0  3  0  0  0  0  0  0
  190.8350  175.2220  137.8690 C   0  0  0  0  0  1  0  0  0  0  0  0
  192.1240  176.8290  138.7360 C   0  0  0  0  0  2  0  0  0  0  0  0
  191.2930  175.6800  139.2030 C   0  0  1  0  0  3  0  0  0  0  0  0
  191.7350  176.6820  145.8960 C   0  0  0  0  0  2  0  0  0  0  0  0
  192.2350  176.0540  147.1160 C   0  0  0  0  0  0  0  0  0  0  0  0
  192.6710  175.5710  148.1200 C   0  0  0  0  0  3  0  0  0  0  0  0
  1  5  2  0  0  0  0
  1 14  1  0  0  0  0
  3 35  1  6  0  0  0
  3  7  1  0  0  0  0
  4  1  1  1  0  0  0
  5  3  1  0  0  0  0
  6  2  1  6  0  0  0
  6  4  1  0  0  0  0
  6 16  1  0  0  0  0
  8  5  1  0  0  0  0
  9  8  2  0  0  0  0
 11  7  2  0  0  0  0
 12  8  2  0  0  0  0
 13  2  1  0  0  0  0
 14 10  2  0  0  0  0
 14 11  1  0  0  0  0
 15 18  1  1  0  0  0
 15  4  1  0  0  0  0
 15  8  1  0  0  0  0
 16 21  1  1  0  0  0
 16 19  1  0  0  0  0
 17 13  1  1  0  0  0
 17 18  1  0  0  0  0
 19 10  1  0  0  0  0
 20 21  1  0  0  0  0
 21 22  2  0  0  0  0
 24 25  2  0  0  0  0
 25 22  1  0  0  0  0
 25 23  1  0  0  0  0
 26 20  2  0  0  0  0
 26 24  1  0  0  0  0
 27 29  1  0  0  0  0
 28 27  1  6  0  0  0
 28 17  1  0  0  0  0
 29 28  1  0  0  0  0
 30 18  1  0  0  0  0
 31 30  1  1  0  0  0
 33 34  1  0  0  0  0
 33 31  1  0  0  0  0
 34 32  1  6  0  0  0
 34 31  1  0  0  0  0
 35 36  1  0  0  0  0
 36 37  3  0  0  0  0
M  END
>  <MODEL>
9

>  <REMARK>
 VINA RESULT:      -6.5      2.525      6.148
  Name = 
  6 active torsions:
  status: ('A' for Active; 'I' for Inactive)
    1  A    between atoms: O_1  and  C_5
    2  A    between atoms: O_1  and  N_36
    3  A    between atoms: C_3  and  C_30
    4  A    between atoms: C_6  and  C_31
    5  A    between atoms: C_9  and  C_30
    6  A    between atoms: C_26  and  C_33
                            x       y       z     vdW  Elec       q    Type
                         _______ _______ _______ _____ _____    ______ ____

>  <TORSDO>
F 6

$$$$
