=
 OpenBabel10262421443D

 30 33  0  0  1  0  0  0  0  0999 V2000
  181.8220  175.7180  139.7160 C   0  0  0  0  0  2  0  0  0  0  0  0
  181.3400  177.0680  139.2030 C   0  0  1  0  0  0  0  0  0  0  0  0
  180.2150  180.6100  139.1550 C   0  0  0  0  0  2  0  0  0  0  0  0
  182.1410  179.2040  138.1350 C   0  0  0  0  0  2  0  0  0  0  0  0
  179.5310  177.4290  141.0550 C   0  0  0  0  0  2  0  0  0  0  0  0
  182.3290  178.2580  139.3190 C   0  0  2  0  0  3  0  0  0  0  0  0
  180.0740  178.6920  141.7110 C   0  0  0  0  0  2  0  0  0  0  0  0
  180.2780  180.8430  140.5890 N   0  0  0  0  0  2  0  0  0  0  0  0
  181.6030  175.9070  138.2180 C   0  0  2  0  0  0  0  0  0  0  0  0
  179.0840  177.6260  138.7560 O   0  0  0  0  0  0  0  0  0  0  0  0
  179.9170  177.3580  139.6080 C   0  0  0  0  0  0  0  0  0  0  0  0
  179.3370  179.9260  141.2120 C   0  0  0  0  0  2  0  0  0  0  0  0
  182.2830  181.5240  138.5020 O   0  0  0  0  0  0  0  0  0  0  0  0
  181.5970  180.5190  138.5950 C   0  0  0  0  0  0  0  0  0  0  0  0
  179.5950  172.8650  137.3500 C   0  0  1  0  0  3  0  0  0  0  0  0
  180.1110  173.8670  138.3630 C   0  0  1  0  0  3  0  0  0  0  0  0
  180.6470  173.8820  136.9560 C   0  0  2  0  0  3  0  0  0  0  0  0
  180.2030  171.6300  137.5680 O   0  0  0  0  0  1  0  0  0  0  0  0
  180.3460  175.1970  137.6620 C   0  0  2  0  0  3  0  0  0  0  0  0
  184.1270  178.0770  140.9350 O   0  0  0  0  0  1  0  0  0  0  0  0
  183.8140  177.9220  139.5820 C   0  0  2  0  0  3  0  0  0  0  0  0
  184.7810  178.7550  138.7320 C   0  0  0  0  0  2  0  0  0  0  0  0
  186.5590  178.4510  137.0040 C   0  0  0  0  0  1  0  0  0  0  0  0
  187.1220  178.3010  139.3970 C   0  0  0  0  0  1  0  0  0  0  0  0
  186.0570  178.0050  138.3640 C   0  0  0  0  0  3  0  0  0  0  0  0
  182.9030  175.9920  137.3930 C   0  0  2  0  0  3  0  0  0  0  0  0
  182.6150  176.1350  136.0320 O   0  0  0  0  0  0  0  0  0  0  0  0
  183.6200  176.9650  135.5300 C   0  0  0  0  0  1  0  0  0  0  0  0
  183.7560  174.8130  137.6100 C   0  0  0  0  0  0  0  0  0  0  0  0
  184.4280  173.8860  137.7810 N   0  0  0  0  0  0  0  0  0  0  0  0
  2  6  1  0  0  0  0
  2 11  1  0  0  0  0
  2  1  1  1  0  0  0
  3  8  1  0  0  0  0
  4 14  1  0  0  0  0
  4  6  1  0  0  0  0
  5  7  1  0  0  0  0
  6 21  1  6  0  0  0
  8 12  1  0  0  0  0
  9 26  1  6  0  0  0
  9  2  1  0  0  0  0
  9  1  1  0  0  0  0
 10 11  2  0  0  0  0
 11  5  1  0  0  0  0
 12  7  1  0  0  0  0
 13 14  2  0  0  0  0
 14  3  1  0  0  0  0
 15 18  1  0  0  0  0
 15 16  1  0  0  0  0
 17 15  1  0  0  0  0
 17 19  1  0  0  0  0
 17 16  1  0  0  0  0
 19  9  1  0  0  0  0
 19 16  1  0  0  0  0
 21 20  1  0  0  0  0
 22 21  1  0  0  0  0
 23 25  1  0  0  0  0
 25 22  1  0  0  0  0
 25 24  1  0  0  0  0
 26 29  1  0  0  0  0
 27 26  1  0  0  0  0
 28 27  1  0  0  0  0
 29 30  3  0  0  0  0
M  END
>  <MODEL>
1

>  <REMARK>
 VINA RESULT:      -4.2      0.000      0.000
  Name = 
  7 active torsions:
  status: ('A' for Active; 'I' for Inactive)
    1  A    between atoms: O_2  and  C_14
    2  A    between atoms: C_6  and  C_12
    3  A    between atoms: C_6  and  C_21
    4  A    between atoms: C_12  and  C_13
    5  A    between atoms: C_14  and  C_20
    6  A    between atoms: C_14  and  C_22
    7  A    between atoms: C_22  and  C_29
                            x       y       z     vdW  Elec       q    Type
                         _______ _______ _______ _____ _____    ______ ____

>  <TORSDO>
F 7

$$$$
=
 OpenBabel10262421443D

 30 33  0  0  1  0  0  0  0  0999 V2000
  181.5830  178.2530  137.9990 C   0  0  0  0  0  2  0  0  0  0  0  0
  181.8320  176.7530  138.0890 C   0  0  1  0  0  0  0  0  0  0  0  0
  182.0290  173.1620  137.1520 C   0  0  0  0  0  2  0  0  0  0  0  0
  183.6520  175.0150  137.9630 C   0  0  0  0  0  2  0  0  0  0  0  0
  179.6110  176.0410  136.9100 C   0  0  0  0  0  2  0  0  0  0  0  0
  182.9880  176.1790  137.2280 C   0  0  2  0  0  3  0  0  0  0  0  0
  180.1770  175.3230  135.6920 C   0  0  0  0  0  2  0  0  0  0  0  0
  181.5230  173.2970  135.7960 N   0  0  0  0  0  2  0  0  0  0  0  0
  182.1200  177.6660  139.3010 C   0  0  2  0  0  0  0  0  0  0  0  0
  180.3100  175.1740  138.9790 O   0  0  0  0  0  0  0  0  0  0  0  0
  180.5500  175.9600  138.0750 C   0  0  0  0  0  0  0  0  0  0  0  0
  180.1680  173.8150  135.8940 C   0  0  0  0  0  2  0  0  0  0  0  0
  184.3420  173.1380  136.7260 O   0  0  0  0  0  0  0  0  0  0  0  0
  183.4080  173.7300  137.2390 C   0  0  0  0  0  0  0  0  0  0  0  0
  179.9360  179.2360  141.9110 C   0  0  1  0  0  3  0  0  0  0  0  0
  180.2170  178.8610  140.4700 C   0  0  1  0  0  3  0  0  0  0  0  0
  181.2880  178.6790  141.5130 C   0  0  2  0  0  3  0  0  0  0  0  0
  180.0290  180.6190  142.0560 O   0  0  0  0  0  1  0  0  0  0  0  0
  181.0840  177.6100  140.4490 C   0  0  2  0  0  3  0  0  0  0  0  0
  183.7860  177.4070  135.2980 O   0  0  0  0  0  1  0  0  0  0  0  0
  184.0130  177.1840  136.6580 C   0  0  2  0  0  3  0  0  0  0  0  0
  185.4680  176.7480  136.8710 C   0  0  0  0  0  2  0  0  0  0  0  0
  187.2140  177.8840  138.2490 C   0  0  0  0  0  1  0  0  0  0  0  0
  187.4210  177.8260  135.7960 C   0  0  0  0  0  1  0  0  0  0  0  0
  186.4420  177.9200  136.9460 C   0  0  0  0  0  3  0  0  0  0  0  0
  183.6010  177.9880  139.5780 C   0  0  2  0  0  3  0  0  0  0  0  0
  183.9220  177.7240  140.9140 O   0  0  0  0  0  0  0  0  0  0  0  0
  184.9830  178.5820  141.2130 C   0  0  0  0  0  1  0  0  0  0  0  0
  183.9200  179.3860  139.2460 C   0  0  0  0  0  0  0  0  0  0  0  0
  184.1700  180.4850  138.9840 N   0  0  0  0  0  0  0  0  0  0  0  0
  1  9  1  0  0  0  0
  2  1  1  6  0  0  0
  2  9  1  0  0  0  0
  3 14  1  0  0  0  0
  5 11  1  0  0  0  0
  6 21  1  1  0  0  0
  6  4  1  0  0  0  0
  6  2  1  0  0  0  0
  7 12  1  0  0  0  0
  7  5  1  0  0  0  0
  8 12  1  0  0  0  0
  8  3  1  0  0  0  0
  9 26  1  1  0  0  0
  9 19  1  0  0  0  0
 11  2  1  0  0  0  0
 11 10  2  0  0  0  0
 13 14  2  0  0  0  0
 14  4  1  0  0  0  0
 15 18  1  0  0  0  0
 16 17  1  0  0  0  0
 16 15  1  0  0  0  0
 17 15  1  0  0  0  0
 19 16  1  0  0  0  0
 19 17  1  0  0  0  0
 20 21  1  0  0  0  0
 21 22  1  0  0  0  0
 22 25  1  0  0  0  0
 24 25  1  0  0  0  0
 25 23  1  0  0  0  0
 26 27  1  0  0  0  0
 27 28  1  0  0  0  0
 29 26  1  0  0  0  0
 30 29  3  0  0  0  0
M  END
>  <MODEL>
2

>  <REMARK>
 VINA RESULT:      -4.2      1.962      5.547
  Name = 
  7 active torsions:
  status: ('A' for Active; 'I' for Inactive)
    1  A    between atoms: O_2  and  C_14
    2  A    between atoms: C_6  and  C_12
    3  A    between atoms: C_6  and  C_21
    4  A    between atoms: C_12  and  C_13
    5  A    between atoms: C_14  and  C_20
    6  A    between atoms: C_14  and  C_22
    7  A    between atoms: C_22  and  C_29
                            x       y       z     vdW  Elec       q    Type
                         _______ _______ _______ _____ _____    ______ ____

>  <TORSDO>
F 7

$$$$
=
 OpenBabel10262421443D

 30 33  0  0  1  0  0  0  0  0999 V2000
  183.1150  175.2230  135.4770 C   0  0  0  0  0  2  0  0  0  0  0  0
  183.9540  175.8890  136.5600 C   0  0  1  0  0  0  0  0  0  0  0  0
  186.3420  178.1930  138.2350 C   0  0  0  0  0  2  0  0  0  0  0  0
  183.8340  177.5650  138.4370 C   0  0  0  0  0  2  0  0  0  0  0  0
  186.1440  176.0500  135.1420 C   0  0  0  0  0  2  0  0  0  0  0  0
  183.5760  177.3430  136.9480 C   0  0  2  0  0  3  0  0  0  0  0  0
  186.3200  177.5630  135.0980 C   0  0  0  0  0  2  0  0  0  0  0  0
  186.7210  178.9540  137.0550 N   0  0  0  0  0  2  0  0  0  0  0  0
  183.0260  174.7050  136.9100 C   0  0  2  0  0  0  0  0  0  0  0  0
  186.0690  175.1280  137.3010 O   0  0  0  0  0  0  0  0  0  0  0  0
  185.4270  175.6200  136.3860 C   0  0  0  0  0  0  0  0  0  0  0  0
  187.3420  178.0230  136.1270 C   0  0  0  0  0  2  0  0  0  0  0  0
  184.7150  179.6290  139.1420 O   0  0  0  0  0  0  0  0  0  0  0  0
  184.9470  178.5430  138.6370 C   0  0  0  0  0  0  0  0  0  0  0  0
  183.4340  171.0210  136.3550 C   0  0  1  0  0  3  0  0  0  0  0  0
  183.6220  172.4560  135.9080 C   0  0  1  0  0  3  0  0  0  0  0  0
  182.7780  172.1540  137.1170 C   0  0  2  0  0  3  0  0  0  0  0  0
  182.4880  170.4020  135.5400 O   0  0  0  0  0  1  0  0  0  0  0  0
  183.7270  173.3440  137.1400 C   0  0  2  0  0  3  0  0  0  0  0  0
  182.2900  178.5940  135.3190 O   0  0  0  0  0  1  0  0  0  0  0  0
  182.1890  177.8570  136.5020 C   0  0  2  0  0  3  0  0  0  0  0  0
  181.4850  178.6980  137.5730 C   0  0  0  0  0  2  0  0  0  0  0  0
  179.7190  180.3190  136.8710 C   0  0  0  0  0  1  0  0  0  0  0  0
  181.6370  181.0860  138.2110 C   0  0  0  0  0  1  0  0  0  0  0  0
  181.2010  180.1280  137.1240 C   0  0  0  0  0  3  0  0  0  0  0  0
  181.7100  175.0570  137.6310 C   0  0  2  0  0  3  0  0  0  0  0  0
  181.7790  174.7040  138.9820 O   0  0  0  0  0  0  0  0  0  0  0  0
  180.8690  175.5450  139.6280 C   0  0  0  0  0  1  0  0  0  0  0  0
  180.5550  174.4040  136.9930 C   0  0  0  0  0  0  0  0  0  0  0  0
  179.6470  173.8920  136.4910 N   0  0  0  0  0  0  0  0  0  0  0  0
  1  9  1  0  0  0  0
  2  1  1  6  0  0  0
  2  9  1  0  0  0  0
  2  6  1  0  0  0  0
  3 14  1  0  0  0  0
  4 14  1  0  0  0  0
  5 11  1  0  0  0  0
  6 21  1  1  0  0  0
  6  4  1  0  0  0  0
  7  5  1  0  0  0  0
  7 12  1  0  0  0  0
  8  3  1  0  0  0  0
  9 19  1  0  0  0  0
  9 26  1  1  0  0  0
 11  2  1  0  0  0  0
 11 10  2  0  0  0  0
 12  8  1  0  0  0  0
 14 13  2  0  0  0  0
 15 17  1  0  0  0  0
 16 15  1  0  0  0  0
 16 17  1  0  0  0  0
 16 19  1  0  0  0  0
 17 19  1  0  0  0  0
 18 15  1  0  0  0  0
 20 21  1  0  0  0  0
 21 22  1  0  0  0  0
 23 25  1  0  0  0  0
 25 22  1  0  0  0  0
 25 24  1  0  0  0  0
 26 27  1  0  0  0  0
 27 28  1  0  0  0  0
 29 26  1  0  0  0  0
 30 29  3  0  0  0  0
M  END
>  <MODEL>
3

>  <REMARK>
 VINA RESULT:      -4.0      2.606      5.376
  Name = 
  7 active torsions:
  status: ('A' for Active; 'I' for Inactive)
    1  A    between atoms: O_2  and  C_14
    2  A    between atoms: C_6  and  C_12
    3  A    between atoms: C_6  and  C_21
    4  A    between atoms: C_12  and  C_13
    5  A    between atoms: C_14  and  C_20
    6  A    between atoms: C_14  and  C_22
    7  A    between atoms: C_22  and  C_29
                            x       y       z     vdW  Elec       q    Type
                         _______ _______ _______ _____ _____    ______ ____

>  <TORSDO>
F 7

$$$$
=
 OpenBabel10262421443D

 30 33  0  0  1  0  0  0  0  0999 V2000
  182.3440  179.0320  137.5850 C   0  0  0  0  0  2  0  0  0  0  0  0
  181.1470  178.2170  138.0540 C   0  0  1  0  0  0  0  0  0  0  0  0
  179.1170  175.4010  139.3830 C   0  0  0  0  0  2  0  0  0  0  0  0
  179.6140  177.8650  140.0220 C   0  0  0  0  0  2  0  0  0  0  0  0
  181.8390  176.0040  136.8480 C   0  0  0  0  0  2  0  0  0  0  0  0
  181.0720  177.8850  139.5680 C   0  0  2  0  0  3  0  0  0  0  0  0
  182.0110  175.0890  138.0540 C   0  0  0  0  0  2  0  0  0  0  0  0
  180.2090  174.4570  139.5640 N   0  0  0  0  0  2  0  0  0  0  0  0
  180.9560  179.6630  137.5450 C   0  0  2  0  0  0  0  0  0  0  0  0
  179.7100  176.9760  136.6420 O   0  0  0  0  0  0  0  0  0  0  0  0
  180.8300  177.0790  137.1190 C   0  0  0  0  0  0  0  0  0  0  0  0
  180.7830  174.2110  138.2510 C   0  0  0  0  0  2  0  0  0  0  0  0
  178.9310  176.2350  141.5740 O   0  0  0  0  0  0  0  0  0  0  0  0
  179.2040  176.4810  140.4110 C   0  0  0  0  0  0  0  0  0  0  0  0
  179.7610  181.6590  134.6070 C   0  0  1  0  0  3  0  0  0  0  0  0
  180.8800  181.0560  135.4320 C   0  0  1  0  0  3  0  0  0  0  0  0
  179.4680  181.0260  135.9520 C   0  0  2  0  0  3  0  0  0  0  0  0
  179.7810  183.0460  134.7430 O   0  0  0  0  0  1  0  0  0  0  0  0
  180.3600  179.8050  136.1250 C   0  0  2  0  0  3  0  0  0  0  0  0
  183.0680  177.9360  140.9430 O   0  0  0  0  0  1  0  0  0  0  0  0
  181.9790  178.7010  140.5170 C   0  0  2  0  0  3  0  0  0  0  0  0
  181.2320  179.2540  141.7370 C   0  0  0  0  0  2  0  0  0  0  0  0
  182.6580  179.1680  143.7850 C   0  0  0  0  0  1  0  0  0  0  0  0
  180.2970  178.4760  143.8940 C   0  0  0  0  0  1  0  0  0  0  0  0
  181.5350  178.4930  143.0240 C   0  0  0  0  0  3  0  0  0  0  0  0
  180.7180  180.7410  138.6220 C   0  0  2  0  0  3  0  0  0  0  0  0
  179.3830  181.1580  138.6160 O   0  0  0  0  0  0  0  0  0  0  0  0
  179.2010  181.8200  139.8320 C   0  0  0  0  0  1  0  0  0  0  0  0
  181.6120  181.8950  138.4340 C   0  0  0  0  0  0  0  0  0  0  0  0
  182.3150  182.8030  138.2860 N   0  0  0  0  0  0  0  0  0  0  0  0
  2  1  1  6  0  0  0
  2  6  1  0  0  0  0
  3  8  1  0  0  0  0
  3 14  1  0  0  0  0
  4 14  1  0  0  0  0
  5 11  1  0  0  0  0
  5  7  1  0  0  0  0
  6  4  1  0  0  0  0
  6 21  1  1  0  0  0
  7 12  1  0  0  0  0
  9  1  1  0  0  0  0
  9  2  1  0  0  0  0
  9 26  1  1  0  0  0
 10 11  2  0  0  0  0
 11  2  1  0  0  0  0
 12  8  1  0  0  0  0
 14 13  2  0  0  0  0
 15 18  1  0  0  0  0
 15 16  1  0  0  0  0
 15 17  1  0  0  0  0
 16 17  1  0  0  0  0
 16 19  1  0  0  0  0
 17 19  1  0  0  0  0
 19  9  1  0  0  0  0
 21 20  1  0  0  0  0
 21 22  1  0  0  0  0
 22 25  1  0  0  0  0
 25 23  1  0  0  0  0
 25 24  1  0  0  0  0
 27 26  1  0  0  0  0
 27 28  1  0  0  0  0
 29 26  1  0  0  0  0
 30 29  3  0  0  0  0
M  END
>  <MODEL>
4

>  <REMARK>
 VINA RESULT:      -3.8      2.557      6.150
  Name = 
  7 active torsions:
  status: ('A' for Active; 'I' for Inactive)
    1  A    between atoms: O_2  and  C_14
    2  A    between atoms: C_6  and  C_12
    3  A    between atoms: C_6  and  C_21
    4  A    between atoms: C_12  and  C_13
    5  A    between atoms: C_14  and  C_20
    6  A    between atoms: C_14  and  C_22
    7  A    between atoms: C_22  and  C_29
                            x       y       z     vdW  Elec       q    Type
                         _______ _______ _______ _____ _____    ______ ____

>  <TORSDO>
F 7

$$$$
=
 OpenBabel10262421443D

 30 33  0  0  1  0  0  0  0  0999 V2000
  185.5550  173.4610  137.5940 C   0  0  0  0  0  2  0  0  0  0  0  0
  184.4970  173.5800  136.5050 C   0  0  1  0  0  0  0  0  0  0  0  0
  181.2440  173.3270  134.7240 C   0  0  0  0  0  2  0  0  0  0  0  0
  182.8810  175.2020  135.4530 C   0  0  0  0  0  2  0  0  0  0  0  0
  183.5250  171.1730  136.8110 C   0  0  0  0  0  2  0  0  0  0  0  0
  183.3240  174.5620  136.7670 C   0  0  2  0  0  3  0  0  0  0  0  0
  182.0970  171.5150  137.2180 C   0  0  0  0  0  2  0  0  0  0  0  0
  180.5020  172.6710  135.7890 N   0  0  0  0  0  2  0  0  0  0  0  0
  185.9310  174.1000  136.2590 C   0  0  2  0  0  0  0  0  0  0  0  0
  184.1920  172.0410  134.7320 O   0  0  0  0  0  0  0  0  0  0  0  0
  184.1110  172.2390  135.9350 C   0  0  0  0  0  0  0  0  0  0  0  0
  181.1480  171.3920  136.0360 C   0  0  0  0  0  2  0  0  0  0  0  0
  180.5860  175.5570  135.0810 O   0  0  0  0  0  0  0  0  0  0  0  0
  181.5020  174.7520  135.0890 C   0  0  0  0  0  0  0  0  0  0  0  0
  189.2160  172.6070  135.2450 C   0  0  1  0  0  3  0  0  0  0  0  0
  187.9940  172.6360  136.1420 C   0  0  1  0  0  3  0  0  0  0  0  0
  188.2330  173.7580  135.1670 C   0  0  2  0  0  3  0  0  0  0  0  0
  190.3350  173.0030  135.9750 O   0  0  0  0  0  1  0  0  0  0  0  0
  186.8240  173.2140  135.3580 C   0  0  2  0  0  3  0  0  0  0  0  0
  182.7400  175.2530  139.0150 O   0  0  0  0  0  1  0  0  0  0  0  0
  183.5080  175.5970  137.9000 C   0  0  2  0  0  3  0  0  0  0  0  0
  183.1730  177.0300  137.4670 C   0  0  0  0  0  2  0  0  0  0  0  0
  184.8230  178.5480  138.5680 C   0  0  0  0  0  1  0  0  0  0  0  0
  182.4690  179.2360  138.3430 C   0  0  0  0  0  1  0  0  0  0  0  0
  183.3890  178.0570  138.5740 C   0  0  0  0  0  3  0  0  0  0  0  0
  186.1240  175.6270  136.3200 C   0  0  2  0  0  3  0  0  0  0  0  0
  186.3490  176.1470  135.0410 O   0  0  0  0  0  0  0  0  0  0  0  0
  186.0600  177.5100  135.1420 C   0  0  0  0  0  1  0  0  0  0  0  0
  187.2300  175.9960  137.2190 C   0  0  0  0  0  0  0  0  0  0  0  0
  188.0990  176.2840  137.9260 N   0  0  0  0  0  0  0  0  0  0  0  0
  2  6  1  0  0  0  0
  2  1  1  1  0  0  0
  3 14  1  0  0  0  0
  3  8  1  0  0  0  0
  4  6  1  0  0  0  0
  5  7  1  0  0  0  0
  6 21  1  1  0  0  0
  8 12  1  0  0  0  0
  9 26  1  6  0  0  0
  9  2  1  0  0  0  0
  9  1  1  0  0  0  0
 10 11  2  0  0  0  0
 11  2  1  0  0  0  0
 11  5  1  0  0  0  0
 12  7  1  0  0  0  0
 13 14  2  0  0  0  0
 14  4  1  0  0  0  0
 15 18  1  0  0  0  0
 15 16  1  0  0  0  0
 17 15  1  0  0  0  0
 17 19  1  0  0  0  0
 17 16  1  0  0  0  0
 19 16  1  0  0  0  0
 19  9  1  0  0  0  0
 21 20  1  0  0  0  0
 22 21  1  0  0  0  0
 22 25  1  0  0  0  0
 23 25  1  0  0  0  0
 24 25  1  0  0  0  0
 26 29  1  0  0  0  0
 27 28  1  0  0  0  0
 27 26  1  0  0  0  0
 29 30  3  0  0  0  0
M  END
>  <MODEL>
5

>  <REMARK>
 VINA RESULT:      -3.6      3.466      6.536
  Name = 
  7 active torsions:
  status: ('A' for Active; 'I' for Inactive)
    1  A    between atoms: O_2  and  C_14
    2  A    between atoms: C_6  and  C_12
    3  A    between atoms: C_6  and  C_21
    4  A    between atoms: C_12  and  C_13
    5  A    between atoms: C_14  and  C_20
    6  A    between atoms: C_14  and  C_22
    7  A    between atoms: C_22  and  C_29
                            x       y       z     vdW  Elec       q    Type
                         _______ _______ _______ _____ _____    ______ ____

>  <TORSDO>
F 7

$$$$
=
 OpenBabel10262421443D

 30 33  0  0  1  0  0  0  0  0999 V2000
  191.1480  174.1050  137.4220 C   0  0  0  0  0  2  0  0  0  0  0  0
  190.2030  174.7990  136.4510 C   0  0  1  0  0  0  0  0  0  0  0  0
  187.0970  176.2030  134.9680 C   0  0  0  0  0  2  0  0  0  0  0  0
  189.4310  177.0730  135.6890 C   0  0  0  0  0  2  0  0  0  0  0  0
  188.2760  173.0450  136.6520 C   0  0  0  0  0  2  0  0  0  0  0  0
  189.6050  176.1590  136.9000 C   0  0  2  0  0  3  0  0  0  0  0  0
  187.1710  173.9290  137.2170 C   0  0  0  0  0  2  0  0  0  0  0  0
  186.1920  175.8220  136.0420 N   0  0  0  0  0  2  0  0  0  0  0  0
  191.7040  174.6610  136.1150 C   0  0  2  0  0  0  0  0  0  0  0  0
  189.1590  173.7630  134.5960 O   0  0  0  0  0  0  0  0  0  0  0  0
  189.2320  173.8370  135.8130 C   0  0  0  0  0  0  0  0  0  0  0  0
  186.2120  174.3710  136.1230 C   0  0  0  0  0  2  0  0  0  0  0  0
  187.5200  178.4390  135.5640 O   0  0  0  0  0  0  0  0  0  0  0  0
  187.9810  177.3190  135.4210 C   0  0  0  0  0  0  0  0  0  0  0  0
  193.5580  171.6190  134.9520 C   0  0  1  0  0  3  0  0  0  0  0  0
  192.4330  172.2660  135.7340 C   0  0  1  0  0  3  0  0  0  0  0  0
  193.5140  173.1230  135.1310 C   0  0  2  0  0  3  0  0  0  0  0  0
  194.4850  171.0740  135.8380 O   0  0  0  0  0  1  0  0  0  0  0  0
  192.0640  173.5820  135.0660 C   0  0  2  0  0  3  0  0  0  0  0  0
  190.4930  175.9830  139.1490 O   0  0  0  0  0  1  0  0  0  0  0  0
  190.2850  176.8720  138.0900 C   0  0  2  0  0  3  0  0  0  0  0  0
  189.5010  178.0920  138.5900 C   0  0  0  0  0  2  0  0  0  0  0  0
  188.5220  178.3390  140.8750 C   0  0  0  0  0  1  0  0  0  0  0  0
  187.0500  178.2520  138.9020 C   0  0  0  0  0  1  0  0  0  0  0  0
  188.3350  177.7240  139.5020 C   0  0  0  0  0  3  0  0  0  0  0  0
  192.5610  175.9310  136.2800 C   0  0  2  0  0  3  0  0  0  0  0  0
  193.1690  176.2770  135.0680 O   0  0  0  0  0  0  0  0  0  0  0  0
  194.4360  176.7510  135.4160 C   0  0  0  0  0  1  0  0  0  0  0  0
  193.5790  175.7620  137.3290 C   0  0  0  0  0  0  0  0  0  0  0  0
  194.3810  175.6280  138.1530 N   0  0  0  0  0  0  0  0  0  0  0  0
  2  6  1  0  0  0  0
  2  1  1  1  0  0  0
  3 14  1  0  0  0  0
  3  8  1  0  0  0  0
  4  6  1  0  0  0  0
  5  7  1  0  0  0  0
  6 21  1  1  0  0  0
  8 12  1  0  0  0  0
  9 26  1  1  0  0  0
  9  2  1  0  0  0  0
  9  1  1  0  0  0  0
 10 11  2  0  0  0  0
 11  2  1  0  0  0  0
 11  5  1  0  0  0  0
 12  7  1  0  0  0  0
 14 13  2  0  0  0  0
 14  4  1  0  0  0  0
 15 17  1  0  0  0  0
 15 16  1  0  0  0  0
 15 18  1  0  0  0  0
 17 16  1  0  0  0  0
 19 17  1  0  0  0  0
 19 16  1  0  0  0  0
 19  9  1  0  0  0  0
 21 22  1  0  0  0  0
 21 20  1  0  0  0  0
 22 25  1  0  0  0  0
 24 25  1  0  0  0  0
 25 23  1  0  0  0  0
 26 29  1  0  0  0  0
 27 28  1  0  0  0  0
 27 26  1  0  0  0  0
 29 30  3  0  0  0  0
M  END
>  <MODEL>
6

>  <REMARK>
 VINA RESULT:      -3.5      6.439      9.669
  Name = 
  7 active torsions:
  status: ('A' for Active; 'I' for Inactive)
    1  A    between atoms: O_2  and  C_14
    2  A    between atoms: C_6  and  C_12
    3  A    between atoms: C_6  and  C_21
    4  A    between atoms: C_12  and  C_13
    5  A    between atoms: C_14  and  C_20
    6  A    between atoms: C_14  and  C_22
    7  A    between atoms: C_22  and  C_29
                            x       y       z     vdW  Elec       q    Type
                         _______ _______ _______ _____ _____    ______ ____

>  <TORSDO>
F 7

$$$$
=
 OpenBabel10262421443D

 30 33  0  0  1  0  0  0  0  0999 V2000
  181.8450  178.2900  139.4270 C   0  0  0  0  0  2  0  0  0  0  0  0
  183.2090  178.4170  138.7620 C   0  0  1  0  0  0  0  0  0  0  0  0
  186.8810  178.2290  138.2120 C   0  0  0  0  0  2  0  0  0  0  0  0
  184.7320  177.3040  137.0920 C   0  0  0  0  0  2  0  0  0  0  0  0
  184.4500  179.3380  140.8700 C   0  0  0  0  0  2  0  0  0  0  0  0
  183.9280  177.0970  138.3730 C   0  0  2  0  0  3  0  0  0  0  0  0
  185.4700  178.2260  141.0840 C   0  0  0  0  0  2  0  0  0  0  0  0
  187.2310  177.6560  139.5020 N   0  0  0  0  0  2  0  0  0  0  0  0
  181.9350  178.8770  138.0210 C   0  0  2  0  0  0  0  0  0  0  0  0
  184.5450  180.3710  138.7610 O   0  0  0  0  0  0  0  0  0  0  0  0
  184.0720  179.4600  139.4250 C   0  0  0  0  0  0  0  0  0  0  0  0
  186.8280  178.6150  140.5190 C   0  0  0  0  0  2  0  0  0  0  0  0
  186.8410  176.2790  136.8970 O   0  0  0  0  0  0  0  0  0  0  0  0
  186.1980  177.2020  137.3700 C   0  0  0  0  0  0  0  0  0  0  0  0
  180.0850  182.0230  138.8760 C   0  0  1  0  0  3  0  0  0  0  0  0
  181.0670  180.9250  139.2330 C   0  0  1  0  0  3  0  0  0  0  0  0
  180.2430  180.8120  137.9780 C   0  0  2  0  0  3  0  0  0  0  0  0
  178.9320  181.8810  139.6460 O   0  0  0  0  0  1  0  0  0  0  0  0
  181.7090  180.4070  137.9540 C   0  0  2  0  0  3  0  0  0  0  0  0
  182.5170  175.5490  139.5920 O   0  0  0  0  0  1  0  0  0  0  0  0
  183.0730  175.8100  138.3380 C   0  0  2  0  0  3  0  0  0  0  0  0
  183.8540  174.5810  137.8550 C   0  0  0  0  0  2  0  0  0  0  0  0
  183.7310  172.4780  136.5140 C   0  0  0  0  0  1  0  0  0  0  0  0
  181.7140  173.8510  136.8480 C   0  0  0  0  0  1  0  0  0  0  0  0
  183.2130  173.8960  136.6530 C   0  0  0  0  0  3  0  0  0  0  0  0
  181.4150  177.9440  136.9100 C   0  0  2  0  0  3  0  0  0  0  0  0
  181.5160  178.5620  135.6600 O   0  0  0  0  0  0  0  0  0  0  0  0
  181.9880  177.5700  134.7970 C   0  0  0  0  0  1  0  0  0  0  0  0
  180.0250  177.5310  137.1610 C   0  0  0  0  0  0  0  0  0  0  0  0
  178.9320  177.2060  137.3590 N   0  0  0  0  0  0  0  0  0  0  0  0
  2 11  1  0  0  0  0
  2  1  1  1  0  0  0
  3  8  1  0  0  0  0
  4 14  1  0  0  0  0
  4  6  1  0  0  0  0
  5  7  1  0  0  0  0
  6 21  1  6  0  0  0
  6  2  1  0  0  0  0
  8 12  1  0  0  0  0
  9 26  1  6  0  0  0
  9  2  1  0  0  0  0
  9  1  1  0  0  0  0
 10 11  2  0  0  0  0
 11  5  1  0  0  0  0
 12  7  1  0  0  0  0
 13 14  2  0  0  0  0
 14  3  1  0  0  0  0
 15 16  1  0  0  0  0
 15 18  1  0  0  0  0
 17 15  1  0  0  0  0
 17 16  1  0  0  0  0
 19 17  1  0  0  0  0
 19  9  1  0  0  0  0
 19 16  1  0  0  0  0
 21 20  1  0  0  0  0
 22 21  1  0  0  0  0
 23 25  1  0  0  0  0
 25 24  1  0  0  0  0
 25 22  1  0  0  0  0
 26 29  1  0  0  0  0
 27 26  1  0  0  0  0
 28 27  1  0  0  0  0
 29 30  3  0  0  0  0
M  END
>  <MODEL>
7

>  <REMARK>
 VINA RESULT:      -3.3      2.462      5.711
  Name = 
  7 active torsions:
  status: ('A' for Active; 'I' for Inactive)
    1  A    between atoms: O_2  and  C_14
    2  A    between atoms: C_6  and  C_12
    3  A    between atoms: C_6  and  C_21
    4  A    between atoms: C_12  and  C_13
    5  A    between atoms: C_14  and  C_20
    6  A    between atoms: C_14  and  C_22
    7  A    between atoms: C_22  and  C_29
                            x       y       z     vdW  Elec       q    Type
                         _______ _______ _______ _____ _____    ______ ____

>  <TORSDO>
F 7

$$$$
=
 OpenBabel10262421443D

 30 33  0  0  1  0  0  0  0  0999 V2000
  185.9600  177.8190  136.4490 C   0  0  0  0  0  2  0  0  0  0  0  0
  185.9570  176.3720  136.9230 C   0  0  1  0  0  0  0  0  0  0  0  0
  185.7860  172.6600  136.8760 C   0  0  0  0  0  2  0  0  0  0  0  0
  187.4820  174.4840  137.5960 C   0  0  0  0  0  2  0  0  0  0  0  0
  183.9240  175.6160  135.4650 C   0  0  0  0  0  2  0  0  0  0  0  0
  187.1570  175.4880  136.4920 C   0  0  2  0  0  3  0  0  0  0  0  0
  184.5990  174.5640  134.5950 C   0  0  0  0  0  2  0  0  0  0  0  0
  185.5780  172.5040  135.4450 N   0  0  0  0  0  2  0  0  0  0  0  0
  186.1400  177.5250  137.9350 C   0  0  2  0  0  0  0  0  0  0  0  0
  184.0700  175.2260  137.7770 O   0  0  0  0  0  0  0  0  0  0  0  0
  184.5970  175.7340  136.7990 C   0  0  0  0  0  0  0  0  0  0  0  0
  184.3240  173.1630  135.1200 C   0  0  0  0  0  2  0  0  0  0  0  0
  188.1070  172.2980  136.9940 O   0  0  0  0  0  0  0  0  0  0  0  0
  187.1910  173.0900  137.1400 C   0  0  0  0  0  0  0  0  0  0  0  0
  183.4540  179.8240  139.1770 C   0  0  1  0  0  3  0  0  0  0  0  0
  184.0160  178.8910  138.1240 C   0  0  1  0  0  3  0  0  0  0  0  0
  184.8720  179.3030  139.2920 C   0  0  2  0  0  3  0  0  0  0  0  0
  183.4790  181.1330  138.6980 O   0  0  0  0  0  1  0  0  0  0  0  0
  184.9050  177.8610  138.8050 C   0  0  2  0  0  3  0  0  0  0  0  0
  188.2840  176.4890  134.5940 O   0  0  0  0  0  1  0  0  0  0  0  0
  188.4130  176.2120  135.9570 C   0  0  2  0  0  3  0  0  0  0  0  0
  189.7090  175.4290  136.2020 C   0  0  0  0  0  2  0  0  0  0  0  0
  191.4830  176.3240  137.7160 C   0  0  0  0  0  1  0  0  0  0  0  0
  192.0120  175.7970  135.3680 C   0  0  0  0  0  1  0  0  0  0  0  0
  190.9420  176.3230  136.3000 C   0  0  0  0  0  3  0  0  0  0  0  0
  187.5710  177.7550  138.4580 C   0  0  2  0  0  3  0  0  0  0  0  0
  187.5590  178.0130  139.8330 O   0  0  0  0  0  0  0  0  0  0  0  0
  188.8260  177.6420  140.2870 C   0  0  0  0  0  1  0  0  0  0  0  0
  188.2370  178.8550  137.7410 C   0  0  0  0  0  0  0  0  0  0  0  0
  188.7610  179.7190  137.1780 N   0  0  0  0  0  0  0  0  0  0  0  0
  1  9  1  0  0  0  0
  2  1  1  6  0  0  0
  2  9  1  0  0  0  0
  3 14  1  0  0  0  0
  5 11  1  0  0  0  0
  6 21  1  1  0  0  0
  6  2  1  0  0  0  0
  6  4  1  0  0  0  0
  7 12  1  0  0  0  0
  7  5  1  0  0  0  0
  8  3  1  0  0  0  0
  9 26  1  1  0  0  0
  9 19  1  0  0  0  0
 11  2  1  0  0  0  0
 11 10  2  0  0  0  0
 12  8  1  0  0  0  0
 13 14  2  0  0  0  0
 14  4  1  0  0  0  0
 15 17  1  0  0  0  0
 16 19  1  0  0  0  0
 16 15  1  0  0  0  0
 16 17  1  0  0  0  0
 18 15  1  0  0  0  0
 19 17  1  0  0  0  0
 20 21  1  0  0  0  0
 21 22  1  0  0  0  0
 22 25  1  0  0  0  0
 24 25  1  0  0  0  0
 25 23  1  0  0  0  0
 26 27  1  0  0  0  0
 27 28  1  0  0  0  0
 29 26  1  0  0  0  0
 30 29  3  0  0  0  0
M  END
>  <MODEL>
8

>  <REMARK>
 VINA RESULT:      -3.2      3.729      7.450
  Name = 
  7 active torsions:
  status: ('A' for Active; 'I' for Inactive)
    1  A    between atoms: O_2  and  C_14
    2  A    between atoms: C_6  and  C_12
    3  A    between atoms: C_6  and  C_21
    4  A    between atoms: C_12  and  C_13
    5  A    between atoms: C_14  and  C_20
    6  A    between atoms: C_14  and  C_22
    7  A    between atoms: C_22  and  C_29
                            x       y       z     vdW  Elec       q    Type
                         _______ _______ _______ _____ _____    ______ ____

>  <TORSDO>
F 7

$$$$
=
 OpenBabel10262421443D

 30 33  0  0  1  0  0  0  0  0999 V2000
  189.6520  178.4910  138.3840 C   0  0  0  0  0  2  0  0  0  0  0  0
  188.7450  177.3320  137.9920 C   0  0  1  0  0  0  0  0  0  0  0  0
  186.7760  174.9560  135.9210 C   0  0  0  0  0  2  0  0  0  0  0  0
  188.7320  174.8400  137.6200 C   0  0  0  0  0  2  0  0  0  0  0  0
  187.3420  178.6670  136.2380 C   0  0  0  0  0  2  0  0  0  0  0  0
  189.4010  176.1540  137.2240 C   0  0  2  0  0  3  0  0  0  0  0  0
  187.6740  177.8780  134.9780 C   0  0  0  0  0  2  0  0  0  0  0  0
  187.0820  175.5430  134.6260 N   0  0  0  0  0  2  0  0  0  0  0  0
  189.0770  177.5960  139.4780 C   0  0  2  0  0  0  0  0  0  0  0  0
  186.3790  177.4040  137.9690 O   0  0  0  0  0  0  0  0  0  0  0  0
  187.4160  177.8010  137.4590 C   0  0  0  0  0  0  0  0  0  0  0  0
  186.5600  176.9000  134.6370 C   0  0  0  0  0  2  0  0  0  0  0  0
  188.3550  173.2130  135.9630 O   0  0  0  0  0  0  0  0  0  0  0  0
  187.9830  174.2620  136.4620 C   0  0  0  0  0  0  0  0  0  0  0  0
  187.3590  178.4190  142.7050 C   0  0  1  0  0  3  0  0  0  0  0  0
  188.4580  178.6630  141.6900 C   0  0  1  0  0  3  0  0  0  0  0  0
  187.5650  177.4580  141.5520 C   0  0  2  0  0  3  0  0  0  0  0  0
  187.9120  177.8780  143.8650 O   0  0  0  0  0  1  0  0  0  0  0  0
  187.9530  178.2530  140.3140 C   0  0  2  0  0  3  0  0  0  0  0  0
  191.4820  176.4770  136.0240 O   0  0  0  0  0  1  0  0  0  0  0  0
  190.9440  176.0660  137.2460 C   0  0  2  0  0  3  0  0  0  0  0  0
  191.4620  174.6650  137.5920 C   0  0  0  0  0  2  0  0  0  0  0  0
  193.8940  174.0920  137.5930 C   0  0  0  0  0  1  0  0  0  0  0  0
  192.3440  172.9020  136.0930 C   0  0  0  0  0  1  0  0  0  0  0  0
  192.6510  174.2360  136.7370 C   0  0  0  0  0  3  0  0  0  0  0  0
  190.1060  176.6500  140.1270 C   0  0  2  0  0  3  0  0  0  0  0  0
  189.5980  176.1080  141.3120 O   0  0  0  0  0  0  0  0  0  0  0  0
  190.6910  176.0280  142.1780 C   0  0  0  0  0  1  0  0  0  0  0  0
  191.3800  177.3380  140.3890 C   0  0  0  0  0  0  0  0  0  0  0  0
  192.3830  177.8780  140.5940 N   0  0  0  0  0  0  0  0  0  0  0  0
  1  9  1  0  0  0  0
  2  1  1  6  0  0  0
  2  9  1  0  0  0  0
  3 14  1  0  0  0  0
  5 11  1  0  0  0  0
  6 21  1  1  0  0  0
  6  4  1  0  0  0  0
  6  2  1  0  0  0  0
  7  5  1  0  0  0  0
  8 12  1  0  0  0  0
  8  3  1  0  0  0  0
  9 26  1  1  0  0  0
  9 19  1  0  0  0  0
 11 10  2  0  0  0  0
 11  2  1  0  0  0  0
 12  7  1  0  0  0  0
 13 14  2  0  0  0  0
 14  4  1  0  0  0  0
 15 18  1  0  0  0  0
 16 15  1  0  0  0  0
 17 16  1  0  0  0  0
 17 15  1  0  0  0  0
 19 17  1  0  0  0  0
 19 16  1  0  0  0  0
 20 21  1  0  0  0  0
 21 22  1  0  0  0  0
 24 25  1  0  0  0  0
 25 22  1  0  0  0  0
 25 23  1  0  0  0  0
 26 29  1  0  0  0  0
 26 27  1  0  0  0  0
 27 28  1  0  0  0  0
 29 30  3  0  0  0  0
M  END
>  <MODEL>
9

>  <REMARK>
 VINA RESULT:      -2.8      6.096      8.987
  Name = 
  7 active torsions:
  status: ('A' for Active; 'I' for Inactive)
    1  A    between atoms: O_2  and  C_14
    2  A    between atoms: C_6  and  C_12
    3  A    between atoms: C_6  and  C_21
    4  A    between atoms: C_12  and  C_13
    5  A    between atoms: C_14  and  C_20
    6  A    between atoms: C_14  and  C_22
    7  A    between atoms: C_22  and  C_29
                            x       y       z     vdW  Elec       q    Type
                         _______ _______ _______ _____ _____    ______ ____

>  <TORSDO>
F 7

$$$$
