=
 OpenBabel10262422173D

 43 50  0  0  1  0  0  0  0  0999 V2000
  191.2220  176.6960  147.0550 C   0  0  0  0  0  0  0  0  0  0  0  0
  189.0350  177.8470  142.6790 N   0  0  0  0  0  0  0  0  0  0  0  0
  186.3150  178.0630  143.3300 C   0  0  0  0  0  0  0  0  0  0  0  0
  190.7930  177.1850  144.7160 C   0  0  0  0  0  0  0  0  0  0  0  0
  189.8560  176.7740  147.3280 C   0  0  0  0  0  3  0  0  0  0  0  0
  192.0980  176.4200  148.0520 F   0  0  0  0  0  0  0  0  0  0  0  0
  189.4090  177.2740  144.9890 C   0  0  0  0  0  0  0  0  0  0  0  0
  191.6880  176.9010  145.7540 C   0  0  0  0  0  3  0  0  0  0  0  0
  188.9540  177.0620  146.3010 C   0  0  0  0  0  3  0  0  0  0  0  0
  187.1440  177.7140  144.2670 N   0  0  0  0  0  0  0  0  0  0  0  0
  188.5510  177.5880  144.0080 C   0  0  0  0  0  0  0  0  0  0  0  0
  190.4400  177.6290  142.3330 C   0  0  0  0  0  2  0  0  0  0  0  0
  188.1040  178.2490  141.6600 C   0  0  0  0  0  0  0  0  0  0  0  0
  186.8050  178.3670  141.9690 C   0  0  0  0  0  3  0  0  0  0  0  0
  191.2620  177.3650  143.5160 N   0  0  0  0  0  0  0  0  0  0  0  0
  184.8630  178.2040  143.6530 C   0  0  2  0  0  3  0  0  0  0  0  0
  184.2340  179.1880  142.7400 C   0  0  2  0  0  3  0  0  0  0  0  0
  184.5810  179.5220  144.0620 O   0  0  0  0  0  0  0  0  0  0  0  0
  182.7690  178.9320  142.6480 C   0  0  0  0  0  0  0  0  0  0  0  0
  181.9860  179.4350  143.5010 O   0  0  0  0  0  0  0  0  0  0  0  0
  182.2750  178.1560  141.5950 O   0  0  0  0  0  0  0  0  0  0  0  0
  181.4490  178.6970  140.5700 C   0  0  2  0  0  3  0  0  0  0  0  0
  180.4670  177.3900  138.2850 S   0  0  0  0  0  0  0  0  0  0  0  0
  183.3090  177.9800  138.8250 C   0  0  2  0  0  3  0  0  0  0  0  0
  180.0170  178.2590  140.8100 C   0  0  0  0  0  2  0  0  0  0  0  0
  181.8360  178.1440  139.2100 C   0  0  2  0  0  0  0  0  0  0  0  0
  182.5180  179.1990  138.3700 C   0  0  0  0  0  2  0  0  0  0  0  0
  179.3170  178.1560  139.4650 C   0  0  0  0  0  2  0  0  0  0  0  0
  183.5100  176.9870  137.7170 C   0  0  0  0  0  0  0  0  0  0  0  0
  183.7850  176.4700  135.3570 C   0  0  0  0  0  3  0  0  0  0  0  0
  183.9920  174.7120  137.0100 C   0  0  0  0  0  3  0  0  0  0  0  0
  184.0050  175.1260  135.6740 C   0  0  0  0  0  3  0  0  0  0  0  0
  183.7520  175.6410  138.0280 C   0  0  0  0  0  3  0  0  0  0  0  0
  183.5460  177.4000  136.3750 C   0  0  0  0  0  3  0  0  0  0  0  0
  188.5890  178.5420  140.3700 O   0  0  0  0  0  0  0  0  0  0  0  0
  187.1120  177.1500  137.2320 C   0  0  0  0  0  3  0  0  0  0  0  0
  188.0850  176.2040  136.8950 C   0  0  0  0  0  0  0  0  0  0  0  0
  189.3630  176.8350  138.8590 C   0  0  0  0  0  3  0  0  0  0  0  0
  187.2650  177.9360  138.3770 C   0  0  0  0  0  3  0  0  0  0  0  0
  188.3980  177.7900  139.1980 C   0  0  0  0  0  0  0  0  0  0  0  0
  189.2120  176.0470  137.7130 C   0  0  0  0  0  3  0  0  0  0  0  0
  187.4200  174.2290  135.7510 O   0  0  0  0  0  0  0  0  0  0  0  0
  187.9050  175.3910  135.6880 C   0  0  0  0  0  3  0  0  0  0  0  0
  1  5  1  0  0  0  0
  1  6  1  0  0  0  0
  2 11  1  0  0  0  0
  3 10  2  0  0  0  0
  4  7  1  0  0  0  0
  4  8  1  0  0  0  0
  7  9  1  0  0  0  0
  8  1  2  0  0  0  0
  9  5  2  0  0  0  0
 11 10  1  0  0  0  0
 11  7  2  0  0  0  0
 12  2  1  0  0  0  0
 12 15  1  0  0  0  0
 13 14  2  0  0  0  0
 13  2  1  0  0  0  0
 14  3  1  0  0  0  0
 15  4  2  0  0  0  0
 16  3  1  6  0  0  0
 16 18  1  0  0  0  0
 17 19  1  1  0  0  0
 17 16  1  0  0  0  0
 17 18  1  0  0  0  0
 19 20  2  0  0  0  0
 21 19  1  0  0  0  0
 22 25  1  0  0  0  0
 22 21  1  1  0  0  0
 23 26  1  0  0  0  0
 23 28  1  0  0  0  0
 24 29  1  6  0  0  0
 24 26  1  0  0  0  0
 26 27  1  6  0  0  0
 26 22  1  0  0  0  0
 27 24  1  0  0  0  0
 28 25  1  0  0  0  0
 29 33  1  0  0  0  0
 30 32  2  0  0  0  0
 30 34  1  0  0  0  0
 31 33  2  0  0  0  0
 32 31  1  0  0  0  0
 34 29  2  0  0  0  0
 35 13  1  0  0  0  0
 36 39  1  0  0  0  0
 37 36  2  0  0  0  0
 37 41  1  0  0  0  0
 38 40  1  0  0  0  0
 39 40  2  0  0  0  0
 40 35  1  0  0  0  0
 41 38  2  0  0  0  0
 43 42  2  0  0  0  0
 43 37  1  0  0  0  0
M  END
>  <MODEL>
1

>  <REMARK>
 VINA RESULT:      -9.0      0.000      0.000
  Name = 
  8 active torsions:
  status: ('A' for Active; 'I' for Inactive)
    1  A    between atoms: O_1  and  C_34
    2  A    between atoms: O_1  and  C_35
    3  A    between atoms: C_2  and  C_13
    4  A    between atoms: O_3  and  C_4
    5  A    between atoms: O_3  and  C_12
    6  A    between atoms: C_6  and  C_12
    7  A    between atoms: C_11  and  C_14
    8  A    between atoms: C_19  and  C_37
                            x       y       z     vdW  Elec       q    Type
                         _______ _______ _______ _____ _____    ______ ____

>  <TORSDO>
F 8

$$$$
=
 OpenBabel10262422173D

 43 50  0  0  1  0  0  0  0  0999 V2000
  191.2830  176.5370  147.0240 C   0  0  0  0  0  0  0  0  0  0  0  0
  187.1070  177.8480  144.5530 N   0  0  0  0  0  0  0  0  0  0  0  0
  187.9750  178.1710  141.9040 C   0  0  0  0  0  0  0  0  0  0  0  0
  189.0030  177.1400  146.4460 C   0  0  0  0  0  0  0  0  0  0  0  0
  191.6790  176.7470  145.7040 C   0  0  0  0  0  3  0  0  0  0  0  0
  192.1900  176.1450  147.9510 F   0  0  0  0  0  0  0  0  0  0  0  0
  189.3980  177.3460  145.1050 C   0  0  0  0  0  0  0  0  0  0  0  0
  189.9490  176.7330  147.3930 C   0  0  0  0  0  3  0  0  0  0  0  0
  190.7420  177.1490  144.7480 C   0  0  0  0  0  3  0  0  0  0  0  0
  188.8600  177.8790  142.8090 N   0  0  0  0  0  0  0  0  0  0  0  0
  188.4890  177.6950  144.1830 C   0  0  0  0  0  0  0  0  0  0  0  0
  186.6890  177.7780  145.9540 C   0  0  0  0  0  2  0  0  0  0  0  0
  186.1390  178.1550  143.5350 C   0  0  0  0  0  0  0  0  0  0  0  0
  186.5470  178.2970  142.2650 C   0  0  0  0  0  3  0  0  0  0  0  0
  187.7720  177.3170  146.8260 N   0  0  0  0  0  0  0  0  0  0  0  0
  188.4060  178.3310  140.4830 C   0  0  2  0  0  3  0  0  0  0  0  0
  188.9730  177.0570  139.9800 C   0  0  2  0  0  3  0  0  0  0  0  0
  189.7950  178.1310  140.3700 O   0  0  0  0  0  0  0  0  0  0  0  0
  188.8730  177.0070  138.4940 C   0  0  0  0  0  0  0  0  0  0  0  0
  189.7780  177.5270  137.7830 O   0  0  0  0  0  0  0  0  0  0  0  0
  187.7860  176.3570  137.9030 O   0  0  0  0  0  0  0  0  0  0  0  0
  187.5430  176.3940  136.5010 C   0  0  2  0  0  3  0  0  0  0  0  0
  185.2260  175.5830  135.1360 S   0  0  0  0  0  0  0  0  0  0  0  0
  187.0520  173.7940  136.6130 C   0  0  2  0  0  3  0  0  0  0  0  0
  186.6880  177.6060  136.1830 C   0  0  0  0  0  2  0  0  0  0  0  0
  186.7410  175.1850  136.0550 C   0  0  2  0  0  0  0  0  0  0  0  0
  187.6000  174.2290  135.2610 C   0  0  0  0  0  2  0  0  0  0  0  0
  185.8380  177.2850  134.9650 C   0  0  0  0  0  2  0  0  0  0  0  0
  185.8950  172.8450  136.4800 C   0  0  0  0  0  0  0  0  0  0  0  0
  184.8330  170.9330  135.4170 C   0  0  0  0  0  3  0  0  0  0  0  0
  183.7790  171.9960  137.3220 C   0  0  0  0  0  3  0  0  0  0  0  0
  183.7750  171.0130  136.3280 C   0  0  0  0  0  3  0  0  0  0  0  0
  184.8400  172.9050  137.4010 C   0  0  0  0  0  3  0  0  0  0  0  0
  185.8950  171.8420  135.4980 C   0  0  0  0  0  3  0  0  0  0  0  0
  184.7820  178.2640  143.8940 O   0  0  0  0  0  0  0  0  0  0  0  0
  182.6360  178.4550  140.8400 C   0  0  0  0  0  3  0  0  0  0  0  0
  181.4560  178.9590  141.3940 C   0  0  0  0  0  0  0  0  0  0  0  0
  182.5050  178.9830  143.5820 C   0  0  0  0  0  3  0  0  0  0  0  0
  183.7460  178.2140  141.6550 C   0  0  0  0  0  3  0  0  0  0  0  0
  183.6880  178.4700  143.0360 C   0  0  0  0  0  0  0  0  0  0  0  0
  181.3940  179.2250  142.7690 C   0  0  0  0  0  3  0  0  0  0  0  0
  180.3240  180.1160  139.6530 O   0  0  0  0  0  0  0  0  0  0  0  0
  180.3030  179.2030  140.5220 C   0  0  0  0  0  3  0  0  0  0  0  0
  1  8  2  0  0  0  0
  1  6  1  0  0  0  0
  2 12  1  0  0  0  0
  3 14  1  0  0  0  0
  3 10  2  0  0  0  0
  4 15  2  0  0  0  0
  4  8  1  0  0  0  0
  5  1  1  0  0  0  0
  7  4  1  0  0  0  0
  9  7  1  0  0  0  0
  9  5  2  0  0  0  0
 10 11  1  0  0  0  0
 11  2  1  0  0  0  0
 11  7  2  0  0  0  0
 12 15  1  0  0  0  0
 13 35  1  0  0  0  0
 13  2  1  0  0  0  0
 14 13  2  0  0  0  0
 16  3  1  1  0  0  0
 17 19  1  6  0  0  0
 17 18  1  0  0  0  0
 17 16  1  0  0  0  0
 18 16  1  0  0  0  0
 20 19  2  0  0  0  0
 21 19  1  0  0  0  0
 22 21  1  1  0  0  0
 23 26  1  0  0  0  0
 24 29  1  6  0  0  0
 25 22  1  0  0  0  0
 26 27  1  6  0  0  0
 26 22  1  0  0  0  0
 26 24  1  0  0  0  0
 27 24  1  0  0  0  0
 28 23  1  0  0  0  0
 28 25  1  0  0  0  0
 29 33  1  0  0  0  0
 30 34  1  0  0  0  0
 30 32  2  0  0  0  0
 31 33  2  0  0  0  0
 32 31  1  0  0  0  0
 34 29  2  0  0  0  0
 36 37  2  0  0  0  0
 36 39  1  0  0  0  0
 37 41  1  0  0  0  0
 39 40  2  0  0  0  0
 40 38  1  0  0  0  0
 40 35  1  0  0  0  0
 41 38  2  0  0  0  0
 42 43  2  0  0  0  0
 43 37  1  0  0  0  0
M  END
>  <MODEL>
2

>  <REMARK>
 VINA RESULT:      -8.8      2.015      5.814
  Name = 
  8 active torsions:
  status: ('A' for Active; 'I' for Inactive)
    1  A    between atoms: O_1  and  C_34
    2  A    between atoms: O_1  and  C_35
    3  A    between atoms: C_2  and  C_13
    4  A    between atoms: O_3  and  C_4
    5  A    between atoms: O_3  and  C_12
    6  A    between atoms: C_6  and  C_12
    7  A    between atoms: C_11  and  C_14
    8  A    between atoms: C_19  and  C_37
                            x       y       z     vdW  Elec       q    Type
                         _______ _______ _______ _____ _____    ______ ____

>  <TORSDO>
F 8

$$$$
=
 OpenBabel10262422173D

 43 50  0  0  1  0  0  0  0  0999 V2000
  188.0000  177.7680  148.2050 C   0  0  0  0  0  0  0  0  0  0  0  0
  188.5400  177.5710  143.2120 N   0  0  0  0  0  0  0  0  0  0  0  0
  186.1200  178.6040  142.2390 C   0  0  0  0  0  0  0  0  0  0  0  0
  188.8450  177.3890  145.9610 C   0  0  0  0  0  0  0  0  0  0  0  0
  186.7970  178.2390  147.6790 C   0  0  0  0  0  3  0  0  0  0  0  0
  188.1810  177.7190  149.5470 F   0  0  0  0  0  0  0  0  0  0  0  0
  187.6310  177.8740  145.4230 C   0  0  0  0  0  0  0  0  0  0  0  0
  189.0190  177.3460  147.3480 C   0  0  0  0  0  3  0  0  0  0  0  0
  186.6130  178.2920  146.2960 C   0  0  0  0  0  3  0  0  0  0  0  0
  186.2600  178.4770  143.5250 N   0  0  0  0  0  0  0  0  0  0  0  0
  187.4720  177.9590  144.0940 C   0  0  0  0  0  0  0  0  0  0  0  0
  189.7540  176.9380  143.7300 C   0  0  0  0  0  2  0  0  0  0  0  0
  188.3730  177.7360  141.7940 C   0  0  0  0  0  0  0  0  0  0  0  0
  187.2230  178.2420  141.3240 C   0  0  0  0  0  3  0  0  0  0  0  0
  189.8130  176.9840  145.1930 N   0  0  0  0  0  0  0  0  0  0  0  0
  184.8490  179.1690  141.6940 C   0  0  2  0  0  3  0  0  0  0  0  0
  183.8660  178.0820  141.4710 C   0  0  2  0  0  3  0  0  0  0  0  0
  184.5960  178.6500  140.4100 O   0  0  0  0  0  0  0  0  0  0  0  0
  182.4830  178.6350  141.4890 C   0  0  0  0  0  0  0  0  0  0  0  0
  181.8860  178.8050  142.5890 O   0  0  0  0  0  0  0  0  0  0  0  0
  181.8710  178.9880  140.2830 O   0  0  0  0  0  0  0  0  0  0  0  0
  181.0270  178.0940  139.5650 C   0  0  2  0  0  3  0  0  0  0  0  0
  181.6920  175.5800  138.5020 S   0  0  0  0  0  0  0  0  0  0  0  0
  182.7910  178.1650  137.5900 C   0  0  2  0  0  3  0  0  0  0  0  0
  180.5540  177.0020  140.5050 C   0  0  0  0  0  2  0  0  0  0  0  0
  181.7920  177.3930  138.4570 C   0  0  2  0  0  0  0  0  0  0  0  0
  181.3730  177.9080  137.0990 C   0  0  0  0  0  2  0  0  0  0  0  0
  180.3300  175.7370  139.6940 C   0  0  0  0  0  2  0  0  0  0  0  0
  183.7950  177.2660  136.9250 C   0  0  0  0  0  0  0  0  0  0  0  0
  184.5090  175.9250  135.0270 C   0  0  0  0  0  3  0  0  0  0  0  0
  186.0010  176.2470  136.9090 C   0  0  0  0  0  3  0  0  0  0  0  0
  185.7360  175.6870  135.6550 C   0  0  0  0  0  3  0  0  0  0  0  0
  185.0350  177.0400  137.5380 C   0  0  0  0  0  3  0  0  0  0  0  0
  183.5440  176.7190  135.6570 C   0  0  0  0  0  3  0  0  0  0  0  0
  189.4360  177.3920  140.9370 O   0  0  0  0  0  0  0  0  0  0  0  0
  189.1240  178.6280  137.4230 C   0  0  0  0  0  3  0  0  0  0  0  0
  189.4720  177.4710  136.7190 C   0  0  0  0  0  0  0  0  0  0  0  0
  189.7920  176.3000  138.8200 C   0  0  0  0  0  3  0  0  0  0  0  0
  189.1110  178.6210  138.8210 C   0  0  0  0  0  3  0  0  0  0  0  0
  189.4530  177.4570  139.5330 C   0  0  0  0  0  0  0  0  0  0  0  0
  189.8040  176.3050  137.4220 C   0  0  0  0  0  3  0  0  0  0  0  0
  188.4070  177.4570  134.5940 O   0  0  0  0  0  0  0  0  0  0  0  0
  189.4800  177.5010  135.2530 C   0  0  0  0  0  3  0  0  0  0  0  0
  1  6  1  0  0  0  0
  2 12  1  0  0  0  0
  2 11  1  0  0  0  0
  3 10  2  0  0  0  0
  4  8  1  0  0  0  0
  5  1  1  0  0  0  0
  7  4  1  0  0  0  0
  7  9  1  0  0  0  0
  8  1  2  0  0  0  0
  9  5  2  0  0  0  0
 10 11  1  0  0  0  0
 11  7  2  0  0  0  0
 12 15  1  0  0  0  0
 13  2  1  0  0  0  0
 14 13  2  0  0  0  0
 14  3  1  0  0  0  0
 15  4  2  0  0  0  0
 16  3  1  1  0  0  0
 17 19  1  6  0  0  0
 17 16  1  0  0  0  0
 18 17  1  0  0  0  0
 18 16  1  0  0  0  0
 19 20  2  0  0  0  0
 21 19  1  0  0  0  0
 22 21  1  1  0  0  0
 22 25  1  0  0  0  0
 23 28  1  0  0  0  0
 24 29  1  6  0  0  0
 24 26  1  0  0  0  0
 26 27  1  6  0  0  0
 26 23  1  0  0  0  0
 26 22  1  0  0  0  0
 27 24  1  0  0  0  0
 28 25  1  0  0  0  0
 29 33  1  0  0  0  0
 30 32  2  0  0  0  0
 30 34  1  0  0  0  0
 31 33  2  0  0  0  0
 32 31  1  0  0  0  0
 34 29  2  0  0  0  0
 35 13  1  0  0  0  0
 36 39  1  0  0  0  0
 37 41  1  0  0  0  0
 37 36  2  0  0  0  0
 38 40  1  0  0  0  0
 39 40  2  0  0  0  0
 40 35  1  0  0  0  0
 41 38  2  0  0  0  0
 42 43  2  0  0  0  0
 43 37  1  0  0  0  0
M  END
>  <MODEL>
3

>  <REMARK>
 VINA RESULT:      -8.6      1.778      2.095
  Name = 
  8 active torsions:
  status: ('A' for Active; 'I' for Inactive)
    1  A    between atoms: O_1  and  C_34
    2  A    between atoms: O_1  and  C_35
    3  A    between atoms: C_2  and  C_13
    4  A    between atoms: O_3  and  C_4
    5  A    between atoms: O_3  and  C_12
    6  A    between atoms: C_6  and  C_12
    7  A    between atoms: C_11  and  C_14
    8  A    between atoms: C_19  and  C_37
                            x       y       z     vdW  Elec       q    Type
                         _______ _______ _______ _____ _____    ______ ____

>  <TORSDO>
F 8

$$$$
=
 OpenBabel10262422173D

 43 50  0  0  1  0  0  0  0  0999 V2000
  188.0250  177.4110  147.5290 C   0  0  0  0  0  0  0  0  0  0  0  0
  188.6610  177.8370  142.5610 N   0  0  0  0  0  0  0  0  0  0  0  0
  186.1290  178.6040  141.6280 C   0  0  0  0  0  0  0  0  0  0  0  0
  188.9490  177.4060  145.2840 C   0  0  0  0  0  0  0  0  0  0  0  0
  186.7730  177.7540  147.0180 C   0  0  0  0  0  3  0  0  0  0  0  0
  188.1910  177.2440  148.8630 F   0  0  0  0  0  0  0  0  0  0  0  0
  187.6850  177.7620  144.7630 C   0  0  0  0  0  0  0  0  0  0  0  0
  189.1080  177.2380  146.6640 C   0  0  0  0  0  3  0  0  0  0  0  0
  186.6030  177.9300  145.6430 C   0  0  0  0  0  3  0  0  0  0  0  0
  186.2680  178.3600  142.8970 N   0  0  0  0  0  0  0  0  0  0  0  0
  187.5350  177.9670  143.4460 C   0  0  0  0  0  0  0  0  0  0  0  0
  189.9480  177.3370  143.0470 C   0  0  0  0  0  2  0  0  0  0  0  0
  188.4920  178.1280  141.1640 C   0  0  0  0  0  0  0  0  0  0  0  0
  187.2870  178.5080  140.7150 C   0  0  0  0  0  3  0  0  0  0  0  0
  189.9790  177.2320  144.5080 N   0  0  0  0  0  0  0  0  0  0  0  0
  184.7960  179.0320  141.1080 C   0  0  2  0  0  3  0  0  0  0  0  0
  184.5310  178.3840  139.8000 C   0  0  2  0  0  3  0  0  0  0  0  0
  184.9480  179.7250  139.8910 O   0  0  0  0  0  0  0  0  0  0  0  0
  183.0630  178.3240  139.5510 C   0  0  0  0  0  0  0  0  0  0  0  0
  182.3870  177.3550  139.9960 O   0  0  0  0  0  0  0  0  0  0  0  0
  182.4470  179.3610  138.8460 O   0  0  0  0  0  0  0  0  0  0  0  0
  181.3180  179.1490  138.0050 C   0  0  2  0  0  3  0  0  0  0  0  0
  180.4990  180.6930  135.8050 S   0  0  0  0  0  0  0  0  0  0  0  0
  180.5210  181.6000  138.6140 C   0  0  2  0  0  3  0  0  0  0  0  0
  181.7810  178.4900  136.7190 C   0  0  0  0  0  2  0  0  0  0  0  0
  180.6860  180.4670  137.5980 C   0  0  2  0  0  0  0  0  0  0  0  0
  179.3590  180.6700  138.2920 C   0  0  0  0  0  2  0  0  0  0  0  0
  180.8500  178.9220  135.5980 C   0  0  0  0  0  2  0  0  0  0  0  0
  180.3690  182.9450  137.9630 C   0  0  0  0  0  0  0  0  0  0  0  0
  181.3030  184.8200  136.7290 C   0  0  0  0  0  3  0  0  0  0  0  0
  178.9310  184.7550  137.2140 C   0  0  0  0  0  3  0  0  0  0  0  0
  180.0340  185.4030  136.6510 C   0  0  0  0  0  3  0  0  0  0  0  0
  179.0980  183.5260  137.8630 C   0  0  0  0  0  3  0  0  0  0  0  0
  181.4690  183.5910  137.3770 C   0  0  0  0  0  3  0  0  0  0  0  0
  189.6070  178.0400  140.3080 O   0  0  0  0  0  0  0  0  0  0  0  0
  189.1930  178.0020  136.5940 C   0  0  0  0  0  3  0  0  0  0  0  0
  189.6350  176.7080  136.3050 C   0  0  0  0  0  0  0  0  0  0  0  0
  190.0510  176.3340  138.6670 C   0  0  0  0  0  3  0  0  0  0  0  0
  189.1810  178.4610  137.9140 C   0  0  0  0  0  3  0  0  0  0  0  0
  189.6180  177.6320  138.9630 C   0  0  0  0  0  0  0  0  0  0  0  0
  190.0630  175.8730  137.3470 C   0  0  0  0  0  3  0  0  0  0  0  0
  189.1460  175.1320  134.5940 O   0  0  0  0  0  0  0  0  0  0  0  0
  189.6410  176.2470  134.9140 C   0  0  0  0  0  3  0  0  0  0  0  0
  1  6  1  0  0  0  0
  2 12  1  0  0  0  0
  2 11  1  0  0  0  0
  3 10  2  0  0  0  0
  4  8  1  0  0  0  0
  5  1  1  0  0  0  0
  7  4  1  0  0  0  0
  7  9  1  0  0  0  0
  8  1  2  0  0  0  0
  9  5  2  0  0  0  0
 10 11  1  0  0  0  0
 11  7  2  0  0  0  0
 12 15  1  0  0  0  0
 13  2  1  0  0  0  0
 14 13  2  0  0  0  0
 14  3  1  0  0  0  0
 15  4  2  0  0  0  0
 16  3  1  6  0  0  0
 17 19  1  1  0  0  0
 17 18  1  0  0  0  0
 17 16  1  0  0  0  0
 18 16  1  0  0  0  0
 19 20  2  0  0  0  0
 21 19  1  0  0  0  0
 22 21  1  1  0  0  0
 23 26  1  0  0  0  0
 24 29  1  6  0  0  0
 25 22  1  0  0  0  0
 26 22  1  0  0  0  0
 26 27  1  1  0  0  0
 26 24  1  0  0  0  0
 27 24  1  0  0  0  0
 28 23  1  0  0  0  0
 28 25  1  0  0  0  0
 30 34  1  0  0  0  0
 31 33  2  0  0  0  0
 32 30  2  0  0  0  0
 32 31  1  0  0  0  0
 33 29  1  0  0  0  0
 34 29  2  0  0  0  0
 35 13  1  0  0  0  0
 36 39  1  0  0  0  0
 37 36  2  0  0  0  0
 37 41  1  0  0  0  0
 38 40  1  0  0  0  0
 39 40  2  0  0  0  0
 40 35  1  0  0  0  0
 41 38  2  0  0  0  0
 42 43  2  0  0  0  0
 43 37  1  0  0  0  0
M  END
>  <MODEL>
4

>  <REMARK>
 VINA RESULT:      -8.6      2.861      4.241
  Name = 
  8 active torsions:
  status: ('A' for Active; 'I' for Inactive)
    1  A    between atoms: O_1  and  C_34
    2  A    between atoms: O_1  and  C_35
    3  A    between atoms: C_2  and  C_13
    4  A    between atoms: O_3  and  C_4
    5  A    between atoms: O_3  and  C_12
    6  A    between atoms: C_6  and  C_12
    7  A    between atoms: C_11  and  C_14
    8  A    between atoms: C_19  and  C_37
                            x       y       z     vdW  Elec       q    Type
                         _______ _______ _______ _____ _____    ______ ____

>  <TORSDO>
F 8

$$$$
=
 OpenBabel10262422173D

 43 50  0  0  1  0  0  0  0  0999 V2000
  180.3900  174.2520  138.0920 C   0  0  0  0  0  0  0  0  0  0  0  0
  184.2350  177.4530  138.5710 N   0  0  0  0  0  0  0  0  0  0  0  0
  183.8190  178.6210  141.0880 C   0  0  0  0  0  0  0  0  0  0  0  0
  182.3840  175.5810  137.7040 C   0  0  0  0  0  0  0  0  0  0  0  0
  180.1990  174.8860  139.3190 C   0  0  0  0  0  3  0  0  0  0  0  0
  179.5190  173.3000  137.6770 F   0  0  0  0  0  0  0  0  0  0  0  0
  182.2000  176.2200  138.9520 C   0  0  0  0  0  0  0  0  0  0  0  0
  181.4790  174.5980  137.2890 C   0  0  0  0  0  3  0  0  0  0  0  0
  181.0990  175.8640  139.7480 C   0  0  0  0  0  3  0  0  0  0  0  0
  182.9380  177.7710  140.6530 N   0  0  0  0  0  0  0  0  0  0  0  0
  183.0870  177.1320  139.3760 C   0  0  0  0  0  0  0  0  0  0  0  0
  184.3820  176.9130  137.2190 C   0  0  0  0  0  2  0  0  0  0  0  0
  185.2080  178.3820  139.0780 C   0  0  0  0  0  0  0  0  0  0  0  0
  185.0210  178.9320  140.2860 C   0  0  0  0  0  3  0  0  0  0  0  0
  183.3840  175.8820  136.9290 N   0  0  0  0  0  0  0  0  0  0  0  0
  183.6330  179.2440  142.4330 C   0  0  2  0  0  3  0  0  0  0  0  0
  183.9290  178.2530  143.4950 C   0  0  2  0  0  3  0  0  0  0  0  0
  182.6080  178.5830  143.1380 O   0  0  0  0  0  0  0  0  0  0  0  0
  184.3050  178.9550  144.7550 C   0  0  0  0  0  0  0  0  0  0  0  0
  183.4130  179.4990  145.4650 O   0  0  0  0  0  0  0  0  0  0  0  0
  185.6450  178.9780  145.1510 O   0  0  0  0  0  0  0  0  0  0  0  0
  186.2430  177.9160  145.8870 C   0  0  2  0  0  3  0  0  0  0  0  0
  188.9750  177.4930  146.3830 S   0  0  0  0  0  0  0  0  0  0  0  0
  187.6810  177.3600  143.7330 C   0  0  2  0  0  3  0  0  0  0  0  0
  186.5910  178.4160  147.2760 C   0  0  0  0  0  2  0  0  0  0  0  0
  187.5530  177.4840  145.2540 C   0  0  2  0  0  0  0  0  0  0  0  0
  187.4170  176.1320  144.5940 C   0  0  0  0  0  2  0  0  0  0  0  0
  187.8090  177.6510  147.7670 C   0  0  0  0  0  2  0  0  0  0  0  0
  189.1070  177.4300  143.2640 C   0  0  0  0  0  0  0  0  0  0  0  0
  191.1760  178.6660  142.9480 C   0  0  0  0  0  3  0  0  0  0  0  0
  191.0910  176.3000  142.4330 C   0  0  0  0  0  3  0  0  0  0  0  0
  191.8030  177.5020  142.4910 C   0  0  0  0  0  3  0  0  0  0  0  0
  189.7480  176.2630  142.8250 C   0  0  0  0  0  3  0  0  0  0  0  0
  189.8330  178.6280  143.3400 C   0  0  0  0  0  3  0  0  0  0  0  0
  186.3510  178.6620  138.3050 O   0  0  0  0  0  0  0  0  0  0  0  0
  189.1690  176.2980  137.6400 C   0  0  0  0  0  3  0  0  0  0  0  0
  190.1020  176.7500  138.5770 C   0  0  0  0  0  0  0  0  0  0  0  0
  188.5340  178.4550  139.3010 C   0  0  0  0  0  3  0  0  0  0  0  0
  187.9220  176.9220  137.5340 C   0  0  0  0  0  3  0  0  0  0  0  0
  187.5970  178.0130  138.3590 C   0  0  0  0  0  0  0  0  0  0  0  0
  189.7810  177.8310  139.4090 C   0  0  0  0  0  3  0  0  0  0  0  0
  191.5420  174.8740  138.3390 O   0  0  0  0  0  0  0  0  0  0  0  0
  191.4030  176.0820  138.6710 C   0  0  0  0  0  3  0  0  0  0  0  0
  1  5  1  0  0  0  0
  2 13  1  0  0  0  0
  2 11  1  0  0  0  0
  4  7  1  0  0  0  0
  5  9  2  0  0  0  0
  6  1  1  0  0  0  0
  7 11  2  0  0  0  0
  7  9  1  0  0  0  0
  8  4  1  0  0  0  0
  8  1  2  0  0  0  0
 10  3  2  0  0  0  0
 11 10  1  0  0  0  0
 12  2  1  0  0  0  0
 13 14  2  0  0  0  0
 14  3  1  0  0  0  0
 15 12  1  0  0  0  0
 15  4  2  0  0  0  0
 16  3  1  6  0  0  0
 16 18  1  0  0  0  0
 16 17  1  0  0  0  0
 17 19  1  1  0  0  0
 18 17  1  0  0  0  0
 19 21  1  0  0  0  0
 19 20  2  0  0  0  0
 22 21  1  6  0  0  0
 22 25  1  0  0  0  0
 23 28  1  0  0  0  0
 24 29  1  1  0  0  0
 24 27  1  0  0  0  0
 24 26  1  0  0  0  0
 25 28  1  0  0  0  0
 26 27  1  1  0  0  0
 26 22  1  0  0  0  0
 26 23  1  0  0  0  0
 29 34  1  0  0  0  0
 30 34  2  0  0  0  0
 31 32  2  0  0  0  0
 31 33  1  0  0  0  0
 32 30  1  0  0  0  0
 33 29  2  0  0  0  0
 35 40  1  0  0  0  0
 35 13  1  0  0  0  0
 36 37  1  0  0  0  0
 37 43  1  0  0  0  0
 37 41  2  0  0  0  0
 38 41  1  0  0  0  0
 39 36  2  0  0  0  0
 39 40  1  0  0  0  0
 40 38  2  0  0  0  0
 42 43  2  0  0  0  0
M  END
>  <MODEL>
5

>  <REMARK>
 VINA RESULT:      -8.5      4.075      7.954
  Name = 
  8 active torsions:
  status: ('A' for Active; 'I' for Inactive)
    1  A    between atoms: O_1  and  C_34
    2  A    between atoms: O_1  and  C_35
    3  A    between atoms: C_2  and  C_13
    4  A    between atoms: O_3  and  C_4
    5  A    between atoms: O_3  and  C_12
    6  A    between atoms: C_6  and  C_12
    7  A    between atoms: C_11  and  C_14
    8  A    between atoms: C_19  and  C_37
                            x       y       z     vdW  Elec       q    Type
                         _______ _______ _______ _____ _____    ______ ____

>  <TORSDO>
F 8

$$$$
=
 OpenBabel10262422173D

 43 50  0  0  1  0  0  0  0  0999 V2000
  191.3000  176.5350  146.9640 C   0  0  0  0  0  0  0  0  0  0  0  0
  187.1130  177.8720  144.5280 N   0  0  0  0  0  0  0  0  0  0  0  0
  187.9850  178.3170  141.8990 C   0  0  0  0  0  0  0  0  0  0  0  0
  189.0130  177.1210  146.4000 C   0  0  0  0  0  0  0  0  0  0  0  0
  191.6990  176.8050  145.6550 C   0  0  0  0  0  3  0  0  0  0  0  0
  192.2110  176.1210  147.8790 F   0  0  0  0  0  0  0  0  0  0  0  0
  189.4100  177.3880  145.0700 C   0  0  0  0  0  0  0  0  0  0  0  0
  189.9620  176.6920  147.3340 C   0  0  0  0  0  3  0  0  0  0  0  0
  190.7590  177.2290  144.7130 C   0  0  0  0  0  3  0  0  0  0  0  0
  188.8720  178.0040  142.7950 N   0  0  0  0  0  0  0  0  0  0  0  0
  188.4980  177.7580  144.1590 C   0  0  0  0  0  0  0  0  0  0  0  0
  186.6900  177.7380  145.9230 C   0  0  0  0  0  2  0  0  0  0  0  0
  186.1430  178.2020  143.5190 C   0  0  0  0  0  0  0  0  0  0  0  0
  186.5540  178.4030  142.2580 C   0  0  0  0  0  3  0  0  0  0  0  0
  187.7770  177.2610  146.7810 N   0  0  0  0  0  0  0  0  0  0  0  0
  188.4190  178.5420  140.4870 C   0  0  2  0  0  3  0  0  0  0  0  0
  188.0480  177.3750  139.6520 C   0  0  2  0  0  3  0  0  0  0  0  0
  189.3650  177.5700  140.1080 O   0  0  0  0  0  0  0  0  0  0  0  0
  187.9390  177.7860  138.2230 C   0  0  0  0  0  0  0  0  0  0  0  0
  187.0350  178.5920  137.8660 O   0  0  0  0  0  0  0  0  0  0  0  0
  188.8630  177.2930  137.2980 O   0  0  0  0  0  0  0  0  0  0  0  0
  188.5670  176.2060  136.4280 C   0  0  2  0  0  3  0  0  0  0  0  0
  189.5760  173.5870  136.5440 S   0  0  0  0  0  0  0  0  0  0  0  0
  191.1650  176.0030  135.9520 C   0  0  2  0  0  3  0  0  0  0  0  0
  187.5540  175.2990  137.1010 C   0  0  0  0  0  2  0  0  0  0  0  0
  189.7980  175.3530  136.1830 C   0  0  2  0  0  0  0  0  0  0  0  0
  190.3160  175.5390  134.7760 C   0  0  0  0  0  2  0  0  0  0  0  0
  187.7840  173.8790  136.6110 C   0  0  0  0  0  2  0  0  0  0  0  0
  192.3060  175.0690  136.2340 C   0  0  0  0  0  0  0  0  0  0  0  0
  194.0050  173.5060  135.4700 C   0  0  0  0  0  3  0  0  0  0  0  0
  193.9300  174.1640  137.8010 C   0  0  0  0  0  3  0  0  0  0  0  0
  194.5130  173.4190  136.7710 C   0  0  0  0  0  3  0  0  0  0  0  0
  192.8340  174.9920  137.5310 C   0  0  0  0  0  3  0  0  0  0  0  0
  192.9100  174.3350  135.2010 C   0  0  0  0  0  3  0  0  0  0  0  0
  184.7830  178.2730  143.8760 O   0  0  0  0  0  0  0  0  0  0  0  0
  182.6360  178.4600  140.8220 C   0  0  0  0  0  3  0  0  0  0  0  0
  181.4510  178.9510  141.3790 C   0  0  0  0  0  0  0  0  0  0  0  0
  182.5000  178.9740  143.5670 C   0  0  0  0  0  3  0  0  0  0  0  0
  183.7480  178.2260  141.6350 C   0  0  0  0  0  3  0  0  0  0  0  0
  183.6870  178.4740  143.0180 C   0  0  0  0  0  0  0  0  0  0  0  0
  181.3860  179.2100  142.7540 C   0  0  0  0  0  3  0  0  0  0  0  0
  179.3670  179.9670  140.8540 O   0  0  0  0  0  0  0  0  0  0  0  0
  180.2960  179.1890  140.5070 C   0  0  0  0  0  3  0  0  0  0  0  0
  1  8  2  0  0  0  0
  1  6  1  0  0  0  0
  2 12  1  0  0  0  0
  3 14  1  0  0  0  0
  3 10  2  0  0  0  0
  4 15  2  0  0  0  0
  4  8  1  0  0  0  0
  5  1  1  0  0  0  0
  7  4  1  0  0  0  0
  9  7  1  0  0  0  0
  9  5  2  0  0  0  0
 10 11  1  0  0  0  0
 11  2  1  0  0  0  0
 11  7  2  0  0  0  0
 12 15  1  0  0  0  0
 13 35  1  0  0  0  0
 13  2  1  0  0  0  0
 14 13  2  0  0  0  0
 16  3  1  1  0  0  0
 17 19  1  6  0  0  0
 17 18  1  0  0  0  0
 17 16  1  0  0  0  0
 18 16  1  0  0  0  0
 20 19  2  0  0  0  0
 21 19  1  0  0  0  0
 22 25  1  0  0  0  0
 22 21  1  1  0  0  0
 23 28  1  0  0  0  0
 24 26  1  0  0  0  0
 24 29  1  1  0  0  0
 26 27  1  6  0  0  0
 26 22  1  0  0  0  0
 26 23  1  0  0  0  0
 27 24  1  0  0  0  0
 28 25  1  0  0  0  0
 29 33  1  0  0  0  0
 30 32  2  0  0  0  0
 32 31  1  0  0  0  0
 33 31  2  0  0  0  0
 34 30  1  0  0  0  0
 34 29  2  0  0  0  0
 36 37  2  0  0  0  0
 36 39  1  0  0  0  0
 37 41  1  0  0  0  0
 39 40  2  0  0  0  0
 40 38  1  0  0  0  0
 40 35  1  0  0  0  0
 41 38  2  0  0  0  0
 43 42  2  0  0  0  0
 43 37  1  0  0  0  0
M  END
>  <MODEL>
6

>  <REMARK>
 VINA RESULT:      -8.3      2.765      7.035
  Name = 
  8 active torsions:
  status: ('A' for Active; 'I' for Inactive)
    1  A    between atoms: O_1  and  C_34
    2  A    between atoms: O_1  and  C_35
    3  A    between atoms: C_2  and  C_13
    4  A    between atoms: O_3  and  C_4
    5  A    between atoms: O_3  and  C_12
    6  A    between atoms: C_6  and  C_12
    7  A    between atoms: C_11  and  C_14
    8  A    between atoms: C_19  and  C_37
                            x       y       z     vdW  Elec       q    Type
                         _______ _______ _______ _____ _____    ______ ____

>  <TORSDO>
F 8

$$$$
=
 OpenBabel10262422173D

 43 50  0  0  1  0  0  0  0  0999 V2000
  188.0970  177.5150  147.5250 C   0  0  0  0  0  0  0  0  0  0  0  0
  188.6740  177.7670  142.5380 N   0  0  0  0  0  0  0  0  0  0  0  0
  186.1280  178.4920  141.6090 C   0  0  0  0  0  0  0  0  0  0  0  0
  188.9960  177.4330  145.2710 C   0  0  0  0  0  0  0  0  0  0  0  0
  186.8380  177.8360  147.0180 C   0  0  0  0  0  3  0  0  0  0  0  0
  188.2800  177.3960  148.8620 F   0  0  0  0  0  0  0  0  0  0  0  0
  187.7230  177.7670  144.7520 C   0  0  0  0  0  0  0  0  0  0  0  0
  189.1710  177.3150  146.6540 C   0  0  0  0  0  3  0  0  0  0  0  0
  186.6520  177.9620  145.6390 C   0  0  0  0  0  3  0  0  0  0  0  0
  186.2830  178.2930  142.8840 N   0  0  0  0  0  0  0  0  0  0  0  0
  187.5570  177.9240  143.4310 C   0  0  0  0  0  0  0  0  0  0  0  0
  189.9680  177.2880  143.0270 C   0  0  0  0  0  2  0  0  0  0  0  0
  188.4880  178.0080  141.1330 C   0  0  0  0  0  0  0  0  0  0  0  0
  187.2760  178.3680  140.6860 C   0  0  0  0  0  3  0  0  0  0  0  0
  190.0160  177.2360  144.4890 N   0  0  0  0  0  0  0  0  0  0  0  0
  184.7880  178.8970  141.0890 C   0  0  2  0  0  3  0  0  0  0  0  0
  184.6170  178.4150  139.6980 C   0  0  2  0  0  3  0  0  0  0  0  0
  184.9330  179.7560  139.9830 O   0  0  0  0  0  0  0  0  0  0  0  0
  183.1670  178.2920  139.3760 C   0  0  0  0  0  0  0  0  0  0  0  0
  182.4690  179.3290  139.2040 O   0  0  0  0  0  0  0  0  0  0  0  0
  182.6030  177.0200  139.2390 O   0  0  0  0  0  0  0  0  0  0  0  0
  181.9490  176.5980  138.0470 C   0  0  2  0  0  3  0  0  0  0  0  0
  182.1590  174.1110  136.7590 S   0  0  0  0  0  0  0  0  0  0  0  0
  184.3410  176.0820  137.0310 C   0  0  2  0  0  3  0  0  0  0  0  0
  180.7620  175.7300  138.4180 C   0  0  0  0  0  2  0  0  0  0  0  0
  182.8620  175.7250  137.2050 C   0  0  2  0  0  0  0  0  0  0  0  0
  183.3200  176.4570  135.9650 C   0  0  0  0  0  2  0  0  0  0  0  0
  180.5380  174.7240  137.3020 C   0  0  0  0  0  2  0  0  0  0  0  0
  185.1770  174.9020  136.6270 C   0  0  0  0  0  0  0  0  0  0  0  0
  186.4760  173.6940  134.9640 C   0  0  0  0  0  3  0  0  0  0  0  0
  186.3790  172.8810  137.2440 C   0  0  0  0  0  3  0  0  0  0  0  0
  186.8350  172.7470  135.9280 C   0  0  0  0  0  3  0  0  0  0  0  0
  185.5580  173.9590  137.5930 C   0  0  0  0  0  3  0  0  0  0  0  0
  185.6560  174.7730  135.3130 C   0  0  0  0  0  3  0  0  0  0  0  0
  189.5930  177.8930  140.2690 O   0  0  0  0  0  0  0  0  0  0  0  0
  188.8460  175.8810  137.2080 C   0  0  0  0  0  3  0  0  0  0  0  0
  190.0780  175.2480  137.0180 C   0  0  0  0  0  0  0  0  0  0  0  0
  190.9540  176.3850  138.9750 C   0  0  0  0  0  3  0  0  0  0  0  0
  188.6690  176.7630  138.2780 C   0  0  0  0  0  3  0  0  0  0  0  0
  189.7260  177.0290  139.1670 C   0  0  0  0  0  0  0  0  0  0  0  0
  191.1320  175.5010  137.9060 C   0  0  0  0  0  3  0  0  0  0  0  0
  189.8750  174.6470  134.7270 O   0  0  0  0  0  0  0  0  0  0  0  0
  190.2430  174.3270  135.8890 C   0  0  0  0  0  3  0  0  0  0  0  0
  1  6  1  0  0  0  0
  2 12  1  0  0  0  0
  2 11  1  0  0  0  0
  3 10  2  0  0  0  0
  4  8  1  0  0  0  0
  5  1  1  0  0  0  0
  7  4  1  0  0  0  0
  7  9  1  0  0  0  0
  8  1  2  0  0  0  0
  9  5  2  0  0  0  0
 10 11  1  0  0  0  0
 11  7  2  0  0  0  0
 12 15  1  0  0  0  0
 13  2  1  0  0  0  0
 14 13  2  0  0  0  0
 14  3  1  0  0  0  0
 15  4  2  0  0  0  0
 16  3  1  6  0  0  0
 17 19  1  1  0  0  0
 17 18  1  0  0  0  0
 17 16  1  0  0  0  0
 18 16  1  0  0  0  0
 20 19  2  0  0  0  0
 21 19  1  0  0  0  0
 22 25  1  0  0  0  0
 22 21  1  1  0  0  0
 23 26  1  0  0  0  0
 23 28  1  0  0  0  0
 24 29  1  6  0  0  0
 24 26  1  0  0  0  0
 26 27  1  6  0  0  0
 26 22  1  0  0  0  0
 27 24  1  0  0  0  0
 28 25  1  0  0  0  0
 29 33  1  0  0  0  0
 30 34  1  0  0  0  0
 30 32  2  0  0  0  0
 31 33  2  0  0  0  0
 32 31  1  0  0  0  0
 34 29  2  0  0  0  0
 35 13  1  0  0  0  0
 36 39  1  0  0  0  0
 37 36  2  0  0  0  0
 37 41  1  0  0  0  0
 38 40  1  0  0  0  0
 39 40  2  0  0  0  0
 40 35  1  0  0  0  0
 41 38  2  0  0  0  0
 42 43  2  0  0  0  0
 43 37  1  0  0  0  0
M  END
>  <MODEL>
7

>  <REMARK>
 VINA RESULT:      -8.3      2.044      2.790
  Name = 
  8 active torsions:
  status: ('A' for Active; 'I' for Inactive)
    1  A    between atoms: O_1  and  C_34
    2  A    between atoms: O_1  and  C_35
    3  A    between atoms: C_2  and  C_13
    4  A    between atoms: O_3  and  C_4
    5  A    between atoms: O_3  and  C_12
    6  A    between atoms: C_6  and  C_12
    7  A    between atoms: C_11  and  C_14
    8  A    between atoms: C_19  and  C_37
                            x       y       z     vdW  Elec       q    Type
                         _______ _______ _______ _____ _____    ______ ____

>  <TORSDO>
F 8

$$$$
=
 OpenBabel10262422173D

 43 50  0  0  1  0  0  0  0  0999 V2000
  188.1430  177.2660  147.0470 C   0  0  0  0  0  0  0  0  0  0  0  0
  188.7080  177.8630  142.0890 N   0  0  0  0  0  0  0  0  0  0  0  0
  186.1420  178.5760  141.2060 C   0  0  0  0  0  0  0  0  0  0  0  0
  189.0410  177.3590  144.7930 C   0  0  0  0  0  0  0  0  0  0  0  0
  186.8750  177.5840  146.5610 C   0  0  0  0  0  3  0  0  0  0  0  0
  188.3290  177.0640  148.3740 F   0  0  0  0  0  0  0  0  0  0  0  0
  187.7600  177.6900  144.2970 C   0  0  0  0  0  0  0  0  0  0  0  0
  189.2210  177.1550  146.1660 C   0  0  0  0  0  3  0  0  0  0  0  0
  186.6840  177.7960  145.1930 C   0  0  0  0  0  3  0  0  0  0  0  0
  186.3030  178.2980  142.4660 N   0  0  0  0  0  0  0  0  0  0  0  0
  187.5880  177.9300  142.9880 C   0  0  0  0  0  0  0  0  0  0  0  0
  190.0150  177.3900  142.5450 C   0  0  0  0  0  2  0  0  0  0  0  0
  188.5140  178.1910  140.7020 C   0  0  0  0  0  0  0  0  0  0  0  0
  187.2920  178.5460  140.2780 C   0  0  0  0  0  3  0  0  0  0  0  0
  190.0660  177.2420  144.0020 N   0  0  0  0  0  0  0  0  0  0  0  0
  184.7900  178.9770  140.7130 C   0  0  2  0  0  3  0  0  0  0  0  0
  184.5740  178.4490  139.3450 C   0  0  2  0  0  3  0  0  0  0  0  0
  184.9110  179.7960  139.5740 O   0  0  0  0  0  0  0  0  0  0  0  0
  183.1130  178.3300  139.0710 C   0  0  0  0  0  0  0  0  0  0  0  0
  182.4990  179.2770  138.5040 O   0  0  0  0  0  0  0  0  0  0  0  0
  182.4460  177.1540  139.4220 O   0  0  0  0  0  0  0  0  0  0  0  0
  181.2210  176.7590  138.8120 C   0  0  2  0  0  3  0  0  0  0  0  0
  180.3260  174.1490  138.2870 S   0  0  0  0  0  0  0  0  0  0  0  0
  182.6520  175.4450  137.0110 C   0  0  2  0  0  3  0  0  0  0  0  0
  180.2510  176.3260  139.8940 C   0  0  0  0  0  2  0  0  0  0  0  0
  181.4230  175.5490  137.9190 C   0  0  2  0  0  0  0  0  0  0  0  0
  181.3170  175.9280  136.4600 C   0  0  0  0  0  2  0  0  0  0  0  0
  179.3280  175.2670  139.3130 C   0  0  0  0  0  2  0  0  0  0  0  0
  182.9560  174.0300  136.6080 C   0  0  0  0  0  0  0  0  0  0  0  0
  182.7320  172.1750  135.0520 C   0  0  0  0  0  3  0  0  0  0  0  0
  184.2070  171.9770  136.9630 C   0  0  0  0  0  3  0  0  0  0  0  0
  183.6330  171.4250  135.8140 C   0  0  0  0  0  3  0  0  0  0  0  0
  183.8740  173.2790  137.3550 C   0  0  0  0  0  3  0  0  0  0  0  0
  182.4000  173.4770  135.4430 C   0  0  0  0  0  3  0  0  0  0  0  0
  189.6210  178.1640  139.8330 O   0  0  0  0  0  0  0  0  0  0  0  0
  189.4570  177.2470  136.2130 C   0  0  0  0  0  3  0  0  0  0  0  0
  189.9660  175.9450  136.2620 C   0  0  0  0  0  0  0  0  0  0  0  0
  190.2370  176.1510  138.6640 C   0  0  0  0  0  3  0  0  0  0  0  0
  189.3400  177.9980  137.3870 C   0  0  0  0  0  3  0  0  0  0  0  0
  189.7370  177.4580  138.6230 C   0  0  0  0  0  0  0  0  0  0  0  0
  190.3540  175.3980  137.4920 C   0  0  0  0  0  3  0  0  0  0  0  0
  190.5660  174.0120  135.0150 O   0  0  0  0  0  0  0  0  0  0  0  0
  190.0810  175.1760  135.0190 C   0  0  0  0  0  3  0  0  0  0  0  0
  1  6  1  0  0  0  0
  2 12  1  0  0  0  0
  2 11  1  0  0  0  0
  3 10  2  0  0  0  0
  4  8  1  0  0  0  0
  5  1  1  0  0  0  0
  7  4  1  0  0  0  0
  7  9  1  0  0  0  0
  8  1  2  0  0  0  0
  9  5  2  0  0  0  0
 10 11  1  0  0  0  0
 11  7  2  0  0  0  0
 12 15  1  0  0  0  0
 13  2  1  0  0  0  0
 14 13  2  0  0  0  0
 14  3  1  0  0  0  0
 15  4  2  0  0  0  0
 16  3  1  6  0  0  0
 17 19  1  1  0  0  0
 17 18  1  0  0  0  0
 17 16  1  0  0  0  0
 18 16  1  0  0  0  0
 19 21  1  0  0  0  0
 20 19  2  0  0  0  0
 22 21  1  1  0  0  0
 22 25  1  0  0  0  0
 23 28  1  0  0  0  0
 24 29  1  6  0  0  0
 24 26  1  0  0  0  0
 26 27  1  6  0  0  0
 26 23  1  0  0  0  0
 26 22  1  0  0  0  0
 27 24  1  0  0  0  0
 28 25  1  0  0  0  0
 29 33  1  0  0  0  0
 30 34  1  0  0  0  0
 30 32  2  0  0  0  0
 31 33  2  0  0  0  0
 32 31  1  0  0  0  0
 34 29  2  0  0  0  0
 35 13  1  0  0  0  0
 36 37  2  0  0  0  0
 36 39  1  0  0  0  0
 37 41  1  0  0  0  0
 39 40  2  0  0  0  0
 40 38  1  0  0  0  0
 40 35  1  0  0  0  0
 41 38  2  0  0  0  0
 42 43  2  0  0  0  0
 43 37  1  0  0  0  0
M  END
>  <MODEL>
8

>  <REMARK>
 VINA RESULT:      -8.0      2.117      2.797
  Name = 
  8 active torsions:
  status: ('A' for Active; 'I' for Inactive)
    1  A    between atoms: O_1  and  C_34
    2  A    between atoms: O_1  and  C_35
    3  A    between atoms: C_2  and  C_13
    4  A    between atoms: O_3  and  C_4
    5  A    between atoms: O_3  and  C_12
    6  A    between atoms: C_6  and  C_12
    7  A    between atoms: C_11  and  C_14
    8  A    between atoms: C_19  and  C_37
                            x       y       z     vdW  Elec       q    Type
                         _______ _______ _______ _____ _____    ______ ____

>  <TORSDO>
F 8

$$$$
=
 OpenBabel10262422173D

 43 50  0  0  1  0  0  0  0  0999 V2000
  188.0420  177.2400  147.1690 C   0  0  0  0  0  0  0  0  0  0  0  0
  185.9910  178.5590  142.7740 N   0  0  0  0  0  0  0  0  0  0  0  0
  188.0950  178.2600  140.9410 C   0  0  0  0  0  0  0  0  0  0  0  0
  186.5200  177.9990  145.4360 C   0  0  0  0  0  0  0  0  0  0  0  0
  189.0700  177.1430  146.2320 C   0  0  0  0  0  3  0  0  0  0  0  0
  188.2740  176.9230  148.4660 F   0  0  0  0  0  0  0  0  0  0  0  0
  187.5560  177.8930  144.4800 C   0  0  0  0  0  0  0  0  0  0  0  0
  186.7720  177.6660  146.7710 C   0  0  0  0  0  3  0  0  0  0  0  0
  188.8290  177.4670  144.8940 C   0  0  0  0  0  3  0  0  0  0  0  0
  188.3390  178.0390  142.1980 N   0  0  0  0  0  0  0  0  0  0  0  0
  187.3110  178.1690  143.1910 C   0  0  0  0  0  0  0  0  0  0  0  0
  184.9340  178.8110  143.7540 C   0  0  0  0  0  2  0  0  0  0  0  0
  185.7350  178.7830  141.3770 C   0  0  0  0  0  0  0  0  0  0  0  0
  186.7340  178.6280  140.4950 C   0  0  0  0  0  3  0  0  0  0  0  0
  185.3270  178.3960  145.1020 N   0  0  0  0  0  0  0  0  0  0  0  0
  189.1910  178.0900  139.9410 C   0  0  2  0  0  3  0  0  0  0  0  0
  188.7790  177.1220  138.8970 C   0  0  2  0  0  3  0  0  0  0  0  0
  189.6490  176.7580  139.9420 O   0  0  0  0  0  0  0  0  0  0  0  0
  189.5560  177.3590  137.6480 C   0  0  0  0  0  0  0  0  0  0  0  0
  189.1820  178.2460  136.8310 O   0  0  0  0  0  0  0  0  0  0  0  0
  190.7130  176.6120  137.4100 O   0  0  0  0  0  0  0  0  0  0  0  0
  190.8970  175.8450  136.2250 C   0  0  2  0  0  3  0  0  0  0  0  0
  192.2760  173.4130  135.9480 S   0  0  0  0  0  0  0  0  0  0  0  0
  193.5090  176.0050  136.6410 C   0  0  2  0  0  3  0  0  0  0  0  0
  189.9080  174.6950  136.2250 C   0  0  0  0  0  2  0  0  0  0  0  0
  192.2770  175.2120  136.1940 C   0  0  2  0  0  0  0  0  0  0  0  0
  193.1570  175.8820  135.1640 C   0  0  0  0  0  2  0  0  0  0  0  0
  190.5280  173.5310  135.4700 C   0  0  0  0  0  2  0  0  0  0  0  0
  194.6580  175.1190  137.0270 C   0  0  0  0  0  0  0  0  0  0  0  0
  196.8040  174.0910  136.5270 C   0  0  0  0  0  3  0  0  0  0  0  0
  195.8110  173.8090  138.7190 C   0  0  0  0  0  3  0  0  0  0  0  0
  196.8500  173.5550  137.8170 C   0  0  0  0  0  3  0  0  0  0  0  0
  194.7220  174.5950  138.3260 C   0  0  0  0  0  3  0  0  0  0  0  0
  195.7150  174.8780  136.1350 C   0  0  0  0  0  3  0  0  0  0  0  0
  184.4330  179.1250  140.9680 O   0  0  0  0  0  0  0  0  0  0  0  0
  182.3000  176.4650  139.4370 C   0  0  0  0  0  3  0  0  0  0  0  0
  181.9950  177.0630  138.2110 C   0  0  0  0  0  0  0  0  0  0  0  0
  183.3020  179.0070  138.8450 C   0  0  0  0  0  3  0  0  0  0  0  0
  183.1030  177.1360  140.3640 C   0  0  0  0  0  3  0  0  0  0  0  0
  183.6060  178.4180  140.0780 C   0  0  0  0  0  0  0  0  0  0  0  0
  182.5000  178.3370  137.9160 C   0  0  0  0  0  3  0  0  0  0  0  0
  181.5830  175.3370  136.6290 O   0  0  0  0  0  0  0  0  0  0  0  0
  181.1500  176.3420  137.2530 C   0  0  0  0  0  3  0  0  0  0  0  0
  1  6  1  0  0  0  0
  2 11  1  0  0  0  0
  2 12  1  0  0  0  0
  3 10  2  0  0  0  0
  4  8  1  0  0  0  0
  5  1  1  0  0  0  0
  7  9  1  0  0  0  0
  7  4  1  0  0  0  0
  8  1  2  0  0  0  0
  9  5  2  0  0  0  0
 10 11  1  0  0  0  0
 11  7  2  0  0  0  0
 12 15  1  0  0  0  0
 13  2  1  0  0  0  0
 14  3  1  0  0  0  0
 14 13  2  0  0  0  0
 15  4  2  0  0  0  0
 16 18  1  0  0  0  0
 16  3  1  1  0  0  0
 17 19  1  6  0  0  0
 17 16  1  0  0  0  0
 17 18  1  0  0  0  0
 20 19  2  0  0  0  0
 21 19  1  0  0  0  0
 22 21  1  1  0  0  0
 23 26  1  0  0  0  0
 24 29  1  6  0  0  0
 25 22  1  0  0  0  0
 26 27  1  6  0  0  0
 26 22  1  0  0  0  0
 26 24  1  0  0  0  0
 27 24  1  0  0  0  0
 28 23  1  0  0  0  0
 28 25  1  0  0  0  0
 29 33  1  0  0  0  0
 30 32  2  0  0  0  0
 32 31  1  0  0  0  0
 33 31  2  0  0  0  0
 34 30  1  0  0  0  0
 34 29  2  0  0  0  0
 35 13  1  0  0  0  0
 36 39  1  0  0  0  0
 37 36  2  0  0  0  0
 38 40  1  0  0  0  0
 40 39  2  0  0  0  0
 40 35  1  0  0  0  0
 41 37  1  0  0  0  0
 41 38  2  0  0  0  0
 42 43  2  0  0  0  0
 43 37  1  0  0  0  0
M  END
>  <MODEL>
9

>  <REMARK>
 VINA RESULT:      -7.9      3.920      7.957
  Name = 
  8 active torsions:
  status: ('A' for Active; 'I' for Inactive)
    1  A    between atoms: O_1  and  C_34
    2  A    between atoms: O_1  and  C_35
    3  A    between atoms: C_2  and  C_13
    4  A    between atoms: O_3  and  C_4
    5  A    between atoms: O_3  and  C_12
    6  A    between atoms: C_6  and  C_12
    7  A    between atoms: C_11  and  C_14
    8  A    between atoms: C_19  and  C_37
                            x       y       z     vdW  Elec       q    Type
                         _______ _______ _______ _____ _____    ______ ____

>  <TORSDO>
F 8

$$$$
