=
 OpenBabel10262423053D

 37 40  0  0  1  0  0  0  0  0999 V2000
  181.1900  178.9830  142.5290 C   0  0  0  0  0  3  0  0  0  0  0  0
  181.2830  179.5470  140.3360 O   0  0  0  0  0  1  0  0  0  0  0  0
  183.6560  178.6450  141.7090 C   0  0  2  0  0  3  0  0  0  0  0  0
  182.7010  175.7680  139.7730 O   0  0  0  0  0  1  0  0  0  0  0  0
  184.7810  177.9160  142.4260 C   0  0  0  0  0  2  0  0  0  0  0  0
  180.7770  178.5400  141.1870 C   0  0  1  0  0  0  0  0  0  0  0  0
  182.2160  177.0650  139.9270 C   0  0  1  0  0  0  0  0  0  0  0  0
  179.6830  177.6080  139.1660 C   0  0  2  0  0  3  0  0  0  0  0  0
  182.9790  179.4080  144.1050 C   0  0  0  0  0  3  0  0  0  0  0  0
  181.4050  177.1290  141.1420 C   0  0  0  0  0  2  0  0  0  0  0  0
  179.4210  178.2350  140.6050 C   0  0  0  0  0  2  0  0  0  0  0  0
  182.5370  179.0440  142.7490 C   0  0  0  0  0  0  0  0  0  0  0  0
  183.4020  178.0730  140.2230 C   0  0  2  0  0  3  0  0  0  0  0  0
  185.3330  178.8160  143.5310 C   0  0  1  0  0  3  0  0  0  0  0  0
  181.2170  177.4020  138.7500 C   0  0  0  0  0  2  0  0  0  0  0  0
  184.2560  179.2840  144.4780 C   0  0  0  0  0  3  0  0  0  0  0  0
  187.4080  177.3410  143.6780 C   0  0  0  0  0  3  0  0  0  0  0  0
  186.4350  178.1300  144.2660 C   0  0  0  0  0  0  0  0  0  0  0  0
  186.6370  178.1400  145.6320 C   0  0  0  0  0  3  0  0  0  0  0  0
  187.7120  177.3760  145.8830 N   0  0  0  0  0  0  0  0  0  0  0  0
  188.1940  176.8910  144.7240 C   0  0  0  0  0  3  0  0  0  0  0  0
  187.9770  178.3080  148.1160 C   0  0  0  0  0  1  0  0  0  0  0  0
  188.2890  177.1420  147.1970 C   0  0  0  0  0  2  0  0  0  0  0  0
  179.8970  179.0660  137.2880 O   0  0  0  0  0  1  0  0  0  0  0  0
  178.9670  178.4080  138.0940 C   0  0  0  0  0  2  0  0  0  0  0  0
  184.4950  178.2920  139.1340 C   0  0  1  0  0  0  0  0  0  0  0  0
  184.2550  180.6850  138.8050 O   0  0  0  0  0  1  0  0  0  0  0  0
  184.1230  179.4420  138.1800 C   0  0  0  0  0  2  0  0  0  0  0  0
  185.8620  178.5800  139.7860 C   0  0  0  0  0  2  0  0  0  0  0  0
  187.0510  178.2930  138.9220 C   0  0  0  0  0  0  0  0  0  0  0  0
  189.1530  176.9660  138.5180 C   0  0  0  0  0  1  0  0  0  0  0  0
  187.2180  178.9350  137.8500 O   0  0  0  0  0  0  0  0  0  0  0  0
  187.9790  177.2810  139.3140 N   0  0  0  0  0  2  0  0  0  0  0  0
  184.6100  176.9970  138.3110 C   0  0  0  0  0  2  0  0  0  0  0  0
  184.3700  177.1790  136.8140 C   0  0  1  0  0  3  0  0  0  0  0  0
  185.5720  176.6880  136.0340 C   0  0  0  0  0  1  0  0  0  0  0  0
  183.2480  176.4440  136.4350 O   0  0  0  0  0  1  0  0  0  0  0  0
  1 12  2  0  0  0  0
  3  5  1  1  0  0  0
  3 12  1  0  0  0  0
  5 14  1  0  0  0  0
  6  2  1  6  0  0  0
  6  1  1  0  0  0  0
  7  4  1  6  0  0  0
  7 13  1  0  0  0  0
  7 10  1  0  0  0  0
  8 25  1  6  0  0  0
  8 11  1  0  0  0  0
  9 16  2  0  0  0  0
 10  6  1  0  0  0  0
 11  6  1  0  0  0  0
 12  9  1  0  0  0  0
 13 26  1  1  0  0  0
 13  3  1  0  0  0  0
 14 18  1  1  0  0  0
 14 16  1  0  0  0  0
 15  8  1  0  0  0  0
 15  7  1  0  0  0  0
 17 18  1  0  0  0  0
 17 21  2  0  0  0  0
 18 19  2  0  0  0  0
 19 20  1  0  0  0  0
 20 23  1  0  0  0  0
 21 20  1  0  0  0  0
 23 22  1  0  0  0  0
 24 25  1  0  0  0  0
 26 28  1  6  0  0  0
 26 29  1  0  0  0  0
 28 27  1  0  0  0  0
 30 33  1  0  0  0  0
 30 29  1  0  0  0  0
 31 33  1  0  0  0  0
 32 30  2  0  0  0  0
 34 26  1  0  0  0  0
 35 36  1  6  0  0  0
 35 34  1  0  0  0  0
 37 35  1  0  0  0  0
M  END
>  <MODEL>
1

>  <REMARK>
 VINA RESULT:      -6.6      0.000      0.000
  Name = 
  9 active torsions:
  status: ('A' for Active; 'I' for Inactive)
    1  A    between atoms: C_1  and  C_5
    2  A    between atoms: C_1  and  C_36
    3  A    between atoms: C_6  and  C_31
    4  A    between atoms: C_11  and  C_33
    5  A    between atoms: N_18  and  C_19
    6  A    between atoms: C_21  and  C_30
    7  A    between atoms: C_27  and  C_36
    8  A    between atoms: C_29  and  C_36
    9  A    between atoms: C_33  and  C_36
                            x       y       z     vdW  Elec       q    Type
                         _______ _______ _______ _____ _____    ______ ____

>  <TORSDO>
F 9

$$$$
=
 OpenBabel10262423053D

 37 40  0  0  1  0  0  0  0  0999 V2000
  190.8290  177.6220  140.8740 C   0  0  0  0  0  3  0  0  0  0  0  0
  190.2450  178.6010  142.8320 O   0  0  0  0  0  1  0  0  0  0  0  0
  188.2440  178.0520  140.8250 C   0  0  2  0  0  3  0  0  0  0  0  0
  187.6890  175.4550  143.2500 O   0  0  0  0  0  1  0  0  0  0  0  0
  187.2290  177.4910  139.8420 C   0  0  0  0  0  2  0  0  0  0  0  0
  190.6680  177.3580  142.3130 C   0  0  1  0  0  0  0  0  0  0  0  0
  188.5520  176.5430  143.1430 C   0  0  1  0  0  0  0  0  0  0  0  0
  190.7780  176.5950  144.6700 C   0  0  2  0  0  3  0  0  0  0  0  0
  189.8070  178.1560  138.7440 C   0  0  0  0  0  3  0  0  0  0  0  0
  189.6750  176.1750  142.2810 C   0  0  0  0  0  2  0  0  0  0  0  0
  191.6340  176.8520  143.3540 C   0  0  0  0  0  2  0  0  0  0  0  0
  189.6920  177.9620  140.1990 C   0  0  0  0  0  0  0  0  0  0  0  0
  187.8590  177.7310  142.3570 C   0  0  2  0  0  3  0  0  0  0  0  0
  187.3250  178.2700  138.5290 C   0  0  1  0  0  3  0  0  0  0  0  0
  189.2000  176.8480  144.5520 C   0  0  0  0  0  2  0  0  0  0  0  0
  188.7250  178.2740  137.9690 C   0  0  0  0  0  3  0  0  0  0  0  0
  186.6610  177.3720  136.2370 C   0  0  0  0  0  3  0  0  0  0  0  0
  186.3480  177.7410  137.5330 C   0  0  0  0  0  0  0  0  0  0  0  0
  184.9910  177.5740  137.7280 C   0  0  0  0  0  3  0  0  0  0  0  0
  184.4760  177.1090  136.5790 N   0  0  0  0  0  0  0  0  0  0  0  0
  185.4610  176.9750  135.6720 C   0  0  0  0  0  3  0  0  0  0  0  0
  182.1930  177.9320  136.7520 C   0  0  0  0  0  1  0  0  0  0  0  0
  183.0810  176.7660  136.3610 C   0  0  0  0  0  2  0  0  0  0  0  0
  192.0980  176.5570  146.6580 O   0  0  0  0  0  1  0  0  0  0  0  0
  191.3360  177.3880  145.8370 C   0  0  0  0  0  2  0  0  0  0  0  0
  186.6000  178.4100  142.9760 C   0  0  1  0  0  0  0  0  0  0  0  0
  185.6690  180.6490  143.1060 O   0  0  0  0  0  1  0  0  0  0  0  0
  186.2400  179.7130  142.2390 C   0  0  0  0  0  2  0  0  0  0  0  0
  185.3950  177.4490  142.9500 C   0  0  0  0  0  2  0  0  0  0  0  0
  184.1230  178.0390  142.4250 C   0  0  0  0  0  0  0  0  0  0  0  0
  182.6210  178.5310  140.4630 C   0  0  0  0  0  1  0  0  0  0  0  0
  183.3080  178.5830  143.2190 O   0  0  0  0  0  0  0  0  0  0  0  0
  183.8360  177.9680  141.0280 N   0  0  0  0  0  2  0  0  0  0  0  0
  186.9190  178.7530  144.4420 C   0  0  0  0  0  2  0  0  0  0  0  0
  185.9130  178.2050  145.4500 C   0  0  1  0  0  3  0  0  0  0  0  0
  186.6410  177.5540  146.6080 C   0  0  0  0  0  1  0  0  0  0  0  0
  185.1280  179.2510  145.9330 O   0  0  0  0  0  1  0  0  0  0  0  0
  1  6  1  0  0  0  0
  3  5  1  6  0  0  0
  3 13  1  0  0  0  0
  6  2  1  1  0  0  0
  6 11  1  0  0  0  0
  7  4  1  1  0  0  0
  7 15  1  0  0  0  0
  8 25  1  1  0  0  0
  9 12  1  0  0  0  0
 10  6  1  0  0  0  0
 10  7  1  0  0  0  0
 11  8  1  0  0  0  0
 12  3  1  0  0  0  0
 12  1  2  0  0  0  0
 13 26  1  6  0  0  0
 13  7  1  0  0  0  0
 14 18  1  6  0  0  0
 14  5  1  0  0  0  0
 15  8  1  0  0  0  0
 16 14  1  0  0  0  0
 16  9  2  0  0  0  0
 17 18  1  0  0  0  0
 18 19  2  0  0  0  0
 20 19  1  0  0  0  0
 21 17  2  0  0  0  0
 21 20  1  0  0  0  0
 23 20  1  0  0  0  0
 23 22  1  0  0  0  0
 25 24  1  0  0  0  0
 26 28  1  6  0  0  0
 26 34  1  0  0  0  0
 28 27  1  0  0  0  0
 29 26  1  0  0  0  0
 30 29  1  0  0  0  0
 30 32  2  0  0  0  0
 31 33  1  0  0  0  0
 33 30  1  0  0  0  0
 34 35  1  0  0  0  0
 35 37  1  0  0  0  0
 35 36  1  1  0  0  0
M  END
>  <MODEL>
2

>  <REMARK>
 VINA RESULT:      -5.4      3.299      8.710
  Name = 
  9 active torsions:
  status: ('A' for Active; 'I' for Inactive)
    1  A    between atoms: C_1  and  C_5
    2  A    between atoms: C_1  and  C_36
    3  A    between atoms: C_6  and  C_31
    4  A    between atoms: C_11  and  C_33
    5  A    between atoms: N_18  and  C_19
    6  A    between atoms: C_21  and  C_30
    7  A    between atoms: C_27  and  C_36
    8  A    between atoms: C_29  and  C_36
    9  A    between atoms: C_33  and  C_36
                            x       y       z     vdW  Elec       q    Type
                         _______ _______ _______ _____ _____    ______ ____

>  <TORSDO>
F 9

$$$$
=
 OpenBabel10262423053D

 37 40  0  0  1  0  0  0  0  0999 V2000
  188.3220  178.2220  140.1210 C   0  0  0  0  0  3  0  0  0  0  0  0
  188.9450  176.2220  139.2570 O   0  0  0  0  0  1  0  0  0  0  0  0
  186.4390  177.4250  138.4810 C   0  0  2  0  0  3  0  0  0  0  0  0
  188.5480  178.0440  135.6340 O   0  0  0  0  0  1  0  0  0  0  0  0
  185.2820  178.2430  137.9300 C   0  0  0  0  0  2  0  0  0  0  0  0
  189.2740  177.5930  139.1910 C   0  0  1  0  0  0  0  0  0  0  0  0
  188.6970  177.3890  136.8550 C   0  0  1  0  0  0  0  0  0  0  0  0
  191.1870  176.8980  137.7740 C   0  0  2  0  0  3  0  0  0  0  0  0
  186.0330  178.8050  140.6520 C   0  0  0  0  0  3  0  0  0  0  0  0
  188.9760  178.3790  137.8950 C   0  0  0  0  0  2  0  0  0  0  0  0
  190.7810  177.5920  139.1470 C   0  0  0  0  0  2  0  0  0  0  0  0
  187.0030  178.1180  139.7840 C   0  0  0  0  0  0  0  0  0  0  0  0
  187.3240  176.7480  137.3160 C   0  0  2  0  0  3  0  0  0  0  0  0
  184.2070  178.3750  139.0090 C   0  0  1  0  0  3  0  0  0  0  0  0
  189.9810  176.4690  136.8110 C   0  0  0  0  0  2  0  0  0  0  0  0
  184.7530  178.9470  140.2940 C   0  0  0  0  0  3  0  0  0  0  0  0
  182.0630  178.7070  137.6700 C   0  0  0  0  0  3  0  0  0  0  0  0
  183.0560  179.1810  138.5080 C   0  0  0  0  0  0  0  0  0  0  0  0
  182.8210  180.5170  138.7640 C   0  0  0  0  0  3  0  0  0  0  0  0
  181.7050  180.8620  138.1010 N   0  0  0  0  0  0  0  0  0  0  0  0
  181.2300  179.7890  137.4420 C   0  0  0  0  0  3  0  0  0  0  0  0
  180.5540  182.5240  136.7460 C   0  0  0  0  0  1  0  0  0  0  0  0
  181.0860  182.1760  138.1240 C   0  0  0  0  0  2  0  0  0  0  0  0
  191.3420  174.5270  138.0010 O   0  0  0  0  0  1  0  0  0  0  0  0
  192.0910  175.7040  138.0230 C   0  0  0  0  0  2  0  0  0  0  0  0
  186.6900  175.6190  136.4490 C   0  0  1  0  0  0  0  0  0  0  0  0
  186.0210  177.0360  134.5940 O   0  0  0  0  0  1  0  0  0  0  0  0
  185.5460  176.1550  135.5690 C   0  0  0  0  0  2  0  0  0  0  0  0
  187.7590  174.9510  135.5600 C   0  0  0  0  0  2  0  0  0  0  0  0
  187.9390  173.4820  135.7790 C   0  0  0  0  0  0  0  0  0  0  0  0
  187.3630  171.1170  135.1290 C   0  0  0  0  0  1  0  0  0  0  0  0
  188.7230  173.0720  136.6770 O   0  0  0  0  0  0  0  0  0  0  0  0
  187.2320  172.5530  134.9560 N   0  0  0  0  0  2  0  0  0  0  0  0
  186.1140  174.5560  137.4010 C   0  0  0  0  0  2  0  0  0  0  0  0
  184.6360  174.2450  137.1770 C   0  0  1  0  0  3  0  0  0  0  0  0
  184.4080  172.7490  137.2270 C   0  0  0  0  0  1  0  0  0  0  0  0
  183.8810  174.8560  138.1770 O   0  0  0  0  0  1  0  0  0  0  0  0
  3  5  1  6  0  0  0
  3 12  1  0  0  0  0
  5 14  1  0  0  0  0
  6  2  1  6  0  0  0
  6  1  1  0  0  0  0
  7  4  1  6  0  0  0
  7 13  1  0  0  0  0
  7 10  1  0  0  0  0
  8 25  1  1  0  0  0
  8 11  1  0  0  0  0
 10  6  1  0  0  0  0
 11  6  1  0  0  0  0
 12  1  2  0  0  0  0
 12  9  1  0  0  0  0
 13 26  1  6  0  0  0
 13  3  1  0  0  0  0
 14 18  1  6  0  0  0
 14 16  1  0  0  0  0
 15  7  1  0  0  0  0
 15  8  1  0  0  0  0
 16  9  2  0  0  0  0
 17 18  1  0  0  0  0
 18 19  2  0  0  0  0
 20 23  1  0  0  0  0
 20 19  1  0  0  0  0
 21 17  2  0  0  0  0
 21 20  1  0  0  0  0
 22 23  1  0  0  0  0
 24 25  1  0  0  0  0
 26 29  1  6  0  0  0
 26 34  1  0  0  0  0
 27 28  1  0  0  0  0
 28 26  1  0  0  0  0
 29 30  1  0  0  0  0
 30 32  2  0  0  0  0
 33 31  1  0  0  0  0
 33 30  1  0  0  0  0
 35 36  1  1  0  0  0
 35 34  1  0  0  0  0
 35 37  1  0  0  0  0
M  END
>  <MODEL>
3

>  <REMARK>
 VINA RESULT:      -5.3      4.092      7.869
  Name = 
  9 active torsions:
  status: ('A' for Active; 'I' for Inactive)
    1  A    between atoms: C_1  and  C_5
    2  A    between atoms: C_1  and  C_36
    3  A    between atoms: C_6  and  C_31
    4  A    between atoms: C_11  and  C_33
    5  A    between atoms: N_18  and  C_19
    6  A    between atoms: C_21  and  C_30
    7  A    between atoms: C_27  and  C_36
    8  A    between atoms: C_29  and  C_36
    9  A    between atoms: C_33  and  C_36
                            x       y       z     vdW  Elec       q    Type
                         _______ _______ _______ _____ _____    ______ ____

>  <TORSDO>
F 9

$$$$
=
 OpenBabel10262423053D

 37 40  0  0  1  0  0  0  0  0999 V2000
  188.4040  173.4680  135.8770 C   0  0  0  0  0  3  0  0  0  0  0  0
  187.2690  174.3870  137.6100 O   0  0  0  0  0  1  0  0  0  0  0  0
  189.9950  175.1720  137.0740 C   0  0  2  0  0  3  0  0  0  0  0  0
  188.0920  177.9530  135.8170 O   0  0  0  0  0  1  0  0  0  0  0  0
  191.3200  175.7180  136.5670 C   0  0  0  0  0  2  0  0  0  0  0  0
  187.3100  174.4000  136.1990 C   0  0  1  0  0  0  0  0  0  0  0  0
  187.7890  176.7530  136.4560 C   0  0  1  0  0  0  0  0  0  0  0  0
  185.2670  175.8010  136.3140 C   0  0  2  0  0  3  0  0  0  0  0  0
  190.7720  172.9640  135.9340 C   0  0  0  0  0  3  0  0  0  0  0  0
  187.7910  175.6740  135.4690 C   0  0  0  0  0  2  0  0  0  0  0  0
  185.8560  174.4130  135.8040 C   0  0  0  0  0  2  0  0  0  0  0  0
  189.6460  173.8360  136.3090 C   0  0  0  0  0  0  0  0  0  0  0  0
  188.9510  176.3420  137.4510 C   0  0  2  0  0  3  0  0  0  0  0  0
  192.4030  174.6580  136.7630 C   0  0  1  0  0  3  0  0  0  0  0  0
  186.3090  176.8020  137.0060 C   0  0  0  0  0  2  0  0  0  0  0  0
  192.0400  173.3430  136.1180 C   0  0  0  0  0  3  0  0  0  0  0  0
  193.8850  176.1190  135.2890 C   0  0  0  0  0  3  0  0  0  0  0  0
  193.7200  175.1540  136.2670 C   0  0  0  0  0  0  0  0  0  0  0  0
  194.9650  174.7130  136.6690 C   0  0  0  0  0  3  0  0  0  0  0  0
  195.8790  175.3910  135.9580 N   0  0  0  0  0  0  0  0  0  0  0  0
  195.2540  176.2450  135.1270 C   0  0  0  0  0  3  0  0  0  0  0  0
  197.6730  173.8250  136.4650 C   0  0  0  0  0  1  0  0  0  0  0  0
  197.3200  175.2530  136.0930 C   0  0  0  0  0  2  0  0  0  0  0  0
  183.8920  174.2080  137.4400 O   0  0  0  0  0  1  0  0  0  0  0  0
  184.0850  175.5750  137.2390 C   0  0  0  0  0  2  0  0  0  0  0  0
  189.2580  177.2600  138.6730 C   0  0  1  0  0  0  0  0  0  0  0  0
  188.7830  179.5750  138.1140 O   0  0  0  0  0  1  0  0  0  0  0  0
  189.8060  178.6290  138.2290 C   0  0  0  0  0  2  0  0  0  0  0  0
  187.9940  177.4620  139.5330 C   0  0  0  0  0  2  0  0  0  0  0  0
  188.2490  177.8010  140.9680 C   0  0  0  0  0  0  0  0  0  0  0  0
  188.5430  177.0310  143.3480 C   0  0  0  0  0  1  0  0  0  0  0  0
  188.4270  179.0030  141.3070 O   0  0  0  0  0  0  0  0  0  0  0  0
  188.3060  176.7580  141.9410 N   0  0  0  0  0  2  0  0  0  0  0  0
  190.3280  176.5640  139.5330 C   0  0  0  0  0  2  0  0  0  0  0  0
  191.5230  177.4460  139.8850 C   0  0  1  0  0  3  0  0  0  0  0  0
  191.6990  177.5020  141.3890 C   0  0  0  0  0  1  0  0  0  0  0  0
  192.6740  176.9120  139.3090 O   0  0  0  0  0  1  0  0  0  0  0  0
  1  6  1  0  0  0  0
  1 12  2  0  0  0  0
  3  5  1  6  0  0  0
  3 13  1  0  0  0  0
  5 14  1  0  0  0  0
  6  2  1  1  0  0  0
  7  4  1  6  0  0  0
  7 15  1  0  0  0  0
  7 13  1  0  0  0  0
  8 15  1  0  0  0  0
  8 25  1  1  0  0  0
  9 16  2  0  0  0  0
  9 12  1  0  0  0  0
 10  6  1  0  0  0  0
 10  7  1  0  0  0  0
 11  6  1  0  0  0  0
 11  8  1  0  0  0  0
 12  3  1  0  0  0  0
 13 26  1  6  0  0  0
 14 18  1  6  0  0  0
 16 14  1  0  0  0  0
 17 18  1  0  0  0  0
 18 19  2  0  0  0  0
 20 23  1  0  0  0  0
 20 19  1  0  0  0  0
 21 17  2  0  0  0  0
 21 20  1  0  0  0  0
 23 22  1  0  0  0  0
 25 24  1  0  0  0  0
 26 28  1  6  0  0  0
 26 29  1  0  0  0  0
 26 34  1  0  0  0  0
 27 28  1  0  0  0  0
 29 30  1  0  0  0  0
 30 32  2  0  0  0  0
 30 33  1  0  0  0  0
 33 31  1  0  0  0  0
 34 35  1  0  0  0  0
 35 36  1  1  0  0  0
 37 35  1  0  0  0  0
M  END
>  <MODEL>
4

>  <REMARK>
 VINA RESULT:      -5.1      4.278      9.011
  Name = 
  9 active torsions:
  status: ('A' for Active; 'I' for Inactive)
    1  A    between atoms: C_1  and  C_5
    2  A    between atoms: C_1  and  C_36
    3  A    between atoms: C_6  and  C_31
    4  A    between atoms: C_11  and  C_33
    5  A    between atoms: N_18  and  C_19
    6  A    between atoms: C_21  and  C_30
    7  A    between atoms: C_27  and  C_36
    8  A    between atoms: C_29  and  C_36
    9  A    between atoms: C_33  and  C_36
                            x       y       z     vdW  Elec       q    Type
                         _______ _______ _______ _____ _____    ______ ____

>  <TORSDO>
F 9

$$$$
=
 OpenBabel10262423053D

 37 40  0  0  1  0  0  0  0  0999 V2000
  191.1210  177.4090  141.7340 C   0  0  0  0  0  3  0  0  0  0  0  0
  190.2240  178.4970  143.5080 O   0  0  0  0  0  1  0  0  0  0  0  0
  188.6050  177.9030  141.1930 C   0  0  2  0  0  3  0  0  0  0  0  0
  187.5270  175.4430  143.5860 O   0  0  0  0  0  1  0  0  0  0  0  0
  187.7660  177.3210  140.0650 C   0  0  0  0  0  2  0  0  0  0  0  0
  190.6920  177.2200  143.1290 C   0  0  1  0  0  0  0  0  0  0  0  0
  188.4330  176.5020  143.5920 C   0  0  1  0  0  0  0  0  0  0  0  0
  190.3440  176.5700  145.4970 C   0  0  2  0  0  3  0  0  0  0  0  0
  190.5230  177.8630  139.4320 C   0  0  0  0  0  3  0  0  0  0  0  0
  189.6800  176.0630  142.9670 C   0  0  0  0  0  2  0  0  0  0  0  0
  191.4330  176.7400  144.3510 C   0  0  0  0  0  2  0  0  0  0  0  0
  190.1380  177.7450  140.8480 C   0  0  0  0  0  0  0  0  0  0  0  0
  187.9360  177.6670  142.6410 C   0  0  2  0  0  3  0  0  0  0  0  0
  188.1270  178.0320  138.7610 C   0  0  1  0  0  3  0  0  0  0  0  0
  188.8240  176.8580  145.0810 C   0  0  0  0  0  2  0  0  0  0  0  0
  189.6050  177.9720  138.4670 C   0  0  0  0  0  3  0  0  0  0  0  0
  186.4940  178.2240  136.8120 C   0  0  0  0  0  3  0  0  0  0  0  0
  187.3300  177.4810  137.6260 C   0  0  0  0  0  0  0  0  0  0  0  0
  187.2700  176.1580  137.2350 C   0  0  0  0  0  3  0  0  0  0  0  0
  186.4170  176.0840  136.2010 N   0  0  0  0  0  0  0  0  0  0  0  0
  185.9440  177.3130  135.9260 C   0  0  0  0  0  3  0  0  0  0  0  0
  186.4610  173.6520  136.2870 C   0  0  0  0  0  1  0  0  0  0  0  0
  186.0880  174.8730  135.4680 C   0  0  0  0  0  2  0  0  0  0  0  0
  191.8030  176.8430  147.3660 O   0  0  0  0  0  1  0  0  0  0  0  0
  190.7070  177.4050  146.7120 C   0  0  0  0  0  2  0  0  0  0  0  0
  186.6100  178.4090  142.9880 C   0  0  1  0  0  0  0  0  0  0  0  0
  185.6800  180.6480  142.8450 O   0  0  0  0  0  1  0  0  0  0  0  0
  186.4510  179.7010  142.1650 C   0  0  0  0  0  2  0  0  0  0  0  0
  185.3940  177.4900  142.7510 C   0  0  0  0  0  2  0  0  0  0  0  0
  184.3280  178.0620  141.8700 C   0  0  0  0  0  0  0  0  0  0  0  0
  182.0110  179.0210  141.6300 C   0  0  0  0  0  1  0  0  0  0  0  0
  184.5390  178.1950  140.6330 O   0  0  0  0  0  0  0  0  0  0  0  0
  183.0830  178.4670  142.4390 N   0  0  0  0  0  2  0  0  0  0  0  0
  186.6540  178.7860  144.4800 C   0  0  0  0  0  2  0  0  0  0  0  0
  185.4650  178.2790  145.2920 C   0  0  1  0  0  3  0  0  0  0  0  0
  185.9190  177.8820  146.6820 C   0  0  0  0  0  1  0  0  0  0  0  0
  184.5120  179.2900  145.3940 O   0  0  0  0  0  1  0  0  0  0  0  0
  1  6  1  0  0  0  0
  3  5  1  6  0  0  0
  3 13  1  0  0  0  0
  6  2  1  1  0  0  0
  6 11  1  0  0  0  0
  7  4  1  6  0  0  0
  7 15  1  0  0  0  0
  8 25  1  1  0  0  0
  9 12  1  0  0  0  0
 10  6  1  0  0  0  0
 10  7  1  0  0  0  0
 11  8  1  0  0  0  0
 12  3  1  0  0  0  0
 12  1  2  0  0  0  0
 13 26  1  6  0  0  0
 13  7  1  0  0  0  0
 14 18  1  6  0  0  0
 14  5  1  0  0  0  0
 15  8  1  0  0  0  0
 16 14  1  0  0  0  0
 16  9  2  0  0  0  0
 17 18  1  0  0  0  0
 19 18  2  0  0  0  0
 20 19  1  0  0  0  0
 21 20  1  0  0  0  0
 21 17  2  0  0  0  0
 23 20  1  0  0  0  0
 23 22  1  0  0  0  0
 25 24  1  0  0  0  0
 26 28  1  6  0  0  0
 26 34  1  0  0  0  0
 28 27  1  0  0  0  0
 29 26  1  0  0  0  0
 30 33  1  0  0  0  0
 30 29  1  0  0  0  0
 31 33  1  0  0  0  0
 32 30  2  0  0  0  0
 34 35  1  0  0  0  0
 35 37  1  0  0  0  0
 35 36  1  1  0  0  0
M  END
>  <MODEL>
5

>  <REMARK>
 VINA RESULT:      -5.0      3.381      8.744
  Name = 
  9 active torsions:
  status: ('A' for Active; 'I' for Inactive)
    1  A    between atoms: C_1  and  C_5
    2  A    between atoms: C_1  and  C_36
    3  A    between atoms: C_6  and  C_31
    4  A    between atoms: C_11  and  C_33
    5  A    between atoms: N_18  and  C_19
    6  A    between atoms: C_21  and  C_30
    7  A    between atoms: C_27  and  C_36
    8  A    between atoms: C_29  and  C_36
    9  A    between atoms: C_33  and  C_36
                            x       y       z     vdW  Elec       q    Type
                         _______ _______ _______ _____ _____    ______ ____

>  <TORSDO>
F 9

$$$$
=
 OpenBabel10262423053D

 37 40  0  0  1  0  0  0  0  0999 V2000
  184.5930  178.8210  139.9080 C   0  0  0  0  0  3  0  0  0  0  0  0
  182.4780  179.4720  139.4190 O   0  0  0  0  0  1  0  0  0  0  0  0
  183.8050  177.4920  137.7910 C   0  0  2  0  0  3  0  0  0  0  0  0
  181.5410  175.5220  139.7740 O   0  0  0  0  0  1  0  0  0  0  0  0
  184.4670  176.2780  137.1570 C   0  0  0  0  0  2  0  0  0  0  0  0
  183.2010  178.7260  140.3760 C   0  0  1  0  0  0  0  0  0  0  0  0
  181.8240  176.8810  139.6480 C   0  0  1  0  0  0  0  0  0  0  0  0
  181.0620  178.5590  141.6210 C   0  0  2  0  0  3  0  0  0  0  0  0
  186.2520  178.2650  138.2340 C   0  0  0  0  0  3  0  0  0  0  0  0
  183.0170  177.1930  140.4330 C   0  0  0  0  0  2  0  0  0  0  0  0
  182.5540  179.1090  141.6820 C   0  0  0  0  0  2  0  0  0  0  0  0
  184.8530  178.2560  138.6920 C   0  0  0  0  0  0  0  0  0  0  0  0
  182.2590  177.2250  138.1640 C   0  0  2  0  0  3  0  0  0  0  0  0
  185.6780  176.7390  136.3470 C   0  0  1  0  0  3  0  0  0  0  0  0
  180.6650  177.7290  140.3090 C   0  0  0  0  0  2  0  0  0  0  0  0
  186.6430  177.5540  137.1720 C   0  0  0  0  0  3  0  0  0  0  0  0
  187.5620  175.6340  135.0310 C   0  0  0  0  0  3  0  0  0  0  0  0
  186.3620  175.5720  135.7160 C   0  0  0  0  0  0  0  0  0  0  0  0
  185.8960  174.2730  135.6820 C   0  0  0  0  0  3  0  0  0  0  0  0
  186.7900  173.5460  134.9930 N   0  0  0  0  0  0  0  0  0  0  0  0
  187.8010  174.3410  134.5970 C   0  0  0  0  0  3  0  0  0  0  0  0
  185.3500  171.5950  135.1990 C   0  0  0  0  0  1  0  0  0  0  0  0
  186.7000  172.1160  134.7470 C   0  0  0  0  0  2  0  0  0  0  0  0
  180.2780  180.2810  143.0750 O   0  0  0  0  0  1  0  0  0  0  0  0
  180.0660  179.6840  141.8320 C   0  0  0  0  0  2  0  0  0  0  0  0
  181.2290  177.0270  137.0110 C   0  0  1  0  0  0  0  0  0  0  0  0
  179.1090  176.1170  137.7660 O   0  0  0  0  0  1  0  0  0  0  0  0
  179.7900  177.3040  137.4840 C   0  0  0  0  0  2  0  0  0  0  0  0
  181.5680  177.9410  135.8160 C   0  0  0  0  0  2  0  0  0  0  0  0
  180.7300  179.1770  135.7050 C   0  0  0  0  0  0  0  0  0  0  0  0
  180.2550  181.5360  136.4480 C   0  0  0  0  0  1  0  0  0  0  0  0
  179.7660  179.2110  134.8920 O   0  0  0  0  0  0  0  0  0  0  0  0
  181.0390  180.3140  136.5100 N   0  0  0  0  0  2  0  0  0  0  0  0
  181.3150  175.5630  136.5450 C   0  0  0  0  0  2  0  0  0  0  0  0
  181.3380  175.3850  135.0290 C   0  0  1  0  0  3  0  0  0  0  0  0
  182.3520  174.3270  134.6470 C   0  0  0  0  0  1  0  0  0  0  0  0
  180.0750  174.9870  134.5940 O   0  0  0  0  0  1  0  0  0  0  0  0
  1  6  1  0  0  0  0
  3  5  1  1  0  0  0
  3 13  1  0  0  0  0
  3 12  1  0  0  0  0
  6  2  1  6  0  0  0
  6 10  1  0  0  0  0
  6 11  1  0  0  0  0
  7  4  1  1  0  0  0
  7 15  1  0  0  0  0
  7 10  1  0  0  0  0
  8 11  1  0  0  0  0
  8 25  1  6  0  0  0
  9 12  1  0  0  0  0
 12  1  2  0  0  0  0
 13 26  1  6  0  0  0
 13  7  1  0  0  0  0
 14 18  1  1  0  0  0
 14  5  1  0  0  0  0
 14 16  1  0  0  0  0
 15  8  1  0  0  0  0
 16  9  2  0  0  0  0
 17 18  1  0  0  0  0
 19 18  2  0  0  0  0
 20 19  1  0  0  0  0
 21 20  1  0  0  0  0
 21 17  2  0  0  0  0
 23 20  1  0  0  0  0
 23 22  1  0  0  0  0
 25 24  1  0  0  0  0
 26 29  1  6  0  0  0
 26 28  1  0  0  0  0
 28 27  1  0  0  0  0
 30 29  1  0  0  0  0
 30 33  1  0  0  0  0
 31 33  1  0  0  0  0
 32 30  2  0  0  0  0
 34 26  1  0  0  0  0
 35 36  1  1  0  0  0
 35 34  1  0  0  0  0
 37 35  1  0  0  0  0
M  END
>  <MODEL>
6

>  <REMARK>
 VINA RESULT:      -4.8      3.844      6.855
  Name = 
  9 active torsions:
  status: ('A' for Active; 'I' for Inactive)
    1  A    between atoms: C_1  and  C_5
    2  A    between atoms: C_1  and  C_36
    3  A    between atoms: C_6  and  C_31
    4  A    between atoms: C_11  and  C_33
    5  A    between atoms: N_18  and  C_19
    6  A    between atoms: C_21  and  C_30
    7  A    between atoms: C_27  and  C_36
    8  A    between atoms: C_29  and  C_36
    9  A    between atoms: C_33  and  C_36
                            x       y       z     vdW  Elec       q    Type
                         _______ _______ _______ _____ _____    ______ ____

>  <TORSDO>
F 9

$$$$
=
 OpenBabel10262423053D

 37 40  0  0  1  0  0  0  0  0999 V2000
  191.4170  177.3700  143.0350 C   0  0  0  0  0  3  0  0  0  0  0  0
  189.9430  178.6270  144.2100 O   0  0  0  0  0  1  0  0  0  0  0  0
  189.2830  177.7120  141.5530 C   0  0  2  0  0  3  0  0  0  0  0  0
  187.3700  175.5150  143.6620 O   0  0  0  0  0  1  0  0  0  0  0  0
  188.9130  176.9750  140.2750 C   0  0  0  0  0  2  0  0  0  0  0  0
  190.5020  177.3310  144.1870 C   0  0  1  0  0  0  0  0  0  0  0  0
  188.2230  176.5960  143.8710 C   0  0  1  0  0  0  0  0  0  0  0  0
  189.2990  176.9510  146.3220 C   0  0  2  0  0  3  0  0  0  0  0  0
  191.7150  177.5320  140.6370 C   0  0  0  0  0  3  0  0  0  0  0  0
  189.6080  176.1300  143.8060 C   0  0  0  0  0  2  0  0  0  0  0  0
  190.7360  177.0230  145.6440 C   0  0  0  0  0  2  0  0  0  0  0  0
  190.8340  177.5670  141.8160 C   0  0  0  0  0  0  0  0  0  0  0  0
  188.1250  177.6260  142.6710 C   0  0  2  0  0  3  0  0  0  0  0  0
  189.7370  177.5400  139.1180 C   0  0  1  0  0  3  0  0  0  0  0  0
  188.0430  177.1380  145.3450 C   0  0  0  0  0  2  0  0  0  0  0  0
  191.2190  177.4960  139.3970 C   0  0  0  0  0  3  0  0  0  0  0  0
  190.2390  176.7600  136.7430 C   0  0  0  0  0  3  0  0  0  0  0  0
  189.4070  176.8330  137.8460 C   0  0  0  0  0  0  0  0  0  0  0  0
  188.2250  176.1830  137.5550 C   0  0  0  0  0  3  0  0  0  0  0  0
  188.3240  175.7150  136.3000 N   0  0  0  0  0  0  0  0  0  0  0  0
  189.5270  176.0450  135.7960 C   0  0  0  0  0  3  0  0  0  0  0  0
  186.7180  173.9030  136.5470 C   0  0  0  0  0  1  0  0  0  0  0  0
  187.3070  174.9400  135.6100 C   0  0  0  0  0  2  0  0  0  0  0  0
  188.2970  177.4620  148.4280 O   0  0  0  0  0  1  0  0  0  0  0  0
  189.1990  177.9350  147.4740 C   0  0  0  0  0  2  0  0  0  0  0  0
  186.7740  178.3580  142.4150 C   0  0  1  0  0  0  0  0  0  0  0  0
  187.9110  180.2720  141.4470 O   0  0  0  0  0  1  0  0  0  0  0  0
  186.9540  179.8870  142.3890 C   0  0  0  0  0  2  0  0  0  0  0  0
  186.1430  177.8880  141.0890 C   0  0  0  0  0  2  0  0  0  0  0  0
  184.8780  178.5890  140.7030 C   0  0  0  0  0  0  0  0  0  0  0  0
  182.3620  178.5920  140.5850 C   0  0  0  0  0  1  0  0  0  0  0  0
  184.9300  179.7350  140.1780 O   0  0  0  0  0  0  0  0  0  0  0  0
  183.6200  177.9600  140.9460 N   0  0  0  0  0  2  0  0  0  0  0  0
  185.8150  178.0010  143.5650 C   0  0  0  0  0  2  0  0  0  0  0  0
  185.1360  179.2030  144.2140 C   0  0  1  0  0  3  0  0  0  0  0  0
  183.6340  179.0050  144.2260 C   0  0  0  0  0  1  0  0  0  0  0  0
  185.5900  179.3360  145.5250 O   0  0  0  0  0  1  0  0  0  0  0  0
  1  6  1  0  0  0  0
  3  5  1  6  0  0  0
  3 12  1  0  0  0  0
  3 13  1  0  0  0  0
  6  2  1  6  0  0  0
  6 11  1  0  0  0  0
  7  4  1  6  0  0  0
  7 15  1  0  0  0  0
  8 25  1  1  0  0  0
  9 12  1  0  0  0  0
 10  7  1  0  0  0  0
 10  6  1  0  0  0  0
 11  8  1  0  0  0  0
 12  1  2  0  0  0  0
 13 26  1  6  0  0  0
 13  7  1  0  0  0  0
 14 18  1  6  0  0  0
 14 16  1  0  0  0  0
 14  5  1  0  0  0  0
 15  8  1  0  0  0  0
 16  9  2  0  0  0  0
 17 18  1  0  0  0  0
 19 18  2  0  0  0  0
 20 19  1  0  0  0  0
 21 20  1  0  0  0  0
 21 17  2  0  0  0  0
 23 20  1  0  0  0  0
 23 22  1  0  0  0  0
 25 24  1  0  0  0  0
 26 29  1  6  0  0  0
 26 34  1  0  0  0  0
 27 28  1  0  0  0  0
 28 26  1  0  0  0  0
 30 33  1  0  0  0  0
 30 29  1  0  0  0  0
 31 33  1  0  0  0  0
 32 30  2  0  0  0  0
 34 35  1  0  0  0  0
 35 36  1  1  0  0  0
 35 37  1  0  0  0  0
M  END
>  <MODEL>
7

>  <REMARK>
 VINA RESULT:      -4.8      3.362      8.519
  Name = 
  9 active torsions:
  status: ('A' for Active; 'I' for Inactive)
    1  A    between atoms: C_1  and  C_5
    2  A    between atoms: C_1  and  C_36
    3  A    between atoms: C_6  and  C_31
    4  A    between atoms: C_11  and  C_33
    5  A    between atoms: N_18  and  C_19
    6  A    between atoms: C_21  and  C_30
    7  A    between atoms: C_27  and  C_36
    8  A    between atoms: C_29  and  C_36
    9  A    between atoms: C_33  and  C_36
                            x       y       z     vdW  Elec       q    Type
                         _______ _______ _______ _____ _____    ______ ____

>  <TORSDO>
F 9

$$$$
=
 OpenBabel10262423053D

 37 40  0  0  1  0  0  0  0  0999 V2000
  187.9670  178.2670  138.9730 C   0  0  0  0  0  3  0  0  0  0  0  0
  188.2530  176.3320  137.8290 O   0  0  0  0  0  1  0  0  0  0  0  0
  185.6080  177.4270  138.2000 C   0  0  2  0  0  3  0  0  0  0  0  0
  186.3500  178.2490  134.7780 O   0  0  0  0  0  1  0  0  0  0  0  0
  184.2990  178.2000  138.2090 C   0  0  0  0  0  2  0  0  0  0  0  0
  188.4790  177.7200  137.7060 C   0  0  1  0  0  0  0  0  0  0  0  0
  187.0060  177.5630  135.7980 C   0  0  1  0  0  0  0  0  0  0  0  0
  189.6710  177.1740  135.6010 C   0  0  2  0  0  3  0  0  0  0  0  0
  186.0750  178.7100  140.4180 C   0  0  0  0  0  3  0  0  0  0  0  0
  187.6500  178.5310  136.6850 C   0  0  0  0  0  2  0  0  0  0  0  0
  189.8350  177.7990  137.0550 C   0  0  0  0  0  2  0  0  0  0  0  0
  186.6300  178.1050  139.1960 C   0  0  0  0  0  0  0  0  0  0  0  0
  185.9640  176.8360  136.7430 C   0  0  2  0  0  3  0  0  0  0  0  0
  183.7540  178.2390  139.6370 C   0  0  1  0  0  3  0  0  0  0  0  0
  188.1920  176.7140  135.1890 C   0  0  0  0  0  2  0  0  0  0  0  0
  184.7560  178.7960  140.6170 C   0  0  0  0  0  3  0  0  0  0  0  0
  182.1360  180.0430  138.8430 C   0  0  0  0  0  3  0  0  0  0  0  0
  182.4710  179.0000  139.6880 C   0  0  0  0  0  0  0  0  0  0  0  0
  181.4460  178.8140  140.5940 C   0  0  0  0  0  3  0  0  0  0  0  0
  180.4960  179.7200  140.3150 N   0  0  0  0  0  0  0  0  0  0  0  0
  180.8860  180.4650  139.2640 C   0  0  0  0  0  3  0  0  0  0  0  0
  178.9330  181.3130  141.2850 C   0  0  0  0  0  1  0  0  0  0  0  0
  179.2280  179.8510  141.0130 C   0  0  0  0  0  2  0  0  0  0  0  0
  189.9740  174.9370  134.8260 O   0  0  0  0  0  1  0  0  0  0  0  0
  190.6380  176.0220  135.3990 C   0  0  0  0  0  2  0  0  0  0  0  0
  185.0710  175.7040  136.1500 C   0  0  1  0  0  0  0  0  0  0  0  0
  186.9710  174.1980  136.2680 O   0  0  0  0  0  1  0  0  0  0  0  0
  185.9160  174.6210  135.4550 C   0  0  0  0  0  2  0  0  0  0  0  0
  184.2070  175.0600  137.2530 C   0  0  0  0  0  2  0  0  0  0  0  0
  184.1360  173.5650  137.2120 C   0  0  0  0  0  0  0  0  0  0  0  0
  183.1300  171.4790  136.2200 C   0  0  0  0  0  1  0  0  0  0  0  0
  184.8710  172.8800  137.9730 O   0  0  0  0  0  0  0  0  0  0  0  0
  183.2450  172.9250  136.2970 N   0  0  0  0  0  2  0  0  0  0  0  0
  184.1360  176.3370  135.1040 C   0  0  0  0  0  2  0  0  0  0  0  0
  182.6620  176.3480  135.5020 C   0  0  1  0  0  3  0  0  0  0  0  0
  182.1210  177.7620  135.4460 C   0  0  0  0  0  1  0  0  0  0  0  0
  181.9410  175.5470  134.6190 O   0  0  0  0  0  1  0  0  0  0  0  0
  1 12  2  0  0  0  0
  3  5  1  6  0  0  0
  3 12  1  0  0  0  0
  5 14  1  0  0  0  0
  6  2  1  6  0  0  0
  6  1  1  0  0  0  0
  7  4  1  6  0  0  0
  7 10  1  0  0  0  0
  7 13  1  0  0  0  0
  8 25  1  1  0  0  0
  8 11  1  0  0  0  0
  9 16  2  0  0  0  0
 10  6  1  0  0  0  0
 11  6  1  0  0  0  0
 12  9  1  0  0  0  0
 13 26  1  6  0  0  0
 13  3  1  0  0  0  0
 14 18  1  6  0  0  0
 14 16  1  0  0  0  0
 15  8  1  0  0  0  0
 15  7  1  0  0  0  0
 17 21  2  0  0  0  0
 17 18  1  0  0  0  0
 18 19  2  0  0  0  0
 20 19  1  0  0  0  0
 20 23  1  0  0  0  0
 21 20  1  0  0  0  0
 23 22  1  0  0  0  0
 24 25  1  0  0  0  0
 26 34  1  6  0  0  0
 26 29  1  0  0  0  0
 28 26  1  0  0  0  0
 28 27  1  0  0  0  0
 30 29  1  0  0  0  0
 30 32  2  0  0  0  0
 31 33  1  0  0  0  0
 33 30  1  0  0  0  0
 34 35  1  0  0  0  0
 35 36  1  6  0  0  0
 37 35  1  0  0  0  0
M  END
>  <MODEL>
8

>  <REMARK>
 VINA RESULT:      -4.6      3.909      7.378
  Name = 
  9 active torsions:
  status: ('A' for Active; 'I' for Inactive)
    1  A    between atoms: C_1  and  C_5
    2  A    between atoms: C_1  and  C_36
    3  A    between atoms: C_6  and  C_31
    4  A    between atoms: C_11  and  C_33
    5  A    between atoms: N_18  and  C_19
    6  A    between atoms: C_21  and  C_30
    7  A    between atoms: C_27  and  C_36
    8  A    between atoms: C_29  and  C_36
    9  A    between atoms: C_33  and  C_36
                            x       y       z     vdW  Elec       q    Type
                         _______ _______ _______ _____ _____    ______ ____

>  <TORSDO>
F 9

$$$$
=
 OpenBabel10262423053D

 37 40  0  0  1  0  0  0  0  0999 V2000
  184.3400  178.9480  140.4800 C   0  0  0  0  0  3  0  0  0  0  0  0
  182.3210  179.6570  139.7330 O   0  0  0  0  0  1  0  0  0  0  0  0
  183.9490  177.9180  138.1020 C   0  0  2  0  0  3  0  0  0  0  0  0
  181.4340  175.6940  139.3920 O   0  0  0  0  0  1  0  0  0  0  0  0
  184.7370  176.8030  137.4320 C   0  0  0  0  0  2  0  0  0  0  0  0
  182.8910  178.7880  140.6890 C   0  0  1  0  0  0  0  0  0  0  0  0
  181.7010  177.0570  139.4980 C   0  0  1  0  0  0  0  0  0  0  0  0
  180.5790  178.4500  141.5200 C   0  0  2  0  0  3  0  0  0  0  0  0
  186.2680  178.6270  139.0510 C   0  0  0  0  0  3  0  0  0  0  0  0
  182.7380  177.2620  140.5080 C   0  0  0  0  0  2  0  0  0  0  0  0
  182.0260  178.9890  141.9070 C   0  0  0  0  0  2  0  0  0  0  0  0
  184.8130  178.5540  139.2610 C   0  0  0  0  0  0  0  0  0  0  0  0
  182.3700  177.6010  138.1690 C   0  0  2  0  0  3  0  0  0  0  0  0
  186.0550  177.3720  136.9070 C   0  0  1  0  0  3  0  0  0  0  0  0
  180.4280  177.8060  140.0610 C   0  0  0  0  0  2  0  0  0  0  0  0
  186.8480  178.0680  137.9850 C   0  0  0  0  0  3  0  0  0  0  0  0
  187.0870  176.2050  134.8880 C   0  0  0  0  0  3  0  0  0  0  0  0
  186.8630  176.3030  136.2500 C   0  0  0  0  0  0  0  0  0  0  0  0
  187.4740  175.2370  136.8790 C   0  0  0  0  0  3  0  0  0  0  0  0
  188.0660  174.4970  135.9290 N   0  0  0  0  0  0  0  0  0  0  0  0
  187.8520  175.0620  134.7260 C   0  0  0  0  0  3  0  0  0  0  0  0
  187.9310  172.1340  136.4970 C   0  0  0  0  0  1  0  0  0  0  0  0
  188.8490  173.2950  136.1650 C   0  0  0  0  0  2  0  0  0  0  0  0
  180.0560  180.5680  142.4890 O   0  0  0  0  0  1  0  0  0  0  0  0
  179.5340  179.5350  141.7100 C   0  0  0  0  0  2  0  0  0  0  0  0
  181.5520  177.5610  136.8430 C   0  0  1  0  0  0  0  0  0  0  0  0
  182.4500  177.8330  134.6030 O   0  0  0  0  0  1  0  0  0  0  0  0
  182.3730  176.9560  135.6890 C   0  0  0  0  0  2  0  0  0  0  0  0
  180.2510  176.7550  137.0300 C   0  0  0  0  0  2  0  0  0  0  0  0
  180.0510  175.6350  136.0580 C   0  0  0  0  0  0  0  0  0  0  0  0
  180.3530  173.2020  135.4770 C   0  0  0  0  0  1  0  0  0  0  0  0
  179.4660  175.8510  134.9620 O   0  0  0  0  0  0  0  0  0  0  0  0
  180.5130  174.3240  136.3870 N   0  0  0  0  0  2  0  0  0  0  0  0
  181.1810  179.0070  136.4700 C   0  0  0  0  0  2  0  0  0  0  0  0
  179.7100  179.3540  136.6830 C   0  0  1  0  0  3  0  0  0  0  0  0
  179.5860  180.5070  137.6570 C   0  0  0  0  0  1  0  0  0  0  0  0
  179.1440  179.7230  135.4640 O   0  0  0  0  0  1  0  0  0  0  0  0
  1  6  1  0  0  0  0
  3  5  1  1  0  0  0
  3 13  1  0  0  0  0
  3 12  1  0  0  0  0
  6  2  1  6  0  0  0
  6 11  1  0  0  0  0
  7  4  1  6  0  0  0
  7 15  1  0  0  0  0
  7 10  1  0  0  0  0
  8 25  1  6  0  0  0
  8 11  1  0  0  0  0
  9 12  1  0  0  0  0
 10  6  1  0  0  0  0
 12  1  2  0  0  0  0
 13 26  1  6  0  0  0
 13  7  1  0  0  0  0
 14 18  1  1  0  0  0
 14  5  1  0  0  0  0
 14 16  1  0  0  0  0
 15  8  1  0  0  0  0
 16  9  2  0  0  0  0
 17 18  1  0  0  0  0
 18 19  2  0  0  0  0
 20 23  1  0  0  0  0
 20 19  1  0  0  0  0
 21 17  2  0  0  0  0
 21 20  1  0  0  0  0
 23 22  1  0  0  0  0
 25 24  1  0  0  0  0
 26 28  1  6  0  0  0
 26 29  1  0  0  0  0
 27 28  1  0  0  0  0
 30 33  1  0  0  0  0
 30 29  1  0  0  0  0
 31 33  1  0  0  0  0
 32 30  2  0  0  0  0
 34 35  1  0  0  0  0
 34 26  1  0  0  0  0
 35 36  1  1  0  0  0
 37 35  1  0  0  0  0
M  END
>  <MODEL>
9

>  <REMARK>
 VINA RESULT:      -4.6      3.611      6.538
  Name = 
  9 active torsions:
  status: ('A' for Active; 'I' for Inactive)
    1  A    between atoms: C_1  and  C_5
    2  A    between atoms: C_1  and  C_36
    3  A    between atoms: C_6  and  C_31
    4  A    between atoms: C_11  and  C_33
    5  A    between atoms: N_18  and  C_19
    6  A    between atoms: C_21  and  C_30
    7  A    between atoms: C_27  and  C_36
    8  A    between atoms: C_29  and  C_36
    9  A    between atoms: C_33  and  C_36
                            x       y       z     vdW  Elec       q    Type
                         _______ _______ _______ _____ _____    ______ ____

>  <TORSDO>
F 9

$$$$
