=
 OpenBabel10262423083D

 37 37  0  0  1  0  0  0  0  0999 V2000
  185.6050  178.7330  138.1750 C   0  0  0  0  0  2  0  0  0  0  0  0
  186.3630  176.5520  144.1750 O   0  0  0  0  0  1  0  0  0  0  0  0
  186.9390  178.2840  137.6000 C   0  0  2  0  0  3  0  0  0  0  0  0
  184.4710  178.8440  143.2340 C   0  0  0  0  0  2  0  0  0  0  0  0
  188.8590  177.3030  143.3610 C   0  0  0  0  0  3  0  0  0  0  0  0
  184.1550  178.7730  144.7160 C   0  0  0  0  0  2  0  0  0  0  0  0
  182.3710  178.0620  140.1380 C   0  0  2  0  0  3  0  0  0  0  0  0
  188.7110  177.3160  140.9020 C   0  0  2  0  0  3  0  0  0  0  0  0
  188.8840  176.9390  137.9680 O   0  0  0  0  0  1  0  0  0  0  0  0
  183.0220  175.8620  139.1250 C   0  0  0  0  0  1  0  0  0  0  0  0
  183.6180  178.2950  140.9870 C   0  0  0  0  0  2  0  0  0  0  0  0
  185.9390  180.0450  145.5790 O   0  0  0  0  0  0  0  0  0  0  0  0
  187.7350  177.4320  138.5910 C   0  0  1  0  0  3  0  0  0  0  0  0
  186.0180  177.7720  146.2140 C   0  0  0  0  0  2  0  0  0  0  0  0
  185.4080  178.9480  145.5080 C   0  0  0  0  0  0  0  0  0  0  0  0
  182.6180  177.3120  138.8050 C   0  0  2  0  0  0  0  0  0  0  0  0
  187.6790  179.4010  137.2040 O   0  0  0  0  0  1  0  0  0  0  0  0
  188.1080  178.2220  139.8430 C   0  0  0  0  0  2  0  0  0  0  0  0
  188.4770  178.0480  144.9490 S   0  0  0  0  0  0  0  0  0  0  0  0
  183.5890  177.9840  138.0150 O   0  0  0  0  0  0  0  0  0  0  0  0
  183.2280  178.5340  142.4310 C   0  0  0  0  0  2  0  0  0  0  0  0
  188.4510  177.9070  142.2460 C   0  0  0  0  0  3  0  0  0  0  0  0
  190.0870  177.2020  140.6900 O   0  0  0  0  0  1  0  0  0  0  0  0
  187.0060  177.0150  145.3270 C   0  0  2  0  0  3  0  0  0  0  0  0
  184.7940  177.6260  138.4300 O   0  0  0  0  0  0  0  0  0  0  0  0
  180.9600  175.9930  137.5920 O   0  0  0  0  0  1  0  0  0  0  0  0
  181.2970  177.2860  138.0060 C   0  0  2  0  0  3  0  0  0  0  0  0
  181.2600  178.2560  136.8230 C   0  0  0  0  0  2  0  0  0  0  0  0
  180.1360  179.0980  136.8970 O   0  0  0  0  0  0  0  0  0  0  0  0
  179.5490  181.3740  137.4760 C   0  0  0  0  0  1  0  0  0  0  0  0
  180.5650  180.4410  136.8300 C   0  0  0  0  0  0  0  0  0  0  0  0
  180.6890  180.8280  135.3710 C   0  0  0  0  0  1  0  0  0  0  0  0
  181.8080  180.6120  137.4240 F   0  0  0  0  0  0  0  0  0  0  0  0
  181.5820  179.2480  139.9890 O   0  0  0  0  0  0  0  0  0  0  0  0
  180.3820  179.4980  140.6630 C   0  0  0  0  0  0  0  0  0  0  0  0
  180.3490  180.2770  141.8130 O   0  0  0  0  0  1  0  0  0  0  0  0
  179.3150  178.9940  140.2290 O   0  0  0  0  0  0  0  0  0  0  0  0
  1 25  1  0  0  0  0
  3 17  1  1  0  0  0
  3  1  1  0  0  0  0
  3 13  1  0  0  0  0
  4  6  1  0  0  0  0
  5 19  1  0  0  0  0
  6 15  1  0  0  0  0
  7 34  1  6  0  0  0
  7 11  1  0  0  0  0
  8 23  1  6  0  0  0
  8 22  1  0  0  0  0
 11 21  1  0  0  0  0
 13  9  1  6  0  0  0
 13 18  1  0  0  0  0
 15 12  2  0  0  0  0
 15 14  1  0  0  0  0
 16 10  1  1  0  0  0
 16  7  1  0  0  0  0
 18  8  1  0  0  0  0
 19 24  1  0  0  0  0
 20 25  1  0  0  0  0
 20 16  1  0  0  0  0
 21  4  1  0  0  0  0
 22  5  2  0  0  0  0
 24  2  1  6  0  0  0
 24 14  1  0  0  0  0
 27 26  1  6  0  0  0
 27 16  1  0  0  0  0
 28 29  1  0  0  0  0
 28 27  1  0  0  0  0
 31 29  1  0  0  0  0
 31 33  1  0  0  0  0
 31 30  1  0  0  0  0
 32 31  1  0  0  0  0
 34 35  1  0  0  0  0
 35 36  1  0  0  0  0
 37 35  2  0  0  0  0
M  END
>  <MODEL>
1

>  <REMARK>
 VINA RESULT:      -6.7      0.000      0.000
  Name = 
  6 active torsions:
  status: ('A' for Active; 'I' for Inactive)
    1  A    between atoms: C_4  and  O_22
    2  A    between atoms: C_10  and  O_22
    3  A    between atoms: O_16  and  C_21
    4  A    between atoms: O_16  and  C_30
    5  A    between atoms: C_20  and  C_24
    6  A    between atoms: C_24  and  C_30
                            x       y       z     vdW  Elec       q    Type
                         _______ _______ _______ _____ _____    ______ ____

>  <TORSDO>
F 6

$$$$
=
 OpenBabel10262423083D

 37 37  0  0  1  0  0  0  0  0999 V2000
  185.5810  178.6890  138.2050 C   0  0  0  0  0  2  0  0  0  0  0  0
  186.3690  176.5480  144.2160 O   0  0  0  0  0  1  0  0  0  0  0  0
  186.9200  178.2510  137.6300 C   0  0  2  0  0  3  0  0  0  0  0  0
  184.4520  178.8150  143.2650 C   0  0  0  0  0  2  0  0  0  0  0  0
  188.8570  177.3210  143.3950 C   0  0  0  0  0  3  0  0  0  0  0  0
  184.1390  178.7490  144.7470 C   0  0  0  0  0  2  0  0  0  0  0  0
  182.3570  177.9940  140.1750 C   0  0  2  0  0  3  0  0  0  0  0  0
  188.7060  177.3190  140.9360 C   0  0  2  0  0  3  0  0  0  0  0  0
  188.8790  176.9290  138.0040 O   0  0  0  0  0  1  0  0  0  0  0  0
  183.0290  175.7960  139.1730 C   0  0  0  0  0  1  0  0  0  0  0  0
  183.6020  178.2460  141.0220 C   0  0  0  0  0  2  0  0  0  0  0  0
  185.9110  180.0440  145.6010 O   0  0  0  0  0  0  0  0  0  0  0  0
  187.7250  177.4130  138.6250 C   0  0  1  0  0  3  0  0  0  0  0  0
  186.0140  177.7760  146.2480 C   0  0  0  0  0  2  0  0  0  0  0  0
  185.3910  178.9410  145.5370 C   0  0  0  0  0  0  0  0  0  0  0  0
  182.6100  177.2400  138.8460 C   0  0  2  0  0  0  0  0  0  0  0  0
  187.6470  179.3740  137.2270 O   0  0  0  0  0  1  0  0  0  0  0  0
  188.0920  178.2130  139.8720 C   0  0  0  0  0  2  0  0  0  0  0  0
  188.4680  178.0700  144.9780 S   0  0  0  0  0  0  0  0  0  0  0  0
  183.5740  177.9180  138.0510 O   0  0  0  0  0  0  0  0  0  0  0  0
  183.2120  178.4880  142.4650 C   0  0  0  0  0  2  0  0  0  0  0  0
  188.4400  177.9140  142.2770 C   0  0  0  0  0  3  0  0  0  0  0  0
  190.0820  177.2190  140.7220 O   0  0  0  0  0  1  0  0  0  0  0  0
  187.0090  177.0240  145.3640 C   0  0  2  0  0  3  0  0  0  0  0  0
  184.7820  177.5750  138.4670 O   0  0  0  0  0  0  0  0  0  0  0  0
  180.3140  176.4270  138.6920 O   0  0  0  0  0  1  0  0  0  0  0  0
  181.2880  177.1960  138.0490 C   0  0  2  0  0  3  0  0  0  0  0  0
  181.4490  176.7520  136.5930 C   0  0  0  0  0  2  0  0  0  0  0  0
  180.9040  175.4710  136.3940 O   0  0  0  0  0  0  0  0  0  0  0  0
  183.0770  175.4540  135.3290 C   0  0  0  0  0  1  0  0  0  0  0  0
  181.8890  174.6390  135.8200 C   0  0  0  0  0  0  0  0  0  0  0  0
  181.2810  173.9360  134.6240 C   0  0  0  0  0  1  0  0  0  0  0  0
  182.3210  173.6660  136.7120 F   0  0  0  0  0  0  0  0  0  0  0  0
  181.5550  179.1720  140.0210 O   0  0  0  0  0  0  0  0  0  0  0  0
  180.4350  179.4810  140.7990 C   0  0  0  0  0  0  0  0  0  0  0  0
  180.0910  180.7980  141.0770 O   0  0  0  0  0  0  0  0  0  0  0  0
  179.7350  178.5490  141.2700 O   0  0  0  0  0  1  0  0  0  0  0  0
  1 25  1  0  0  0  0
  3 17  1  1  0  0  0
  3  1  1  0  0  0  0
  3 13  1  0  0  0  0
  4  6  1  0  0  0  0
  5 19  1  0  0  0  0
  6 15  1  0  0  0  0
  7 34  1  6  0  0  0
  7 11  1  0  0  0  0
  8 23  1  6  0  0  0
  8 22  1  0  0  0  0
 11 21  1  0  0  0  0
 13  9  1  6  0  0  0
 13 18  1  0  0  0  0
 15 12  2  0  0  0  0
 15 14  1  0  0  0  0
 16 10  1  1  0  0  0
 16  7  1  0  0  0  0
 18  8  1  0  0  0  0
 19 24  1  0  0  0  0
 20 25  1  0  0  0  0
 20 16  1  0  0  0  0
 21  4  1  0  0  0  0
 22  5  2  0  0  0  0
 24  2  1  6  0  0  0
 24 14  1  0  0  0  0
 27 26  1  1  0  0  0
 27 16  1  0  0  0  0
 28 27  1  0  0  0  0
 29 28  1  0  0  0  0
 30 31  1  0  0  0  0
 31 29  1  0  0  0  0
 31 33  1  0  0  0  0
 32 31  1  0  0  0  0
 34 35  1  0  0  0  0
 35 36  2  0  0  0  0
 35 37  1  0  0  0  0
M  END
>  <MODEL>
2

>  <REMARK>
 VINA RESULT:      -6.4      1.744      2.363
  Name = 
  6 active torsions:
  status: ('A' for Active; 'I' for Inactive)
    1  A    between atoms: C_4  and  O_22
    2  A    between atoms: C_10  and  O_22
    3  A    between atoms: O_16  and  C_21
    4  A    between atoms: O_16  and  C_30
    5  A    between atoms: C_20  and  C_24
    6  A    between atoms: C_24  and  C_30
                            x       y       z     vdW  Elec       q    Type
                         _______ _______ _______ _____ _____    ______ ____

>  <TORSDO>
F 6

$$$$
=
 OpenBabel10262423083D

 37 37  0  0  1  0  0  0  0  0999 V2000
  186.2890  179.0220  140.8650 C   0  0  0  0  0  2  0  0  0  0  0  0
  188.9640  174.1730  137.5990 O   0  0  0  0  0  1  0  0  0  0  0  0
  184.8790  178.9240  140.3040 C   0  0  2  0  0  3  0  0  0  0  0  0
  190.4260  176.6180  138.8650 C   0  0  0  0  0  2  0  0  0  0  0  0
  187.1080  175.2450  135.9060 C   0  0  0  0  0  3  0  0  0  0  0  0
  191.5880  175.8240  138.2990 C   0  0  0  0  0  2  0  0  0  0  0  0
  189.4130  177.4480  142.4560 C   0  0  2  0  0  3  0  0  0  0  0  0
  185.5710  176.4670  137.3940 C   0  0  2  0  0  3  0  0  0  0  0  0
  183.3640  177.5860  139.0230 O   0  0  0  0  0  1  0  0  0  0  0  0
  187.4810  176.0370  143.2090 C   0  0  0  0  0  1  0  0  0  0  0  0
  189.2680  177.2420  140.9500 C   0  0  0  0  0  2  0  0  0  0  0  0
  191.5040  176.5180  136.0500 O   0  0  0  0  0  0  0  0  0  0  0  0
  184.7030  177.7000  139.4030 C   0  0  1  0  0  3  0  0  0  0  0  0
  191.0080  174.2280  136.3410 C   0  0  0  0  0  2  0  0  0  0  0  0
  191.3780  175.5940  136.8390 C   0  0  0  0  0  0  0  0  0  0  0  0
  188.0800  177.4540  143.2470 C   0  0  2  0  0  0  0  0  0  0  0  0
  184.5680  180.0970  139.6100 O   0  0  0  0  0  1  0  0  0  0  0  0
  185.5990  177.7730  138.1690 C   0  0  0  0  0  2  0  0  0  0  0  0
  188.6940  175.1080  135.0780 S   0  0  0  0  0  0  0  0  0  0  0  0
  187.1890  178.4350  142.7350 O   0  0  0  0  0  0  0  0  0  0  0  0
  190.5700  176.7350  140.3650 C   0  0  0  0  0  2  0  0  0  0  0  0
  186.8590  176.3170  136.6570 C   0  0  0  0  0  3  0  0  0  0  0  0
  184.5050  176.4830  136.4930 O   0  0  0  0  0  1  0  0  0  0  0  0
  189.4950  174.0130  136.3160 C   0  0  2  0  0  3  0  0  0  0  0  0
  186.5560  177.9270  141.6890 O   0  0  0  0  0  0  0  0  0  0  0  0
  188.7910  176.7010  145.4580 O   0  0  0  0  0  1  0  0  0  0  0  0
  188.3860  177.8160  144.7170 C   0  0  2  0  0  3  0  0  0  0  0  0
  187.2500  178.5520  145.4300 C   0  0  0  0  0  2  0  0  0  0  0  0
  186.2690  177.6500  145.8810 O   0  0  0  0  0  0  0  0  0  0  0  0
  184.3000  178.9360  145.3080 C   0  0  0  0  0  1  0  0  0  0  0  0
  185.1860  178.3800  146.4150 C   0  0  0  0  0  0  0  0  0  0  0  0
  185.7420  179.5510  147.1980 C   0  0  0  0  0  1  0  0  0  0  0  0
  184.4270  177.6080  147.2830 F   0  0  0  0  0  0  0  0  0  0  0  0
  190.2730  178.5490  142.7750 O   0  0  0  0  0  0  0  0  0  0  0  0
  191.4140  178.4610  143.5800 C   0  0  0  0  0  0  0  0  0  0  0  0
  191.9300  179.5790  144.2230 O   0  0  0  0  0  1  0  0  0  0  0  0
  191.9930  177.3520  143.7100 O   0  0  0  0  0  0  0  0  0  0  0  0
  1 25  1  0  0  0  0
  3 17  1  6  0  0  0
  3  1  1  0  0  0  0
  4 21  1  0  0  0  0
  5 22  2  0  0  0  0
  6  4  1  0  0  0  0
  7 34  1  6  0  0  0
  7 16  1  0  0  0  0
  8 23  1  6  0  0  0
  8 18  1  0  0  0  0
 11  7  1  0  0  0  0
 12 15  2  0  0  0  0
 13  9  1  6  0  0  0
 13  3  1  0  0  0  0
 14 15  1  0  0  0  0
 15  6  1  0  0  0  0
 16 10  1  6  0  0  0
 16 27  1  0  0  0  0
 18 13  1  0  0  0  0
 19  5  1  0  0  0  0
 19 24  1  0  0  0  0
 20 16  1  0  0  0  0
 21 11  1  0  0  0  0
 22  8  1  0  0  0  0
 24 14  1  0  0  0  0
 24  2  1  1  0  0  0
 25 20  1  0  0  0  0
 27 28  1  0  0  0  0
 27 26  1  1  0  0  0
 28 29  1  0  0  0  0
 29 31  1  0  0  0  0
 30 31  1  0  0  0  0
 31 32  1  0  0  0  0
 31 33  1  0  0  0  0
 34 35  1  0  0  0  0
 35 37  2  0  0  0  0
 35 36  1  0  0  0  0
M  END
>  <MODEL>
3

>  <REMARK>
 VINA RESULT:      -6.4      3.885      8.739
  Name = 
  6 active torsions:
  status: ('A' for Active; 'I' for Inactive)
    1  A    between atoms: C_4  and  O_22
    2  A    between atoms: C_10  and  O_22
    3  A    between atoms: O_16  and  C_21
    4  A    between atoms: O_16  and  C_30
    5  A    between atoms: C_20  and  C_24
    6  A    between atoms: C_24  and  C_30
                            x       y       z     vdW  Elec       q    Type
                         _______ _______ _______ _____ _____    ______ ____

>  <TORSDO>
F 6

$$$$
=
 OpenBabel10262423083D

 37 37  0  0  1  0  0  0  0  0999 V2000
  186.3900  178.6270  137.8100 C   0  0  0  0  0  2  0  0  0  0  0  0
  186.4620  176.4580  143.8620 O   0  0  0  0  0  1  0  0  0  0  0  0
  187.7990  178.2230  137.4070 C   0  0  2  0  0  3  0  0  0  0  0  0
  184.6280  178.6890  142.6880 C   0  0  0  0  0  2  0  0  0  0  0  0
  189.0140  177.2920  143.3650 C   0  0  0  0  0  3  0  0  0  0  0  0
  184.1320  178.6040  144.1180 C   0  0  0  0  0  2  0  0  0  0  0  0
  182.9590  177.8460  139.3540 C   0  0  2  0  0  3  0  0  0  0  0  0
  189.1750  177.3060  140.9070 C   0  0  2  0  0  3  0  0  0  0  0  0
  189.7250  176.9420  138.0180 O   0  0  0  0  0  1  0  0  0  0  0  0
  183.8030  175.6710  138.4350 C   0  0  0  0  0  1  0  0  0  0  0  0
  184.0810  178.1180  140.3520 C   0  0  0  0  0  2  0  0  0  0  0  0
  185.7520  179.9320  145.1960 O   0  0  0  0  0  0  0  0  0  0  0  0
  188.4920  177.3950  138.4910 C   0  0  1  0  0  3  0  0  0  0  0  0
  185.8250  177.6610  145.8390 C   0  0  0  0  0  2  0  0  0  0  0  0
  185.2700  178.8180  145.0610 C   0  0  0  0  0  0  0  0  0  0  0  0
  183.3950  177.1080  138.0630 C   0  0  2  0  0  0  0  0  0  0  0  0
  188.5460  179.3650  137.1050 O   0  0  0  0  0  1  0  0  0  0  0  0
  188.6800  178.1940  139.7790 C   0  0  0  0  0  2  0  0  0  0  0  0
  188.4120  178.0200  144.8910 S   0  0  0  0  0  0  0  0  0  0  0  0
  184.4350  177.8130  137.4000 O   0  0  0  0  0  0  0  0  0  0  0  0
  183.5070  178.3410  141.7360 C   0  0  0  0  0  2  0  0  0  0  0  0
  188.7290  177.8840  142.2070 C   0  0  0  0  0  3  0  0  0  0  0  0
  190.5690  177.2370  140.8690 O   0  0  0  0  0  1  0  0  0  0  0  0
  186.9400  176.9390  145.0840 C   0  0  2  0  0  3  0  0  0  0  0  0
  185.5900  177.4930  137.9640 O   0  0  0  0  0  0  0  0  0  0  0  0
  182.1870  178.0930  136.1850 O   0  0  0  0  0  1  0  0  0  0  0  0
  182.1860  177.0400  137.1060 C   0  0  2  0  0  3  0  0  0  0  0  0
  180.8320  176.9440  137.8120 C   0  0  0  0  0  2  0  0  0  0  0  0
  180.4420  175.6030  137.9750 O   0  0  0  0  0  0  0  0  0  0  0  0
  179.0030  174.2860  139.4070 C   0  0  0  0  0  1  0  0  0  0  0  0
  180.0330  175.4030  139.3110 C   0  0  0  0  0  0  0  0  0  0  0  0
  179.3820  176.6790  139.8030 C   0  0  0  0  0  1  0  0  0  0  0  0
  181.1100  175.1260  140.1410 F   0  0  0  0  0  0  0  0  0  0  0  0
  182.1560  179.0070  139.1060 O   0  0  0  0  0  0  0  0  0  0  0  0
  182.6620  180.2770  138.8120 C   0  0  0  0  0  0  0  0  0  0  0  0
  184.0100  180.5730  138.9740 O   0  0  0  0  0  1  0  0  0  0  0  0
  181.8780  181.1750  138.4080 O   0  0  0  0  0  0  0  0  0  0  0  0
  1 25  1  0  0  0  0
  3 17  1  1  0  0  0
  3  1  1  0  0  0  0
  3 13  1  0  0  0  0
  4  6  1  0  0  0  0
  5 19  1  0  0  0  0
  6 15  1  0  0  0  0
  7 34  1  6  0  0  0
  7 11  1  0  0  0  0
  8 23  1  1  0  0  0
  8 22  1  0  0  0  0
 11 21  1  0  0  0  0
 13  9  1  6  0  0  0
 13 18  1  0  0  0  0
 15 12  2  0  0  0  0
 15 14  1  0  0  0  0
 16 10  1  1  0  0  0
 16  7  1  0  0  0  0
 18  8  1  0  0  0  0
 19 24  1  0  0  0  0
 20 25  1  0  0  0  0
 20 16  1  0  0  0  0
 21  4  1  0  0  0  0
 22  5  2  0  0  0  0
 24  2  1  6  0  0  0
 24 14  1  0  0  0  0
 27 26  1  1  0  0  0
 27 28  1  0  0  0  0
 27 16  1  0  0  0  0
 28 29  1  0  0  0  0
 29 31  1  0  0  0  0
 31 30  1  0  0  0  0
 31 32  1  0  0  0  0
 31 33  1  0  0  0  0
 35 36  1  0  0  0  0
 35 34  1  0  0  0  0
 37 35  2  0  0  0  0
M  END
>  <MODEL>
4

>  <REMARK>
 VINA RESULT:      -6.3      1.858      2.588
  Name = 
  6 active torsions:
  status: ('A' for Active; 'I' for Inactive)
    1  A    between atoms: C_4  and  O_22
    2  A    between atoms: C_10  and  O_22
    3  A    between atoms: O_16  and  C_21
    4  A    between atoms: O_16  and  C_30
    5  A    between atoms: C_20  and  C_24
    6  A    between atoms: C_24  and  C_30
                            x       y       z     vdW  Elec       q    Type
                         _______ _______ _______ _____ _____    ______ ____

>  <TORSDO>
F 6

$$$$
=
 OpenBabel10262423083D

 37 37  0  0  1  0  0  0  0  0999 V2000
  185.2790  178.9230  141.9310 C   0  0  0  0  0  2  0  0  0  0  0  0
  187.7660  175.1780  137.3340 O   0  0  0  0  0  1  0  0  0  0  0  0
  183.8060  178.6280  141.6920 C   0  0  2  0  0  3  0  0  0  0  0  0
  189.0990  177.6680  138.6550 C   0  0  0  0  0  2  0  0  0  0  0  0
  185.3980  176.0860  136.3210 C   0  0  0  0  0  3  0  0  0  0  0  0
  190.1890  177.2000  137.7100 C   0  0  0  0  0  2  0  0  0  0  0  0
  188.9110  177.7900  142.4710 C   0  0  2  0  0  3  0  0  0  0  0  0
  184.1160  176.7700  138.3100 C   0  0  2  0  0  3  0  0  0  0  0  0
  182.2460  177.2050  140.5670 O   0  0  0  0  0  1  0  0  0  0  0  0
  187.4790  175.9390  143.3740 C   0  0  0  0  0  1  0  0  0  0  0  0
  188.4230  177.7650  141.0240 C   0  0  0  0  0  2  0  0  0  0  0  0
  189.4310  178.1620  135.6990 O   0  0  0  0  0  0  0  0  0  0  0  0
  183.6030  177.5260  140.6500 C   0  0  1  0  0  3  0  0  0  0  0  0
  189.3900  175.8020  135.6790 C   0  0  0  0  0  2  0  0  0  0  0  0
  189.6550  177.1340  136.3170 C   0  0  0  0  0  0  0  0  0  0  0  0
  187.8380  177.4280  143.5290 C   0  0  2  0  0  0  0  0  0  0  0  0
  183.1500  179.7990  141.3070 O   0  0  0  0  0  1  0  0  0  0  0  0
  184.1330  177.9390  139.2790 C   0  0  0  0  0  2  0  0  0  0  0  0
  186.7240  176.3750  135.1470 S   0  0  0  0  0  0  0  0  0  0  0  0
  186.7030  178.2750  143.4140 O   0  0  0  0  0  0  0  0  0  0  0  0
  189.5980  177.6070  140.0810 C   0  0  0  0  0  2  0  0  0  0  0  0
  185.1820  176.9760  137.2870 C   0  0  0  0  0  3  0  0  0  0  0  0
  182.8670  176.6990  137.6890 O   0  0  0  0  0  1  0  0  0  0  0  0
  187.9730  175.3010  135.9570 C   0  0  2  0  0  3  0  0  0  0  0  0
  185.9140  177.8000  142.4640 O   0  0  0  0  0  0  0  0  0  0  0  0
  189.4950  176.7520  145.1900 O   0  0  0  0  0  1  0  0  0  0  0  0
  188.4450  177.6400  144.9330 C   0  0  2  0  0  3  0  0  0  0  0  0
  187.4220  177.6060  146.0700 C   0  0  0  0  0  2  0  0  0  0  0  0
  187.9270  176.9090  147.1830 O   0  0  0  0  0  0  0  0  0  0  0  0
  187.0850  179.0050  148.0530 C   0  0  0  0  0  1  0  0  0  0  0  0
  187.9570  177.7790  148.2940 C   0  0  0  0  0  0  0  0  0  0  0  0
  189.3820  178.2530  148.4890 C   0  0  0  0  0  1  0  0  0  0  0  0
  187.5570  177.1370  149.4580 F   0  0  0  0  0  0  0  0  0  0  0  0
  189.6400  178.9840  142.7800 O   0  0  0  0  0  0  0  0  0  0  0  0
  190.9230  179.0130  143.3360 C   0  0  0  0  0  0  0  0  0  0  0  0
  191.3000  180.0070  144.2300 O   0  0  0  0  0  1  0  0  0  0  0  0
  191.7570  178.1300  143.0080 O   0  0  0  0  0  0  0  0  0  0  0  0
  1 25  1  0  0  0  0
  3 17  1  6  0  0  0
  3  1  1  0  0  0  0
  4 21  1  0  0  0  0
  5 22  2  0  0  0  0
  6  4  1  0  0  0  0
  7 34  1  1  0  0  0
  7 16  1  0  0  0  0
  8 23  1  6  0  0  0
  8 18  1  0  0  0  0
 11  7  1  0  0  0  0
 12 15  2  0  0  0  0
 13  9  1  6  0  0  0
 13  3  1  0  0  0  0
 14 24  1  0  0  0  0
 14 15  1  0  0  0  0
 15  6  1  0  0  0  0
 16 10  1  6  0  0  0
 16 27  1  0  0  0  0
 18 13  1  0  0  0  0
 19 24  1  0  0  0  0
 19  5  1  0  0  0  0
 20 16  1  0  0  0  0
 21 11  1  0  0  0  0
 22  8  1  0  0  0  0
 24  2  1  1  0  0  0
 25 20  1  0  0  0  0
 27 26  1  1  0  0  0
 27 28  1  0  0  0  0
 28 29  1  0  0  0  0
 29 31  1  0  0  0  0
 30 31  1  0  0  0  0
 31 32  1  0  0  0  0
 31 33  1  0  0  0  0
 34 35  1  0  0  0  0
 35 36  1  0  0  0  0
 37 35  2  0  0  0  0
M  END
>  <MODEL>
5

>  <REMARK>
 VINA RESULT:      -6.0      3.849      9.237
  Name = 
  6 active torsions:
  status: ('A' for Active; 'I' for Inactive)
    1  A    between atoms: C_4  and  O_22
    2  A    between atoms: C_10  and  O_22
    3  A    between atoms: O_16  and  C_21
    4  A    between atoms: O_16  and  C_30
    5  A    between atoms: C_20  and  C_24
    6  A    between atoms: C_24  and  C_30
                            x       y       z     vdW  Elec       q    Type
                         _______ _______ _______ _____ _____    ______ ____

>  <TORSDO>
F 6

$$$$
=
 OpenBabel10262423083D

 37 37  0  0  1  0  0  0  0  0999 V2000
  189.9800  176.4130  140.6460 C   0  0  0  0  0  2  0  0  0  0  0  0
  184.7180  179.9600  139.6110 O   0  0  0  0  0  1  0  0  0  0  0  0
  190.5550  176.4430  139.2380 C   0  0  2  0  0  3  0  0  0  0  0  0
  185.1620  177.8780  141.8880 C   0  0  0  0  0  2  0  0  0  0  0  0
  185.1250  178.5810  137.2890 C   0  0  0  0  0  3  0  0  0  0  0  0
  183.7780  178.4020  142.2160 C   0  0  0  0  0  2  0  0  0  0  0  0
  188.4990  178.1590  143.7320 C   0  0  2  0  0  3  0  0  0  0  0  0
  187.5000  177.9320  137.3840 C   0  0  2  0  0  3  0  0  0  0  0  0
  190.4100  177.4650  137.0790 O   0  0  0  0  0  1  0  0  0  0  0  0
  190.0010  179.8500  142.6480 C   0  0  0  0  0  1  0  0  0  0  0  0
  187.5310  177.9430  142.5710 C   0  0  0  0  0  2  0  0  0  0  0  0
  182.4860  177.1110  140.7290 O   0  0  0  0  0  0  0  0  0  0  0  0
  189.7650  177.3740  138.3150 C   0  0  1  0  0  3  0  0  0  0  0  0
  182.4620  179.4180  140.2270 C   0  0  0  0  0  2  0  0  0  0  0  0
  182.8790  178.2250  141.0370 C   0  0  0  0  0  0  0  0  0  0  0  0
  189.9600  178.4640  143.3160 C   0  0  2  0  0  0  0  0  0  0  0  0
  190.5910  175.1460  138.7180 O   0  0  0  0  0  1  0  0  0  0  0  0
  188.3270  176.8970  138.1270 C   0  0  0  0  0  2  0  0  0  0  0  0
  183.4310  178.3750  137.8410 S   0  0  0  0  0  0  0  0  0  0  0  0
  190.4750  177.4410  142.4750 O   0  0  0  0  0  0  0  0  0  0  0  0
  186.1060  178.1770  143.0300 C   0  0  0  0  0  2  0  0  0  0  0  0
  186.0710  177.7830  137.7820 C   0  0  0  0  0  3  0  0  0  0  0  0
  187.6350  177.7350  136.0080 O   0  0  0  0  0  1  0  0  0  0  0  0
  183.4430  179.7180  139.0940 C   0  0  2  0  0  3  0  0  0  0  0  0
  190.0820  177.6750  141.2340 O   0  0  0  0  0  0  0  0  0  0  0  0
  191.8350  179.4810  144.5040 O   0  0  0  0  0  1  0  0  0  0  0  0
  190.8320  178.5100  144.5900 C   0  0  2  0  0  3  0  0  0  0  0  0
  191.4240  177.1590  144.9940 C   0  0  0  0  0  2  0  0  0  0  0  0
  191.8670  177.1810  146.3290 O   0  0  0  0  0  0  0  0  0  0  0  0
  192.8050  175.6620  147.9630 C   0  0  0  0  0  1  0  0  0  0  0  0
  191.7720  175.8790  146.8650 C   0  0  0  0  0  0  0  0  0  0  0  0
  192.0560  174.8870  145.7570 C   0  0  0  0  0  1  0  0  0  0  0  0
  190.5000  175.6190  147.3560 F   0  0  0  0  0  0  0  0  0  0  0  0
  188.3900  177.1380  144.7310 O   0  0  0  0  0  0  0  0  0  0  0  0
  187.8020  177.3120  145.9880 C   0  0  0  0  0  0  0  0  0  0  0  0
  186.4390  177.1280  146.1790 O   0  0  0  0  0  0  0  0  0  0  0  0
  188.5200  177.6590  146.9610 O   0  0  0  0  0  1  0  0  0  0  0  0
  1 25  1  0  0  0  0
  3 17  1  6  0  0  0
  3  1  1  0  0  0  0
  4  6  1  0  0  0  0
  4 21  1  0  0  0  0
  5 22  2  0  0  0  0
  5 19  1  0  0  0  0
  7 34  1  1  0  0  0
  8 23  1  6  0  0  0
  8 22  1  0  0  0  0
  8 18  1  0  0  0  0
 11 21  1  0  0  0  0
 11  7  1  0  0  0  0
 12 15  2  0  0  0  0
 13  9  1  6  0  0  0
 13  3  1  0  0  0  0
 14 15  1  0  0  0  0
 15  6  1  0  0  0  0
 16 10  1  6  0  0  0
 16  7  1  0  0  0  0
 16 27  1  0  0  0  0
 18 13  1  0  0  0  0
 19 24  1  0  0  0  0
 20 16  1  0  0  0  0
 24  2  1  1  0  0  0
 24 14  1  0  0  0  0
 25 20  1  0  0  0  0
 27 26  1  6  0  0  0
 27 28  1  0  0  0  0
 28 29  1  0  0  0  0
 29 31  1  0  0  0  0
 31 33  1  0  0  0  0
 31 30  1  0  0  0  0
 32 31  1  0  0  0  0
 34 35  1  0  0  0  0
 35 36  2  0  0  0  0
 35 37  1  0  0  0  0
M  END
>  <MODEL>
6

>  <REMARK>
 VINA RESULT:      -6.0      3.785      8.942
  Name = 
  6 active torsions:
  status: ('A' for Active; 'I' for Inactive)
    1  A    between atoms: C_4  and  O_22
    2  A    between atoms: C_10  and  O_22
    3  A    between atoms: O_16  and  C_21
    4  A    between atoms: O_16  and  C_30
    5  A    between atoms: C_20  and  C_24
    6  A    between atoms: C_24  and  C_30
                            x       y       z     vdW  Elec       q    Type
                         _______ _______ _______ _____ _____    ______ ____

>  <TORSDO>
F 6

$$$$
=
 OpenBabel10262423083D

 37 37  0  0  1  0  0  0  0  0999 V2000
  187.0380  174.1240  137.2210 C   0  0  0  0  0  2  0  0  0  0  0  0
  180.7140  174.2450  136.0690 O   0  0  0  0  0  1  0  0  0  0  0  0
  187.4020  172.9220  136.3630 C   0  0  2  0  0  3  0  0  0  0  0  0
  182.1980  175.4400  138.5370 C   0  0  0  0  0  2  0  0  0  0  0  0
  181.4030  171.6030  136.0290 C   0  0  0  0  0  3  0  0  0  0  0  0
  180.7610  175.8370  138.8200 C   0  0  0  0  0  2  0  0  0  0  0  0
  185.3050  177.5150  137.7280 C   0  0  2  0  0  3  0  0  0  0  0  0
  183.8320  171.6210  135.6220 C   0  0  2  0  0  3  0  0  0  0  0  0
  186.6330  171.4060  134.6790 O   0  0  0  0  0  1  0  0  0  0  0  0
  185.8710  177.3990  135.2880 C   0  0  0  0  0  1  0  0  0  0  0  0
  184.3920  176.2940  137.8060 C   0  0  0  0  0  2  0  0  0  0  0  0
  179.9580  173.8320  139.7580 O   0  0  0  0  0  0  0  0  0  0  0  0
  186.2130  172.4210  135.5420 C   0  0  1  0  0  3  0  0  0  0  0  0
  178.9490  174.3670  137.6920 C   0  0  0  0  0  2  0  0  0  0  0  0
  179.8950  174.6210  138.8290 C   0  0  0  0  0  0  0  0  0  0  0  0
  186.4650  177.4020  136.7080 C   0  0  2  0  0  0  0  0  0  0  0  0
  187.9070  171.9030  137.1740 O   0  0  0  0  0  1  0  0  0  0  0  0
  185.0800  171.9200  136.4350 C   0  0  0  0  0  2  0  0  0  0  0  0
  180.0050  171.8600  137.1240 S   0  0  0  0  0  0  0  0  0  0  0  0
  187.2600  176.2540  136.9660 O   0  0  0  0  0  0  0  0  0  0  0  0
  183.0510  176.6800  138.3950 C   0  0  0  0  0  2  0  0  0  0  0  0
  182.6360  171.7880  136.4970 C   0  0  0  0  0  3  0  0  0  0  0  0
  183.8920  170.3120  135.1410 O   0  0  0  0  0  1  0  0  0  0  0  0
  179.6000  173.5630  136.5670 C   0  0  2  0  0  3  0  0  0  0  0  0
  186.6800  175.2030  136.4090 O   0  0  0  0  0  0  0  0  0  0  0  0
  187.4810  179.3570  135.6570 O   0  0  0  0  0  1  0  0  0  0  0  0
  187.3690  178.6450  136.8550 C   0  0  2  0  0  3  0  0  0  0  0  0
  188.7530  178.3480  137.4360 C   0  0  0  0  0  2  0  0  0  0  0  0
  188.9060  178.9410  138.7030 O   0  0  0  0  0  0  0  0  0  0  0  0
  188.6660  178.3770  141.0440 C   0  0  0  0  0  1  0  0  0  0  0  0
  189.1170  177.9260  139.6610 C   0  0  0  0  0  0  0  0  0  0  0  0
  190.6020  177.6360  139.7270 C   0  0  0  0  0  1  0  0  0  0  0  0
  188.4670  176.7500  139.3130 F   0  0  0  0  0  0  0  0  0  0  0  0
  185.7230  177.9670  139.0220 O   0  0  0  0  0  0  0  0  0  0  0  0
  185.1140  179.0010  139.7410 C   0  0  0  0  0  0  0  0  0  0  0  0
  184.5500  180.0940  139.0950 O   0  0  0  0  0  0  0  0  0  0  0  0
  185.0920  178.9490  140.9970 O   0  0  0  0  0  1  0  0  0  0  0  0
  3 17  1  1  0  0  0
  3  1  1  0  0  0  0
  4  6  1  0  0  0  0
  5 22  2  0  0  0  0
  5 19  1  0  0  0  0
  6 15  1  0  0  0  0
  7 11  1  0  0  0  0
  7 34  1  1  0  0  0
  8 23  1  1  0  0  0
  8 18  1  0  0  0  0
  8 22  1  0  0  0  0
 11 21  1  0  0  0  0
 13  9  1  6  0  0  0
 13  3  1  0  0  0  0
 13 18  1  0  0  0  0
 14 15  1  0  0  0  0
 15 12  2  0  0  0  0
 16 10  1  6  0  0  0
 16 27  1  0  0  0  0
 16 20  1  0  0  0  0
 16  7  1  0  0  0  0
 21  4  1  0  0  0  0
 24  2  1  1  0  0  0
 24 19  1  0  0  0  0
 24 14  1  0  0  0  0
 25 20  1  0  0  0  0
 25  1  1  0  0  0  0
 27 26  1  6  0  0  0
 27 28  1  0  0  0  0
 28 29  1  0  0  0  0
 29 31  1  0  0  0  0
 31 32  1  0  0  0  0
 31 30  1  0  0  0  0
 33 31  1  0  0  0  0
 34 35  1  0  0  0  0
 35 37  1  0  0  0  0
 36 35  2  0  0  0  0
M  END
>  <MODEL>
7

>  <REMARK>
 VINA RESULT:      -5.7      4.259      8.042
  Name = 
  6 active torsions:
  status: ('A' for Active; 'I' for Inactive)
    1  A    between atoms: C_4  and  O_22
    2  A    between atoms: C_10  and  O_22
    3  A    between atoms: O_16  and  C_21
    4  A    between atoms: O_16  and  C_30
    5  A    between atoms: C_20  and  C_24
    6  A    between atoms: C_24  and  C_30
                            x       y       z     vdW  Elec       q    Type
                         _______ _______ _______ _____ _____    ______ ____

>  <TORSDO>
F 6

$$$$
=
 OpenBabel10262423083D

 37 37  0  0  1  0  0  0  0  0999 V2000
  185.4200  173.8200  137.0260 C   0  0  0  0  0  2  0  0  0  0  0  0
  181.5530  178.9440  136.6720 O   0  0  0  0  0  1  0  0  0  0  0  0
  184.5230  172.8090  136.3280 C   0  0  2  0  0  3  0  0  0  0  0  0
  183.8570  178.4670  138.7170 C   0  0  0  0  0  2  0  0  0  0  0  0
  179.8840  176.8010  136.9590 C   0  0  0  0  0  3  0  0  0  0  0  0
  183.3760  179.8500  139.1120 C   0  0  0  0  0  2  0  0  0  0  0  0
  187.1510  177.2450  137.2100 C   0  0  2  0  0  3  0  0  0  0  0  0
  181.2510  174.8760  136.2530 C   0  0  2  0  0  3  0  0  0  0  0  0
  182.5460  172.5180  135.0110 O   0  0  0  0  0  1  0  0  0  0  0  0
  186.9050  176.7380  134.7670 C   0  0  0  0  0  1  0  0  0  0  0  0
  185.6730  177.2350  137.5920 C   0  0  0  0  0  2  0  0  0  0  0  0
  181.5220  179.2760  140.4450 O   0  0  0  0  0  0  0  0  0  0  0  0
  183.2640  173.4610  135.7510 C   0  0  1  0  0  3  0  0  0  0  0  0
  180.9310  180.4160  138.4640 C   0  0  0  0  0  2  0  0  0  0  0  0
  181.9160  179.8080  139.4190 C   0  0  0  0  0  0  0  0  0  0  0  0
  187.5430  176.2570  136.0830 C   0  0  2  0  0  0  0  0  0  0  0  0
  184.1860  171.7870  137.2190 O   0  0  0  0  0  1  0  0  0  0  0  0
  182.3830  174.0560  136.8460 C   0  0  0  0  0  2  0  0  0  0  0  0
  179.4800  178.0640  138.1670 S   0  0  0  0  0  0  0  0  0  0  0  0
  187.1660  174.9290  136.4160 O   0  0  0  0  0  0  0  0  0  0  0  0
  185.3020  178.5350  138.2760 C   0  0  0  0  0  2  0  0  0  0  0  0
  180.8510  175.9260  137.2340 C   0  0  0  0  0  3  0  0  0  0  0  0
  180.1660  174.0410  135.9790 O   0  0  0  0  0  1  0  0  0  0  0  0
  180.4620  179.4170  137.4060 C   0  0  2  0  0  3  0  0  0  0  0  0
  185.8900  174.7610  136.1080 O   0  0  0  0  0  0  0  0  0  0  0  0
  189.5010  177.3490  135.1160 O   0  0  0  0  0  1  0  0  0  0  0  0
  189.0780  176.2850  135.9200 C   0  0  2  0  0  3  0  0  0  0  0  0
  189.6810  174.9670  135.4290 C   0  0  0  0  0  2  0  0  0  0  0  0
  191.0810  174.9730  135.5610 O   0  0  0  0  0  0  0  0  0  0  0  0
  192.2580  174.8680  137.6730 C   0  0  0  0  0  1  0  0  0  0  0  0
  191.4440  174.1200  136.6250 C   0  0  0  0  0  0  0  0  0  0  0  0
  192.3100  173.0080  136.0700 C   0  0  0  0  0  1  0  0  0  0  0  0
  190.3320  173.5400  137.2190 F   0  0  0  0  0  0  0  0  0  0  0  0
  188.0100  177.1760  138.3550 O   0  0  0  0  0  0  0  0  0  0  0  0
  188.7410  178.2520  138.8690 C   0  0  0  0  0  0  0  0  0  0  0  0
  189.0560  179.3530  138.0820 O   0  0  0  0  0  0  0  0  0  0  0  0
  189.1350  178.2150  140.0630 O   0  0  0  0  0  1  0  0  0  0  0  0
  3  1  1  0  0  0  0
  3 17  1  1  0  0  0
  4  6  1  0  0  0  0
  5 22  2  0  0  0  0
  5 19  1  0  0  0  0
  6 15  1  0  0  0  0
  7 11  1  0  0  0  0
  7 34  1  1  0  0  0
  8 23  1  1  0  0  0
  8 18  1  0  0  0  0
  8 22  1  0  0  0  0
 11 21  1  0  0  0  0
 13  9  1  1  0  0  0
 13  3  1  0  0  0  0
 13 18  1  0  0  0  0
 14 15  1  0  0  0  0
 15 12  2  0  0  0  0
 16 10  1  6  0  0  0
 16 20  1  0  0  0  0
 16  7  1  0  0  0  0
 21  4  1  0  0  0  0
 24  2  1  1  0  0  0
 24 19  1  0  0  0  0
 24 14  1  0  0  0  0
 25 20  1  0  0  0  0
 25  1  1  0  0  0  0
 27 26  1  6  0  0  0
 27 16  1  0  0  0  0
 28 29  1  0  0  0  0
 28 27  1  0  0  0  0
 29 31  1  0  0  0  0
 31 33  1  0  0  0  0
 31 30  1  0  0  0  0
 32 31  1  0  0  0  0
 34 35  1  0  0  0  0
 35 37  1  0  0  0  0
 36 35  2  0  0  0  0
M  END
>  <MODEL>
8

>  <REMARK>
 VINA RESULT:      -5.5      4.234      8.750
  Name = 
  6 active torsions:
  status: ('A' for Active; 'I' for Inactive)
    1  A    between atoms: C_4  and  O_22
    2  A    between atoms: C_10  and  O_22
    3  A    between atoms: O_16  and  C_21
    4  A    between atoms: O_16  and  C_30
    5  A    between atoms: C_20  and  C_24
    6  A    between atoms: C_24  and  C_30
                            x       y       z     vdW  Elec       q    Type
                         _______ _______ _______ _____ _____    ______ ____

>  <TORSDO>
F 6

$$$$
=
 OpenBabel10262423083D

 37 37  0  0  1  0  0  0  0  0999 V2000
  185.0210  177.9350  141.8160 C   0  0  0  0  0  2  0  0  0  0  0  0
  186.9450  176.7860  135.7900 O   0  0  0  0  0  1  0  0  0  0  0  0
  186.2880  178.5950  142.3370 C   0  0  2  0  0  3  0  0  0  0  0  0
  184.6930  175.3060  137.3580 C   0  0  0  0  0  2  0  0  0  0  0  0
  189.1870  176.5140  137.3260 C   0  0  0  0  0  3  0  0  0  0  0  0
  184.6240  174.6260  136.0040 C   0  0  0  0  0  2  0  0  0  0  0  0
  182.2280  177.5710  139.2030 C   0  0  2  0  0  3  0  0  0  0  0  0
  188.6530  177.7430  139.3930 C   0  0  2  0  0  3  0  0  0  0  0  0
  188.4000  179.5440  141.7320 O   0  0  0  0  0  1  0  0  0  0  0  0
  182.9430  179.9720  139.1040 C   0  0  0  0  0  1  0  0  0  0  0  0
  183.5600  176.9240  138.8340 C   0  0  0  0  0  2  0  0  0  0  0  0
  186.3750  173.0680  136.2370 O   0  0  0  0  0  0  0  0  0  0  0  0
  187.3170  178.8210  141.2270 C   0  0  1  0  0  3  0  0  0  0  0  0
  186.7970  174.7100  134.5940 C   0  0  0  0  0  2  0  0  0  0  0  0
  185.9610  174.0590  135.6560 C   0  0  0  0  0  0  0  0  0  0  0  0
  182.3410  178.8870  140.0130 C   0  0  2  0  0  0  0  0  0  0  0  0
  186.8320  177.8200  143.3640 O   0  0  0  0  0  1  0  0  0  0  0  0
  187.7960  177.5030  140.6240 C   0  0  0  0  0  2  0  0  0  0  0  0
  188.9810  175.0760  136.2720 S   0  0  0  0  0  0  0  0  0  0  0  0
  183.0980  178.6910  141.2000 O   0  0  0  0  0  0  0  0  0  0  0  0
  183.3800  175.9950  137.6510 C   0  0  0  0  0  2  0  0  0  0  0  0
  188.5450  176.5600  138.4920 C   0  0  0  0  0  3  0  0  0  0  0  0
  189.9810  177.9300  139.7790 O   0  0  0  0  0  1  0  0  0  0  0  0
  187.7080  175.7980  135.1620 C   0  0  2  0  0  3  0  0  0  0  0  0
  184.3840  178.7750  140.9000 O   0  0  0  0  0  0  0  0  0  0  0  0
  180.5480  180.5320  139.8180 O   0  0  0  0  0  1  0  0  0  0  0  0
  180.9210  179.3300  140.4280 C   0  0  2  0  0  3  0  0  0  0  0  0
  180.7030  179.4030  141.9400 C   0  0  0  0  0  2  0  0  0  0  0  0
  180.0350  178.2580  142.4100 O   0  0  0  0  0  0  0  0  0  0  0  0
  179.0740  179.2820  144.3810 C   0  0  0  0  0  1  0  0  0  0  0  0
  180.0560  178.2620  143.8210 C   0  0  0  0  0  0  0  0  0  0  0  0
  181.4460  178.6560  144.2750 C   0  0  0  0  0  1  0  0  0  0  0  0
  179.7770  177.0050  144.3400 F   0  0  0  0  0  0  0  0  0  0  0  0
  181.3020  176.6310  139.7640 O   0  0  0  0  0  0  0  0  0  0  0  0
  180.1540  176.1620  139.1190 C   0  0  0  0  0  0  0  0  0  0  0  0
  179.4440  175.0730  139.6100 O   0  0  0  0  0  1  0  0  0  0  0  0
  179.7640  176.7270  138.0640 O   0  0  0  0  0  0  0  0  0  0  0  0
  1  3  1  0  0  0  0
  3 17  1  1  0  0  0
  4 21  1  0  0  0  0
  5 22  2  0  0  0  0
  6  4  1  0  0  0  0
  7 34  1  1  0  0  0
  7 16  1  0  0  0  0
  8 23  1  1  0  0  0
  8 18  1  0  0  0  0
 11  7  1  0  0  0  0
 13  9  1  1  0  0  0
 13  3  1  0  0  0  0
 14 24  1  0  0  0  0
 14 15  1  0  0  0  0
 15  6  1  0  0  0  0
 15 12  2  0  0  0  0
 16 10  1  6  0  0  0
 16 27  1  0  0  0  0
 16 20  1  0  0  0  0
 18 13  1  0  0  0  0
 19  5  1  0  0  0  0
 21 11  1  0  0  0  0
 22  8  1  0  0  0  0
 24  2  1  1  0  0  0
 24 19  1  0  0  0  0
 25 20  1  0  0  0  0
 25  1  1  0  0  0  0
 27 26  1  6  0  0  0
 27 28  1  0  0  0  0
 28 29  1  0  0  0  0
 29 31  1  0  0  0  0
 31 32  1  0  0  0  0
 31 33  1  0  0  0  0
 31 30  1  0  0  0  0
 35 36  1  0  0  0  0
 35 34  1  0  0  0  0
 37 35  2  0  0  0  0
M  END
>  <MODEL>
9

>  <REMARK>
 VINA RESULT:      -5.2      3.175      6.282
  Name = 
  6 active torsions:
  status: ('A' for Active; 'I' for Inactive)
    1  A    between atoms: C_4  and  O_22
    2  A    between atoms: C_10  and  O_22
    3  A    between atoms: O_16  and  C_21
    4  A    between atoms: O_16  and  C_30
    5  A    between atoms: C_20  and  C_24
    6  A    between atoms: C_24  and  C_30
                            x       y       z     vdW  Elec       q    Type
                         _______ _______ _______ _____ _____    ______ ____

>  <TORSDO>
F 6

$$$$
