=
 OpenBabel10252414593D

 34 39  0  0  1  0  0  0  0  0999 V2000
  188.8070  177.2940  146.5840 C   0  0  0  0  0  0  0  0  0  0  0  0
  190.8720  177.2040  145.1310 C   0  0  0  0  0  2  0  0  0  0  0  0
  188.5360  177.5740  144.1680 C   0  0  0  0  0  0  0  0  0  0  0  0
  188.2140  178.0140  141.7490 C   0  0  0  0  0  0  0  0  0  0  0  0
  190.9420  176.7730  147.5610 C   0  0  0  0  0  3  0  0  0  0  0  0
  191.5840  176.8250  146.3960 C   0  0  0  0  0  3  0  0  0  0  0  0
  190.3210  177.1960  142.2560 C   0  0  1  0  0  3  0  0  0  0  0  0
  189.3720  177.3290  145.2880 C   0  0  0  0  0  0  0  0  0  0  0  0
  188.8690  178.0410  140.5000 N   0  0  0  0  0  2  0  0  0  0  0  0
  189.5370  177.0430  147.6310 N   0  0  0  0  0  0  0  0  0  0  0  0
  187.1490  177.8360  144.3610 C   0  0  0  0  0  0  0  0  0  0  0  0
  187.4460  177.5280  146.7580 C   0  0  0  0  0  3  0  0  0  0  0  0
  190.4680  175.6820  142.3940 C   0  0  0  0  0  1  0  0  0  0  0  0
  186.9260  178.2710  141.9320 C   0  0  0  0  0  3  0  0  0  0  0  0
  186.3460  178.1540  143.2970 C   0  0  0  0  0  0  0  0  0  0  0  0
  190.2570  177.6740  140.7730 C   0  0  2  0  0  3  0  0  0  0  0  0
  189.0390  177.6100  142.8140 N   0  0  0  0  0  0  0  0  0  0  0  0
  186.6320  177.8040  145.6650 C   0  0  0  0  0  3  0  0  0  0  0  0
  182.6770  178.6570  142.4390 C   0  0  0  0  0  0  0  0  0  0  0  0
  182.1520  179.0060  143.6860 C   0  0  0  0  0  3  0  0  0  0  0  0
  184.8890  178.4210  143.4250 C   0  0  0  0  0  0  0  0  0  0  0  0
  182.9910  179.0710  144.8010 C   0  0  0  0  0  3  0  0  0  0  0  0
  184.0380  178.3730  142.3070 C   0  0  0  0  0  3  0  0  0  0  0  0
  184.3530  178.7850  144.6690 C   0  0  0  0  0  3  0  0  0  0  0  0
  181.8650  178.6010  141.3550 F   0  0  0  0  0  0  0  0  0  0  0  0
  190.8210  176.7330  139.7060 C   0  0  0  0  0  2  0  0  0  0  0  0
  190.6720  177.3010  138.3730 N   0  0  0  0  0  2  0  0  0  0  0  0
  190.4950  174.9910  138.1720 O   0  0  0  0  0  1  0  0  0  0  0  0
  190.5010  176.1880  137.4520 C   0  0  1  0  0  3  0  0  0  0  0  0
  189.1900  176.3410  136.6880 C   0  0  1  0  0  3  0  0  0  0  0  0
  187.2150  178.2290  137.0710 S   0  0  0  0  0  0  0  0  0  0  0  0
  186.6110  176.2460  136.6700 S   0  0  0  0  0  0  0  0  0  0  0  0
  188.1060  175.6850  137.4110 N   0  0  0  0  0  2  0  0  0  0  0  0
  188.8730  177.8210  136.4560 C   0  0  0  0  0  2  0  0  0  0  0  0
  1 12  1  0  0  0  0
  1 10  2  0  0  0  0
  2  8  1  0  0  0  0
  2  6  1  0  0  0  0
  3 11  1  0  0  0  0
  3  8  2  0  0  0  0
  4 14  2  0  0  0  0
  4 17  1  0  0  0  0
  5 10  1  0  0  0  0
  6  5  2  0  0  0  0
  7 13  1  6  0  0  0
  7 17  1  0  0  0  0
  8  1  1  0  0  0  0
  9 16  1  0  0  0  0
  9  4  1  0  0  0  0
 11 18  1  0  0  0  0
 14 15  1  0  0  0  0
 15 21  1  0  0  0  0
 15 11  2  0  0  0  0
 16 26  1  6  0  0  0
 16  7  1  0  0  0  0
 17  3  1  0  0  0  0
 18 12  2  0  0  0  0
 19 20  1  0  0  0  0
 20 22  2  0  0  0  0
 21 24  2  0  0  0  0
 23 19  2  0  0  0  0
 23 21  1  0  0  0  0
 24 22  1  0  0  0  0
 25 19  1  0  0  0  0
 27 26  1  0  0  0  0
 29 28  1  1  0  0  0
 29 27  1  0  0  0  0
 30 33  1  0  0  0  0
 30 29  1  1  0  0  0
 32 31  1  0  0  0  0
 32 33  1  0  0  0  0
 34 30  1  0  0  0  0
 34 31  1  0  0  0  0
M  END
>  <MODEL>
1

>  <REMARK>
 VINA RESULT:     -10.9      0.000      0.000
  Name = 
  5 active torsions:
  status: ('A' for Active; 'I' for Inactive)
    1  A    between atoms: N_3  and  C_13
    2  A    between atoms: N_3  and  C_17
    3  A    between atoms: C_12  and  C_28
    4  A    between atoms: C_13  and  C_14
    5  A    between atoms: C_17  and  C_29
                            x       y       z     vdW  Elec       q    Type
                         _______ _______ _______ _____ _____    ______ ____

>  <TORSDO>
F 5

$$$$
=
 OpenBabel10252414593D

 34 39  0  0  1  0  0  0  0  0999 V2000
  186.7450  178.0290  146.7560 C   0  0  0  0  0  0  0  0  0  0  0  0
  189.0750  177.8470  145.7970 C   0  0  0  0  0  2  0  0  0  0  0  0
  186.9990  178.0240  144.3220 C   0  0  0  0  0  0  0  0  0  0  0  0
  187.2010  178.1750  141.8550 C   0  0  0  0  0  0  0  0  0  0  0  0
  188.6240  177.6960  148.2200 C   0  0  0  0  0  3  0  0  0  0  0  0
  189.5020  177.6380  147.2210 C   0  0  0  0  0  3  0  0  0  0  0  0
  189.1570  177.4940  142.8920 C   0  0  1  0  0  3  0  0  0  0  0  0
  187.5760  177.9370  145.6160 C   0  0  0  0  0  0  0  0  0  0  0  0
  188.1100  178.0830  140.7810 N   0  0  0  0  0  2  0  0  0  0  0  0
  187.2340  177.9230  147.9570 N   0  0  0  0  0  0  0  0  0  0  0  0
  185.6000  178.2580  144.1830 C   0  0  0  0  0  0  0  0  0  0  0  0
  185.3760  178.2330  146.6080 C   0  0  0  0  0  3  0  0  0  0  0  0
  189.2850  176.0120  143.2360 C   0  0  0  0  0  1  0  0  0  0  0  0
  185.9010  178.4070  141.7280 C   0  0  0  0  0  3  0  0  0  0  0  0
  185.0420  178.4250  142.9430 C   0  0  0  0  0  0  0  0  0  0  0  0
  189.4100  177.7990  141.3840 C   0  0  2  0  0  3  0  0  0  0  0  0
  187.7810  177.9230  143.1110 N   0  0  0  0  0  0  0  0  0  0  0  0
  184.8150  178.3550  145.3420 C   0  0  0  0  0  3  0  0  0  0  0  0
  181.3310  178.9460  143.5810 C   0  0  0  0  0  0  0  0  0  0  0  0
  180.8380  179.0120  142.2750 C   0  0  0  0  0  3  0  0  0  0  0  0
  183.5900  178.6540  142.7240 C   0  0  0  0  0  0  0  0  0  0  0  0
  181.7140  178.8930  141.1930 C   0  0  0  0  0  3  0  0  0  0  0  0
  182.6970  178.7620  143.8050 C   0  0  0  0  0  3  0  0  0  0  0  0
  183.0820  178.7100  141.4170 C   0  0  0  0  0  3  0  0  0  0  0  0
  180.4810  179.0540  144.6310 F   0  0  0  0  0  0  0  0  0  0  0  0
  190.1990  176.7630  140.5800 C   0  0  0  0  0  2  0  0  0  0  0  0
  190.9940  177.4000  139.5390 N   0  0  0  0  0  2  0  0  0  0  0  0
  190.9280  175.2790  138.5870 O   0  0  0  0  0  1  0  0  0  0  0  0
  190.7820  176.6420  138.3160 C   0  0  1  0  0  3  0  0  0  0  0  0
  189.3850  176.9150  137.7690 C   0  0  1  0  0  3  0  0  0  0  0  0
  188.5850  177.0090  135.1300 S   0  0  0  0  0  0  0  0  0  0  0  0
  187.7810  178.4470  136.4500 S   0  0  0  0  0  0  0  0  0  0  0  0
  189.2480  178.3230  137.4140 N   0  0  0  0  0  2  0  0  0  0  0  0
  189.0960  176.0180  136.5620 C   0  0  0  0  0  2  0  0  0  0  0  0
  1 10  2  0  0  0  0
  2  6  1  0  0  0  0
  3  8  2  0  0  0  0
  4 17  1  0  0  0  0
  6  5  2  0  0  0  0
  7 17  1  0  0  0  0
  7 13  1  6  0  0  0
  8  2  1  0  0  0  0
  8  1  1  0  0  0  0
  9 16  1  0  0  0  0
  9  4  1  0  0  0  0
 10  5  1  0  0  0  0
 11  3  1  0  0  0  0
 11 18  1  0  0  0  0
 12  1  1  0  0  0  0
 14  4  2  0  0  0  0
 14 15  1  0  0  0  0
 15 11  2  0  0  0  0
 16 26  1  6  0  0  0
 16  7  1  0  0  0  0
 17  3  1  0  0  0  0
 18 12  2  0  0  0  0
 19 23  1  0  0  0  0
 19 25  1  0  0  0  0
 20 19  2  0  0  0  0
 21 15  1  0  0  0  0
 21 23  2  0  0  0  0
 22 24  2  0  0  0  0
 22 20  1  0  0  0  0
 24 21  1  0  0  0  0
 27 26  1  0  0  0  0
 29 28  1  1  0  0  0
 29 27  1  0  0  0  0
 30 29  1  6  0  0  0
 31 32  1  0  0  0  0
 31 34  1  0  0  0  0
 32 33  1  0  0  0  0
 33 30  1  0  0  0  0
 34 30  1  0  0  0  0
M  END
>  <MODEL>
2

>  <REMARK>
 VINA RESULT:     -10.6      1.468      2.031
  Name = 
  5 active torsions:
  status: ('A' for Active; 'I' for Inactive)
    1  A    between atoms: N_3  and  C_13
    2  A    between atoms: N_3  and  C_17
    3  A    between atoms: C_12  and  C_28
    4  A    between atoms: C_13  and  C_14
    5  A    between atoms: C_17  and  C_29
                            x       y       z     vdW  Elec       q    Type
                         _______ _______ _______ _____ _____    ______ ____

>  <TORSDO>
F 5

$$$$
=
 OpenBabel10252414593D

 34 39  0  0  1  0  0  0  0  0999 V2000
  188.8790  177.3080  146.6080 C   0  0  0  0  0  0  0  0  0  0  0  0
  190.9260  177.1760  145.1330 C   0  0  0  0  0  2  0  0  0  0  0  0
  188.5830  177.5480  144.1900 C   0  0  0  0  0  0  0  0  0  0  0  0
  188.2360  177.9470  141.7680 C   0  0  0  0  0  0  0  0  0  0  0  0
  191.0200  176.7870  147.5700 C   0  0  0  0  0  3  0  0  0  0  0  0
  191.6500  176.8130  146.3970 C   0  0  0  0  0  3  0  0  0  0  0  0
  190.3420  177.1210  142.2660 C   0  0  1  0  0  3  0  0  0  0  0  0
  189.4300  177.3160  145.3050 C   0  0  0  0  0  0  0  0  0  0  0  0
  188.8770  177.9470  140.5120 N   0  0  0  0  0  2  0  0  0  0  0  0
  189.6190  177.0690  147.6510 N   0  0  0  0  0  0  0  0  0  0  0  0
  187.2000  177.8240  144.3950 C   0  0  0  0  0  0  0  0  0  0  0  0
  187.5220  177.5560  146.7930 C   0  0  0  0  0  3  0  0  0  0  0  0
  190.4790  175.6090  142.4290 C   0  0  0  0  0  1  0  0  0  0  0  0
  186.9520  178.2180  141.9610 C   0  0  0  0  0  3  0  0  0  0  0  0
  186.3870  178.1300  143.3350 C   0  0  0  0  0  0  0  0  0  0  0  0
  190.2650  177.5740  140.7750 C   0  0  2  0  0  3  0  0  0  0  0  0
  189.0700  177.5550  142.8300 N   0  0  0  0  0  0  0  0  0  0  0  0
  186.6980  177.8190  145.7050 C   0  0  0  0  0  3  0  0  0  0  0  0
  182.7230  178.7060  142.5000 C   0  0  0  0  0  0  0  0  0  0  0  0
  182.2050  179.0210  143.7590 C   0  0  0  0  0  3  0  0  0  0  0  0
  184.9340  178.4110  143.4730 C   0  0  0  0  0  0  0  0  0  0  0  0
  183.0470  179.0400  144.8740 C   0  0  0  0  0  3  0  0  0  0  0  0
  184.0800  178.4090  142.3570 C   0  0  0  0  0  3  0  0  0  0  0  0
  184.4050  178.7420  144.7300 C   0  0  0  0  0  3  0  0  0  0  0  0
  181.9090  178.6940  141.4170 F   0  0  0  0  0  0  0  0  0  0  0  0
  190.8090  176.6100  139.7190 C   0  0  0  0  0  2  0  0  0  0  0  0
  192.1740  176.9540  139.3450 N   0  0  0  0  0  2  0  0  0  0  0  0
  193.6630  176.8070  137.5650 O   0  0  0  0  0  1  0  0  0  0  0  0
  192.3280  176.6250  137.9370 C   0  0  1  0  0  3  0  0  0  0  0  0
  191.9150  175.1780  137.6920 C   0  0  1  0  0  3  0  0  0  0  0  0
  193.0780  173.3490  135.9830 S   0  0  0  0  0  0  0  0  0  0  0  0
  190.9710  173.3820  136.0970 S   0  0  0  0  0  0  0  0  0  0  0  0
  191.0600  175.0900  136.5130 N   0  0  0  0  0  2  0  0  0  0  0  0
  193.1510  174.2860  137.5360 C   0  0  0  0  0  2  0  0  0  0  0  0
  1 12  1  0  0  0  0
  1 10  2  0  0  0  0
  2  8  1  0  0  0  0
  2  6  1  0  0  0  0
  3 11  1  0  0  0  0
  3  8  2  0  0  0  0
  4 14  2  0  0  0  0
  4 17  1  0  0  0  0
  5 10  1  0  0  0  0
  6  5  2  0  0  0  0
  7 13  1  6  0  0  0
  7 17  1  0  0  0  0
  8  1  1  0  0  0  0
  9 16  1  0  0  0  0
  9  4  1  0  0  0  0
 11 18  1  0  0  0  0
 14 15  1  0  0  0  0
 15 21  1  0  0  0  0
 15 11  2  0  0  0  0
 16 26  1  6  0  0  0
 16  7  1  0  0  0  0
 17  3  1  0  0  0  0
 18 12  2  0  0  0  0
 19 20  1  0  0  0  0
 20 22  2  0  0  0  0
 21 24  2  0  0  0  0
 23 19  2  0  0  0  0
 23 21  1  0  0  0  0
 24 22  1  0  0  0  0
 25 19  1  0  0  0  0
 27 26  1  0  0  0  0
 29 28  1  1  0  0  0
 29 27  1  0  0  0  0
 30 29  1  6  0  0  0
 31 32  1  0  0  0  0
 31 34  1  0  0  0  0
 32 33  1  0  0  0  0
 33 30  1  0  0  0  0
 34 30  1  0  0  0  0
M  END
>  <MODEL>
3

>  <REMARK>
 VINA RESULT:     -10.5      1.891      2.166
  Name = 
  5 active torsions:
  status: ('A' for Active; 'I' for Inactive)
    1  A    between atoms: N_3  and  C_13
    2  A    between atoms: N_3  and  C_17
    3  A    between atoms: C_12  and  C_28
    4  A    between atoms: C_13  and  C_14
    5  A    between atoms: C_17  and  C_29
                            x       y       z     vdW  Elec       q    Type
                         _______ _______ _______ _____ _____    ______ ____

>  <TORSDO>
F 5

$$$$
=
 OpenBabel10252414593D

 34 39  0  0  1  0  0  0  0  0999 V2000
  186.9870  177.9310  146.7130 C   0  0  0  0  0  0  0  0  0  0  0  0
  189.3080  177.7480  145.7330 C   0  0  0  0  0  2  0  0  0  0  0  0
  187.2200  177.9420  144.2770 C   0  0  0  0  0  0  0  0  0  0  0  0
  187.4020  178.1090  141.8090 C   0  0  0  0  0  0  0  0  0  0  0  0
  188.8770  177.5820  148.1580 C   0  0  0  0  0  3  0  0  0  0  0  0
  189.7460  177.5280  147.1510 C   0  0  0  0  0  3  0  0  0  0  0  0
  189.3640  177.4140  142.8250 C   0  0  1  0  0  3  0  0  0  0  0  0
  187.8080  177.8440  145.5650 C   0  0  0  0  0  0  0  0  0  0  0  0
  188.3010  178.0210  140.7260 N   0  0  0  0  0  2  0  0  0  0  0  0
  187.4860  177.8150  147.9090 N   0  0  0  0  0  0  0  0  0  0  0  0
  185.8200  178.1810  144.1520 C   0  0  0  0  0  0  0  0  0  0  0  0
  185.6180  178.1410  146.5780 C   0  0  0  0  0  3  0  0  0  0  0  0
  189.4900  175.9290  143.1580 C   0  0  0  0  0  1  0  0  0  0  0  0
  186.1020  178.3460  141.6950 C   0  0  0  0  0  3  0  0  0  0  0  0
  185.2530  178.3590  142.9170 C   0  0  0  0  0  0  0  0  0  0  0  0
  189.6050  177.7280  141.3160 C   0  0  2  0  0  3  0  0  0  0  0  0
  187.9910  177.8470  143.0590 N   0  0  0  0  0  0  0  0  0  0  0  0
  185.0460  178.2740  145.3180 C   0  0  0  0  0  3  0  0  0  0  0  0
  181.8480  178.7150  141.2640 C   0  0  0  0  0  0  0  0  0  0  0  0
  181.0630  179.1210  142.3460 C   0  0  0  0  0  3  0  0  0  0  0  0
  183.7990  178.5950  142.7130 C   0  0  0  0  0  0  0  0  0  0  0  0
  181.6410  179.2720  143.6080 C   0  0  0  0  0  3  0  0  0  0  0  0
  183.2090  178.4590  141.4440 C   0  0  0  0  0  3  0  0  0  0  0  0
  183.0030  179.0150  143.7890 C   0  0  0  0  0  3  0  0  0  0  0  0
  181.2890  178.5740  140.0370 F   0  0  0  0  0  0  0  0  0  0  0  0
  190.3840  176.6960  140.4990 C   0  0  0  0  0  2  0  0  0  0  0  0
  191.1530  177.3350  139.4400 N   0  0  0  0  0  2  0  0  0  0  0  0
  189.9150  177.8180  137.5330 O   0  0  0  0  0  1  0  0  0  0  0  0
  190.6500  176.8200  138.1760 C   0  0  1  0  0  3  0  0  0  0  0  0
  191.8130  176.3820  137.2920 C   0  0  1  0  0  3  0  0  0  0  0  0
  192.5750  173.8100  136.6440 S   0  0  0  0  0  0  0  0  0  0  0  0
  194.1000  175.2090  137.0590 S   0  0  0  0  0  0  0  0  0  0  0  0
  192.9770  176.0610  138.1120 N   0  0  0  0  0  2  0  0  0  0  0  0
  191.4090  175.1840  136.4280 C   0  0  0  0  0  2  0  0  0  0  0  0
  1 10  2  0  0  0  0
  2  6  1  0  0  0  0
  3  8  2  0  0  0  0
  4 17  1  0  0  0  0
  6  5  2  0  0  0  0
  7 17  1  0  0  0  0
  7 13  1  6  0  0  0
  8  2  1  0  0  0  0
  8  1  1  0  0  0  0
  9 16  1  0  0  0  0
  9  4  1  0  0  0  0
 10  5  1  0  0  0  0
 11  3  1  0  0  0  0
 11 18  1  0  0  0  0
 12  1  1  0  0  0  0
 14  4  2  0  0  0  0
 14 15  1  0  0  0  0
 15 11  2  0  0  0  0
 16 26  1  6  0  0  0
 16  7  1  0  0  0  0
 17  3  1  0  0  0  0
 18 12  2  0  0  0  0
 19 23  2  0  0  0  0
 19 20  1  0  0  0  0
 20 22  2  0  0  0  0
 21 15  1  0  0  0  0
 21 24  2  0  0  0  0
 22 24  1  0  0  0  0
 23 21  1  0  0  0  0
 25 19  1  0  0  0  0
 27 26  1  0  0  0  0
 29 28  1  6  0  0  0
 29 27  1  0  0  0  0
 30 33  1  0  0  0  0
 30 29  1  1  0  0  0
 31 32  1  0  0  0  0
 32 33  1  0  0  0  0
 34 31  1  0  0  0  0
 34 30  1  0  0  0  0
M  END
>  <MODEL>
4

>  <REMARK>
 VINA RESULT:     -10.2      2.190      2.552
  Name = 
  5 active torsions:
  status: ('A' for Active; 'I' for Inactive)
    1  A    between atoms: N_3  and  C_13
    2  A    between atoms: N_3  and  C_17
    3  A    between atoms: C_12  and  C_28
    4  A    between atoms: C_13  and  C_14
    5  A    between atoms: C_17  and  C_29
                            x       y       z     vdW  Elec       q    Type
                         _______ _______ _______ _____ _____    ______ ____

>  <TORSDO>
F 5

$$$$
=
 OpenBabel10252414593D

 34 39  0  0  1  0  0  0  0  0999 V2000
  188.8390  177.3860  145.1650 C   0  0  0  0  0  0  0  0  0  0  0  0
  190.6630  177.5640  143.4260 C   0  0  0  0  0  2  0  0  0  0  0  0
  188.1940  177.8710  142.8540 C   0  0  0  0  0  0  0  0  0  0  0  0
  187.4900  178.5110  140.5640 C   0  0  0  0  0  0  0  0  0  0  0  0
  191.1200  176.9140  145.7640 C   0  0  0  0  0  3  0  0  0  0  0  0
  191.5760  177.1150  144.5300 C   0  0  0  0  0  3  0  0  0  0  0  0
  189.6870  177.7860  140.6750 C   0  0  1  0  0  3  0  0  0  0  0  0
  189.2000  177.5770  143.8110 C   0  0  0  0  0  0  0  0  0  0  0  0
  187.9470  178.6950  139.2430 N   0  0  0  0  0  2  0  0  0  0  0  0
  189.7300  177.0860  146.0640 N   0  0  0  0  0  0  0  0  0  0  0  0
  186.8400  178.0240  143.2720 C   0  0  0  0  0  0  0  0  0  0  0  0
  187.5100  177.5150  145.5570 C   0  0  0  0  0  3  0  0  0  0  0  0
  189.9280  176.2790  140.6370 C   0  0  0  0  0  1  0  0  0  0  0  0
  186.2330  178.6670  140.9580 C   0  0  0  0  0  3  0  0  0  0  0  0
  185.8720  178.3870  142.3730 C   0  0  0  0  0  0  0  0  0  0  0  0
  189.3770  178.3950  139.2730 C   0  0  2  0  0  3  0  0  0  0  0  0
  188.4840  178.0640  141.4520 N   0  0  0  0  0  0  0  0  0  0  0  0
  186.5280  177.8380  144.6270 C   0  0  0  0  0  3  0  0  0  0  0  0
  182.0920  178.7040  142.1130 C   0  0  0  0  0  0  0  0  0  0  0  0
  181.7470  178.9290  143.4480 C   0  0  0  0  0  3  0  0  0  0  0  0
  184.4390  178.5470  142.7370 C   0  0  0  0  0  0  0  0  0  0  0  0
  182.7420  178.9710  144.4280 C   0  0  0  0  0  3  0  0  0  0  0  0
  183.4310  178.5210  141.7580 C   0  0  0  0  0  3  0  0  0  0  0  0
  184.0810  178.7860  144.0720 C   0  0  0  0  0  3  0  0  0  0  0  0
  181.1280  178.6700  141.1610 F   0  0  0  0  0  0  0  0  0  0  0  0
  189.8200  177.5950  138.0460 C   0  0  0  0  0  2  0  0  0  0  0  0
  188.7360  177.4680  137.0820 N   0  0  0  0  0  2  0  0  0  0  0  0
  189.7740  175.3890  137.0050 O   0  0  0  0  0  1  0  0  0  0  0  0
  189.0300  176.3070  136.2580 C   0  0  1  0  0  3  0  0  0  0  0  0
  187.7330  175.6600  135.7850 C   0  0  1  0  0  3  0  0  0  0  0  0
  186.0820  173.9500  137.1870 S   0  0  0  0  0  0  0  0  0  0  0  0
  186.4220  173.5310  135.1470 S   0  0  0  0  0  0  0  0  0  0  0  0
  187.9920  174.3120  135.2890 N   0  0  0  0  0  2  0  0  0  0  0  0
  186.7030  175.6350  136.9180 C   0  0  0  0  0  2  0  0  0  0  0  0
  1 12  1  0  0  0  0
  1 10  2  0  0  0  0
  2  8  1  0  0  0  0
  2  6  1  0  0  0  0
  3 11  1  0  0  0  0
  3  8  2  0  0  0  0
  4 14  2  0  0  0  0
  4 17  1  0  0  0  0
  5 10  1  0  0  0  0
  6  5  2  0  0  0  0
  7 13  1  6  0  0  0
  7 17  1  0  0  0  0
  8  1  1  0  0  0  0
  9 16  1  0  0  0  0
  9  4  1  0  0  0  0
 11 18  1  0  0  0  0
 14 15  1  0  0  0  0
 15 21  1  0  0  0  0
 15 11  2  0  0  0  0
 16 26  1  6  0  0  0
 16  7  1  0  0  0  0
 17  3  1  0  0  0  0
 18 12  2  0  0  0  0
 19 20  1  0  0  0  0
 20 22  2  0  0  0  0
 21 24  2  0  0  0  0
 23 19  2  0  0  0  0
 23 21  1  0  0  0  0
 24 22  1  0  0  0  0
 25 19  1  0  0  0  0
 27 26  1  0  0  0  0
 29 28  1  1  0  0  0
 29 27  1  0  0  0  0
 30 29  1  1  0  0  0
 30 34  1  0  0  0  0
 32 33  1  0  0  0  0
 32 31  1  0  0  0  0
 33 30  1  0  0  0  0
 34 31  1  0  0  0  0
M  END
>  <MODEL>
5

>  <REMARK>
 VINA RESULT:      -9.5      1.449      1.806
  Name = 
  5 active torsions:
  status: ('A' for Active; 'I' for Inactive)
    1  A    between atoms: N_3  and  C_13
    2  A    between atoms: N_3  and  C_17
    3  A    between atoms: C_12  and  C_28
    4  A    between atoms: C_13  and  C_14
    5  A    between atoms: C_17  and  C_29
                            x       y       z     vdW  Elec       q    Type
                         _______ _______ _______ _____ _____    ______ ____

>  <TORSDO>
F 5

$$$$
=
 OpenBabel10252414593D

 34 39  0  0  1  0  0  0  0  0999 V2000
  184.5670  178.5810  145.2910 C   0  0  2  0  0  3  0  0  0  0  0  0
  187.0850  178.3740  145.3120 C   0  0  0  0  0  3  0  0  0  0  0  0
  185.7350  178.4260  143.1460 C   0  0  0  0  0  0  0  0  0  0  0  0
  186.8690  178.4240  140.9410 C   0  0  0  0  0  0  0  0  0  0  0  0
  185.7380  178.3700  147.3810 C   0  0  0  0  0  3  0  0  0  0  0  0
  186.9310  178.2630  146.8010 C   0  0  0  0  0  3  0  0  0  0  0  0
  188.2710  177.8400  142.6900 C   0  0  1  0  0  3  0  0  0  0  0  0
  185.7710  178.4290  144.5640 C   0  0  0  0  0  0  0  0  0  0  0  0
  188.1200  178.2780  140.3050 N   0  0  0  0  0  2  0  0  0  0  0  0
  184.5580  178.5590  146.5920 N   0  0  0  0  0  0  0  0  0  0  0  0
  184.4990  178.6290  142.4670 C   0  0  0  0  0  0  0  0  0  0  0  0
  183.3630  178.7540  144.6170 C   0  0  0  0  0  3  0  0  0  0  0  0
  188.2430  176.3840  143.1510 C   0  0  0  0  0  1  0  0  0  0  0  0
  185.7200  178.6270  140.3110 C   0  0  0  0  0  3  0  0  0  0  0  0
  184.4610  178.7090  141.0990 C   0  0  0  0  0  0  0  0  0  0  0  0
  189.0860  178.0530  141.3770 C   0  0  2  0  0  3  0  0  0  0  0  0
  186.9210  178.2610  142.3360 N   0  0  0  0  0  0  0  0  0  0  0  0
  183.3300  178.7870  143.2270 C   0  0  0  0  0  3  0  0  0  0  0  0
  181.8770  180.1310  138.7010 C   0  0  0  0  0  0  0  0  0  0  0  0
  180.7920  179.2830  138.9370 C   0  0  0  0  0  3  0  0  0  0  0  0
  183.2060  178.9010  140.3270 C   0  0  0  0  0  0  0  0  0  0  0  0
  180.9060  178.2500  139.8700 C   0  0  0  0  0  3  0  0  0  0  0  0
  183.0750  179.9460  139.3950 C   0  0  0  0  0  3  0  0  0  0  0  0
  182.1050  178.0630  140.5640 C   0  0  0  0  0  3  0  0  0  0  0  0
  181.7650  181.1390  137.8010 F   0  0  0  0  0  0  0  0  0  0  0  0
  190.1130  176.9810  141.0060 C   0  0  0  0  0  2  0  0  0  0  0  0
  189.8310  176.4140  139.6940 N   0  0  0  0  0  2  0  0  0  0  0  0
  191.9400  176.2580  138.7270 O   0  0  0  0  0  1  0  0  0  0  0  0
  190.7670  177.0170  138.7580 C   0  0  1  0  0  3  0  0  0  0  0  0
  190.1490  177.0720  137.3650 C   0  0  1  0  0  3  0  0  0  0  0  0
  187.6490  178.0010  136.6550 S   0  0  0  0  0  0  0  0  0  0  0  0
  188.3520  176.2520  135.7030 S   0  0  0  0  0  0  0  0  0  0  0  0
  189.3060  175.9020  137.1400 N   0  0  0  0  0  2  0  0  0  0  0  0
  189.3470  178.3640  137.1850 C   0  0  0  0  0  2  0  0  0  0  0  0
  1 12  1  6  0  0  0
  1 10  1  0  0  0  0
  2  6  2  0  0  0  0
  3  8  2  0  0  0  0
  4 17  1  0  0  0  0
  6  5  1  0  0  0  0
  7 13  1  6  0  0  0
  8  1  1  0  0  0  0
  8  2  1  0  0  0  0
  9  4  1  0  0  0  0
  9 16  1  0  0  0  0
 10  5  2  0  0  0  0
 11  3  1  0  0  0  0
 11 18  1  0  0  0  0
 14  4  2  0  0  0  0
 14 15  1  0  0  0  0
 15 11  2  0  0  0  0
 16 26  1  6  0  0  0
 16  7  1  0  0  0  0
 17  7  1  0  0  0  0
 17  3  1  0  0  0  0
 18 12  2  0  0  0  0
 19 20  2  0  0  0  0
 19 23  1  0  0  0  0
 20 22  1  0  0  0  0
 21 24  1  0  0  0  0
 21 15  1  0  0  0  0
 22 24  2  0  0  0  0
 23 21  2  0  0  0  0
 25 19  1  0  0  0  0
 27 26  1  0  0  0  0
 29 28  1  6  0  0  0
 29 27  1  0  0  0  0
 30 29  1  1  0  0  0
 31 34  1  0  0  0  0
 32 31  1  0  0  0  0
 32 33  1  0  0  0  0
 33 30  1  0  0  0  0
 34 30  1  0  0  0  0
M  END
>  <MODEL>
6

>  <REMARK>
 VINA RESULT:      -9.5      2.129      3.371
  Name = 
  5 active torsions:
  status: ('A' for Active; 'I' for Inactive)
    1  A    between atoms: N_3  and  C_13
    2  A    between atoms: N_3  and  C_17
    3  A    between atoms: C_12  and  C_28
    4  A    between atoms: C_13  and  C_14
    5  A    between atoms: C_17  and  C_29
                            x       y       z     vdW  Elec       q    Type
                         _______ _______ _______ _____ _____    ______ ____

>  <TORSDO>
F 5

$$$$
=
 OpenBabel10252414593D

 34 39  0  0  1  0  0  0  0  0999 V2000
  185.0550  178.5210  145.4610 C   0  0  0  0  0  0  0  0  0  0  0  0
  187.5600  178.1940  145.4270 C   0  0  0  0  0  2  0  0  0  0  0  0
  186.1700  178.3300  143.2900 C   0  0  0  0  0  0  0  0  0  0  0  0
  187.2580  178.2940  141.0620 C   0  0  0  0  0  0  0  0  0  0  0  0
  186.2570  178.2350  147.5240 C   0  0  0  0  0  3  0  0  0  0  0  0
  187.4310  178.0760  146.9180 C   0  0  0  0  0  3  0  0  0  0  0  0
  188.6660  177.6270  142.7770 C   0  0  1  0  0  3  0  0  0  0  0  0
  186.2360  178.3180  144.7080 C   0  0  0  0  0  0  0  0  0  0  0  0
  188.4870  178.0940  140.3990 N   0  0  0  0  0  2  0  0  0  0  0  0
  185.0710  178.4870  146.7610 N   0  0  0  0  0  0  0  0  0  0  0  0
  184.9320  178.5980  142.6390 C   0  0  0  0  0  0  0  0  0  0  0  0
  183.8470  178.7570  144.8130 C   0  0  0  0  0  3  0  0  0  0  0  0
  188.5770  176.1700  143.2270 C   0  0  0  0  0  1  0  0  0  0  0  0
  186.1070  178.5580  140.4580 C   0  0  0  0  0  3  0  0  0  0  0  0
  184.8700  178.6920  141.2730 C   0  0  0  0  0  0  0  0  0  0  0  0
  189.4630  177.8130  141.4490 C   0  0  2  0  0  3  0  0  0  0  0  0
  187.3300  178.1160  142.4550 N   0  0  0  0  0  0  0  0  0  0  0  0
  183.7880  178.8050  143.4240 C   0  0  0  0  0  3  0  0  0  0  0  0
  181.2150  178.6410  140.2280 C   0  0  0  0  0  0  0  0  0  0  0  0
  181.2580  179.3990  139.0550 C   0  0  0  0  0  3  0  0  0  0  0  0
  183.6100  178.9520  140.5280 C   0  0  0  0  0  0  0  0  0  0  0  0
  182.4730  179.9280  138.6120 C   0  0  0  0  0  3  0  0  0  0  0  0
  182.3850  178.4130  140.9570 C   0  0  0  0  0  3  0  0  0  0  0  0
  183.6430  179.7010  139.3420 C   0  0  0  0  0  3  0  0  0  0  0  0
  180.0390  178.1210  140.6550 F   0  0  0  0  0  0  0  0  0  0  0  0
  190.4290  176.6960  141.0480 C   0  0  0  0  0  2  0  0  0  0  0  0
  190.2250  176.2970  139.6620 N   0  0  0  0  0  2  0  0  0  0  0  0
  192.4120  177.0820  139.7550 O   0  0  0  0  0  1  0  0  0  0  0  0
  191.3400  176.8310  138.8950 C   0  0  1  0  0  3  0  0  0  0  0  0
  191.7590  175.8320  137.8210 C   0  0  1  0  0  3  0  0  0  0  0  0
  194.0180  175.8940  136.2380 S   0  0  0  0  0  0  0  0  0  0  0  0
  192.2030  175.3080  135.3340 S   0  0  0  0  0  0  0  0  0  0  0  0
  191.3450  176.3040  136.5040 N   0  0  0  0  0  2  0  0  0  0  0  0
  193.2720  175.6000  137.8670 C   0  0  0  0  0  2  0  0  0  0  0  0
  1 10  2  0  0  0  0
  2  6  1  0  0  0  0
  3  8  2  0  0  0  0
  4 17  1  0  0  0  0
  6  5  2  0  0  0  0
  7 13  1  6  0  0  0
  8  2  1  0  0  0  0
  8  1  1  0  0  0  0
  9  4  1  0  0  0  0
  9 16  1  0  0  0  0
 10  5  1  0  0  0  0
 11  3  1  0  0  0  0
 11 18  1  0  0  0  0
 12  1  1  0  0  0  0
 14  4  2  0  0  0  0
 14 15  1  0  0  0  0
 15 11  2  0  0  0  0
 16 26  1  6  0  0  0
 16  7  1  0  0  0  0
 17  7  1  0  0  0  0
 17  3  1  0  0  0  0
 18 12  2  0  0  0  0
 19 25  1  0  0  0  0
 19 23  1  0  0  0  0
 20 19  2  0  0  0  0
 21 23  2  0  0  0  0
 21 15  1  0  0  0  0
 22 20  1  0  0  0  0
 22 24  2  0  0  0  0
 24 21  1  0  0  0  0
 27 26  1  0  0  0  0
 29 27  1  0  0  0  0
 29 28  1  1  0  0  0
 30 34  1  0  0  0  0
 30 29  1  1  0  0  0
 31 34  1  0  0  0  0
 32 31  1  0  0  0  0
 32 33  1  0  0  0  0
 33 30  1  0  0  0  0
M  END
>  <MODEL>
7

>  <REMARK>
 VINA RESULT:      -9.3      2.548      3.619
  Name = 
  5 active torsions:
  status: ('A' for Active; 'I' for Inactive)
    1  A    between atoms: N_3  and  C_13
    2  A    between atoms: N_3  and  C_17
    3  A    between atoms: C_12  and  C_28
    4  A    between atoms: C_13  and  C_14
    5  A    between atoms: C_17  and  C_29
                            x       y       z     vdW  Elec       q    Type
                         _______ _______ _______ _____ _____    ______ ____

>  <TORSDO>
F 5

$$$$
=
 OpenBabel10252414593D

 34 39  0  0  1  0  0  0  0  0999 V2000
  184.9500  178.9540  141.4810 C   0  0  0  0  0  0  0  0  0  0  0  0
  185.9830  178.2530  139.2850 C   0  0  0  0  0  2  0  0  0  0  0  0
  187.2090  178.0120  141.5110 C   0  0  0  0  0  0  0  0  0  0  0  0
  189.4360  176.9280  141.6240 C   0  0  0  0  0  0  0  0  0  0  0  0
  183.7880  179.3760  139.4180 C   0  0  0  0  0  3  0  0  0  0  0  0
  184.7610  178.8680  138.6660 C   0  0  0  0  0  3  0  0  0  0  0  0
  188.8030  177.4910  139.4680 C   0  0  1  0  0  3  0  0  0  0  0  0
  186.0660  178.4360  140.7840 C   0  0  0  0  0  0  0  0  0  0  0  0
  190.4940  176.4170  140.8430 N   0  0  0  0  0  2  0  0  0  0  0  0
  183.8980  179.3810  140.8470 N   0  0  0  0  0  0  0  0  0  0  0  0
  187.2020  178.0590  142.9350 C   0  0  0  0  0  0  0  0  0  0  0  0
  184.9640  179.0180  142.8710 C   0  0  0  0  0  3  0  0  0  0  0  0
  189.0550  178.9280  139.0200 C   0  0  0  0  0  1  0  0  0  0  0  0
  189.4220  176.9590  142.9500 C   0  0  0  0  0  3  0  0  0  0  0  0
  188.2650  177.5770  143.6520 C   0  0  0  0  0  0  0  0  0  0  0  0
  190.0880  176.6070  139.4530 C   0  0  2  0  0  3  0  0  0  0  0  0
  188.3910  177.4870  140.8670 N   0  0  0  0  0  0  0  0  0  0  0  0
  186.0680  178.5680  143.5870 C   0  0  0  0  0  3  0  0  0  0  0  0
  189.5640  177.3340  147.2170 C   0  0  0  0  0  0  0  0  0  0  0  0
  188.4040  177.6090  147.9470 C   0  0  0  0  0  3  0  0  0  0  0  0
  188.3310  177.6110  145.1370 C   0  0  0  0  0  0  0  0  0  0  0  0
  187.2080  177.8780  147.2780 C   0  0  0  0  0  3  0  0  0  0  0  0
  189.5260  177.3280  145.8210 C   0  0  0  0  0  3  0  0  0  0  0  0
  187.1710  177.8730  145.8810 C   0  0  0  0  0  3  0  0  0  0  0  0
  190.7240  177.0660  147.8650 F   0  0  0  0  0  0  0  0  0  0  0  0
  191.2520  177.0750  138.5760 C   0  0  0  0  0  2  0  0  0  0  0  0
  191.9920  175.9430  138.0370 N   0  0  0  0  0  2  0  0  0  0  0  0
  193.9080  176.7400  139.0870 O   0  0  0  0  0  1  0  0  0  0  0  0
  193.3670  176.3800  137.8500 C   0  0  1  0  0  3  0  0  0  0  0  0
  194.1920  175.2580  137.2300 C   0  0  1  0  0  3  0  0  0  0  0  0
  196.4980  174.1050  138.2150 S   0  0  0  0  0  0  0  0  0  0  0  0
  196.3920  174.4680  136.1380 S   0  0  0  0  0  0  0  0  0  0  0  0
  195.3060  175.8120  136.4680 N   0  0  0  0  0  2  0  0  0  0  0  0
  194.6950  174.3010  138.3140 C   0  0  0  0  0  2  0  0  0  0  0  0
  1 12  1  0  0  0  0
  2  8  1  0  0  0  0
  3 11  1  0  0  0  0
  4 14  2  0  0  0  0
  5 10  1  0  0  0  0
  6  2  1  0  0  0  0
  6  5  2  0  0  0  0
  7 13  1  1  0  0  0
  7 17  1  0  0  0  0
  8  1  1  0  0  0  0
  8  3  2  0  0  0  0
  9  4  1  0  0  0  0
 10  1  2  0  0  0  0
 11 18  1  0  0  0  0
 11 15  2  0  0  0  0
 12 18  2  0  0  0  0
 14 15  1  0  0  0  0
 15 21  1  0  0  0  0
 16 26  1  6  0  0  0
 16  7  1  0  0  0  0
 16  9  1  0  0  0  0
 17  3  1  0  0  0  0
 17  4  1  0  0  0  0
 19 25  1  0  0  0  0
 19 20  1  0  0  0  0
 21 23  1  0  0  0  0
 21 24  2  0  0  0  0
 22 20  2  0  0  0  0
 23 19  2  0  0  0  0
 24 22  1  0  0  0  0
 27 26  1  0  0  0  0
 29 27  1  0  0  0  0
 29 28  1  1  0  0  0
 30 29  1  1  0  0  0
 30 34  1  0  0  0  0
 31 34  1  0  0  0  0
 32 33  1  0  0  0  0
 32 31  1  0  0  0  0
 33 30  1  0  0  0  0
M  END
>  <MODEL>
8

>  <REMARK>
 VINA RESULT:      -9.3      3.868      6.103
  Name = 
  5 active torsions:
  status: ('A' for Active; 'I' for Inactive)
    1  A    between atoms: N_3  and  C_13
    2  A    between atoms: N_3  and  C_17
    3  A    between atoms: C_12  and  C_28
    4  A    between atoms: C_13  and  C_14
    5  A    between atoms: C_17  and  C_29
                            x       y       z     vdW  Elec       q    Type
                         _______ _______ _______ _____ _____    ______ ____

>  <TORSDO>
F 5

$$$$
=
 OpenBabel10252414593D

 34 39  0  0  1  0  0  0  0  0999 V2000
  186.2200  178.2670  146.2740 C   0  0  0  0  0  0  0  0  0  0  0  0
  185.6800  178.1030  143.8120 C   0  0  0  0  0  2  0  0  0  0  0  0
  188.0000  177.5800  144.7410 C   0  0  0  0  0  0  0  0  0  0  0  0
  189.8020  176.7360  143.2610 C   0  0  0  0  0  0  0  0  0  0  0  0
  184.0560  178.9420  145.4710 C   0  0  0  0  0  3  0  0  0  0  0  0
  184.3540  178.6910  144.1990 C   0  0  0  0  0  3  0  0  0  0  0  0
  188.0050  177.6220  142.0990 C   0  0  1  0  0  3  0  0  0  0  0  0
  186.6650  178.0100  144.9560 C   0  0  0  0  0  0  0  0  0  0  0  0
  190.1490  176.4940  141.9160 N   0  0  0  0  0  2  0  0  0  0  0  0
  185.0120  178.6920  146.5070 N   0  0  0  0  0  0  0  0  0  0  0  0
  188.8620  177.3590  145.8540 C   0  0  0  0  0  0  0  0  0  0  0  0
  187.0790  178.0700  147.3510 C   0  0  0  0  0  3  0  0  0  0  0  0
  187.9760  179.1370  141.9070 C   0  0  0  0  0  1  0  0  0  0  0  0
  190.5980  176.5160  144.2990 C   0  0  0  0  0  3  0  0  0  0  0  0
  190.1270  176.8660  145.6660 C   0  0  0  0  0  0  0  0  0  0  0  0
  188.9870  176.8980  141.1280 C   0  0  2  0  0  3  0  0  0  0  0  0
  188.5300  177.3130  143.4240 N   0  0  0  0  0  0  0  0  0  0  0  0
  188.3760  177.6140  147.1450 C   0  0  0  0  0  3  0  0  0  0  0  0
  192.1670  177.3360  148.8400 C   0  0  0  0  0  0  0  0  0  0  0  0
  192.9570  176.1840  148.8270 C   0  0  0  0  0  3  0  0  0  0  0  0
  191.0840  176.6280  146.7790 C   0  0  0  0  0  0  0  0  0  0  0  0
  192.8200  175.2570  147.7910 C   0  0  0  0  0  3  0  0  0  0  0  0
  191.2410  177.5600  147.8190 C   0  0  0  0  0  3  0  0  0  0  0  0
  191.8920  175.4810  146.7700 C   0  0  0  0  0  3  0  0  0  0  0  0
  192.3040  178.2390  149.8410 F   0  0  0  0  0  0  0  0  0  0  0  0
  189.3910  177.6420  139.8530 C   0  0  0  0  0  2  0  0  0  0  0  0
  188.6780  177.1240  138.6940 N   0  0  0  0  0  2  0  0  0  0  0  0
  189.0540  179.3810  138.2780 O   0  0  0  0  0  1  0  0  0  0  0  0
  188.3190  178.2660  137.8670 C   0  0  1  0  0  3  0  0  0  0  0  0
  188.6140  177.9620  136.4020 C   0  0  1  0  0  3  0  0  0  0  0  0
  187.8930  175.7250  134.9560 S   0  0  0  0  0  0  0  0  0  0  0  0
  189.8230  176.5180  134.6380 S   0  0  0  0  0  0  0  0  0  0  0  0
  189.8030  177.1230  136.2900 N   0  0  0  0  0  2  0  0  0  0  0  0
  187.4080  177.2890  135.7400 C   0  0  0  0  0  2  0  0  0  0  0  0
  1 10  2  0  0  0  0
  1 12  1  0  0  0  0
  2  6  1  0  0  0  0
  2  8  1  0  0  0  0
  3  8  2  0  0  0  0
  3 11  1  0  0  0  0
  4 17  1  0  0  0  0
  4 14  2  0  0  0  0
  5 10  1  0  0  0  0
  6  5  2  0  0  0  0
  7 13  1  6  0  0  0
  7 17  1  0  0  0  0
  8  1  1  0  0  0  0
  9  4  1  0  0  0  0
 11 18  1  0  0  0  0
 14 15  1  0  0  0  0
 15 11  2  0  0  0  0
 15 21  1  0  0  0  0
 16 26  1  6  0  0  0
 16  9  1  0  0  0  0
 16  7  1  0  0  0  0
 17  3  1  0  0  0  0
 18 12  2  0  0  0  0
 19 25  1  0  0  0  0
 20 19  1  0  0  0  0
 21 23  1  0  0  0  0
 22 20  2  0  0  0  0
 23 19  2  0  0  0  0
 24 21  2  0  0  0  0
 24 22  1  0  0  0  0
 27 26  1  0  0  0  0
 29 28  1  1  0  0  0
 29 27  1  0  0  0  0
 30 29  1  1  0  0  0
 31 34  1  0  0  0  0
 32 31  1  0  0  0  0
 32 33  1  0  0  0  0
 33 30  1  0  0  0  0
 34 30  1  0  0  0  0
M  END
>  <MODEL>
9

>  <REMARK>
 VINA RESULT:      -9.2      2.962      5.817
  Name = 
  5 active torsions:
  status: ('A' for Active; 'I' for Inactive)
    1  A    between atoms: N_3  and  C_13
    2  A    between atoms: N_3  and  C_17
    3  A    between atoms: C_12  and  C_28
    4  A    between atoms: C_13  and  C_14
    5  A    between atoms: C_17  and  C_29
                            x       y       z     vdW  Elec       q    Type
                         _______ _______ _______ _____ _____    ______ ____

>  <TORSDO>
F 5

$$$$
