=
 OpenBabel10262420083D

 27 31  0  0  1  0  0  0  0  0999 V2000
  190.9130  177.3240  141.8030 O   0  0  0  0  0  0  0  0  0  0  0  0
  188.6090  177.1040  140.9700 C   0  0  1  0  0  3  0  0  0  0  0  0
  188.6250  176.0120  143.2630 C   0  0  0  0  0  2  0  0  0  0  0  0
  185.6100  179.7270  142.3310 N   0  0  0  0  0  0  0  0  0  0  0  0
  183.7480  180.2240  143.6770 F   0  0  0  0  0  0  0  0  0  0  0  0
  188.4760  178.5300  140.4850 C   0  0  0  0  0  3  0  0  0  0  0  0
  186.0510  177.3950  143.7490 C   0  0  0  0  0  3  0  0  0  0  0  0
  190.8460  177.3510  145.9890 C   0  0  0  0  0  0  0  0  0  0  0  0
  184.9850  178.2300  144.0870 C   0  0  0  0  0  3  0  0  0  0  0  0
  190.8720  177.3940  147.7390 Cl  0  0  0  0  0  0  0  0  0  0  0  0
  186.8890  177.7370  142.6820 C   0  0  0  0  0  0  0  0  0  0  0  0
  190.0570  176.5920  140.9250 C   0  0  1  0  0  3  0  0  0  0  0  0
  184.7770  179.4030  143.3560 C   0  0  0  0  0  0  0  0  0  0  0  0
  186.6490  178.9230  141.9770 C   0  0  0  0  0  0  0  0  0  0  0  0
  190.8360  177.2980  143.2050 C   0  0  0  0  0  0  0  0  0  0  0  0
  188.0120  176.9250  142.3020 N   0  0  0  0  0  0  0  0  0  0  0  0
  189.7990  176.7150  145.3240 C   0  0  0  0  0  3  0  0  0  0  0  0
  187.5460  179.3200  140.9330 N   0  0  0  0  0  0  0  0  0  0  0  0
  191.8440  177.9430  145.2810 N   0  0  0  0  0  0  0  0  0  0  0  0
  191.8570  177.9290  143.9220 C   0  0  0  0  0  3  0  0  0  0  0  0
  189.7840  176.6850  143.9290 C   0  0  0  0  0  0  0  0  0  0  0  0
  191.6940  176.4360  136.9520 C   0  0  0  0  0  3  0  0  0  0  0  0
  190.6100  176.5510  139.5330 C   0  0  0  0  0  0  0  0  0  0  0  0
  191.9790  176.7620  139.3350 C   0  0  0  0  0  3  0  0  0  0  0  0
  192.5210  176.7070  138.0470 C   0  0  0  0  0  3  0  0  0  0  0  0
  190.3280  176.2180  137.1440 C   0  0  0  0  0  3  0  0  0  0  0  0
  189.7860  176.2730  138.4320 C   0  0  0  0  0  3  0  0  0  0  0  0
  1 15  1  0  0  0  0
  2  6  1  1  0  0  0
  2 16  1  0  0  0  0
  3 21  1  0  0  0  0
  4 13  1  0  0  0  0
  6 18  2  0  0  0  0
  7  9  1  0  0  0  0
  8 10  1  0  0  0  0
 11  7  2  0  0  0  0
 12 23  1  6  0  0  0
 12  2  1  0  0  0  0
 12  1  1  0  0  0  0
 13  5  1  0  0  0  0
 13  9  2  0  0  0  0
 14  4  2  0  0  0  0
 14 11  1  0  0  0  0
 15 20  2  0  0  0  0
 15 21  1  0  0  0  0
 16 11  1  0  0  0  0
 16  3  1  0  0  0  0
 17  8  1  0  0  0  0
 18 14  1  0  0  0  0
 19  8  2  0  0  0  0
 20 19  1  0  0  0  0
 21 17  2  0  0  0  0
 22 26  2  0  0  0  0
 22 25  1  0  0  0  0
 24 23  1  0  0  0  0
 25 24  2  0  0  0  0
 26 27  1  0  0  0  0
 27 23  2  0  0  0  0
M  END
>  <MODEL>
1

>  <REMARK>
 VINA RESULT:      -7.8      0.000      0.000
  Name = 
  1 active torsions:
  status: ('A' for Active; 'I' for Inactive)
    1  A    between atoms: C_9  and  C_15
                            x       y       z     vdW  Elec       q    Type
                         _______ _______ _______ _____ _____    ______ ____

>  <TORSDO>
F 1

$$$$
=
 OpenBabel10262420083D

 27 31  0  0  1  0  0  0  0  0999 V2000
  185.7720  178.7090  142.3130 O   0  0  0  0  0  0  0  0  0  0  0  0
  185.0800  177.9590  144.5510 C   0  0  1  0  0  3  0  0  0  0  0  0
  186.9570  176.4000  143.8470 C   0  0  0  0  0  2  0  0  0  0  0  0
  187.3460  179.0280  147.9340 N   0  0  0  0  0  0  0  0  0  0  0  0
  188.9090  178.5350  149.6200 F   0  0  0  0  0  0  0  0  0  0  0  0
  185.0330  179.3350  145.1760 C   0  0  0  0  0  3  0  0  0  0  0  0
  188.0030  176.6950  146.6020 C   0  0  0  0  0  3  0  0  0  0  0  0
  189.7850  177.6740  141.7160 C   0  0  0  0  0  0  0  0  0  0  0  0
  188.6410  177.0230  147.7990 C   0  0  0  0  0  3  0  0  0  0  0  0
  191.4680  177.2890  141.4250 Cl  0  0  0  0  0  0  0  0  0  0  0  0
  187.0200  177.5460  146.0850 C   0  0  0  0  0  0  0  0  0  0  0  0
  184.7860  177.9780  143.0430 C   0  0  1  0  0  3  0  0  0  0  0  0
  188.2940  178.2050  148.4590 C   0  0  0  0  0  0  0  0  0  0  0  0
  186.7030  178.7230  146.7750 C   0  0  0  0  0  0  0  0  0  0  0  0
  187.1100  178.3120  142.1540 C   0  0  0  0  0  0  0  0  0  0  0  0
  186.3450  177.2690  144.8470 N   0  0  0  0  0  0  0  0  0  0  0  0
  189.0430  176.9150  142.6200 C   0  0  0  0  0  3  0  0  0  0  0  0
  185.7540  179.6380  146.2140 N   0  0  0  0  0  0  0  0  0  0  0  0
  189.2060  178.7170  141.0650 N   0  0  0  0  0  0  0  0  0  0  0  0
  187.9010  179.0450  141.2650 C   0  0  0  0  0  3  0  0  0  0  0  0
  187.7020  177.2290  142.8480 C   0  0  0  0  0  0  0  0  0  0  0  0
  180.8140  179.3330  142.1070 C   0  0  0  0  0  3  0  0  0  0  0  0
  183.4040  178.4680  142.7320 C   0  0  0  0  0  0  0  0  0  0  0  0
  183.0040  178.5860  141.3960 C   0  0  0  0  0  3  0  0  0  0  0  0
  181.7130  179.0200  141.0830 C   0  0  0  0  0  3  0  0  0  0  0  0
  181.2040  179.2100  143.4430 C   0  0  0  0  0  3  0  0  0  0  0  0
  182.4960  178.7760  143.7560 C   0  0  0  0  0  3  0  0  0  0  0  0
  1 12  1  0  0  0  0
  2 16  1  0  0  0  0
  2  6  1  6  0  0  0
  3 16  1  0  0  0  0
  4 13  1  0  0  0  0
  6 18  2  0  0  0  0
  7  9  1  0  0  0  0
  8 17  1  0  0  0  0
  9 13  2  0  0  0  0
 10  8  1  0  0  0  0
 11  7  2  0  0  0  0
 11 14  1  0  0  0  0
 12 23  1  1  0  0  0
 12  2  1  0  0  0  0
 13  5  1  0  0  0  0
 14  4  2  0  0  0  0
 15  1  1  0  0  0  0
 15 21  1  0  0  0  0
 16 11  1  0  0  0  0
 17 21  2  0  0  0  0
 18 14  1  0  0  0  0
 19 20  1  0  0  0  0
 19  8  2  0  0  0  0
 20 15  2  0  0  0  0
 21  3  1  0  0  0  0
 22 26  1  0  0  0  0
 23 27  1  0  0  0  0
 24 23  2  0  0  0  0
 25 24  1  0  0  0  0
 25 22  2  0  0  0  0
 26 27  2  0  0  0  0
M  END
>  <MODEL>
2

>  <REMARK>
 VINA RESULT:      -7.4      3.472      6.609
  Name = 
  1 active torsions:
  status: ('A' for Active; 'I' for Inactive)
    1  A    between atoms: C_9  and  C_15
                            x       y       z     vdW  Elec       q    Type
                         _______ _______ _______ _____ _____    ______ ____

>  <TORSDO>
F 1

$$$$
=
 OpenBabel10262420083D

 27 31  0  0  1  0  0  0  0  0999 V2000
  189.2080  176.9130  142.4570 O   0  0  0  0  0  0  0  0  0  0  0  0
  191.4870  177.0530  143.3700 C   0  0  1  0  0  3  0  0  0  0  0  0
  190.0800  178.6340  144.7730 C   0  0  0  0  0  2  0  0  0  0  0  0
  192.4900  174.9600  146.8830 N   0  0  0  0  0  0  0  0  0  0  0  0
  192.9120  174.8760  149.1950 F   0  0  0  0  0  0  0  0  0  0  0  0
  191.7410  175.5620  143.4010 C   0  0  0  0  0  3  0  0  0  0  0  0
  191.4950  177.5290  147.1290 C   0  0  0  0  0  3  0  0  0  0  0  0
  186.4730  177.8400  145.4890 C   0  0  0  0  0  0  0  0  0  0  0  0
  191.9600  176.8460  148.2540 C   0  0  0  0  0  3  0  0  0  0  0  0
  185.2860  178.1940  146.7260 Cl  0  0  0  0  0  0  0  0  0  0  0  0
  191.5460  176.9120  145.8730 C   0  0  0  0  0  0  0  0  0  0  0  0
  190.5080  177.4690  142.2610 C   0  0  1  0  0  3  0  0  0  0  0  0
  192.4610  175.5500  148.1090 C   0  0  0  0  0  0  0  0  0  0  0  0
  192.0530  175.6110  145.7720 C   0  0  0  0  0  0  0  0  0  0  0  0
  188.3360  177.2600  143.5020 C   0  0  0  0  0  0  0  0  0  0  0  0
  191.0640  177.5600  144.6850 N   0  0  0  0  0  0  0  0  0  0  0  0
  187.7620  178.3600  145.5920 C   0  0  0  0  0  3  0  0  0  0  0  0
  192.0380  174.9430  144.5040 N   0  0  0  0  0  0  0  0  0  0  0  0
  186.1370  177.0540  144.4330 N   0  0  0  0  0  0  0  0  0  0  0  0
  187.0320  176.7580  143.4530 C   0  0  0  0  0  3  0  0  0  0  0  0
  188.7040  178.0740  144.6030 C   0  0  0  0  0  0  0  0  0  0  0  0
  191.9510  176.6260  138.3000 C   0  0  0  0  0  3  0  0  0  0  0  0
  191.0300  177.1640  140.8900 C   0  0  0  0  0  0  0  0  0  0  0  0
  190.1570  176.6470  139.9260 C   0  0  0  0  0  3  0  0  0  0  0  0
  190.6160  176.3760  138.6330 C   0  0  0  0  0  3  0  0  0  0  0  0
  192.8250  177.1490  139.2550 C   0  0  0  0  0  3  0  0  0  0  0  0
  192.3660  177.4200  140.5480 C   0  0  0  0  0  3  0  0  0  0  0  0
  1 15  1  0  0  0  0
  2  6  1  1  0  0  0
  2 16  1  0  0  0  0
  4 13  1  0  0  0  0
  6 18  2  0  0  0  0
  7  9  1  0  0  0  0
  8 17  1  0  0  0  0
  8 10  1  0  0  0  0
 11  7  2  0  0  0  0
 12 23  1  6  0  0  0
 12  1  1  0  0  0  0
 12  2  1  0  0  0  0
 13  9  2  0  0  0  0
 13  5  1  0  0  0  0
 14 11  1  0  0  0  0
 14  4  2  0  0  0  0
 15 21  1  0  0  0  0
 16  3  1  0  0  0  0
 16 11  1  0  0  0  0
 18 14  1  0  0  0  0
 19  8  2  0  0  0  0
 20 15  2  0  0  0  0
 20 19  1  0  0  0  0
 21  3  1  0  0  0  0
 21 17  2  0  0  0  0
 22 25  2  0  0  0  0
 22 26  1  0  0  0  0
 24 23  2  0  0  0  0
 25 24  1  0  0  0  0
 26 27  2  0  0  0  0
 27 23  1  0  0  0  0
M  END
>  <MODEL>
3

>  <REMARK>
 VINA RESULT:      -7.1      3.175      5.503
  Name = 
  1 active torsions:
  status: ('A' for Active; 'I' for Inactive)
    1  A    between atoms: C_9  and  C_15
                            x       y       z     vdW  Elec       q    Type
                         _______ _______ _______ _____ _____    ______ ____

>  <TORSDO>
F 1

$$$$
=
 OpenBabel10262420083D

 27 31  0  0  1  0  0  0  0  0999 V2000
  183.6590  178.2510  142.5830 O   0  0  0  0  0  0  0  0  0  0  0  0
  182.6190  178.2830  140.3540 C   0  0  1  0  0  3  0  0  0  0  0  0
  184.9290  179.2940  140.0560 C   0  0  0  0  0  2  0  0  0  0  0  0
  183.6260  175.3480  137.5090 N   0  0  0  0  0  0  0  0  0  0  0  0
  184.7790  174.6350  135.5880 F   0  0  0  0  0  0  0  0  0  0  0  0
  182.0890  176.8680  140.4030 C   0  0  0  0  0  3  0  0  0  0  0  0
  185.1370  177.6620  137.5930 C   0  0  0  0  0  3  0  0  0  0  0  0
  187.8180  178.0780  142.1370 C   0  0  0  0  0  0  0  0  0  0  0  0
  185.3520  176.7210  136.5860 C   0  0  0  0  0  3  0  0  0  0  0  0
  189.5620  177.9790  142.0070 Cl  0  0  0  0  0  0  0  0  0  0  0  0
  184.1450  177.4360  138.5540 C   0  0  0  0  0  0  0  0  0  0  0  0
  182.7230  178.9290  141.7450 C   0  0  1  0  0  3  0  0  0  0  0  0
  184.5770  175.5580  136.5590 C   0  0  0  0  0  0  0  0  0  0  0  0
  183.3920  176.2570  138.4930 C   0  0  0  0  0  0  0  0  0  0  0  0
  185.0480  178.2230  142.3760 C   0  0  0  0  0  0  0  0  0  0  0  0
  183.8930  178.3610  139.6230 N   0  0  0  0  0  0  0  0  0  0  0  0
  187.0740  178.6360  141.0990 C   0  0  0  0  0  3  0  0  0  0  0  0
  182.4280  175.9800  139.5160 N   0  0  0  0  0  0  0  0  0  0  0  0
  187.1940  177.6060  143.2470 N   0  0  0  0  0  0  0  0  0  0  0  0
  185.8420  177.6660  143.3830 C   0  0  0  0  0  3  0  0  0  0  0  0
  185.6840  178.7110  141.2080 C   0  0  0  0  0  0  0  0  0  0  0  0
  178.9310  179.3470  143.7270 C   0  0  0  0  0  3  0  0  0  0  0  0
  181.3900  179.0680  142.4160 C   0  0  0  0  0  0  0  0  0  0  0  0
  181.2230  178.5670  143.7120 C   0  0  0  0  0  3  0  0  0  0  0  0
  179.9950  178.7030  144.3660 C   0  0  0  0  0  3  0  0  0  0  0  0
  179.0940  179.8560  142.4360 C   0  0  0  0  0  3  0  0  0  0  0  0
  180.3220  179.7190  141.7820 C   0  0  0  0  0  3  0  0  0  0  0  0
  2  6  1  1  0  0  0
  2 12  1  0  0  0  0
  3 21  1  0  0  0  0
  4 14  2  0  0  0  0
  5 13  1  0  0  0  0
  7 11  2  0  0  0  0
  8 19  1  0  0  0  0
  9  7  1  0  0  0  0
 10  8  1  0  0  0  0
 11 16  1  0  0  0  0
 12 23  1  1  0  0  0
 12  1  1  0  0  0  0
 13  9  2  0  0  0  0
 13  4  1  0  0  0  0
 14 11  1  0  0  0  0
 14 18  1  0  0  0  0
 15  1  1  0  0  0  0
 15 20  1  0  0  0  0
 16  3  1  0  0  0  0
 16  2  1  0  0  0  0
 17 21  1  0  0  0  0
 17  8  2  0  0  0  0
 18  6  2  0  0  0  0
 19 20  2  0  0  0  0
 21 15  2  0  0  0  0
 22 25  1  0  0  0  0
 23 24  1  0  0  0  0
 24 25  2  0  0  0  0
 26 22  2  0  0  0  0
 27 23  2  0  0  0  0
 27 26  1  0  0  0  0
M  END
>  <MODEL>
4

>  <REMARK>
 VINA RESULT:      -6.8      4.709      8.171
  Name = 
  1 active torsions:
  status: ('A' for Active; 'I' for Inactive)
    1  A    between atoms: C_9  and  C_15
                            x       y       z     vdW  Elec       q    Type
                         _______ _______ _______ _____ _____    ______ ____

>  <TORSDO>
F 1

$$$$
=
 OpenBabel10262420083D

 27 31  0  0  1  0  0  0  0  0999 V2000
  180.6660  178.3590  137.9190 O   0  0  0  0  0  0  0  0  0  0  0  0
  181.9720  179.9950  139.2100 C   0  0  1  0  0  3  0  0  0  0  0  0
  180.5620  178.7400  140.9080 C   0  0  0  0  0  2  0  0  0  0  0  0
  185.4200  178.7740  141.2950 N   0  0  0  0  0  0  0  0  0  0  0  0
  186.5440  178.1850  143.2740 F   0  0  0  0  0  0  0  0  0  0  0  0
  183.2950  179.7180  138.5310 C   0  0  0  0  0  3  0  0  0  0  0  0
  182.9880  178.6540  142.6050 C   0  0  0  0  0  3  0  0  0  0  0  0
  179.7510  175.1030  140.3870 C   0  0  0  0  0  0  0  0  0  0  0  0
  184.1700  178.3820  143.2950 C   0  0  0  0  0  3  0  0  0  0  0  0
  179.3640  173.7050  141.3670 Cl  0  0  0  0  0  0  0  0  0  0  0  0
  183.0400  178.9990  141.2490 C   0  0  0  0  0  0  0  0  0  0  0  0
  180.7660  179.7330  138.2960 C   0  0  1  0  0  3  0  0  0  0  0  0
  185.3900  178.4500  142.6160 C   0  0  0  0  0  0  0  0  0  0  0  0
  184.2820  179.0530  140.6050 C   0  0  0  0  0  0  0  0  0  0  0  0
  180.3620  177.3070  138.7980 C   0  0  0  0  0  0  0  0  0  0  0  0
  181.8540  179.2700  140.4850 N   0  0  0  0  0  0  0  0  0  0  0  0
  179.9850  176.3350  140.9940 C   0  0  0  0  0  3  0  0  0  0  0  0
  184.3390  179.3300  139.2010 N   0  0  0  0  0  0  0  0  0  0  0  0
  179.8290  174.9820  139.0360 N   0  0  0  0  0  0  0  0  0  0  0  0
  180.1270  176.0460  138.2420 C   0  0  0  0  0  3  0  0  0  0  0  0
  180.2940  177.4460  140.2070 C   0  0  0  0  0  0  0  0  0  0  0  0
  180.6680  182.2660  134.8230 C   0  0  0  0  0  3  0  0  0  0  0  0
  180.7480  180.6300  137.0950 C   0  0  0  0  0  0  0  0  0  0  0  0
  180.7770  180.0610  135.8170 C   0  0  0  0  0  3  0  0  0  0  0  0
  180.7400  180.8770  134.6820 C   0  0  0  0  0  3  0  0  0  0  0  0
  180.6310  182.8400  136.0970 C   0  0  0  0  0  3  0  0  0  0  0  0
  180.6690  182.0240  137.2310 C   0  0  0  0  0  3  0  0  0  0  0  0
  1 12  1  0  0  0  0
  1 15  1  0  0  0  0
  2  6  1  6  0  0  0
  2 16  1  0  0  0  0
  4 13  1  0  0  0  0
  6 18  2  0  0  0  0
  7  9  1  0  0  0  0
  8 17  1  0  0  0  0
  8 10  1  0  0  0  0
 11  7  2  0  0  0  0
 12 23  1  6  0  0  0
 12  2  1  0  0  0  0
 13  5  1  0  0  0  0
 13  9  2  0  0  0  0
 14 11  1  0  0  0  0
 14  4  2  0  0  0  0
 15 21  1  0  0  0  0
 16  3  1  0  0  0  0
 16 11  1  0  0  0  0
 18 14  1  0  0  0  0
 19  8  2  0  0  0  0
 20 15  2  0  0  0  0
 20 19  1  0  0  0  0
 21  3  1  0  0  0  0
 21 17  2  0  0  0  0
 22 26  1  0  0  0  0
 23 27  1  0  0  0  0
 24 23  2  0  0  0  0
 25 22  2  0  0  0  0
 25 24  1  0  0  0  0
 26 27  2  0  0  0  0
M  END
>  <MODEL>
5

>  <REMARK>
 VINA RESULT:      -6.7      6.791      9.465
  Name = 
  1 active torsions:
  status: ('A' for Active; 'I' for Inactive)
    1  A    between atoms: C_9  and  C_15
                            x       y       z     vdW  Elec       q    Type
                         _______ _______ _______ _____ _____    ______ ____

>  <TORSDO>
F 1

$$$$
=
 OpenBabel10262420083D

 27 31  0  0  1  0  0  0  0  0999 V2000
  189.5950  177.9190  139.8990 O   0  0  0  0  0  0  0  0  0  0  0  0
  191.3990  176.2500  139.8250 C   0  0  1  0  0  3  0  0  0  0  0  0
  189.7060  175.5180  138.0810 C   0  0  0  0  0  2  0  0  0  0  0  0
  194.3190  176.4260  136.7970 N   0  0  0  0  0  0  0  0  0  0  0  0
  195.2450  175.6850  134.7670 F   0  0  0  0  0  0  0  0  0  0  0  0
  192.5390  177.2440  139.8330 C   0  0  0  0  0  3  0  0  0  0  0  0
  192.0190  174.9700  136.3140 C   0  0  0  0  0  3  0  0  0  0  0  0
  187.7390  178.0790  136.1500 C   0  0  0  0  0  0  0  0  0  0  0  0
  193.0670  174.9510  135.3930 C   0  0  0  0  0  3  0  0  0  0  0  0
  186.9460  178.2050  134.5940 Cl  0  0  0  0  0  0  0  0  0  0  0  0
  192.1420  175.7190  137.4890 C   0  0  0  0  0  0  0  0  0  0  0  0
  190.1480  176.7730  140.5470 C   0  0  1  0  0  3  0  0  0  0  0  0
  194.2230  175.6920  135.6560 C   0  0  0  0  0  0  0  0  0  0  0  0
  193.3150  176.4500  137.7140 C   0  0  0  0  0  0  0  0  0  0  0  0
  188.9900  177.9110  138.6320 C   0  0  0  0  0  0  0  0  0  0  0  0
  191.0880  175.7900  138.4630 N   0  0  0  0  0  0  0  0  0  0  0  0
  188.3800  176.8950  136.5100 C   0  0  0  0  0  3  0  0  0  0  0  0
  193.4190  177.2810  138.8760 N   0  0  0  0  0  0  0  0  0  0  0  0
  187.7360  179.1390  137.0000 N   0  0  0  0  0  0  0  0  0  0  0  0
  188.3410  179.0770  138.2160 C   0  0  0  0  0  3  0  0  0  0  0  0
  189.0110  176.8010  137.7510 C   0  0  0  0  0  0  0  0  0  0  0  0
  190.7770  177.5420  144.7300 C   0  0  0  0  0  3  0  0  0  0  0  0
  190.3890  177.0330  142.0030 C   0  0  0  0  0  0  0  0  0  0  0  0
  190.0070  178.2620  142.5500 C   0  0  0  0  0  3  0  0  0  0  0  0
  190.2020  178.5190  143.9110 C   0  0  0  0  0  3  0  0  0  0  0  0
  191.1550  176.3100  144.1900 C   0  0  0  0  0  3  0  0  0  0  0  0
  190.9590  176.0540  142.8300 C   0  0  0  0  0  3  0  0  0  0  0  0
  1 12  1  0  0  0  0
  2  6  1  6  0  0  0
  2 12  1  0  0  0  0
  3 16  1  0  0  0  0
  4 14  2  0  0  0  0
  5 13  1  0  0  0  0
  7 11  2  0  0  0  0
  8 17  2  0  0  0  0
  8 19  1  0  0  0  0
  9 13  2  0  0  0  0
  9  7  1  0  0  0  0
 10  8  1  0  0  0  0
 11 14  1  0  0  0  0
 11 16  1  0  0  0  0
 12 23  1  1  0  0  0
 13  4  1  0  0  0  0
 14 18  1  0  0  0  0
 15  1  1  0  0  0  0
 16  2  1  0  0  0  0
 17 21  1  0  0  0  0
 18  6  2  0  0  0  0
 19 20  2  0  0  0  0
 20 15  1  0  0  0  0
 21  3  1  0  0  0  0
 21 15  2  0  0  0  0
 23 24  2  0  0  0  0
 23 27  1  0  0  0  0
 24 25  1  0  0  0  0
 25 22  2  0  0  0  0
 26 22  1  0  0  0  0
 27 26  2  0  0  0  0
M  END
>  <MODEL>
6

>  <REMARK>
 VINA RESULT:      -6.7      4.979      8.143
  Name = 
  1 active torsions:
  status: ('A' for Active; 'I' for Inactive)
    1  A    between atoms: C_9  and  C_15
                            x       y       z     vdW  Elec       q    Type
                         _______ _______ _______ _____ _____    ______ ____

>  <TORSDO>
F 1

$$$$
=
 OpenBabel10262420083D

 27 31  0  0  1  0  0  0  0  0999 V2000
  182.7800  179.9260  140.1390 O   0  0  0  0  0  0  0  0  0  0  0  0
  184.2590  177.9820  139.8510 C   0  0  1  0  0  3  0  0  0  0  0  0
  182.4090  177.7060  138.1340 C   0  0  0  0  0  2  0  0  0  0  0  0
  187.0690  177.9090  136.7160 N   0  0  0  0  0  0  0  0  0  0  0  0
  187.7860  177.1950  134.5940 F   0  0  0  0  0  0  0  0  0  0  0  0
  185.5560  178.7590  139.8850 C   0  0  0  0  0  3  0  0  0  0  0  0
  184.5340  176.9190  136.2250 C   0  0  0  0  0  3  0  0  0  0  0  0
  180.8660  180.7250  136.5020 C   0  0  0  0  0  0  0  0  0  0  0  0
  185.5330  176.7980  135.2590 C   0  0  0  0  0  3  0  0  0  0  0  0
  180.0600  181.1190  134.9980 Cl  0  0  0  0  0  0  0  0  0  0  0  0
  184.8230  177.5330  137.4490 C   0  0  0  0  0  0  0  0  0  0  0  0
  183.1420  178.6500  140.6680 C   0  0  1  0  0  3  0  0  0  0  0  0
  186.8090  177.3020  135.5260 C   0  0  0  0  0  0  0  0  0  0  0  0
  186.1130  178.0280  137.6770 C   0  0  0  0  0  0  0  0  0  0  0  0
  182.1440  180.1310  138.9040 C   0  0  0  0  0  0  0  0  0  0  0  0
  183.8290  177.7010  138.4730 N   0  0  0  0  0  0  0  0  0  0  0  0
  181.2990  179.4210  136.7390 C   0  0  0  0  0  3  0  0  0  0  0  0
  186.3980  178.7250  138.8950 N   0  0  0  0  0  0  0  0  0  0  0  0
  181.0760  181.6930  137.4320 N   0  0  0  0  0  0  0  0  0  0  0  0
  181.6980  181.4240  138.6110 C   0  0  0  0  0  3  0  0  0  0  0  0
  181.9420  179.1140  137.9380 C   0  0  0  0  0  0  0  0  0  0  0  0
  184.0270  178.8720  144.8690 C   0  0  0  0  0  3  0  0  0  0  0  0
  183.4710  178.7390  142.1270 C   0  0  0  0  0  0  0  0  0  0  0  0
  182.4880  179.1710  143.0250 C   0  0  0  0  0  3  0  0  0  0  0  0
  182.7650  179.2410  144.3930 C   0  0  0  0  0  3  0  0  0  0  0  0
  185.0100  178.4330  143.9800 C   0  0  0  0  0  3  0  0  0  0  0  0
  184.7330  178.3630  142.6110 C   0  0  0  0  0  3  0  0  0  0  0  0
  1 12  1  0  0  0  0
  2  6  1  6  0  0  0
  2 12  1  0  0  0  0
  3 16  1  0  0  0  0
  4 14  2  0  0  0  0
  5 13  1  0  0  0  0
  7 11  2  0  0  0  0
  8 17  2  0  0  0  0
  8 19  1  0  0  0  0
  9 13  2  0  0  0  0
  9  7  1  0  0  0  0
 10  8  1  0  0  0  0
 11 14  1  0  0  0  0
 11 16  1  0  0  0  0
 12 23  1  1  0  0  0
 13  4  1  0  0  0  0
 14 18  1  0  0  0  0
 15  1  1  0  0  0  0
 16  2  1  0  0  0  0
 17 21  1  0  0  0  0
 18  6  2  0  0  0  0
 19 20  2  0  0  0  0
 20 15  1  0  0  0  0
 21  3  1  0  0  0  0
 21 15  2  0  0  0  0
 23 27  2  0  0  0  0
 23 24  1  0  0  0  0
 24 25  2  0  0  0  0
 25 22  1  0  0  0  0
 26 22  2  0  0  0  0
 27 26  1  0  0  0  0
M  END
>  <MODEL>
7

>  <REMARK>
 VINA RESULT:      -6.4      6.101      9.479
  Name = 
  1 active torsions:
  status: ('A' for Active; 'I' for Inactive)
    1  A    between atoms: C_9  and  C_15
                            x       y       z     vdW  Elec       q    Type
                         _______ _______ _______ _____ _____    ______ ____

>  <TORSDO>
F 1

$$$$
=
 OpenBabel10262420083D

 27 31  0  0  1  0  0  0  0  0999 V2000
  190.1930  177.8750  141.4550 O   0  0  0  0  0  0  0  0  0  0  0  0
  187.7730  177.5270  141.1920 C   0  0  1  0  0  3  0  0  0  0  0  0
  188.4530  176.1570  143.2180 C   0  0  0  0  0  2  0  0  0  0  0  0
  185.0560  179.6290  143.6270 N   0  0  0  0  0  0  0  0  0  0  0  0
  183.5760  179.7530  145.4490 F   0  0  0  0  0  0  0  0  0  0  0  0
  187.4220  178.9820  140.9750 C   0  0  0  0  0  3  0  0  0  0  0  0
  186.0050  177.1920  144.5250 C   0  0  0  0  0  3  0  0  0  0  0  0
  191.2070  177.3570  145.4840 C   0  0  0  0  0  0  0  0  0  0  0  0
  185.0080  177.8620  145.2360 C   0  0  0  0  0  3  0  0  0  0  0  0
  191.6800  177.1770  147.1610 Cl  0  0  0  0  0  0  0  0  0  0  0  0
  186.5140  177.7530  143.3490 C   0  0  0  0  0  0  0  0  0  0  0  0
  189.1910  177.1770  140.7150 C   0  0  1  0  0  3  0  0  0  0  0  0
  184.5400  179.0910  144.7650 C   0  0  0  0  0  0  0  0  0  0  0  0
  186.0200  178.9880  142.9120 C   0  0  0  0  0  0  0  0  0  0  0  0
  190.4820  177.6610  142.8130 C   0  0  0  0  0  0  0  0  0  0  0  0
  187.5530  177.1170  142.5870 N   0  0  0  0  0  0  0  0  0  0  0  0
  190.0690  176.7070  145.0100 C   0  0  0  0  0  3  0  0  0  0  0  0
  186.5880  179.6070  141.7510 N   0  0  0  0  0  0  0  0  0  0  0  0
  191.9460  178.1350  144.6510 N   0  0  0  0  0  0  0  0  0  0  0  0
  191.6080  178.2970  143.3440 C   0  0  0  0  0  3  0  0  0  0  0  0
  189.6960  176.8550  143.6730 C   0  0  0  0  0  0  0  0  0  0  0  0
  189.7270  177.8000  136.4950 C   0  0  0  0  0  3  0  0  0  0  0  0
  189.3670  177.3730  139.2400 C   0  0  0  0  0  0  0  0  0  0  0  0
  189.0450  178.6110  138.6720 C   0  0  0  0  0  3  0  0  0  0  0  0
  189.2220  178.8250  137.3020 C   0  0  0  0  0  3  0  0  0  0  0  0
  190.0570  176.5650  137.0570 C   0  0  0  0  0  3  0  0  0  0  0  0
  189.8810  176.3510  138.4280 C   0  0  0  0  0  3  0  0  0  0  0  0
  1 15  1  0  0  0  0
  2  6  1  1  0  0  0
  2 16  1  0  0  0  0
  3 21  1  0  0  0  0
  4 13  1  0  0  0  0
  6 18  2  0  0  0  0
  7  9  1  0  0  0  0
  8 10  1  0  0  0  0
 11  7  2  0  0  0  0
 12 23  1  6  0  0  0
 12  2  1  0  0  0  0
 12  1  1  0  0  0  0
 13  9  2  0  0  0  0
 13  5  1  0  0  0  0
 14 11  1  0  0  0  0
 14  4  2  0  0  0  0
 15 20  2  0  0  0  0
 15 21  1  0  0  0  0
 16  3  1  0  0  0  0
 16 11  1  0  0  0  0
 17  8  1  0  0  0  0
 18 14  1  0  0  0  0
 19  8  2  0  0  0  0
 20 19  1  0  0  0  0
 21 17  2  0  0  0  0
 22 26  2  0  0  0  0
 22 25  1  0  0  0  0
 24 23  1  0  0  0  0
 25 24  2  0  0  0  0
 26 27  1  0  0  0  0
 27 23  2  0  0  0  0
M  END
>  <MODEL>
8

>  <REMARK>
 VINA RESULT:      -6.2      1.166      1.466
  Name = 
  1 active torsions:
  status: ('A' for Active; 'I' for Inactive)
    1  A    between atoms: C_9  and  C_15
                            x       y       z     vdW  Elec       q    Type
                         _______ _______ _______ _____ _____    ______ ____

>  <TORSDO>
F 1

$$$$
=
 OpenBabel10262420083D

 27 31  0  0  1  0  0  0  0  0999 V2000
  189.1900  176.1520  138.3200 O   0  0  0  0  0  0  0  0  0  0  0  0
  189.4330  177.7010  140.2150 C   0  0  1  0  0  3  0  0  0  0  0  0
  187.5460  178.6340  138.7950 C   0  0  0  0  0  2  0  0  0  0  0  0
  186.7720  177.4950  143.4710 N   0  0  0  0  0  0  0  0  0  0  0  0
  184.9170  178.2810  144.6820 F   0  0  0  0  0  0  0  0  0  0  0  0
  189.5170  176.6370  141.2850 C   0  0  0  0  0  3  0  0  0  0  0  0
  186.1050  179.1220  141.3370 C   0  0  0  0  0  3  0  0  0  0  0  0
  185.2420  176.3110  136.9360 C   0  0  0  0  0  0  0  0  0  0  0  0
  185.3200  179.1210  142.4900 C   0  0  0  0  0  3  0  0  0  0  0  0
  183.5970  176.3190  136.3350 Cl  0  0  0  0  0  0  0  0  0  0  0  0
  187.2400  178.3050  141.2690 C   0  0  0  0  0  0  0  0  0  0  0  0
  189.9670  177.2240  138.8550 C   0  0  1  0  0  3  0  0  0  0  0  0
  185.6740  178.2940  143.5590 C   0  0  0  0  0  0  0  0  0  0  0  0
  187.5590  177.4880  142.3610 C   0  0  0  0  0  0  0  0  0  0  0  0
  187.8620  176.2660  137.8780 C   0  0  0  0  0  0  0  0  0  0  0  0
  188.0740  178.2520  140.1010 N   0  0  0  0  0  0  0  0  0  0  0  0
  185.7470  177.4310  137.5950 C   0  0  0  0  0  3  0  0  0  0  0  0
  188.6730  176.5930  142.2730 N   0  0  0  0  0  0  0  0  0  0  0  0
  186.0200  175.2110  136.7660 N   0  0  0  0  0  0  0  0  0  0  0  0
  187.3010  175.1680  137.2190 C   0  0  0  0  0  3  0  0  0  0  0  0
  187.0590  177.4170  138.0730 C   0  0  0  0  0  0  0  0  0  0  0  0
  194.1480  176.2260  138.9150 C   0  0  0  0  0  3  0  0  0  0  0  0
  191.4230  176.8730  138.8990 C   0  0  0  0  0  0  0  0  0  0  0  0
  191.9380  175.9750  137.9580 C   0  0  0  0  0  3  0  0  0  0  0  0
  193.2980  175.6490  137.9660 C   0  0  0  0  0  3  0  0  0  0  0  0
  193.6410  177.1280  139.8530 C   0  0  0  0  0  3  0  0  0  0  0  0
  192.2810  177.4540  139.8450 C   0  0  0  0  0  3  0  0  0  0  0  0
  1 12  1  0  0  0  0
  2  6  1  1  0  0  0
  3 16  1  0  0  0  0
  4 13  1  0  0  0  0
  6 18  2  0  0  0  0
  7  9  1  0  0  0  0
  8 17  1  0  0  0  0
  9 13  2  0  0  0  0
 10  8  1  0  0  0  0
 11  7  2  0  0  0  0
 11 14  1  0  0  0  0
 12 23  1  1  0  0  0
 12  2  1  0  0  0  0
 13  5  1  0  0  0  0
 14  4  2  0  0  0  0
 15 21  1  0  0  0  0
 15  1  1  0  0  0  0
 16  2  1  0  0  0  0
 16 11  1  0  0  0  0
 17 21  2  0  0  0  0
 18 14  1  0  0  0  0
 19  8  2  0  0  0  0
 19 20  1  0  0  0  0
 20 15  2  0  0  0  0
 21  3  1  0  0  0  0
 22 26  1  0  0  0  0
 23 27  1  0  0  0  0
 24 25  1  0  0  0  0
 24 23  2  0  0  0  0
 25 22  2  0  0  0  0
 27 26  2  0  0  0  0
M  END
>  <MODEL>
9

>  <REMARK>
 VINA RESULT:      -6.1      3.512      5.422
  Name = 
  1 active torsions:
  status: ('A' for Active; 'I' for Inactive)
    1  A    between atoms: C_9  and  C_15
                            x       y       z     vdW  Elec       q    Type
                         _______ _______ _______ _____ _____    ______ ____

>  <TORSDO>
F 1

$$$$
