=
 OpenBabel10262420143D

 27 30  0  0  1  0  0  0  0  0999 V2000
  188.0440  176.7830  144.3400 C   0  0  0  0  0  2  0  0  0  0  0  0
  188.2520  177.7050  141.3170 C   0  0  1  0  0  3  0  0  0  0  0  0
  186.0900  177.7530  142.4690 N   0  0  0  0  0  2  0  0  0  0  0  0
  189.7130  177.4160  139.2450 C   0  0  1  0  0  3  0  0  0  0  0  0
  188.8060  178.3410  140.0490 C   0  0  0  0  0  2  0  0  0  0  0  0
  191.1070  176.7590  144.5940 C   0  0  0  0  0  2  0  0  0  0  0  0
  189.3830  177.6660  142.3660 C   0  0  2  0  0  3  0  0  0  0  0  0
  184.5390  178.9690  145.6530 N   0  0  0  0  0  2  0  0  0  0  0  0
  190.2620  176.3990  142.2670 C   0  0  2  0  0  3  0  0  0  0  0  0
  185.5060  178.5510  146.6220 C   0  0  0  0  0  0  0  0  0  0  0  0
  188.9700  177.8930  143.8350 C   0  0  2  0  0  3  0  0  0  0  0  0
  190.9200  176.9010  140.0300 C   0  0  2  0  0  3  0  0  0  0  0  0
  186.6890  177.3160  144.8090 C   0  0  1  0  0  3  0  0  0  0  0  0
  187.0570  178.5560  141.7380 C   0  0  0  0  0  2  0  0  0  0  0  0
  184.5960  178.5610  144.2510 C   0  0  2  0  0  3  0  0  0  0  0  0
  188.9810  176.3510  138.7180 O   0  0  0  0  0  1  0  0  0  0  0  0
  185.2980  178.7690  147.8430 O   0  0  0  0  0  0  0  0  0  0  0  0
  191.5100  176.5160  143.1410 C   0  0  0  0  0  2  0  0  0  0  0  0
  186.8070  177.9470  146.1910 C   0  0  0  0  0  2  0  0  0  0  0  0
  190.5600  175.9030  140.9720 O   0  0  0  0  0  0  0  0  0  0  0  0
  186.0430  178.2960  143.8200 C   0  0  2  0  0  3  0  0  0  0  0  0
  190.2160  178.0000  144.7190 C   0  0  0  0  0  2  0  0  0  0  0  0
  193.0000  177.6570  140.1560 C   0  0  0  0  0  1  0  0  0  0  0  0
  191.6970  177.9380  140.5670 O   0  0  0  0  0  0  0  0  0  0  0  0
  183.9560  179.6450  143.3990 C   0  0  0  0  0  2  0  0  0  0  0  0
  181.3750  178.9440  143.4360 C   0  0  0  0  0  1  0  0  0  0  0  0
  182.6160  178.9540  142.4120 S   0  0  0  0  0  0  0  0  0  0  0  0
  1 13  1  0  0  0  0
  2  5  1  6  0  0  0
  2 14  1  0  0  0  0
  2  7  1  0  0  0  0
  3 21  1  0  0  0  0
  4 16  1  1  0  0  0
  4 12  1  0  0  0  0
  4  5  1  0  0  0  0
  6 22  1  0  0  0  0
  7 11  1  0  0  0  0
  8 10  1  0  0  0  0
  9  7  1  0  0  0  0
  9 18  1  0  0  0  0
 10 17  2  0  0  0  0
 11  1  1  0  0  0  0
 11 22  1  0  0  0  0
 12 24  1  0  0  0  0
 12 20  1  0  0  0  0
 13 19  1  0  0  0  0
 14  3  1  0  0  0  0
 15  8  1  0  0  0  0
 18  6  1  0  0  0  0
 19 10  1  0  0  0  0
 20  9  1  0  0  0  0
 21 15  1  0  0  0  0
 21 13  1  0  0  0  0
 23 24  1  0  0  0  0
 25 15  1  0  0  0  0
 27 25  1  0  0  0  0
 27 26  1  0  0  0  0
M  END
>  <MODEL>
1

>  <REMARK>
 VINA RESULT:      -8.5      0.000      0.000
  Name = 
  3 active torsions:
  status: ('A' for Active; 'I' for Inactive)
    1  A    between atoms: S_12  and  C_14
    2  A    between atoms: C_14  and  C_20
    3  A    between atoms: O_16  and  C_17
                            x       y       z     vdW  Elec       q    Type
                         _______ _______ _______ _____ _____    ______ ____

>  <TORSDO>
F 3

$$$$
=
 OpenBabel10262420143D

 27 30  0  0  1  0  0  0  0  0999 V2000
  189.0080  178.6380  142.4180 C   0  0  0  0  0  2  0  0  0  0  0  0
  187.7180  177.8000  145.1870 C   0  0  1  0  0  3  0  0  0  0  0  0
  186.3330  178.8350  143.4510 N   0  0  0  0  0  2  0  0  0  0  0  0
  188.3450  177.3460  147.6190 C   0  0  1  0  0  3  0  0  0  0  0  0
  187.4330  176.9960  146.4480 C   0  0  0  0  0  2  0  0  0  0  0  0
  191.5800  177.0950  143.0940 C   0  0  0  0  0  2  0  0  0  0  0  0
  189.0020  177.2360  144.5410 C   0  0  2  0  0  3  0  0  0  0  0  0
  185.5550  178.5140  139.8020 N   0  0  0  0  0  2  0  0  0  0  0  0
  190.2930  177.8820  145.0900 C   0  0  2  0  0  3  0  0  0  0  0  0
  186.8630  178.3630  139.2410 C   0  0  0  0  0  0  0  0  0  0  0  0
  189.0490  177.2220  143.0000 C   0  0  2  0  0  3  0  0  0  0  0  0
  189.8330  177.1590  147.3170 C   0  0  2  0  0  3  0  0  0  0  0  0
  187.8120  178.8600  141.4920 C   0  0  1  0  0  3  0  0  0  0  0  0
  186.4810  177.6670  144.3040 C   0  0  0  0  0  2  0  0  0  0  0  0
  185.3300  178.8650  141.2030 C   0  0  2  0  0  3  0  0  0  0  0  0
  188.0950  178.6450  148.0610 O   0  0  0  0  0  1  0  0  0  0  0  0
  186.9970  178.2570  137.9950 O   0  0  0  0  0  0  0  0  0  0  0  0
  191.5370  177.1280  144.6200 C   0  0  0  0  0  2  0  0  0  0  0  0
  188.0630  178.2290  140.1280 C   0  0  0  0  0  2  0  0  0  0  0  0
  190.3420  178.1830  146.4760 O   0  0  0  0  0  0  0  0  0  0  0  0
  186.4840  178.3650  142.0800 C   0  0  2  0  0  3  0  0  0  0  0  0
  190.2990  176.4780  142.5200 C   0  0  0  0  0  2  0  0  0  0  0  0
  191.3100  175.5240  147.5580 C   0  0  0  0  0  1  0  0  0  0  0  0
  190.1370  175.8610  146.8820 O   0  0  0  0  0  0  0  0  0  0  0  0
  184.0020  178.2750  141.6480 C   0  0  0  0  0  2  0  0  0  0  0  0
  181.5730  178.0510  140.5520 C   0  0  0  0  0  1  0  0  0  0  0  0
  183.0940  177.6380  140.2290 S   0  0  0  0  0  0  0  0  0  0  0  0
  1 11  1  0  0  0  0
  2 14  1  6  0  0  0
  2  5  1  0  0  0  0
  3 14  1  0  0  0  0
  4 16  1  6  0  0  0
  5  4  1  0  0  0  0
  6 18  1  0  0  0  0
  7  9  1  0  0  0  0
  7  2  1  0  0  0  0
  8 15  1  0  0  0  0
  9 20  1  0  0  0  0
 10  8  1  0  0  0  0
 10 19  1  0  0  0  0
 11  7  1  0  0  0  0
 12  4  1  0  0  0  0
 13 21  1  0  0  0  0
 13  1  1  0  0  0  0
 15 25  1  0  0  0  0
 15 21  1  0  0  0  0
 17 10  2  0  0  0  0
 18  9  1  0  0  0  0
 19 13  1  0  0  0  0
 20 12  1  0  0  0  0
 21  3  1  0  0  0  0
 22 11  1  0  0  0  0
 22  6  1  0  0  0  0
 24 12  1  0  0  0  0
 24 23  1  0  0  0  0
 27 26  1  0  0  0  0
 27 25  1  0  0  0  0
M  END
>  <MODEL>
2

>  <REMARK>
 VINA RESULT:      -7.1      2.330      5.269
  Name = 
  3 active torsions:
  status: ('A' for Active; 'I' for Inactive)
    1  A    between atoms: S_12  and  C_14
    2  A    between atoms: C_14  and  C_20
    3  A    between atoms: O_16  and  C_17
                            x       y       z     vdW  Elec       q    Type
                         _______ _______ _______ _____ _____    ______ ____

>  <TORSDO>
F 3

$$$$
=
 OpenBabel10262420143D

 27 30  0  0  1  0  0  0  0  0999 V2000
  187.4130  178.5970  142.9330 C   0  0  0  0  0  2  0  0  0  0  0  0
  187.1930  178.0510  146.0460 C   0  0  1  0  0  3  0  0  0  0  0  0
  185.3340  179.1090  144.8510 N   0  0  0  0  0  2  0  0  0  0  0  0
  188.6480  177.6840  148.1100 C   0  0  1  0  0  3  0  0  0  0  0  0
  187.3440  177.3540  147.3910 C   0  0  0  0  0  2  0  0  0  0  0  0
  189.9410  176.8570  142.7580 C   0  0  0  0  0  2  0  0  0  0  0  0
  188.1030  177.3300  145.0280 C   0  0  2  0  0  3  0  0  0  0  0  0
  183.2340  178.6490  141.7850 N   0  0  0  0  0  2  0  0  0  0  0  0
  189.5460  177.8800  145.0070 C   0  0  2  0  0  3  0  0  0  0  0  0
  184.2260  178.3410  140.8000 C   0  0  0  0  0  0  0  0  0  0  0  0
  187.5720  177.2200  143.5850 C   0  0  2  0  0  3  0  0  0  0  0  0
  189.9010  177.3370  147.3030 C   0  0  2  0  0  3  0  0  0  0  0  0
  185.9750  178.8770  142.4930 C   0  0  1  0  0  3  0  0  0  0  0  0
  185.7100  177.9850  145.6920 C   0  0  0  0  0  2  0  0  0  0  0  0
  183.5710  179.1020  143.1330 C   0  0  2  0  0  3  0  0  0  0  0  0
  188.6680  179.0250  148.4930 O   0  0  0  0  0  1  0  0  0  0  0  0
  183.8800  178.1490  139.6060 O   0  0  0  0  0  0  0  0  0  0  0  0
  190.4720  176.9850  144.1850 C   0  0  0  0  0  2  0  0  0  0  0  0
  185.6580  178.1450  141.1940 C   0  0  0  0  0  2  0  0  0  0  0  0
  190.1270  178.2570  146.2450 O   0  0  0  0  0  0  0  0  0  0  0  0
  184.9320  178.5470  143.5690 C   0  0  2  0  0  3  0  0  0  0  0  0
  188.5010  176.3330  142.7510 C   0  0  0  0  0  2  0  0  0  0  0  0
  191.1710  175.5220  147.3450 C   0  0  0  0  0  1  0  0  0  0  0  0
  189.9330  175.9930  146.9060 O   0  0  0  0  0  0  0  0  0  0  0  0
  182.4680  178.6690  144.0840 C   0  0  0  0  0  2  0  0  0  0  0  0
  179.8440  178.2320  144.3620 C   0  0  0  0  0  1  0  0  0  0  0  0
  180.8520  178.9620  143.3420 S   0  0  0  0  0  0  0  0  0  0  0  0
  1 11  1  0  0  0  0
  2 14  1  6  0  0  0
  2  5  1  0  0  0  0
  3 14  1  0  0  0  0
  4 16  1  6  0  0  0
  5  4  1  0  0  0  0
  6 18  1  0  0  0  0
  7  2  1  0  0  0  0
  8 15  1  0  0  0  0
  9  7  1  0  0  0  0
  9 20  1  0  0  0  0
 10 19  1  0  0  0  0
 10  8  1  0  0  0  0
 11  7  1  0  0  0  0
 12  4  1  0  0  0  0
 13  1  1  0  0  0  0
 13 21  1  0  0  0  0
 15 21  1  0  0  0  0
 15 25  1  0  0  0  0
 17 10  2  0  0  0  0
 18  9  1  0  0  0  0
 19 13  1  0  0  0  0
 20 12  1  0  0  0  0
 21  3  1  0  0  0  0
 22  6  1  0  0  0  0
 22 11  1  0  0  0  0
 24 12  1  0  0  0  0
 24 23  1  0  0  0  0
 27 25  1  0  0  0  0
 27 26  1  0  0  0  0
M  END
>  <MODEL>
3

>  <REMARK>
 VINA RESULT:      -7.0      2.671      5.091
  Name = 
  3 active torsions:
  status: ('A' for Active; 'I' for Inactive)
    1  A    between atoms: S_12  and  C_14
    2  A    between atoms: C_14  and  C_20
    3  A    between atoms: O_16  and  C_17
                            x       y       z     vdW  Elec       q    Type
                         _______ _______ _______ _____ _____    ______ ____

>  <TORSDO>
F 3

$$$$
=
 OpenBabel10262420143D

 27 30  0  0  1  0  0  0  0  0999 V2000
  186.8620  177.1850  144.2050 C   0  0  0  0  0  2  0  0  0  0  0  0
  189.9870  177.2390  144.7210 C   0  0  1  0  0  3  0  0  0  0  0  0
  189.1230  177.1040  142.4320 N   0  0  0  0  0  2  0  0  0  0  0  0
  191.7160  176.7280  146.5270 C   0  0  1  0  0  3  0  0  0  0  0  0
  191.3300  177.6040  145.3400 C   0  0  0  0  0  2  0  0  0  0  0  0
  186.3180  177.9490  147.1330 C   0  0  0  0  0  2  0  0  0  0  0  0
  188.8730  177.7630  145.6520 C   0  0  2  0  0  3  0  0  0  0  0  0
  186.6400  178.7700  140.1780 N   0  0  0  0  0  2  0  0  0  0  0  0
  188.4880  176.7610  146.7630 C   0  0  2  0  0  3  0  0  0  0  0  0
  185.5000  178.8800  141.0360 C   0  0  0  0  0  0  0  0  0  0  0  0
  187.5950  178.2910  144.9700 C   0  0  2  0  0  3  0  0  0  0  0  0
  190.6960  176.7520  147.6680 C   0  0  2  0  0  3  0  0  0  0  0  0
  186.7160  177.4950  142.7150 C   0  0  1  0  0  3  0  0  0  0  0  0
  189.9690  177.8710  143.3320 C   0  0  0  0  0  2  0  0  0  0  0  0
  187.8340  178.0090  140.5400 C   0  0  2  0  0  3  0  0  0  0  0  0
  191.9540  175.4180  146.1110 O   0  0  0  0  0  1  0  0  0  0  0  0
  184.4330  179.3780  140.5940 O   0  0  0  0  0  0  0  0  0  0  0  0
  187.5770  177.4070  147.8060 C   0  0  0  0  0  2  0  0  0  0  0  0
  185.5940  178.5000  142.4830 C   0  0  0  0  0  2  0  0  0  0  0  0
  189.5300  176.0040  147.3590 O   0  0  0  0  0  0  0  0  0  0  0  0
  188.0180  177.9780  142.0620 C   0  0  2  0  0  3  0  0  0  0  0  0
  186.6720  178.9310  146.0100 C   0  0  0  0  0  2  0  0  0  0  0  0
  191.2920  178.2190  149.2180 C   0  0  0  0  0  1  0  0  0  0  0  0
  190.4350  178.0500  148.1310 O   0  0  0  0  0  0  0  0  0  0  0  0
  189.0380  178.6280  139.8500 C   0  0  0  0  0  2  0  0  0  0  0  0
  189.0550  178.9950  137.2010 C   0  0  0  0  0  1  0  0  0  0  0  0
  189.3330  177.8210  138.2660 S   0  0  0  0  0  0  0  0  0  0  0  0
  1 11  1  0  0  0  0
  2 14  1  6  0  0  0
  2  5  1  0  0  0  0
  2  7  1  0  0  0  0
  3 14  1  0  0  0  0
  4 16  1  6  0  0  0
  4 12  1  0  0  0  0
  5  4  1  0  0  0  0
  6 18  1  0  0  0  0
  7  9  1  0  0  0  0
  8 15  1  0  0  0  0
  8 10  1  0  0  0  0
  9 20  1  0  0  0  0
  9 18  1  0  0  0  0
 10 19  1  0  0  0  0
 11  7  1  0  0  0  0
 11 22  1  0  0  0  0
 12 24  1  0  0  0  0
 13  1  1  0  0  0  0
 15 21  1  0  0  0  0
 17 10  2  0  0  0  0
 19 13  1  0  0  0  0
 20 12  1  0  0  0  0
 21  3  1  0  0  0  0
 21 13  1  0  0  0  0
 22  6  1  0  0  0  0
 24 23  1  0  0  0  0
 25 15  1  0  0  0  0
 26 27  1  0  0  0  0
 27 25  1  0  0  0  0
M  END
>  <MODEL>
4

>  <REMARK>
 VINA RESULT:      -7.0      3.353      5.877
  Name = 
  3 active torsions:
  status: ('A' for Active; 'I' for Inactive)
    1  A    between atoms: S_12  and  C_14
    2  A    between atoms: C_14  and  C_20
    3  A    between atoms: O_16  and  C_17
                            x       y       z     vdW  Elec       q    Type
                         _______ _______ _______ _____ _____    ______ ____

>  <TORSDO>
F 3

$$$$
=
 OpenBabel10262420143D

 27 30  0  0  1  0  0  0  0  0999 V2000
  187.4930  177.1580  143.0960 C   0  0  0  0  0  2  0  0  0  0  0  0
  186.2770  178.1780  140.3550 C   0  0  1  0  0  3  0  0  0  0  0  0
  184.8390  177.9480  142.3250 N   0  0  0  0  0  2  0  0  0  0  0  0
  186.7080  178.1160  137.8400 C   0  0  1  0  0  3  0  0  0  0  0  0
  186.1620  178.9080  139.0230 C   0  0  0  0  0  2  0  0  0  0  0  0
  190.3490  177.4780  142.0030 C   0  0  0  0  0  2  0  0  0  0  0  0
  187.7510  178.2420  140.8090 C   0  0  2  0  0  3  0  0  0  0  0  0
  184.7280  178.8900  145.9470 N   0  0  0  0  0  2  0  0  0  0  0  0
  188.6100  177.0860  140.2470 C   0  0  2  0  0  3  0  0  0  0  0  0
  186.0540  178.5600  146.3720 C   0  0  0  0  0  0  0  0  0  0  0  0
  188.0010  178.3790  142.3240 C   0  0  2  0  0  3  0  0  0  0  0  0
  188.1780  177.7220  137.9880 C   0  0  2  0  0  3  0  0  0  0  0  0
  186.4350  177.5180  144.1390 C   0  0  1  0  0  3  0  0  0  0  0  0
  185.3130  178.8750  141.3110 C   0  0  0  0  0  2  0  0  0  0  0  0
  184.2050  178.5300  144.6310 C   0  0  2  0  0  3  0  0  0  0  0  0
  185.9200  176.9890  137.6020 O   0  0  0  0  0  1  0  0  0  0  0  0
  186.3800  178.7190  147.5760 O   0  0  0  0  0  0  0  0  0  0  0  0
  190.0970  177.3220  140.5050 C   0  0  0  0  0  2  0  0  0  0  0  0
  187.0860  178.1210  145.3780 C   0  0  0  0  0  2  0  0  0  0  0  0
  188.3580  176.6630  138.9170 O   0  0  0  0  0  0  0  0  0  0  0  0
  185.3370  178.4440  143.6010 C   0  0  2  0  0  3  0  0  0  0  0  0
  189.4920  178.6040  142.5910 C   0  0  0  0  0  2  0  0  0  0  0  0
  189.1060  179.4610  136.9760 C   0  0  0  0  0  1  0  0  0  0  0  0
  189.0130  178.8260  138.2140 O   0  0  0  0  0  0  0  0  0  0  0  0
  183.1610  179.5560  144.2210 C   0  0  0  0  0  2  0  0  0  0  0  0
  181.3910  178.9810  142.3000 C   0  0  0  0  0  1  0  0  0  0  0  0
  181.5890  178.7460  143.8800 S   0  0  0  0  0  0  0  0  0  0  0  0
  1 13  1  0  0  0  0
  2  5  1  6  0  0  0
  2  7  1  0  0  0  0
  2 14  1  0  0  0  0
  3 21  1  0  0  0  0
  4 16  1  1  0  0  0
  4 12  1  0  0  0  0
  4  5  1  0  0  0  0
  6 22  1  0  0  0  0
  7 11  1  0  0  0  0
  8 10  1  0  0  0  0
  9 18  1  0  0  0  0
  9  7  1  0  0  0  0
 10 17  2  0  0  0  0
 11 22  1  0  0  0  0
 11  1  1  0  0  0  0
 12 24  1  0  0  0  0
 12 20  1  0  0  0  0
 13 19  1  0  0  0  0
 14  3  1  0  0  0  0
 15  8  1  0  0  0  0
 18  6  1  0  0  0  0
 19 10  1  0  0  0  0
 20  9  1  0  0  0  0
 21 13  1  0  0  0  0
 21 15  1  0  0  0  0
 23 24  1  0  0  0  0
 25 15  1  0  0  0  0
 26 27  1  0  0  0  0
 27 25  1  0  0  0  0
M  END
>  <MODEL>
5

>  <REMARK>
 VINA RESULT:      -6.8      1.672      2.401
  Name = 
  3 active torsions:
  status: ('A' for Active; 'I' for Inactive)
    1  A    between atoms: S_12  and  C_14
    2  A    between atoms: C_14  and  C_20
    3  A    between atoms: O_16  and  C_17
                            x       y       z     vdW  Elec       q    Type
                         _______ _______ _______ _____ _____    ______ ____

>  <TORSDO>
F 3

$$$$
=
 OpenBabel10262420143D

 27 30  0  0  1  0  0  0  0  0999 V2000
  188.0810  178.5850  145.9290 C   0  0  0  0  0  2  0  0  0  0  0  0
  186.7270  178.2670  143.0830 C   0  0  1  0  0  3  0  0  0  0  0  0
  189.1550  178.0430  143.3190 N   0  0  0  0  0  2  0  0  0  0  0  0
  184.6230  178.9210  141.7960 C   0  0  1  0  0  3  0  0  0  0  0  0
  185.7130  177.8780  142.0160 C   0  0  0  0  0  2  0  0  0  0  0  0
  185.3310  178.4900  147.3010 C   0  0  0  0  0  2  0  0  0  0  0  0
  186.0650  178.0740  144.4640 C   0  0  2  0  0  3  0  0  0  0  0  0
  191.7040  176.2650  145.4080 N   0  0  0  0  0  2  0  0  0  0  0  0
  185.2790  179.3160  144.9410 C   0  0  2  0  0  3  0  0  0  0  0  0
  191.1850  176.4640  146.7270 C   0  0  0  0  0  0  0  0  0  0  0  0
  186.9770  177.5750  145.6030 C   0  0  2  0  0  3  0  0  0  0  0  0
  183.8170  179.2450  143.0560 C   0  0  2  0  0  3  0  0  0  0  0  0
  189.4830  178.0020  145.7510 C   0  0  1  0  0  3  0  0  0  0  0  0
  187.9470  177.3780  142.8610 C   0  0  0  0  0  2  0  0  0  0  0  0
  191.1560  176.9370  144.2320 C   0  0  2  0  0  3  0  0  0  0  0  0
  185.1630  180.0850  141.2480 O   0  0  0  0  0  1  0  0  0  0  0  0
  191.8170  176.0170  147.7180 O   0  0  0  0  0  0  0  0  0  0  0  0
  184.4360  179.0030  146.1760 C   0  0  0  0  0  2  0  0  0  0  0  0
  189.8490  177.1110  146.9320 C   0  0  0  0  0  2  0  0  0  0  0  0
  184.5500  180.0490  143.9680 O   0  0  0  0  0  0  0  0  0  0  0  0
  189.6680  177.2490  144.4270 C   0  0  2  0  0  3  0  0  0  0  0  0
  186.1400  177.2690  146.8490 C   0  0  0  0  0  2  0  0  0  0  0  0
  181.8880  178.4220  143.7730 C   0  0  0  0  0  1  0  0  0  0  0  0
  183.2400  178.1060  143.6360 O   0  0  0  0  0  0  0  0  0  0  0  0
  191.3810  176.0560  143.0140 C   0  0  0  0  0  2  0  0  0  0  0  0
  190.7240  176.7520  140.5170 C   0  0  0  0  0  1  0  0  0  0  0  0
  191.8750  177.0560  141.6000 S   0  0  0  0  0  0  0  0  0  0  0  0
  2  5  1  6  0  0  0
  2  7  1  0  0  0  0
  3 21  1  0  0  0  0
  4 16  1  1  0  0  0
  4  5  1  0  0  0  0
  4 12  1  0  0  0  0
  7  9  1  0  0  0  0
  7 11  1  0  0  0  0
  8 10  1  0  0  0  0
  9 18  1  0  0  0  0
 10 19  1  0  0  0  0
 10 17  2  0  0  0  0
 11  1  1  0  0  0  0
 11 22  1  0  0  0  0
 12 24  1  0  0  0  0
 12 20  1  0  0  0  0
 13  1  1  0  0  0  0
 13 19  1  0  0  0  0
 14  2  1  0  0  0  0
 14  3  1  0  0  0  0
 15 21  1  0  0  0  0
 15  8  1  0  0  0  0
 18  6  1  0  0  0  0
 20  9  1  0  0  0  0
 21 13  1  0  0  0  0
 22  6  1  0  0  0  0
 24 23  1  0  0  0  0
 25 15  1  0  0  0  0
 26 27  1  0  0  0  0
 27 25  1  0  0  0  0
M  END
>  <MODEL>
6

>  <REMARK>
 VINA RESULT:      -6.8      3.383      6.476
  Name = 
  3 active torsions:
  status: ('A' for Active; 'I' for Inactive)
    1  A    between atoms: S_12  and  C_14
    2  A    between atoms: C_14  and  C_20
    3  A    between atoms: O_16  and  C_17
                            x       y       z     vdW  Elec       q    Type
                         _______ _______ _______ _____ _____    ______ ____

>  <TORSDO>
F 3

$$$$
=
 OpenBabel10262420143D

 27 30  0  0  1  0  0  0  0  0999 V2000
  190.5960  178.0670  142.9820 C   0  0  0  0  0  2  0  0  0  0  0  0
  187.6360  177.8940  144.0950 C   0  0  1  0  0  3  0  0  0  0  0  0
  188.0330  178.4860  141.7510 N   0  0  0  0  0  2  0  0  0  0  0  0
  186.3190  178.0250  146.2770 C   0  0  1  0  0  3  0  0  0  0  0  0
  186.4300  177.4050  144.8880 C   0  0  0  0  0  2  0  0  0  0  0  0
  191.6840  176.7380  145.5320 C   0  0  0  0  0  2  0  0  0  0  0  0
  188.8930  177.2010  144.6620 C   0  0  2  0  0  3  0  0  0  0  0  0
  189.9600  177.3160  138.7620 N   0  0  0  0  0  2  0  0  0  0  0  0
  189.5250  177.9640  145.8470 C   0  0  2  0  0  3  0  0  0  0  0  0
  191.2440  177.0450  139.3340 C   0  0  0  0  0  0  0  0  0  0  0  0
  189.9910  176.8270  143.6460 C   0  0  2  0  0  3  0  0  0  0  0  0
  187.5420  177.7800  147.1610 C   0  0  2  0  0  3  0  0  0  0  0  0
  190.4330  178.0600  141.4620 C   0  0  1  0  0  3  0  0  0  0  0  0
  187.3560  177.5510  142.6350 C   0  0  0  0  0  2  0  0  0  0  0  0
  188.8890  177.9840  139.4990 C   0  0  2  0  0  3  0  0  0  0  0  0
  186.0480  179.3900  146.1820 O   0  0  0  0  0  1  0  0  0  0  0  0
  192.1840  176.6500  138.5970 O   0  0  0  0  0  0  0  0  0  0  0  0
  190.6020  177.1280  146.5380 C   0  0  0  0  0  2  0  0  0  0  0  0
  191.4510  177.1280  140.8160 C   0  0  0  0  0  2  0  0  0  0  0  0
  188.6490  178.5810  146.7770 O   0  0  0  0  0  0  0  0  0  0  0  0
  189.0110  177.7100  141.0020 C   0  0  2  0  0  3  0  0  0  0  0  0
  191.0800  175.9980  144.3330 C   0  0  0  0  0  2  0  0  0  0  0  0
  187.9310  176.2090  148.6750 C   0  0  0  0  0  1  0  0  0  0  0  0
  187.8450  176.4180  147.2990 O   0  0  0  0  0  0  0  0  0  0  0  0
  187.5520  177.5070  138.9570 C   0  0  0  0  0  2  0  0  0  0  0  0
  187.3510  178.6010  136.5240 C   0  0  0  0  0  1  0  0  0  0  0  0
  187.6760  177.1720  137.1910 S   0  0  0  0  0  0  0  0  0  0  0  0
  1 11  1  0  0  0  0
  2 14  1  6  0  0  0
  2  7  1  0  0  0  0
  2  5  1  0  0  0  0
  3 14  1  0  0  0  0
  4 16  1  6  0  0  0
  4 12  1  0  0  0  0
  5  4  1  0  0  0  0
  6 18  1  0  0  0  0
  7  9  1  0  0  0  0
  8 10  1  0  0  0  0
  8 15  1  0  0  0  0
  9 18  1  0  0  0  0
  9 20  1  0  0  0  0
 10 19  1  0  0  0  0
 11 22  1  0  0  0  0
 11  7  1  0  0  0  0
 12 24  1  0  0  0  0
 13  1  1  0  0  0  0
 15 21  1  0  0  0  0
 17 10  2  0  0  0  0
 19 13  1  0  0  0  0
 20 12  1  0  0  0  0
 21 13  1  0  0  0  0
 21  3  1  0  0  0  0
 22  6  1  0  0  0  0
 24 23  1  0  0  0  0
 25 15  1  0  0  0  0
 26 27  1  0  0  0  0
 27 25  1  0  0  0  0
M  END
>  <MODEL>
7

>  <REMARK>
 VINA RESULT:      -6.8      2.636      6.441
  Name = 
  3 active torsions:
  status: ('A' for Active; 'I' for Inactive)
    1  A    between atoms: S_12  and  C_14
    2  A    between atoms: C_14  and  C_20
    3  A    between atoms: O_16  and  C_17
                            x       y       z     vdW  Elec       q    Type
                         _______ _______ _______ _____ _____    ______ ____

>  <TORSDO>
F 3

$$$$
=
 OpenBabel10262420143D

 27 30  0  0  1  0  0  0  0  0999 V2000
  184.2500  177.8250  143.6780 C   0  0  0  0  0  2  0  0  0  0  0  0
  186.8580  178.1620  141.9120 C   0  0  1  0  0  3  0  0  0  0  0  0
  184.6540  178.0970  140.8450 N   0  0  0  0  0  2  0  0  0  0  0  0
  189.3690  177.7070  141.9640 C   0  0  1  0  0  3  0  0  0  0  0  0
  188.2460  178.6180  141.4810 C   0  0  0  0  0  2  0  0  0  0  0  0
  185.8640  178.3280  146.2450 C   0  0  0  0  0  2  0  0  0  0  0  0
  186.6860  178.5050  143.4080 C   0  0  2  0  0  3  0  0  0  0  0  0
  181.2590  179.6520  141.1280 N   0  0  0  0  0  2  0  0  0  0  0  0
  187.2040  177.3950  144.3490 C   0  0  2  0  0  3  0  0  0  0  0  0
  181.0280  179.5860  142.5390 C   0  0  0  0  0  0  0  0  0  0  0  0
  185.2780  178.9450  143.8570 C   0  0  2  0  0  3  0  0  0  0  0  0
  189.4230  177.5490  143.4850 C   0  0  2  0  0  3  0  0  0  0  0  0
  183.1050  178.2210  142.7450 C   0  0  1  0  0  3  0  0  0  0  0  0
  185.8670  178.8820  141.0030 C   0  0  0  0  0  2  0  0  0  0  0  0
  182.3910  178.9930  140.4790 C   0  0  2  0  0  3  0  0  0  0  0  0
  189.2870  176.4600  141.3450 O   0  0  0  0  0  1  0  0  0  0  0  0
  179.9400  180.0020  143.0120 O   0  0  0  0  0  0  0  0  0  0  0  0
  187.2520  177.8720  145.8000 C   0  0  0  0  0  2  0  0  0  0  0  0
  182.1080  179.1190  143.4680 C   0  0  0  0  0  2  0  0  0  0  0  0
  188.3870  176.7090  143.9720 O   0  0  0  0  0  0  0  0  0  0  0  0
  183.5780  178.8780  141.4410 C   0  0  2  0  0  3  0  0  0  0  0  0
  185.3160  179.4150  145.3140 C   0  0  0  0  0  2  0  0  0  0  0  0
  190.8610  179.1450  144.0280 C   0  0  0  0  0  1  0  0  0  0  0  0
  189.5210  178.7790  144.1520 O   0  0  0  0  0  0  0  0  0  0  0  0
  182.7640  179.7780  139.2320 C   0  0  0  0  0  2  0  0  0  0  0  0
  181.4850  181.9320  138.2950 C   0  0  0  0  0  1  0  0  0  0  0  0
  181.2800  180.3380  138.3780 S   0  0  0  0  0  0  0  0  0  0  0  0
  1 11  1  0  0  0  0
  2 14  1  6  0  0  0
  2  7  1  0  0  0  0
  3 14  1  0  0  0  0
  3 21  1  0  0  0  0
  4 16  1  6  0  0  0
  4 12  1  0  0  0  0
  5  2  1  0  0  0  0
  5  4  1  0  0  0  0
  7 11  1  0  0  0  0
  7  9  1  0  0  0  0
  8 10  1  0  0  0  0
  9 18  1  0  0  0  0
 10 17  2  0  0  0  0
 10 19  1  0  0  0  0
 11 22  1  0  0  0  0
 12 20  1  0  0  0  0
 12 24  1  0  0  0  0
 13 19  1  0  0  0  0
 13  1  1  0  0  0  0
 15  8  1  0  0  0  0
 15 21  1  0  0  0  0
 18  6  1  0  0  0  0
 20  9  1  0  0  0  0
 21 13  1  0  0  0  0
 22  6  1  0  0  0  0
 23 24  1  0  0  0  0
 25 15  1  0  0  0  0
 26 27  1  0  0  0  0
 27 25  1  0  0  0  0
M  END
>  <MODEL>
8

>  <REMARK>
 VINA RESULT:      -6.6      2.902      4.360
  Name = 
  3 active torsions:
  status: ('A' for Active; 'I' for Inactive)
    1  A    between atoms: S_12  and  C_14
    2  A    between atoms: C_14  and  C_20
    3  A    between atoms: O_16  and  C_17
                            x       y       z     vdW  Elec       q    Type
                         _______ _______ _______ _____ _____    ______ ____

>  <TORSDO>
F 3

$$$$
=
 OpenBabel10262420143D

 27 30  0  0  1  0  0  0  0  0999 V2000
  186.1540  179.2790  142.2390 C   0  0  0  0  0  2  0  0  0  0  0  0
  183.2480  178.8060  141.0730 C   0  0  1  0  0  3  0  0  0  0  0  0
  185.1690  178.9510  139.5600 N   0  0  0  0  0  2  0  0  0  0  0  0
  180.7880  179.1530  141.6570 C   0  0  1  0  0  3  0  0  0  0  0  0
  181.8220  178.2850  140.9490 C   0  0  0  0  0  2  0  0  0  0  0  0
  185.1480  178.7440  145.0940 C   0  0  0  0  0  2  0  0  0  0  0  0
  183.7490  178.4920  142.4990 C   0  0  2  0  0  3  0  0  0  0  0  0
  188.6120  177.5470  139.1180 N   0  0  0  0  0  2  0  0  0  0  0  0
  183.3950  179.5910  143.5240 C   0  0  2  0  0  3  0  0  0  0  0  0
  189.1350  177.6430  140.4470 C   0  0  0  0  0  0  0  0  0  0  0  0
  185.2390  178.1190  142.6390 C   0  0  2  0  0  3  0  0  0  0  0  0
  181.0520  179.3300  143.1530 C   0  0  2  0  0  3  0  0  0  0  0  0
  187.0910  178.9200  141.0850 C   0  0  1  0  0  3  0  0  0  0  0  0
  184.0540  178.1160  139.9760 C   0  0  0  0  0  2  0  0  0  0  0  0
  187.3400  178.1470  138.7220 C   0  0  2  0  0  3  0  0  0  0  0  0
  180.6800  180.3940  141.0290 O   0  0  0  0  0  1  0  0  0  0  0  0
  190.3170  177.2810  140.6790 O   0  0  0  0  0  0  0  0  0  0  0  0
  183.6780  179.1330  144.9540 C   0  0  0  0  0  2  0  0  0  0  0  0
  188.2580  178.0760  141.5830 C   0  0  0  0  0  2  0  0  0  0  0  0
  182.1280  180.2210  143.4050 O   0  0  0  0  0  0  0  0  0  0  0  0
  186.3810  178.2260  139.9160 C   0  0  2  0  0  3  0  0  0  0  0  0
  185.5340  177.6680  144.0730 C   0  0  0  0  0  2  0  0  0  0  0  0
  179.8610  177.8440  144.2860 C   0  0  0  0  0  1  0  0  0  0  0  0
  181.1540  178.1070  143.8320 O   0  0  0  0  0  0  0  0  0  0  0  0
  186.7450  177.3300  137.5870 C   0  0  0  0  0  2  0  0  0  0  0  0
  186.7380  174.7140  137.0340 C   0  0  0  0  0  1  0  0  0  0  0  0
  187.7950  175.9130  137.2210 S   0  0  0  0  0  0  0  0  0  0  0  0
  1 11  1  0  0  0  0
  2 14  1  6  0  0  0
  2  7  1  0  0  0  0
  3 21  1  0  0  0  0
  3 14  1  0  0  0  0
  4 16  1  6  0  0  0
  4 12  1  0  0  0  0
  5  2  1  0  0  0  0
  5  4  1  0  0  0  0
  7 11  1  0  0  0  0
  7  9  1  0  0  0  0
  8 10  1  0  0  0  0
  9 18  1  0  0  0  0
 10 17  2  0  0  0  0
 10 19  1  0  0  0  0
 11 22  1  0  0  0  0
 12 20  1  0  0  0  0
 12 24  1  0  0  0  0
 13 19  1  0  0  0  0
 13  1  1  0  0  0  0
 15  8  1  0  0  0  0
 15 21  1  0  0  0  0
 18  6  1  0  0  0  0
 20  9  1  0  0  0  0
 21 13  1  0  0  0  0
 22  6  1  0  0  0  0
 24 23  1  0  0  0  0
 25 15  1  0  0  0  0
 26 27  1  0  0  0  0
 27 25  1  0  0  0  0
M  END
>  <MODEL>
9

>  <REMARK>
 VINA RESULT:      -6.5      3.413      7.543
  Name = 
  3 active torsions:
  status: ('A' for Active; 'I' for Inactive)
    1  A    between atoms: S_12  and  C_14
    2  A    between atoms: C_14  and  C_20
    3  A    between atoms: O_16  and  C_17
                            x       y       z     vdW  Elec       q    Type
                         _______ _______ _______ _____ _____    ______ ____

>  <TORSDO>
F 3

$$$$
