=
 OpenBabel10262421273D

 32 37  0  0  1  0  0  0  0  0999 V2000
  190.7580  176.5150  138.8390 C   0  0  0  0  0  3  0  0  0  0  0  0
  188.5190  177.6730  143.2490 C   0  0  0  0  0  0  0  0  0  0  0  0
  192.0090  175.9970  146.4520 C   0  0  0  0  0  2  0  0  0  0  0  0
  191.2320  176.7080  147.5480 C   0  0  0  0  0  2  0  0  0  0  0  0
  186.2810  178.2280  144.0350 C   0  0  0  0  0  0  0  0  0  0  0  0
  185.8770  178.3430  142.6870 C   0  0  0  0  0  0  0  0  0  0  0  0
  188.9890  177.5300  140.8220 C   0  0  0  0  0  0  0  0  0  0  0  0
  190.7050  176.8590  142.3720 N   0  0  0  0  0  0  0  0  0  0  0  0
  183.9130  178.8560  144.6910 C   0  0  0  0  0  0  0  0  0  0  0  0
  191.0850  176.3700  140.0890 N   0  0  0  0  0  0  0  0  0  0  0  0
  191.7350  176.6760  145.1180 C   0  0  0  0  0  2  0  0  0  0  0  0
  189.9960  177.4550  143.5140 C   0  0  2  0  0  3  0  0  0  0  0  0
  190.2410  176.6290  144.7800 C   0  0  2  0  0  3  0  0  0  0  0  0
  188.1630  177.7500  145.6980 C   0  0  0  0  0  0  0  0  0  0  0  0
  183.5790  178.9440  143.2660 C   0  0  0  0  0  3  0  0  0  0  0  0
  190.3060  176.9520  141.1380 C   0  0  0  0  0  0  0  0  0  0  0  0
  184.4940  178.7000  142.3340 C   0  0  0  0  0  3  0  0  0  0  0  0
  188.6260  177.6640  139.5430 C   0  0  0  0  0  3  0  0  0  0  0  0
  189.5870  177.3710  138.4190 C   0  0  2  0  0  3  0  0  0  0  0  0
  189.7400  176.6170  147.2540 C   0  0  0  0  0  2  0  0  0  0  0  0
  189.4450  177.1310  145.9150 N   0  0  0  0  0  0  0  0  0  0  0  0
  187.5080  178.1750  146.6890 O   0  0  0  0  0  0  0  0  0  0  0  0
  188.0610  177.8010  141.9290 C   0  0  0  0  0  0  0  0  0  0  0  0
  186.7660  178.1270  141.6850 N   0  0  0  0  0  0  0  0  0  0  0  0
  183.0370  179.1400  145.5480 O   0  0  0  0  0  0  0  0  0  0  0  0
  187.6320  177.8980  144.3170 C   0  0  0  0  0  0  0  0  0  0  0  0
  185.2700  178.4070  145.1490 C   0  0  0  0  0  2  0  0  0  0  0  0
  188.8700  176.7890  137.2080 C   0  0  0  0  0  2  0  0  0  0  0  0
  188.7710  177.7790  136.1350 N   0  0  0  0  0  2  0  0  0  0  0  0
  187.4220  178.3450  136.0860 C   0  0  1  0  0  3  0  0  0  0  0  0
  186.3800  177.3430  136.5540 C   0  0  0  0  0  1  0  0  0  0  0  0
  187.3450  179.5220  136.8360 O   0  0  0  0  0  1  0  0  0  0  0  0
  1 10  2  0  0  0  0
  2 12  1  0  0  0  0
  2 26  1  0  0  0  0
  3  4  1  0  0  0  0
  5 26  2  0  0  0  0
  5 27  1  0  0  0  0
  6  5  1  0  0  0  0
  7 16  1  0  0  0  0
  7 23  1  0  0  0  0
  9 27  1  0  0  0  0
  9 25  2  0  0  0  0
 10 16  1  0  0  0  0
 11  3  1  0  0  0  0
 12  8  1  6  0  0  0
 12 13  1  0  0  0  0
 13 11  1  1  0  0  0
 13 21  1  0  0  0  0
 14 21  1  0  0  0  0
 14 22  2  0  0  0  0
 15  9  1  0  0  0  0
 16  8  2  0  0  0  0
 17  6  1  0  0  0  0
 17 15  2  0  0  0  0
 18  7  2  0  0  0  0
 19 28  1  6  0  0  0
 19  1  1  0  0  0  0
 19 18  1  0  0  0  0
 20  4  1  0  0  0  0
 21 20  1  0  0  0  0
 23  2  2  0  0  0  0
 24 23  1  0  0  0  0
 24  6  2  0  0  0  0
 26 14  1  0  0  0  0
 29 28  1  0  0  0  0
 30 29  1  0  0  0  0
 30 31  1  1  0  0  0
 30 32  1  0  0  0  0
M  END
>  <MODEL>
1

>  <REMARK>
 VINA RESULT:     -11.0      0.000      0.000
  Name = 
  3 active torsions:
  status: ('A' for Active; 'I' for Inactive)
    1  A    between atoms: C_1  and  N_10
    2  A    between atoms: N_10  and  C_19
    3  A    between atoms: C_19  and  C_24
                            x       y       z     vdW  Elec       q    Type
                         _______ _______ _______ _____ _____    ______ ____

>  <TORSDO>
F 3

$$$$
=
 OpenBabel10262421273D

 32 37  0  0  1  0  0  0  0  0999 V2000
  183.4620  178.9920  145.1030 C   0  0  0  0  0  3  0  0  0  0  0  0
  188.0420  177.4730  143.5150 C   0  0  0  0  0  0  0  0  0  0  0  0
  190.4390  177.2140  147.9230 C   0  0  0  0  0  2  0  0  0  0  0  0
  191.5630  176.5100  147.1810 C   0  0  0  0  0  2  0  0  0  0  0  0
  189.2880  177.4110  141.4220 C   0  0  0  0  0  0  0  0  0  0  0  0
  188.0970  177.7580  140.7470 C   0  0  0  0  0  0  0  0  0  0  0  0
  185.6390  178.0730  143.5200 C   0  0  0  0  0  0  0  0  0  0  0  0
  186.7680  177.8100  145.6300 N   0  0  0  0  0  0  0  0  0  0  0  0
  190.4320  177.3540  139.1600 C   0  0  0  0  0  0  0  0  0  0  0  0
  184.5850  178.7200  145.6980 N   0  0  0  0  0  0  0  0  0  0  0  0
  189.1300  176.9980  147.1780 C   0  0  0  0  0  2  0  0  0  0  0  0
  187.9380  177.1800  144.9990 C   0  0  2  0  0  3  0  0  0  0  0  0
  189.2150  177.5570  145.7540 C   0  0  2  0  0  3  0  0  0  0  0  0
  190.4460  176.8950  143.6420 C   0  0  0  0  0  0  0  0  0  0  0  0
  189.1540  177.7240  138.5430 C   0  0  0  0  0  3  0  0  0  0  0  0
  185.6880  178.1460  144.9890 C   0  0  0  0  0  0  0  0  0  0  0  0
  188.0690  177.9170  139.2850 C   0  0  0  0  0  3  0  0  0  0  0  0
  184.5000  178.3720  142.8890 C   0  0  0  0  0  3  0  0  0  0  0  0
  183.2280  178.6440  143.6520 C   0  0  2  0  0  3  0  0  0  0  0  0
  191.6970  177.0980  145.7830 C   0  0  0  0  0  2  0  0  0  0  0  0
  190.4170  177.0420  145.0740 N   0  0  0  0  0  0  0  0  0  0  0  0
  191.4880  176.4450  143.0890 O   0  0  0  0  0  0  0  0  0  0  0  0
  186.8900  177.8150  142.7920 C   0  0  0  0  0  0  0  0  0  0  0  0
  186.9470  177.9490  141.4420 N   0  0  0  0  0  0  0  0  0  0  0  0
  191.4290  177.1320  138.4260 O   0  0  0  0  0  0  0  0  0  0  0  0
  189.2520  177.2550  142.8320 C   0  0  0  0  0  0  0  0  0  0  0  0
  190.5820  177.2620  140.6500 C   0  0  0  0  0  2  0  0  0  0  0  0
  182.3700  179.6910  142.9540 C   0  0  0  0  0  2  0  0  0  0  0  0
  181.2860  179.0590  142.2010 N   0  0  0  0  0  2  0  0  0  0  0  0
  179.9870  179.4860  142.7230 C   0  0  1  0  0  3  0  0  0  0  0  0
  179.6410  178.7640  144.0160 C   0  0  0  0  0  1  0  0  0  0  0  0
  179.9510  180.8710  142.9080 O   0  0  0  0  0  1  0  0  0  0  0  0
  1 10  2  0  0  0  0
  4  3  1  0  0  0  0
  5 26  2  0  0  0  0
  6  5  1  0  0  0  0
  6 24  2  0  0  0  0
  7 16  1  0  0  0  0
  9 27  1  0  0  0  0
 11  3  1  0  0  0  0
 12  2  1  6  0  0  0
 12  8  1  0  0  0  0
 12 13  1  0  0  0  0
 13 11  1  1  0  0  0
 14 21  1  0  0  0  0
 15  9  1  0  0  0  0
 15 17  2  0  0  0  0
 16  8  2  0  0  0  0
 16 10  1  0  0  0  0
 17  6  1  0  0  0  0
 18  7  2  0  0  0  0
 18 19  1  0  0  0  0
 19 28  1  6  0  0  0
 19  1  1  0  0  0  0
 20  4  1  0  0  0  0
 21 13  1  0  0  0  0
 21 20  1  0  0  0  0
 22 14  2  0  0  0  0
 23  2  2  0  0  0  0
 23  7  1  0  0  0  0
 24 23  1  0  0  0  0
 25  9  2  0  0  0  0
 26  2  1  0  0  0  0
 26 14  1  0  0  0  0
 27  5  1  0  0  0  0
 29 30  1  0  0  0  0
 29 28  1  0  0  0  0
 30 32  1  0  0  0  0
 30 31  1  1  0  0  0
M  END
>  <MODEL>
2

>  <REMARK>
 VINA RESULT:     -10.3      2.390      6.306
  Name = 
  3 active torsions:
  status: ('A' for Active; 'I' for Inactive)
    1  A    between atoms: C_1  and  N_10
    2  A    between atoms: N_10  and  C_19
    3  A    between atoms: C_19  and  C_24
                            x       y       z     vdW  Elec       q    Type
                         _______ _______ _______ _____ _____    ______ ____

>  <TORSDO>
F 3

$$$$
=
 OpenBabel10262421273D

 32 37  0  0  1  0  0  0  0  0999 V2000
  190.6490  177.1050  140.0500 C   0  0  0  0  0  3  0  0  0  0  0  0
  187.0920  178.2170  143.5020 C   0  0  0  0  0  0  0  0  0  0  0  0
  189.6380  177.2120  147.7150 C   0  0  0  0  0  2  0  0  0  0  0  0
  188.4990  177.8780  148.4690 C   0  0  0  0  0  2  0  0  0  0  0  0
  184.6750  178.5180  143.5570 C   0  0  0  0  0  0  0  0  0  0  0  0
  184.6780  178.4970  142.1450 C   0  0  0  0  0  0  0  0  0  0  0  0
  188.2720  177.9930  141.3360 C   0  0  0  0  0  0  0  0  0  0  0  0
  189.5140  177.6490  143.3700 N   0  0  0  0  0  0  0  0  0  0  0  0
  182.1650  178.8650  143.4440 C   0  0  0  0  0  0  0  0  0  0  0  0
  190.6050  177.0790  141.3490 N   0  0  0  0  0  0  0  0  0  0  0  0
  189.6980  177.7680  146.3000 C   0  0  0  0  0  2  0  0  0  0  0  0
  188.4390  178.2130  144.1990 C   0  0  2  0  0  3  0  0  0  0  0  0
  188.3860  177.5040  145.5550 C   0  0  2  0  0  3  0  0  0  0  0  0
  186.0210  178.3930  145.7280 C   0  0  0  0  0  0  0  0  0  0  0  0
  182.2600  178.8230  141.9820 C   0  0  0  0  0  3  0  0  0  0  0  0
  189.4900  177.6150  142.0710 C   0  0  0  0  0  0  0  0  0  0  0  0
  183.4320  178.6460  141.3790 C   0  0  0  0  0  3  0  0  0  0  0  0
  188.2910  178.0020  140.0010 C   0  0  0  0  0  3  0  0  0  0  0  0
  189.5680  177.7720  139.2320 C   0  0  2  0  0  3  0  0  0  0  0  0
  187.1800  177.5730  147.7710 C   0  0  0  0  0  2  0  0  0  0  0  0
  187.2400  177.9630  146.3600 N   0  0  0  0  0  0  0  0  0  0  0  0
  185.0590  178.7860  146.4440 O   0  0  0  0  0  0  0  0  0  0  0  0
  187.0340  178.2050  142.1010 C   0  0  0  0  0  0  0  0  0  0  0  0
  185.8420  178.3420  141.4660 N   0  0  0  0  0  0  0  0  0  0  0  0
  181.0490  179.0810  143.9830 O   0  0  0  0  0  0  0  0  0  0  0  0
  185.9090  178.3870  144.2440 C   0  0  0  0  0  0  0  0  0  0  0  0
  183.3660  178.6280  144.3120 C   0  0  0  0  0  2  0  0  0  0  0  0
  189.3100  177.0300  137.9280 C   0  0  0  0  0  2  0  0  0  0  0  0
  190.5640  176.7500  137.2290 N   0  0  0  0  0  2  0  0  0  0  0  0
  190.5500  175.3940  136.6780 C   0  0  1  0  0  3  0  0  0  0  0  0
  191.7110  175.1690  135.7210 C   0  0  0  0  0  1  0  0  0  0  0  0
  190.5610  174.4380  137.6970 O   0  0  0  0  0  1  0  0  0  0  0  0
  1 10  2  0  0  0  0
  2 12  1  0  0  0  0
  2 26  1  0  0  0  0
  3  4  1  0  0  0  0
  5 26  2  0  0  0  0
  5 27  1  0  0  0  0
  6  5  1  0  0  0  0
  7 16  1  0  0  0  0
  7 23  1  0  0  0  0
  9 25  2  0  0  0  0
  9 27  1  0  0  0  0
 10 16  1  0  0  0  0
 11  3  1  0  0  0  0
 12  8  1  6  0  0  0
 12 13  1  0  0  0  0
 13 11  1  1  0  0  0
 13 21  1  0  0  0  0
 14 21  1  0  0  0  0
 14 22  2  0  0  0  0
 15  9  1  0  0  0  0
 16  8  2  0  0  0  0
 17 15  2  0  0  0  0
 17  6  1  0  0  0  0
 18  7  2  0  0  0  0
 19 28  1  6  0  0  0
 19 18  1  0  0  0  0
 19  1  1  0  0  0  0
 20  4  1  0  0  0  0
 21 20  1  0  0  0  0
 23  2  2  0  0  0  0
 24 23  1  0  0  0  0
 24  6  2  0  0  0  0
 26 14  1  0  0  0  0
 29 28  1  0  0  0  0
 30 31  1  6  0  0  0
 30 29  1  0  0  0  0
 30 32  1  0  0  0  0
M  END
>  <MODEL>
3

>  <REMARK>
 VINA RESULT:     -10.2      1.945      2.493
  Name = 
  3 active torsions:
  status: ('A' for Active; 'I' for Inactive)
    1  A    between atoms: C_1  and  N_10
    2  A    between atoms: N_10  and  C_19
    3  A    between atoms: C_19  and  C_24
                            x       y       z     vdW  Elec       q    Type
                         _______ _______ _______ _____ _____    ______ ____

>  <TORSDO>
F 3

$$$$
=
 OpenBabel10262421273D

 32 37  0  0  1  0  0  0  0  0999 V2000
  182.4420  178.8160  141.7340 C   0  0  0  0  0  3  0  0  0  0  0  0
  187.3330  178.1110  142.9160 C   0  0  0  0  0  0  0  0  0  0  0  0
  189.2330  177.3970  138.3200 C   0  0  0  0  0  2  0  0  0  0  0  0
  190.6090  177.5110  138.9570 C   0  0  0  0  0  2  0  0  0  0  0  0
  188.6400  177.5610  144.8970 C   0  0  0  0  0  0  0  0  0  0  0  0
  187.4770  177.7590  145.6730 C   0  0  0  0  0  0  0  0  0  0  0  0
  184.9210  178.6360  143.1190 C   0  0  0  0  0  0  0  0  0  0  0  0
  185.8760  178.4270  140.9190 N   0  0  0  0  0  0  0  0  0  0  0  0
  189.8690  177.0470  147.0550 C   0  0  0  0  0  0  0  0  0  0  0  0
  183.5180  178.5780  141.0440 N   0  0  0  0  0  0  0  0  0  0  0  0
  188.2200  178.1500  139.1700 C   0  0  0  0  0  2  0  0  0  0  0  0
  187.2500  178.4570  141.4420 C   0  0  2  0  0  3  0  0  0  0  0  0
  188.1630  177.5740  140.5880 C   0  0  2  0  0  3  0  0  0  0  0  0
  189.7250  177.5680  142.5820 C   0  0  0  0  0  0  0  0  0  0  0  0
  188.6140  177.2650  147.7810 C   0  0  0  0  0  3  0  0  0  0  0  0
  184.8140  178.5860  141.6520 C   0  0  0  0  0  0  0  0  0  0  0  0
  187.4990  177.5920  147.1340 C   0  0  0  0  0  3  0  0  0  0  0  0
  183.8220  178.8550  143.8470 C   0  0  0  0  0  3  0  0  0  0  0  0
  182.5040  179.1940  143.1950 C   0  0  2  0  0  3  0  0  0  0  0  0
  190.5800  176.8880  140.3470 C   0  0  0  0  0  2  0  0  0  0  0  0
  189.5190  177.4870  141.1590 N   0  0  0  0  0  0  0  0  0  0  0  0
  190.8980  177.4960  143.0400 O   0  0  0  0  0  0  0  0  0  0  0  0
  186.2100  178.2950  143.7370 C   0  0  0  0  0  0  0  0  0  0  0  0
  186.3100  178.1150  145.0790 N   0  0  0  0  0  0  0  0  0  0  0  0
  190.9160  176.7860  147.7010 O   0  0  0  0  0  0  0  0  0  0  0  0
  188.5640  177.7530  143.4930 C   0  0  0  0  0  0  0  0  0  0  0  0
  189.9240  177.1020  145.5560 C   0  0  0  0  0  2  0  0  0  0  0  0
  181.3310  178.6170  143.9760 C   0  0  0  0  0  2  0  0  0  0  0  0
  180.2570  178.2000  143.0730 N   0  0  0  0  0  2  0  0  0  0  0  0
  179.0860  179.0610  143.2410 C   0  0  1  0  0  3  0  0  0  0  0  0
  178.9310  179.5170  144.6830 C   0  0  0  0  0  1  0  0  0  0  0  0
  179.1450  180.1620  142.3820 O   0  0  0  0  0  1  0  0  0  0  0  0
  1 19  1  0  0  0  0
  2 26  2  0  0  0  0
  2 23  1  0  0  0  0
  3  4  1  0  0  0  0
  3 11  1  0  0  0  0
  4 20  1  0  0  0  0
  5 27  1  0  0  0  0
  5  6  2  0  0  0  0
  6 17  1  0  0  0  0
  7 23  1  0  0  0  0
  7 18  2  0  0  0  0
  8 16  2  0  0  0  0
  9 25  2  0  0  0  0
  9 15  1  0  0  0  0
 10 16  1  0  0  0  0
 10  1  2  0  0  0  0
 12  8  1  6  0  0  0
 12  2  1  0  0  0  0
 13 11  1  6  0  0  0
 13 21  1  0  0  0  0
 13 12  1  0  0  0  0
 14 22  2  0  0  0  0
 14 26  1  0  0  0  0
 16  7  1  0  0  0  0
 17 15  2  0  0  0  0
 19 18  1  0  0  0  0
 19 28  1  1  0  0  0
 20 21  1  0  0  0  0
 21 14  1  0  0  0  0
 23 24  2  0  0  0  0
 24  6  1  0  0  0  0
 26  5  1  0  0  0  0
 27  9  1  0  0  0  0
 29 30  1  0  0  0  0
 29 28  1  0  0  0  0
 30 31  1  1  0  0  0
 32 30  1  0  0  0  0
M  END
>  <MODEL>
4

>  <REMARK>
 VINA RESULT:     -10.2      2.552      6.913
  Name = 
  3 active torsions:
  status: ('A' for Active; 'I' for Inactive)
    1  A    between atoms: C_1  and  N_10
    2  A    between atoms: N_10  and  C_19
    3  A    between atoms: C_19  and  C_24
                            x       y       z     vdW  Elec       q    Type
                         _______ _______ _______ _____ _____    ______ ____

>  <TORSDO>
F 3

$$$$
=
 OpenBabel10262421273D

 32 37  0  0  1  0  0  0  0  0999 V2000
  187.0130  177.5140  147.3320 C   0  0  0  0  0  3  0  0  0  0  0  0
  186.7810  178.2310  142.3080 C   0  0  0  0  0  0  0  0  0  0  0  0
  181.8110  178.6930  141.7340 C   0  0  0  0  0  2  0  0  0  0  0  0
  182.0970  179.1540  140.3140 C   0  0  0  0  0  2  0  0  0  0  0  0
  188.2250  177.8840  140.3770 C   0  0  0  0  0  0  0  0  0  0  0  0
  189.2880  177.6180  141.2670 C   0  0  0  0  0  0  0  0  0  0  0  0
  187.6760  177.9520  144.6010 C   0  0  0  0  0  0  0  0  0  0  0  0
  185.3120  178.3120  144.3200 N   0  0  0  0  0  0  0  0  0  0  0  0
  189.8630  177.5270  138.4740 C   0  0  0  0  0  0  0  0  0  0  0  0
  186.0450  177.7060  146.4860 N   0  0  0  0  0  0  0  0  0  0  0  0
  183.0180  178.9870  142.6120 C   0  0  0  0  0  2  0  0  0  0  0  0
  185.4740  178.7060  142.9120 C   0  0  2  0  0  3  0  0  0  0  0  0
  184.2610  178.2580  142.0930 C   0  0  2  0  0  3  0  0  0  0  0  0
  185.7630  178.5040  140.0680 C   0  0  0  0  0  0  0  0  0  0  0  0
  190.9060  177.2560  139.4690 C   0  0  0  0  0  3  0  0  0  0  0  0
  186.3020  178.0450  145.1190 C   0  0  0  0  0  0  0  0  0  0  0  0
  190.6340  177.2940  140.7700 C   0  0  0  0  0  3  0  0  0  0  0  0
  188.6810  177.7300  145.4520 C   0  0  0  0  0  3  0  0  0  0  0  0
  188.4580  177.7160  146.9440 C   0  0  2  0  0  3  0  0  0  0  0  0
  183.2960  178.3930  139.7640 C   0  0  0  0  0  2  0  0  0  0  0  0
  184.4500  178.5310  140.6560 N   0  0  0  0  0  0  0  0  0  0  0  0
  185.8930  178.7460  138.8370 O   0  0  0  0  0  0  0  0  0  0  0  0
  187.8740  177.9580  143.1440 C   0  0  0  0  0  0  0  0  0  0  0  0
  189.0850  177.6600  142.6080 N   0  0  0  0  0  0  0  0  0  0  0  0
  190.1640  177.5310  137.2530 O   0  0  0  0  0  0  0  0  0  0  0  0
  186.9520  178.2080  140.9130 C   0  0  0  0  0  0  0  0  0  0  0  0
  188.4400  177.7730  138.8820 C   0  0  0  0  0  2  0  0  0  0  0  0
  189.3730  176.7150  147.6370 C   0  0  0  0  0  2  0  0  0  0  0  0
  190.7670  177.1540  147.5770 N   0  0  0  0  0  2  0  0  0  0  0  0
  191.6420  176.0280  147.2450 C   0  0  1  0  0  3  0  0  0  0  0  0
  191.9520  175.9830  145.7580 C   0  0  0  0  0  1  0  0  0  0  0  0
  192.8230  176.0730  147.9920 O   0  0  0  0  0  1  0  0  0  0  0  0
  2 23  1  0  0  0  0
  3 11  1  0  0  0  0
  4  3  1  0  0  0  0
  5 26  1  0  0  0  0
  5  6  2  0  0  0  0
  6 24  1  0  0  0  0
  7 16  1  0  0  0  0
  7 18  2  0  0  0  0
  8 16  2  0  0  0  0
  9 27  1  0  0  0  0
  9 15  1  0  0  0  0
 10  1  2  0  0  0  0
 12  2  1  6  0  0  0
 12  8  1  0  0  0  0
 13 11  1  1  0  0  0
 13 12  1  0  0  0  0
 14 21  1  0  0  0  0
 14 26  1  0  0  0  0
 15 17  2  0  0  0  0
 16 10  1  0  0  0  0
 17  6  1  0  0  0  0
 18 19  1  0  0  0  0
 19  1  1  0  0  0  0
 19 28  1  1  0  0  0
 20  4  1  0  0  0  0
 20 21  1  0  0  0  0
 21 13  1  0  0  0  0
 22 14  2  0  0  0  0
 23  7  1  0  0  0  0
 24 23  2  0  0  0  0
 25  9  2  0  0  0  0
 26  2  2  0  0  0  0
 27  5  1  0  0  0  0
 29 28  1  0  0  0  0
 30 31  1  6  0  0  0
 30 29  1  0  0  0  0
 30 32  1  0  0  0  0
M  END
>  <MODEL>
5

>  <REMARK>
 VINA RESULT:     -10.0      2.547      8.159
  Name = 
  3 active torsions:
  status: ('A' for Active; 'I' for Inactive)
    1  A    between atoms: C_1  and  N_10
    2  A    between atoms: N_10  and  C_19
    3  A    between atoms: C_19  and  C_24
                            x       y       z     vdW  Elec       q    Type
                         _______ _______ _______ _____ _____    ______ ____

>  <TORSDO>
F 3

$$$$
=
 OpenBabel10262421273D

 32 37  0  0  1  0  0  0  0  0999 V2000
  190.5120  177.0730  139.3190 C   0  0  0  0  0  3  0  0  0  0  0  0
  187.1210  178.1440  142.9470 C   0  0  0  0  0  0  0  0  0  0  0  0
  189.8020  176.9220  147.0170 C   0  0  0  0  0  2  0  0  0  0  0  0
  188.7100  177.5870  147.8390 C   0  0  0  0  0  2  0  0  0  0  0  0
  184.7160  178.5010  143.1090 C   0  0  0  0  0  0  0  0  0  0  0  0
  184.6650  178.5320  141.6980 C   0  0  0  0  0  0  0  0  0  0  0  0
  188.2100  177.9710  140.7290 C   0  0  0  0  0  0  0  0  0  0  0  0
  189.5210  177.5220  142.6980 N   0  0  0  0  0  0  0  0  0  0  0  0
  182.2140  178.9120  143.1080 C   0  0  0  0  0  0  0  0  0  0  0  0
  190.5170  177.0010  140.6170 N   0  0  0  0  0  0  0  0  0  0  0  0
  189.8220  177.5280  145.6210 C   0  0  0  0  0  2  0  0  0  0  0  0
  188.4930  178.0810  143.5890 C   0  0  2  0  0  3  0  0  0  0  0  0
  188.4750  177.3240  144.9200 C   0  0  2  0  0  3  0  0  0  0  0  0
  186.1420  178.2630  145.2180 C   0  0  0  0  0  0  0  0  0  0  0  0
  182.2510  178.9220  141.6420 C   0  0  0  0  0  3  0  0  0  0  0  0
  189.4460  177.5370  141.4010 C   0  0  0  0  0  0  0  0  0  0  0  0
  183.3930  178.7390  140.9870 C   0  0  0  0  0  3  0  0  0  0  0  0
  188.1770  178.0290  139.3950 C   0  0  0  0  0  3  0  0  0  0  0  0
  189.4180  177.7960  138.5690 C   0  0  2  0  0  3  0  0  0  0  0  0
  187.3580  177.3400  147.1830 C   0  0  0  0  0  2  0  0  0  0  0  0
  187.3740  177.7800  145.7860 N   0  0  0  0  0  0  0  0  0  0  0  0
  185.2190  178.6520  145.9860 O   0  0  0  0  0  0  0  0  0  0  0  0
  187.0090  178.1840  141.5490 C   0  0  0  0  0  0  0  0  0  0  0  0
  185.7970  178.3740  140.9680 N   0  0  0  0  0  0  0  0  0  0  0  0
  181.1260  179.1350  143.6980 O   0  0  0  0  0  0  0  0  0  0  0  0
  185.9730  178.3140  143.7410 C   0  0  0  0  0  0  0  0  0  0  0  0
  183.4420  178.6140  143.9180 C   0  0  0  0  0  2  0  0  0  0  0  0
  189.0900  177.1090  137.2500 C   0  0  0  0  0  2  0  0  0  0  0  0
  188.3130  175.8900  137.4750 N   0  0  0  0  0  2  0  0  0  0  0  0
  187.1640  175.8430  136.5700 C   0  0  1  0  0  3  0  0  0  0  0  0
  186.8870  177.2030  135.9490 C   0  0  0  0  0  1  0  0  0  0  0  0
  187.3460  174.8770  135.5780 O   0  0  0  0  0  1  0  0  0  0  0  0
  1 10  2  0  0  0  0
  2 12  1  0  0  0  0
  2 26  1  0  0  0  0
  3  4  1  0  0  0  0
  5 26  2  0  0  0  0
  5 27  1  0  0  0  0
  6  5  1  0  0  0  0
  7 16  1  0  0  0  0
  7 23  1  0  0  0  0
  9 25  2  0  0  0  0
  9 27  1  0  0  0  0
 10 16  1  0  0  0  0
 11  3  1  0  0  0  0
 12  8  1  6  0  0  0
 12 13  1  0  0  0  0
 13 11  1  1  0  0  0
 13 21  1  0  0  0  0
 14 21  1  0  0  0  0
 14 22  2  0  0  0  0
 15  9  1  0  0  0  0
 16  8  2  0  0  0  0
 17 15  2  0  0  0  0
 17  6  1  0  0  0  0
 18  7  2  0  0  0  0
 19 28  1  6  0  0  0
 19  1  1  0  0  0  0
 19 18  1  0  0  0  0
 20  4  1  0  0  0  0
 21 20  1  0  0  0  0
 23  2  2  0  0  0  0
 24 23  1  0  0  0  0
 24  6  2  0  0  0  0
 26 14  1  0  0  0  0
 28 29  1  0  0  0  0
 30 31  1  6  0  0  0
 30 29  1  0  0  0  0
 32 30  1  0  0  0  0
M  END
>  <MODEL>
6

>  <REMARK>
 VINA RESULT:      -9.8      1.579      1.992
  Name = 
  3 active torsions:
  status: ('A' for Active; 'I' for Inactive)
    1  A    between atoms: C_1  and  N_10
    2  A    between atoms: N_10  and  C_19
    3  A    between atoms: C_19  and  C_24
                            x       y       z     vdW  Elec       q    Type
                         _______ _______ _______ _____ _____    ______ ____

>  <TORSDO>
F 3

$$$$
=
 OpenBabel10262421273D

 32 37  0  0  1  0  0  0  0  0999 V2000
  182.5720  179.0160  143.3510 C   0  0  0  0  0  3  0  0  0  0  0  0
  187.4840  177.7310  143.4970 C   0  0  0  0  0  0  0  0  0  0  0  0
  188.3220  178.0940  148.4370 C   0  0  0  0  0  2  0  0  0  0  0  0
  189.6580  177.4160  148.1810 C   0  0  0  0  0  2  0  0  0  0  0  0
  189.3460  177.5700  141.9330 C   0  0  0  0  0  0  0  0  0  0  0  0
  188.4250  177.7520  140.8780 C   0  0  0  0  0  0  0  0  0  0  0  0
  185.1860  178.1300  142.6640 C   0  0  0  0  0  0  0  0  0  0  0  0
  185.5760  178.1640  145.0400 N   0  0  0  0  0  0  0  0  0  0  0  0
  191.1670  177.3900  140.1770 C   0  0  0  0  0  0  0  0  0  0  0  0
  183.4510  178.8960  144.3010 N   0  0  0  0  0  0  0  0  0  0  0  0
  187.3390  177.7010  147.3440 C   0  0  0  0  0  2  0  0  0  0  0  0
  186.9160  177.5750  144.8940 C   0  0  2  0  0  3  0  0  0  0  0  0
  187.8580  178.1260  145.9670 C   0  0  2  0  0  3  0  0  0  0  0  0
  189.7400  177.3660  144.4510 C   0  0  0  0  0  0  0  0  0  0  0  0
  190.1440  177.5920  139.1460 C   0  0  0  0  0  3  0  0  0  0  0  0
  184.7500  178.3480  144.0530 C   0  0  0  0  0  0  0  0  0  0  0  0
  188.8680  177.7660  139.4750 C   0  0  0  0  0  3  0  0  0  0  0  0
  184.3030  178.2730  141.6730 C   0  0  0  0  0  3  0  0  0  0  0  0
  182.8400  178.5130  141.9530 C   0  0  2  0  0  3  0  0  0  0  0  0
  190.2130  177.8760  146.8400 C   0  0  0  0  0  2  0  0  0  0  0  0
  189.2380  177.6470  145.7710 N   0  0  0  0  0  0  0  0  0  0  0  0
  190.9240  176.9520  144.3160 O   0  0  0  0  0  0  0  0  0  0  0  0
  186.6160  177.9070  142.4090 C   0  0  0  0  0  0  0  0  0  0  0  0
  187.1040  177.9140  141.1420 N   0  0  0  0  0  0  0  0  0  0  0  0
  192.3570  177.1800  139.8310 O   0  0  0  0  0  0  0  0  0  0  0  0
  188.8600  177.5480  143.2660 C   0  0  0  0  0  0  0  0  0  0  0  0
  190.8260  177.4540  141.6380 C   0  0  0  0  0  2  0  0  0  0  0  0
  182.2090  179.4130  140.8990 C   0  0  0  0  0  2  0  0  0  0  0  0
  182.4480  178.8900  139.5540 N   0  0  0  0  0  2  0  0  0  0  0  0
  182.8510  179.9690  138.6510 C   0  0  1  0  0  3  0  0  0  0  0  0
  181.8420  181.1060  138.6550 C   0  0  0  0  0  1  0  0  0  0  0  0
  184.1260  180.4420  138.9720 O   0  0  0  0  0  1  0  0  0  0  0  0
  1 10  2  0  0  0  0
  4  3  1  0  0  0  0
  5 26  2  0  0  0  0
  6 24  2  0  0  0  0
  6  5  1  0  0  0  0
  7 16  1  0  0  0  0
  9 27  1  0  0  0  0
 11  3  1  0  0  0  0
 12  2  1  6  0  0  0
 12  8  1  0  0  0  0
 12 13  1  0  0  0  0
 13 11  1  1  0  0  0
 14 21  1  0  0  0  0
 15 17  2  0  0  0  0
 15  9  1  0  0  0  0
 16 10  1  0  0  0  0
 16  8  2  0  0  0  0
 17  6  1  0  0  0  0
 18 19  1  0  0  0  0
 18  7  2  0  0  0  0
 19 28  1  6  0  0  0
 19  1  1  0  0  0  0
 20  4  1  0  0  0  0
 21 13  1  0  0  0  0
 21 20  1  0  0  0  0
 22 14  2  0  0  0  0
 23  7  1  0  0  0  0
 23  2  2  0  0  0  0
 24 23  1  0  0  0  0
 25  9  2  0  0  0  0
 26  2  1  0  0  0  0
 26 14  1  0  0  0  0
 27  5  1  0  0  0  0
 29 28  1  0  0  0  0
 30 31  1  1  0  0  0
 30 32  1  0  0  0  0
 30 29  1  0  0  0  0
M  END
>  <MODEL>
7

>  <REMARK>
 VINA RESULT:      -9.7      2.558      5.637
  Name = 
  3 active torsions:
  status: ('A' for Active; 'I' for Inactive)
    1  A    between atoms: C_1  and  N_10
    2  A    between atoms: N_10  and  C_19
    3  A    between atoms: C_19  and  C_24
                            x       y       z     vdW  Elec       q    Type
                         _______ _______ _______ _____ _____    ______ ____

>  <TORSDO>
F 3

$$$$
=
 OpenBabel10262421273D

 32 37  0  0  1  0  0  0  0  0999 V2000
  183.0960  178.8310  138.9400 C   0  0  0  0  0  3  0  0  0  0  0  0
  186.9870  178.3040  142.1640 C   0  0  0  0  0  0  0  0  0  0  0  0
  190.6460  177.1590  138.9170 C   0  0  0  0  0  2  0  0  0  0  0  0
  191.6200  177.3520  140.0670 C   0  0  0  0  0  2  0  0  0  0  0  0
  187.3040  177.9680  144.5560 C   0  0  0  0  0  0  0  0  0  0  0  0
  185.9270  178.2290  144.7370 C   0  0  0  0  0  0  0  0  0  0  0  0
  184.7380  178.8190  141.2640 C   0  0  0  0  0  0  0  0  0  0  0  0
  186.5340  178.4030  139.7160 N   0  0  0  0  0  0  0  0  0  0  0  0
  187.4750  177.6850  147.0710 C   0  0  0  0  0  0  0  0  0  0  0  0
  184.3560  178.5380  138.8040 N   0  0  0  0  0  0  0  0  0  0  0  0
  189.3910  177.9810  139.1750 C   0  0  0  0  0  2  0  0  0  0  0  0
  187.5530  178.5010  140.7720 C   0  0  2  0  0  3  0  0  0  0  0  0
  188.7150  177.5480  140.4790 C   0  0  2  0  0  3  0  0  0  0  0  0
  189.2740  177.7590  142.9400 C   0  0  0  0  0  0  0  0  0  0  0  0
  186.0370  177.9600  147.1650 C   0  0  0  0  0  3  0  0  0  0  0  0
  185.2670  178.6220  139.9040 C   0  0  0  0  0  0  0  0  0  0  0  0
  185.3170  178.2080  146.0750 C   0  0  0  0  0  3  0  0  0  0  0  0
  183.4410  179.0960  141.4260 C   0  0  0  0  0  3  0  0  0  0  0  0
  182.5400  179.3530  140.2440 C   0  0  2  0  0  3  0  0  0  0  0  0
  190.9800  176.8700  141.3620 C   0  0  0  0  0  2  0  0  0  0  0  0
  189.6930  177.5340  141.5820 N   0  0  0  0  0  0  0  0  0  0  0  0
  190.1360  177.7460  143.8620 O   0  0  0  0  0  0  0  0  0  0  0  0
  185.6280  178.5550  142.4040 C   0  0  0  0  0  0  0  0  0  0  0  0
  185.1390  178.5100  143.6700 N   0  0  0  0  0  0  0  0  0  0  0  0
  188.1370  177.5020  148.1240 O   0  0  0  0  0  0  0  0  0  0  0  0
  187.8410  178.0190  143.2450 C   0  0  0  0  0  0  0  0  0  0  0  0
  188.1670  177.5920  145.7420 C   0  0  0  0  0  2  0  0  0  0  0  0
  181.1270  178.8430  140.4970 C   0  0  0  0  0  2  0  0  0  0  0  0
  180.9570  178.4490  141.8960 N   0  0  0  0  0  2  0  0  0  0  0  0
  179.8720  179.2130  142.5130 C   0  0  1  0  0  3  0  0  0  0  0  0
  179.6100  178.7570  143.9390 C   0  0  0  0  0  1  0  0  0  0  0  0
  180.1410  180.5840  142.4760 O   0  0  0  0  0  1  0  0  0  0  0  0
  1 19  1  0  0  0  0
  2 23  2  0  0  0  0
  2 26  1  0  0  0  0
  3 11  1  0  0  0  0
  3  4  1  0  0  0  0
  4 20  1  0  0  0  0
  5  6  1  0  0  0  0
  5 27  1  0  0  0  0
  6 17  1  0  0  0  0
  7 18  2  0  0  0  0
  7 23  1  0  0  0  0
  8 16  2  0  0  0  0
  9 15  1  0  0  0  0
  9 25  2  0  0  0  0
 10  1  2  0  0  0  0
 10 16  1  0  0  0  0
 12  8  1  6  0  0  0
 12  2  1  0  0  0  0
 13 11  1  6  0  0  0
 13 12  1  0  0  0  0
 13 21  1  0  0  0  0
 14 26  1  0  0  0  0
 14 22  2  0  0  0  0
 16  7  1  0  0  0  0
 17 15  2  0  0  0  0
 19 28  1  1  0  0  0
 19 18  1  0  0  0  0
 20 21  1  0  0  0  0
 21 14  1  0  0  0  0
 23 24  1  0  0  0  0
 24  6  2  0  0  0  0
 26  5  2  0  0  0  0
 27  9  1  0  0  0  0
 28 29  1  0  0  0  0
 29 30  1  0  0  0  0
 30 31  1  1  0  0  0
 32 30  1  0  0  0  0
M  END
>  <MODEL>
8

>  <REMARK>
 VINA RESULT:      -9.7      2.717      5.963
  Name = 
  3 active torsions:
  status: ('A' for Active; 'I' for Inactive)
    1  A    between atoms: C_1  and  N_10
    2  A    between atoms: N_10  and  C_19
    3  A    between atoms: C_19  and  C_24
                            x       y       z     vdW  Elec       q    Type
                         _______ _______ _______ _____ _____    ______ ____

>  <TORSDO>
F 3

$$$$
=
 OpenBabel10262421273D

 32 37  0  0  1  0  0  0  0  0999 V2000
  188.1320  177.9770  138.1550 C   0  0  0  0  0  3  0  0  0  0  0  0
  187.8380  177.5080  143.2050 C   0  0  0  0  0  0  0  0  0  0  0  0
  183.3080  179.5320  143.9950 C   0  0  0  0  0  2  0  0  0  0  0  0
  183.4060  179.0030  145.4160 C   0  0  0  0  0  2  0  0  0  0  0  0
  189.3650  177.1240  145.0640 C   0  0  0  0  0  0  0  0  0  0  0  0
  190.3760  176.8310  144.1230 C   0  0  0  0  0  0  0  0  0  0  0  0
  188.6370  177.2960  140.8700 C   0  0  0  0  0  0  0  0  0  0  0  0
  186.4150  178.1360  141.2580 N   0  0  0  0  0  0  0  0  0  0  0  0
  191.0650  176.6540  146.8860 C   0  0  0  0  0  0  0  0  0  0  0  0
  187.2370  178.2890  139.0450 N   0  0  0  0  0  0  0  0  0  0  0  0
  184.1720  178.6790  143.0780 C   0  0  0  0  0  2  0  0  0  0  0  0
  186.4360  177.7250  142.6700 C   0  0  2  0  0  3  0  0  0  0  0  0
  185.6380  178.7140  143.5230 C   0  0  2  0  0  3  0  0  0  0  0  0
  186.9320  177.7860  145.4920 C   0  0  0  0  0  0  0  0  0  0  0  0
  192.0550  176.3740  145.8410 C   0  0  0  0  0  3  0  0  0  0  0  0
  187.3660  177.8800  140.4110 C   0  0  0  0  0  0  0  0  0  0  0  0
  191.7330  176.4620  144.5540 C   0  0  0  0  0  3  0  0  0  0  0  0
  189.5780  176.9920  139.9720 C   0  0  0  0  0  3  0  0  0  0  0  0
  189.3140  177.1000  138.4910 C   0  0  2  0  0  3  0  0  0  0  0  0
  184.8500  179.0880  145.8920 C   0  0  0  0  0  2  0  0  0  0  0  0
  185.7430  178.3970  144.9590 N   0  0  0  0  0  0  0  0  0  0  0  0
  186.9900  177.5210  146.7240 O   0  0  0  0  0  0  0  0  0  0  0  0
  188.8820  177.2070  142.3170 C   0  0  0  0  0  0  0  0  0  0  0  0
  190.1100  176.8810  142.7940 N   0  0  0  0  0  0  0  0  0  0  0  0
  191.3880  176.5150  148.0930 O   0  0  0  0  0  0  0  0  0  0  0  0
  188.0690  177.4570  144.5910 C   0  0  0  0  0  0  0  0  0  0  0  0
  189.6830  177.1290  146.5450 C   0  0  0  0  0  2  0  0  0  0  0  0
  190.5630  177.5220  137.7290 C   0  0  0  0  0  2  0  0  0  0  0  0
  190.9540  176.5000  136.7580 N   0  0  0  0  0  2  0  0  0  0  0  0
  191.9920  175.6340  137.3190 C   0  0  1  0  0  3  0  0  0  0  0  0
  192.9080  176.3990  138.2600 C   0  0  0  0  0  1  0  0  0  0  0  0
  191.4290  174.5320  137.9680 O   0  0  0  0  0  1  0  0  0  0  0  0
  1 19  1  0  0  0  0
  1 10  2  0  0  0  0
  2 26  1  0  0  0  0
  3  4  1  0  0  0  0
  4 20  1  0  0  0  0
  5 27  1  0  0  0  0
  6 17  1  0  0  0  0
  6  5  1  0  0  0  0
  7 23  1  0  0  0  0
  9 25  2  0  0  0  0
 10 16  1  0  0  0  0
 11  3  1  0  0  0  0
 12  8  1  6  0  0  0
 12  2  1  0  0  0  0
 12 13  1  0  0  0  0
 13 11  1  6  0  0  0
 13 21  1  0  0  0  0
 14 22  2  0  0  0  0
 15  9  1  0  0  0  0
 16  7  1  0  0  0  0
 16  8  2  0  0  0  0
 17 15  2  0  0  0  0
 18  7  2  0  0  0  0
 19 28  1  6  0  0  0
 19 18  1  0  0  0  0
 21 14  1  0  0  0  0
 21 20  1  0  0  0  0
 23 24  1  0  0  0  0
 23  2  2  0  0  0  0
 24  6  2  0  0  0  0
 26  5  2  0  0  0  0
 26 14  1  0  0  0  0
 27  9  1  0  0  0  0
 29 30  1  0  0  0  0
 29 28  1  0  0  0  0
 30 32  1  0  0  0  0
 30 31  1  1  0  0  0
M  END
>  <MODEL>
9

>  <REMARK>
 VINA RESULT:      -9.6      1.938      5.245
  Name = 
  3 active torsions:
  status: ('A' for Active; 'I' for Inactive)
    1  A    between atoms: C_1  and  N_10
    2  A    between atoms: N_10  and  C_19
    3  A    between atoms: C_19  and  C_24
                            x       y       z     vdW  Elec       q    Type
                         _______ _______ _______ _____ _____    ______ ____

>  <TORSDO>
F 3

$$$$
