=
 OpenBabel10262420263D

 55 60  0  0  1  0  0  0  0  0999 V2000
  190.9740  177.1580  138.9440 C   0  0  1  0  0  3  0  0  0  0  0  0
  192.2860  176.3840  138.8950 C   0  0  0  0  0  2  0  0  0  0  0  0
  193.0100  176.6390  137.6620 N   0  0  0  0  0  2  0  0  0  0  0  0
  192.5300  174.0400  137.5640 O   0  0  0  0  0  0  0  0  0  0  0  0
  193.2200  175.1420  136.8040 S   0  0  0  0  0  0  0  0  0  0  0  0
  192.5770  175.2730  135.4500 O   0  0  0  0  0  0  0  0  0  0  0  0
  197.6570  172.6800  137.5130 O   0  0  0  0  0  1  0  0  0  0  0  0
  194.9550  174.7300  136.5850 C   0  0  1  0  0  0  0  0  0  0  0  0
  195.0910  173.9200  135.4350 O   0  0  0  0  0  0  0  0  0  0  0  0
  196.1720  173.0400  135.6690 C   0  0  2  0  0  3  0  0  0  0  0  0
  195.7010  171.7350  136.2940 C   0  0  1  0  0  0  0  0  0  0  0  0
  196.3080  172.8230  137.1700 C   0  0  1  0  0  0  0  0  0  0  0  0
  195.6960  175.9060  136.4020 O   0  0  0  0  0  1  0  0  0  0  0  0
  194.3070  171.5600  136.3730 O   0  0  0  0  0  1  0  0  0  0  0  0
  195.4630  173.9230  137.7820 C   0  0  1  0  0  3  0  0  0  0  0  0
  196.1510  174.7460  138.8490 C   0  0  0  0  0  0  0  0  0  0  0  0
  195.4980  175.2240  139.8160 O   0  0  0  0  0  1  0  0  0  0  0  0
  197.5350  174.8630  138.8210 O   0  0  0  0  0  0  0  0  0  0  0  0
  196.5360  170.6340  135.9910 O   0  0  0  0  0  0  0  0  0  0  0  0
  196.3350  169.6280  136.9420 C   0  0  0  0  0  1  0  0  0  0  0  0
  189.8850  176.4060  138.1540 C   0  0  0  0  0  2  0  0  0  0  0  0
  188.9250  177.3150  137.5340 N   0  0  0  0  0  2  0  0  0  0  0  0
  186.6810  178.9590  137.1940 O   0  0  0  0  0  0  0  0  0  0  0  0
  185.4930  177.9390  138.9270 N   0  0  0  0  0  2  0  0  0  0  0  0
  187.7810  177.2420  138.3360 N   0  0  0  0  0  2  0  0  0  0  0  0
  186.6560  178.1010  138.1140 C   0  0  0  0  0  0  0  0  0  0  0  0
  184.7030  179.0620  139.4100 C   0  0  2  0  0  3  0  0  0  0  0  0
  183.0640  178.6020  142.8000 N   0  0  0  0  0  0  0  0  0  0  0  0
  186.3250  178.9490  144.1500 O   0  0  0  0  0  0  0  0  0  0  0  0
  183.2340  178.7390  141.4530 C   0  0  0  0  0  3  0  0  0  0  0  0
  185.6270  179.0610  141.7670 C   0  0  0  0  0  0  0  0  0  0  0  0
  184.1440  178.6760  143.6190 C   0  0  0  0  0  0  0  0  0  0  0  0
  186.8830  179.2790  141.2940 F   0  0  0  0  0  0  0  0  0  0  0  0
  184.1700  178.5970  145.0960 C   0  0  0  0  0  2  0  0  0  0  0  0
  185.6770  178.7580  145.4090 C   0  0  1  0  0  3  0  0  0  0  0  0
  184.5210  178.9670  140.9000 C   0  0  0  0  0  0  0  0  0  0  0  0
  185.3960  178.9020  143.1320 C   0  0  0  0  0  0  0  0  0  0  0  0
  186.2280  177.5140  146.0970 C   0  0  0  0  0  2  0  0  0  0  0  0
  187.0530  177.8880  147.2810 C   0  0  0  0  0  0  0  0  0  0  0  0
  186.8570  178.9880  147.8600 O   0  0  0  0  0  0  0  0  0  0  0  0
  188.0770  177.0150  147.7470 N   0  0  0  0  0  1  0  0  0  0  0  0
  182.7450  180.4350  138.7140 C   0  0  0  0  0  3  0  0  0  0  0  0
  181.4800  180.5700  138.1340 C   0  0  0  0  0  3  0  0  0  0  0  0
  182.7790  178.0930  138.0770 C   0  0  0  0  0  3  0  0  0  0  0  0
  181.5100  178.2320  137.4990 C   0  0  0  0  0  3  0  0  0  0  0  0
  180.8560  179.4690  137.5380 C   0  0  0  0  0  3  0  0  0  0  0  0
  183.3980  179.1970  138.6910 C   0  0  0  0  0  0  0  0  0  0  0  0
  190.5910  177.4010  140.4060 C   0  0  0  0  0  2  0  0  0  0  0  0
  191.8030  177.5400  141.3290 C   0  0  0  0  0  2  0  0  0  0  0  0
  190.4970  177.2830  145.3870 C   0  0  0  0  0  3  0  0  0  0  0  0
  191.3810  177.4780  142.7620 C   0  0  0  0  0  0  0  0  0  0  0  0
  191.8550  176.4950  143.5830 N   0  0  0  0  0  0  0  0  0  0  0  0
  190.0210  178.3080  144.5680 C   0  0  0  0  0  3  0  0  0  0  0  0
  191.4390  176.3800  144.8710 C   0  0  0  0  0  3  0  0  0  0  0  0
  190.4670  178.4120  143.2520 C   0  0  0  0  0  3  0  0  0  0  0  0
  1 21  1  1  0  0  0
  1 48  1  0  0  0  0
  2  1  1  0  0  0  0
  3  2  1  0  0  0  0
  5  4  2  0  0  0  0
  5  3  1  0  0  0  0
  6  5  2  0  0  0  0
  8 13  1  6  0  0  0
  8  5  1  0  0  0  0
  8 15  1  0  0  0  0
  9  8  1  0  0  0  0
 10  9  1  1  0  0  0
 10 11  1  0  0  0  0
 10 12  1  0  0  0  0
 11 14  1  1  0  0  0
 11 12  1  0  0  0  0
 12  7  1  1  0  0  0
 12 15  1  0  0  0  0
 15 16  1  1  0  0  0
 16 17  1  0  0  0  0
 18 16  2  0  0  0  0
 19 11  1  0  0  0  0
 19 20  1  0  0  0  0
 22 21  1  0  0  0  0
 22 25  1  0  0  0  0
 23 26  2  0  0  0  0
 26 25  1  0  0  0  0
 26 24  1  0  0  0  0
 27 24  1  6  0  0  0
 27 36  1  0  0  0  0
 28 32  1  0  0  0  0
 29 35  1  0  0  0  0
 30 28  2  0  0  0  0
 31 37  1  0  0  0  0
 32 34  1  0  0  0  0
 33 31  1  0  0  0  0
 34 35  1  0  0  0  0
 35 38  1  6  0  0  0
 36 30  1  0  0  0  0
 36 31  2  0  0  0  0
 37 32  2  0  0  0  0
 37 29  1  0  0  0  0
 38 39  1  0  0  0  0
 39 41  1  0  0  0  0
 39 40  2  0  0  0  0
 43 42  2  0  0  0  0
 44 47  2  0  0  0  0
 45 46  2  0  0  0  0
 45 44  1  0  0  0  0
 46 43  1  0  0  0  0
 47 42  1  0  0  0  0
 47 27  1  0  0  0  0
 48 49  1  0  0  0  0
 49 51  1  0  0  0  0
 51 55  2  0  0  0  0
 51 52  1  0  0  0  0
 52 54  2  0  0  0  0
 53 50  2  0  0  0  0
 54 50  1  0  0  0  0
 55 53  1  0  0  0  0
M  END
>  <MODEL>
1

>  <REMARK>
 VINA RESULT:      -8.0      0.000      0.000
  Name = 
  17 active torsions:
  status: ('A' for Active; 'I' for Inactive)
    1  A    between atoms: C_1  and  C_53
    2  A    between atoms: N_4  and  C_35
    3  A    between atoms: N_4  and  N_37
    4  A    between atoms: C_6  and  S_20
    5  A    between atoms: C_8  and  N_22
    6  A    between atoms: C_8  and  C_43
    7  A    between atoms: C_10  and  C_32
    8  A    between atoms: O_11  and  C_29
    9  A    between atoms: N_19  and  C_45
   10  A    between atoms: S_20  and  N_22
   11  A    between atoms: C_26  and  C_45
   12  A    between atoms: C_27  and  C_51
   13  A    between atoms: C_32  and  C_48
   14  A    between atoms: C_35  and  C_43
   15  A    between atoms: C_43  and  C_54
   16  A    between atoms: C_45  and  C_49
   17  A    between atoms: C_51  and  C_54
                            x       y       z     vdW  Elec       q    Type
                         _______ _______ _______ _____ _____    ______ ____

>  <TORSDO>
F 17

$$$$
=
 OpenBabel10262420263D

 55 60  0  0  1  0  0  0  0  0999 V2000
  186.2340  177.9760  143.0140 C   0  0  1  0  0  3  0  0  0  0  0  0
  185.3470  178.7400  142.0380 C   0  0  0  0  0  2  0  0  0  0  0  0
  184.3430  177.8750  141.4420 N   0  0  0  0  0  2  0  0  0  0  0  0
  182.3460  179.5180  140.8860 O   0  0  0  0  0  0  0  0  0  0  0  0
  183.4720  178.7640  140.2290 S   0  0  0  0  0  0  0  0  0  0  0  0
  184.4120  179.7530  139.5950 O   0  0  0  0  0  0  0  0  0  0  0  0
  180.0390  176.7460  137.0040 O   0  0  0  0  0  1  0  0  0  0  0  0
  182.8130  177.6880  138.9500 C   0  0  1  0  0  0  0  0  0  0  0  0
  183.1780  178.2040  137.6850 O   0  0  0  0  0  0  0  0  0  0  0  0
  182.1380  177.8780  136.7850 C   0  0  2  0  0  3  0  0  0  0  0  0
  181.0940  178.9840  136.7180 C   0  0  1  0  0  0  0  0  0  0  0  0
  180.8380  177.7470  137.5680 C   0  0  1  0  0  0  0  0  0  0  0  0
  183.3580  176.4040  139.0900 O   0  0  0  0  0  1  0  0  0  0  0  0
  181.4130  180.1710  137.4040 O   0  0  0  0  0  1  0  0  0  0  0  0
  181.2830  177.6630  139.0150 C   0  0  1  0  0  3  0  0  0  0  0  0
  180.7070  176.5060  139.8000 C   0  0  0  0  0  0  0  0  0  0  0  0
  181.0620  175.3200  139.5570 O   0  0  0  0  0  0  0  0  0  0  0  0
  179.8770  176.7720  140.8820 O   0  0  0  0  0  1  0  0  0  0  0  0
  180.4190  179.0440  135.4760 O   0  0  0  0  0  0  0  0  0  0  0  0
  180.9050  180.1310  134.7410 C   0  0  0  0  0  1  0  0  0  0  0  0
  187.7090  178.0710  142.5760 C   0  0  0  0  0  2  0  0  0  0  0  0
  187.8490  178.5740  141.2120 N   0  0  0  0  0  2  0  0  0  0  0  0
  188.9080  178.9700  138.6480 O   0  0  0  0  0  0  0  0  0  0  0  0
  190.0960  176.9590  138.6740 N   0  0  0  0  0  2  0  0  0  0  0  0
  188.6800  177.6540  140.5660 N   0  0  0  0  0  2  0  0  0  0  0  0
  189.2030  177.9090  139.2570 C   0  0  0  0  0  0  0  0  0  0  0  0
  190.0670  176.6110  137.2600 C   0  0  2  0  0  3  0  0  0  0  0  0
  188.7310  173.0770  136.9210 N   0  0  0  0  0  0  0  0  0  0  0  0
  185.5620  174.5880  136.4120 O   0  0  0  0  0  0  0  0  0  0  0  0
  189.5890  174.1260  137.0820 C   0  0  0  0  0  3  0  0  0  0  0  0
  187.7530  175.6990  136.7890 C   0  0  0  0  0  0  0  0  0  0  0  0
  187.4110  173.3220  136.7120 C   0  0  0  0  0  0  0  0  0  0  0  0
  187.2490  176.9600  136.7240 F   0  0  0  0  0  0  0  0  0  0  0  0
  186.3330  172.3370  136.4730 C   0  0  0  0  0  2  0  0  0  0  0  0
  185.0900  173.2440  136.3040 C   0  0  1  0  0  3  0  0  0  0  0  0
  189.1210  175.4650  137.0260 C   0  0  0  0  0  0  0  0  0  0  0  0
  186.9210  174.5910  136.6420 C   0  0  0  0  0  0  0  0  0  0  0  0
  184.0580  172.9620  137.3910 C   0  0  0  0  0  2  0  0  0  0  0  0
  182.6760  173.1480  136.8660 C   0  0  0  0  0  0  0  0  0  0  0  0
  182.2600  174.3030  136.5860 O   0  0  0  0  0  0  0  0  0  0  0  0
  181.8150  172.0260  136.6980 N   0  0  0  0  0  1  0  0  0  0  0  0
  191.5640  176.1000  135.3350 C   0  0  0  0  0  3  0  0  0  0  0  0
  192.8070  175.7470  134.8030 C   0  0  0  0  0  3  0  0  0  0  0  0
  192.5550  176.2250  137.5480 C   0  0  0  0  0  3  0  0  0  0  0  0
  193.7980  175.8690  137.0100 C   0  0  0  0  0  3  0  0  0  0  0  0
  193.9220  175.6190  135.6390 C   0  0  0  0  0  3  0  0  0  0  0  0
  191.4310  176.3370  136.7090 C   0  0  0  0  0  0  0  0  0  0  0  0
  185.9950  178.5100  144.4280 C   0  0  0  0  0  2  0  0  0  0  0  0
  186.0630  177.4210  145.5010 C   0  0  0  0  0  2  0  0  0  0  0  0
  189.5050  177.8190  147.9980 C   0  0  0  0  0  3  0  0  0  0  0  0
  187.2760  177.6020  146.3560 C   0  0  0  0  0  0  0  0  0  0  0  0
  188.5000  177.1780  145.9240 N   0  0  0  0  0  0  0  0  0  0  0  0
  188.2660  178.2800  148.4440 C   0  0  0  0  0  3  0  0  0  0  0  0
  189.6050  177.2740  146.7090 C   0  0  0  0  0  3  0  0  0  0  0  0
  187.1470  178.1780  147.6220 C   0  0  0  0  0  3  0  0  0  0  0  0
  1  2  1  6  0  0  0
  1 48  1  0  0  0  0
  3  2  1  0  0  0  0
  5  4  2  0  0  0  0
  5  3  1  0  0  0  0
  6  5  2  0  0  0  0
  8 15  1  0  0  0  0
  8 13  1  1  0  0  0
  8  5  1  0  0  0  0
  9  8  1  0  0  0  0
 10 12  1  0  0  0  0
 10  9  1  1  0  0  0
 11 10  1  0  0  0  0
 11 14  1  1  0  0  0
 11 12  1  0  0  0  0
 12  7  1  6  0  0  0
 12 15  1  0  0  0  0
 15 16  1  6  0  0  0
 16 18  1  0  0  0  0
 17 16  2  0  0  0  0
 19 11  1  0  0  0  0
 20 19  1  0  0  0  0
 21  1  1  0  0  0  0
 22 21  1  0  0  0  0
 23 26  2  0  0  0  0
 24 26  1  0  0  0  0
 25 22  1  0  0  0  0
 26 25  1  0  0  0  0
 27 24  1  1  0  0  0
 28 30  1  0  0  0  0
 29 37  1  0  0  0  0
 31 36  1  0  0  0  0
 32 28  2  0  0  0  0
 33 31  1  0  0  0  0
 34 32  1  0  0  0  0
 35 29  1  0  0  0  0
 35 34  1  0  0  0  0
 35 38  1  1  0  0  0
 36 30  2  0  0  0  0
 36 27  1  0  0  0  0
 37 32  1  0  0  0  0
 37 31  2  0  0  0  0
 39 38  1  0  0  0  0
 40 39  2  0  0  0  0
 41 39  1  0  0  0  0
 42 47  1  0  0  0  0
 43 42  2  0  0  0  0
 43 46  1  0  0  0  0
 45 44  1  0  0  0  0
 46 45  2  0  0  0  0
 47 27  1  0  0  0  0
 47 44  2  0  0  0  0
 48 49  1  0  0  0  0
 49 51  1  0  0  0  0
 50 53  1  0  0  0  0
 51 55  1  0  0  0  0
 52 51  2  0  0  0  0
 52 54  1  0  0  0  0
 54 50  2  0  0  0  0
 55 53  2  0  0  0  0
M  END
>  <MODEL>
2

>  <REMARK>
 VINA RESULT:      -7.8      4.698     10.889
  Name = 
  17 active torsions:
  status: ('A' for Active; 'I' for Inactive)
    1  A    between atoms: C_1  and  C_53
    2  A    between atoms: N_4  and  C_35
    3  A    between atoms: N_4  and  N_37
    4  A    between atoms: C_6  and  S_20
    5  A    between atoms: C_8  and  N_22
    6  A    between atoms: C_8  and  C_43
    7  A    between atoms: C_10  and  C_32
    8  A    between atoms: O_11  and  C_29
    9  A    between atoms: N_19  and  C_45
   10  A    between atoms: S_20  and  N_22
   11  A    between atoms: C_26  and  C_45
   12  A    between atoms: C_27  and  C_51
   13  A    between atoms: C_32  and  C_48
   14  A    between atoms: C_35  and  C_43
   15  A    between atoms: C_43  and  C_54
   16  A    between atoms: C_45  and  C_49
   17  A    between atoms: C_51  and  C_54
                            x       y       z     vdW  Elec       q    Type
                         _______ _______ _______ _____ _____    ______ ____

>  <TORSDO>
F 17

$$$$
=
 OpenBabel10262420263D

 55 60  0  0  1  0  0  0  0  0999 V2000
  185.7480  178.0220  142.2930 C   0  0  1  0  0  3  0  0  0  0  0  0
  184.2350  178.1370  142.1470 C   0  0  0  0  0  2  0  0  0  0  0  0
  183.8710  179.0750  141.0990 N   0  0  0  0  0  2  0  0  0  0  0  0
  183.7830  178.4500  138.5310 O   0  0  0  0  0  0  0  0  0  0  0  0
  183.0510  178.2210  139.8270 S   0  0  0  0  0  0  0  0  0  0  0  0
  183.0790  176.7510  140.1450 O   0  0  0  0  0  0  0  0  0  0  0  0
  178.9310  181.2380  140.2420 O   0  0  0  0  0  1  0  0  0  0  0  0
  181.3420  178.7460  139.6570 C   0  0  1  0  0  0  0  0  0  0  0  0
  181.1450  179.2480  138.3510 O   0  0  0  0  0  0  0  0  0  0  0  0
  180.1710  180.2680  138.4370 C   0  0  2  0  0  3  0  0  0  0  0  0
  180.8100  181.6310  138.6550 C   0  0  1  0  0  0  0  0  0  0  0  0
  180.2190  180.8710  139.8350 C   0  0  1  0  0  0  0  0  0  0  0  0
  180.4930  177.6480  139.8530 O   0  0  0  0  0  1  0  0  0  0  0  0
  182.2140  181.6710  138.5660 O   0  0  0  0  0  1  0  0  0  0  0  0
  181.0350  179.8790  140.6390 C   0  0  1  0  0  3  0  0  0  0  0  0
  180.4050  179.4310  141.9400 C   0  0  0  0  0  0  0  0  0  0  0  0
  180.9630  179.6750  143.0440 O   0  0  0  0  0  1  0  0  0  0  0  0
  179.1400  178.8590  141.9130 O   0  0  0  0  0  0  0  0  0  0  0  0
  180.0380  182.7010  138.1460 O   0  0  0  0  0  0  0  0  0  0  0  0
  179.6510  182.4060  136.8340 C   0  0  0  0  0  1  0  0  0  0  0  0
  186.4480  179.0760  141.4130 C   0  0  0  0  0  2  0  0  0  0  0  0
  187.9030  178.9820  141.4890 N   0  0  0  0  0  2  0  0  0  0  0  0
  188.9440  179.0990  138.8900 O   0  0  0  0  0  0  0  0  0  0  0  0
  189.1540  176.7800  138.7160 N   0  0  0  0  0  2  0  0  0  0  0  0
  188.2370  177.8520  140.7360 N   0  0  0  0  0  2  0  0  0  0  0  0
  188.7750  177.9670  139.4120 C   0  0  0  0  0  0  0  0  0  0  0  0
  188.9310  176.5950  137.2890 C   0  0  2  0  0  3  0  0  0  0  0  0
  186.6940  173.5580  136.8900 N   0  0  0  0  0  0  0  0  0  0  0  0
  184.0250  175.8720  136.5720 O   0  0  0  0  0  0  0  0  0  0  0  0
  187.8040  174.3350  137.0490 C   0  0  0  0  0  3  0  0  0  0  0  0
  186.4430  176.3480  136.8890 C   0  0  0  0  0  0  0  0  0  0  0  0
  185.4810  174.1510  136.7480 C   0  0  0  0  0  0  0  0  0  0  0  0
  186.2910  177.6990  136.8880 F   0  0  0  0  0  0  0  0  0  0  0  0
  184.1720  173.4970  136.5240 C   0  0  0  0  0  2  0  0  0  0  0  0
  183.2090  174.7060  136.4390 C   0  0  1  0  0  3  0  0  0  0  0  0
  187.7080  175.7510  137.0590 C   0  0  0  0  0  0  0  0  0  0  0  0
  185.3430  175.5060  136.7420 C   0  0  0  0  0  0  0  0  0  0  0  0
  182.1770  174.6600  137.5610 C   0  0  0  0  0  2  0  0  0  0  0  0
  180.8120  174.4260  137.0090 C   0  0  0  0  0  0  0  0  0  0  0  0
  179.8340  174.2870  137.7900 O   0  0  0  0  0  0  0  0  0  0  0  0
  180.6120  174.3390  135.6020 N   0  0  0  0  0  1  0  0  0  0  0  0
  191.1300  175.4260  137.3480 C   0  0  0  0  0  3  0  0  0  0  0  0
  192.3090  174.9900  136.7360 C   0  0  0  0  0  3  0  0  0  0  0  0
  190.3220  176.2270  135.2030 C   0  0  0  0  0  3  0  0  0  0  0  0
  191.5060  175.7900  134.5950 C   0  0  0  0  0  3  0  0  0  0  0  0
  192.5040  175.1820  135.3640 C   0  0  0  0  0  3  0  0  0  0  0  0
  190.1330  176.0480  136.5870 C   0  0  0  0  0  0  0  0  0  0  0  0
  186.1170  178.1410  143.7740 C   0  0  0  0  0  2  0  0  0  0  0  0
  187.1800  177.1320  144.2110 C   0  0  0  0  0  2  0  0  0  0  0  0
  188.5420  177.9290  148.1800 C   0  0  0  0  0  3  0  0  0  0  0  0
  187.6730  177.4520  145.5860 C   0  0  0  0  0  0  0  0  0  0  0  0
  188.9300  177.0850  145.9750 N   0  0  0  0  0  0  0  0  0  0  0  0
  187.2640  178.3310  147.7900 C   0  0  0  0  0  3  0  0  0  0  0  0
  189.3770  177.3090  147.2380 C   0  0  0  0  0  3  0  0  0  0  0  0
  186.8270  178.0990  146.4890 C   0  0  0  0  0  3  0  0  0  0  0  0
  1 21  1  6  0  0  0
  1 48  1  0  0  0  0
  2  1  1  0  0  0  0
  3  2  1  0  0  0  0
  4  5  2  0  0  0  0
  5  6  2  0  0  0  0
  5  3  1  0  0  0  0
  8  5  1  0  0  0  0
  8 13  1  1  0  0  0
  8 15  1  0  0  0  0
  9  8  1  0  0  0  0
 10  9  1  1  0  0  0
 10 11  1  0  0  0  0
 10 12  1  0  0  0  0
 11 14  1  6  0  0  0
 11 12  1  0  0  0  0
 12  7  1  1  0  0  0
 12 15  1  0  0  0  0
 15 16  1  1  0  0  0
 16 17  1  0  0  0  0
 18 16  2  0  0  0  0
 19 11  1  0  0  0  0
 20 19  1  0  0  0  0
 21 22  1  0  0  0  0
 23 26  2  0  0  0  0
 24 26  1  0  0  0  0
 25 22  1  0  0  0  0
 26 25  1  0  0  0  0
 27 24  1  1  0  0  0
 28 30  1  0  0  0  0
 29 37  1  0  0  0  0
 30 36  2  0  0  0  0
 31 36  1  0  0  0  0
 32 28  2  0  0  0  0
 33 31  1  0  0  0  0
 34 32  1  0  0  0  0
 35 34  1  0  0  0  0
 35 29  1  0  0  0  0
 35 38  1  1  0  0  0
 36 27  1  0  0  0  0
 37 32  1  0  0  0  0
 37 31  2  0  0  0  0
 39 38  1  0  0  0  0
 39 40  2  0  0  0  0
 41 39  1  0  0  0  0
 43 42  1  0  0  0  0
 44 47  1  0  0  0  0
 45 44  2  0  0  0  0
 45 46  1  0  0  0  0
 46 43  2  0  0  0  0
 47 27  1  0  0  0  0
 47 42  2  0  0  0  0
 48 49  1  0  0  0  0
 49 51  1  0  0  0  0
 51 52  2  0  0  0  0
 51 55  1  0  0  0  0
 52 54  1  0  0  0  0
 53 50  1  0  0  0  0
 54 50  2  0  0  0  0
 55 53  2  0  0  0  0
M  END
>  <MODEL>
3

>  <REMARK>
 VINA RESULT:      -7.7      4.849     11.345
  Name = 
  17 active torsions:
  status: ('A' for Active; 'I' for Inactive)
    1  A    between atoms: C_1  and  C_53
    2  A    between atoms: N_4  and  C_35
    3  A    between atoms: N_4  and  N_37
    4  A    between atoms: C_6  and  S_20
    5  A    between atoms: C_8  and  N_22
    6  A    between atoms: C_8  and  C_43
    7  A    between atoms: C_10  and  C_32
    8  A    between atoms: O_11  and  C_29
    9  A    between atoms: N_19  and  C_45
   10  A    between atoms: S_20  and  N_22
   11  A    between atoms: C_26  and  C_45
   12  A    between atoms: C_27  and  C_51
   13  A    between atoms: C_32  and  C_48
   14  A    between atoms: C_35  and  C_43
   15  A    between atoms: C_43  and  C_54
   16  A    between atoms: C_45  and  C_49
   17  A    between atoms: C_51  and  C_54
                            x       y       z     vdW  Elec       q    Type
                         _______ _______ _______ _____ _____    ______ ____

>  <TORSDO>
F 17

$$$$
=
 OpenBabel10262420263D

 55 60  0  0  1  0  0  0  0  0999 V2000
  185.6860  178.3990  142.0930 C   0  0  1  0  0  3  0  0  0  0  0  0
  184.8480  178.9770  140.9580 C   0  0  0  0  0  2  0  0  0  0  0  0
  183.6410  178.1990  140.7380 N   0  0  0  0  0  2  0  0  0  0  0  0
  181.3290  179.4620  140.5000 O   0  0  0  0  0  0  0  0  0  0  0  0
  182.5620  179.0980  139.7150 S   0  0  0  0  0  0  0  0  0  0  0  0
  183.2530  180.3640  139.2860 O   0  0  0  0  0  0  0  0  0  0  0  0
  182.3450  175.1700  136.4330 O   0  0  0  0  0  1  0  0  0  0  0  0
  182.0930  178.1700  138.2500 C   0  0  1  0  0  0  0  0  0  0  0  0
  180.8060  177.6200  138.4490 O   0  0  0  0  0  0  0  0  0  0  0  0
  180.7620  176.3940  137.7480 C   0  0  2  0  0  3  0  0  0  0  0  0
  181.1820  175.2310  138.6340 C   0  0  1  0  0  0  0  0  0  0  0  0
  182.1750  175.8360  137.6520 C   0  0  1  0  0  0  0  0  0  0  0  0
  182.0530  179.0290  137.1430 O   0  0  0  0  0  1  0  0  0  0  0  0
  181.3710  175.5340  139.9960 O   0  0  0  0  0  1  0  0  0  0  0  0
  183.0630  177.0060  138.0280 C   0  0  1  0  0  3  0  0  0  0  0  0
  184.1860  177.3010  137.0580 C   0  0  0  0  0  0  0  0  0  0  0  0
  185.2770  177.7860  137.4620 O   0  0  0  0  0  1  0  0  0  0  0  0
  184.0500  176.9120  135.7310 O   0  0  0  0  0  0  0  0  0  0  0  0
  180.5970  173.9990  138.2590 O   0  0  0  0  0  0  0  0  0  0  0  0
  179.4340  173.7940  139.0090 C   0  0  0  0  0  1  0  0  0  0  0  0
  187.1770  178.3990  141.7040 C   0  0  0  0  0  2  0  0  0  0  0  0
  187.3820  178.7320  140.2970 N   0  0  0  0  0  2  0  0  0  0  0  0
  188.5760  178.8580  137.7650 O   0  0  0  0  0  0  0  0  0  0  0  0
  189.8970  176.9690  138.1370 N   0  0  0  0  0  2  0  0  0  0  0  0
  188.3160  177.8010  139.8330 N   0  0  0  0  0  2  0  0  0  0  0  0
  188.9040  177.9160  138.5310 C   0  0  0  0  0  0  0  0  0  0  0  0
  189.9840  176.4310  136.7860 C   0  0  2  0  0  3  0  0  0  0  0  0
  188.9180  172.7960  136.9820 N   0  0  0  0  0  0  0  0  0  0  0  0
  185.7630  173.9140  135.8090 O   0  0  0  0  0  0  0  0  0  0  0  0
  189.6820  173.9250  137.0390 C   0  0  0  0  0  3  0  0  0  0  0  0
  187.8130  175.2570  136.2250 C   0  0  0  0  0  0  0  0  0  0  0  0
  187.6260  172.8860  136.5720 C   0  0  0  0  0  0  0  0  0  0  0  0
  187.2490  176.4370  135.8550 F   0  0  0  0  0  0  0  0  0  0  0  0
  186.6500  171.7870  136.4000 C   0  0  0  0  0  2  0  0  0  0  0  0
  185.3900  172.5390  135.9080 C   0  0  1  0  0  3  0  0  0  0  0  0
  189.1480  175.1860  136.6670 C   0  0  0  0  0  0  0  0  0  0  0  0
  187.0760  174.0740  136.1970 C   0  0  0  0  0  0  0  0  0  0  0  0
  184.2400  172.3780  136.8960 C   0  0  0  0  0  2  0  0  0  0  0  0
  183.2910  171.3260  136.4320 C   0  0  0  0  0  0  0  0  0  0  0  0
  183.7270  170.2050  136.0640 O   0  0  0  0  0  0  0  0  0  0  0  0
  181.8920  171.5920  136.3840 N   0  0  0  0  0  1  0  0  0  0  0  0
  192.4140  176.2660  137.3090 C   0  0  0  0  0  3  0  0  0  0  0  0
  193.7520  176.1550  136.9190 C   0  0  0  0  0  3  0  0  0  0  0  0
  191.7270  176.0250  134.9930 C   0  0  0  0  0  3  0  0  0  0  0  0
  193.0700  175.9160  134.6070 C   0  0  0  0  0  3  0  0  0  0  0  0
  194.0830  175.9920  135.5690 C   0  0  0  0  0  3  0  0  0  0  0  0
  191.3970  176.2050  136.3490 C   0  0  0  0  0  0  0  0  0  0  0  0
  185.4020  179.1880  143.3730 C   0  0  0  0  0  2  0  0  0  0  0  0
  184.8920  178.3110  144.5180 C   0  0  0  0  0  2  0  0  0  0  0  0
  187.9830  177.9120  147.4390 C   0  0  0  0  0  3  0  0  0  0  0  0
  185.9550  178.1310  145.5550 C   0  0  0  0  0  0  0  0  0  0  0  0
  185.7960  178.6490  146.8090 N   0  0  0  0  0  0  0  0  0  0  0  0
  188.1500  177.3560  146.1700 C   0  0  0  0  0  3  0  0  0  0  0  0
  186.7730  178.5530  147.7470 C   0  0  0  0  0  3  0  0  0  0  0  0
  187.1340  177.4590  145.2240 C   0  0  0  0  0  3  0  0  0  0  0  0
  1  2  1  6  0  0  0
  1 48  1  0  0  0  0
  3  2  1  0  0  0  0
  5  4  2  0  0  0  0
  5  3  1  0  0  0  0
  6  5  2  0  0  0  0
  8 13  1  6  0  0  0
  8  9  1  0  0  0  0
  8  5  1  0  0  0  0
 10  9  1  1  0  0  0
 10 11  1  0  0  0  0
 11 14  1  1  0  0  0
 12  7  1  6  0  0  0
 12 10  1  0  0  0  0
 12 15  1  0  0  0  0
 12 11  1  0  0  0  0
 15 16  1  6  0  0  0
 15  8  1  0  0  0  0
 16 17  1  0  0  0  0
 18 16  2  0  0  0  0
 19 11  1  0  0  0  0
 19 20  1  0  0  0  0
 21  1  1  0  0  0  0
 22 21  1  0  0  0  0
 23 26  2  0  0  0  0
 24 26  1  0  0  0  0
 25 22  1  0  0  0  0
 26 25  1  0  0  0  0
 27 24  1  1  0  0  0
 28 30  1  0  0  0  0
 29 35  1  0  0  0  0
 29 37  1  0  0  0  0
 31 36  1  0  0  0  0
 32 28  2  0  0  0  0
 33 31  1  0  0  0  0
 34 32  1  0  0  0  0
 35 34  1  0  0  0  0
 35 38  1  1  0  0  0
 36 27  1  0  0  0  0
 36 30  2  0  0  0  0
 37 31  2  0  0  0  0
 37 32  1  0  0  0  0
 39 38  1  0  0  0  0
 40 39  2  0  0  0  0
 41 39  1  0  0  0  0
 43 42  1  0  0  0  0
 44 47  1  0  0  0  0
 45 44  2  0  0  0  0
 45 46  1  0  0  0  0
 46 43  2  0  0  0  0
 47 27  1  0  0  0  0
 47 42  2  0  0  0  0
 48 49  1  0  0  0  0
 49 51  1  0  0  0  0
 50 54  1  0  0  0  0
 51 52  1  0  0  0  0
 52 54  2  0  0  0  0
 53 50  2  0  0  0  0
 55 51  2  0  0  0  0
 55 53  1  0  0  0  0
M  END
>  <MODEL>
4

>  <REMARK>
 VINA RESULT:      -7.6      4.876     10.699
  Name = 
  17 active torsions:
  status: ('A' for Active; 'I' for Inactive)
    1  A    between atoms: C_1  and  C_53
    2  A    between atoms: N_4  and  C_35
    3  A    between atoms: N_4  and  N_37
    4  A    between atoms: C_6  and  S_20
    5  A    between atoms: C_8  and  N_22
    6  A    between atoms: C_8  and  C_43
    7  A    between atoms: C_10  and  C_32
    8  A    between atoms: O_11  and  C_29
    9  A    between atoms: N_19  and  C_45
   10  A    between atoms: S_20  and  N_22
   11  A    between atoms: C_26  and  C_45
   12  A    between atoms: C_27  and  C_51
   13  A    between atoms: C_32  and  C_48
   14  A    between atoms: C_35  and  C_43
   15  A    between atoms: C_43  and  C_54
   16  A    between atoms: C_45  and  C_49
   17  A    between atoms: C_51  and  C_54
                            x       y       z     vdW  Elec       q    Type
                         _______ _______ _______ _____ _____    ______ ____

>  <TORSDO>
F 17

$$$$
=
 OpenBabel10262420263D

 55 60  0  0  1  0  0  0  0  0999 V2000
  188.7900  177.8280  142.0090 C   0  0  1  0  0  3  0  0  0  0  0  0
  189.3710  177.1040  140.8000 C   0  0  0  0  0  2  0  0  0  0  0  0
  188.4990  177.2150  139.6430 N   0  0  0  0  0  2  0  0  0  0  0  0
  189.0460  179.2540  138.0510 O   0  0  0  0  0  0  0  0  0  0  0  0
  189.4160  177.8150  138.2940 S   0  0  0  0  0  0  0  0  0  0  0  0
  190.8780  177.7420  138.6400 O   0  0  0  0  0  0  0  0  0  0  0  0
  187.7210  173.9750  135.3550 O   0  0  0  0  0  1  0  0  0  0  0  0
  189.1240  176.8560  136.8030 C   0  0  1  0  0  0  0  0  0  0  0  0
  188.0200  177.4070  136.1130 O   0  0  0  0  0  0  0  0  0  0  0  0
  187.3610  176.3410  135.4610 C   0  0  2  0  0  3  0  0  0  0  0  0
  186.2680  175.7440  136.3360 C   0  0  1  0  0  0  0  0  0  0  0  0
  187.6230  175.0570  136.2370 C   0  0  1  0  0  0  0  0  0  0  0  0
  190.2540  176.9210  135.9760 O   0  0  0  0  0  1  0  0  0  0  0  0
  185.9930  176.4360  137.5300 O   0  0  0  0  0  1  0  0  0  0  0  0
  188.7700  175.4110  137.1630 C   0  0  1  0  0  3  0  0  0  0  0  0
  189.9400  174.4520  137.1350 C   0  0  0  0  0  0  0  0  0  0  0  0
  190.1030  173.6610  136.1660 O   0  0  0  0  0  0  0  0  0  0  0  0
  190.9070  174.5390  138.1280 O   0  0  0  0  0  1  0  0  0  0  0  0
  185.2120  175.1620  135.5970 O   0  0  0  0  0  0  0  0  0  0  0  0
  184.6860  174.0840  136.3170 C   0  0  0  0  0  1  0  0  0  0  0  0
  187.6040  178.7140  141.5780 C   0  0  0  0  0  2  0  0  0  0  0  0
  186.3340  178.2410  142.1220 N   0  0  0  0  0  2  0  0  0  0  0  0
  183.6380  178.7580  142.6840 O   0  0  0  0  0  0  0  0  0  0  0  0
  183.1030  179.1700  140.4480 N   0  0  0  0  0  2  0  0  0  0  0  0
  185.3820  178.5420  141.1430 N   0  0  0  0  0  2  0  0  0  0  0  0
  184.0160  178.8080  141.4850 C   0  0  0  0  0  0  0  0  0  0  0  0
  181.7250  178.7030  140.4100 C   0  0  2  0  0  3  0  0  0  0  0  0
  182.3070  176.5860  137.3170 N   0  0  0  0  0  0  0  0  0  0  0  0
  179.7540  174.4740  138.5830 O   0  0  0  0  0  0  0  0  0  0  0  0
  182.4030  177.5940  138.2320 C   0  0  0  0  0  3  0  0  0  0  0  0
  180.6310  176.5830  139.5620 C   0  0  0  0  0  0  0  0  0  0  0  0
  181.4080  175.5880  137.5180 C   0  0  0  0  0  0  0  0  0  0  0  0
  179.8080  176.5530  140.6440 F   0  0  0  0  0  0  0  0  0  0  0  0
  181.1190  174.4360  136.6340 C   0  0  0  0  0  2  0  0  0  0  0  0
  180.0090  173.6930  137.4150 C   0  0  1  0  0  3  0  0  0  0  0  0
  181.5710  177.6160  139.3820 C   0  0  0  0  0  0  0  0  0  0  0  0
  180.5840  175.5750  138.6020 C   0  0  0  0  0  0  0  0  0  0  0  0
  180.4660  172.2930  137.8110 C   0  0  0  0  0  2  0  0  0  0  0  0
  180.7680  171.4760  136.6010 C   0  0  0  0  0  0  0  0  0  0  0  0
  179.8330  171.1000  135.8470 O   0  0  0  0  0  0  0  0  0  0  0  0
  182.1100  171.1010  136.3050 N   0  0  0  0  0  1  0  0  0  0  0  0
  180.8820  180.6240  139.0660 C   0  0  0  0  0  3  0  0  0  0  0  0
  180.0460  181.7310  138.8910 C   0  0  0  0  0  3  0  0  0  0  0  0
  179.7650  180.1220  141.1630 C   0  0  0  0  0  3  0  0  0  0  0  0
  178.9320  181.2340  140.9840 C   0  0  0  0  0  3  0  0  0  0  0  0
  179.0800  182.0450  139.8530 C   0  0  0  0  0  3  0  0  0  0  0  0
  180.7480  179.8170  140.2030 C   0  0  0  0  0  0  0  0  0  0  0  0
  188.4070  176.7960  143.0730 C   0  0  0  0  0  2  0  0  0  0  0  0
  189.4430  176.6750  144.1920 C   0  0  0  0  0  2  0  0  0  0  0  0
  187.8320  178.0780  147.8900 C   0  0  0  0  0  3  0  0  0  0  0  0
  188.8930  177.2090  145.4760 C   0  0  0  0  0  0  0  0  0  0  0  0
  189.6670  177.2480  146.6000 N   0  0  0  0  0  0  0  0  0  0  0  0
  187.0350  178.0690  146.7450 C   0  0  0  0  0  3  0  0  0  0  0  0
  189.1710  177.6700  147.7920 C   0  0  0  0  0  3  0  0  0  0  0  0
  187.5650  177.6390  145.5310 C   0  0  0  0  0  3  0  0  0  0  0  0
  1  2  1  6  0  0  0
  1 48  1  0  0  0  0
  3  2  1  0  0  0  0
  4  5  2  0  0  0  0
  5  6  2  0  0  0  0
  5  3  1  0  0  0  0
  8 13  1  6  0  0  0
  8 15  1  0  0  0  0
  8  5  1  0  0  0  0
  9  8  1  0  0  0  0
 10  9  1  1  0  0  0
 10 12  1  0  0  0  0
 10 11  1  0  0  0  0
 11 14  1  1  0  0  0
 12  7  1  6  0  0  0
 12 11  1  0  0  0  0
 12 15  1  0  0  0  0
 15 16  1  6  0  0  0
 16 18  1  0  0  0  0
 17 16  2  0  0  0  0
 19 20  1  0  0  0  0
 19 11  1  0  0  0  0
 21  1  1  0  0  0  0
 21 22  1  0  0  0  0
 24 26  1  0  0  0  0
 25 26  1  0  0  0  0
 25 22  1  0  0  0  0
 26 23  2  0  0  0  0
 27 24  1  6  0  0  0
 28 32  2  0  0  0  0
 28 30  1  0  0  0  0
 29 37  1  0  0  0  0
 30 36  2  0  0  0  0
 31 33  1  0  0  0  0
 32 37  1  0  0  0  0
 34 35  1  0  0  0  0
 34 32  1  0  0  0  0
 35 38  1  1  0  0  0
 35 29  1  0  0  0  0
 36 31  1  0  0  0  0
 36 27  1  0  0  0  0
 37 31  2  0  0  0  0
 39 38  1  0  0  0  0
 40 39  2  0  0  0  0
 41 39  1  0  0  0  0
 42 47  1  0  0  0  0
 43 42  2  0  0  0  0
 43 46  1  0  0  0  0
 45 44  1  0  0  0  0
 46 45  2  0  0  0  0
 47 27  1  0  0  0  0
 47 44  2  0  0  0  0
 48 49  1  0  0  0  0
 49 51  1  0  0  0  0
 51 55  2  0  0  0  0
 51 52  1  0  0  0  0
 52 54  2  0  0  0  0
 53 50  2  0  0  0  0
 54 50  1  0  0  0  0
 55 53  1  0  0  0  0
M  END
>  <MODEL>
5

>  <REMARK>
 VINA RESULT:      -7.6      3.929      7.288
  Name = 
  17 active torsions:
  status: ('A' for Active; 'I' for Inactive)
    1  A    between atoms: C_1  and  C_53
    2  A    between atoms: N_4  and  C_35
    3  A    between atoms: N_4  and  N_37
    4  A    between atoms: C_6  and  S_20
    5  A    between atoms: C_8  and  N_22
    6  A    between atoms: C_8  and  C_43
    7  A    between atoms: C_10  and  C_32
    8  A    between atoms: O_11  and  C_29
    9  A    between atoms: N_19  and  C_45
   10  A    between atoms: S_20  and  N_22
   11  A    between atoms: C_26  and  C_45
   12  A    between atoms: C_27  and  C_51
   13  A    between atoms: C_32  and  C_48
   14  A    between atoms: C_35  and  C_43
   15  A    between atoms: C_43  and  C_54
   16  A    between atoms: C_45  and  C_49
   17  A    between atoms: C_51  and  C_54
                            x       y       z     vdW  Elec       q    Type
                         _______ _______ _______ _____ _____    ______ ____

>  <TORSDO>
F 17

$$$$
=
 OpenBabel10262420263D

 55 60  0  0  1  0  0  0  0  0999 V2000
  185.7650  178.1290  142.2680 C   0  0  1  0  0  3  0  0  0  0  0  0
  185.0320  178.2100  140.9350 C   0  0  0  0  0  2  0  0  0  0  0  0
  184.1250  179.3440  140.8930 N   0  0  0  0  0  2  0  0  0  0  0  0
  183.3940  180.8470  138.8430 O   0  0  0  0  0  0  0  0  0  0  0  0
  183.3790  179.4200  139.3250 S   0  0  0  0  0  0  0  0  0  0  0  0
  184.1820  178.5790  138.3720 O   0  0  0  0  0  0  0  0  0  0  0  0
  179.3230  176.6960  140.8680 O   0  0  0  0  0  1  0  0  0  0  0  0
  181.6890  178.8110  139.3540 C   0  0  1  0  0  0  0  0  0  0  0  0
  180.8750  179.7500  140.0280 O   0  0  0  0  0  0  0  0  0  0  0  0
  179.8540  179.0240  140.6820 C   0  0  2  0  0  3  0  0  0  0  0  0
  180.2590  178.6480  142.1000 C   0  0  1  0  0  0  0  0  0  0  0  0
  180.3670  177.6210  140.9810 C   0  0  1  0  0  0  0  0  0  0  0  0
  181.2210  178.6660  138.0400 O   0  0  0  0  0  1  0  0  0  0  0  0
  181.4630  179.2110  142.5630 O   0  0  0  0  0  1  0  0  0  0  0  0
  181.6140  177.4930  140.1290 C   0  0  1  0  0  3  0  0  0  0  0  0
  181.6800  176.2520  139.2660 C   0  0  0  0  0  0  0  0  0  0  0  0
  180.7000  175.9140  138.5470 O   0  0  0  0  0  0  0  0  0  0  0  0
  182.8800  175.5580  139.1740 O   0  0  0  0  0  1  0  0  0  0  0  0
  179.1600  178.5070  142.9790 O   0  0  0  0  0  0  0  0  0  0  0  0
  179.6240  178.4990  144.2990 C   0  0  0  0  0  1  0  0  0  0  0  0
  187.2860  178.2330  142.0440 C   0  0  0  0  0  2  0  0  0  0  0  0
  187.6150  178.7960  140.7380 N   0  0  0  0  0  2  0  0  0  0  0  0
  189.0360  179.3190  138.3800 O   0  0  0  0  0  0  0  0  0  0  0  0
  190.2430  177.3240  138.4960 N   0  0  0  0  0  2  0  0  0  0  0  0
  188.5500  177.9160  140.1840 N   0  0  0  0  0  2  0  0  0  0  0  0
  189.2570  178.2350  138.9790 C   0  0  0  0  0  0  0  0  0  0  0  0
  190.4300  177.0390  137.0800 C   0  0  2  0  0  3  0  0  0  0  0  0
  187.3420  176.8630  134.8860 N   0  0  0  0  0  0  0  0  0  0  0  0
  186.7380  173.7190  136.4110 O   0  0  0  0  0  0  0  0  0  0  0  0
  188.4830  177.3180  135.4780 C   0  0  0  0  0  3  0  0  0  0  0  0
  188.5950  175.3100  136.8510 C   0  0  0  0  0  0  0  0  0  0  0  0
  186.8390  175.6550  135.2480 C   0  0  0  0  0  0  0  0  0  0  0  0
  189.1840  174.5330  137.7990 F   0  0  0  0  0  0  0  0  0  0  0  0
  185.6010  175.0050  134.7630 C   0  0  0  0  0  2  0  0  0  0  0  0
  185.5910  173.6780  135.5600 C   0  0  1  0  0  3  0  0  0  0  0  0
  189.1440  176.5510  136.4730 C   0  0  0  0  0  0  0  0  0  0  0  0
  187.4340  174.8900  136.2050 C   0  0  0  0  0  0  0  0  0  0  0  0
  185.6760  172.4790  134.6220 C   0  0  0  0  0  2  0  0  0  0  0  0
  185.2760  171.2290  135.3300 C   0  0  0  0  0  0  0  0  0  0  0  0
  184.3970  171.2700  136.2300 O   0  0  0  0  0  0  0  0  0  0  0  0
  185.9000  169.9900  135.0050 N   0  0  0  0  0  1  0  0  0  0  0  0
  191.5780  175.3640  135.6360 C   0  0  0  0  0  3  0  0  0  0  0  0
  192.5700  174.4050  135.4140 C   0  0  0  0  0  3  0  0  0  0  0  0
  192.5570  175.8650  137.8000 C   0  0  0  0  0  3  0  0  0  0  0  0
  193.5490  174.9020  137.5740 C   0  0  0  0  0  3  0  0  0  0  0  0
  193.5480  174.1640  136.3850 C   0  0  0  0  0  3  0  0  0  0  0  0
  191.5640  176.0960  136.8300 C   0  0  0  0  0  0  0  0  0  0  0  0
  185.2240  179.2150  143.2020 C   0  0  0  0  0  2  0  0  0  0  0  0
  184.4990  178.6490  144.4240 C   0  0  0  0  0  2  0  0  0  0  0  0
  187.3040  178.2030  147.6130 C   0  0  0  0  0  3  0  0  0  0  0  0
  185.4530  178.4610  145.5600 C   0  0  0  0  0  0  0  0  0  0  0  0
  185.3570  179.2350  146.6810 N   0  0  0  0  0  0  0  0  0  0  0  0
  187.4000  177.3880  146.4850 C   0  0  0  0  0  3  0  0  0  0  0  0
  186.2500  179.1250  147.6990 C   0  0  0  0  0  3  0  0  0  0  0  0
  186.4710  177.5110  145.4550 C   0  0  0  0  0  3  0  0  0  0  0  0
  1  2  1  6  0  0  0
  1 48  1  0  0  0  0
  3  2  1  0  0  0  0
  4  5  2  0  0  0  0
  5  8  1  0  0  0  0
  5  3  1  0  0  0  0
  6  5  2  0  0  0  0
  8 13  1  6  0  0  0
  8  9  1  0  0  0  0
  8 15  1  0  0  0  0
 10  9  1  6  0  0  0
 10 12  1  0  0  0  0
 10 11  1  0  0  0  0
 11 14  1  1  0  0  0
 11 19  1  0  0  0  0
 12  7  1  6  0  0  0
 12 11  1  0  0  0  0
 15 16  1  6  0  0  0
 15 12  1  0  0  0  0
 17 16  2  0  0  0  0
 18 16  1  0  0  0  0
 19 20  1  0  0  0  0
 21  1  1  0  0  0  0
 22 21  1  0  0  0  0
 23 26  2  0  0  0  0
 24 26  1  0  0  0  0
 25 22  1  0  0  0  0
 26 25  1  0  0  0  0
 27 24  1  1  0  0  0
 28 32  2  0  0  0  0
 28 30  1  0  0  0  0
 30 36  2  0  0  0  0
 31 33  1  0  0  0  0
 32 37  1  0  0  0  0
 34 32  1  0  0  0  0
 34 35  1  0  0  0  0
 35 38  1  6  0  0  0
 35 29  1  0  0  0  0
 36 31  1  0  0  0  0
 36 27  1  0  0  0  0
 37 29  1  0  0  0  0
 37 31  2  0  0  0  0
 38 39  1  0  0  0  0
 39 40  2  0  0  0  0
 41 39  1  0  0  0  0
 42 47  1  0  0  0  0
 43 42  2  0  0  0  0
 43 46  1  0  0  0  0
 45 44  1  0  0  0  0
 46 45  2  0  0  0  0
 47 27  1  0  0  0  0
 47 44  2  0  0  0  0
 48 49  1  0  0  0  0
 49 51  1  0  0  0  0
 50 54  1  0  0  0  0
 51 52  1  0  0  0  0
 52 54  2  0  0  0  0
 53 50  2  0  0  0  0
 55 51  2  0  0  0  0
 55 53  1  0  0  0  0
M  END
>  <MODEL>
6

>  <REMARK>
 VINA RESULT:      -7.6      4.619     11.465
  Name = 
  17 active torsions:
  status: ('A' for Active; 'I' for Inactive)
    1  A    between atoms: C_1  and  C_53
    2  A    between atoms: N_4  and  C_35
    3  A    between atoms: N_4  and  N_37
    4  A    between atoms: C_6  and  S_20
    5  A    between atoms: C_8  and  N_22
    6  A    between atoms: C_8  and  C_43
    7  A    between atoms: C_10  and  C_32
    8  A    between atoms: O_11  and  C_29
    9  A    between atoms: N_19  and  C_45
   10  A    between atoms: S_20  and  N_22
   11  A    between atoms: C_26  and  C_45
   12  A    between atoms: C_27  and  C_51
   13  A    between atoms: C_32  and  C_48
   14  A    between atoms: C_35  and  C_43
   15  A    between atoms: C_43  and  C_54
   16  A    between atoms: C_45  and  C_49
   17  A    between atoms: C_51  and  C_54
                            x       y       z     vdW  Elec       q    Type
                         _______ _______ _______ _____ _____    ______ ____

>  <TORSDO>
F 17

$$$$
=
 OpenBabel10262420263D

 55 60  0  0  1  0  0  0  0  0999 V2000
  183.0560  178.8310  139.1340 C   0  0  1  0  0  3  0  0  0  0  0  0
  182.2600  179.1730  137.8800 C   0  0  0  0  0  2  0  0  0  0  0  0
  182.3930  178.1400  136.8670 N   0  0  0  0  0  2  0  0  0  0  0  0
  180.1000  177.5100  138.0210 O   0  0  0  0  0  0  0  0  0  0  0  0
  181.1480  176.9500  137.0970 S   0  0  0  0  0  0  0  0  0  0  0  0
  180.5130  176.6590  135.7650 O   0  0  0  0  0  0  0  0  0  0  0  0
  182.6590  172.0560  137.2200 O   0  0  0  0  0  1  0  0  0  0  0  0
  181.7980  175.4200  137.7770 C   0  0  1  0  0  0  0  0  0  0  0  0
  183.2090  175.4910  137.8000 O   0  0  0  0  0  0  0  0  0  0  0  0
  183.6970  174.1810  137.5980 C   0  0  2  0  0  3  0  0  0  0  0  0
  183.9300  173.8950  136.1220 C   0  0  1  0  0  0  0  0  0  0  0  0
  182.6650  173.3920  136.8030 C   0  0  1  0  0  0  0  0  0  0  0  0
  181.3310  175.2540  139.0880 O   0  0  0  0  0  1  0  0  0  0  0  0
  183.7900  174.9950  135.2550 O   0  0  0  0  0  1  0  0  0  0  0  0
  181.4090  174.2370  136.8850 C   0  0  1  0  0  3  0  0  0  0  0  0
  180.1640  173.5000  137.3260 C   0  0  0  0  0  0  0  0  0  0  0  0
  180.0630  173.0490  138.5000 O   0  0  0  0  0  1  0  0  0  0  0  0
  179.0780  173.4350  136.4630 O   0  0  0  0  0  0  0  0  0  0  0  0
  184.9430  172.9350  135.8880 O   0  0  0  0  0  0  0  0  0  0  0  0
  186.1950  173.5330  136.0690 C   0  0  0  0  0  1  0  0  0  0  0  0
  184.4470  179.4940  139.0760 C   0  0  0  0  0  2  0  0  0  0  0  0
  185.4420  178.6350  138.4390 N   0  0  0  0  0  2  0  0  0  0  0  0
  187.7770  177.1490  137.9980 O   0  0  0  0  0  0  0  0  0  0  0  0
  188.8130  177.9340  139.9380 N   0  0  0  0  0  2  0  0  0  0  0  0
  186.5320  178.6260  139.3140 N   0  0  0  0  0  2  0  0  0  0  0  0
  187.7080  177.8550  139.0370 C   0  0  0  0  0  0  0  0  0  0  0  0
  189.6260  176.7810  140.2950 C   0  0  2  0  0  3  0  0  0  0  0  0
  191.7290  177.2110  143.4230 N   0  0  0  0  0  0  0  0  0  0  0  0
  188.7050  176.7640  145.2200 O   0  0  0  0  0  0  0  0  0  0  0  0
  191.3690  177.0970  142.1120 C   0  0  0  0  0  3  0  0  0  0  0  0
  189.0530  176.7150  142.7600 C   0  0  0  0  0  0  0  0  0  0  0  0
  190.7800  177.0970  144.3870 C   0  0  0  0  0  0  0  0  0  0  0  0
  187.7460  176.4780  142.4690 F   0  0  0  0  0  0  0  0  0  0  0  0
  190.9660  177.1460  145.8540 C   0  0  0  0  0  2  0  0  0  0  0  0
  189.5240  176.9450  146.3770 C   0  0  1  0  0  3  0  0  0  0  0  0
  190.0200  176.8510  141.7450 C   0  0  0  0  0  0  0  0  0  0  0  0
  189.4750  176.8520  144.0810 C   0  0  0  0  0  0  0  0  0  0  0  0
  189.0550  178.1630  147.1650 C   0  0  0  0  0  2  0  0  0  0  0  0
  187.7380  177.8970  147.8110 C   0  0  0  0  0  0  0  0  0  0  0  0
  186.6820  178.3440  147.2930 O   0  0  0  0  0  0  0  0  0  0  0  0
  187.6720  177.1560  149.0260 N   0  0  0  0  0  1  0  0  0  0  0  0
  190.7380  175.6810  138.3560 C   0  0  0  0  0  3  0  0  0  0  0  0
  191.8600  175.4320  137.5590 C   0  0  0  0  0  3  0  0  0  0  0  0
  192.0160  177.3040  139.6330 C   0  0  0  0  0  3  0  0  0  0  0  0
  193.1370  177.0490  138.8330 C   0  0  0  0  0  3  0  0  0  0  0  0
  193.0620  176.1050  137.8030 C   0  0  0  0  0  3  0  0  0  0  0  0
  190.8110  176.6140  139.3970 C   0  0  0  0  0  0  0  0  0  0  0  0
  182.2490  179.2460  140.3660 C   0  0  0  0  0  2  0  0  0  0  0  0
  182.1810  178.1540  141.4350 C   0  0  0  0  0  2  0  0  0  0  0  0
  184.8330  179.1800  144.6210 C   0  0  0  0  0  3  0  0  0  0  0  0
  183.1040  178.4700  142.5680 C   0  0  0  0  0  0  0  0  0  0  0  0
  182.6210  179.0010  143.7300 N   0  0  0  0  0  0  0  0  0  0  0  0
  185.3400  178.6160  143.4510 C   0  0  0  0  0  3  0  0  0  0  0  0
  183.4470  179.3540  144.7490 C   0  0  0  0  0  3  0  0  0  0  0  0
  184.4760  178.2530  142.4210 C   0  0  0  0  0  3  0  0  0  0  0  0
  1  2  1  6  0  0  0
  1 48  1  0  0  0  0
  3  5  1  0  0  0  0
  3  2  1  0  0  0  0
  5  8  1  0  0  0  0
  5  4  2  0  0  0  0
  6  5  2  0  0  0  0
  8  9  1  0  0  0  0
  8 13  1  1  0  0  0
 10  9  1  6  0  0  0
 11 14  1  6  0  0  0
 11 12  1  0  0  0  0
 11 10  1  0  0  0  0
 12 15  1  0  0  0  0
 12  7  1  1  0  0  0
 12 10  1  0  0  0  0
 15 16  1  1  0  0  0
 15  8  1  0  0  0  0
 16 17  1  0  0  0  0
 18 16  2  0  0  0  0
 19 20  1  0  0  0  0
 19 11  1  0  0  0  0
 21  1  1  0  0  0  0
 22 21  1  0  0  0  0
 22 25  1  0  0  0  0
 23 26  2  0  0  0  0
 26 25  1  0  0  0  0
 26 24  1  0  0  0  0
 27 24  1  6  0  0  0
 27 36  1  0  0  0  0
 28 32  1  0  0  0  0
 29 35  1  0  0  0  0
 30 28  2  0  0  0  0
 31 37  1  0  0  0  0
 32 34  1  0  0  0  0
 33 31  1  0  0  0  0
 34 35  1  0  0  0  0
 35 38  1  6  0  0  0
 36 30  1  0  0  0  0
 36 31  2  0  0  0  0
 37 32  2  0  0  0  0
 37 29  1  0  0  0  0
 38 39  1  0  0  0  0
 39 41  1  0  0  0  0
 40 39  2  0  0  0  0
 42 47  1  0  0  0  0
 43 46  1  0  0  0  0
 43 42  2  0  0  0  0
 45 44  1  0  0  0  0
 46 45  2  0  0  0  0
 47 44  2  0  0  0  0
 47 27  1  0  0  0  0
 48 49  1  0  0  0  0
 49 51  1  0  0  0  0
 50 54  1  0  0  0  0
 51 52  1  0  0  0  0
 52 54  2  0  0  0  0
 53 50  2  0  0  0  0
 55 51  2  0  0  0  0
 55 53  1  0  0  0  0
M  END
>  <MODEL>
7

>  <REMARK>
 VINA RESULT:      -7.4      4.477      9.618
  Name = 
  17 active torsions:
  status: ('A' for Active; 'I' for Inactive)
    1  A    between atoms: C_1  and  C_53
    2  A    between atoms: N_4  and  C_35
    3  A    between atoms: N_4  and  N_37
    4  A    between atoms: C_6  and  S_20
    5  A    between atoms: C_8  and  N_22
    6  A    between atoms: C_8  and  C_43
    7  A    between atoms: C_10  and  C_32
    8  A    between atoms: O_11  and  C_29
    9  A    between atoms: N_19  and  C_45
   10  A    between atoms: S_20  and  N_22
   11  A    between atoms: C_26  and  C_45
   12  A    between atoms: C_27  and  C_51
   13  A    between atoms: C_32  and  C_48
   14  A    between atoms: C_35  and  C_43
   15  A    between atoms: C_43  and  C_54
   16  A    between atoms: C_45  and  C_49
   17  A    between atoms: C_51  and  C_54
                            x       y       z     vdW  Elec       q    Type
                         _______ _______ _______ _____ _____    ______ ____

>  <TORSDO>
F 17

$$$$
=
 OpenBabel10262420263D

 55 60  0  0  1  0  0  0  0  0999 V2000
  188.9560  176.6550  138.6730 C   0  0  1  0  0  3  0  0  0  0  0  0
  189.6360  177.3910  139.8220 C   0  0  0  0  0  2  0  0  0  0  0  0
  189.1030  176.9770  141.1090 N   0  0  0  0  0  2  0  0  0  0  0  0
  190.4940  175.2840  142.5890 O   0  0  0  0  0  0  0  0  0  0  0  0
  190.4180  176.7430  142.2210 S   0  0  0  0  0  0  0  0  0  0  0  0
  191.6980  177.1360  141.5370 O   0  0  0  0  0  0  0  0  0  0  0  0
  189.4610  177.8140  147.1390 O   0  0  0  0  0  1  0  0  0  0  0  0
  190.2260  177.7320  143.7080 C   0  0  1  0  0  0  0  0  0  0  0  0
  191.5020  177.9700  144.2670 O   0  0  0  0  0  0  0  0  0  0  0  0
  191.3380  178.0410  145.6690 C   0  0  2  0  0  3  0  0  0  0  0  0
  191.5210  176.6780  146.3200 C   0  0  1  0  0  0  0  0  0  0  0  0
  190.1200  177.2150  146.0600 C   0  0  1  0  0  0  0  0  0  0  0  0
  189.6390  178.9620  143.3800 O   0  0  0  0  0  1  0  0  0  0  0  0
  191.9740  175.6490  145.4740 O   0  0  0  0  0  1  0  0  0  0  0  0
  189.4000  176.9710  144.7480 C   0  0  1  0  0  3  0  0  0  0  0  0
  187.9260  177.3110  144.7490 C   0  0  0  0  0  0  0  0  0  0  0  0
  187.1320  176.7420  143.9510 O   0  0  0  0  0  0  0  0  0  0  0  0
  187.4320  178.1640  145.7280 O   0  0  0  0  0  1  0  0  0  0  0  0
  191.9840  176.7510  147.6550 O   0  0  0  0  0  0  0  0  0  0  0  0
  192.7670  175.6260  147.9330 C   0  0  0  0  0  1  0  0  0  0  0  0
  187.8300  177.5250  138.0780 C   0  0  0  0  0  2  0  0  0  0  0  0
  187.4630  178.6310  138.9580 N   0  0  0  0  0  2  0  0  0  0  0  0
  185.5120  178.1790  140.9170 O   0  0  0  0  0  0  0  0  0  0  0  0
  183.7600  178.8660  139.5330 N   0  0  0  0  0  2  0  0  0  0  0  0
  186.0950  178.8270  138.7490 N   0  0  0  0  0  2  0  0  0  0  0  0
  185.1370  178.5900  139.7880 C   0  0  0  0  0  0  0  0  0  0  0  0
  182.6800  178.0230  140.0270 C   0  0  2  0  0  3  0  0  0  0  0  0
  181.1770  177.5150  136.5820 N   0  0  0  0  0  0  0  0  0  0  0  0
  180.2290  174.3000  137.7390 O   0  0  0  0  0  0  0  0  0  0  0  0
  181.8010  178.0940  137.6480 C   0  0  0  0  0  3  0  0  0  0  0  0
  181.4180  176.0930  138.9830 C   0  0  0  0  0  0  0  0  0  0  0  0
  180.6950  176.2510  136.6970 C   0  0  0  0  0  0  0  0  0  0  0  0
  181.5230  175.3770  140.1340 F   0  0  0  0  0  0  0  0  0  0  0  0
  179.9560  175.4660  135.6830 C   0  0  0  0  0  2  0  0  0  0  0  0
  179.6860  174.1360  136.4280 C   0  0  1  0  0  3  0  0  0  0  0  0
  181.9430  177.3950  138.8760 C   0  0  0  0  0  0  0  0  0  0  0  0
  180.8000  175.5480  137.8590 C   0  0  0  0  0  0  0  0  0  0  0  0
  180.3670  172.9690  135.7210 C   0  0  0  0  0  2  0  0  0  0  0  0
  180.6540  171.8670  136.6830 C   0  0  0  0  0  0  0  0  0  0  0  0
  179.7050  171.2270  137.2070 O   0  0  0  0  0  0  0  0  0  0  0  0
  181.9980  171.5480  137.0300 N   0  0  0  0  0  1  0  0  0  0  0  0
  182.0360  178.7330  142.3270 C   0  0  0  0  0  3  0  0  0  0  0  0
  181.1460  179.3230  143.2280 C   0  0  0  0  0  3  0  0  0  0  0  0
  180.5870  179.3750  140.4880 C   0  0  0  0  0  3  0  0  0  0  0  0
  179.6970  179.9630  141.3960 C   0  0  0  0  0  3  0  0  0  0  0  0
  179.9720  179.9270  142.7670 C   0  0  0  0  0  3  0  0  0  0  0  0
  181.7610  178.7530  140.9540 C   0  0  0  0  0  0  0  0  0  0  0  0
  190.0130  176.2590  137.6390 C   0  0  0  0  0  2  0  0  0  0  0  0
  191.4270  176.6890  138.0310 C   0  0  0  0  0  2  0  0  0  0  0  0
  194.3720  174.2160  136.1730 C   0  0  0  0  0  3  0  0  0  0  0  0
  192.4430  175.7870  137.4060 C   0  0  0  0  0  0  0  0  0  0  0  0
  193.6760  175.6330  137.9710 N   0  0  0  0  0  0  0  0  0  0  0  0
  193.1090  174.3440  135.5960 C   0  0  0  0  0  3  0  0  0  0  0  0
  194.6360  174.8690  137.3870 C   0  0  0  0  0  3  0  0  0  0  0  0
  192.1360  175.1260  136.2140 C   0  0  0  0  0  3  0  0  0  0  0  0
  1 48  1  6  0  0  0
  1  2  1  0  0  0  0
  2  3  1  0  0  0  0
  3  5  1  0  0  0  0
  5  4  2  0  0  0  0
  5  8  1  0  0  0  0
  6  5  2  0  0  0  0
  8 13  1  6  0  0  0
  8  9  1  0  0  0  0
  8 15  1  0  0  0  0
 10  9  1  6  0  0  0
 10 12  1  0  0  0  0
 10 11  1  0  0  0  0
 11 14  1  6  0  0  0
 11 19  1  0  0  0  0
 12 11  1  0  0  0  0
 12  7  1  1  0  0  0
 15 16  1  1  0  0  0
 15 12  1  0  0  0  0
 16 18  1  0  0  0  0
 17 16  2  0  0  0  0
 19 20  1  0  0  0  0
 21  1  1  0  0  0  0
 21 22  1  0  0  0  0
 24 26  1  0  0  0  0
 25 22  1  0  0  0  0
 25 26  1  0  0  0  0
 26 23  2  0  0  0  0
 27 24  1  6  0  0  0
 27 47  1  0  0  0  0
 28 32  2  0  0  0  0
 28 30  1  0  0  0  0
 29 37  1  0  0  0  0
 30 36  2  0  0  0  0
 31 33  1  0  0  0  0
 32 37  1  0  0  0  0
 34 35  1  0  0  0  0
 34 32  1  0  0  0  0
 35 38  1  6  0  0  0
 35 29  1  0  0  0  0
 36 31  1  0  0  0  0
 36 27  1  0  0  0  0
 37 31  2  0  0  0  0
 38 39  1  0  0  0  0
 39 41  1  0  0  0  0
 39 40  2  0  0  0  0
 42 43  1  0  0  0  0
 44 47  1  0  0  0  0
 44 45  2  0  0  0  0
 45 46  1  0  0  0  0
 46 43  2  0  0  0  0
 47 42  2  0  0  0  0
 48 49  1  0  0  0  0
 50 54  1  0  0  0  0
 51 52  1  0  0  0  0
 51 49  1  0  0  0  0
 53 50  2  0  0  0  0
 53 55  1  0  0  0  0
 54 52  2  0  0  0  0
 55 51  2  0  0  0  0
M  END
>  <MODEL>
8

>  <REMARK>
 VINA RESULT:      -7.3      3.849      8.488
  Name = 
  17 active torsions:
  status: ('A' for Active; 'I' for Inactive)
    1  A    between atoms: C_1  and  C_53
    2  A    between atoms: N_4  and  C_35
    3  A    between atoms: N_4  and  N_37
    4  A    between atoms: C_6  and  S_20
    5  A    between atoms: C_8  and  N_22
    6  A    between atoms: C_8  and  C_43
    7  A    between atoms: C_10  and  C_32
    8  A    between atoms: O_11  and  C_29
    9  A    between atoms: N_19  and  C_45
   10  A    between atoms: S_20  and  N_22
   11  A    between atoms: C_26  and  C_45
   12  A    between atoms: C_27  and  C_51
   13  A    between atoms: C_32  and  C_48
   14  A    between atoms: C_35  and  C_43
   15  A    between atoms: C_43  and  C_54
   16  A    between atoms: C_45  and  C_49
   17  A    between atoms: C_51  and  C_54
                            x       y       z     vdW  Elec       q    Type
                         _______ _______ _______ _____ _____    ______ ____

>  <TORSDO>
F 17

$$$$
=
 OpenBabel10262420263D

 55 60  0  0  1  0  0  0  0  0999 V2000
  183.8730  177.4710  139.0860 C   0  0  1  0  0  3  0  0  0  0  0  0
  183.0590  177.3110  137.8070 C   0  0  0  0  0  2  0  0  0  0  0  0
  183.8350  176.6740  136.7570 N   0  0  0  0  0  2  0  0  0  0  0  0
  182.3000  174.7180  137.6550 O   0  0  0  0  0  0  0  0  0  0  0  0
  183.3610  175.0080  136.6270 S   0  0  0  0  0  0  0  0  0  0  0  0
  182.7830  174.7810  135.2570 O   0  0  0  0  0  0  0  0  0  0  0  0
  187.2290  171.8880  135.3770 O   0  0  0  0  0  1  0  0  0  0  0  0
  184.7500  173.8930  136.8610 C   0  0  1  0  0  0  0  0  0  0  0  0
  185.9110  174.6560  137.1210 O   0  0  0  0  0  0  0  0  0  0  0  0
  187.0070  173.9470  136.5800 C   0  0  2  0  0  3  0  0  0  0  0  0
  187.2880  174.3670  135.1440 C   0  0  1  0  0  0  0  0  0  0  0  0
  186.5100  173.0880  135.4240 C   0  0  1  0  0  0  0  0  0  0  0  0
  184.5010  173.0590  137.9600 O   0  0  0  0  0  1  0  0  0  0  0  0
  186.5500  175.4680  134.6720 O   0  0  0  0  0  1  0  0  0  0  0  0
  185.0030  173.0860  135.5850 C   0  0  1  0  0  3  0  0  0  0  0  0
  184.3550  171.7190  135.5670 C   0  0  0  0  0  0  0  0  0  0  0  0
  183.1100  171.5970  135.4090 O   0  0  0  0  0  0  0  0  0  0  0  0
  185.1640  170.5900  135.5990 O   0  0  0  0  0  1  0  0  0  0  0  0
  188.6430  174.2100  134.7680 O   0  0  0  0  0  0  0  0  0  0  0  0
  189.2210  175.4720  134.5940 C   0  0  0  0  0  1  0  0  0  0  0  0
  184.5600  178.8500  139.1080 C   0  0  0  0  0  2  0  0  0  0  0  0
  185.7110  178.9090  138.2120 N   0  0  0  0  0  2  0  0  0  0  0  0
  187.8720  177.1630  137.8380 O   0  0  0  0  0  0  0  0  0  0  0  0
  189.0550  178.0090  139.6650 N   0  0  0  0  0  2  0  0  0  0  0  0
  186.8300  178.8680  139.0500 N   0  0  0  0  0  2  0  0  0  0  0  0
  187.9130  177.9620  138.8100 C   0  0  0  0  0  0  0  0  0  0  0  0
  189.7660  176.8160  140.1010 C   0  0  2  0  0  3  0  0  0  0  0  0
  191.9920  177.6590  143.0550 N   0  0  0  0  0  0  0  0  0  0  0  0
  189.2180  176.7780  145.0820 O   0  0  0  0  0  0  0  0  0  0  0  0
  191.5610  177.4550  141.7770 C   0  0  0  0  0  3  0  0  0  0  0  0
  189.3910  176.7220  142.6030 C   0  0  0  0  0  0  0  0  0  0  0  0
  191.1460  177.4190  144.0900 C   0  0  0  0  0  0  0  0  0  0  0  0
  188.1230  176.2700  142.4150 F   0  0  0  0  0  0  0  0  0  0  0  0
  191.4280  177.5350  145.5380 C   0  0  0  0  0  2  0  0  0  0  0  0
  190.0780  177.1180  146.1710 C   0  0  1  0  0  3  0  0  0  0  0  0
  190.2470  176.9860  141.5160 C   0  0  0  0  0  0  0  0  0  0  0  0
  189.8800  176.9590  143.8870 C   0  0  0  0  0  0  0  0  0  0  0  0
  189.4760  178.2650  146.9760 C   0  0  0  0  0  2  0  0  0  0  0  0
  188.1240  177.8980  147.4830 C   0  0  0  0  0  0  0  0  0  0  0  0
  187.1140  178.0440  146.7460 O   0  0  0  0  0  0  0  0  0  0  0  0
  187.9660  177.4010  148.8090 N   0  0  0  0  0  1  0  0  0  0  0  0
  190.7270  175.2870  138.3850 C   0  0  0  0  0  3  0  0  0  0  0  0
  191.7820  174.8510  137.5770 C   0  0  0  0  0  3  0  0  0  0  0  0
  192.0870  177.1520  139.1400 C   0  0  0  0  0  3  0  0  0  0  0  0
  193.1410  176.7090  138.3310 C   0  0  0  0  0  3  0  0  0  0  0  0
  192.9920  175.5530  137.5580 C   0  0  0  0  0  3  0  0  0  0  0  0
  190.8750  176.4360  139.1720 C   0  0  0  0  0  0  0  0  0  0  0  0
  182.9600  177.2390  140.2920 C   0  0  0  0  0  2  0  0  0  0  0  0
  182.5910  178.5300  141.0230 C   0  0  0  0  0  2  0  0  0  0  0  0
  184.4130  178.7490  144.8790 C   0  0  0  0  0  3  0  0  0  0  0  0
  183.2170  178.5620  142.3800 C   0  0  0  0  0  0  0  0  0  0  0  0
  182.4850  178.9240  143.4750 N   0  0  0  0  0  0  0  0  0  0  0  0
  185.1690  178.3540  143.7760 C   0  0  0  0  0  3  0  0  0  0  0  0
  183.0470  179.0220  144.7070 C   0  0  0  0  0  3  0  0  0  0  0  0
  184.5720  178.2540  142.5210 C   0  0  0  0  0  3  0  0  0  0  0  0
  1  2  1  6  0  0  0
  1 21  1  0  0  0  0
  1 48  1  0  0  0  0
  3  2  1  0  0  0  0
  5  3  1  0  0  0  0
  5  8  1  0  0  0  0
  5  4  2  0  0  0  0
  6  5  2  0  0  0  0
  8  9  1  0  0  0  0
  8 13  1  1  0  0  0
 10  9  1  6  0  0  0
 11 14  1  6  0  0  0
 11 12  1  0  0  0  0
 11 10  1  0  0  0  0
 12  7  1  6  0  0  0
 12 15  1  0  0  0  0
 12 10  1  0  0  0  0
 15 16  1  1  0  0  0
 15  8  1  0  0  0  0
 16 18  1  0  0  0  0
 17 16  2  0  0  0  0
 19 11  1  0  0  0  0
 20 19  1  0  0  0  0
 22 25  1  0  0  0  0
 22 21  1  0  0  0  0
 23 26  2  0  0  0  0
 26 25  1  0  0  0  0
 26 24  1  0  0  0  0
 27 24  1  6  0  0  0
 27 36  1  0  0  0  0
 28 32  1  0  0  0  0
 29 35  1  0  0  0  0
 30 28  2  0  0  0  0
 31 37  1  0  0  0  0
 32 34  1  0  0  0  0
 33 31  1  0  0  0  0
 34 35  1  0  0  0  0
 35 38  1  6  0  0  0
 36 30  1  0  0  0  0
 36 31  2  0  0  0  0
 37 32  2  0  0  0  0
 37 29  1  0  0  0  0
 38 39  1  0  0  0  0
 39 41  1  0  0  0  0
 40 39  2  0  0  0  0
 42 47  1  0  0  0  0
 43 42  2  0  0  0  0
 44 47  2  0  0  0  0
 45 44  1  0  0  0  0
 46 43  1  0  0  0  0
 46 45  2  0  0  0  0
 47 27  1  0  0  0  0
 48 49  1  0  0  0  0
 49 51  1  0  0  0  0
 51 55  2  0  0  0  0
 51 52  1  0  0  0  0
 52 54  2  0  0  0  0
 53 50  2  0  0  0  0
 54 50  1  0  0  0  0
 55 53  1  0  0  0  0
M  END
>  <MODEL>
9

>  <REMARK>
 VINA RESULT:      -7.3      3.979      8.298
  Name = 
  17 active torsions:
  status: ('A' for Active; 'I' for Inactive)
    1  A    between atoms: C_1  and  C_53
    2  A    between atoms: N_4  and  C_35
    3  A    between atoms: N_4  and  N_37
    4  A    between atoms: C_6  and  S_20
    5  A    between atoms: C_8  and  N_22
    6  A    between atoms: C_8  and  C_43
    7  A    between atoms: C_10  and  C_32
    8  A    between atoms: O_11  and  C_29
    9  A    between atoms: N_19  and  C_45
   10  A    between atoms: S_20  and  N_22
   11  A    between atoms: C_26  and  C_45
   12  A    between atoms: C_27  and  C_51
   13  A    between atoms: C_32  and  C_48
   14  A    between atoms: C_35  and  C_43
   15  A    between atoms: C_43  and  C_54
   16  A    between atoms: C_45  and  C_49
   17  A    between atoms: C_51  and  C_54
                            x       y       z     vdW  Elec       q    Type
                         _______ _______ _______ _____ _____    ______ ____

>  <TORSDO>
F 17

$$$$
