=
 OpenBabel10262422523D

 37 41  0  0  1  0  0  0  0  0999 V2000
  181.7190  175.8870  135.8760 C   0  0  0  0  0  0  0  0  0  0  0  0
  180.9140  172.8340  136.8000 C   0  0  0  0  0  0  0  0  0  0  0  0
  184.8270  174.3900  136.6790 C   0  0  2  0  0  3  0  0  0  0  0  0
  180.7980  175.4970  136.9940 C   0  0  2  0  0  0  0  0  0  0  0  0
  185.8040  176.6760  136.6520 C   0  0  1  0  0  3  0  0  0  0  0  0
  182.8260  171.1280  136.5010 C   0  0  0  0  0  3  0  0  0  0  0  0
  183.8030  176.9850  135.0560 C   0  0  0  0  0  2  0  0  0  0  0  0
  181.7010  174.9400  138.1040 C   0  0  2  0  0  3  0  0  0  0  0  0
  182.9830  173.2850  135.5450 O   0  0  0  0  0  0  0  0  0  0  0  0
  184.0750  170.8430  136.1280 C   0  0  0  0  0  3  0  0  0  0  0  0
  181.9480  177.0940  139.4270 C   0  0  0  0  0  2  0  0  0  0  0  0
  181.4960  175.4530  134.7130 O   0  0  0  0  0  0  0  0  0  0  0  0
  180.5370  174.1060  137.6060 C   0  0  2  0  0  3  0  0  0  0  0  0
  185.0660  171.9460  135.8610 C   0  0  0  0  0  2  0  0  0  0  0  0
  180.2180  172.8480  135.4460 C   0  0  0  0  0  1  0  0  0  0  0  0
  183.1420  177.3590  138.5080 C   0  0  0  0  0  2  0  0  0  0  0  0
  185.1370  177.5360  135.5720 C   0  0  0  0  0  2  0  0  0  0  0  0
  184.3930  173.3280  135.6700 C   0  0  2  0  0  3  0  0  0  0  0  0
  182.7990  176.8200  136.1080 N   0  0  0  0  0  0  0  0  0  0  0  0
  182.4440  172.5790  136.6410 C   0  0  1  0  0  3  0  0  0  0  0  0
  186.0160  175.2200  136.1930 C   0  0  1  0  0  3  0  0  0  0  0  0
  180.2800  171.6980  137.5930 C   0  0  0  0  0  1  0  0  0  0  0  0
  182.6680  177.8550  137.1400 C   0  0  0  0  0  2  0  0  0  0  0  0
  181.4860  175.6280  139.4480 C   0  0  0  0  0  2  0  0  0  0  0  0
  185.0160  173.8710  137.9640 O   0  0  0  0  0  1  0  0  0  0  0  0
  187.9430  177.9930  136.3240 C   0  0  0  0  0  3  0  0  0  0  0  0
  187.0250  177.3700  137.1840 C   0  0  0  0  0  0  0  0  0  0  0  0
  187.2550  177.3770  138.5640 C   0  0  0  0  0  3  0  0  0  0  0  0
  188.6100  178.0130  140.4200 F   0  0  0  0  0  0  0  0  0  0  0  0
  189.3020  178.6280  138.2230 C   0  0  0  0  0  3  0  0  0  0  0  0
  188.3910  178.0060  139.0830 C   0  0  0  0  0  0  0  0  0  0  0  0
  189.0780  178.6210  136.8430 C   0  0  0  0  0  3  0  0  0  0  0  0
  179.1050  177.1180  136.1220 C   0  0  0  0  0  1  0  0  0  0  0  0
  179.7210  176.5160  137.3700 C   0  0  0  0  0  2  0  0  0  0  0  0
  187.3550  174.5980  136.6060 C   0  0  0  0  0  2  0  0  0  0  0  0
  189.4480  174.9000  135.5000 O   0  0  0  0  0  1  0  0  0  0  0  0
  188.2040  174.2800  135.3880 C   0  0  0  0  0  2  0  0  0  0  0  0
  1 19  1  0  0  0  0
  1  4  1  0  0  0  0
  2 22  1  0  0  0  0
  3 25  1  1  0  0  0
  4 34  1  1  0  0  0
  4 13  1  0  0  0  0
  4  8  1  0  0  0  0
  5 27  1  6  0  0  0
  7 17  1  0  0  0  0
  7 19  1  0  0  0  0
  8 24  1  1  0  0  0
  9 18  1  0  0  0  0
  9 20  1  0  0  0  0
 10  6  2  0  0  0  0
 11 24  1  0  0  0  0
 12  1  2  0  0  0  0
 13  2  1  6  0  0  0
 13  8  1  0  0  0  0
 14 10  1  0  0  0  0
 15  2  1  0  0  0  0
 16 11  1  0  0  0  0
 17  5  1  0  0  0  0
 18 14  1  1  0  0  0
 18  3  1  0  0  0  0
 19 23  1  0  0  0  0
 20  6  1  6  0  0  0
 20  2  1  0  0  0  0
 21 35  1  1  0  0  0
 21  5  1  0  0  0  0
 21  3  1  0  0  0  0
 23 16  1  0  0  0  0
 26 32  2  0  0  0  0
 26 27  1  0  0  0  0
 27 28  2  0  0  0  0
 28 31  1  0  0  0  0
 30 31  2  0  0  0  0
 31 29  1  0  0  0  0
 32 30  1  0  0  0  0
 33 34  1  0  0  0  0
 37 36  1  0  0  0  0
 37 35  1  0  0  0  0
M  END
>  <MODEL>
1

>  <REMARK>
 VINA RESULT:      -5.3      0.000      0.000
  Name = 
  4 active torsions:
  status: ('A' for Active; 'I' for Inactive)
    1  A    between atoms: C_5  and  C_23
    2  A    between atoms: C_6  and  C_7
    3  A    between atoms: C_14  and  C_31
    4  A    between atoms: C_14  and  C_37
                            x       y       z     vdW  Elec       q    Type
                         _______ _______ _______ _____ _____    ______ ____

>  <TORSDO>
F 4

$$$$
=
 OpenBabel10262422523D

 37 41  0  0  1  0  0  0  0  0999 V2000
  182.4050  176.3750  136.0940 C   0  0  0  0  0  0  0  0  0  0  0  0
  180.8680  173.6580  137.1340 C   0  0  0  0  0  0  0  0  0  0  0  0
  185.0390  174.0960  136.7390 C   0  0  2  0  0  3  0  0  0  0  0  0
  181.4880  176.2540  137.2760 C   0  0  2  0  0  0  0  0  0  0  0  0
  186.5920  176.0320  136.6010 C   0  0  1  0  0  3  0  0  0  0  0  0
  182.2260  171.4960  136.7570 C   0  0  0  0  0  3  0  0  0  0  0  0
  184.6500  176.8630  135.1240 C   0  0  0  0  0  2  0  0  0  0  0  0
  182.2770  175.4790  138.3400 C   0  0  2  0  0  3  0  0  0  0  0  0
  182.8960  173.5260  135.7450 O   0  0  0  0  0  0  0  0  0  0  0  0
  183.3250  170.8820  136.3150 C   0  0  0  0  0  3  0  0  0  0  0  0
  183.1810  177.4920  139.5970 C   0  0  0  0  0  2  0  0  0  0  0  0
  181.9990  176.0110  134.9570 O   0  0  0  0  0  0  0  0  0  0  0  0
  180.9010  174.9890  137.9330 C   0  0  2  0  0  3  0  0  0  0  0  0
  184.5570  171.6740  135.9630 C   0  0  0  0  0  2  0  0  0  0  0  0
  180.1160  173.8530  135.8250 C   0  0  0  0  0  1  0  0  0  0  0  0
  184.3400  177.4200  138.6010 C   0  0  0  0  0  2  0  0  0  0  0  0
  186.1140  177.0350  135.5450 C   0  0  0  0  0  2  0  0  0  0  0  0
  184.2700  173.1860  135.7830 C   0  0  2  0  0  3  0  0  0  0  0  0
  183.7090  176.9810  136.2390 N   0  0  0  0  0  0  0  0  0  0  0  0
  182.2590  172.9970  136.8880 C   0  0  1  0  0  3  0  0  0  0  0  0
  186.3740  174.5710  136.1640 C   0  0  1  0  0  3  0  0  0  0  0  0
  180.0050  172.7400  137.9900 C   0  0  0  0  0  1  0  0  0  0  0  0
  183.9300  178.0180  137.2540 C   0  0  0  0  0  2  0  0  0  0  0  0
  182.3430  176.2060  139.6790 C   0  0  0  0  0  2  0  0  0  0  0  0
  185.1640  173.5520  138.0220 O   0  0  0  0  0  1  0  0  0  0  0  0
  188.2470  176.8560  138.3340 C   0  0  0  0  0  3  0  0  0  0  0  0
  187.9870  176.3720  137.0420 C   0  0  0  0  0  0  0  0  0  0  0  0
  189.0430  176.2190  136.1360 C   0  0  0  0  0  3  0  0  0  0  0  0
  191.3690  176.3880  135.6390 F   0  0  0  0  0  0  0  0  0  0  0  0
  190.6040  177.0190  137.8070 C   0  0  0  0  0  3  0  0  0  0  0  0
  190.3500  176.5400  136.5180 C   0  0  0  0  0  0  0  0  0  0  0  0
  189.5520  177.1770  138.7150 C   0  0  0  0  0  3  0  0  0  0  0  0
  180.2590  178.2790  136.4710 C   0  0  0  0  0  1  0  0  0  0  0  0
  180.7520  177.5280  137.6930 C   0  0  0  0  0  2  0  0  0  0  0  0
  187.5200  173.6110  136.5080 C   0  0  0  0  0  2  0  0  0  0  0  0
  188.0710  171.4700  135.6110 O   0  0  0  0  0  1  0  0  0  0  0  0
  187.9490  172.8210  135.2850 C   0  0  0  0  0  2  0  0  0  0  0  0
  1 19  1  0  0  0  0
  1  4  1  0  0  0  0
  2 22  1  0  0  0  0
  3 25  1  1  0  0  0
  4 34  1  1  0  0  0
  4 13  1  0  0  0  0
  4  8  1  0  0  0  0
  5 27  1  6  0  0  0
  7 17  1  0  0  0  0
  7 19  1  0  0  0  0
  8 24  1  1  0  0  0
  9 18  1  0  0  0  0
  9 20  1  0  0  0  0
 10  6  2  0  0  0  0
 11 24  1  0  0  0  0
 12  1  2  0  0  0  0
 13  2  1  6  0  0  0
 13  8  1  0  0  0  0
 14 10  1  0  0  0  0
 15  2  1  0  0  0  0
 16 11  1  0  0  0  0
 17  5  1  0  0  0  0
 18 14  1  1  0  0  0
 18  3  1  0  0  0  0
 19 23  1  0  0  0  0
 20  6  1  6  0  0  0
 20  2  1  0  0  0  0
 21 35  1  1  0  0  0
 21  5  1  0  0  0  0
 21  3  1  0  0  0  0
 23 16  1  0  0  0  0
 26 32  1  0  0  0  0
 27 26  2  0  0  0  0
 28 31  2  0  0  0  0
 28 27  1  0  0  0  0
 29 31  1  0  0  0  0
 30 32  2  0  0  0  0
 31 30  1  0  0  0  0
 33 34  1  0  0  0  0
 37 36  1  0  0  0  0
 37 35  1  0  0  0  0
M  END
>  <MODEL>
2

>  <REMARK>
 VINA RESULT:      -4.9      1.592      1.768
  Name = 
  4 active torsions:
  status: ('A' for Active; 'I' for Inactive)
    1  A    between atoms: C_5  and  C_23
    2  A    between atoms: C_6  and  C_7
    3  A    between atoms: C_14  and  C_31
    4  A    between atoms: C_14  and  C_37
                            x       y       z     vdW  Elec       q    Type
                         _______ _______ _______ _____ _____    ______ ____

>  <TORSDO>
F 4

$$$$
=
 OpenBabel10262422523D

 37 41  0  0  1  0  0  0  0  0999 V2000
  186.8990  177.3850  135.7470 C   0  0  0  0  0  0  0  0  0  0  0  0
  188.2480  177.6310  138.7370 C   0  0  0  0  0  0  0  0  0  0  0  0
  184.1210  177.3490  137.9440 C   0  0  2  0  0  3  0  0  0  0  0  0
  187.8970  176.4500  136.3660 C   0  0  2  0  0  0  0  0  0  0  0  0
  182.7560  176.5660  136.0190 C   0  0  1  0  0  3  0  0  0  0  0  0
  186.6610  178.6370  140.5060 C   0  0  0  0  0  3  0  0  0  0  0  0
  184.6380  177.8330  134.7950 C   0  0  0  0  0  2  0  0  0  0  0  0
  187.1290  175.6740  137.4450 C   0  0  2  0  0  3  0  0  0  0  0  0
  186.1070  178.7240  138.2080 O   0  0  0  0  0  0  0  0  0  0  0  0
  185.4740  179.1480  140.8380 C   0  0  0  0  0  3  0  0  0  0  0  0
  186.5340  173.6550  136.0240 C   0  0  0  0  0  2  0  0  0  0  0  0
  187.1710  178.6130  135.6670 O   0  0  0  0  0  0  0  0  0  0  0  0
  188.4110  176.3910  137.8180 C   0  0  2  0  0  3  0  0  0  0  0  0
  184.2990  179.0310  139.9030 C   0  0  0  0  0  2  0  0  0  0  0  0
  188.9030  178.8470  138.0960 C   0  0  0  0  0  1  0  0  0  0  0  0
  185.2920  174.4640  135.6400 C   0  0  0  0  0  2  0  0  0  0  0  0
  183.2390  177.2130  134.7150 C   0  0  0  0  0  2  0  0  0  0  0  0
  184.7140  178.6590  138.4570 C   0  0  2  0  0  3  0  0  0  0  0  0
  185.6770  176.8730  135.1700 N   0  0  0  0  0  0  0  0  0  0  0  0
  186.7840  177.9470  139.1720 C   0  0  1  0  0  3  0  0  0  0  0  0
  182.7940  177.5440  137.2080 C   0  0  1  0  0  3  0  0  0  0  0  0
  189.0880  177.2900  139.9620 C   0  0  0  0  0  1  0  0  0  0  0  0
  185.6440  175.5230  134.5940 C   0  0  0  0  0  2  0  0  0  0  0  0
  187.2470  174.1610  137.2870 C   0  0  0  0  0  2  0  0  0  0  0  0
  184.0530  176.3600  138.9320 O   0  0  0  0  0  1  0  0  0  0  0  0
  180.3810  176.5140  135.1410 C   0  0  0  0  0  3  0  0  0  0  0  0
  181.4430  175.8720  135.7960 C   0  0  0  0  0  0  0  0  0  0  0  0
  181.2750  174.5650  136.2680 C   0  0  0  0  0  3  0  0  0  0  0  0
  179.9010  172.6360  136.5400 F   0  0  0  0  0  0  0  0  0  0  0  0
  179.0040  174.5440  135.4280 C   0  0  0  0  0  3  0  0  0  0  0  0
  180.0580  173.9020  136.0830 C   0  0  0  0  0  0  0  0  0  0  0  0
  179.1650  175.8510  134.9570 C   0  0  0  0  0  3  0  0  0  0  0  0
  189.7150  176.6120  134.6560 C   0  0  0  0  0  1  0  0  0  0  0  0
  188.7850  175.6700  135.3950 C   0  0  0  0  0  2  0  0  0  0  0  0
  181.5940  177.4580  138.1590 C   0  0  0  0  0  2  0  0  0  0  0  0
  181.3440  179.6600  137.2720 O   0  0  0  0  0  1  0  0  0  0  0  0
  180.9040  178.8050  138.2830 C   0  0  0  0  0  2  0  0  0  0  0  0
  1  4  1  0  0  0  0
  2 20  1  0  0  0  0
  2 22  1  0  0  0  0
  3 18  1  0  0  0  0
  3 25  1  1  0  0  0
  4 34  1  6  0  0  0
  4  8  1  0  0  0  0
  4 13  1  0  0  0  0
  5 27  1  6  0  0  0
  5 21  1  0  0  0  0
  6 10  2  0  0  0  0
  7 19  1  0  0  0  0
  8 24  1  6  0  0  0
  8 13  1  0  0  0  0
  9 18  1  0  0  0  0
  9 20  1  0  0  0  0
 11 24  1  0  0  0  0
 12  1  2  0  0  0  0
 13  2  1  1  0  0  0
 14 10  1  0  0  0  0
 15  2  1  0  0  0  0
 16 11  1  0  0  0  0
 17  7  1  0  0  0  0
 17  5  1  0  0  0  0
 18 14  1  1  0  0  0
 19  1  1  0  0  0  0
 20  6  1  1  0  0  0
 21  3  1  0  0  0  0
 21 35  1  1  0  0  0
 23 19  1  0  0  0  0
 23 16  1  0  0  0  0
 26 27  1  0  0  0  0
 27 28  2  0  0  0  0
 30 31  2  0  0  0  0
 31 28  1  0  0  0  0
 31 29  1  0  0  0  0
 32 26  2  0  0  0  0
 32 30  1  0  0  0  0
 33 34  1  0  0  0  0
 35 37  1  0  0  0  0
 36 37  1  0  0  0  0
M  END
>  <MODEL>
3

>  <REMARK>
 VINA RESULT:      -4.5      2.824      7.579
  Name = 
  4 active torsions:
  status: ('A' for Active; 'I' for Inactive)
    1  A    between atoms: C_5  and  C_23
    2  A    between atoms: C_6  and  C_7
    3  A    between atoms: C_14  and  C_31
    4  A    between atoms: C_14  and  C_37
                            x       y       z     vdW  Elec       q    Type
                         _______ _______ _______ _____ _____    ______ ____

>  <TORSDO>
F 4

$$$$
=
 OpenBabel10262422523D

 37 41  0  0  1  0  0  0  0  0999 V2000
  188.3810  176.7500  135.7320 C   0  0  0  0  0  0  0  0  0  0  0  0
  186.0480  174.6600  136.7360 C   0  0  0  0  0  0  0  0  0  0  0  0
  190.1180  173.7030  136.2240 C   0  0  2  0  0  3  0  0  0  0  0  0
  187.4990  176.8950  136.9370 C   0  0  2  0  0  0  0  0  0  0  0  0
  192.2240  175.0170  136.0970 C   0  0  1  0  0  3  0  0  0  0  0  0
  186.6000  172.1860  136.2510 C   0  0  0  0  0  3  0  0  0  0  0  0
  190.6420  176.5030  134.7070 C   0  0  0  0  0  2  0  0  0  0  0  0
  188.0050  175.8610  137.9520 C   0  0  2  0  0  3  0  0  0  0  0  0
  187.8880  173.9160  135.2810 O   0  0  0  0  0  0  0  0  0  0  0  0
  187.4230  171.2600  135.7570 C   0  0  0  0  0  3  0  0  0  0  0  0
  189.5530  177.4080  139.2420 C   0  0  0  0  0  2  0  0  0  0  0  0
  187.8550  176.5870  134.5980 O   0  0  0  0  0  0  0  0  0  0  0  0
  186.5380  175.8710  137.5740 C   0  0  2  0  0  3  0  0  0  0  0  0
  188.8410  171.6110  135.3900 C   0  0  0  0  0  2  0  0  0  0  0  0
  185.3780  175.1450  135.4580 C   0  0  0  0  0  1  0  0  0  0  0  0
  190.6020  176.9940  138.2080 C   0  0  0  0  0  2  0  0  0  0  0  0
  192.0870  176.1620  135.0880 C   0  0  0  0  0  2  0  0  0  0  0  0
  189.0710  173.1380  135.2660 C   0  0  2  0  0  3  0  0  0  0  0  0
  189.8150  176.8830  135.8540 N   0  0  0  0  0  0  0  0  0  0  0  0
  187.1340  173.5850  136.4270 C   0  0  1  0  0  3  0  0  0  0  0  0
  191.5230  173.7300  135.6220 C   0  0  1  0  0  3  0  0  0  0  0  0
  184.9440  174.0480  137.5910 C   0  0  0  0  0  1  0  0  0  0  0  0
  190.3880  177.7470  136.8930 C   0  0  0  0  0  2  0  0  0  0  0  0
  188.3360  176.4710  139.3110 C   0  0  0  0  0  2  0  0  0  0  0  0
  190.0790  173.0980  137.4860 O   0  0  0  0  0  1  0  0  0  0  0  0
  194.6990  174.9380  135.5630 C   0  0  0  0  0  3  0  0  0  0  0  0
  193.6610  174.8570  136.5040 C   0  0  0  0  0  0  0  0  0  0  0  0
  193.9630  174.6050  137.8470 C   0  0  0  0  0  3  0  0  0  0  0  0
  195.5810  174.1990  139.5500 F   0  0  0  0  0  0  0  0  0  0  0  0
  196.3240  174.5250  137.3090 C   0  0  0  0  0  3  0  0  0  0  0  0
  195.2930  174.4400  138.2490 C   0  0  0  0  0  0  0  0  0  0  0  0
  196.0270  174.7730  135.9650 C   0  0  0  0  0  3  0  0  0  0  0  0
  187.4040  179.3040  136.2720 C   0  0  0  0  0  1  0  0  0  0  0  0
  187.2380  178.3240  137.4170 C   0  0  0  0  0  2  0  0  0  0  0  0
  192.2900  172.4310  135.9010 C   0  0  0  0  0  2  0  0  0  0  0  0
  193.8060  170.9030  134.8710 O   0  0  0  0  0  1  0  0  0  0  0  0
  192.7670  171.7960  134.6070 C   0  0  0  0  0  2  0  0  0  0  0  0
  1 19  1  0  0  0  0
  1  4  1  0  0  0  0
  2 22  1  0  0  0  0
  3 25  1  1  0  0  0
  4 34  1  1  0  0  0
  4 13  1  0  0  0  0
  4  8  1  0  0  0  0
  5 27  1  6  0  0  0
  7 17  1  0  0  0  0
  7 19  1  0  0  0  0
  8 24  1  1  0  0  0
  9 20  1  0  0  0  0
 10  6  2  0  0  0  0
 11 24  1  0  0  0  0
 12  1  2  0  0  0  0
 13  2  1  6  0  0  0
 13  8  1  0  0  0  0
 14 10  1  0  0  0  0
 15  2  1  0  0  0  0
 16 11  1  0  0  0  0
 17  5  1  0  0  0  0
 18  9  1  0  0  0  0
 18 14  1  1  0  0  0
 18  3  1  0  0  0  0
 19 23  1  0  0  0  0
 20  6  1  6  0  0  0
 20  2  1  0  0  0  0
 21 35  1  1  0  0  0
 21  5  1  0  0  0  0
 21  3  1  0  0  0  0
 23 16  1  0  0  0  0
 26 32  2  0  0  0  0
 26 27  1  0  0  0  0
 27 28  2  0  0  0  0
 28 31  1  0  0  0  0
 30 31  2  0  0  0  0
 31 29  1  0  0  0  0
 32 30  1  0  0  0  0
 33 34  1  0  0  0  0
 37 36  1  0  0  0  0
 37 35  1  0  0  0  0
M  END
>  <MODEL>
4

>  <REMARK>
 VINA RESULT:      -3.3      4.076      6.483
  Name = 
  4 active torsions:
  status: ('A' for Active; 'I' for Inactive)
    1  A    between atoms: C_5  and  C_23
    2  A    between atoms: C_6  and  C_7
    3  A    between atoms: C_14  and  C_31
    4  A    between atoms: C_14  and  C_37
                            x       y       z     vdW  Elec       q    Type
                         _______ _______ _______ _____ _____    ______ ____

>  <TORSDO>
F 4

$$$$
=
 OpenBabel10262422523D

 37 41  0  0  1  0  0  0  0  0999 V2000
  183.6550  177.2400  136.1690 C   0  0  0  0  0  0  0  0  0  0  0  0
  182.2490  174.2730  135.9550 C   0  0  0  0  0  0  0  0  0  0  0  0
  186.2970  174.9880  136.8750 C   0  0  2  0  0  3  0  0  0  0  0  0
  182.4900  176.7350  136.9680 C   0  0  2  0  0  0  0  0  0  0  0  0
  187.5850  176.9430  137.7100 C   0  0  1  0  0  3  0  0  0  0  0  0
  183.9110  172.3810  135.3960 C   0  0  0  0  0  3  0  0  0  0  0  0
  185.9960  178.0900  136.0360 C   0  0  0  0  0  2  0  0  0  0  0  0
  183.0700  175.7140  137.9560 C   0  0  2  0  0  3  0  0  0  0  0  0
  184.5630  174.6460  135.2060 O   0  0  0  0  0  0  0  0  0  0  0  0
  185.1530  171.9730  135.1280 C   0  0  0  0  0  3  0  0  0  0  0  0
  183.3720  177.3010  139.9160 C   0  0  0  0  0  2  0  0  0  0  0  0
  183.5990  177.2120  134.9100 O   0  0  0  0  0  0  0  0  0  0  0  0
  181.9140  175.3080  137.0640 C   0  0  2  0  0  3  0  0  0  0  0  0
  186.3270  172.8860  135.3640 C   0  0  0  0  0  2  0  0  0  0  0  0
  181.8350  174.8150  134.5940 C   0  0  0  0  0  1  0  0  0  0  0  0
  184.7470  177.5770  139.3020 C   0  0  0  0  0  2  0  0  0  0  0  0
  187.2720  178.1920  136.8790 C   0  0  0  0  0  2  0  0  0  0  0  0
  185.9130  174.3700  135.5320 C   0  0  2  0  0  3  0  0  0  0  0  0
  184.7950  177.8320  136.8320 N   0  0  0  0  0  0  0  0  0  0  0  0
  183.7260  173.7760  135.9360 C   0  0  1  0  0  3  0  0  0  0  0  0
  187.6650  175.6690  136.8470 C   0  0  1  0  0  3  0  0  0  0  0  0
  181.3140  173.1070  136.2520 C   0  0  0  0  0  1  0  0  0  0  0  0
  184.6220  178.5290  138.1110 C   0  0  0  0  0  2  0  0  0  0  0  0
  182.7050  176.0130  139.4060 C   0  0  0  0  0  2  0  0  0  0  0  0
  186.1570  174.0940  137.9420 O   0  0  0  0  0  1  0  0  0  0  0  0
  190.0810  177.0030  138.1370 C   0  0  0  0  0  3  0  0  0  0  0  0
  188.7700  177.1970  138.5980 C   0  0  0  0  0  0  0  0  0  0  0  0
  188.5550  177.6180  139.9150 C   0  0  0  0  0  3  0  0  0  0  0  0
  189.4280  178.2600  142.0380 F   0  0  0  0  0  0  0  0  0  0  0  0
  190.9460  177.6590  140.3010 C   0  0  0  0  0  3  0  0  0  0  0  0
  189.6410  177.8500  140.7650 C   0  0  0  0  0  0  0  0  0  0  0  0
  191.1660  177.2350  138.9870 C   0  0  0  0  0  3  0  0  0  0  0  0
  180.9140  178.5750  136.3460 C   0  0  0  0  0  1  0  0  0  0  0  0
  181.5220  177.7950  137.4960 C   0  0  0  0  0  2  0  0  0  0  0  0
  188.7950  174.7010  137.2210 C   0  0  0  0  0  2  0  0  0  0  0  0
  189.6140  175.6830  135.2070 O   0  0  0  0  0  1  0  0  0  0  0  0
  189.9550  174.8210  136.2500 C   0  0  0  0  0  2  0  0  0  0  0  0
  1 19  1  0  0  0  0
  1  4  1  0  0  0  0
  2 22  1  0  0  0  0
  3 25  1  1  0  0  0
  4 13  1  0  0  0  0
  4 34  1  1  0  0  0
  4  8  1  0  0  0  0
  5 27  1  6  0  0  0
  7 19  1  0  0  0  0
  7 17  1  0  0  0  0
  8 24  1  1  0  0  0
  9 18  1  0  0  0  0
  9 20  1  0  0  0  0
 10 14  1  0  0  0  0
 10  6  2  0  0  0  0
 12  1  2  0  0  0  0
 13  2  1  6  0  0  0
 13  8  1  0  0  0  0
 15  2  1  0  0  0  0
 16 11  1  0  0  0  0
 17  5  1  0  0  0  0
 18 14  1  1  0  0  0
 18  3  1  0  0  0  0
 19 23  1  0  0  0  0
 20  6  1  6  0  0  0
 20  2  1  0  0  0  0
 21  3  1  0  0  0  0
 21 35  1  1  0  0  0
 21  5  1  0  0  0  0
 23 16  1  0  0  0  0
 24 11  1  0  0  0  0
 26 27  2  0  0  0  0
 26 32  1  0  0  0  0
 27 28  1  0  0  0  0
 28 31  2  0  0  0  0
 30 31  1  0  0  0  0
 31 29  1  0  0  0  0
 32 30  2  0  0  0  0
 33 34  1  0  0  0  0
 36 37  1  0  0  0  0
 37 35  1  0  0  0  0
M  END
>  <MODEL>
5

>  <REMARK>
 VINA RESULT:      -3.2      1.586      2.124
  Name = 
  4 active torsions:
  status: ('A' for Active; 'I' for Inactive)
    1  A    between atoms: C_5  and  C_23
    2  A    between atoms: C_6  and  C_7
    3  A    between atoms: C_14  and  C_31
    4  A    between atoms: C_14  and  C_37
                            x       y       z     vdW  Elec       q    Type
                         _______ _______ _______ _____ _____    ______ ____

>  <TORSDO>
F 4

$$$$
