=
 OpenBabel10262421573D

 30 32  0  0  1  0  0  0  0  0999 V2000
  188.6730  177.7800  144.3080 O   0  0  0  0  0  0  0  0  0  0  0  0
  190.8610  178.4620  145.0630 C   0  0  1  0  0  3  0  0  0  0  0  0
  187.0250  179.1230  147.5010 C   0  0  0  0  0  2  0  0  0  0  0  0
  187.3020  178.0530  144.4440 C   0  0  2  0  0  3  0  0  0  0  0  0
  185.6280  179.0360  147.6280 O   0  0  0  0  0  0  0  0  0  0  0  0
  191.4860  177.1450  145.5540 C   0  0  0  0  0  2  0  0  0  0  0  0
  191.1520  178.6610  143.7140 O   0  0  0  0  0  1  0  0  0  0  0  0
  187.5500  177.7910  146.9590 C   0  0  1  0  0  3  0  0  0  0  0  0
  190.5030  176.1540  145.7420 O   0  0  0  0  0  0  0  0  0  0  0  0
  189.3450  178.5050  145.3100 C   0  0  2  0  0  3  0  0  0  0  0  0
  186.7450  177.3630  145.7110 C   0  0  1  0  0  3  0  0  0  0  0  0
  185.1490  179.0210  146.3920 O   0  0  0  0  0  0  0  0  0  0  0  0
  185.2640  177.6890  145.9490 C   0  0  0  0  0  2  0  0  0  0  0  0
  189.7470  176.5250  146.8750 C   0  0  0  0  0  2  0  0  0  0  0  0
  189.0510  177.8890  146.6910 C   0  0  2  0  0  3  0  0  0  0  0  0
  186.5700  177.7060  143.1270 C   0  0  1  0  0  3  0  0  0  0  0  0
  185.4900  179.9980  143.4350 C   0  0  0  0  0  1  0  0  0  0  0  0
  185.5470  178.7290  142.5930 C   0  0  2  0  0  3  0  0  0  0  0  0
  183.0740  178.8880  143.0710 C   0  0  0  0  0  1  0  0  0  0  0  0
  184.1640  178.1040  142.3580 C   0  0  1  0  0  3  0  0  0  0  0  0
  183.8480  178.0990  140.9000 C   0  0  0  0  0  3  0  0  0  0  0  0
  184.5660  180.0240  139.4060 O   0  0  0  0  0  0  0  0  0  0  0  0
  184.2160  179.0890  140.1360 C   0  0  0  0  0  0  0  0  0  0  0  0
  187.4580  177.3050  142.1250 O   0  0  0  0  0  0  0  0  0  0  0  0
  187.6480  178.4460  141.3410 C   0  0  0  0  0  2  0  0  0  0  0  0
  188.6930  178.1790  140.2680 C   0  0  0  0  0  2  0  0  0  0  0  0
  188.0590  178.0530  138.8890 C   0  0  0  0  0  2  0  0  0  0  0  0
  189.9270  177.6250  137.2900 O   0  0  0  0  0  0  0  0  0  0  0  0
  188.9980  178.5080  137.8240 C   0  0  0  0  0  0  0  0  0  0  0  0
  188.9600  179.6990  137.4170 O   0  0  0  0  0  1  0  0  0  0  0  0
  1  4  1  0  0  0  0
  2  7  1  6  0  0  0
  2 10  1  0  0  0  0
  2  6  1  0  0  0  0
  3  5  1  0  0  0  0
  4 16  1  6  0  0  0
  4 11  1  0  0  0  0
  6  9  1  0  0  0  0
  8  3  1  6  0  0  0
  9 14  1  0  0  0  0
 10  1  1  6  0  0  0
 10 15  1  0  0  0  0
 11 13  1  1  0  0  0
 11  8  1  0  0  0  0
 12  5  1  0  0  0  0
 13 12  1  0  0  0  0
 15 14  1  6  0  0  0
 15  8  1  0  0  0  0
 16 24  1  6  0  0  0
 18 16  1  0  0  0  0
 18 17  1  1  0  0  0
 20 18  1  0  0  0  0
 20 19  1  1  0  0  0
 21 20  1  0  0  0  0
 22 23  2  0  0  0  0
 23 21  2  0  0  0  0
 25 24  1  0  0  0  0
 26 25  1  0  0  0  0
 27 26  1  0  0  0  0
 28 29  2  0  0  0  0
 29 27  1  0  0  0  0
 30 29  1  0  0  0  0
M  END
>  <MODEL>
1

>  <REMARK>
 VINA RESULT:      -6.9      0.000      0.000
  Name = 
  9 active torsions:
  status: ('A' for Active; 'I' for Inactive)
    1  A    between atoms: C_4  and  C_13
    2  A    between atoms: C_5  and  C_12
    3  A    between atoms: C_7  and  C_15
    4  A    between atoms: C_7  and  C_16
    5  A    between atoms: C_8  and  C_12
    6  A    between atoms: C_8  and  C_13
    7  A    between atoms: C_13  and  O_27
    8  A    between atoms: C_16  and  C_30
    9  A    between atoms: O_27  and  C_30
                            x       y       z     vdW  Elec       q    Type
                         _______ _______ _______ _____ _____    ______ ____

>  <TORSDO>
F 9

$$$$
=
 OpenBabel10262421573D

 30 32  0  0  1  0  0  0  0  0999 V2000
  188.3330  177.7490  139.2780 O   0  0  0  0  0  0  0  0  0  0  0  0
  188.3100  178.4880  136.9800 C   0  0  1  0  0  3  0  0  0  0  0  0
  192.1650  177.5940  139.3100 C   0  0  0  0  0  2  0  0  0  0  0  0
  189.1200  177.7200  140.4410 C   0  0  2  0  0  3  0  0  0  0  0  0
  192.8170  177.2310  140.5020 O   0  0  0  0  0  0  0  0  0  0  0  0
  187.9440  177.2090  136.2070 C   0  0  0  0  0  2  0  0  0  0  0  0
  187.1560  179.1910  137.3260 O   0  0  0  0  0  1  0  0  0  0  0  0
  190.9850  176.6450  139.0910 C   0  0  1  0  0  3  0  0  0  0  0  0
  188.1220  176.0630  137.0060 O   0  0  0  0  0  0  0  0  0  0  0  0
  189.1590  178.1830  138.2240 C   0  0  2  0  0  3  0  0  0  0  0  0
  190.1260  176.5470  140.3730 C   0  0  1  0  0  3  0  0  0  0  0  0
  191.9930  177.5660  141.4860 O   0  0  0  0  0  0  0  0  0  0  0  0
  191.0640  176.5130  141.5870 C   0  0  0  0  0  2  0  0  0  0  0  0
  189.5120  175.8820  137.1710 C   0  0  0  0  0  2  0  0  0  0  0  0
  190.1790  177.0840  137.8690 C   0  0  2  0  0  3  0  0  0  0  0  0
  188.2060  177.7340  141.6870 C   0  0  1  0  0  3  0  0  0  0  0  0
  188.0460  175.9350  143.4890 C   0  0  0  0  0  1  0  0  0  0  0  0
  188.7870  177.1740  143.0010 C   0  0  2  0  0  3  0  0  0  0  0  0
  188.3670  177.7760  145.4160 C   0  0  0  0  0  1  0  0  0  0  0  0
  188.9270  178.2530  144.0850 C   0  0  1  0  0  3  0  0  0  0  0  0
  190.3670  178.5900  144.2860 C   0  0  0  0  0  3  0  0  0  0  0  0
  191.8390  177.1650  145.7880 O   0  0  0  0  0  0  0  0  0  0  0  0
  191.1190  177.8570  145.0580 C   0  0  0  0  0  0  0  0  0  0  0  0
  187.6140  178.9850  141.8870 O   0  0  0  0  0  0  0  0  0  0  0  0
  186.2460  178.7620  141.7140 C   0  0  0  0  0  2  0  0  0  0  0  0
  185.4620  179.3850  142.8610 C   0  0  0  0  0  2  0  0  0  0  0  0
  185.0960  178.3480  143.9150 C   0  0  0  0  0  2  0  0  0  0  0  0
  185.4810  179.4760  146.1090 O   0  0  0  0  0  1  0  0  0  0  0  0
  184.5880  179.0030  145.1560 C   0  0  0  0  0  0  0  0  0  0  0  0
  183.3500  179.1140  145.3470 O   0  0  0  0  0  0  0  0  0  0  0  0
  1  4  1  0  0  0  0
  2  7  1  1  0  0  0
  2 10  1  0  0  0  0
  3  5  1  0  0  0  0
  4 16  1  1  0  0  0
  5 12  1  0  0  0  0
  6  2  1  0  0  0  0
  6  9  1  0  0  0  0
  8  3  1  1  0  0  0
  8 11  1  0  0  0  0
  9 14  1  0  0  0  0
 10  1  1  1  0  0  0
 11  4  1  0  0  0  0
 11 13  1  1  0  0  0
 12 13  1  0  0  0  0
 15 14  1  1  0  0  0
 15 10  1  0  0  0  0
 15  8  1  0  0  0  0
 16 24  1  1  0  0  0
 16 18  1  0  0  0  0
 18 17  1  1  0  0  0
 18 20  1  0  0  0  0
 20 21  1  0  0  0  0
 20 19  1  1  0  0  0
 21 23  2  0  0  0  0
 23 22  2  0  0  0  0
 25 24  1  0  0  0  0
 25 26  1  0  0  0  0
 26 27  1  0  0  0  0
 27 29  1  0  0  0  0
 29 30  2  0  0  0  0
 29 28  1  0  0  0  0
M  END
>  <MODEL>
2

>  <REMARK>
 VINA RESULT:      -6.8      2.051      7.489
  Name = 
  9 active torsions:
  status: ('A' for Active; 'I' for Inactive)
    1  A    between atoms: C_4  and  C_13
    2  A    between atoms: C_5  and  C_12
    3  A    between atoms: C_7  and  C_15
    4  A    between atoms: C_7  and  C_16
    5  A    between atoms: C_8  and  C_12
    6  A    between atoms: C_8  and  C_13
    7  A    between atoms: C_13  and  O_27
    8  A    between atoms: C_16  and  C_30
    9  A    between atoms: O_27  and  C_30
                            x       y       z     vdW  Elec       q    Type
                         _______ _______ _______ _____ _____    ______ ____

>  <TORSDO>
F 9

$$$$
=
 OpenBabel10262421573D

 30 32  0  0  1  0  0  0  0  0999 V2000
  188.2760  177.3220  140.8040 O   0  0  0  0  0  0  0  0  0  0  0  0
  187.7300  178.3770  138.7030 C   0  0  1  0  0  3  0  0  0  0  0  0
  192.0340  177.7970  140.1980 C   0  0  0  0  0  2  0  0  0  0  0  0
  189.2610  177.2510  141.8030 C   0  0  2  0  0  3  0  0  0  0  0  0
  192.9370  177.3750  141.1890 O   0  0  0  0  0  0  0  0  0  0  0  0
  187.4070  177.1840  137.7880 C   0  0  0  0  0  2  0  0  0  0  0  0
  186.5750  178.8220  139.3450 O   0  0  0  0  0  1  0  0  0  0  0  0
  190.9750  176.7090  140.0080 C   0  0  1  0  0  3  0  0  0  0  0  0
  187.8830  175.9780  138.3360 O   0  0  0  0  0  0  0  0  0  0  0  0
  188.8280  178.0370  139.7230 C   0  0  2  0  0  3  0  0  0  0  0  0
  190.3880  176.2840  141.3730 C   0  0  1  0  0  3  0  0  0  0  0  0
  192.2710  177.4210  142.3340 O   0  0  0  0  0  0  0  0  0  0  0  0
  191.5290  176.2250  142.3980 C   0  0  0  0  0  2  0  0  0  0  0  0
  189.2920  176.0050  138.2440 C   0  0  0  0  0  2  0  0  0  0  0  0
  189.9050  177.1850  139.0250 C   0  0  2  0  0  3  0  0  0  0  0  0
  188.5990  176.9310  143.1630 C   0  0  1  0  0  3  0  0  0  0  0  0
  189.9650  178.9190  143.9940 C   0  0  0  0  0  1  0  0  0  0  0  0
  188.9440  177.8460  144.3540 C   0  0  2  0  0  3  0  0  0  0  0  0
  190.8370  176.8860  145.7190 C   0  0  0  0  0  1  0  0  0  0  0  0
  189.3300  177.0510  145.6100 C   0  0  1  0  0  3  0  0  0  0  0  0
  188.8560  177.7650  146.8310 C   0  0  0  0  0  3  0  0  0  0  0  0
  186.3750  178.0880  147.2690 O   0  0  0  0  0  0  0  0  0  0  0  0
  187.5820  177.9300  147.0530 C   0  0  0  0  0  0  0  0  0  0  0  0
  187.2180  176.7530  143.0430 O   0  0  0  0  0  0  0  0  0  0  0  0
  186.6610  177.9100  143.5940 C   0  0  0  0  0  2  0  0  0  0  0  0
  185.3410  178.2360  142.9090 C   0  0  0  0  0  2  0  0  0  0  0  0
  184.7000  179.4850  143.4990 C   0  0  0  0  0  2  0  0  0  0  0  0
  183.7040  179.0780  145.7510 O   0  0  0  0  0  1  0  0  0  0  0  0
  183.5440  179.1320  144.3730 C   0  0  0  0  0  0  0  0  0  0  0  0
  182.4250  178.8690  143.8610 O   0  0  0  0  0  0  0  0  0  0  0  0
  1  4  1  0  0  0  0
  2  7  1  1  0  0  0
  2 10  1  0  0  0  0
  3  5  1  0  0  0  0
  4 16  1  1  0  0  0
  5 12  1  0  0  0  0
  6  9  1  0  0  0  0
  6  2  1  0  0  0  0
  8  3  1  1  0  0  0
  8 11  1  0  0  0  0
 10  1  1  1  0  0  0
 11  4  1  0  0  0  0
 11 13  1  1  0  0  0
 12 13  1  0  0  0  0
 14  9  1  0  0  0  0
 15 14  1  1  0  0  0
 15 10  1  0  0  0  0
 15  8  1  0  0  0  0
 16 24  1  6  0  0  0
 16 18  1  0  0  0  0
 18 17  1  6  0  0  0
 18 20  1  0  0  0  0
 20 19  1  1  0  0  0
 20 21  1  0  0  0  0
 21 23  2  0  0  0  0
 23 22  2  0  0  0  0
 24 25  1  0  0  0  0
 26 27  1  0  0  0  0
 26 25  1  0  0  0  0
 27 29  1  0  0  0  0
 29 28  1  0  0  0  0
 30 29  2  0  0  0  0
M  END
>  <MODEL>
3

>  <REMARK>
 VINA RESULT:      -6.4      1.993      7.042
  Name = 
  9 active torsions:
  status: ('A' for Active; 'I' for Inactive)
    1  A    between atoms: C_4  and  C_13
    2  A    between atoms: C_5  and  C_12
    3  A    between atoms: C_7  and  C_15
    4  A    between atoms: C_7  and  C_16
    5  A    between atoms: C_8  and  C_12
    6  A    between atoms: C_8  and  C_13
    7  A    between atoms: C_13  and  O_27
    8  A    between atoms: C_16  and  C_30
    9  A    between atoms: O_27  and  C_30
                            x       y       z     vdW  Elec       q    Type
                         _______ _______ _______ _____ _____    ______ ____

>  <TORSDO>
F 9

$$$$
=
 OpenBabel10262421573D

 30 32  0  0  1  0  0  0  0  0999 V2000
  188.1410  177.9660  139.6490 O   0  0  0  0  0  0  0  0  0  0  0  0
  188.5860  178.4120  137.3190 C   0  0  1  0  0  3  0  0  0  0  0  0
  191.8810  177.5790  140.4080 C   0  0  0  0  0  2  0  0  0  0  0  0
  188.7060  178.0330  140.9340 C   0  0  2  0  0  3  0  0  0  0  0  0
  192.2790  177.3280  141.7330 O   0  0  0  0  0  0  0  0  0  0  0  0
  188.2560  177.0720  136.6400 C   0  0  0  0  0  2  0  0  0  0  0  0
  187.4520  179.2230  137.3650 O   0  0  0  0  0  1  0  0  0  0  0  0
  190.6830  176.6850  140.0810 C   0  0  1  0  0  3  0  0  0  0  0  0
  188.1940  176.0260  137.5800 O   0  0  0  0  0  0  0  0  0  0  0  0
  189.1740  178.2130  138.7250 C   0  0  2  0  0  3  0  0  0  0  0  0
  189.6060  176.8010  141.1840 C   0  0  1  0  0  3  0  0  0  0  0  0
  191.3260  177.8330  142.5030 O   0  0  0  0  0  0  0  0  0  0  0  0
  190.3090  176.8610  142.5480 C   0  0  0  0  0  2  0  0  0  0  0  0
  189.5130  175.7810  138.0190 C   0  0  0  0  0  2  0  0  0  0  0  0
  190.1450  177.0170  138.6900 C   0  0  2  0  0  3  0  0  0  0  0  0
  187.5910  178.2600  141.9800 C   0  0  1  0  0  3  0  0  0  0  0  0
  185.8280  179.9820  142.6410 C   0  0  0  0  0  1  0  0  0  0  0  0
  186.3570  179.0720  141.5390 C   0  0  2  0  0  3  0  0  0  0  0  0
  184.0660  178.0580  141.8450 C   0  0  0  0  0  1  0  0  0  0  0  0
  185.2660  178.1860  140.9200 C   0  0  1  0  0  3  0  0  0  0  0  0
  184.7940  178.7810  139.6350 C   0  0  0  0  0  3  0  0  0  0  0  0
  184.5470  177.3490  137.5510 O   0  0  0  0  0  0  0  0  0  0  0  0
  184.6690  178.0430  138.5670 C   0  0  0  0  0  0  0  0  0  0  0  0
  187.2160  177.0700  142.6110 O   0  0  0  0  0  0  0  0  0  0  0  0
  187.5560  177.2570  143.9540 C   0  0  0  0  0  2  0  0  0  0  0  0
  186.3000  177.3240  144.8100 C   0  0  0  0  0  2  0  0  0  0  0  0
  186.5980  177.8800  146.1960 C   0  0  0  0  0  2  0  0  0  0  0  0
  184.2540  178.7340  146.1000 O   0  0  0  0  0  0  0  0  0  0  0  0
  185.5330  178.8290  146.6330 C   0  0  0  0  0  0  0  0  0  0  0  0
  185.7960  179.7260  147.4750 O   0  0  0  0  0  1  0  0  0  0  0  0
  1  4  1  0  0  0  0
  2  7  1  1  0  0  0
  2 10  1  0  0  0  0
  3  5  1  0  0  0  0
  4 11  1  0  0  0  0
  4 16  1  1  0  0  0
  5 12  1  0  0  0  0
  6  2  1  0  0  0  0
  6  9  1  0  0  0  0
  8  3  1  1  0  0  0
  8 11  1  0  0  0  0
  9 14  1  0  0  0  0
 10  1  1  1  0  0  0
 11 13  1  1  0  0  0
 12 13  1  0  0  0  0
 15 14  1  1  0  0  0
 15 10  1  0  0  0  0
 15  8  1  0  0  0  0
 16 24  1  6  0  0  0
 18 16  1  0  0  0  0
 18 17  1  1  0  0  0
 20 18  1  0  0  0  0
 20 19  1  1  0  0  0
 21 20  1  0  0  0  0
 22 23  2  0  0  0  0
 23 21  2  0  0  0  0
 24 25  1  0  0  0  0
 25 26  1  0  0  0  0
 26 27  1  0  0  0  0
 27 29  1  0  0  0  0
 28 29  2  0  0  0  0
 29 30  1  0  0  0  0
M  END
>  <MODEL>
4

>  <REMARK>
 VINA RESULT:      -6.3      1.887      6.522
  Name = 
  9 active torsions:
  status: ('A' for Active; 'I' for Inactive)
    1  A    between atoms: C_4  and  C_13
    2  A    between atoms: C_5  and  C_12
    3  A    between atoms: C_7  and  C_15
    4  A    between atoms: C_7  and  C_16
    5  A    between atoms: C_8  and  C_12
    6  A    between atoms: C_8  and  C_13
    7  A    between atoms: C_13  and  O_27
    8  A    between atoms: C_16  and  C_30
    9  A    between atoms: O_27  and  C_30
                            x       y       z     vdW  Elec       q    Type
                         _______ _______ _______ _____ _____    ______ ____

>  <TORSDO>
F 9

$$$$
=
 OpenBabel10262421573D

 30 32  0  0  1  0  0  0  0  0999 V2000
  188.0570  177.9160  139.7400 O   0  0  0  0  0  0  0  0  0  0  0  0
  188.3350  178.4060  137.3930 C   0  0  1  0  0  3  0  0  0  0  0  0
  191.8480  177.6030  140.2410 C   0  0  0  0  0  2  0  0  0  0  0  0
  188.7060  177.9760  140.9850 C   0  0  2  0  0  3  0  0  0  0  0  0
  192.3390  177.3410  141.5330 O   0  0  0  0  0  0  0  0  0  0  0  0
  187.9900  177.0700  136.7150 C   0  0  0  0  0  2  0  0  0  0  0  0
  187.1900  179.1900  137.5270 O   0  0  0  0  0  1  0  0  0  0  0  0
  190.6500  176.6860  139.9810 C   0  0  1  0  0  3  0  0  0  0  0  0
  188.0140  176.0080  137.6400 O   0  0  0  0  0  0  0  0  0  0  0  0
  189.0200  178.2000  138.7530 C   0  0  2  0  0  3  0  0  0  0  0  0
  189.6470  176.7620  141.1550 C   0  0  1  0  0  3  0  0  0  0  0  0
  191.4280  177.8130  142.3730 O   0  0  0  0  0  0  0  0  0  0  0  0
  190.4380  176.8170  142.4690 C   0  0  0  0  0  2  0  0  0  0  0  0
  189.3650  175.7870  137.9860 C   0  0  0  0  0  2  0  0  0  0  0  0
  190.0130  177.0270  138.6340 C   0  0  2  0  0  3  0  0  0  0  0  0
  187.6580  178.1620  142.1070 C   0  0  1  0  0  3  0  0  0  0  0  0
  186.0880  180.0550  142.7860 C   0  0  0  0  0  1  0  0  0  0  0  0
  186.3860  178.9620  141.7660 C   0  0  2  0  0  3  0  0  0  0  0  0
  183.9940  178.4280  142.3720 C   0  0  0  0  0  1  0  0  0  0  0  0
  185.1780  178.0520  141.4950 C   0  0  1  0  0  3  0  0  0  0  0  0
  184.7540  178.1800  140.0700 C   0  0  0  0  0  3  0  0  0  0  0  0
  184.1680  180.4460  139.0850 O   0  0  0  0  0  0  0  0  0  0  0  0
  184.4520  179.3440  139.5680 C   0  0  0  0  0  0  0  0  0  0  0  0
  187.3440  176.9520  142.7340 O   0  0  0  0  0  0  0  0  0  0  0  0
  187.8850  177.0660  144.0180 C   0  0  0  0  0  2  0  0  0  0  0  0
  186.7710  177.1360  145.0530 C   0  0  0  0  0  2  0  0  0  0  0  0
  187.0170  178.2480  146.0640 C   0  0  0  0  0  2  0  0  0  0  0  0
  187.5410  177.6600  148.4330 O   0  0  0  0  0  1  0  0  0  0  0  0
  187.9730  177.8090  147.1220 C   0  0  0  0  0  0  0  0  0  0  0  0
  189.1760  177.5860  146.8290 O   0  0  0  0  0  0  0  0  0  0  0  0
  1  4  1  0  0  0  0
  2  7  1  1  0  0  0
  2 10  1  0  0  0  0
  3  5  1  0  0  0  0
  4 11  1  0  0  0  0
  4 16  1  1  0  0  0
  5 12  1  0  0  0  0
  6  2  1  0  0  0  0
  6  9  1  0  0  0  0
  8  3  1  1  0  0  0
  8 11  1  0  0  0  0
  9 14  1  0  0  0  0
 10  1  1  1  0  0  0
 11 13  1  1  0  0  0
 12 13  1  0  0  0  0
 15 14  1  1  0  0  0
 15 10  1  0  0  0  0
 15  8  1  0  0  0  0
 16 24  1  6  0  0  0
 18 16  1  0  0  0  0
 18 17  1  1  0  0  0
 20 18  1  0  0  0  0
 20 19  1  1  0  0  0
 21 20  1  0  0  0  0
 22 23  2  0  0  0  0
 23 21  2  0  0  0  0
 24 25  1  0  0  0  0
 25 26  1  0  0  0  0
 26 27  1  0  0  0  0
 27 29  1  0  0  0  0
 29 28  1  0  0  0  0
 30 29  2  0  0  0  0
M  END
>  <MODEL>
5

>  <REMARK>
 VINA RESULT:      -5.9      1.789      6.498
  Name = 
  9 active torsions:
  status: ('A' for Active; 'I' for Inactive)
    1  A    between atoms: C_4  and  C_13
    2  A    between atoms: C_5  and  C_12
    3  A    between atoms: C_7  and  C_15
    4  A    between atoms: C_7  and  C_16
    5  A    between atoms: C_8  and  C_12
    6  A    between atoms: C_8  and  C_13
    7  A    between atoms: C_13  and  O_27
    8  A    between atoms: C_16  and  C_30
    9  A    between atoms: O_27  and  C_30
                            x       y       z     vdW  Elec       q    Type
                         _______ _______ _______ _____ _____    ______ ____

>  <TORSDO>
F 9

$$$$
=
 OpenBabel10262421573D

 30 32  0  0  1  0  0  0  0  0999 V2000
  188.3400  177.5170  140.0680 O   0  0  0  0  0  0  0  0  0  0  0  0
  188.5790  178.3750  137.8250 C   0  0  1  0  0  3  0  0  0  0  0  0
  192.1400  177.5260  140.5980 C   0  0  0  0  0  2  0  0  0  0  0  0
  188.9710  177.4590  141.3220 C   0  0  2  0  0  3  0  0  0  0  0  0
  192.6480  177.1290  141.8470 O   0  0  0  0  0  0  0  0  0  0  0  0
  188.3800  177.1250  136.9510 C   0  0  0  0  0  2  0  0  0  0  0  0
  187.3560  179.0080  138.0480 O   0  0  0  0  0  1  0  0  0  0  0  0
  191.0460  176.5400  140.1810 C   0  0  1  0  0  3  0  0  0  0  0  0
  188.5100  175.9470  137.7110 O   0  0  0  0  0  0  0  0  0  0  0  0
  189.2740  178.0420  139.1540 C   0  0  2  0  0  3  0  0  0  0  0  0
  190.0350  176.3370  141.3320 C   0  0  1  0  0  3  0  0  0  0  0  0
  191.6880  177.3750  142.7280 O   0  0  0  0  0  0  0  0  0  0  0  0
  190.8080  176.2780  142.6560 C   0  0  0  0  0  2  0  0  0  0  0  0
  189.8750  175.8170  138.0490 C   0  0  0  0  0  2  0  0  0  0  0  0
  190.3850  177.0080  138.8850 C   0  0  2  0  0  3  0  0  0  0  0  0
  187.9040  177.3680  142.4360 C   0  0  1  0  0  3  0  0  0  0  0  0
  189.4440  178.9820  143.6740 C   0  0  0  0  0  1  0  0  0  0  0  0
  188.1410  178.1920  143.7170 C   0  0  2  0  0  3  0  0  0  0  0  0
  188.8770  177.8780  146.1110 C   0  0  0  0  0  1  0  0  0  0  0  0
  187.9960  177.3470  144.9910 C   0  0  1  0  0  3  0  0  0  0  0  0
  186.5820  177.3780  145.4650 C   0  0  0  0  0  3  0  0  0  0  0  0
  185.6820  179.3780  146.7470 O   0  0  0  0  0  0  0  0  0  0  0  0
  186.1240  178.4050  146.1240 C   0  0  0  0  0  0  0  0  0  0  0  0
  186.6120  177.5620  141.9400 O   0  0  0  0  0  0  0  0  0  0  0  0
  186.3030  178.8860  142.2600 C   0  0  0  0  0  2  0  0  0  0  0  0
  184.8130  179.0280  142.5330 C   0  0  0  0  0  2  0  0  0  0  0  0
  183.9840  178.2190  141.5440 C   0  0  0  0  0  2  0  0  0  0  0  0
  182.4820  178.8970  139.6690 O   0  0  0  0  0  0  0  0  0  0  0  0
  183.7120  179.0030  140.3050 C   0  0  0  0  0  0  0  0  0  0  0  0
  184.6030  179.7520  139.8260 O   0  0  0  0  0  1  0  0  0  0  0  0
  1  4  1  0  0  0  0
  2  7  1  1  0  0  0
  2 10  1  0  0  0  0
  3  5  1  0  0  0  0
  4 11  1  0  0  0  0
  4 16  1  1  0  0  0
  5 12  1  0  0  0  0
  6  9  1  0  0  0  0
  6  2  1  0  0  0  0
  8  3  1  1  0  0  0
  8 11  1  0  0  0  0
  9 14  1  0  0  0  0
 10  1  1  1  0  0  0
 11 13  1  1  0  0  0
 13 12  1  0  0  0  0
 15 14  1  1  0  0  0
 15 10  1  0  0  0  0
 15  8  1  0  0  0  0
 16 24  1  6  0  0  0
 16 18  1  0  0  0  0
 18 17  1  6  0  0  0
 18 20  1  0  0  0  0
 20 21  1  0  0  0  0
 20 19  1  1  0  0  0
 21 23  2  0  0  0  0
 23 22  2  0  0  0  0
 24 25  1  0  0  0  0
 25 26  1  0  0  0  0
 27 26  1  0  0  0  0
 28 29  2  0  0  0  0
 29 27  1  0  0  0  0
 30 29  1  0  0  0  0
M  END
>  <MODEL>
6

>  <REMARK>
 VINA RESULT:      -5.9      1.824      6.354
  Name = 
  9 active torsions:
  status: ('A' for Active; 'I' for Inactive)
    1  A    between atoms: C_4  and  C_13
    2  A    between atoms: C_5  and  C_12
    3  A    between atoms: C_7  and  C_15
    4  A    between atoms: C_7  and  C_16
    5  A    between atoms: C_8  and  C_12
    6  A    between atoms: C_8  and  C_13
    7  A    between atoms: C_13  and  O_27
    8  A    between atoms: C_16  and  C_30
    9  A    between atoms: O_27  and  C_30
                            x       y       z     vdW  Elec       q    Type
                         _______ _______ _______ _____ _____    ______ ____

>  <TORSDO>
F 9

$$$$
=
 OpenBabel10262421573D

 30 32  0  0  1  0  0  0  0  0999 V2000
  189.1140  177.7780  144.6220 O   0  0  0  0  0  0  0  0  0  0  0  0
  191.1210  178.1760  145.9020 C   0  0  1  0  0  3  0  0  0  0  0  0
  186.9080  179.1930  147.4230 C   0  0  0  0  0  2  0  0  0  0  0  0
  187.7860  178.2030  144.4540 C   0  0  2  0  0  3  0  0  0  0  0  0
  185.5190  179.2640  147.2180 O   0  0  0  0  0  0  0  0  0  0  0  0
  191.4700  176.7790  146.4440 C   0  0  0  0  0  2  0  0  0  0  0  0
  191.7420  178.3860  144.6710 O   0  0  0  0  0  1  0  0  0  0  0  0
  187.4040  177.8290  146.9370 C   0  0  1  0  0  3  0  0  0  0  0  0
  190.3730  175.9030  146.3390 O   0  0  0  0  0  0  0  0  0  0  0  0
  189.6030  178.3860  145.7940 C   0  0  2  0  0  3  0  0  0  0  0  0
  186.8760  177.5390  145.5140 C   0  0  1  0  0  3  0  0  0  0  0  0
  185.3470  179.3470  145.9060 O   0  0  0  0  0  0  0  0  0  0  0  0
  185.4240  178.0270  145.4220 C   0  0  0  0  0  2  0  0  0  0  0  0
  189.4140  176.3210  147.2870 C   0  0  0  0  0  2  0  0  0  0  0  0
  188.9280  177.7610  147.0300 C   0  0  2  0  0  3  0  0  0  0  0  0
  187.3540  177.9890  142.9850 C   0  0  1  0  0  3  0  0  0  0  0  0
  188.7730  175.8680  142.9940 C   0  0  0  0  0  1  0  0  0  0  0  0
  188.1630  176.9790  142.1470 C   0  0  2  0  0  3  0  0  0  0  0  0
  190.5750  177.0700  141.4120 C   0  0  0  0  0  1  0  0  0  0  0  0
  189.1880  177.6660  141.2330 C   0  0  1  0  0  3  0  0  0  0  0  0
  188.7940  177.4930  139.8040 C   0  0  0  0  0  3  0  0  0  0  0  0
  189.0170  179.4090  138.1520 O   0  0  0  0  0  0  0  0  0  0  0  0
  188.9080  178.4790  138.9590 C   0  0  0  0  0  0  0  0  0  0  0  0
  185.9800  177.7570  142.8720 O   0  0  0  0  0  0  0  0  0  0  0  0
  185.5570  178.6140  141.8530 C   0  0  0  0  0  2  0  0  0  0  0  0
  184.0870  178.3760  141.5420 C   0  0  0  0  0  2  0  0  0  0  0  0
  183.8700  178.0800  140.0630 C   0  0  0  0  0  2  0  0  0  0  0  0
  184.2020  180.3820  139.1580 O   0  0  0  0  0  1  0  0  0  0  0  0
  184.6070  179.0550  139.2080 C   0  0  0  0  0  0  0  0  0  0  0  0
  185.5880  178.6720  138.5200 O   0  0  0  0  0  0  0  0  0  0  0  0
  2  7  1  6  0  0  0
  2  6  1  0  0  0  0
  4 16  1  6  0  0  0
  4  1  1  0  0  0  0
  4 11  1  0  0  0  0
  5  3  1  0  0  0  0
  8 15  1  0  0  0  0
  8  3  1  6  0  0  0
  9  6  1  0  0  0  0
  9 14  1  0  0  0  0
 10  1  1  6  0  0  0
 10  2  1  0  0  0  0
 10 15  1  0  0  0  0
 11 13  1  1  0  0  0
 11  8  1  0  0  0  0
 12  5  1  0  0  0  0
 13 12  1  0  0  0  0
 15 14  1  6  0  0  0
 16 24  1  1  0  0  0
 18 16  1  0  0  0  0
 18 17  1  1  0  0  0
 20 19  1  6  0  0  0
 20 18  1  0  0  0  0
 21 20  1  0  0  0  0
 22 23  2  0  0  0  0
 23 21  2  0  0  0  0
 25 24  1  0  0  0  0
 26 25  1  0  0  0  0
 27 26  1  0  0  0  0
 28 29  1  0  0  0  0
 29 27  1  0  0  0  0
 30 29  2  0  0  0  0
M  END
>  <MODEL>
7

>  <REMARK>
 VINA RESULT:      -5.9      1.119      3.336
  Name = 
  9 active torsions:
  status: ('A' for Active; 'I' for Inactive)
    1  A    between atoms: C_4  and  C_13
    2  A    between atoms: C_5  and  C_12
    3  A    between atoms: C_7  and  C_15
    4  A    between atoms: C_7  and  C_16
    5  A    between atoms: C_8  and  C_12
    6  A    between atoms: C_8  and  C_13
    7  A    between atoms: C_13  and  O_27
    8  A    between atoms: C_16  and  C_30
    9  A    between atoms: O_27  and  C_30
                            x       y       z     vdW  Elec       q    Type
                         _______ _______ _______ _____ _____    ______ ____

>  <TORSDO>
F 9

$$$$
=
 OpenBabel10262421573D

 30 32  0  0  1  0  0  0  0  0999 V2000
  186.3050  178.5560  138.8060 O   0  0  0  0  0  0  0  0  0  0  0  0
  188.6580  178.1950  138.4110 C   0  0  1  0  0  3  0  0  0  0  0  0
  185.3960  175.2190  137.1460 C   0  0  0  0  0  2  0  0  0  0  0  0
  185.0780  177.8910  138.9690 C   0  0  2  0  0  3  0  0  0  0  0  0
  184.0460  174.8280  137.1100 O   0  0  0  0  0  0  0  0  0  0  0  0
  188.9480  179.0900  137.1940 C   0  0  0  0  0  2  0  0  0  0  0  0
  188.8610  178.9060  139.5930 O   0  0  0  0  0  1  0  0  0  0  0  0
  185.4870  176.6980  136.7640 C   0  0  1  0  0  3  0  0  0  0  0  0
  187.7570  179.4700  136.5460 O   0  0  0  0  0  0  0  0  0  0  0  0
  187.2410  177.6020  138.3630 C   0  0  2  0  0  3  0  0  0  0  0  0
  184.4800  177.5310  137.5900 C   0  0  1  0  0  3  0  0  0  0  0  0
  183.4640  175.4270  138.1400 O   0  0  0  0  0  0  0  0  0  0  0  0
  183.1720  176.7360  137.7120 C   0  0  0  0  0  2  0  0  0  0  0  0
  187.2410  178.3200  135.9100 C   0  0  0  0  0  2  0  0  0  0  0  0
  186.9260  177.1910  136.9120 C   0  0  2  0  0  3  0  0  0  0  0  0
  184.1570  178.7210  139.8930 C   0  0  1  0  0  3  0  0  0  0  0  0
  182.7380  178.4560  141.9970 C   0  0  0  0  0  1  0  0  0  0  0  0
  184.1320  178.3520  141.3890 C   0  0  2  0  0  3  0  0  0  0  0  0
  184.6810  179.4790  143.5800 C   0  0  0  0  0  1  0  0  0  0  0  0
  185.1940  179.1140  142.1960 C   0  0  1  0  0  3  0  0  0  0  0  0
  186.4100  178.2660  142.3660 C   0  0  0  0  0  3  0  0  0  0  0  0
  186.8720  177.0780  144.5640 O   0  0  0  0  0  0  0  0  0  0  0  0
  186.6450  177.6590  143.4960 C   0  0  0  0  0  0  0  0  0  0  0  0
  184.3360  180.0960  139.7120 O   0  0  0  0  0  0  0  0  0  0  0  0
  183.5020  180.4250  138.6400 C   0  0  0  0  0  2  0  0  0  0  0  0
  182.0520  180.1260  138.9920 C   0  0  0  0  0  2  0  0  0  0  0  0
  181.1320  181.2740  138.5950 C   0  0  0  0  0  2  0  0  0  0  0  0
  180.8220  180.0190  136.4600 O   0  0  0  0  0  0  0  0  0  0  0  0
  180.8200  181.2310  137.1380 C   0  0  0  0  0  0  0  0  0  0  0  0
  180.5690  182.2960  136.5170 O   0  0  0  0  0  1  0  0  0  0  0  0
  1  4  1  0  0  0  0
  2  7  1  1  0  0  0
  4 16  1  6  0  0  0
  5  3  1  0  0  0  0
  5 12  1  0  0  0  0
  6  2  1  0  0  0  0
  8 15  1  0  0  0  0
  8  3  1  1  0  0  0
  8 11  1  0  0  0  0
  9  6  1  0  0  0  0
 10  2  1  0  0  0  0
 10  1  1  6  0  0  0
 11 13  1  1  0  0  0
 11  4  1  0  0  0  0
 13 12  1  0  0  0  0
 14  9  1  0  0  0  0
 15 14  1  6  0  0  0
 15 10  1  0  0  0  0
 16 24  1  1  0  0  0
 16 18  1  0  0  0  0
 18 17  1  1  0  0  0
 18 20  1  0  0  0  0
 20 21  1  0  0  0  0
 20 19  1  1  0  0  0
 21 23  2  0  0  0  0
 23 22  2  0  0  0  0
 25 26  1  0  0  0  0
 25 24  1  0  0  0  0
 27 26  1  0  0  0  0
 28 29  2  0  0  0  0
 29 27  1  0  0  0  0
 30 29  1  0  0  0  0
M  END
>  <MODEL>
8

>  <REMARK>
 VINA RESULT:      -5.9      2.915      7.554
  Name = 
  9 active torsions:
  status: ('A' for Active; 'I' for Inactive)
    1  A    between atoms: C_4  and  C_13
    2  A    between atoms: C_5  and  C_12
    3  A    between atoms: C_7  and  C_15
    4  A    between atoms: C_7  and  C_16
    5  A    between atoms: C_8  and  C_12
    6  A    between atoms: C_8  and  C_13
    7  A    between atoms: C_13  and  O_27
    8  A    between atoms: C_16  and  C_30
    9  A    between atoms: O_27  and  C_30
                            x       y       z     vdW  Elec       q    Type
                         _______ _______ _______ _____ _____    ______ ____

>  <TORSDO>
F 9

$$$$
=
 OpenBabel10262421573D

 30 32  0  0  1  0  0  0  0  0999 V2000
  186.6420  178.3720  143.0870 O   0  0  0  0  0  0  0  0  0  0  0  0
  184.2760  177.9760  142.8210 C   0  0  1  0  0  3  0  0  0  0  0  0
  186.6060  176.8980  146.6290 C   0  0  0  0  0  2  0  0  0  0  0  0
  187.7820  177.9370  143.7820 C   0  0  2  0  0  3  0  0  0  0  0  0
  187.8170  176.8160  147.3390 O   0  0  0  0  0  0  0  0  0  0  0  0
  183.6620  179.3680  143.0470 C   0  0  0  0  0  2  0  0  0  0  0  0
  184.5640  177.7880  141.4690 O   0  0  0  0  0  1  0  0  0  0  0  0
  186.5230  178.2730  145.9620 C   0  0  1  0  0  3  0  0  0  0  0  0
  184.5820  180.2350  143.6670 O   0  0  0  0  0  0  0  0  0  0  0  0
  185.5270  177.7530  143.6850 C   0  0  2  0  0  3  0  0  0  0  0  0
  187.8260  178.5770  145.1890 C   0  0  1  0  0  3  0  0  0  0  0  0
  188.7740  176.7500  146.4230 O   0  0  0  0  0  0  0  0  0  0  0  0
  189.0150  178.0770  146.0200 C   0  0  0  0  0  2  0  0  0  0  0  0
  184.7360  179.7960  145.0000 C   0  0  0  0  0  2  0  0  0  0  0  0
  185.2770  178.3540  145.0810 C   0  0  2  0  0  3  0  0  0  0  0  0
  189.0390  178.1670  142.9120 C   0  0  1  0  0  3  0  0  0  0  0  0
  189.2590  175.6270  143.0130 C   0  0  0  0  0  1  0  0  0  0  0  0
  189.9010  176.9360  142.5690 C   0  0  2  0  0  3  0  0  0  0  0  0
  191.5690  178.4210  143.7460 C   0  0  0  0  0  1  0  0  0  0  0  0
  191.3510  177.0850  143.0540 C   0  0  1  0  0  3  0  0  0  0  0  0
  191.6760  176.0030  144.0300 C   0  0  0  0  0  3  0  0  0  0  0  0
  192.0700  176.5390  146.4810 O   0  0  0  0  0  0  0  0  0  0  0  0
  191.8790  176.2820  145.2870 C   0  0  0  0  0  0  0  0  0  0  0  0
  188.7540  178.9210  141.7700 O   0  0  0  0  0  0  0  0  0  0  0  0
  188.9580  178.0410  140.7030 C   0  0  0  0  0  2  0  0  0  0  0  0
  187.8650  178.2180  139.6590 C   0  0  0  0  0  2  0  0  0  0  0  0
  188.2100  177.4990  138.3620 C   0  0  0  0  0  2  0  0  0  0  0  0
  189.0390  179.7410  137.6460 O   0  0  0  0  0  1  0  0  0  0  0  0
  189.0400  178.3630  137.4740 C   0  0  0  0  0  0  0  0  0  0  0  0
  189.7300  177.8460  136.5580 O   0  0  0  0  0  0  0  0  0  0  0  0
  1  4  1  0  0  0  0
  2  7  1  6  0  0  0
  2  6  1  0  0  0  0
  2 10  1  0  0  0  0
  3  5  1  0  0  0  0
  4 16  1  6  0  0  0
  4 11  1  0  0  0  0
  6  9  1  0  0  0  0
  8  3  1  6  0  0  0
  9 14  1  0  0  0  0
 10  1  1  6  0  0  0
 10 15  1  0  0  0  0
 11  8  1  0  0  0  0
 11 13  1  1  0  0  0
 12  5  1  0  0  0  0
 13 12  1  0  0  0  0
 15 14  1  6  0  0  0
 15  8  1  0  0  0  0
 16 24  1  6  0  0  0
 18 16  1  0  0  0  0
 18 17  1  1  0  0  0
 18 20  1  0  0  0  0
 20 19  1  1  0  0  0
 20 21  1  0  0  0  0
 21 23  2  0  0  0  0
 23 22  2  0  0  0  0
 25 24  1  0  0  0  0
 26 25  1  0  0  0  0
 27 26  1  0  0  0  0
 29 28  1  0  0  0  0
 29 27  1  0  0  0  0
 30 29  2  0  0  0  0
M  END
>  <MODEL>
9

>  <REMARK>
 VINA RESULT:      -5.9      1.758      5.336
  Name = 
  9 active torsions:
  status: ('A' for Active; 'I' for Inactive)
    1  A    between atoms: C_4  and  C_13
    2  A    between atoms: C_5  and  C_12
    3  A    between atoms: C_7  and  C_15
    4  A    between atoms: C_7  and  C_16
    5  A    between atoms: C_8  and  C_12
    6  A    between atoms: C_8  and  C_13
    7  A    between atoms: C_13  and  O_27
    8  A    between atoms: C_16  and  C_30
    9  A    between atoms: O_27  and  C_30
                            x       y       z     vdW  Elec       q    Type
                         _______ _______ _______ _____ _____    ______ ____

>  <TORSDO>
F 9

$$$$
