=
 OpenBabel10262419473D

 25 28  0  0  1  0  0  0  0  0999 V2000
  189.0600  176.7690  145.5180 C   0  0  2  0  0  3  0  0  0  0  0  0
  187.7080  177.3820  145.3090 C   0  0  0  0  0  0  0  0  0  0  0  0
  187.7590  178.4420  148.6440 O   0  0  0  0  0  0  0  0  0  0  0  0
  188.0610  177.9400  147.5300 C   0  0  0  0  0  0  0  0  0  0  0  0
  185.8590  178.5940  146.3010 C   0  0  0  0  0  0  0  0  0  0  0  0
  185.3410  179.1420  147.3080 O   0  0  0  0  0  0  0  0  0  0  0  0
  186.9410  177.2280  144.0210 C   0  0  0  0  0  2  0  0  0  0  0  0
  189.6100  177.1110  147.2390 S   0  0  0  0  0  0  0  0  0  0  0  0
  185.1550  178.5770  145.0550 N   0  0  0  0  0  0  0  0  0  0  0  0
  185.6400  178.0020  143.9880 C   0  0  0  0  0  0  0  0  0  0  0  0
  187.1890  177.9770  146.3710 C   0  0  0  0  0  0  0  0  0  0  0  0
  190.0710  177.2330  144.5050 C   0  0  0  0  0  0  0  0  0  0  0  0
  191.9700  178.2210  142.6910 C   0  0  0  0  0  3  0  0  0  0  0  0
  190.4560  176.4590  143.3880 C   0  0  0  0  0  0  0  0  0  0  0  0
  191.4010  176.9610  142.4880 C   0  0  0  0  0  3  0  0  0  0  0  0
  191.5940  178.9870  143.7950 C   0  0  0  0  0  3  0  0  0  0  0  0
  189.9060  175.1650  143.1580 N   0  0  0  0  0  1  0  0  0  0  0  0
  190.6470  178.4940  144.6980 C   0  0  0  0  0  3  0  0  0  0  0  0
  184.8320  177.9870  142.7150 C   0  0  2  0  0  3  0  0  0  0  0  0
  185.5870  178.3750  141.4870 N   0  0  0  0  0  0  0  0  0  0  0  0
  184.6690  179.3200  142.1360 C   0  0  0  0  0  2  0  0  0  0  0  0
  186.8830  178.8340  141.7850 N   0  0  0  0  0  2  0  0  0  0  0  0
  189.0900  179.1540  141.1400 O   0  0  0  0  0  0  0  0  0  0  0  0
  187.7760  177.9300  139.5870 C   0  0  0  0  0  1  0  0  0  0  0  0
  187.9630  178.6690  140.8650 C   0  0  0  0  0  0  0  0  0  0  0  0
  1 12  1  6  0  0  0
  1  8  1  0  0  0  0
  2  1  1  0  0  0  0
  2 11  2  0  0  0  0
  4  3  2  0  0  0  0
  5 11  1  0  0  0  0
  5  6  2  0  0  0  0
  7  2  1  0  0  0  0
  8  4  1  0  0  0  0
  9  5  1  0  0  0  0
 10  7  1  0  0  0  0
 10  9  2  0  0  0  0
 11  4  1  0  0  0  0
 12 18  1  0  0  0  0
 13 16  1  0  0  0  0
 14 12  2  0  0  0  0
 15 13  2  0  0  0  0
 15 14  1  0  0  0  0
 16 18  2  0  0  0  0
 17 14  1  0  0  0  0
 19 10  1  1  0  0  0
 20 22  1  0  0  0  0
 20 21  1  0  0  0  0
 20 19  1  0  0  0  0
 21 19  1  0  0  0  0
 24 25  1  0  0  0  0
 25 23  2  0  0  0  0
 25 22  1  0  0  0  0
M  END
>  <MODEL>
1

>  <REMARK>
 VINA RESULT:      -8.2      0.000      0.000
  Name = 
  3 active torsions:
  status: ('A' for Active; 'I' for Inactive)
    1  A    between atoms: C_1  and  C_5
    2  A    between atoms: N_2  and  N_15
    3  A    between atoms: C_6  and  C_23
                            x       y       z     vdW  Elec       q    Type
                         _______ _______ _______ _____ _____    ______ ____

>  <TORSDO>
F 3

$$$$
=
 OpenBabel10262419473D

 25 28  0  0  1  0  0  0  0  0999 V2000
  186.3330  177.2790  144.9800 C   0  0  2  0  0  3  0  0  0  0  0  0
  187.0540  177.4200  143.6730 C   0  0  0  0  0  0  0  0  0  0  0  0
  184.4900  179.5330  142.5730 O   0  0  0  0  0  0  0  0  0  0  0  0
  185.2190  178.7730  143.2640 C   0  0  0  0  0  0  0  0  0  0  0  0
  187.0500  178.3860  141.4510 C   0  0  0  0  0  0  0  0  0  0  0  0
  186.4810  179.0960  140.5820 O   0  0  0  0  0  0  0  0  0  0  0  0
  188.3070  176.6450  143.3550 C   0  0  0  0  0  2  0  0  0  0  0  0
  184.8160  178.3170  144.9370 S   0  0  0  0  0  0  0  0  0  0  0  0
  188.3060  177.7670  141.1590 N   0  0  0  0  0  0  0  0  0  0  0  0
  188.9250  177.0050  142.0190 C   0  0  0  0  0  0  0  0  0  0  0  0
  186.4550  178.1900  142.7790 C   0  0  0  0  0  0  0  0  0  0  0  0
  187.2020  177.6090  146.1620 C   0  0  0  0  0  0  0  0  0  0  0  0
  188.9310  178.1500  148.3050 C   0  0  0  0  0  3  0  0  0  0  0  0
  186.7580  178.3850  147.2550 C   0  0  0  0  0  0  0  0  0  0  0  0
  187.6250  178.6470  148.3200 C   0  0  0  0  0  3  0  0  0  0  0  0
  189.3750  177.3860  147.2250 C   0  0  0  0  0  3  0  0  0  0  0  0
  185.4370  178.9180  147.2970 N   0  0  0  0  0  1  0  0  0  0  0  0
  188.5130  177.1170  146.1580 C   0  0  0  0  0  3  0  0  0  0  0  0
  190.2280  176.3510  141.6370 C   0  0  2  0  0  3  0  0  0  0  0  0
  191.4510  177.1260  141.9990 N   0  0  0  0  0  0  0  0  0  0  0  0
  190.9570  177.1020  140.6150 C   0  0  0  0  0  2  0  0  0  0  0  0
  191.1390  178.4060  142.4940 N   0  0  0  0  0  2  0  0  0  0  0  0
  191.1120  179.9180  144.2560 O   0  0  0  0  0  0  0  0  0  0  0  0
  191.8110  177.7260  144.8460 C   0  0  0  0  0  1  0  0  0  0  0  0
  191.3400  178.7430  143.8670 C   0  0  0  0  0  0  0  0  0  0  0  0
  1 12  1  1  0  0  0
  2  1  1  0  0  0  0
  3  4  2  0  0  0  0
  4  8  1  0  0  0  0
  5 11  1  0  0  0  0
  6  5  2  0  0  0  0
  7  2  1  0  0  0  0
  8  1  1  0  0  0  0
  9  5  1  0  0  0  0
  9 10  2  0  0  0  0
 10  7  1  0  0  0  0
 11  4  1  0  0  0  0
 11  2  2  0  0  0  0
 12 14  1  0  0  0  0
 13 15  1  0  0  0  0
 14 17  1  0  0  0  0
 14 15  2  0  0  0  0
 16 13  2  0  0  0  0
 18 12  2  0  0  0  0
 18 16  1  0  0  0  0
 19 20  1  0  0  0  0
 19 10  1  1  0  0  0
 20 22  1  0  0  0  0
 21 19  1  0  0  0  0
 21 20  1  0  0  0  0
 22 25  1  0  0  0  0
 25 23  2  0  0  0  0
 25 24  1  0  0  0  0
M  END
>  <MODEL>
2

>  <REMARK>
 VINA RESULT:      -7.9      2.404      5.190
  Name = 
  3 active torsions:
  status: ('A' for Active; 'I' for Inactive)
    1  A    between atoms: C_1  and  C_5
    2  A    between atoms: N_2  and  N_15
    3  A    between atoms: C_6  and  C_23
                            x       y       z     vdW  Elec       q    Type
                         _______ _______ _______ _____ _____    ______ ____

>  <TORSDO>
F 3

$$$$
=
 OpenBabel10262419473D

 25 28  0  0  1  0  0  0  0  0999 V2000
  188.6010  176.8620  144.9910 C   0  0  2  0  0  3  0  0  0  0  0  0
  187.3600  177.6300  144.6460 C   0  0  0  0  0  0  0  0  0  0  0  0
  186.8720  178.2240  148.0610 O   0  0  0  0  0  0  0  0  0  0  0  0
  187.3360  177.8470  146.9530 C   0  0  0  0  0  0  0  0  0  0  0  0
  185.4540  178.8760  145.4740 C   0  0  0  0  0  0  0  0  0  0  0  0
  184.8020  179.3340  146.4480 O   0  0  0  0  0  0  0  0  0  0  0  0
  186.8350  177.7260  143.2370 C   0  0  0  0  0  2  0  0  0  0  0  0
  188.8470  176.9150  146.8120 S   0  0  0  0  0  0  0  0  0  0  0  0
  184.9940  179.0960  144.1380 N   0  0  0  0  0  0  0  0  0  0  0  0
  185.6230  178.6240  143.0970 C   0  0  0  0  0  0  0  0  0  0  0  0
  186.7000  178.1260  145.6800 C   0  0  0  0  0  0  0  0  0  0  0  0
  189.8130  177.3540  144.2490 C   0  0  0  0  0  0  0  0  0  0  0  0
  192.0670  178.3930  142.9400 C   0  0  0  0  0  3  0  0  0  0  0  0
  190.4660  176.5980  143.2500 C   0  0  0  0  0  0  0  0  0  0  0  0
  191.5880  177.1250  142.6010 C   0  0  0  0  0  3  0  0  0  0  0  0
  191.4260  179.1410  143.9280 C   0  0  0  0  0  3  0  0  0  0  0  0
  190.0120  175.2960  142.8900 N   0  0  0  0  0  1  0  0  0  0  0  0
  190.3030  178.6220  144.5790 C   0  0  0  0  0  3  0  0  0  0  0  0
  185.0660  178.8590  141.7150 C   0  0  2  0  0  3  0  0  0  0  0  0
  183.5850  179.0410  141.6570 N   0  0  0  0  0  0  0  0  0  0  0  0
  184.2040  177.7680  141.2630 C   0  0  0  0  0  2  0  0  0  0  0  0
  182.9730  178.8000  142.9000 N   0  0  0  0  0  2  0  0  0  0  0  0
  181.0440  178.6210  144.1810 O   0  0  0  0  0  0  0  0  0  0  0  0
  180.6870  179.3680  141.9550 C   0  0  0  0  0  1  0  0  0  0  0  0
  181.5600  178.9110  143.0700 C   0  0  0  0  0  0  0  0  0  0  0  0
  1 12  1  6  0  0  0
  1  8  1  0  0  0  0
  2  1  1  0  0  0  0
  2 11  2  0  0  0  0
  4  3  2  0  0  0  0
  5 11  1  0  0  0  0
  5  6  2  0  0  0  0
  7  2  1  0  0  0  0
  8  4  1  0  0  0  0
  9  5  1  0  0  0  0
 10  7  1  0  0  0  0
 10  9  2  0  0  0  0
 11  4  1  0  0  0  0
 12 18  1  0  0  0  0
 13 16  1  0  0  0  0
 14 12  2  0  0  0  0
 15 13  2  0  0  0  0
 15 14  1  0  0  0  0
 16 18  2  0  0  0  0
 17 14  1  0  0  0  0
 19 10  1  1  0  0  0
 20 19  1  0  0  0  0
 20 22  1  0  0  0  0
 21 20  1  0  0  0  0
 21 19  1  0  0  0  0
 22 25  1  0  0  0  0
 24 25  1  0  0  0  0
 25 23  2  0  0  0  0
M  END
>  <MODEL>
3

>  <REMARK>
 VINA RESULT:      -7.7      1.924      2.932
  Name = 
  3 active torsions:
  status: ('A' for Active; 'I' for Inactive)
    1  A    between atoms: C_1  and  C_5
    2  A    between atoms: N_2  and  N_15
    3  A    between atoms: C_6  and  C_23
                            x       y       z     vdW  Elec       q    Type
                         _______ _______ _______ _____ _____    ______ ____

>  <TORSDO>
F 3

$$$$
=
 OpenBabel10262419473D

 25 28  0  0  1  0  0  0  0  0999 V2000
  184.9880  179.3010  142.6250 C   0  0  2  0  0  3  0  0  0  0  0  0
  186.0170  178.3950  143.2330 C   0  0  0  0  0  0  0  0  0  0  0  0
  184.6000  179.0160  146.3720 O   0  0  0  0  0  0  0  0  0  0  0  0
  184.8470  179.0030  145.1370 C   0  0  0  0  0  0  0  0  0  0  0  0
  186.9110  177.4180  145.2610 C   0  0  0  0  0  0  0  0  0  0  0  0
  186.8690  177.2980  146.5130 O   0  0  0  0  0  0  0  0  0  0  0  0
  187.1290  177.7790  142.4230 C   0  0  0  0  0  2  0  0  0  0  0  0
  183.8700  179.9060  143.9530 S   0  0  0  0  0  0  0  0  0  0  0  0
  187.9050  176.7170  144.5080 N   0  0  0  0  0  0  0  0  0  0  0  0
  188.0020  176.8250  143.2120 C   0  0  0  0  0  0  0  0  0  0  0  0
  185.9430  178.2600  144.5460 C   0  0  0  0  0  0  0  0  0  0  0  0
  184.2240  178.6450  141.5080 C   0  0  0  0  0  0  0  0  0  0  0  0
  182.6920  177.3980  139.5150 C   0  0  0  0  0  3  0  0  0  0  0  0
  184.7300  178.5230  140.1940 C   0  0  0  0  0  0  0  0  0  0  0  0
  183.9600  177.8970  139.2080 C   0  0  0  0  0  3  0  0  0  0  0  0
  182.1880  177.5190  140.8110 C   0  0  0  0  0  3  0  0  0  0  0  0
  186.0130  179.0340  139.8440 N   0  0  0  0  0  1  0  0  0  0  0  0
  182.9520  178.1410  141.8020 C   0  0  0  0  0  3  0  0  0  0  0  0
  189.0960  176.0890  142.4800 C   0  0  2  0  0  3  0  0  0  0  0  0
  190.3770  176.8410  142.3400 N   0  0  0  0  0  0  0  0  0  0  0  0
  189.4480  176.7220  141.2090 C   0  0  0  0  0  2  0  0  0  0  0  0
  190.2630  178.1690  142.7910 N   0  0  0  0  0  2  0  0  0  0  0  0
  190.8580  179.8290  144.3020 O   0  0  0  0  0  0  0  0  0  0  0  0
  191.7110  177.6730  144.8160 C   0  0  0  0  0  1  0  0  0  0  0  0
  190.9310  178.6180  143.9700 C   0  0  0  0  0  0  0  0  0  0  0  0
  1 12  1  6  0  0  0
  1  2  1  0  0  0  0
  1  8  1  0  0  0  0
  2 11  2  0  0  0  0
  4  3  2  0  0  0  0
  5  6  2  0  0  0  0
  7 10  1  0  0  0  0
  7  2  1  0  0  0  0
  8  4  1  0  0  0  0
  9  5  1  0  0  0  0
 10  9  2  0  0  0  0
 11  4  1  0  0  0  0
 11  5  1  0  0  0  0
 12 18  1  0  0  0  0
 13 16  1  0  0  0  0
 14 12  2  0  0  0  0
 15 13  2  0  0  0  0
 15 14  1  0  0  0  0
 16 18  2  0  0  0  0
 17 14  1  0  0  0  0
 19 10  1  1  0  0  0
 20 19  1  0  0  0  0
 20 22  1  0  0  0  0
 21 20  1  0  0  0  0
 21 19  1  0  0  0  0
 22 25  1  0  0  0  0
 25 23  2  0  0  0  0
 25 24  1  0  0  0  0
M  END
>  <MODEL>
4

>  <REMARK>
 VINA RESULT:      -7.2      2.563      5.625
  Name = 
  3 active torsions:
  status: ('A' for Active; 'I' for Inactive)
    1  A    between atoms: C_1  and  C_5
    2  A    between atoms: N_2  and  N_15
    3  A    between atoms: C_6  and  C_23
                            x       y       z     vdW  Elec       q    Type
                         _______ _______ _______ _____ _____    ______ ____

>  <TORSDO>
F 3

$$$$
=
 OpenBabel10262419473D

 25 28  0  0  1  0  0  0  0  0999 V2000
  187.8750  176.6650  143.5780 C   0  0  2  0  0  3  0  0  0  0  0  0
  187.7270  177.4070  142.2830 C   0  0  0  0  0  0  0  0  0  0  0  0
  184.7400  178.7710  143.4940 O   0  0  0  0  0  0  0  0  0  0  0  0
  185.8190  178.1320  143.3790 C   0  0  0  0  0  0  0  0  0  0  0  0
  186.3700  178.9110  140.9550 C   0  0  0  0  0  0  0  0  0  0  0  0
  185.3300  179.6100  140.8360 O   0  0  0  0  0  0  0  0  0  0  0  0
  188.6790  177.2170  141.1310 C   0  0  0  0  0  2  0  0  0  0  0  0
  186.4720  177.1080  144.6810 S   0  0  0  0  0  0  0  0  0  0  0  0
  187.3200  178.8550  139.8860 N   0  0  0  0  0  0  0  0  0  0  0  0
  188.4020  178.1280  139.9530 C   0  0  0  0  0  0  0  0  0  0  0  0
  186.6410  178.1560  142.1840 C   0  0  0  0  0  0  0  0  0  0  0  0
  189.2040  176.9110  144.2390 C   0  0  0  0  0  0  0  0  0  0  0  0
  191.6210  177.4720  145.5480 C   0  0  0  0  0  3  0  0  0  0  0  0
  190.3710  176.1800  143.9220 C   0  0  0  0  0  0  0  0  0  0  0  0
  191.5710  176.4690  144.5780 C   0  0  0  0  0  3  0  0  0  0  0  0
  190.4700  178.1950  145.8660 C   0  0  0  0  0  3  0  0  0  0  0  0
  190.3520  175.1400  142.9480 N   0  0  0  0  0  1  0  0  0  0  0  0
  189.2660  177.9140  145.2130 C   0  0  0  0  0  3  0  0  0  0  0  0
  189.3450  178.0820  138.7780 C   0  0  2  0  0  3  0  0  0  0  0  0
  188.8490  177.3060  137.6030 N   0  0  0  0  0  0  0  0  0  0  0  0
  189.8500  176.7350  138.5140 C   0  0  0  0  0  2  0  0  0  0  0  0
  187.6470  176.6310  137.8840 N   0  0  0  0  0  2  0  0  0  0  0  0
  185.5440  175.9210  137.2030 O   0  0  0  0  0  0  0  0  0  0  0  0
  186.6580  177.3360  135.6550 C   0  0  0  0  0  1  0  0  0  0  0  0
  186.5750  176.5920  136.9420 C   0  0  0  0  0  0  0  0  0  0  0  0
  1 12  1  1  0  0  0
  1  8  1  0  0  0  0
  2  1  1  0  0  0  0
  4  3  2  0  0  0  0
  4  8  1  0  0  0  0
  5 11  1  0  0  0  0
  6  5  2  0  0  0  0
  7  2  1  0  0  0  0
  9 10  2  0  0  0  0
  9  5  1  0  0  0  0
 10  7  1  0  0  0  0
 11  2  2  0  0  0  0
 11  4  1  0  0  0  0
 12 18  1  0  0  0  0
 13 16  1  0  0  0  0
 14 12  2  0  0  0  0
 14 15  1  0  0  0  0
 15 13  2  0  0  0  0
 17 14  1  0  0  0  0
 18 16  2  0  0  0  0
 19 10  1  1  0  0  0
 20 22  1  0  0  0  0
 20 21  1  0  0  0  0
 20 19  1  0  0  0  0
 21 19  1  0  0  0  0
 24 25  1  0  0  0  0
 25 23  2  0  0  0  0
 25 22  1  0  0  0  0
M  END
>  <MODEL>
5

>  <REMARK>
 VINA RESULT:      -7.2      2.787      4.361
  Name = 
  3 active torsions:
  status: ('A' for Active; 'I' for Inactive)
    1  A    between atoms: C_1  and  C_5
    2  A    between atoms: N_2  and  N_15
    3  A    between atoms: C_6  and  C_23
                            x       y       z     vdW  Elec       q    Type
                         _______ _______ _______ _____ _____    ______ ____

>  <TORSDO>
F 3

$$$$
=
 OpenBabel10262419473D

 25 28  0  0  1  0  0  0  0  0999 V2000
  188.6400  177.0380  141.9140 C   0  0  2  0  0  3  0  0  0  0  0  0
  188.9660  177.2890  140.4720 C   0  0  0  0  0  0  0  0  0  0  0  0
  186.0290  179.1760  140.2170 O   0  0  0  0  0  0  0  0  0  0  0  0
  186.9800  178.4700  140.6440 C   0  0  0  0  0  0  0  0  0  0  0  0
  188.2770  178.3180  138.3900 C   0  0  0  0  0  0  0  0  0  0  0  0
  187.4350  178.9960  137.7450 O   0  0  0  0  0  0  0  0  0  0  0  0
  190.1460  176.6490  139.7880 C   0  0  0  0  0  2  0  0  0  0  0  0
  187.0860  177.9250  142.3370 S   0  0  0  0  0  0  0  0  0  0  0  0
  189.4540  177.8330  137.7380 N   0  0  0  0  0  0  0  0  0  0  0  0
  190.3450  177.1080  138.3580 C   0  0  0  0  0  0  0  0  0  0  0  0
  188.0830  178.0240  139.8150 C   0  0  0  0  0  0  0  0  0  0  0  0
  189.7670  177.4140  142.8370 C   0  0  0  0  0  0  0  0  0  0  0  0
  191.8290  178.2520  144.5450 C   0  0  0  0  0  3  0  0  0  0  0  0
  190.6520  176.4680  143.4000 C   0  0  0  0  0  0  0  0  0  0  0  0
  191.6780  176.8950  144.2490 C   0  0  0  0  0  3  0  0  0  0  0  0
  190.9550  179.1890  143.9930 C   0  0  0  0  0  3  0  0  0  0  0  0
  190.5190  175.0750  143.1300 N   0  0  0  0  0  1  0  0  0  0  0  0
  189.9280  178.7700  143.1420 C   0  0  0  0  0  3  0  0  0  0  0  0
  191.5470  176.5950  137.6050 C   0  0  2  0  0  3  0  0  0  0  0  0
  191.3870  175.2310  137.0190 N   0  0  0  0  0  0  0  0  0  0  0  0
  192.1630  175.4350  138.2500 C   0  0  0  0  0  2  0  0  0  0  0  0
  190.1850  174.6210  137.4210 N   0  0  0  0  0  2  0  0  0  0  0  0
  188.6200  172.9240  137.1680 O   0  0  0  0  0  0  0  0  0  0  0  0
  190.3270  172.9470  135.5170 C   0  0  0  0  0  1  0  0  0  0  0  0
  189.6620  173.4820  136.7360 C   0  0  0  0  0  0  0  0  0  0  0  0
  1  8  1  0  0  0  0
  1 12  1  1  0  0  0
  2  1  1  0  0  0  0
  3  4  2  0  0  0  0
  4  8  1  0  0  0  0
  5 11  1  0  0  0  0
  6  5  2  0  0  0  0
  7  2  1  0  0  0  0
  9 10  2  0  0  0  0
  9  5  1  0  0  0  0
 10  7  1  0  0  0  0
 11  2  2  0  0  0  0
 11  4  1  0  0  0  0
 12 18  2  0  0  0  0
 12 14  1  0  0  0  0
 14 15  2  0  0  0  0
 15 13  1  0  0  0  0
 16 13  2  0  0  0  0
 17 14  1  0  0  0  0
 18 16  1  0  0  0  0
 19 21  1  0  0  0  0
 19 10  1  1  0  0  0
 20 22  1  0  0  0  0
 20 19  1  0  0  0  0
 20 21  1  0  0  0  0
 24 25  1  0  0  0  0
 25 23  2  0  0  0  0
 25 22  1  0  0  0  0
M  END
>  <MODEL>
6

>  <REMARK>
 VINA RESULT:      -7.1      3.990      6.294
  Name = 
  3 active torsions:
  status: ('A' for Active; 'I' for Inactive)
    1  A    between atoms: C_1  and  C_5
    2  A    between atoms: N_2  and  N_15
    3  A    between atoms: C_6  and  C_23
                            x       y       z     vdW  Elec       q    Type
                         _______ _______ _______ _____ _____    ______ ____

>  <TORSDO>
F 3

$$$$
=
 OpenBabel10262419473D

 25 28  0  0  1  0  0  0  0  0999 V2000
  188.9120  176.6460  145.3090 C   0  0  2  0  0  3  0  0  0  0  0  0
  187.6090  177.3790  145.1860 C   0  0  0  0  0  0  0  0  0  0  0  0
  188.0800  178.6060  148.4300 O   0  0  0  0  0  0  0  0  0  0  0  0
  188.2250  178.0170  147.3260 C   0  0  0  0  0  0  0  0  0  0  0  0
  185.9860  178.8190  146.2630 C   0  0  0  0  0  0  0  0  0  0  0  0
  185.6210  179.4690  147.2770 O   0  0  0  0  0  0  0  0  0  0  0  0
  186.7110  177.2330  143.9850 C   0  0  0  0  0  2  0  0  0  0  0  0
  189.6540  177.0250  146.9480 S   0  0  0  0  0  0  0  0  0  0  0  0
  185.1670  178.8050  145.0900 N   0  0  0  0  0  0  0  0  0  0  0  0
  185.4910  178.1290  144.0220 C   0  0  0  0  0  0  0  0  0  0  0  0
  187.2530  178.0780  146.2510 C   0  0  0  0  0  0  0  0  0  0  0  0
  189.8590  176.9530  144.1830 C   0  0  0  0  0  0  0  0  0  0  0  0
  191.5890  177.4020  142.0190 C   0  0  0  0  0  3  0  0  0  0  0  0
  190.6420  178.1280  144.1300 C   0  0  0  0  0  0  0  0  0  0  0  0
  191.5030  178.3420  143.0490 C   0  0  0  0  0  3  0  0  0  0  0  0
  190.8150  176.2420  142.0660 C   0  0  0  0  0  3  0  0  0  0  0  0
  190.5690  179.1140  145.1560 N   0  0  0  0  0  1  0  0  0  0  0  0
  189.9540  176.0190  143.1440 C   0  0  0  0  0  3  0  0  0  0  0  0
  184.5670  178.1260  142.8300 C   0  0  2  0  0  3  0  0  0  0  0  0
  185.2350  178.3560  141.5150 N   0  0  0  0  0  0  0  0  0  0  0  0
  184.4850  179.4320  142.1770 C   0  0  0  0  0  2  0  0  0  0  0  0
  186.5940  178.6890  141.6630 N   0  0  0  0  0  2  0  0  0  0  0  0
  188.7090  178.9240  140.7350 O   0  0  0  0  0  0  0  0  0  0  0  0
  187.0930  177.9710  139.2800 C   0  0  0  0  0  1  0  0  0  0  0  0
  187.5170  178.5520  140.5830 C   0  0  0  0  0  0  0  0  0  0  0  0
  1 12  1  6  0  0  0
  1  8  1  0  0  0  0
  2  1  1  0  0  0  0
  2 11  2  0  0  0  0
  4  3  2  0  0  0  0
  5  6  2  0  0  0  0
  7 10  1  0  0  0  0
  7  2  1  0  0  0  0
  8  4  1  0  0  0  0
  9  5  1  0  0  0  0
 10  9  2  0  0  0  0
 11  5  1  0  0  0  0
 11  4  1  0  0  0  0
 13 16  2  0  0  0  0
 13 15  1  0  0  0  0
 14 12  1  0  0  0  0
 14 17  1  0  0  0  0
 15 14  2  0  0  0  0
 16 18  1  0  0  0  0
 18 12  2  0  0  0  0
 19 10  1  1  0  0  0
 20 22  1  0  0  0  0
 20 21  1  0  0  0  0
 20 19  1  0  0  0  0
 21 19  1  0  0  0  0
 24 25  1  0  0  0  0
 25 23  2  0  0  0  0
 25 22  1  0  0  0  0
M  END
>  <MODEL>
7

>  <REMARK>
 VINA RESULT:      -6.9      1.011      1.411
  Name = 
  3 active torsions:
  status: ('A' for Active; 'I' for Inactive)
    1  A    between atoms: C_1  and  C_5
    2  A    between atoms: N_2  and  N_15
    3  A    between atoms: C_6  and  C_23
                            x       y       z     vdW  Elec       q    Type
                         _______ _______ _______ _____ _____    ______ ____

>  <TORSDO>
F 3

$$$$
=
 OpenBabel10262419473D

 25 28  0  0  1  0  0  0  0  0999 V2000
  181.9740  178.0460  140.2370 C   0  0  2  0  0  3  0  0  0  0  0  0
  183.2780  178.4220  140.8750 C   0  0  0  0  0  0  0  0  0  0  0  0
  184.8540  177.8760  137.7980 O   0  0  0  0  0  0  0  0  0  0  0  0
  184.0000  177.9890  138.7170 C   0  0  0  0  0  0  0  0  0  0  0  0
  185.6690  178.6930  140.5900 C   0  0  0  0  0  0  0  0  0  0  0  0
  186.6840  178.6280  139.8490 O   0  0  0  0  0  0  0  0  0  0  0  0
  183.4010  178.7150  142.3480 C   0  0  0  0  0  2  0  0  0  0  0  0
  182.2650  177.6850  138.4570 S   0  0  0  0  0  0  0  0  0  0  0  0
  185.8040  179.0990  141.9540 N   0  0  0  0  0  0  0  0  0  0  0  0
  184.7860  179.1620  142.7680 C   0  0  0  0  0  0  0  0  0  0  0  0
  184.3310  178.3720  140.0760 C   0  0  0  0  0  0  0  0  0  0  0  0
  180.9120  179.0940  140.4280 C   0  0  0  0  0  0  0  0  0  0  0  0
  178.9910  181.1240  140.6800 C   0  0  0  0  0  3  0  0  0  0  0  0
  179.8820  178.9830  141.3890 C   0  0  0  0  0  0  0  0  0  0  0  0
  178.9310  180.0010  141.5090 C   0  0  0  0  0  3  0  0  0  0  0  0
  180.0050  181.2350  139.7270 C   0  0  0  0  0  3  0  0  0  0  0  0
  179.7830  177.8450  142.2410 N   0  0  0  0  0  1  0  0  0  0  0  0
  180.9610  180.2230  139.6030 C   0  0  0  0  0  3  0  0  0  0  0  0
  185.0010  179.5620  144.2060 C   0  0  2  0  0  3  0  0  0  0  0  0
  185.9140  178.6680  144.9780 N   0  0  0  0  0  0  0  0  0  0  0  0
  184.4570  178.5860  145.1490 C   0  0  0  0  0  2  0  0  0  0  0  0
  186.2780  177.5240  144.2450 N   0  0  0  0  0  2  0  0  0  0  0  0
  187.9040  176.0030  143.5860 O   0  0  0  0  0  0  0  0  0  0  0  0
  188.7230  177.8370  144.8540 C   0  0  0  0  0  1  0  0  0  0  0  0
  187.6300  177.0690  144.1970 C   0  0  0  0  0  0  0  0  0  0  0  0
  1 12  1  6  0  0  0
  1  2  1  0  0  0  0
  2  7  1  0  0  0  0
  3  4  2  0  0  0  0
  4 11  1  0  0  0  0
  5  9  1  0  0  0  0
  6  5  2  0  0  0  0
  7 10  1  0  0  0  0
  8  4  1  0  0  0  0
  8  1  1  0  0  0  0
  9 10  2  0  0  0  0
 11  5  1  0  0  0  0
 11  2  2  0  0  0  0
 12 14  1  0  0  0  0
 13 15  1  0  0  0  0
 14 15  2  0  0  0  0
 14 17  1  0  0  0  0
 16 13  2  0  0  0  0
 18 16  1  0  0  0  0
 18 12  2  0  0  0  0
 19 10  1  6  0  0  0
 19 20  1  0  0  0  0
 19 21  1  0  0  0  0
 20 21  1  0  0  0  0
 22 20  1  0  0  0  0
 23 25  2  0  0  0  0
 25 22  1  0  0  0  0
 25 24  1  0  0  0  0
M  END
>  <MODEL>
8

>  <REMARK>
 VINA RESULT:      -6.8      4.198      8.242
  Name = 
  3 active torsions:
  status: ('A' for Active; 'I' for Inactive)
    1  A    between atoms: C_1  and  C_5
    2  A    between atoms: N_2  and  N_15
    3  A    between atoms: C_6  and  C_23
                            x       y       z     vdW  Elec       q    Type
                         _______ _______ _______ _____ _____    ______ ____

>  <TORSDO>
F 3

$$$$
=
 OpenBabel10262419473D

 25 28  0  0  1  0  0  0  0  0999 V2000
  190.5010  177.5370  138.4740 C   0  0  2  0  0  3  0  0  0  0  0  0
  190.0980  177.4940  139.9180 C   0  0  0  0  0  0  0  0  0  0  0  0
  186.9210  178.6280  138.9870 O   0  0  0  0  0  0  0  0  0  0  0  0
  188.1170  178.2340  138.9730 C   0  0  0  0  0  0  0  0  0  0  0  0
  188.3520  177.9010  141.5470 C   0  0  0  0  0  0  0  0  0  0  0  0
  187.1800  178.2840  141.8040 O   0  0  0  0  0  0  0  0  0  0  0  0
  191.0730  177.1590  141.0180 C   0  0  0  0  0  2  0  0  0  0  0  0
  189.0550  178.0680  137.4690 S   0  0  0  0  0  0  0  0  0  0  0  0
  189.2110  177.4670  142.6050 N   0  0  0  0  0  0  0  0  0  0  0  0
  190.4390  177.0820  142.3920 C   0  0  0  0  0  0  0  0  0  0  0  0
  188.8570  177.8750  140.1680 C   0  0  0  0  0  0  0  0  0  0  0  0
  191.0680  176.2310  137.9900 C   0  0  0  0  0  0  0  0  0  0  0  0
  191.9930  173.7480  137.0660 C   0  0  0  0  0  3  0  0  0  0  0  0
  192.4540  175.9630  137.9370 C   0  0  0  0  0  0  0  0  0  0  0  0
  192.9050  174.7220  137.4770 C   0  0  0  0  0  3  0  0  0  0  0  0
  190.6220  174.0100  137.1140 C   0  0  0  0  0  3  0  0  0  0  0  0
  193.4130  176.9390  138.3370 N   0  0  0  0  0  1  0  0  0  0  0  0
  190.1630  175.2470  137.5750 C   0  0  0  0  0  3  0  0  0  0  0  0
  191.3070  176.6710  143.5550 C   0  0  2  0  0  3  0  0  0  0  0  0
  190.6300  176.7020  144.8850 N   0  0  0  0  0  0  0  0  0  0  0  0
  191.5560  177.7710  144.4870 C   0  0  0  0  0  2  0  0  0  0  0  0
  189.3430  177.2640  144.8120 N   0  0  0  0  0  2  0  0  0  0  0  0
  187.4470  178.0720  145.8830 O   0  0  0  0  0  0  0  0  0  0  0  0
  189.0570  177.0940  147.3290 C   0  0  0  0  0  1  0  0  0  0  0  0
  188.5660  177.5050  145.9850 C   0  0  0  0  0  0  0  0  0  0  0  0
  1 12  1  6  0  0  0
  1  2  1  0  0  0  0
  2 11  2  0  0  0  0
  2  7  1  0  0  0  0
  4  3  2  0  0  0  0
  4 11  1  0  0  0  0
  5  6  2  0  0  0  0
  5  9  1  0  0  0  0
  7 10  1  0  0  0  0
  8  1  1  0  0  0  0
  8  4  1  0  0  0  0
 10  9  2  0  0  0  0
 11  5  1  0  0  0  0
 13 16  2  0  0  0  0
 13 15  1  0  0  0  0
 14 12  1  0  0  0  0
 14 17  1  0  0  0  0
 15 14  2  0  0  0  0
 16 18  1  0  0  0  0
 18 12  2  0  0  0  0
 19 10  1  6  0  0  0
 19 21  1  0  0  0  0
 19 20  1  0  0  0  0
 21 20  1  0  0  0  0
 22 20  1  0  0  0  0
 22 25  1  0  0  0  0
 23 25  2  0  0  0  0
 25 24  1  0  0  0  0
M  END
>  <MODEL>
9

>  <REMARK>
 VINA RESULT:      -6.8      3.800      6.750
  Name = 
  3 active torsions:
  status: ('A' for Active; 'I' for Inactive)
    1  A    between atoms: C_1  and  C_5
    2  A    between atoms: N_2  and  N_15
    3  A    between atoms: C_6  and  C_23
                            x       y       z     vdW  Elec       q    Type
                         _______ _______ _______ _____ _____    ______ ____

>  <TORSDO>
F 3

$$$$
