=
 OpenBabel10262419323D

 31 35  0  0  1  0  0  0  0  0999 V2000
  189.8810  177.4600  147.1110 C   0  0  0  0  0  0  0  0  0  0  0  0
  187.8830  177.8500  143.9360 N   0  0  0  0  0  0  0  0  0  0  0  0
  186.5350  178.2150  144.3240 C   0  0  0  0  0  0  0  0  0  0  0  0
  184.6540  178.2810  145.9000 C   0  0  0  0  0  0  0  0  0  0  0  0
  188.9170  177.4610  144.8750 C   0  0  0  0  0  0  0  0  0  0  0  0
  190.9940  176.7610  146.6380 C   0  0  0  0  0  3  0  0  0  0  0  0
  186.0440  177.9560  145.5410 C   0  0  0  0  0  3  0  0  0  0  0  0
  189.5920  177.4800  142.0620 C   0  0  2  0  0  3  0  0  0  0  0  0
  189.8000  177.7980  148.4200 F   0  0  0  0  0  0  0  0  0  0  0  0
  186.0630  178.9150  142.0750 N   0  0  0  0  0  0  0  0  0  0  0  0
  184.1830  177.9270  147.1200 F   0  0  0  0  0  0  0  0  0  0  0  0
  190.1490  176.3830  142.9690 C   0  0  0  0  0  2  0  0  0  0  0  0
  188.2170  177.9050  142.5270 C   0  0  0  0  0  0  0  0  0  0  0  0
  188.8530  177.8120  146.2350 C   0  0  0  0  0  3  0  0  0  0  0  0
  183.8400  178.8910  145.0340 C   0  0  0  0  0  3  0  0  0  0  0  0
  190.0580  176.7800  144.4050 C   0  0  0  0  0  0  0  0  0  0  0  0
  191.0810  176.4210  145.2870 C   0  0  0  0  0  3  0  0  0  0  0  0
  187.3540  178.4490  141.6570 C   0  0  0  0  0  3  0  0  0  0  0  0
  185.6480  178.8100  143.3000 C   0  0  0  0  0  0  0  0  0  0  0  0
  184.2920  179.3420  143.6700 C   0  0  0  0  0  2  0  0  0  0  0  0
  191.7670  177.5580  140.2310 O   0  0  0  0  0  0  0  0  0  0  0  0
  190.6910  177.0510  139.8150 C   0  0  0  0  0  0  0  0  0  0  0  0
  189.5560  176.9960  140.6860 N   0  0  0  0  0  2  0  0  0  0  0  0
  190.4560  175.3740  135.8610 C   0  0  0  0  0  0  0  0  0  0  0  0
  191.1850  175.2740  138.1620 C   0  0  0  0  0  3  0  0  0  0  0  0
  189.2340  178.5040  137.5620 C   0  0  0  0  0  1  0  0  0  0  0  0
  190.3940  174.8120  134.5940 O   0  0  0  0  0  1  0  0  0  0  0  0
  191.1240  174.7080  136.8870 C   0  0  0  0  0  3  0  0  0  0  0  0
  189.9060  177.1840  137.3820 C   0  0  0  0  0  0  0  0  0  0  0  0
  190.5820  176.5140  138.4340 C   0  0  0  0  0  0  0  0  0  0  0  0
  189.8510  176.6060  136.1090 C   0  0  0  0  0  3  0  0  0  0  0  0
  1  9  1  0  0  0  0
  2  3  1  0  0  0  0
  2  5  1  0  0  0  0
  3  7  2  0  0  0  0
  4 11  1  0  0  0  0
  5 14  1  0  0  0  0
  6  1  1  0  0  0  0
  7  4  1  0  0  0  0
  8 23  1  6  0  0  0
  8 13  1  0  0  0  0
  8 12  1  0  0  0  0
 10 19  2  0  0  0  0
 12 16  1  0  0  0  0
 13  2  1  0  0  0  0
 14  1  2  0  0  0  0
 15  4  2  0  0  0  0
 16  5  2  0  0  0  0
 16 17  1  0  0  0  0
 17  6  2  0  0  0  0
 18 10  1  0  0  0  0
 18 13  2  0  0  0  0
 19 20  1  0  0  0  0
 19  3  1  0  0  0  0
 20 15  1  0  0  0  0
 22 21  2  0  0  0  0
 22 23  1  0  0  0  0
 24 31  2  0  0  0  0
 24 28  1  0  0  0  0
 25 30  1  0  0  0  0
 27 24  1  0  0  0  0
 28 25  2  0  0  0  0
 29 26  1  0  0  0  0
 29 30  2  0  0  0  0
 30 22  1  0  0  0  0
 31 29  1  0  0  0  0
M  END
>  <MODEL>
1

>  <REMARK>
 VINA RESULT:     -10.9      0.000      0.000
  Name = 
  2 active torsions:
  status: ('A' for Active; 'I' for Inactive)
    1  A    between atoms: C_9  and  C_22
    2  A    between atoms: C_15  and  N_23
                            x       y       z     vdW  Elec       q    Type
                         _______ _______ _______ _____ _____    ______ ____

>  <TORSDO>
F 2

$$$$
=
 OpenBabel10262419323D

 31 35  0  0  1  0  0  0  0  0999 V2000
  192.0010  177.3720  140.9690 C   0  0  0  0  0  0  0  0  0  0  0  0
  189.3100  177.4730  143.6100 N   0  0  0  0  0  0  0  0  0  0  0  0
  189.9330  177.1080  144.8660 C   0  0  2  0  0  3  0  0  0  0  0  0
  191.6630  176.0000  146.2100 C   0  0  0  0  0  0  0  0  0  0  0  0
  189.9780  177.4020  142.3250 C   0  0  0  0  0  0  0  0  0  0  0  0
  191.2280  177.3580  139.8050 C   0  0  0  0  0  3  0  0  0  0  0  0
  191.0740  176.4120  144.9250 C   0  0  0  0  0  3  0  0  0  0  0  0
  187.2290  178.3000  142.3630 C   0  0  2  0  0  3  0  0  0  0  0  0
  193.3520  177.3600  140.8840 F   0  0  0  0  0  0  0  0  0  0  0  0
  188.0410  177.9700  146.0710 N   0  0  0  0  0  0  0  0  0  0  0  0
  192.7770  175.2290  146.2130 F   0  0  0  0  0  0  0  0  0  0  0  0
  187.7200  177.4070  141.2240 C   0  0  0  0  0  2  0  0  0  0  0  0
  187.9460  177.9600  143.6500 C   0  0  0  0  0  0  0  0  0  0  0  0
  191.3800  177.3990  142.2200 C   0  0  0  0  0  3  0  0  0  0  0  0
  191.1020  176.3460  147.3720 C   0  0  0  0  0  3  0  0  0  0  0  0
  189.2110  177.4170  141.1430 C   0  0  0  0  0  0  0  0  0  0  0  0
  189.8350  177.3790  139.8930 C   0  0  0  0  0  3  0  0  0  0  0  0
  187.3670  178.2280  144.8300 C   0  0  0  0  0  3  0  0  0  0  0  0
  189.2250  177.4400  146.1220 C   0  0  0  0  0  0  0  0  0  0  0  0
  189.8790  177.2210  147.4570 C   0  0  0  0  0  3  0  0  0  0  0  0
  185.2640  179.6530  140.8130 O   0  0  0  0  0  0  0  0  0  0  0  0
  184.8440  178.8470  141.6860 C   0  0  0  0  0  0  0  0  0  0  0  0
  185.7850  178.1470  142.5080 N   0  0  0  0  0  2  0  0  0  0  0  0
  180.6220  178.1380  142.0960 C   0  0  0  0  0  0  0  0  0  0  0  0
  182.6470  178.1530  140.7790 C   0  0  0  0  0  3  0  0  0  0  0  0
  183.4060  179.3360  144.3330 C   0  0  0  0  0  1  0  0  0  0  0  0
  179.2590  177.9020  142.2030 O   0  0  0  0  0  1  0  0  0  0  0  0
  181.2760  177.9150  140.8850 C   0  0  0  0  0  3  0  0  0  0  0  0
  182.7140  178.8420  143.1060 C   0  0  0  0  0  0  0  0  0  0  0  0
  183.3890  178.6180  141.8780 C   0  0  0  0  0  0  0  0  0  0  0  0
  181.3390  178.6000  143.2000 C   0  0  0  0  0  3  0  0  0  0  0  0
  1 14  1  0  0  0  0
  2 13  1  0  0  0  0
  2  3  1  0  0  0  0
  3  7  1  6  0  0  0
  3 19  1  0  0  0  0
  4 11  1  0  0  0  0
  4 15  1  0  0  0  0
  5  2  1  0  0  0  0
  6 17  1  0  0  0  0
  6  1  2  0  0  0  0
  7  4  2  0  0  0  0
  8 23  1  1  0  0  0
  8 13  1  0  0  0  0
  9  1  1  0  0  0  0
 10 19  2  0  0  0  0
 12  8  1  0  0  0  0
 13 18  2  0  0  0  0
 14  5  2  0  0  0  0
 15 20  2  0  0  0  0
 16 12  1  0  0  0  0
 16  5  1  0  0  0  0
 17 16  2  0  0  0  0
 18 10  1  0  0  0  0
 19 20  1  0  0  0  0
 21 22  2  0  0  0  0
 22 30  1  0  0  0  0
 22 23  1  0  0  0  0
 24 27  1  0  0  0  0
 24 31  1  0  0  0  0
 25 28  1  0  0  0  0
 25 30  2  0  0  0  0
 28 24  2  0  0  0  0
 29 31  2  0  0  0  0
 29 26  1  0  0  0  0
 30 29  1  0  0  0  0
M  END
>  <MODEL>
2

>  <REMARK>
 VINA RESULT:      -9.9      3.551      7.215
  Name = 
  2 active torsions:
  status: ('A' for Active; 'I' for Inactive)
    1  A    between atoms: C_9  and  C_22
    2  A    between atoms: C_15  and  N_23
                            x       y       z     vdW  Elec       q    Type
                         _______ _______ _______ _____ _____    ______ ____

>  <TORSDO>
F 2

$$$$
=
 OpenBabel10262419323D

 31 35  0  0  1  0  0  0  0  0999 V2000
  190.1210  177.5280  146.7550 C   0  0  0  0  0  0  0  0  0  0  0  0
  188.8170  177.6660  143.2180 N   0  0  0  0  0  0  0  0  0  0  0  0
  187.4170  178.0350  143.2950 C   0  0  0  0  0  0  0  0  0  0  0  0
  185.2520  178.1810  144.4450 C   0  0  0  0  0  0  0  0  0  0  0  0
  189.6360  177.3580  144.3740 C   0  0  0  0  0  0  0  0  0  0  0  0
  191.3080  176.8150  146.5700 C   0  0  0  0  0  3  0  0  0  0  0  0
  186.6870  177.8530  144.4020 C   0  0  0  0  0  3  0  0  0  0  0  0
  190.8740  177.1940  141.7650 C   0  0  2  0  0  3  0  0  0  0  0  0
  189.7730  177.9540  147.9920 F   0  0  0  0  0  0  0  0  0  0  0  0
  187.4160  178.5710  140.9530 N   0  0  0  0  0  0  0  0  0  0  0  0
  184.5410  177.9040  145.5640 F   0  0  0  0  0  0  0  0  0  0  0  0
  191.2340  176.1710  142.8420 C   0  0  0  0  0  2  0  0  0  0  0  0
  189.4320  177.6280  141.9080 C   0  0  0  0  0  0  0  0  0  0  0  0
  189.2940  177.8020  145.6640 C   0  0  0  0  0  3  0  0  0  0  0  0
  184.6330  178.7170  143.3890 C   0  0  0  0  0  3  0  0  0  0  0  0
  190.8500  176.6650  144.1970 C   0  0  0  0  0  0  0  0  0  0  0  0
  191.6710  176.3830  145.2940 C   0  0  0  0  0  3  0  0  0  0  0  0
  188.7660  178.0980  140.8420 C   0  0  0  0  0  3  0  0  0  0  0  0
  186.7580  178.5440  142.0720 C   0  0  0  0  0  0  0  0  0  0  0  0
  185.3550  179.0790  142.1180 C   0  0  0  0  0  2  0  0  0  0  0  0
  193.2560  177.5180  140.2450 O   0  0  0  0  0  0  0  0  0  0  0  0
  192.3500  176.8040  139.7370 C   0  0  0  0  0  0  0  0  0  0  0  0
  191.1220  176.6150  140.4480 N   0  0  0  0  0  2  0  0  0  0  0  0
  192.7570  175.0000  135.8540 C   0  0  0  0  0  0  0  0  0  0  0  0
  191.5300  176.3390  137.4470 C   0  0  0  0  0  3  0  0  0  0  0  0
  194.7960  175.1280  139.0170 C   0  0  0  0  0  1  0  0  0  0  0  0
  192.8650  174.4290  134.5940 O   0  0  0  0  0  1  0  0  0  0  0  0
  191.6370  175.7640  136.1790 C   0  0  0  0  0  3  0  0  0  0  0  0
  193.6720  175.3820  138.0700 C   0  0  0  0  0  0  0  0  0  0  0  0
  192.5370  176.1610  138.4110 C   0  0  0  0  0  0  0  0  0  0  0  0
  193.7680  174.8110  136.7960 C   0  0  0  0  0  3  0  0  0  0  0  0
  1  9  1  0  0  0  0
  2  3  1  0  0  0  0
  2  5  1  0  0  0  0
  3  7  2  0  0  0  0
  4 11  1  0  0  0  0
  5 14  1  0  0  0  0
  6  1  1  0  0  0  0
  7  4  1  0  0  0  0
  8 23  1  6  0  0  0
  8 13  1  0  0  0  0
  8 12  1  0  0  0  0
 10 19  2  0  0  0  0
 12 16  1  0  0  0  0
 13  2  1  0  0  0  0
 14  1  2  0  0  0  0
 15  4  2  0  0  0  0
 16  5  2  0  0  0  0
 16 17  1  0  0  0  0
 17  6  2  0  0  0  0
 18 10  1  0  0  0  0
 18 13  2  0  0  0  0
 19 20  1  0  0  0  0
 19  3  1  0  0  0  0
 20 15  1  0  0  0  0
 22 21  2  0  0  0  0
 22 23  1  0  0  0  0
 24 28  2  0  0  0  0
 24 31  1  0  0  0  0
 25 30  2  0  0  0  0
 27 24  1  0  0  0  0
 28 25  1  0  0  0  0
 29 30  1  0  0  0  0
 29 26  1  0  0  0  0
 30 22  1  0  0  0  0
 31 29  2  0  0  0  0
M  END
>  <MODEL>
3

>  <REMARK>
 VINA RESULT:      -9.0      1.524      2.140
  Name = 
  2 active torsions:
  status: ('A' for Active; 'I' for Inactive)
    1  A    between atoms: C_9  and  C_22
    2  A    between atoms: C_15  and  N_23
                            x       y       z     vdW  Elec       q    Type
                         _______ _______ _______ _____ _____    ______ ____

>  <TORSDO>
F 2

$$$$
=
 OpenBabel10262419323D

 31 35  0  0  1  0  0  0  0  0999 V2000
  186.0590  178.5810  146.5630 C   0  0  0  0  0  0  0  0  0  0  0  0
  185.4410  178.3800  142.8470 N   0  0  0  0  0  0  0  0  0  0  0  0
  184.0280  178.6180  142.6380 C   0  0  0  0  0  0  0  0  0  0  0  0
  181.6790  178.6280  143.3560 C   0  0  0  0  0  0  0  0  0  0  0  0
  186.0490  178.2220  144.1540 C   0  0  0  0  0  0  0  0  0  0  0  0
  187.3140  177.9750  146.6550 C   0  0  0  0  0  3  0  0  0  0  0  0
  183.1180  178.4360  143.6020 C   0  0  0  0  0  3  0  0  0  0  0  0
  187.7680  178.0170  141.8360 C   0  0  2  0  0  3  0  0  0  0  0  0
  185.4490  179.0470  147.6780 F   0  0  0  0  0  0  0  0  0  0  0  0
  184.4260  179.0090  140.3000 N   0  0  0  0  0  0  0  0  0  0  0  0
  180.7940  178.3530  144.3440 F   0  0  0  0  0  0  0  0  0  0  0  0
  188.0010  177.1010  143.0370 C   0  0  0  0  0  2  0  0  0  0  0  0
  186.2950  178.3210  141.6780 C   0  0  0  0  0  0  0  0  0  0  0  0
  185.4340  178.7090  145.3200 C   0  0  0  0  0  3  0  0  0  0  0  0
  181.2290  179.0370  142.1660 C   0  0  0  0  0  3  0  0  0  0  0  0
  187.3280  177.6380  144.2570 C   0  0  0  0  0  0  0  0  0  0  0  0
  187.9460  177.5030  145.5030 C   0  0  0  0  0  3  0  0  0  0  0  0
  185.8070  178.6590  140.4760 C   0  0  0  0  0  3  0  0  0  0  0  0
  183.5720  178.9870  141.2790 C   0  0  0  0  0  0  0  0  0  0  0  0
  182.1470  179.3880  141.0250 C   0  0  0  0  0  2  0  0  0  0  0  0
  189.0550  179.3780  139.6950 O   0  0  0  0  0  0  0  0  0  0  0  0
  188.9580  178.1250  139.5970 C   0  0  0  0  0  0  0  0  0  0  0  0
  188.3080  177.3860  140.6360 N   0  0  0  0  0  2  0  0  0  0  0  0
  190.6570  175.9970  136.2670 C   0  0  0  0  0  0  0  0  0  0  0  0
  190.7120  176.7050  138.5760 C   0  0  0  0  0  3  0  0  0  0  0  0
  187.5910  178.1000  136.8690 C   0  0  0  0  0  1  0  0  0  0  0  0
  191.2250  175.3030  135.2090 O   0  0  0  0  0  1  0  0  0  0  0  0
  191.2850  176.0070  137.5120 C   0  0  0  0  0  3  0  0  0  0  0  0
  188.8740  177.3890  137.1470 C   0  0  0  0  0  0  0  0  0  0  0  0
  189.5050  177.4060  138.4170 C   0  0  0  0  0  0  0  0  0  0  0  0
  189.4570  176.6850  136.0870 C   0  0  0  0  0  3  0  0  0  0  0  0
  1  6  1  0  0  0  0
  1  9  1  0  0  0  0
  2  5  1  0  0  0  0
  3  2  1  0  0  0  0
  3  7  2  0  0  0  0
  4  7  1  0  0  0  0
  4 11  1  0  0  0  0
  5 16  2  0  0  0  0
  5 14  1  0  0  0  0
  8 23  1  6  0  0  0
  8 12  1  0  0  0  0
 10 18  1  0  0  0  0
 10 19  2  0  0  0  0
 12 16  1  0  0  0  0
 13  8  1  0  0  0  0
 13  2  1  0  0  0  0
 14  1  2  0  0  0  0
 15  4  2  0  0  0  0
 16 17  1  0  0  0  0
 17  6  2  0  0  0  0
 18 13  2  0  0  0  0
 19  3  1  0  0  0  0
 20 19  1  0  0  0  0
 20 15  1  0  0  0  0
 22 21  2  0  0  0  0
 22 23  1  0  0  0  0
 24 28  1  0  0  0  0
 26 29  1  0  0  0  0
 27 24  1  0  0  0  0
 28 25  2  0  0  0  0
 29 30  2  0  0  0  0
 30 25  1  0  0  0  0
 30 22  1  0  0  0  0
 31 24  2  0  0  0  0
 31 29  1  0  0  0  0
M  END
>  <MODEL>
4

>  <REMARK>
 VINA RESULT:      -9.0      1.887      2.819
  Name = 
  2 active torsions:
  status: ('A' for Active; 'I' for Inactive)
    1  A    between atoms: C_9  and  C_22
    2  A    between atoms: C_15  and  N_23
                            x       y       z     vdW  Elec       q    Type
                         _______ _______ _______ _____ _____    ______ ____

>  <TORSDO>
F 2

$$$$
=
 OpenBabel10262419323D

 31 35  0  0  1  0  0  0  0  0999 V2000
  182.7380  179.0170  140.2910 C   0  0  0  0  0  0  0  0  0  0  0  0
  186.4450  178.3520  140.0840 N   0  0  0  0  0  0  0  0  0  0  0  0
  186.7660  178.1660  138.6830 C   0  0  0  0  0  0  0  0  0  0  0  0
  186.2020  177.5730  136.3690 C   0  0  0  0  0  0  0  0  0  0  0  0
  185.0940  178.4770  140.5940 C   0  0  0  0  0  0  0  0  0  0  0  0
  182.5060  178.7970  141.6510 C   0  0  0  0  0  3  0  0  0  0  0  0
  185.8470  177.8130  137.7770 C   0  0  0  0  0  3  0  0  0  0  0  0
  187.2660  178.5780  142.5020 C   0  0  2  0  0  3  0  0  0  0  0  0
  181.7160  179.3810  139.4800 F   0  0  0  0  0  0  0  0  0  0  0  0
  189.1010  178.4630  139.1650 N   0  0  0  0  0  0  0  0  0  0  0  0
  185.2490  177.1410  135.5090 F   0  0  0  0  0  0  0  0  0  0  0  0
  185.9650  177.8630  142.8690 C   0  0  0  0  0  2  0  0  0  0  0  0
  187.5460  178.4420  141.0220 C   0  0  0  0  0  0  0  0  0  0  0  0
  184.0240  178.8630  139.7670 C   0  0  0  0  0  3  0  0  0  0  0  0
  187.4530  177.7420  135.9310 C   0  0  0  0  0  3  0  0  0  0  0  0
  184.8510  178.2860  141.9690 C   0  0  0  0  0  0  0  0  0  0  0  0
  183.5610  178.4310  142.4870 C   0  0  0  0  0  3  0  0  0  0  0  0
  188.8050  178.5310  140.5680 C   0  0  0  0  0  3  0  0  0  0  0  0
  188.1820  178.2810  138.2670 C   0  0  0  0  0  0  0  0  0  0  0  0
  188.5640  178.2440  136.8140 C   0  0  0  0  0  2  0  0  0  0  0  0
  187.2660  178.3040  145.3330 O   0  0  0  0  0  0  0  0  0  0  0  0
  188.2940  177.9050  144.7230 C   0  0  0  0  0  0  0  0  0  0  0  0
  188.3590  178.0300  143.2980 N   0  0  0  0  0  2  0  0  0  0  0  0
  191.6820  176.1710  146.7260 C   0  0  0  0  0  0  0  0  0  0  0  0
  190.5520  176.8870  144.7150 C   0  0  0  0  0  3  0  0  0  0  0  0
  188.3410  177.5710  147.7550 C   0  0  0  0  0  1  0  0  0  0  0  0
  192.7870  175.6090  147.3480 O   0  0  0  0  0  1  0  0  0  0  0  0
  191.6640  176.3210  145.3400 C   0  0  0  0  0  3  0  0  0  0  0  0
  189.4680  177.1550  146.8700 C   0  0  0  0  0  0  0  0  0  0  0  0
  189.4390  177.3130  145.4600 C   0  0  0  0  0  0  0  0  0  0  0  0
  190.5890  176.5870  147.4850 C   0  0  0  0  0  3  0  0  0  0  0  0
  1  6  1  0  0  0  0
  2  5  1  0  0  0  0
  2 13  1  0  0  0  0
  3  2  1  0  0  0  0
  4  7  1  0  0  0  0
  5 16  2  0  0  0  0
  6 17  2  0  0  0  0
  7  3  2  0  0  0  0
  8 12  1  0  0  0  0
  8 23  1  1  0  0  0
  9  1  1  0  0  0  0
 10 18  1  0  0  0  0
 11  4  1  0  0  0  0
 13  8  1  0  0  0  0
 14  1  2  0  0  0  0
 14  5  1  0  0  0  0
 15  4  2  0  0  0  0
 15 20  1  0  0  0  0
 16 17  1  0  0  0  0
 16 12  1  0  0  0  0
 18 13  2  0  0  0  0
 19  3  1  0  0  0  0
 19 10  2  0  0  0  0
 20 19  1  0  0  0  0
 22 21  2  0  0  0  0
 22 30  1  0  0  0  0
 23 22  1  0  0  0  0
 24 27  1  0  0  0  0
 24 31  1  0  0  0  0
 25 28  1  0  0  0  0
 25 30  2  0  0  0  0
 28 24  2  0  0  0  0
 29 31  2  0  0  0  0
 29 26  1  0  0  0  0
 30 29  1  0  0  0  0
M  END
>  <MODEL>
5

>  <REMARK>
 VINA RESULT:      -9.0      4.115      8.057
  Name = 
  2 active torsions:
  status: ('A' for Active; 'I' for Inactive)
    1  A    between atoms: C_9  and  C_22
    2  A    between atoms: C_15  and  N_23
                            x       y       z     vdW  Elec       q    Type
                         _______ _______ _______ _____ _____    ______ ____

>  <TORSDO>
F 2

$$$$
=
 OpenBabel10262419323D

 31 35  0  0  1  0  0  0  0  0999 V2000
  180.0720  178.8460  142.1930 C   0  0  0  0  0  0  0  0  0  0  0  0
  183.7960  178.6450  141.6330 N   0  0  0  0  0  0  0  0  0  0  0  0
  183.9990  178.2710  140.2480 C   0  0  0  0  0  0  0  0  0  0  0  0
  183.2980  177.2310  138.1370 C   0  0  0  0  0  0  0  0  0  0  0  0
  182.5000  178.6770  142.2810 C   0  0  0  0  0  0  0  0  0  0  0  0
  180.0130  178.8290  143.5880 C   0  0  0  0  0  3  0  0  0  0  0  0
  183.0560  177.6550  139.5260 C   0  0  0  0  0  3  0  0  0  0  0  0
  184.8140  179.3780  143.8690 C   0  0  2  0  0  3  0  0  0  0  0  0
  178.9310  178.9330  141.4680 F   0  0  0  0  0  0  0  0  0  0  0  0
  186.3000  178.9470  140.3880 N   0  0  0  0  0  0  0  0  0  0  0  0
  182.3380  176.5410  137.4770 F   0  0  0  0  0  0  0  0  0  0  0  0
  183.6780  178.5710  144.4980 C   0  0  0  0  0  2  0  0  0  0  0  0
  184.9610  179.0330  142.4040 C   0  0  0  0  0  0  0  0  0  0  0  0
  181.3060  178.7760  141.5440 C   0  0  0  0  0  3  0  0  0  0  0  0
  184.4600  177.4860  137.5280 C   0  0  0  0  0  3  0  0  0  0  0  0
  182.4280  178.6890  143.6880 C   0  0  0  0  0  0  0  0  0  0  0  0
  181.1900  178.7480  144.3340 C   0  0  0  0  0  3  0  0  0  0  0  0
  186.1400  179.2090  141.7890 C   0  0  0  0  0  3  0  0  0  0  0  0
  185.3320  178.4990  139.6480 C   0  0  0  0  0  0  0  0  0  0  0  0
  185.5670  178.2690  138.1820 C   0  0  0  0  0  2  0  0  0  0  0  0
  186.0570  176.8340  144.1510 O   0  0  0  0  0  0  0  0  0  0  0  0
  186.6350  177.8140  144.6940 C   0  0  0  0  0  0  0  0  0  0  0  0
  186.0510  179.1170  144.5980 N   0  0  0  0  0  2  0  0  0  0  0  0
  190.2490  177.2850  146.9640 C   0  0  0  0  0  0  0  0  0  0  0  0
  187.8460  177.4790  146.8280 C   0  0  0  0  0  3  0  0  0  0  0  0
  189.3670  177.7700  143.3350 C   0  0  0  0  0  1  0  0  0  0  0  0
  191.4010  177.1120  147.7190 O   0  0  0  0  0  1  0  0  0  0  0  0
  189.0030  177.3060  147.5890 C   0  0  0  0  0  3  0  0  0  0  0  0
  189.1840  177.6120  144.8080 C   0  0  0  0  0  0  0  0  0  0  0  0
  187.9110  177.6350  145.4340 C   0  0  0  0  0  0  0  0  0  0  0  0
  190.3380  177.4370  145.5810 C   0  0  0  0  0  3  0  0  0  0  0  0
  1  6  1  0  0  0  0
  2  5  1  0  0  0  0
  2 13  1  0  0  0  0
  3  2  1  0  0  0  0
  4  7  1  0  0  0  0
  5 16  2  0  0  0  0
  6 17  2  0  0  0  0
  7  3  2  0  0  0  0
  8 12  1  0  0  0  0
  8 23  1  1  0  0  0
  9  1  1  0  0  0  0
 10 18  1  0  0  0  0
 11  4  1  0  0  0  0
 13  8  1  0  0  0  0
 14  1  2  0  0  0  0
 14  5  1  0  0  0  0
 15  4  2  0  0  0  0
 15 20  1  0  0  0  0
 16 17  1  0  0  0  0
 16 12  1  0  0  0  0
 18 13  2  0  0  0  0
 19  3  1  0  0  0  0
 19 10  2  0  0  0  0
 20 19  1  0  0  0  0
 21 22  2  0  0  0  0
 22 30  1  0  0  0  0
 23 22  1  0  0  0  0
 24 28  1  0  0  0  0
 24 27  1  0  0  0  0
 25 28  2  0  0  0  0
 26 29  1  0  0  0  0
 29 30  2  0  0  0  0
 29 31  1  0  0  0  0
 30 25  1  0  0  0  0
 31 24  2  0  0  0  0
M  END
>  <MODEL>
6

>  <REMARK>
 VINA RESULT:      -8.9      4.599      8.142
  Name = 
  2 active torsions:
  status: ('A' for Active; 'I' for Inactive)
    1  A    between atoms: C_9  and  C_22
    2  A    between atoms: C_15  and  N_23
                            x       y       z     vdW  Elec       q    Type
                         _______ _______ _______ _____ _____    ______ ____

>  <TORSDO>
F 2

$$$$
=
 OpenBabel10262419323D

 31 35  0  0  1  0  0  0  0  0999 V2000
  186.7790  178.2600  136.7330 C   0  0  0  0  0  0  0  0  0  0  0  0
  185.1330  178.6480  140.1040 N   0  0  0  0  0  0  0  0  0  0  0  0
  183.7860  179.1260  139.8670 C   0  0  2  0  0  3  0  0  0  0  0  0
  182.0760  180.2830  138.5370 C   0  0  0  0  0  0  0  0  0  0  0  0
  186.1390  178.5200  139.0680 C   0  0  0  0  0  0  0  0  0  0  0  0
  188.1240  178.1780  137.1040 C   0  0  0  0  0  3  0  0  0  0  0  0
  183.4350  179.7530  138.7380 C   0  0  0  0  0  3  0  0  0  0  0  0
  186.8890  177.8020  141.7690 C   0  0  2  0  0  3  0  0  0  0  0  0
  186.4310  178.1790  135.4260 F   0  0  0  0  0  0  0  0  0  0  0  0
  183.1660  178.5350  142.1120 N   0  0  0  0  0  0  0  0  0  0  0  0
  181.7950  180.9780  137.4100 F   0  0  0  0  0  0  0  0  0  0  0  0
  187.8940  178.5170  140.8660 C   0  0  0  0  0  2  0  0  0  0  0  0
  185.4800  178.2540  141.4540 C   0  0  0  0  0  0  0  0  0  0  0  0
  185.7940  178.4240  137.7090 C   0  0  0  0  0  3  0  0  0  0  0  0
  181.1250  180.1170  139.4610 C   0  0  0  0  0  3  0  0  0  0  0  0
  187.4960  178.4070  139.4310 C   0  0  0  0  0  0  0  0  0  0  0  0
  188.4810  178.2530  138.4510 C   0  0  0  0  0  3  0  0  0  0  0  0
  184.5250  178.1680  142.3920 C   0  0  0  0  0  3  0  0  0  0  0  0
  182.7930  178.9940  140.9560 C   0  0  0  0  0  0  0  0  0  0  0  0
  181.3470  179.3350  140.7280 C   0  0  0  0  0  3  0  0  0  0  0  0
  187.9300  175.8850  143.5940 O   0  0  0  0  0  0  0  0  0  0  0  0
  187.7600  177.0540  144.0320 C   0  0  0  0  0  0  0  0  0  0  0  0
  187.2260  178.0600  143.1650 N   0  0  0  0  0  2  0  0  0  0  0  0
  188.8950  178.0170  148.0670 C   0  0  0  0  0  0  0  0  0  0  0  0
  189.4270  177.1990  145.8580 C   0  0  0  0  0  3  0  0  0  0  0  0
  185.7370  178.1780  146.0210 C   0  0  0  0  0  1  0  0  0  0  0  0
  189.2850  178.3200  149.3640 O   0  0  0  0  0  1  0  0  0  0  0  0
  189.8210  177.5030  147.1620 C   0  0  0  0  0  3  0  0  0  0  0  0
  187.1670  177.9260  146.3650 C   0  0  0  0  0  0  0  0  0  0  0  0
  188.1030  177.4020  145.4350 C   0  0  0  0  0  0  0  0  0  0  0  0
  187.5740  178.2270  147.6690 C   0  0  0  0  0  3  0  0  0  0  0  0
  1  6  2  0  0  0  0
  1 14  1  0  0  0  0
  2 13  1  0  0  0  0
  3  7  1  1  0  0  0
  3  2  1  0  0  0  0
  3 19  1  0  0  0  0
  4  7  2  0  0  0  0
  4 15  1  0  0  0  0
  5 16  1  0  0  0  0
  5  2  1  0  0  0  0
  6 17  1  0  0  0  0
  8 23  1  1  0  0  0
  9  1  1  0  0  0  0
 10 18  1  0  0  0  0
 11  4  1  0  0  0  0
 12  8  1  0  0  0  0
 13  8  1  0  0  0  0
 13 18  2  0  0  0  0
 14  5  2  0  0  0  0
 15 20  2  0  0  0  0
 16 12  1  0  0  0  0
 17 16  2  0  0  0  0
 19 10  2  0  0  0  0
 20 19  1  0  0  0  0
 21 22  2  0  0  0  0
 22 30  1  0  0  0  0
 23 22  1  0  0  0  0
 24 27  1  0  0  0  0
 25 28  1  0  0  0  0
 26 29  1  0  0  0  0
 28 24  2  0  0  0  0
 29 31  2  0  0  0  0
 30 25  2  0  0  0  0
 30 29  1  0  0  0  0
 31 24  1  0  0  0  0
M  END
>  <MODEL>
7

>  <REMARK>
 VINA RESULT:      -8.9      4.277      8.081
  Name = 
  2 active torsions:
  status: ('A' for Active; 'I' for Inactive)
    1  A    between atoms: C_9  and  C_22
    2  A    between atoms: C_15  and  N_23
                            x       y       z     vdW  Elec       q    Type
                         _______ _______ _______ _____ _____    ______ ____

>  <TORSDO>
F 2

$$$$
=
 OpenBabel10262419323D

 31 35  0  0  1  0  0  0  0  0999 V2000
  185.5570  178.3110  145.8720 C   0  0  0  0  0  0  0  0  0  0  0  0
  185.7440  178.3130  142.1050 N   0  0  0  0  0  0  0  0  0  0  0  0
  184.4040  178.5640  141.6130 C   0  0  0  0  0  0  0  0  0  0  0  0
  181.9570  178.5350  141.8150 C   0  0  0  0  0  0  0  0  0  0  0  0
  186.0620  178.0840  143.5000 C   0  0  0  0  0  0  0  0  0  0  0  0
  186.7710  177.7000  146.1960 C   0  0  0  0  0  3  0  0  0  0  0  0
  183.3130  178.3290  142.3510 C   0  0  0  0  0  3  0  0  0  0  0  0
  188.2360  178.0050  141.5930 C   0  0  2  0  0  3  0  0  0  0  0  0
  184.7190  178.7160  146.8560 F   0  0  0  0  0  0  0  0  0  0  0  0
  185.2840  179.0810  139.4380 N   0  0  0  0  0  0  0  0  0  0  0  0
  180.8860  178.2070  142.5760 F   0  0  0  0  0  0  0  0  0  0  0  0
  188.2190  177.0240  142.7650 C   0  0  0  0  0  2  0  0  0  0  0  0
  186.8270  178.3180  141.1420 C   0  0  0  0  0  0  0  0  0  0  0  0
  185.2080  178.5070  144.5340 C   0  0  0  0  0  3  0  0  0  0  0  0
  181.7650  179.0090  140.5810 C   0  0  0  0  0  3  0  0  0  0  0  0
  187.2960  177.4950  143.8410 C   0  0  0  0  0  0  0  0  0  0  0  0
  187.6380  177.2910  145.1810 C   0  0  0  0  0  3  0  0  0  0  0  0
  186.6000  178.7220  139.8830 C   0  0  0  0  0  3  0  0  0  0  0  0
  184.2430  179.0060  140.2100 C   0  0  0  0  0  0  0  0  0  0  0  0
  182.8990  179.4220  139.6810 C   0  0  0  0  0  2  0  0  0  0  0  0
  191.0570  177.6420  141.6170 O   0  0  0  0  0  0  0  0  0  0  0  0
  190.4440  177.2710  140.5800 C   0  0  0  0  0  0  0  0  0  0  0  0
  189.0250  177.4410  140.5030 N   0  0  0  0  0  2  0  0  0  0  0  0
  192.4230  175.4600  137.2180 C   0  0  0  0  0  0  0  0  0  0  0  0
  190.4270  175.9480  138.4860 C   0  0  0  0  0  3  0  0  0  0  0  0
  193.4630  177.5050  140.2050 C   0  0  0  0  0  1  0  0  0  0  0  0
  193.0390  174.8680  136.1240 O   0  0  0  0  0  1  0  0  0  0  0  0
  191.0440  175.3500  137.3870 C   0  0  0  0  0  3  0  0  0  0  0  0
  192.5770  176.7700  139.2560 C   0  0  0  0  0  0  0  0  0  0  0  0
  191.1740  176.6640  139.4370 C   0  0  0  0  0  0  0  0  0  0  0  0
  193.1850  176.1670  138.1490 C   0  0  0  0  0  3  0  0  0  0  0  0
  1  6  1  0  0  0  0
  1  9  1  0  0  0  0
  2  5  1  0  0  0  0
  3  2  1  0  0  0  0
  3  7  2  0  0  0  0
  4  7  1  0  0  0  0
  4 11  1  0  0  0  0
  5 16  2  0  0  0  0
  5 14  1  0  0  0  0
  8 23  1  6  0  0  0
  8 12  1  0  0  0  0
 10 18  1  0  0  0  0
 10 19  2  0  0  0  0
 12 16  1  0  0  0  0
 13  8  1  0  0  0  0
 13  2  1  0  0  0  0
 14  1  2  0  0  0  0
 15  4  2  0  0  0  0
 16 17  1  0  0  0  0
 17  6  2  0  0  0  0
 18 13  2  0  0  0  0
 19  3  1  0  0  0  0
 20 19  1  0  0  0  0
 20 15  1  0  0  0  0
 22 21  2  0  0  0  0
 23 22  1  0  0  0  0
 24 28  2  0  0  0  0
 24 31  1  0  0  0  0
 25 30  2  0  0  0  0
 27 24  1  0  0  0  0
 28 25  1  0  0  0  0
 29 30  1  0  0  0  0
 29 26  1  0  0  0  0
 30 22  1  0  0  0  0
 31 29  2  0  0  0  0
M  END
>  <MODEL>
8

>  <REMARK>
 VINA RESULT:      -8.9      2.204      3.409
  Name = 
  2 active torsions:
  status: ('A' for Active; 'I' for Inactive)
    1  A    between atoms: C_9  and  C_22
    2  A    between atoms: C_15  and  N_23
                            x       y       z     vdW  Elec       q    Type
                         _______ _______ _______ _____ _____    ______ ____

>  <TORSDO>
F 2

$$$$
=
 OpenBabel10262419323D

 31 35  0  0  1  0  0  0  0  0999 V2000
  185.5970  178.3280  144.1590 C   0  0  0  0  0  0  0  0  0  0  0  0
  189.1820  177.2170  143.7840 N   0  0  0  0  0  0  0  0  0  0  0  0
  189.7540  177.1710  145.1140 C   0  0  2  0  0  3  0  0  0  0  0  0
  189.8710  177.8490  147.4710 C   0  0  0  0  0  0  0  0  0  0  0  0
  187.8650  177.7460  143.4880 C   0  0  0  0  0  0  0  0  0  0  0  0
  185.2950  178.6920  142.8440 C   0  0  0  0  0  3  0  0  0  0  0  0
  189.2430  177.8620  146.1390 C   0  0  0  0  0  3  0  0  0  0  0  0
  189.4430  176.7530  141.2770 C   0  0  2  0  0  3  0  0  0  0  0  0
  184.6540  178.4350  145.1250 F   0  0  0  0  0  0  0  0  0  0  0  0
  191.5940  175.8630  144.2920 N   0  0  0  0  0  0  0  0  0  0  0  0
  189.3600  178.6280  148.4540 F   0  0  0  0  0  0  0  0  0  0  0  0
  188.5770  177.9980  141.0920 C   0  0  0  0  0  2  0  0  0  0  0  0
  189.9680  176.6780  142.6930 C   0  0  0  0  0  0  0  0  0  0  0  0
  186.8710  177.8530  144.4770 C   0  0  0  0  0  3  0  0  0  0  0  0
  190.9540  177.1070  147.7190 C   0  0  0  0  0  3  0  0  0  0  0  0
  187.5380  178.0900  142.1610 C   0  0  0  0  0  0  0  0  0  0  0  0
  186.2650  178.5750  141.8480 C   0  0  0  0  0  3  0  0  0  0  0  0
  191.0980  176.0020  142.9530 C   0  0  0  0  0  3  0  0  0  0  0  0
  191.0030  176.4030  145.3140 C   0  0  0  0  0  0  0  0  0  0  0  0
  191.5690  176.1940  146.6910 C   0  0  0  0  0  3  0  0  0  0  0  0
  189.3560  175.6350  138.6620 O   0  0  0  0  0  0  0  0  0  0  0  0
  190.4260  176.2080  139.0010 C   0  0  0  0  0  0  0  0  0  0  0  0
  190.5350  176.7780  140.3100 N   0  0  0  0  0  2  0  0  0  0  0  0
  193.6630  176.4150  136.1760 C   0  0  0  0  0  0  0  0  0  0  0  0
  191.3600  175.9350  136.7230 C   0  0  0  0  0  3  0  0  0  0  0  0
  193.2100  177.1280  139.8460 C   0  0  0  0  0  1  0  0  0  0  0  0
  194.6900  176.4740  135.2460 O   0  0  0  0  0  1  0  0  0  0  0  0
  192.3930  175.9930  135.7860 C   0  0  0  0  0  3  0  0  0  0  0  0
  192.8720  176.7240  138.4500 C   0  0  0  0  0  0  0  0  0  0  0  0
  191.5760  176.2960  138.0640 C   0  0  0  0  0  0  0  0  0  0  0  0
  193.9000  176.7780  137.5020 C   0  0  0  0  0  3  0  0  0  0  0  0
  1 14  1  0  0  0  0
  1  9  1  0  0  0  0
  2  3  1  0  0  0  0
  3 19  1  0  0  0  0
  3  7  1  6  0  0  0
  4 15  1  0  0  0  0
  4 11  1  0  0  0  0
  5  2  1  0  0  0  0
  5 14  2  0  0  0  0
  6  1  2  0  0  0  0
  7  4  2  0  0  0  0
  8 23  1  6  0  0  0
  8 13  1  0  0  0  0
 10 19  2  0  0  0  0
 12  8  1  0  0  0  0
 12 16  1  0  0  0  0
 13 18  2  0  0  0  0
 13  2  1  0  0  0  0
 16  5  1  0  0  0  0
 17 16  2  0  0  0  0
 17  6  1  0  0  0  0
 18 10  1  0  0  0  0
 19 20  1  0  0  0  0
 20 15  2  0  0  0  0
 21 22  2  0  0  0  0
 22 23  1  0  0  0  0
 24 31  1  0  0  0  0
 25 30  2  0  0  0  0
 27 24  1  0  0  0  0
 28 24  2  0  0  0  0
 28 25  1  0  0  0  0
 29 26  1  0  0  0  0
 30 29  1  0  0  0  0
 30 22  1  0  0  0  0
 31 29  2  0  0  0  0
M  END
>  <MODEL>
9

>  <REMARK>
 VINA RESULT:      -8.8      1.889      4.481
  Name = 
  2 active torsions:
  status: ('A' for Active; 'I' for Inactive)
    1  A    between atoms: C_9  and  C_22
    2  A    between atoms: C_15  and  N_23
                            x       y       z     vdW  Elec       q    Type
                         _______ _______ _______ _____ _____    ______ ____

>  <TORSDO>
F 2

$$$$
