=
 OpenBabel10262419203D

 31 34  0  0  1  0  0  0  0  0999 V2000
  184.8410  178.6840  144.6050 C   0  0  0  0  0  0  0  0  0  0  0  0
  187.9770  176.6250  143.9560 C   0  0  1  0  0  3  0  0  0  0  0  0
  189.1100  177.2090  144.8000 C   0  0  0  0  0  0  0  0  0  0  0  0
  188.9880  178.9760  139.2760 O   0  0  0  0  0  0  0  0  0  0  0  0
  189.6730  177.9220  139.3690 C   0  0  0  0  0  0  0  0  0  0  0  0
  189.0630  177.4470  147.2680 C   0  0  0  0  0  3  0  0  0  0  0  0
  186.8330  177.5870  143.7690 C   0  0  0  0  0  0  0  0  0  0  0  0
  184.7960  179.4810  143.4570 C   0  0  0  0  0  3  0  0  0  0  0  0
  188.7430  178.0870  145.9600 C   0  0  0  0  0  2  0  0  0  0  0  0
  188.5440  177.1610  141.5320 C   0  0  0  0  0  0  0  0  0  0  0  0
  183.6280  178.8780  145.8520 Cl  0  0  0  0  0  0  0  0  0  0  0  0
  190.8250  176.1720  143.3140 C   0  0  0  0  0  2  0  0  0  0  0  0
  190.3140  177.1880  147.6390 C   0  0  0  0  0  3  0  0  0  0  0  0
  187.7290  178.1780  141.5580 N   0  0  0  0  0  0  0  0  0  0  0  0
  188.4400  176.0750  142.5900 C   0  0  1  0  0  3  0  0  0  0  0  0
  189.4610  176.9950  140.4410 N   0  0  0  0  0  2  0  0  0  0  0  0
  185.8590  177.7400  144.7630 C   0  0  0  0  0  3  0  0  0  0  0  0
  191.4920  177.4150  146.7830 C   0  0  0  0  0  3  0  0  0  0  0  0
  186.7750  178.3740  142.6070 C   0  0  0  0  0  0  0  0  0  0  0  0
  185.7600  179.3250  142.4570 C   0  0  0  0  0  3  0  0  0  0  0  0
  189.7270  175.2770  142.7570 C   0  0  0  0  0  2  0  0  0  0  0  0
  190.4070  176.8810  144.5710 C   0  0  0  0  0  0  0  0  0  0  0  0
  191.5250  177.2920  145.4500 C   0  0  0  0  0  3  0  0  0  0  0  0
  190.2720  177.8150  137.0750 F   0  0  0  0  0  0  0  0  0  0  0  0
  190.7510  177.6590  138.3630 C   0  0  2  0  0  3  0  0  0  0  0  0
  190.7880  175.2470  137.6320 C   0  0  0  0  0  1  0  0  0  0  0  0
  191.4340  176.2920  138.5290 C   0  0  1  0  0  3  0  0  0  0  0  0
  192.9630  176.2990  138.3840 C   0  0  0  0  0  0  0  0  0  0  0  0
  193.4560  175.0070  138.3040 F   0  0  0  0  0  0  0  0  0  0  0  0
  193.3350  176.9970  137.2490 F   0  0  0  0  0  0  0  0  0  0  0  0
  193.5220  176.9210  139.4840 F   0  0  0  0  0  0  0  0  0  0  0  0
  1 17  1  0  0  0  0
  1 11  1  0  0  0  0
  2  7  1  6  0  0  0
  2  3  1  0  0  0  0
  3  9  1  0  0  0  0
  4  5  2  0  0  0  0
  5 16  1  0  0  0  0
  6 13  2  0  0  0  0
  7 17  2  0  0  0  0
  8  1  2  0  0  0  0
  9  6  1  0  0  0  0
 10 14  2  0  0  0  0
 10 15  1  0  0  0  0
 12 22  1  0  0  0  0
 14 19  1  0  0  0  0
 15 21  1  1  0  0  0
 15  2  1  0  0  0  0
 16 10  1  0  0  0  0
 18 13  1  0  0  0  0
 19  7  1  0  0  0  0
 20 19  2  0  0  0  0
 20  8  1  0  0  0  0
 21 12  1  0  0  0  0
 22  3  2  0  0  0  0
 22 23  1  0  0  0  0
 23 18  2  0  0  0  0
 25 24  1  6  0  0  0
 25 27  1  0  0  0  0
 25  5  1  0  0  0  0
 27 26  1  6  0  0  0
 28 27  1  0  0  0  0
 28 31  1  0  0  0  0
 29 28  1  0  0  0  0
 30 28  1  0  0  0  0
M  END
>  <MODEL>
1

>  <REMARK>
 VINA RESULT:      -9.5      0.000      0.000
  Name = 
  3 active torsions:
  status: ('A' for Active; 'I' for Inactive)
    1  A    between atoms: C_1  and  C_19
    2  A    between atoms: C_9  and  C_22
    3  A    between atoms: C_19  and  C_22
                            x       y       z     vdW  Elec       q    Type
                         _______ _______ _______ _____ _____    ______ ____

>  <TORSDO>
F 3

$$$$
=
 OpenBabel10262419203D

 31 34  0  0  1  0  0  0  0  0999 V2000
  181.0050  178.7930  143.4440 C   0  0  0  0  0  0  0  0  0  0  0  0
  182.7820  178.5830  140.0840 C   0  0  1  0  0  3  0  0  0  0  0  0
  182.6120  177.1620  139.5460 C   0  0  0  0  0  0  0  0  0  0  0  0
  187.6330  178.1840  142.2660 O   0  0  0  0  0  0  0  0  0  0  0  0
  187.7490  178.4650  141.0430 C   0  0  0  0  0  0  0  0  0  0  0  0
  180.4330  176.0550  139.1290 C   0  0  0  0  0  3  0  0  0  0  0  0
  182.5320  178.6810  141.5660 C   0  0  0  0  0  0  0  0  0  0  0  0
  182.0850  178.7200  144.3290 C   0  0  0  0  0  3  0  0  0  0  0  0
  181.5130  176.3190  140.1220 C   0  0  0  0  0  2  0  0  0  0  0  0
  185.2410  178.8230  140.7000 C   0  0  0  0  0  0  0  0  0  0  0  0
  179.3720  178.9000  144.0650 Cl  0  0  0  0  0  0  0  0  0  0  0  0
  184.5940  177.4310  138.0540 C   0  0  0  0  0  2  0  0  0  0  0  0
  180.6450  175.3330  138.0320 C   0  0  0  0  0  3  0  0  0  0  0  0
  184.9570  178.6000  141.9530 N   0  0  0  0  0  0  0  0  0  0  0  0
  184.1420  179.2220  139.7300 C   0  0  1  0  0  3  0  0  0  0  0  0
  186.6050  178.8130  140.2540 N   0  0  0  0  0  2  0  0  0  0  0  0
  181.2260  178.7710  142.0640 C   0  0  0  0  0  3  0  0  0  0  0  0
  181.9610  174.8010  137.6360 C   0  0  0  0  0  3  0  0  0  0  0  0
  183.6170  178.6270  142.4560 C   0  0  0  0  0  0  0  0  0  0  0  0
  183.3910  178.6400  143.8360 C   0  0  0  0  0  3  0  0  0  0  0  0
  184.4940  178.9330  138.2750 C   0  0  0  0  0  2  0  0  0  0  0  0
  183.3680  176.6970  138.5190 C   0  0  0  0  0  0  0  0  0  0  0  0
  183.1420  175.3910  137.8600 C   0  0  0  0  0  3  0  0  0  0  0  0
  189.0130  178.6350  139.0410 F   0  0  0  0  0  0  0  0  0  0  0  0
  189.1000  178.3920  140.4010 C   0  0  2  0  0  3  0  0  0  0  0  0
  190.4670  176.5270  139.3960 C   0  0  0  0  0  1  0  0  0  0  0  0
  189.8440  177.0750  140.6720 C   0  0  1  0  0  3  0  0  0  0  0  0
  190.8570  177.1180  141.8260 C   0  0  0  0  0  0  0  0  0  0  0  0
  190.6780  178.2540  142.5960 F   0  0  0  0  0  0  0  0  0  0  0  0
  190.7190  176.0000  142.6280 F   0  0  0  0  0  0  0  0  0  0  0  0
  192.1380  177.1290  141.3070 F   0  0  0  0  0  0  0  0  0  0  0  0
  1 11  1  0  0  0  0
  1  8  1  0  0  0  0
  2  3  1  1  0  0  0
  2  7  1  0  0  0  0
  3  9  1  0  0  0  0
  5  4  2  0  0  0  0
  6  9  1  0  0  0  0
  7 17  1  0  0  0  0
  7 19  2  0  0  0  0
 10 14  2  0  0  0  0
 12 21  1  0  0  0  0
 12 22  1  0  0  0  0
 13  6  2  0  0  0  0
 14 19  1  0  0  0  0
 15 21  1  6  0  0  0
 15  2  1  0  0  0  0
 15 10  1  0  0  0  0
 16 10  1  0  0  0  0
 16  5  1  0  0  0  0
 17  1  2  0  0  0  0
 18 23  2  0  0  0  0
 18 13  1  0  0  0  0
 19 20  1  0  0  0  0
 20  8  2  0  0  0  0
 22  3  2  0  0  0  0
 23 22  1  0  0  0  0
 25 24  1  6  0  0  0
 25 27  1  0  0  0  0
 25  5  1  0  0  0  0
 27 26  1  6  0  0  0
 27 28  1  0  0  0  0
 28 29  1  0  0  0  0
 28 30  1  0  0  0  0
 31 28  1  0  0  0  0
M  END
>  <MODEL>
2

>  <REMARK>
 VINA RESULT:      -8.2      4.120      6.705
  Name = 
  3 active torsions:
  status: ('A' for Active; 'I' for Inactive)
    1  A    between atoms: C_1  and  C_19
    2  A    between atoms: C_9  and  C_22
    3  A    between atoms: C_19  and  C_22
                            x       y       z     vdW  Elec       q    Type
                         _______ _______ _______ _____ _____    ______ ____

>  <TORSDO>
F 3

$$$$
=
 OpenBabel10262419203D

 31 34  0  0  1  0  0  0  0  0999 V2000
  191.4740  176.3580  145.8150 C   0  0  0  0  0  0  0  0  0  0  0  0
  189.2810  178.3370  143.4130 C   0  0  1  0  0  3  0  0  0  0  0  0
  187.8320  177.8960  143.6200 C   0  0  0  0  0  0  0  0  0  0  0  0
  190.5780  175.3460  139.1920 O   0  0  0  0  0  0  0  0  0  0  0  0
  190.0320  176.4100  138.7950 C   0  0  0  0  0  0  0  0  0  0  0  0
  186.6070  178.0180  145.7720 C   0  0  0  0  0  3  0  0  0  0  0  0
  190.2770  177.3460  143.9530 C   0  0  0  0  0  0  0  0  0  0  0  0
  192.0250  175.4030  144.9560 C   0  0  0  0  0  3  0  0  0  0  0  0
  187.4880  177.1910  144.8990 C   0  0  0  0  0  2  0  0  0  0  0  0
  189.9730  177.4630  141.1240 C   0  0  0  0  0  0  0  0  0  0  0  0
  191.8690  176.3330  147.5190 Cl  0  0  0  0  0  0  0  0  0  0  0  0
  187.1970  178.7270  141.3550 C   0  0  0  0  0  2  0  0  0  0  0  0
  185.3660  178.3430  145.4160 C   0  0  0  0  0  3  0  0  0  0  0  0
  190.5750  176.4510  141.6840 N   0  0  0  0  0  0  0  0  0  0  0  0
  189.6200  178.6890  141.9490 C   0  0  1  0  0  3  0  0  0  0  0  0
  189.7500  177.4790  139.7070 N   0  0  0  0  0  2  0  0  0  0  0  0
  190.5990  177.3270  145.3160 C   0  0  0  0  0  3  0  0  0  0  0  0
  184.7670  178.0070  144.1120 C   0  0  0  0  0  3  0  0  0  0  0  0
  190.8480  176.3980  143.0880 C   0  0  0  0  0  0  0  0  0  0  0  0
  191.7150  175.4230  143.5930 C   0  0  0  0  0  3  0  0  0  0  0  0
  188.4970  179.5190  141.3360 C   0  0  0  0  0  2  0  0  0  0  0  0
  186.8620  178.2030  142.7230 C   0  0  0  0  0  0  0  0  0  0  0  0
  185.4230  177.9360  142.9470 C   0  0  0  0  0  3  0  0  0  0  0  0
  190.7480  176.7220  136.5540 F   0  0  0  0  0  0  0  0  0  0  0  0
  189.6360  176.5360  137.3570 C   0  0  2  0  0  3  0  0  0  0  0  0
  188.8090  178.2870  135.7420 C   0  0  0  0  0  1  0  0  0  0  0  0
  188.5880  177.6300  137.0960 C   0  0  1  0  0  3  0  0  0  0  0  0
  187.1260  177.1980  137.2870 C   0  0  0  0  0  0  0  0  0  0  0  0
  187.0450  175.8440  137.5630 F   0  0  0  0  0  0  0  0  0  0  0  0
  186.5460  177.9080  138.3220 F   0  0  0  0  0  0  0  0  0  0  0  0
  186.4200  177.4590  136.1280 F   0  0  0  0  0  0  0  0  0  0  0  0
  1 11  1  0  0  0  0
  2  3  1  6  0  0  0
  2  7  1  0  0  0  0
  3  9  1  0  0  0  0
  5  4  2  0  0  0  0
  5 16  1  0  0  0  0
  7 17  2  0  0  0  0
  8  1  2  0  0  0  0
  9  6  1  0  0  0  0
 10 14  2  0  0  0  0
 10 15  1  0  0  0  0
 12 22  1  0  0  0  0
 13  6  2  0  0  0  0
 14 19  1  0  0  0  0
 15 21  1  6  0  0  0
 15  2  1  0  0  0  0
 16 10  1  0  0  0  0
 17  1  1  0  0  0  0
 18 13  1  0  0  0  0
 19 20  2  0  0  0  0
 19  7  1  0  0  0  0
 20  8  1  0  0  0  0
 21 12  1  0  0  0  0
 22 23  1  0  0  0  0
 22  3  2  0  0  0  0
 23 18  2  0  0  0  0
 25 24  1  6  0  0  0
 25  5  1  0  0  0  0
 27 26  1  6  0  0  0
 27 28  1  0  0  0  0
 27 25  1  0  0  0  0
 28 29  1  0  0  0  0
 28 30  1  0  0  0  0
 31 28  1  0  0  0  0
M  END
>  <MODEL>
3

>  <REMARK>
 VINA RESULT:      -8.0      2.609      5.020
  Name = 
  3 active torsions:
  status: ('A' for Active; 'I' for Inactive)
    1  A    between atoms: C_1  and  C_19
    2  A    between atoms: C_9  and  C_22
    3  A    between atoms: C_19  and  C_22
                            x       y       z     vdW  Elec       q    Type
                         _______ _______ _______ _____ _____    ______ ____

>  <TORSDO>
F 3

$$$$
=
 OpenBabel10262419203D

 31 34  0  0  1  0  0  0  0  0999 V2000
  191.5060  176.3730  145.8330 C   0  0  0  0  0  0  0  0  0  0  0  0
  189.2200  178.3400  143.5080 C   0  0  1  0  0  3  0  0  0  0  0  0
  187.7850  177.8720  143.7470 C   0  0  0  0  0  0  0  0  0  0  0  0
  190.4610  175.4170  139.2240 O   0  0  0  0  0  0  0  0  0  0  0  0
  189.8870  176.4760  138.8530 C   0  0  0  0  0  0  0  0  0  0  0  0
  186.6120  177.9490  145.9300 C   0  0  0  0  0  3  0  0  0  0  0  0
  190.2470  177.3600  144.0130 C   0  0  0  0  0  0  0  0  0  0  0  0
  192.0520  175.4370  144.9490 C   0  0  0  0  0  3  0  0  0  0  0  0
  187.4850  177.1470  145.0270 C   0  0  0  0  0  2  0  0  0  0  0  0
  189.8690  177.5020  141.1930 C   0  0  0  0  0  0  0  0  0  0  0  0
  191.9450  176.3370  147.5260 Cl  0  0  0  0  0  0  0  0  0  0  0  0
  187.0790  178.7150  141.5080 C   0  0  0  0  0  2  0  0  0  0  0  0
  185.3580  178.2560  145.6100 C   0  0  0  0  0  3  0  0  0  0  0  0
  190.5020  176.4950  141.7270 N   0  0  0  0  0  0  0  0  0  0  0  0
  189.5160  178.7140  142.0410 C   0  0  1  0  0  3  0  0  0  0  0  0
  189.6110  177.5300  139.7820 N   0  0  0  0  0  2  0  0  0  0  0  0
  190.6020  177.3330  145.3670 C   0  0  0  0  0  3  0  0  0  0  0  0
  184.7320  177.9240  144.3170 C   0  0  0  0  0  3  0  0  0  0  0  0
  190.8120  176.4320  143.1230 C   0  0  0  0  0  0  0  0  0  0  0  0
  191.7080  175.4670  143.5950 C   0  0  0  0  0  3  0  0  0  0  0  0
  188.3640  179.5300  141.4660 C   0  0  0  0  0  2  0  0  0  0  0  0
  186.7870  178.1710  142.8780 C   0  0  0  0  0  0  0  0  0  0  0  0
  185.3590  177.8770  143.1350 C   0  0  0  0  0  3  0  0  0  0  0  0
  189.9430  177.7790  136.8700 F   0  0  0  0  0  0  0  0  0  0  0  0
  189.4530  176.6110  137.4260 C   0  0  2  0  0  3  0  0  0  0  0  0
  187.4170  177.6530  136.3660 C   0  0  0  0  0  1  0  0  0  0  0  0
  187.9320  176.5110  137.2290 C   0  0  1  0  0  3  0  0  0  0  0  0
  187.4220  175.1490  136.7330 C   0  0  0  0  0  0  0  0  0  0  0  0
  188.4550  174.2290  136.6710 F   0  0  0  0  0  0  0  0  0  0  0  0
  186.4360  174.6690  137.5760 F   0  0  0  0  0  0  0  0  0  0  0  0
  186.8830  175.2980  135.4690 F   0  0  0  0  0  0  0  0  0  0  0  0
  1 11  1  0  0  0  0
  2  3  1  6  0  0  0
  2  7  1  0  0  0  0
  3  9  1  0  0  0  0
  5  4  2  0  0  0  0
  5 16  1  0  0  0  0
  7 17  2  0  0  0  0
  8  1  2  0  0  0  0
  9  6  1  0  0  0  0
 10 14  2  0  0  0  0
 10 15  1  0  0  0  0
 12 22  1  0  0  0  0
 13  6  2  0  0  0  0
 14 19  1  0  0  0  0
 15 21  1  6  0  0  0
 15  2  1  0  0  0  0
 16 10  1  0  0  0  0
 17  1  1  0  0  0  0
 18 13  1  0  0  0  0
 19 20  2  0  0  0  0
 19  7  1  0  0  0  0
 20  8  1  0  0  0  0
 21 12  1  0  0  0  0
 22 23  1  0  0  0  0
 22  3  2  0  0  0  0
 23 18  2  0  0  0  0
 25 24  1  1  0  0  0
 25  5  1  0  0  0  0
 27 26  1  6  0  0  0
 27 25  1  0  0  0  0
 28 27  1  0  0  0  0
 28 30  1  0  0  0  0
 29 28  1  0  0  0  0
 31 28  1  0  0  0  0
M  END
>  <MODEL>
4

>  <REMARK>
 VINA RESULT:      -7.7      2.741      4.984
  Name = 
  3 active torsions:
  status: ('A' for Active; 'I' for Inactive)
    1  A    between atoms: C_1  and  C_19
    2  A    between atoms: C_9  and  C_22
    3  A    between atoms: C_19  and  C_22
                            x       y       z     vdW  Elec       q    Type
                         _______ _______ _______ _____ _____    ______ ____

>  <TORSDO>
F 3

$$$$
=
 OpenBabel10262419203D

 31 34  0  0  1  0  0  0  0  0999 V2000
  188.5650  177.8940  138.3770 C   0  0  0  0  0  0  0  0  0  0  0  0
  186.7220  178.9660  141.5320 C   0  0  1  0  0  3  0  0  0  0  0  0
  187.0370  177.9520  142.6320 C   0  0  0  0  0  0  0  0  0  0  0  0
  182.0170  177.0970  139.8540 O   0  0  0  0  0  0  0  0  0  0  0  0
  181.8330  177.8670  140.8340 C   0  0  0  0  0  0  0  0  0  0  0  0
  189.3150  177.3980  143.4400 C   0  0  0  0  0  3  0  0  0  0  0  0
  187.0050  178.4360  140.1500 C   0  0  0  0  0  0  0  0  0  0  0  0
  187.5270  177.3180  137.6380 C   0  0  0  0  0  3  0  0  0  0  0  0
  188.2420  177.0750  142.4570 C   0  0  0  0  0  2  0  0  0  0  0  0
  184.2720  178.6260  140.9290 C   0  0  0  0  0  0  0  0  0  0  0  0
  190.1920  177.9080  137.7340 Cl  0  0  0  0  0  0  0  0  0  0  0  0
  184.9930  178.6130  143.9010 C   0  0  0  0  0  2  0  0  0  0  0  0
  189.1540  177.2080  144.7470 C   0  0  0  0  0  3  0  0  0  0  0  0
  184.6170  177.9140  139.8930 N   0  0  0  0  0  0  0  0  0  0  0  0
  185.2890  179.5330  141.6020 C   0  0  1  0  0  3  0  0  0  0  0  0
  182.9050  178.6550  141.3660 N   0  0  0  0  0  2  0  0  0  0  0  0
  188.3060  178.4500  139.6330 C   0  0  0  0  0  3  0  0  0  0  0  0
  187.8960  176.7530  145.3660 C   0  0  0  0  0  3  0  0  0  0  0  0
  185.9600  177.8740  139.3980 C   0  0  0  0  0  0  0  0  0  0  0  0
  186.2250  177.3100  138.1460 C   0  0  0  0  0  3  0  0  0  0  0  0
  184.9280  179.8690  143.0440 C   0  0  0  0  0  2  0  0  0  0  0  0
  186.3090  177.8970  143.7750 C   0  0  0  0  0  0  0  0  0  0  0  0
  186.6620  177.0450  144.9340 C   0  0  0  0  0  3  0  0  0  0  0  0
  179.4840  177.9940  140.5160 F   0  0  0  0  0  0  0  0  0  0  0  0
  180.4810  177.9260  141.4740 C   0  0  2  0  0  3  0  0  0  0  0  0
  179.0940  179.9000  142.2060 C   0  0  0  0  0  1  0  0  0  0  0  0
  180.3290  179.0610  142.4990 C   0  0  1  0  0  3  0  0  0  0  0  0
  180.3850  178.6280  143.9720 C   0  0  0  0  0  0  0  0  0  0  0  0
  181.6570  178.8100  144.4900 F   0  0  0  0  0  0  0  0  0  0  0  0
  179.4810  179.3570  144.7220 F   0  0  0  0  0  0  0  0  0  0  0  0
  180.0540  177.2900  144.0670 F   0  0  0  0  0  0  0  0  0  0  0  0
  1 17  1  0  0  0  0
  2  7  1  6  0  0  0
  2 15  1  0  0  0  0
  2  3  1  0  0  0  0
  3 22  2  0  0  0  0
  4  5  2  0  0  0  0
  5 16  1  0  0  0  0
  5 25  1  0  0  0  0
  6 13  2  0  0  0  0
  8 20  1  0  0  0  0
  8  1  2  0  0  0  0
  9  3  1  0  0  0  0
  9  6  1  0  0  0  0
 10 16  1  0  0  0  0
 10 15  1  0  0  0  0
 11  1  1  0  0  0  0
 13 18  1  0  0  0  0
 14 10  2  0  0  0  0
 15 21  1  1  0  0  0
 17  7  2  0  0  0  0
 19 14  1  0  0  0  0
 19  7  1  0  0  0  0
 20 19  2  0  0  0  0
 21 12  1  0  0  0  0
 22 12  1  0  0  0  0
 22 23  1  0  0  0  0
 23 18  2  0  0  0  0
 25 24  1  6  0  0  0
 25 27  1  0  0  0  0
 27 26  1  6  0  0  0
 27 28  1  0  0  0  0
 28 31  1  0  0  0  0
 28 29  1  0  0  0  0
 28 30  1  0  0  0  0
M  END
>  <MODEL>
5

>  <REMARK>
 VINA RESULT:      -7.3      5.637      8.277
  Name = 
  3 active torsions:
  status: ('A' for Active; 'I' for Inactive)
    1  A    between atoms: C_1  and  C_19
    2  A    between atoms: C_9  and  C_22
    3  A    between atoms: C_19  and  C_22
                            x       y       z     vdW  Elec       q    Type
                         _______ _______ _______ _____ _____    ______ ____

>  <TORSDO>
F 3

$$$$
=
 OpenBabel10262419203D

 31 34  0  0  1  0  0  0  0  0999 V2000
  183.0140  179.1380  138.7140 C   0  0  0  0  0  0  0  0  0  0  0  0
  186.4560  177.9360  137.6140 C   0  0  1  0  0  3  0  0  0  0  0  0
  186.3730  176.4310  137.3600 C   0  0  0  0  0  0  0  0  0  0  0  0
  188.4400  177.9460  142.5640 O   0  0  0  0  0  0  0  0  0  0  0  0
  189.3880  177.8750  141.7370 C   0  0  0  0  0  0  0  0  0  0  0  0
  184.8290  175.3460  135.7520 C   0  0  0  0  0  3  0  0  0  0  0  0
  185.3240  178.4480  138.4660 C   0  0  0  0  0  0  0  0  0  0  0  0
  183.1980  179.2640  140.0940 C   0  0  0  0  0  3  0  0  0  0  0  0
  185.0160  175.8260  137.1510 C   0  0  0  0  0  2  0  0  0  0  0  0
  187.8800  178.2310  139.7040 C   0  0  0  0  0  0  0  0  0  0  0  0
  181.4510  179.4810  138.0060 Cl  0  0  0  0  0  0  0  0  0  0  0  0
  188.8420  176.1950  137.6340 C   0  0  0  0  0  2  0  0  0  0  0  0
  185.5440  174.3420  135.2500 C   0  0  0  0  0  3  0  0  0  0  0  0
  186.8050  178.3740  140.4260 N   0  0  0  0  0  0  0  0  0  0  0  0
  187.8100  178.3960  138.1940 C   0  0  1  0  0  3  0  0  0  0  0  0
  189.1560  178.0420  140.3330 N   0  0  0  0  0  2  0  0  0  0  0  0
  184.0740  178.7280  137.9000 C   0  0  0  0  0  3  0  0  0  0  0  0
  186.6370  173.6660  135.9700 C   0  0  0  0  0  3  0  0  0  0  0  0
  185.5130  178.5950  139.8500 C   0  0  0  0  0  0  0  0  0  0  0  0
  184.4470  178.9960  140.6630 C   0  0  0  0  0  3  0  0  0  0  0  0
  188.9550  177.7030  137.4640 C   0  0  0  0  0  2  0  0  0  0  0  0
  187.4900  175.6700  137.2400 C   0  0  0  0  0  0  0  0  0  0  0  0
  187.4730  174.2440  136.8430 C   0  0  0  0  0  3  0  0  0  0  0  0
  191.4370  176.7430  141.3460 F   0  0  0  0  0  0  0  0  0  0  0  0
  190.7680  177.5710  142.2300 C   0  0  2  0  0  3  0  0  0  0  0  0
  191.6600  175.7330  143.7080 C   0  0  0  0  0  1  0  0  0  0  0  0
  190.8040  176.9900  143.6530 C   0  0  1  0  0  3  0  0  0  0  0  0
  191.1840  177.9850  144.7600 C   0  0  0  0  0  0  0  0  0  0  0  0
  190.0640  178.6480  145.2320 F   0  0  0  0  0  0  0  0  0  0  0  0
  191.7970  177.3260  145.8090 F   0  0  0  0  0  0  0  0  0  0  0  0
  192.0700  178.9170  144.2500 F   0  0  0  0  0  0  0  0  0  0  0  0
  1  8  1  0  0  0  0
  2  3  1  1  0  0  0
  2 15  1  0  0  0  0
  2  7  1  0  0  0  0
  5 25  1  0  0  0  0
  5  4  2  0  0  0  0
  6  9  1  0  0  0  0
  7 19  2  0  0  0  0
  8 20  2  0  0  0  0
  9  3  1  0  0  0  0
 10 16  1  0  0  0  0
 10 14  2  0  0  0  0
 11  1  1  0  0  0  0
 13  6  2  0  0  0  0
 13 18  1  0  0  0  0
 15 21  1  6  0  0  0
 15 10  1  0  0  0  0
 16  5  1  0  0  0  0
 17  7  1  0  0  0  0
 17  1  2  0  0  0  0
 18 23  2  0  0  0  0
 19 14  1  0  0  0  0
 19 20  1  0  0  0  0
 21 12  1  0  0  0  0
 22  3  2  0  0  0  0
 22 12  1  0  0  0  0
 23 22  1  0  0  0  0
 25 24  1  6  0  0  0
 25 27  1  0  0  0  0
 27 26  1  6  0  0  0
 27 28  1  0  0  0  0
 28 29  1  0  0  0  0
 28 30  1  0  0  0  0
 31 28  1  0  0  0  0
M  END
>  <MODEL>
6

>  <REMARK>
 VINA RESULT:      -7.3      4.026      7.011
  Name = 
  3 active torsions:
  status: ('A' for Active; 'I' for Inactive)
    1  A    between atoms: C_1  and  C_19
    2  A    between atoms: C_9  and  C_22
    3  A    between atoms: C_19  and  C_22
                            x       y       z     vdW  Elec       q    Type
                         _______ _______ _______ _____ _____    ______ ____

>  <TORSDO>
F 3

$$$$
=
 OpenBabel10262419203D

 31 34  0  0  1  0  0  0  0  0999 V2000
  181.8340  179.0820  137.6560 C   0  0  0  0  0  0  0  0  0  0  0  0
  184.7890  176.8530  136.7600 C   0  0  1  0  0  3  0  0  0  0  0  0
  184.4670  175.4320  137.2210 C   0  0  0  0  0  0  0  0  0  0  0  0
  187.7560  178.5210  140.8660 O   0  0  0  0  0  0  0  0  0  0  0  0
  188.4920  177.9180  140.0400 C   0  0  0  0  0  0  0  0  0  0  0  0
  182.4960  174.1160  136.4920 C   0  0  0  0  0  3  0  0  0  0  0  0
  183.9350  177.8940  137.4360 C   0  0  0  0  0  0  0  0  0  0  0  0
  182.3190  179.7310  138.7950 C   0  0  0  0  0  3  0  0  0  0  0  0
  183.0310  175.0870  137.4890 C   0  0  0  0  0  2  0  0  0  0  0  0
  186.6470  177.6950  138.2850 C   0  0  0  0  0  0  0  0  0  0  0  0
  180.2130  179.4100  137.0860 Cl  0  0  0  0  0  0  0  0  0  0  0  0
  186.8890  174.8310  137.2380 C   0  0  0  0  0  2  0  0  0  0  0  0
  182.9570  172.8710  136.4020 C   0  0  0  0  0  3  0  0  0  0  0  0
  185.7740  178.3430  139.0040 N   0  0  0  0  0  0  0  0  0  0  0  0
  186.2820  177.2250  136.8860 C   0  0  1  0  0  3  0  0  0  0  0  0
  187.9920  177.5280  138.7550 N   0  0  0  0  0  2  0  0  0  0  0  0
  182.6390  178.1620  136.9780 C   0  0  0  0  0  3  0  0  0  0  0  0
  184.0840  172.3490  137.1950 C   0  0  0  0  0  3  0  0  0  0  0  0
  184.4280  178.5630  138.5690 C   0  0  0  0  0  0  0  0  0  0  0  0
  183.6160  179.4760  139.2500 C   0  0  0  0  0  3  0  0  0  0  0  0
  187.1510  176.0720  136.3970 C   0  0  0  0  0  2  0  0  0  0  0  0
  185.4290  174.4790  137.3060 C   0  0  0  0  0  0  0  0  0  0  0  0
  185.1500  173.0540  137.5960 C   0  0  0  0  0  3  0  0  0  0  0  0
  190.3170  176.4240  139.7790 F   0  0  0  0  0  0  0  0  0  0  0  0
  189.8960  177.5720  140.4270 C   0  0  2  0  0  3  0  0  0  0  0  0
  189.4790  176.1730  142.4820 C   0  0  0  0  0  1  0  0  0  0  0  0
  190.1080  177.4490  141.9440 C   0  0  1  0  0  3  0  0  0  0  0  0
  191.5590  177.6120  142.4210 C   0  0  0  0  0  0  0  0  0  0  0  0
  191.7140  178.7880  143.1340 F   0  0  0  0  0  0  0  0  0  0  0  0
  191.9260  176.5450  143.2200 F   0  0  0  0  0  0  0  0  0  0  0  0
  192.3980  177.6450  141.3220 F   0  0  0  0  0  0  0  0  0  0  0  0
  1  8  1  0  0  0  0
  2 15  1  0  0  0  0
  2  3  1  1  0  0  0
  2  7  1  0  0  0  0
  3 22  2  0  0  0  0
  3  9  1  0  0  0  0
  5 25  1  0  0  0  0
  5  4  2  0  0  0  0
  6  9  1  0  0  0  0
  7 19  2  0  0  0  0
  8 20  2  0  0  0  0
 10 16  1  0  0  0  0
 10 14  2  0  0  0  0
 11  1  1  0  0  0  0
 12 22  1  0  0  0  0
 13  6  2  0  0  0  0
 13 18  1  0  0  0  0
 15 21  1  1  0  0  0
 15 10  1  0  0  0  0
 16  5  1  0  0  0  0
 17  7  1  0  0  0  0
 17  1  2  0  0  0  0
 18 23  2  0  0  0  0
 19 14  1  0  0  0  0
 19 20  1  0  0  0  0
 21 12  1  0  0  0  0
 22 23  1  0  0  0  0
 25 24  1  6  0  0  0
 25 27  1  0  0  0  0
 27 28  1  0  0  0  0
 27 26  1  6  0  0  0
 28 29  1  0  0  0  0
 28 30  1  0  0  0  0
 31 28  1  0  0  0  0
M  END
>  <MODEL>
7

>  <REMARK>
 VINA RESULT:      -7.3      5.005      7.338
  Name = 
  3 active torsions:
  status: ('A' for Active; 'I' for Inactive)
    1  A    between atoms: C_1  and  C_19
    2  A    between atoms: C_9  and  C_22
    3  A    between atoms: C_19  and  C_22
                            x       y       z     vdW  Elec       q    Type
                         _______ _______ _______ _____ _____    ______ ____

>  <TORSDO>
F 3

$$$$
=
 OpenBabel10262419203D

 31 34  0  0  1  0  0  0  0  0999 V2000
  184.8670  178.5200  145.0120 C   0  0  0  0  0  0  0  0  0  0  0  0
  187.9890  176.5880  144.0010 C   0  0  1  0  0  3  0  0  0  0  0  0
  189.1790  177.1850  144.7510 C   0  0  0  0  0  0  0  0  0  0  0  0
  188.4700  179.1050  139.3230 O   0  0  0  0  0  0  0  0  0  0  0  0
  189.1930  178.0730  139.3160 C   0  0  0  0  0  0  0  0  0  0  0  0
  189.3630  177.3500  147.2180 C   0  0  0  0  0  3  0  0  0  0  0  0
  186.8020  177.5150  143.9540 C   0  0  0  0  0  0  0  0  0  0  0  0
  184.6870  179.3470  143.9000 C   0  0  0  0  0  3  0  0  0  0  0  0
  188.8980  178.0170  145.9690 C   0  0  0  0  0  2  0  0  0  0  0  0
  188.3020  177.2130  141.5520 C   0  0  0  0  0  0  0  0  0  0  0  0
  183.7750  178.6370  146.3740 Cl  0  0  0  0  0  0  0  0  0  0  0  0
  190.7740  176.2500  143.0750 C   0  0  0  0  0  2  0  0  0  0  0  0
  190.6510  177.1230  147.4600 C   0  0  0  0  0  3  0  0  0  0  0  0
  187.4620  178.2000  141.6880 N   0  0  0  0  0  0  0  0  0  0  0  0
  188.3340  176.0940  142.5800 C   0  0  1  0  0  3  0  0  0  0  0  0
  189.1140  177.1090  140.3740 N   0  0  0  0  0  2  0  0  0  0  0  0
  185.9250  177.6060  145.0420 C   0  0  0  0  0  3  0  0  0  0  0  0
  191.7340  177.4150  146.5030 C   0  0  0  0  0  3  0  0  0  0  0  0
  186.6080  178.3340  142.8290 C   0  0  0  0  0  0  0  0  0  0  0  0
  185.5540  179.2530  142.8070 C   0  0  0  0  0  3  0  0  0  0  0  0
  189.6560  175.3350  142.5970 C   0  0  0  0  0  2  0  0  0  0  0  0
  190.4570  176.9080  144.3890 C   0  0  0  0  0  0  0  0  0  0  0  0
  191.6420  177.3320  145.1700 C   0  0  0  0  0  3  0  0  0  0  0  0
  190.1080  178.9180  137.2960 F   0  0  0  0  0  0  0  0  0  0  0  0
  190.1770  177.8760  138.2050 C   0  0  2  0  0  3  0  0  0  0  0  0
  190.6100  175.3970  138.3450 C   0  0  0  0  0  1  0  0  0  0  0  0
  190.0430  176.5220  137.4910 C   0  0  1  0  0  3  0  0  0  0  0  0
  188.6360  176.1880  136.9730 C   0  0  0  0  0  0  0  0  0  0  0  0
  187.9510  177.3410  136.6300 F   0  0  0  0  0  0  0  0  0  0  0  0
  188.7140  175.3610  135.8680 F   0  0  0  0  0  0  0  0  0  0  0  0
  187.9300  175.5300  137.9630 F   0  0  0  0  0  0  0  0  0  0  0  0
  1 17  1  0  0  0  0
  1 11  1  0  0  0  0
  2  7  1  6  0  0  0
  2  3  1  0  0  0  0
  3  9  1  0  0  0  0
  5  4  2  0  0  0  0
  5 16  1  0  0  0  0
  6 13  2  0  0  0  0
  7 17  2  0  0  0  0
  8  1  2  0  0  0  0
  9  6  1  0  0  0  0
 10 14  2  0  0  0  0
 10 15  1  0  0  0  0
 12 22  1  0  0  0  0
 14 19  1  0  0  0  0
 15 21  1  1  0  0  0
 15  2  1  0  0  0  0
 16 10  1  0  0  0  0
 18 13  1  0  0  0  0
 19  7  1  0  0  0  0
 20 19  2  0  0  0  0
 20  8  1  0  0  0  0
 21 12  1  0  0  0  0
 22  3  2  0  0  0  0
 22 23  1  0  0  0  0
 23 18  2  0  0  0  0
 25 24  1  6  0  0  0
 25  5  1  0  0  0  0
 27 25  1  0  0  0  0
 27 26  1  1  0  0  0
 28 27  1  0  0  0  0
 28 31  1  0  0  0  0
 29 28  1  0  0  0  0
 30 28  1  0  0  0  0
M  END
>  <MODEL>
8

>  <REMARK>
 VINA RESULT:      -7.1      1.554      2.038
  Name = 
  3 active torsions:
  status: ('A' for Active; 'I' for Inactive)
    1  A    between atoms: C_1  and  C_19
    2  A    between atoms: C_9  and  C_22
    3  A    between atoms: C_19  and  C_22
                            x       y       z     vdW  Elec       q    Type
                         _______ _______ _______ _____ _____    ______ ____

>  <TORSDO>
F 3

$$$$
=
 OpenBabel10262419203D

 31 34  0  0  1  0  0  0  0  0999 V2000
  181.5780  178.6060  137.3730 C   0  0  0  0  0  0  0  0  0  0  0  0
  185.1230  177.3050  136.8830 C   0  0  1  0  0  3  0  0  0  0  0  0
  185.0970  175.7860  137.0450 C   0  0  0  0  0  0  0  0  0  0  0  0
  186.7130  178.7430  141.7670 O   0  0  0  0  0  0  0  0  0  0  0  0
  187.7240  178.4920  141.0570 C   0  0  0  0  0  0  0  0  0  0  0  0
  183.7100  174.2380  135.6920 C   0  0  0  0  0  3  0  0  0  0  0  0
  183.9170  177.9780  137.4830 C   0  0  0  0  0  0  0  0  0  0  0  0
  181.6510  179.1090  138.6750 C   0  0  0  0  0  3  0  0  0  0  0  0
  183.7750  175.0870  136.9160 C   0  0  0  0  0  2  0  0  0  0  0  0
  186.3720  178.2180  138.9050 C   0  0  0  0  0  0  0  0  0  0  0  0
  180.0680  178.6750  136.4920 Cl  0  0  0  0  0  0  0  0  0  0  0  0
  187.5420  175.7420  137.5430 C   0  0  0  0  0  2  0  0  0  0  0  0
  184.4850  173.1680  135.5340 C   0  0  0  0  0  3  0  0  0  0  0  0
  185.2400  178.5030  139.4860 N   0  0  0  0  0  0  0  0  0  0  0  0
  186.4160  177.9640  137.4080 C   0  0  1  0  0  3  0  0  0  0  0  0
  187.5990  178.2620  139.6490 N   0  0  0  0  0  2  0  0  0  0  0  0
  182.7090  178.0380  136.7770 C   0  0  0  0  0  3  0  0  0  0  0  0
  185.5350  172.7620  136.4850 C   0  0  0  0  0  3  0  0  0  0  0  0
  183.9930  178.5020  138.7840 C   0  0  0  0  0  0  0  0  0  0  0  0
  182.8570  179.0610  139.3800 C   0  0  0  0  0  3  0  0  0  0  0  0
  187.6310  177.1510  136.9750 C   0  0  0  0  0  2  0  0  0  0  0  0
  186.2380  175.0700  137.2140 C   0  0  0  0  0  0  0  0  0  0  0  0
  186.2850  173.5910  137.2220 C   0  0  0  0  0  3  0  0  0  0  0  0
  189.9360  177.6390  140.9390 F   0  0  0  0  0  0  0  0  0  0  0  0
  189.0680  178.3940  141.7090 C   0  0  2  0  0  3  0  0  0  0  0  0
  188.7540  176.3690  143.1770 C   0  0  0  0  0  1  0  0  0  0  0  0
  189.0210  177.8670  143.1520 C   0  0  1  0  0  3  0  0  0  0  0  0
  190.2240  178.2440  144.0300 C   0  0  0  0  0  0  0  0  0  0  0  0
  190.7560  179.4610  143.6380 F   0  0  0  0  0  0  0  0  0  0  0  0
  189.8450  178.3220  145.3570 F   0  0  0  0  0  0  0  0  0  0  0  0
  191.1990  177.2720  143.9080 F   0  0  0  0  0  0  0  0  0  0  0  0
  1  8  1  0  0  0  0
  2  3  1  1  0  0  0
  2 15  1  0  0  0  0
  2  7  1  0  0  0  0
  3 22  2  0  0  0  0
  5 25  1  0  0  0  0
  5  4  2  0  0  0  0
  6  9  1  0  0  0  0
  7 19  2  0  0  0  0
  8 20  2  0  0  0  0
  9  3  1  0  0  0  0
 10 14  2  0  0  0  0
 10 16  1  0  0  0  0
 11  1  1  0  0  0  0
 13  6  2  0  0  0  0
 13 18  1  0  0  0  0
 15 21  1  1  0  0  0
 15 10  1  0  0  0  0
 16  5  1  0  0  0  0
 17  1  2  0  0  0  0
 17  7  1  0  0  0  0
 18 23  2  0  0  0  0
 19 20  1  0  0  0  0
 19 14  1  0  0  0  0
 21 12  1  0  0  0  0
 22 23  1  0  0  0  0
 22 12  1  0  0  0  0
 25 24  1  6  0  0  0
 25 27  1  0  0  0  0
 27 26  1  6  0  0  0
 27 28  1  0  0  0  0
 28 30  1  0  0  0  0
 29 28  1  0  0  0  0
 31 28  1  0  0  0  0
M  END
>  <MODEL>
9

>  <REMARK>
 VINA RESULT:      -7.1      5.008      7.607
  Name = 
  3 active torsions:
  status: ('A' for Active; 'I' for Inactive)
    1  A    between atoms: C_1  and  C_19
    2  A    between atoms: C_9  and  C_22
    3  A    between atoms: C_19  and  C_22
                            x       y       z     vdW  Elec       q    Type
                         _______ _______ _______ _____ _____    ______ ____

>  <TORSDO>
F 3

$$$$
