=
 OpenBabel10262421583D

 30 35  0  0  1  0  0  0  0  0999 V2000
  188.5350  178.0940  139.8680 C   0  0  1  0  0  3  0  0  0  0  0  0
  188.9570  177.7270  137.3520 C   0  0  0  0  0  0  0  0  0  0  0  0
  184.7540  178.5040  137.9160 C   0  0  0  0  0  3  0  0  0  0  0  0
  187.3990  178.3790  140.8730 C   0  0  1  0  0  3  0  0  0  0  0  0
  189.3540  176.9820  140.3490 N   0  0  0  0  0  2  0  0  0  0  0  0
  189.9120  177.8860  144.2790 S   0  0  0  0  0  0  0  0  0  0  0  0
  186.1940  178.8230  144.1990 C   0  0  0  0  0  2  0  0  0  0  0  0
  189.3560  178.1890  142.5610 C   0  0  1  0  0  3  0  0  0  0  0  0
  190.5340  176.1250  142.2780 C   0  0  0  0  0  3  0  0  0  0  0  0
  184.5600  179.3800  141.5180 O   0  0  0  0  0  0  0  0  0  0  0  0
  184.6460  179.3480  139.1180 C   0  0  0  0  0  0  0  0  0  0  0  0
  189.7790  177.0430  141.7090 C   0  0  0  0  0  0  0  0  0  0  0  0
  187.8580  178.5250  142.3390 C   0  0  2  0  0  3  0  0  0  0  0  0
  188.4260  177.4040  136.0310 C   0  0  0  0  0  3  0  0  0  0  0  0
  184.0450  178.1970  142.0550 C   0  0  0  0  0  2  0  0  0  0  0  0
  184.7360  178.5540  144.4630 C   0  0  0  0  0  3  0  0  0  0  0  0
  191.7300  175.8470  144.3720 C   0  0  0  0  0  2  0  0  0  0  0  0
  190.1710  178.0270  137.5010 O   0  0  0  0  0  0  0  0  0  0  0  0
  185.6620  177.5390  137.8180 C   0  0  0  0  0  0  0  0  0  0  0  0
  187.2190  176.8420  135.9180 C   0  0  0  0  0  3  0  0  0  0  0  0
  190.7590  176.4250  143.6820 C   0  0  0  0  0  0  0  0  0  0  0  0
  187.9760  177.8270  138.4720 C   0  0  1  0  0  3  0  0  0  0  0  0
  186.6120  179.4700  140.4820 O   0  0  0  0  0  0  0  0  0  0  0  0
  183.9800  180.4160  139.0550 O   0  0  0  0  0  0  0  0  0  0  0  0
  185.3100  178.9580  140.4110 C   0  0  1  0  0  3  0  0  0  0  0  0
  183.7960  178.3180  143.5310 C   0  0  0  0  0  3  0  0  0  0  0  0
  187.1610  176.4890  143.8280 C   0  0  0  0  0  1  0  0  0  0  0  0
  186.3770  176.3900  137.0970 C   0  0  1  0  0  3  0  0  0  0  0  0
  186.8560  176.7800  138.4040 C   0  0  2  0  0  3  0  0  0  0  0  0
  186.8090  177.8400  143.2220 C   0  0  1  0  0  3  0  0  0  0  0  0
  1  5  1  1  0  0  0
  1  4  1  0  0  0  0
  2 18  2  0  0  0  0
  2 22  1  0  0  0  0
  3 11  1  0  0  0  0
  4 23  1  6  0  0  0
  4 13  1  0  0  0  0
  5 12  1  0  0  0  0
  7 16  1  0  0  0  0
  8 12  1  6  0  0  0
  8  6  1  0  0  0  0
  9 21  1  0  0  0  0
 10 15  1  0  0  0  0
 11 25  1  0  0  0  0
 12  9  2  0  0  0  0
 13  8  1  0  0  0  0
 13 30  1  0  0  0  0
 14  2  1  0  0  0  0
 15 26  1  0  0  0  0
 19  3  2  0  0  0  0
 19 29  1  0  0  0  0
 20 14  2  0  0  0  0
 20 28  1  0  0  0  0
 21  6  1  0  0  0  0
 21 17  2  0  0  0  0
 22  1  1  0  0  0  0
 24 11  2  0  0  0  0
 25 23  1  0  0  0  0
 25 10  1  0  0  0  0
 26 16  2  0  0  0  0
 28 19  1  0  0  0  0
 28 29  1  0  0  0  0
 29 22  1  0  0  0  0
 30 27  1  0  0  0  0
 30  7  1  0  0  0  0
M  END
>  <MODEL>
1

>  <REMARK>
 VINA RESULT:      -8.4      0.000      0.000
  Name = 
  0 active torsions:
  status: ('A' for Active; 'I' for Inactive)
                            x       y       z     vdW  Elec       q    Type
                         _______ _______ _______ _____ _____    ______ ____

>  <TORSDO>
F 0

$$$$
=
 OpenBabel10262421583D

 30 35  0  0  1  0  0  0  0  0999 V2000
  190.5380  177.3820  140.0420 C   0  0  1  0  0  3  0  0  0  0  0  0
  191.9780  176.4150  138.1340 C   0  0  0  0  0  0  0  0  0  0  0  0
  188.0180  177.1570  136.5970 C   0  0  0  0  0  3  0  0  0  0  0  0
  189.1060  177.8660  140.3470 C   0  0  1  0  0  3  0  0  0  0  0  0
  190.9800  176.4540  141.0830 N   0  0  0  0  0  2  0  0  0  0  0  0
  189.8520  178.3270  144.5170 S   0  0  0  0  0  0  0  0  0  0  0  0
  186.6200  179.0820  142.5960 C   0  0  0  0  0  2  0  0  0  0  0  0
  190.1190  178.1730  142.7130 C   0  0  1  0  0  3  0  0  0  0  0  0
  191.1390  176.1480  143.4760 C   0  0  0  0  0  3  0  0  0  0  0  0
  186.3550  178.8950  139.4240 O   0  0  0  0  0  0  0  0  0  0  0  0
  187.4670  178.2700  137.3890 C   0  0  0  0  0  0  0  0  0  0  0  0
  190.7780  176.8670  142.4340 C   0  0  0  0  0  0  0  0  0  0  0  0
  188.8960  178.3890  141.7840 C   0  0  2  0  0  3  0  0  0  0  0  0
  192.0460  175.7540  136.8340 C   0  0  0  0  0  3  0  0  0  0  0  0
  185.5680  177.8650  139.9460 C   0  0  0  0  0  2  0  0  0  0  0  0
  185.1760  178.8340  142.2510 C   0  0  0  0  0  3  0  0  0  0  0  0
  191.2860  176.4420  145.8820 C   0  0  0  0  0  2  0  0  0  0  0  0
  193.0270  176.7860  138.7230 O   0  0  0  0  0  0  0  0  0  0  0  0
  188.8010  176.2310  137.1400 C   0  0  0  0  0  0  0  0  0  0  0  0
  190.9670  175.1390  136.3420 C   0  0  0  0  0  3  0  0  0  0  0  0
  190.7570  176.7950  144.7200 C   0  0  0  0  0  0  0  0  0  0  0  0
  190.6190  176.7550  138.6510 C   0  0  1  0  0  3  0  0  0  0  0  0
  188.6530  178.7970  139.4030 O   0  0  0  0  0  0  0  0  0  0  0  0
  186.9790  179.2630  136.7870 O   0  0  0  0  0  0  0  0  0  0  0  0
  187.4750  178.2370  138.8940 C   0  0  1  0  0  3  0  0  0  0  0  0
  184.7150  178.3410  141.0880 C   0  0  0  0  0  3  0  0  0  0  0  0
  187.4670  176.7650  143.2560 C   0  0  0  0  0  1  0  0  0  0  0  0
  189.6650  174.9650  137.1030 C   0  0  1  0  0  3  0  0  0  0  0  0
  189.5610  175.6850  138.3520 C   0  0  2  0  0  3  0  0  0  0  0  0
  187.5180  177.9080  142.2540 C   0  0  1  0  0  3  0  0  0  0  0  0
  1  4  1  0  0  0  0
  1  5  1  1  0  0  0
  2 22  1  0  0  0  0
  2 18  2  0  0  0  0
  3 19  2  0  0  0  0
  3 11  1  0  0  0  0
  4 23  1  6  0  0  0
  4 13  1  0  0  0  0
  5 12  1  0  0  0  0
  6 21  1  0  0  0  0
  8 12  1  1  0  0  0
  8  6  1  0  0  0  0
  9 21  1  0  0  0  0
 10 15  1  0  0  0  0
 11 25  1  0  0  0  0
 12  9  2  0  0  0  0
 13 30  1  0  0  0  0
 13  8  1  0  0  0  0
 14  2  1  0  0  0  0
 15 26  1  0  0  0  0
 16  7  1  0  0  0  0
 19 29  1  0  0  0  0
 20 14  2  0  0  0  0
 20 28  1  0  0  0  0
 21 17  2  0  0  0  0
 22  1  1  0  0  0  0
 24 11  2  0  0  0  0
 25 23  1  0  0  0  0
 25 10  1  0  0  0  0
 26 16  2  0  0  0  0
 28 19  1  0  0  0  0
 28 29  1  0  0  0  0
 29 22  1  0  0  0  0
 30  7  1  0  0  0  0
 30 27  1  0  0  0  0
M  END
>  <MODEL>
2

>  <REMARK>
 VINA RESULT:      -8.3      1.943      2.617
  Name = 
  0 active torsions:
  status: ('A' for Active; 'I' for Inactive)
                            x       y       z     vdW  Elec       q    Type
                         _______ _______ _______ _____ _____    ______ ____

>  <TORSDO>
F 0

$$$$
=
 OpenBabel10262421583D

 30 35  0  0  1  0  0  0  0  0999 V2000
  188.1070  177.3540  142.3070 C   0  0  1  0  0  3  0  0  0  0  0  0
  190.4750  177.0050  141.3510 C   0  0  0  0  0  0  0  0  0  0  0  0
  190.7960  177.4260  145.6290 C   0  0  0  0  0  3  0  0  0  0  0  0
  187.3660  177.5970  143.6390 C   0  0  1  0  0  3  0  0  0  0  0  0
  187.6510  178.3150  141.3040 N   0  0  0  0  0  2  0  0  0  0  0  0
  183.6050  178.2520  141.7470 S   0  0  0  0  0  0  0  0  0  0  0  0
  184.3960  178.2530  145.5000 C   0  0  0  0  0  2  0  0  0  0  0  0
  185.3230  177.6980  142.0480 C   0  0  1  0  0  3  0  0  0  0  0  0
  185.6800  179.2880  140.2960 C   0  0  0  0  0  3  0  0  0  0  0  0
  187.2460  177.4950  146.7130 O   0  0  0  0  0  0  0  0  0  0  0  0
  189.5230  176.9400  146.1910 C   0  0  0  0  0  0  0  0  0  0  0  0
  186.2400  178.4740  141.1670 C   0  0  0  0  0  0  0  0  0  0  0  0
  185.8310  177.6930  143.5130 C   0  0  2  0  0  3  0  0  0  0  0  0
  191.9200  177.1280  141.5190 C   0  0  0  0  0  3  0  0  0  0  0  0
  187.0660  178.8590  146.9550 C   0  0  0  0  0  2  0  0  0  0  0  0
  184.5380  178.9220  146.8410 C   0  0  0  0  0  3  0  0  0  0  0  0
  183.4460  179.7530  139.4680 C   0  0  0  0  0  2  0  0  0  0  0  0
  189.9910  176.4640  140.3220 O   0  0  0  0  0  0  0  0  0  0  0  0
  190.8450  178.0910  144.4810 C   0  0  0  0  0  0  0  0  0  0  0  0
  192.4140  177.9230  142.4730 C   0  0  0  0  0  3  0  0  0  0  0  0
  184.2330  179.2820  140.4230 C   0  0  0  0  0  0  0  0  0  0  0  0
  189.6200  177.4130  142.5050 C   0  0  1  0  0  3  0  0  0  0  0  0
  187.7330  176.6690  144.6220 O   0  0  0  0  0  0  0  0  0  0  0  0
  189.5530  176.0820  147.1130 O   0  0  0  0  0  0  0  0  0  0  0  0
  188.2000  177.4500  145.6870 C   0  0  1  0  0  3  0  0  0  0  0  0
  185.6930  179.1530  147.4900 C   0  0  0  0  0  3  0  0  0  0  0  0
  184.9360  180.1280  143.8520 C   0  0  0  0  0  1  0  0  0  0  0  0
  191.5680  178.8300  143.3480 C   0  0  1  0  0  3  0  0  0  0  0  0
  190.1370  178.6540  143.2450 C   0  0  2  0  0  3  0  0  0  0  0  0
  185.3580  178.8000  144.4630 C   0  0  1  0  0  3  0  0  0  0  0  0
  1  5  1  6  0  0  0
  1 22  1  0  0  0  0
  1  4  1  0  0  0  0
  2 14  1  0  0  0  0
  2 22  1  0  0  0  0
  3 11  1  0  0  0  0
  4 23  1  1  0  0  0
  6  8  1  0  0  0  0
  7 16  1  0  0  0  0
  8 12  1  6  0  0  0
  8 13  1  0  0  0  0
  9 21  1  0  0  0  0
  9 12  2  0  0  0  0
 10 15  1  0  0  0  0
 11 24  2  0  0  0  0
 12  5  1  0  0  0  0
 13  4  1  0  0  0  0
 13 30  1  0  0  0  0
 14 20  2  0  0  0  0
 15 26  1  0  0  0  0
 16 26  2  0  0  0  0
 17 21  2  0  0  0  0
 18  2  2  0  0  0  0
 19  3  2  0  0  0  0
 20 28  1  0  0  0  0
 21  6  1  0  0  0  0
 22 29  1  0  0  0  0
 23 25  1  0  0  0  0
 25 11  1  0  0  0  0
 25 10  1  0  0  0  0
 27 30  1  0  0  0  0
 28 19  1  0  0  0  0
 29 28  1  0  0  0  0
 29 19  1  0  0  0  0
 30  7  1  0  0  0  0
M  END
>  <MODEL>
3

>  <REMARK>
 VINA RESULT:      -7.5      3.295      6.154
  Name = 
  0 active torsions:
  status: ('A' for Active; 'I' for Inactive)
                            x       y       z     vdW  Elec       q    Type
                         _______ _______ _______ _____ _____    ______ ____

>  <TORSDO>
F 0

$$$$
=
 OpenBabel10262421583D

 30 35  0  0  1  0  0  0  0  0999 V2000
  186.2540  178.9230  140.6860 C   0  0  1  0  0  3  0  0  0  0  0  0
  184.1870  179.3780  139.2140 C   0  0  0  0  0  0  0  0  0  0  0  0
  182.8610  178.8730  143.2860 C   0  0  0  0  0  3  0  0  0  0  0  0
  186.6550  178.6240  142.1450 C   0  0  1  0  0  3  0  0  0  0  0  0
  186.9040  177.9690  139.7880 N   0  0  0  0  0  2  0  0  0  0  0  0
  190.7340  177.8780  141.1640 S   0  0  0  0  0  0  0  0  0  0  0  0
  189.0860  177.8210  144.6270 C   0  0  0  0  0  2  0  0  0  0  0  0
  189.0100  178.4860  141.0720 C   0  0  1  0  0  3  0  0  0  0  0  0
  189.0260  176.9490  139.2380 C   0  0  0  0  0  3  0  0  0  0  0  0
  186.0550  178.6530  145.1650 O   0  0  0  0  0  0  0  0  0  0  0  0
  183.9810  179.3000  144.1430 C   0  0  0  0  0  0  0  0  0  0  0  0
  188.3020  177.7630  139.9790 C   0  0  0  0  0  0  0  0  0  0  0  0
  188.1740  178.4760  142.3780 C   0  0  2  0  0  3  0  0  0  0  0  0
  182.7400  179.3030  139.0380 C   0  0  0  0  0  3  0  0  0  0  0  0
  186.1340  177.2780  145.4000 C   0  0  0  0  0  2  0  0  0  0  0  0
  188.6150  177.1280  145.8770 C   0  0  0  0  0  3  0  0  0  0  0  0
  191.3780  176.4240  138.9410 C   0  0  0  0  0  2  0  0  0  0  0  0
  184.9140  179.9240  138.3430 O   0  0  0  0  0  0  0  0  0  0  0  0
  183.0630  178.2350  142.1380 C   0  0  0  0  0  0  0  0  0  0  0  0
  182.0130  178.5050  139.8250 C   0  0  0  0  0  3  0  0  0  0  0  0
  190.4030  176.9020  139.7000 C   0  0  0  0  0  0  0  0  0  0  0  0
  184.7350  178.9140  140.5230 C   0  0  1  0  0  3  0  0  0  0  0  0
  186.0960  179.5420  143.0440 O   0  0  0  0  0  0  0  0  0  0  0  0
  183.7610  180.1380  145.0580 O   0  0  0  0  0  0  0  0  0  0  0  0
  185.3690  178.7550  143.9460 C   0  0  1  0  0  3  0  0  0  0  0  0
  187.3340  176.9240  146.2320 C   0  0  0  0  0  3  0  0  0  0  0  0
  188.8930  176.0040  142.8430 C   0  0  0  0  0  1  0  0  0  0  0  0
  182.6040  177.5490  140.8460 C   0  0  1  0  0  3  0  0  0  0  0  0
  184.0240  177.6760  141.0850 C   0  0  2  0  0  3  0  0  0  0  0  0
  188.3780  177.3320  143.3780 C   0  0  1  0  0  3  0  0  0  0  0  0
  1  5  1  6  0  0  0
  1  4  1  0  0  0  0
  2 22  1  0  0  0  0
  3 11  1  0  0  0  0
  4 13  1  0  0  0  0
  4 23  1  1  0  0  0
  5 12  1  0  0  0  0
  7 16  1  0  0  0  0
  8 12  1  6  0  0  0
  8  6  1  0  0  0  0
  8 13  1  0  0  0  0
  9 21  1  0  0  0  0
  9 12  2  0  0  0  0
 10 15  1  0  0  0  0
 11 24  2  0  0  0  0
 13 30  1  0  0  0  0
 14  2  1  0  0  0  0
 14 20  2  0  0  0  0
 15 26  1  0  0  0  0
 16 26  2  0  0  0  0
 17 21  2  0  0  0  0
 18  2  2  0  0  0  0
 19  3  2  0  0  0  0
 20 28  1  0  0  0  0
 21  6  1  0  0  0  0
 22  1  1  0  0  0  0
 22 29  1  0  0  0  0
 23 25  1  0  0  0  0
 25 11  1  0  0  0  0
 25 10  1  0  0  0  0
 27 30  1  0  0  0  0
 28 29  1  0  0  0  0
 28 19  1  0  0  0  0
 29 19  1  0  0  0  0
 30  7  1  0  0  0  0
M  END
>  <MODEL>
4

>  <REMARK>
 VINA RESULT:      -7.2      2.272      4.223
  Name = 
  0 active torsions:
  status: ('A' for Active; 'I' for Inactive)
                            x       y       z     vdW  Elec       q    Type
                         _______ _______ _______ _____ _____    ______ ____

>  <TORSDO>
F 0

$$$$
=
 OpenBabel10262421583D

 30 35  0  0  1  0  0  0  0  0999 V2000
  184.7820  179.0300  142.3430 C   0  0  1  0  0  3  0  0  0  0  0  0
  184.8950  178.9810  144.9180 C   0  0  0  0  0  0  0  0  0  0  0  0
  188.7670  177.8780  143.3760 C   0  0  0  0  0  3  0  0  0  0  0  0
  185.6440  178.7640  141.0920 C   0  0  1  0  0  3  0  0  0  0  0  0
  183.4940  178.3510  142.2100 N   0  0  0  0  0  2  0  0  0  0  0  0
  182.3780  179.2430  138.3980 S   0  0  0  0  0  0  0  0  0  0  0  0
  186.0490  178.5170  137.5570 C   0  0  0  0  0  2  0  0  0  0  0  0
  183.4210  179.3520  139.8980 C   0  0  1  0  0  3  0  0  0  0  0  0
  181.6260  177.9970  140.7150 C   0  0  0  0  0  3  0  0  0  0  0  0
  188.3850  178.4390  139.7270 O   0  0  0  0  0  0  0  0  0  0  0  0
  188.9000  178.5460  142.0700 C   0  0  0  0  0  0  0  0  0  0  0  0
  182.8020  178.5300  140.9750 C   0  0  0  0  0  0  0  0  0  0  0  0
  184.9310  179.0300  139.7500 C   0  0  2  0  0  3  0  0  0  0  0  0
  185.5650  178.5180  146.1300 C   0  0  0  0  0  3  0  0  0  0  0  0
  188.2290  177.1280  139.2690 C   0  0  0  0  0  2  0  0  0  0  0  0
  187.1590  177.6440  137.0340 C   0  0  0  0  0  3  0  0  0  0  0  0
  179.9350  178.1650  138.9820 C   0  0  0  0  0  2  0  0  0  0  0  0
  183.9080  179.7610  144.9870 O   0  0  0  0  0  0  0  0  0  0  0  0
  187.6050  177.3940  143.8000 C   0  0  0  0  0  0  0  0  0  0  0  0
  186.4300  177.5030  146.0660 C   0  0  0  0  0  3  0  0  0  0  0  0
  181.1960  178.3050  139.3620 C   0  0  0  0  0  0  0  0  0  0  0  0
  185.5180  178.6080  143.6140 C   0  0  1  0  0  3  0  0  0  0  0  0
  186.8740  179.4340  141.1480 O   0  0  0  0  0  0  0  0  0  0  0  0
  189.9310  179.2320  141.8390 O   0  0  0  0  0  0  0  0  0  0  0  0
  187.8330  178.4210  141.0160 C   0  0  1  0  0  3  0  0  0  0  0  0
  188.1260  177.0710  137.7710 C   0  0  0  0  0  3  0  0  0  0  0  0
  184.3530  176.8320  138.4540 C   0  0  0  0  0  1  0  0  0  0  0  0
  186.6940  176.6880  144.8120 C   0  0  1  0  0  3  0  0  0  0  0  0
  186.1010  177.1890  143.5940 C   0  0  2  0  0  3  0  0  0  0  0  0
  185.3580  177.9280  138.7730 C   0  0  1  0  0  3  0  0  0  0  0  0
  1  5  1  6  0  0  0
  1 22  1  0  0  0  0
  2 18  2  0  0  0  0
  2 14  1  0  0  0  0
  3 19  2  0  0  0  0
  4 23  1  1  0  0  0
  4  1  1  0  0  0  0
  6 21  1  0  0  0  0
  7 30  1  0  0  0  0
  8  6  1  6  0  0  0
  8 12  1  0  0  0  0
  9 12  2  0  0  0  0
 10 25  1  0  0  0  0
 11  3  1  0  0  0  0
 12  5  1  0  0  0  0
 13  8  1  0  0  0  0
 13  4  1  0  0  0  0
 15 10  1  0  0  0  0
 16  7  1  0  0  0  0
 16 26  2  0  0  0  0
 17 21  2  0  0  0  0
 19 28  1  0  0  0  0
 20 14  2  0  0  0  0
 21  9  1  0  0  0  0
 22  2  1  0  0  0  0
 24 11  2  0  0  0  0
 25 23  1  0  0  0  0
 25 11  1  0  0  0  0
 26 15  1  0  0  0  0
 27 30  1  0  0  0  0
 28 20  1  0  0  0  0
 29 22  1  0  0  0  0
 29 19  1  0  0  0  0
 29 28  1  0  0  0  0
 30 13  1  0  0  0  0
M  END
>  <MODEL>
5

>  <REMARK>
 VINA RESULT:      -7.2      2.827      7.254
  Name = 
  0 active torsions:
  status: ('A' for Active; 'I' for Inactive)
                            x       y       z     vdW  Elec       q    Type
                         _______ _______ _______ _____ _____    ______ ____

>  <TORSDO>
F 0

$$$$
=
 OpenBabel10262421583D

 30 35  0  0  1  0  0  0  0  0999 V2000
  184.8620  179.0340  143.6830 C   0  0  1  0  0  3  0  0  0  0  0  0
  186.5730  178.6280  145.5690 C   0  0  0  0  0  0  0  0  0  0  0  0
  188.4850  177.7640  141.8030 C   0  0  0  0  0  3  0  0  0  0  0  0
  184.7120  178.9480  142.1500 C   0  0  1  0  0  3  0  0  0  0  0  0
  183.7270  178.3750  144.3300 N   0  0  0  0  0  2  0  0  0  0  0  0
  180.5350  179.7850  142.2340 S   0  0  0  0  0  0  0  0  0  0  0  0
  182.7680  179.1980  139.1710 C   0  0  0  0  0  2  0  0  0  0  0  0
  182.2960  179.6890  142.7240 C   0  0  1  0  0  3  0  0  0  0  0  0
  181.3140  178.2260  144.3430 C   0  0  0  0  0  3  0  0  0  0  0  0
  185.9320  178.8270  139.3260 O   0  0  0  0  0  0  0  0  0  0  0  0
  187.8190  178.6080  140.7960 C   0  0  0  0  0  0  0  0  0  0  0  0
  182.4300  178.7220  143.8490 C   0  0  0  0  0  0  0  0  0  0  0  0
  183.3370  179.3960  141.6120 C   0  0  2  0  0  3  0  0  0  0  0  0
  187.8150  178.0030  146.0140 C   0  0  0  0  0  3  0  0  0  0  0  0
  185.4090  177.5920  138.9330 C   0  0  0  0  0  2  0  0  0  0  0  0
  183.2170  178.4100  137.9690 C   0  0  0  0  0  3  0  0  0  0  0  0
  178.9310  178.6280  144.1190 C   0  0  0  0  0  2  0  0  0  0  0  0
  185.9230  179.3870  146.3360 O   0  0  0  0  0  0  0  0  0  0  0  0
  187.8160  177.2220  142.8140 C   0  0  0  0  0  0  0  0  0  0  0  0
  188.3530  177.0090  145.3020 C   0  0  0  0  0  3  0  0  0  0  0  0
  180.1540  178.7180  143.6200 C   0  0  0  0  0  0  0  0  0  0  0  0
  186.1960  178.4420  144.1360 C   0  0  1  0  0  3  0  0  0  0  0  0
  185.7520  179.6080  141.4820 O   0  0  0  0  0  0  0  0  0  0  0  0
  188.5250  179.3240  140.0370 O   0  0  0  0  0  0  0  0  0  0  0  0
  186.3200  178.6270  140.6590 C   0  0  1  0  0  3  0  0  0  0  0  0
  184.3790  177.7430  137.8510 C   0  0  0  0  0  3  0  0  0  0  0  0
  181.8850  177.3970  140.7520 C   0  0  0  0  0  1  0  0  0  0  0  0
  187.6940  176.3780  144.0890 C   0  0  1  0  0  3  0  0  0  0  0  0
  186.5100  177.0420  143.5930 C   0  0  2  0  0  3  0  0  0  0  0  0
  182.9540  178.4430  140.4740 C   0  0  1  0  0  3  0  0  0  0  0  0
  1 22  1  0  0  0  0
  1  5  1  1  0  0  0
  2 14  1  0  0  0  0
  2 18  2  0  0  0  0
  3 19  2  0  0  0  0
  4 23  1  6  0  0  0
  4  1  1  0  0  0  0
  6 21  1  0  0  0  0
  7 30  1  0  0  0  0
  8  6  1  6  0  0  0
  8 12  1  0  0  0  0
 10 25  1  0  0  0  0
 11  3  1  0  0  0  0
 12  5  1  0  0  0  0
 12  9  2  0  0  0  0
 13  4  1  0  0  0  0
 13  8  1  0  0  0  0
 15 10  1  0  0  0  0
 16  7  1  0  0  0  0
 19 29  1  0  0  0  0
 19 28  1  0  0  0  0
 20 14  2  0  0  0  0
 21 17  2  0  0  0  0
 21  9  1  0  0  0  0
 22  2  1  0  0  0  0
 24 11  2  0  0  0  0
 25 11  1  0  0  0  0
 25 23  1  0  0  0  0
 26 16  2  0  0  0  0
 26 15  1  0  0  0  0
 28 20  1  0  0  0  0
 29 28  1  0  0  0  0
 29 22  1  0  0  0  0
 30 27  1  0  0  0  0
 30 13  1  0  0  0  0
M  END
>  <MODEL>
6

>  <REMARK>
 VINA RESULT:      -7.1      3.014      6.999
  Name = 
  0 active torsions:
  status: ('A' for Active; 'I' for Inactive)
                            x       y       z     vdW  Elec       q    Type
                         _______ _______ _______ _____ _____    ______ ____

>  <TORSDO>
F 0

$$$$
=
 OpenBabel10262421583D

 30 35  0  0  1  0  0  0  0  0999 V2000
  186.2640  178.7030  141.4130 C   0  0  1  0  0  3  0  0  0  0  0  0
  185.2250  178.9970  143.7540 C   0  0  0  0  0  0  0  0  0  0  0  0
  189.3390  177.8050  144.2430 C   0  0  0  0  0  3  0  0  0  0  0  0
  187.5810  178.2990  140.7190 C   0  0  1  0  0  3  0  0  0  0  0  0
  185.1450  177.9790  140.8120 N   0  0  0  0  0  2  0  0  0  0  0  0
  185.8610  178.3320  136.8200 S   0  0  0  0  0  0  0  0  0  0  0  0
  189.4980  177.6010  137.7940 C   0  0  0  0  0  2  0  0  0  0  0  0
  186.1360  178.6650  138.5990 C   0  0  1  0  0  3  0  0  0  0  0  0
  184.1200  177.3810  138.7050 C   0  0  0  0  0  3  0  0  0  0  0  0
  190.6290  177.8710  140.7630 O   0  0  0  0  0  0  0  0  0  0  0  0
  190.0580  178.2980  143.0560 C   0  0  0  0  0  0  0  0  0  0  0  0
  185.0770  177.9750  139.3870 C   0  0  0  0  0  0  0  0  0  0  0  0
  187.5440  178.3670  139.1770 C   0  0  2  0  0  3  0  0  0  0  0  0
  185.2730  178.7150  145.1850 C   0  0  0  0  0  3  0  0  0  0  0  0
  190.6470  176.5070  140.4570 C   0  0  0  0  0  2  0  0  0  0  0  0
  190.6940  176.6970  137.9340 C   0  0  0  0  0  3  0  0  0  0  0  0
  183.3770  177.2750  136.3960 C   0  0  0  0  0  2  0  0  0  0  0  0
  184.3370  179.7520  143.2760 O   0  0  0  0  0  0  0  0  0  0  0  0
  188.0930  177.3490  144.1670 C   0  0  0  0  0  0  0  0  0  0  0  0
  186.0420  177.7230  145.6430 C   0  0  0  0  0  3  0  0  0  0  0  0
  184.3430  177.4980  137.2740 C   0  0  0  0  0  0  0  0  0  0  0  0
  186.3470  178.4720  142.9200 C   0  0  1  0  0  3  0  0  0  0  0  0
  188.6810  179.0030  141.2260 O   0  0  0  0  0  0  0  0  0  0  0  0
  191.1080  178.9750  143.2180 O   0  0  0  0  0  0  0  0  0  0  0  0
  189.5640  178.0080  141.6650 C   0  0  1  0  0  3  0  0  0  0  0  0
  191.2150  176.2510  139.0910 C   0  0  0  0  0  3  0  0  0  0  0  0
  187.5240  176.0030  138.0570 C   0  0  0  0  0  1  0  0  0  0  0  0
  186.8050  176.7580  144.7530 C   0  0  1  0  0  3  0  0  0  0  0  0
  186.8300  177.0790  143.3450 C   0  0  2  0  0  3  0  0  0  0  0  0
  188.3210  177.1590  138.6430 C   0  0  1  0  0  3  0  0  0  0  0  0
  1  5  1  6  0  0  0
  1 22  1  0  0  0  0
  2 14  1  0  0  0  0
  4 23  1  1  0  0  0
  4  1  1  0  0  0  0
  6 21  1  0  0  0  0
  7 16  1  0  0  0  0
  7 30  1  0  0  0  0
  8  6  1  6  0  0  0
  8 13  1  0  0  0  0
  8 12  1  0  0  0  0
  9 12  2  0  0  0  0
 10 25  1  0  0  0  0
 11 24  2  0  0  0  0
 11  3  1  0  0  0  0
 12  5  1  0  0  0  0
 13  4  1  0  0  0  0
 14 20  2  0  0  0  0
 15 10  1  0  0  0  0
 16 26  2  0  0  0  0
 17 21  2  0  0  0  0
 18  2  2  0  0  0  0
 19  3  2  0  0  0  0
 19 28  1  0  0  0  0
 21  9  1  0  0  0  0
 22 29  1  0  0  0  0
 22  2  1  0  0  0  0
 23 25  1  0  0  0  0
 25 11  1  0  0  0  0
 26 15  1  0  0  0  0
 27 30  1  0  0  0  0
 28 20  1  0  0  0  0
 29 19  1  0  0  0  0
 29 28  1  0  0  0  0
 30 13  1  0  0  0  0
M  END
>  <MODEL>
7

>  <REMARK>
 VINA RESULT:      -7.0      2.499      7.008
  Name = 
  0 active torsions:
  status: ('A' for Active; 'I' for Inactive)
                            x       y       z     vdW  Elec       q    Type
                         _______ _______ _______ _____ _____    ______ ____

>  <TORSDO>
F 0

$$$$
=
 OpenBabel10262421583D

 30 35  0  0  1  0  0  0  0  0999 V2000
  184.2350  179.0410  141.7750 C   0  0  1  0  0  3  0  0  0  0  0  0
  184.7900  179.3650  144.2710 C   0  0  0  0  0  0  0  0  0  0  0  0
  188.3890  178.1460  142.2350 C   0  0  0  0  0  3  0  0  0  0  0  0
  184.8810  178.6190  140.4390 C   0  0  1  0  0  3  0  0  0  0  0  0
  182.9770  178.3190  141.9660 N   0  0  0  0  0  2  0  0  0  0  0  0
  181.1820  178.6270  138.3250 S   0  0  0  0  0  0  0  0  0  0  0  0
  184.6850  177.8770  136.9570 C   0  0  0  0  0  2  0  0  0  0  0  0
  182.4600  178.9760  139.5880 C   0  0  1  0  0  3  0  0  0  0  0  0
  180.9000  177.7090  140.8880 C   0  0  0  0  0  3  0  0  0  0  0  0
  187.3590  178.1680  138.6690 O   0  0  0  0  0  0  0  0  0  0  0  0
  188.2630  178.6220  140.8470 C   0  0  0  0  0  0  0  0  0  0  0  0
  182.0760  178.3020  140.8600 C   0  0  0  0  0  0  0  0  0  0  0  0
  183.9360  178.6720  139.2210 C   0  0  2  0  0  3  0  0  0  0  0  0
  185.6790  179.0970  145.3970 C   0  0  0  0  0  3  0  0  0  0  0  0
  187.1920  176.8010  138.4300 C   0  0  0  0  0  2  0  0  0  0  0  0
  185.7300  176.9650  136.3700 C   0  0  0  0  0  3  0  0  0  0  0  0
  178.9310  177.5860  139.4740 C   0  0  0  0  0  2  0  0  0  0  0  0
  183.7930  180.1230  144.4050 O   0  0  0  0  0  0  0  0  0  0  0  0
  187.3420  177.7000  142.9200 C   0  0  0  0  0  0  0  0  0  0  0  0
  186.5700  178.1040  145.3210 C   0  0  0  0  0  3  0  0  0  0  0  0
  180.2290  177.8090  139.6030 C   0  0  0  0  0  0  0  0  0  0  0  0
  185.1970  178.8240  142.9410 C   0  0  1  0  0  3  0  0  0  0  0  0
  186.0680  179.3190  140.1840 O   0  0  0  0  0  0  0  0  0  0  0  0
  189.2040  179.2930  140.3450 O   0  0  0  0  0  0  0  0  0  0  0  0
  187.0380  178.3220  140.0250 C   0  0  1  0  0  3  0  0  0  0  0  0
  186.8360  176.5270  136.9960 C   0  0  0  0  0  3  0  0  0  0  0  0
  183.2530  176.2970  138.3620 C   0  0  0  0  0  1  0  0  0  0  0  0
  186.6550  177.1240  144.1640 C   0  0  1  0  0  3  0  0  0  0  0  0
  185.8370  177.4310  143.0130 C   0  0  2  0  0  3  0  0  0  0  0  0
  184.2430  177.4520  138.3440 C   0  0  1  0  0  3  0  0  0  0  0  0
  1  5  1  1  0  0  0
  1 22  1  0  0  0  0
  2 18  2  0  0  0  0
  2 14  1  0  0  0  0
  3 19  2  0  0  0  0
  4 23  1  6  0  0  0
  4  1  1  0  0  0  0
  6 21  1  0  0  0  0
  7 30  1  0  0  0  0
  8  6  1  6  0  0  0
  8 12  1  0  0  0  0
 10 25  1  0  0  0  0
 11  3  1  0  0  0  0
 12  9  2  0  0  0  0
 12  5  1  0  0  0  0
 13  8  1  0  0  0  0
 13  4  1  0  0  0  0
 15 10  1  0  0  0  0
 16  7  1  0  0  0  0
 16 26  2  0  0  0  0
 17 21  2  0  0  0  0
 19 29  1  0  0  0  0
 19 28  1  0  0  0  0
 20 14  2  0  0  0  0
 21  9  1  0  0  0  0
 22 29  1  0  0  0  0
 22  2  1  0  0  0  0
 24 11  2  0  0  0  0
 25 23  1  0  0  0  0
 25 11  1  0  0  0  0
 26 15  1  0  0  0  0
 28 20  1  0  0  0  0
 29 28  1  0  0  0  0
 30 27  1  0  0  0  0
 30 13  1  0  0  0  0
M  END
>  <MODEL>
8

>  <REMARK>
 VINA RESULT:      -6.9      3.058      7.323
  Name = 
  0 active torsions:
  status: ('A' for Active; 'I' for Inactive)
                            x       y       z     vdW  Elec       q    Type
                         _______ _______ _______ _____ _____    ______ ____

>  <TORSDO>
F 0

$$$$
=
 OpenBabel10262421583D

 30 35  0  0  1  0  0  0  0  0999 V2000
  185.7640  178.7990  141.8960 C   0  0  1  0  0  3  0  0  0  0  0  0
  186.4480  178.6660  144.3790 C   0  0  0  0  0  0  0  0  0  0  0  0
  189.6620  177.0480  142.0040 C   0  0  0  0  0  3  0  0  0  0  0  0
  186.2710  178.4420  140.4840 C   0  0  1  0  0  3  0  0  0  0  0  0
  184.3920  178.3200  142.0660 N   0  0  0  0  0  2  0  0  0  0  0  0
  182.5880  179.4660  138.6010 S   0  0  0  0  0  0  0  0  0  0  0  0
  185.8230  178.2330  136.9520 C   0  0  0  0  0  2  0  0  0  0  0  0
  183.9480  179.3820  139.8240 C   0  0  1  0  0  3  0  0  0  0  0  0
  182.2040  178.2830  141.0390 C   0  0  0  0  0  3  0  0  0  0  0  0
  188.5510  177.7560  138.5330 O   0  0  0  0  0  0  0  0  0  0  0  0
  189.5930  177.7240  140.6960 C   0  0  0  0  0  0  0  0  0  0  0  0
  183.4740  178.6310  141.0190 C   0  0  0  0  0  0  0  0  0  0  0  0
  185.3190  178.8460  139.3370 C   0  0  2  0  0  3  0  0  0  0  0  0
  187.2990  178.0780  145.4090 C   0  0  0  0  0  3  0  0  0  0  0  0
  188.1030  176.4940  138.1320 C   0  0  0  0  0  2  0  0  0  0  0  0
  186.6430  177.2210  136.1970 C   0  0  0  0  0  3  0  0  0  0  0  0
  180.2080  178.7440  139.7350 C   0  0  0  0  0  2  0  0  0  0  0  0
  185.6300  179.5800  144.6640 O   0  0  0  0  0  0  0  0  0  0  0  0
  188.5670  176.7290  142.6850 C   0  0  0  0  0  0  0  0  0  0  0  0
  187.9660  176.9490  145.1570 C   0  0  0  0  0  3  0  0  0  0  0  0
  181.5290  178.6870  139.8170 C   0  0  0  0  0  0  0  0  0  0  0  0
  186.6970  178.2410  142.9690 C   0  0  1  0  0  3  0  0  0  0  0  0
  187.5670  178.9230  140.2530 O   0  0  0  0  0  0  0  0  0  0  0  0
  190.6360  178.2570  140.2310 O   0  0  0  0  0  0  0  0  0  0  0  0
  188.3090  177.7850  139.9140 C   0  0  1  0  0  3  0  0  0  0  0  0
  187.6560  176.4920  136.6980 C   0  0  0  0  0  3  0  0  0  0  0  0
  184.1430  176.7910  138.2250 C   0  0  0  0  0  1  0  0  0  0  0  0
  187.8150  176.1370  143.8830 C   0  0  1  0  0  3  0  0  0  0  0  0
  187.0430  176.7520  142.8280 C   0  0  2  0  0  3  0  0  0  0  0  0
  185.3460  177.7200  138.2970 C   0  0  1  0  0  3  0  0  0  0  0  0
  1  5  1  1  0  0  0
  1 22  1  0  0  0  0
  2 18  2  0  0  0  0
  2 14  1  0  0  0  0
  3 19  2  0  0  0  0
  4 23  1  6  0  0  0
  4  1  1  0  0  0  0
  6 21  1  0  0  0  0
  7 30  1  0  0  0  0
  8  6  1  6  0  0  0
  8 12  1  0  0  0  0
 10 25  1  0  0  0  0
 11  3  1  0  0  0  0
 12  9  2  0  0  0  0
 12  5  1  0  0  0  0
 13  8  1  0  0  0  0
 13  4  1  0  0  0  0
 15 10  1  0  0  0  0
 16 26  2  0  0  0  0
 16  7  1  0  0  0  0
 17 21  2  0  0  0  0
 19 29  1  0  0  0  0
 19 28  1  0  0  0  0
 20 14  2  0  0  0  0
 21  9  1  0  0  0  0
 22  2  1  0  0  0  0
 24 11  2  0  0  0  0
 25 23  1  0  0  0  0
 25 11  1  0  0  0  0
 26 15  1  0  0  0  0
 27 30  1  0  0  0  0
 28 20  1  0  0  0  0
 29 22  1  0  0  0  0
 29 28  1  0  0  0  0
 30 13  1  0  0  0  0
M  END
>  <MODEL>
9

>  <REMARK>
 VINA RESULT:      -6.5      2.607      6.967
  Name = 
  0 active torsions:
  status: ('A' for Active; 'I' for Inactive)
                            x       y       z     vdW  Elec       q    Type
                         _______ _______ _______ _____ _____    ______ ____

>  <TORSDO>
F 0

$$$$
