=
 OpenBabel10262421063D

 32 37  0  0  1  0  0  0  0  0999 V2000
  188.9940  177.7100  137.6560 C   0  0  0  0  0  0  0  0  0  0  0  0
  188.6930  177.0730  136.2900 C   0  0  1  0  0  3  0  0  0  0  0  0
  187.8670  178.5330  138.2490 C   0  0  0  0  0  2  0  0  0  0  0  0
  192.6390  176.3930  137.2280 C   0  0  0  0  0  2  0  0  0  0  0  0
  192.7520  175.0880  134.5940 C   0  0  0  0  0  3  0  0  0  0  0  0
  191.7890  175.1580  136.9650 C   0  0  2  0  0  3  0  0  0  0  0  0
  189.4510  173.5410  136.1640 C   0  0  2  0  0  3  0  0  0  0  0  0
  191.5360  174.9780  135.4560 C   0  0  2  0  0  0  0  0  0  0  0  0
  190.0140  176.8440  135.5630 C   0  0  0  0  0  2  0  0  0  0  0  0
  190.4180  174.0380  135.0620 C   0  0  2  0  0  3  0  0  0  0  0  0
  187.9490  175.9040  136.4410 O   0  0  0  0  0  1  0  0  0  0  0  0
  190.2980  175.5660  134.7480 C   0  0  2  0  0  3  0  0  0  0  0  0
  189.9380  175.6450  138.5820 N   0  0  0  0  0  0  0  0  0  0  0  0
  193.8480  175.7140  135.0590 C   0  0  0  0  0  3  0  0  0  0  0  0
  190.0740  177.0940  138.5950 C   0  0  2  0  0  3  0  0  0  0  0  0
  189.9960  173.6330  137.4780 O   0  0  0  0  0  0  0  0  0  0  0  0
  193.9750  176.2420  136.4810 C   0  0  0  0  0  2  0  0  0  0  0  0
  189.0510  179.2210  137.5850 C   0  0  0  0  0  2  0  0  0  0  0  0
  190.5920  174.8300  137.8100 C   0  0  0  0  0  0  0  0  0  0  0  0
  191.3570  177.7860  142.1910 C   0  0  0  0  0  2  0  0  0  0  0  0
  188.8340  177.7710  142.2190 C   0  0  0  0  0  2  0  0  0  0  0  0
  190.0700  177.6370  140.0350 C   0  0  1  0  0  3  0  0  0  0  0  0
  190.1130  177.3410  142.9590 C   0  0  2  0  0  3  0  0  0  0  0  0
  188.8260  177.1860  140.8130 C   0  0  0  0  0  2  0  0  0  0  0  0
  191.3460  177.2180  140.7740 C   0  0  1  0  0  3  0  0  0  0  0  0
  192.4590  177.6840  140.0980 F   0  0  0  0  0  0  0  0  0  0  0  0
  189.0000  177.3710  145.1080 C   0  0  0  0  0  1  0  0  0  0  0  0
  191.3440  177.2160  144.9890 C   0  0  0  0  0  1  0  0  0  0  0  0
  190.1730  177.8020  144.3540 N   0  0  0  0  0  0  0  0  0  0  0  0
  189.0380  172.1120  135.8720 C   0  0  0  0  0  2  0  0  0  0  0  0
  186.8000  172.5730  136.8200 C   0  0  0  0  0  1  0  0  0  0  0  0
  187.5450  172.0420  135.6140 C   0  0  0  0  0  2  0  0  0  0  0  0
  1  3  1  0  0  0  0
  1 15  1  0  0  0  0
  2 11  1  1  0  0  0
  2  1  1  0  0  0  0
  5 14  2  0  0  0  0
  6  4  1  6  0  0  0
  6 19  1  0  0  0  0
  7 30  1  6  0  0  0
  7 16  1  0  0  0  0
  8  5  1  6  0  0  0
  8  6  1  0  0  0  0
  9  2  1  0  0  0  0
 10  8  1  0  0  0  0
 10  7  1  0  0  0  0
 12 10  1  0  0  0  0
 12  8  1  0  0  0  0
 12  9  1  0  0  0  0
 13 15  1  0  0  0  0
 14 17  1  0  0  0  0
 15 22  1  0  0  0  0
 16 19  1  0  0  0  0
 17  4  1  0  0  0  0
 18  1  1  0  0  0  0
 18  3  1  0  0  0  0
 19 13  2  0  0  0  0
 20 23  1  0  0  0  0
 21 23  1  0  0  0  0
 22 25  1  0  0  0  0
 22 24  1  0  0  0  0
 23 29  1  0  0  0  0
 24 21  1  0  0  0  0
 25 20  1  0  0  0  0
 26 25  1  0  0  0  0
 29 28  1  0  0  0  0
 29 27  1  0  0  0  0
 32 30  1  0  0  0  0
 32 31  1  0  0  0  0
M  END
>  <MODEL>
1

>  <REMARK>
 VINA RESULT:      -6.7      0.000      0.000
  Name = 
  4 active torsions:
  status: ('A' for Active; 'I' for Inactive)
    1  A    between atoms: C_11  and  C_12
    2  A    between atoms: C_11  and  C_31
    3  A    between atoms: C_16  and  C_27
    4  A    between atoms: C_19  and  N_26
                            x       y       z     vdW  Elec       q    Type
                         _______ _______ _______ _____ _____    ______ ____

>  <TORSDO>
F 4

$$$$
=
 OpenBabel10262421063D

 32 37  0  0  1  0  0  0  0  0999 V2000
  181.8350  179.1470  138.7870 C   0  0  0  0  0  0  0  0  0  0  0  0
  181.0580  178.5840  137.5860 C   0  0  1  0  0  3  0  0  0  0  0  0
  181.0680  180.1290  139.6510 C   0  0  0  0  0  2  0  0  0  0  0  0
  184.9520  177.2790  137.3740 C   0  0  0  0  0  2  0  0  0  0  0  0
  184.0960  176.0060  134.8630 C   0  0  0  0  0  3  0  0  0  0  0  0
  183.8820  176.1970  137.4070 C   0  0  2  0  0  3  0  0  0  0  0  0
  181.1920  174.9790  137.3640 C   0  0  2  0  0  3  0  0  0  0  0  0
  183.1790  176.0780  136.0410 C   0  0  2  0  0  0  0  0  0  0  0  0
  182.0600  178.1600  136.5190 C   0  0  0  0  0  2  0  0  0  0  0  0
  181.8640  175.3320  136.0160 C   0  0  2  0  0  3  0  0  0  0  0  0
  180.2170  177.5450  137.9840 O   0  0  0  0  0  1  0  0  0  0  0  0
  181.8960  176.8630  135.7000 C   0  0  2  0  0  3  0  0  0  0  0  0
  182.6740  176.9470  139.4700 N   0  0  0  0  0  0  0  0  0  0  0  0
  185.3620  176.4460  134.9730 C   0  0  0  0  0  3  0  0  0  0  0  0
  183.0310  178.3570  139.3960 C   0  0  2  0  0  3  0  0  0  0  0  0
  182.1000  174.9670  138.4640 O   0  0  0  0  0  0  0  0  0  0  0  0
  185.9740  176.9290  136.2800 C   0  0  0  0  0  2  0  0  0  0  0  0
  182.1010  180.6320  138.6520 C   0  0  0  0  0  2  0  0  0  0  0  0
  182.9440  176.0500  138.5710 C   0  0  0  0  0  0  0  0  0  0  0  0
  185.5070  179.0750  142.2950 C   0  0  0  0  0  2  0  0  0  0  0  0
  183.1770  178.8890  143.2460 C   0  0  0  0  0  2  0  0  0  0  0  0
  183.5270  178.8750  140.7580 C   0  0  1  0  0  3  0  0  0  0  0  0
  184.6610  178.5350  143.4480 C   0  0  2  0  0  3  0  0  0  0  0  0
  182.6850  178.3280  141.9180 C   0  0  0  0  0  2  0  0  0  0  0  0
  185.0070  178.5310  140.9600 C   0  0  1  0  0  3  0  0  0  0  0  0
  185.7640  179.0820  139.9420 F   0  0  0  0  0  0  0  0  0  0  0  0
  184.2370  178.7860  145.8180 C   0  0  0  0  0  1  0  0  0  0  0  0
  186.3760  178.1710  145.0540 C   0  0  0  0  0  1  0  0  0  0  0  0
  185.2040  178.9750  144.7410 N   0  0  0  0  0  0  0  0  0  0  0  0
  180.4960  173.6360  137.2510 C   0  0  0  0  0  2  0  0  0  0  0  0
  182.0730  171.7500  136.9830 C   0  0  0  0  0  1  0  0  0  0  0  0
  181.2150  172.7570  136.2470 C   0  0  0  0  0  2  0  0  0  0  0  0
  1 15  1  0  0  0  0
  1  3  1  0  0  0  0
  2 11  1  1  0  0  0
  2  1  1  0  0  0  0
  5 14  2  0  0  0  0
  6  4  1  6  0  0  0
  6 19  1  0  0  0  0
  7 30  1  6  0  0  0
  7 16  1  0  0  0  0
  8  5  1  6  0  0  0
  8  6  1  0  0  0  0
  9  2  1  0  0  0  0
 10  8  1  0  0  0  0
 10  7  1  0  0  0  0
 12 10  1  0  0  0  0
 12  8  1  0  0  0  0
 12  9  1  0  0  0  0
 14 17  1  0  0  0  0
 15 13  1  0  0  0  0
 15 22  1  0  0  0  0
 16 19  1  0  0  0  0
 17  4  1  0  0  0  0
 18  1  1  0  0  0  0
 18  3  1  0  0  0  0
 19 13  2  0  0  0  0
 20 23  1  0  0  0  0
 21 23  1  0  0  0  0
 22 25  1  0  0  0  0
 22 24  1  0  0  0  0
 23 29  1  0  0  0  0
 24 21  1  0  0  0  0
 25 20  1  0  0  0  0
 26 25  1  0  0  0  0
 29 28  1  0  0  0  0
 29 27  1  0  0  0  0
 32 31  1  0  0  0  0
 32 30  1  0  0  0  0
M  END
>  <MODEL>
2

>  <REMARK>
 VINA RESULT:      -6.2      5.552      7.299
  Name = 
  4 active torsions:
  status: ('A' for Active; 'I' for Inactive)
    1  A    between atoms: C_11  and  C_12
    2  A    between atoms: C_11  and  C_31
    3  A    between atoms: C_16  and  C_27
    4  A    between atoms: C_19  and  N_26
                            x       y       z     vdW  Elec       q    Type
                         _______ _______ _______ _____ _____    ______ ____

>  <TORSDO>
F 4

$$$$
=
 OpenBabel10262421063D

 32 37  0  0  1  0  0  0  0  0999 V2000
  180.3500  178.7860  142.4350 C   0  0  0  0  0  0  0  0  0  0  0  0
  179.1830  178.1850  141.6360 C   0  0  1  0  0  3  0  0  0  0  0  0
  180.1600  178.8100  143.9390 C   0  0  0  0  0  2  0  0  0  0  0  0
  181.9390  179.7250  139.0010 C   0  0  0  0  0  2  0  0  0  0  0  0
  180.0220  178.8810  136.9340 C   0  0  0  0  0  3  0  0  0  0  0  0
  181.6100  178.2480  138.8410 C   0  0  2  0  0  3  0  0  0  0  0  0
  180.2290  175.6710  139.2580 C   0  0  2  0  0  3  0  0  0  0  0  0
  180.2360  178.0610  138.1660 C   0  0  2  0  0  0  0  0  0  0  0  0
  179.2090  178.7700  140.2290 C   0  0  0  0  0  2  0  0  0  0  0  0
  179.6050  176.6920  138.2770 C   0  0  2  0  0  3  0  0  0  0  0  0
  179.2430  176.7920  141.6440 O   0  0  0  0  0  1  0  0  0  0  0  0
  178.9310  177.9180  138.9730 C   0  0  2  0  0  3  0  0  0  0  0  0
  182.0490  177.5230  141.1990 N   0  0  0  0  0  0  0  0  0  0  0  0
  180.7760  179.9730  136.7170 C   0  0  0  0  0  3  0  0  0  0  0  0
  181.7890  178.8030  141.8420 C   0  0  2  0  0  3  0  0  0  0  0  0
  181.5870  175.9570  139.5860 O   0  0  0  0  0  0  0  0  0  0  0  0
  181.9370  180.3850  137.6120 C   0  0  0  0  0  2  0  0  0  0  0  0
  179.9670  180.0800  143.1230 C   0  0  0  0  0  2  0  0  0  0  0  0
  181.8680  177.2580  139.9400 C   0  0  0  0  0  0  0  0  0  0  0  0
  185.3790  179.1080  143.2830 C   0  0  0  0  0  2  0  0  0  0  0  0
  183.7480  178.9250  145.2000 C   0  0  0  0  0  2  0  0  0  0  0  0
  182.9030  179.1550  142.8440 C   0  0  1  0  0  3  0  0  0  0  0  0
  185.1190  178.4870  144.6550 C   0  0  2  0  0  3  0  0  0  0  0  0
  182.6500  178.5270  144.2220 C   0  0  0  0  0  2  0  0  0  0  0  0
  184.2720  178.7280  142.3030 C   0  0  1  0  0  3  0  0  0  0  0  0
  184.5170  179.3480  141.0910 F   0  0  0  0  0  0  0  0  0  0  0  0
  185.8340  178.6110  146.9650 C   0  0  0  0  0  1  0  0  0  0  0  0
  187.3030  177.8130  145.3100 C   0  0  0  0  0  1  0  0  0  0  0  0
  186.2360  178.7670  145.5700 N   0  0  0  0  0  0  0  0  0  0  0  0
  180.1170  174.2730  138.6800 C   0  0  0  0  0  2  0  0  0  0  0  0
  181.1580  172.6870  137.0930 C   0  0  0  0  0  1  0  0  0  0  0  0
  180.9820  174.1500  137.4410 C   0  0  0  0  0  2  0  0  0  0  0  0
  1 18  1  0  0  0  0
  1  3  1  0  0  0  0
  2 11  1  6  0  0  0
  2  1  1  0  0  0  0
  6  4  1  1  0  0  0
  6 19  1  0  0  0  0
  7 30  1  6  0  0  0
  7 16  1  0  0  0  0
  8  5  1  6  0  0  0
  8 10  1  0  0  0  0
  8  6  1  0  0  0  0
  8 12  1  0  0  0  0
  9  2  1  0  0  0  0
 10 12  1  0  0  0  0
 10  7  1  0  0  0  0
 12  9  1  0  0  0  0
 13 15  1  0  0  0  0
 14  5  2  0  0  0  0
 14 17  1  0  0  0  0
 15  1  1  0  0  0  0
 15 22  1  0  0  0  0
 16 19  1  0  0  0  0
 17  4  1  0  0  0  0
 18  3  1  0  0  0  0
 19 13  2  0  0  0  0
 20 23  1  0  0  0  0
 22 24  1  0  0  0  0
 23 21  1  0  0  0  0
 23 29  1  0  0  0  0
 24 21  1  0  0  0  0
 25 22  1  0  0  0  0
 25 20  1  0  0  0  0
 26 25  1  0  0  0  0
 28 29  1  0  0  0  0
 29 27  1  0  0  0  0
 31 32  1  0  0  0  0
 32 30  1  0  0  0  0
M  END
>  <MODEL>
3

>  <REMARK>
 VINA RESULT:      -5.7      7.827      9.468
  Name = 
  4 active torsions:
  status: ('A' for Active; 'I' for Inactive)
    1  A    between atoms: C_11  and  C_12
    2  A    between atoms: C_11  and  C_31
    3  A    between atoms: C_16  and  C_27
    4  A    between atoms: C_19  and  N_26
                            x       y       z     vdW  Elec       q    Type
                         _______ _______ _______ _____ _____    ______ ____

>  <TORSDO>
F 4

$$$$
=
 OpenBabel10262421063D

 32 37  0  0  1  0  0  0  0  0999 V2000
  183.0350  177.2630  136.7760 C   0  0  0  0  0  0  0  0  0  0  0  0
  183.1300  178.6600  137.4110 C   0  0  1  0  0  3  0  0  0  0  0  0
  183.8310  177.0760  135.5000 C   0  0  0  0  0  2  0  0  0  0  0  0
  180.3590  176.4460  139.4930 C   0  0  0  0  0  2  0  0  0  0  0  0
  179.9880  178.9040  141.0660 C   0  0  0  0  0  3  0  0  0  0  0  0
  181.5220  177.0010  140.3040 C   0  0  2  0  0  3  0  0  0  0  0  0
  183.9400  178.5750  140.9320 C   0  0  2  0  0  3  0  0  0  0  0  0
  181.3390  178.5090  140.5630 C   0  0  2  0  0  0  0  0  0  0  0  0
  181.8770  178.8980  138.2450 C   0  0  0  0  0  2  0  0  0  0  0  0
  182.5630  179.2740  141.0150 C   0  0  2  0  0  3  0  0  0  0  0  0
  184.3050  178.7880  138.1500 O   0  0  0  0  0  1  0  0  0  0  0  0
  181.9200  179.5860  139.6240 C   0  0  2  0  0  3  0  0  0  0  0  0
  183.3980  176.1030  138.9060 N   0  0  0  0  0  0  0  0  0  0  0  0
  178.9380  178.0850  140.8780 C   0  0  0  0  0  3  0  0  0  0  0  0
  182.6730  176.0220  137.6460 C   0  0  2  0  0  3  0  0  0  0  0  0
  183.8520  177.1520  140.8960 O   0  0  0  0  0  0  0  0  0  0  0  0
  179.0540  176.6970  140.2650 C   0  0  0  0  0  2  0  0  0  0  0  0
  182.3250  177.2880  135.4390 C   0  0  0  0  0  2  0  0  0  0  0  0
  182.9440  176.6190  140.0090 C   0  0  0  0  0  0  0  0  0  0  0  0
  181.8850  172.4200  136.4380 C   0  0  0  0  0  2  0  0  0  0  0  0
  184.3780  172.6400  136.7640 C   0  0  0  0  0  2  0  0  0  0  0  0
  182.8990  174.6610  136.9640 C   0  0  1  0  0  3  0  0  0  0  0  0
  183.1490  171.7330  136.9540 C   0  0  2  0  0  3  0  0  0  0  0  0
  184.1630  173.9640  137.4850 C   0  0  0  0  0  2  0  0  0  0  0  0
  181.6740  173.7570  137.1440 C   0  0  1  0  0  3  0  0  0  0  0  0
  180.5520  174.3680  136.6130 F   0  0  0  0  0  0  0  0  0  0  0  0
  182.1340  170.0480  135.5430 C   0  0  0  0  0  1  0  0  0  0  0  0
  184.4570  170.4130  135.4700 C   0  0  0  0  0  1  0  0  0  0  0  0
  183.2980  170.4000  136.3500 N   0  0  0  0  0  0  0  0  0  0  0  0
  184.8050  179.0120  142.0990 C   0  0  0  0  0  2  0  0  0  0  0  0
  183.9950  179.2480  144.4240 C   0  0  0  0  0  1  0  0  0  0  0  0
  184.4090  178.2590  143.3540 C   0  0  0  0  0  2  0  0  0  0  0  0
  1  2  1  0  0  0  0
  1 15  1  0  0  0  0
  2 11  1  1  0  0  0
  2  9  1  0  0  0  0
  3  1  1  0  0  0  0
  4 17  1  0  0  0  0
  6  4  1  6  0  0  0
  6  8  1  0  0  0  0
  7 10  1  0  0  0  0
  7 30  1  1  0  0  0
  8 10  1  0  0  0  0
  8  5  1  1  0  0  0
  9 12  1  0  0  0  0
 12  8  1  0  0  0  0
 12 10  1  0  0  0  0
 13 19  2  0  0  0  0
 14  5  2  0  0  0  0
 15 13  1  0  0  0  0
 16  7  1  0  0  0  0
 17 14  1  0  0  0  0
 18  3  1  0  0  0  0
 18  1  1  0  0  0  0
 19  6  1  0  0  0  0
 19 16  1  0  0  0  0
 20 23  1  0  0  0  0
 20 25  1  0  0  0  0
 21 23  1  0  0  0  0
 21 24  1  0  0  0  0
 22 25  1  0  0  0  0
 22 24  1  0  0  0  0
 22 15  1  0  0  0  0
 26 25  1  0  0  0  0
 27 29  1  0  0  0  0
 28 29  1  0  0  0  0
 29 23  1  0  0  0  0
 30 32  1  0  0  0  0
 32 31  1  0  0  0  0
M  END
>  <MODEL>
4

>  <REMARK>
 VINA RESULT:      -5.5      6.885     10.513
  Name = 
  4 active torsions:
  status: ('A' for Active; 'I' for Inactive)
    1  A    between atoms: C_11  and  C_12
    2  A    between atoms: C_11  and  C_31
    3  A    between atoms: C_16  and  C_27
    4  A    between atoms: C_19  and  N_26
                            x       y       z     vdW  Elec       q    Type
                         _______ _______ _______ _____ _____    ______ ____

>  <TORSDO>
F 4

$$$$
=
 OpenBabel10262421063D

 32 37  0  0  1  0  0  0  0  0999 V2000
  188.7140  178.1500  137.1030 C   0  0  0  0  0  0  0  0  0  0  0  0
  188.7700  177.5760  135.6790 C   0  0  1  0  0  3  0  0  0  0  0  0
  187.5530  179.0840  137.3800 C   0  0  0  0  0  2  0  0  0  0  0  0
  192.1660  176.4370  137.6990 C   0  0  0  0  0  2  0  0  0  0  0  0
  192.9230  175.1740  135.1510 C   0  0  0  0  0  3  0  0  0  0  0  0
  191.3100  175.3110  137.1360 C   0  0  2  0  0  3  0  0  0  0  0  0
  189.1640  173.9840  135.6020 C   0  0  2  0  0  3  0  0  0  0  0  0
  191.5000  175.1870  135.6110 C   0  0  2  0  0  0  0  0  0  0  0  0
  190.2150  177.2120  135.3610 C   0  0  0  0  0  2  0  0  0  0  0  0
  190.4600  174.3880  134.8590 C   0  0  2  0  0  3  0  0  0  0  0  0
  187.8980  176.4960  135.5450 O   0  0  0  0  0  1  0  0  0  0  0  0
  190.5970  175.9240  134.6020 C   0  0  2  0  0  3  0  0  0  0  0  0
  189.1220  175.9750  138.1600 N   0  0  0  0  0  0  0  0  0  0  0  0
  193.8880  175.6640  135.9490 C   0  0  0  0  0  3  0  0  0  0  0  0
  189.3960  177.3990  138.2860 C   0  0  2  0  0  3  0  0  0  0  0  0
  189.2990  173.9900  137.0220 O   0  0  0  0  0  0  0  0  0  0  0  0
  193.6400  176.1480  137.3700 C   0  0  0  0  0  2  0  0  0  0  0  0
  188.9450  179.6460  137.1280 C   0  0  0  0  0  2  0  0  0  0  0  0
  189.8890  175.1050  137.5740 C   0  0  0  0  0  0  0  0  0  0  0  0
  189.5400  177.7830  142.1440 C   0  0  0  0  0  2  0  0  0  0  0  0
  187.1840  178.2520  141.3690 C   0  0  0  0  0  2  0  0  0  0  0  0
  189.0200  177.9130  139.6870 C   0  0  1  0  0  3  0  0  0  0  0  0
  188.0560  177.5750  142.4420 C   0  0  2  0  0  3  0  0  0  0  0  0
  187.5320  177.6990  139.9930 C   0  0  0  0  0  2  0  0  0  0  0  0
  189.8900  177.2470  140.7580 C   0  0  1  0  0  3  0  0  0  0  0  0
  191.2270  177.5000  140.5070 F   0  0  0  0  0  0  0  0  0  0  0  0
  186.2970  178.0690  144.0300 C   0  0  0  0  0  1  0  0  0  0  0  0
  188.2740  177.0110  144.7410 C   0  0  0  0  0  1  0  0  0  0  0  0
  187.7390  177.9970  143.8150 N   0  0  0  0  0  0  0  0  0  0  0  0
  188.7110  172.6160  135.1290 C   0  0  0  0  0  2  0  0  0  0  0  0
  187.3210  170.6430  135.6750 C   0  0  0  0  0  1  0  0  0  0  0  0
  187.9320  171.9150  136.2250 C   0  0  0  0  0  2  0  0  0  0  0  0
  1 18  1  0  0  0  0
  1  3  1  0  0  0  0
  1 15  1  0  0  0  0
  2 11  1  1  0  0  0
  2  1  1  0  0  0  0
  5 14  2  0  0  0  0
  6 19  1  0  0  0  0
  6  4  1  6  0  0  0
  7 30  1  6  0  0  0
  7 16  1  0  0  0  0
  8  5  1  6  0  0  0
  8  6  1  0  0  0  0
  9  2  1  0  0  0  0
 10  7  1  0  0  0  0
 10  8  1  0  0  0  0
 12 10  1  0  0  0  0
 12  9  1  0  0  0  0
 12  8  1  0  0  0  0
 13 15  1  0  0  0  0
 14 17  1  0  0  0  0
 15 22  1  0  0  0  0
 16 19  1  0  0  0  0
 17  4  1  0  0  0  0
 18  3  1  0  0  0  0
 19 13  2  0  0  0  0
 20 23  1  0  0  0  0
 21 23  1  0  0  0  0
 22 24  1  0  0  0  0
 22 25  1  0  0  0  0
 23 29  1  0  0  0  0
 24 21  1  0  0  0  0
 25 20  1  0  0  0  0
 26 25  1  0  0  0  0
 29 27  1  0  0  0  0
 29 28  1  0  0  0  0
 30 32  1  0  0  0  0
 31 32  1  0  0  0  0
M  END
>  <MODEL>
5

>  <REMARK>
 VINA RESULT:      -5.2      1.139      1.390
  Name = 
  4 active torsions:
  status: ('A' for Active; 'I' for Inactive)
    1  A    between atoms: C_11  and  C_12
    2  A    between atoms: C_11  and  C_31
    3  A    between atoms: C_16  and  C_27
    4  A    between atoms: C_19  and  N_26
                            x       y       z     vdW  Elec       q    Type
                         _______ _______ _______ _____ _____    ______ ____

>  <TORSDO>
F 4

$$$$
=
 OpenBabel10262421063D

 32 37  0  0  1  0  0  0  0  0999 V2000
  185.3130  177.8390  138.1630 C   0  0  0  0  0  0  0  0  0  0  0  0
  184.8480  178.9870  139.0730 C   0  0  1  0  0  3  0  0  0  0  0  0
  186.7340  177.3630  138.3970 C   0  0  0  0  0  2  0  0  0  0  0  0
  181.9310  178.2520  136.2680 C   0  0  0  0  0  2  0  0  0  0  0  0
  180.5300  180.5060  137.5410 C   0  0  0  0  0  3  0  0  0  0  0  0
  181.5040  178.1440  137.7250 C   0  0  2  0  0  3  0  0  0  0  0  0
  181.6680  178.3420  140.6670 C   0  0  2  0  0  3  0  0  0  0  0  0
  181.3350  179.5420  138.3530 C   0  0  2  0  0  0  0  0  0  0  0  0
  183.7370  179.7480  138.3590 C   0  0  0  0  0  2  0  0  0  0  0  0
  181.2860  179.6070  139.8630 C   0  0  2  0  0  3  0  0  0  0  0  0
  184.4560  178.5020  140.3200 O   0  0  0  0  0  1  0  0  0  0  0  0
  182.4810  180.2600  139.0930 C   0  0  2  0  0  3  0  0  0  0  0  0
  183.2630  176.5370  138.4980 N   0  0  0  0  0  0  0  0  0  0  0  0
  180.3650  180.2960  136.2230 C   0  0  0  0  0  3  0  0  0  0  0  0
  184.2770  176.8760  137.5100 C   0  0  2  0  0  3  0  0  0  0  0  0
  181.5590  177.1370  139.9130 O   0  0  0  0  0  0  0  0  0  0  0  0
  180.8670  179.0540  135.5000 C   0  0  0  0  0  2  0  0  0  0  0  0
  186.4150  178.2680  137.2160 C   0  0  0  0  0  2  0  0  0  0  0  0
  182.1280  177.1480  138.6590 C   0  0  0  0  0  0  0  0  0  0  0  0
  185.1420  174.2930  134.7470 C   0  0  0  0  0  2  0  0  0  0  0  0
  185.0650  173.1060  136.9730 C   0  0  0  0  0  2  0  0  0  0  0  0
  184.8760  175.6100  136.8740 C   0  0  1  0  0  3  0  0  0  0  0  0
  184.6960  173.0280  135.4800 C   0  0  2  0  0  3  0  0  0  0  0  0
  184.4250  174.3360  137.6020 C   0  0  0  0  0  2  0  0  0  0  0  0
  184.5190  175.5320  135.3850 C   0  0  1  0  0  3  0  0  0  0  0  0
  184.9850  176.6550  134.7270 F   0  0  0  0  0  0  0  0  0  0  0  0
  186.5730  171.5200  135.2330 C   0  0  0  0  0  1  0  0  0  0  0  0
  184.3710  170.6950  135.1580 C   0  0  0  0  0  1  0  0  0  0  0  0
  185.2130  171.8290  134.8050 N   0  0  0  0  0  0  0  0  0  0  0  0
  180.8110  178.2530  141.9150 C   0  0  0  0  0  2  0  0  0  0  0  0
  182.4630  179.0030  143.5970 C   0  0  0  0  0  1  0  0  0  0  0  0
  181.1780  179.3620  142.8820 C   0  0  0  0  0  2  0  0  0  0  0  0
  1  3  1  0  0  0  0
  1  2  1  0  0  0  0
  2 11  1  1  0  0  0
  6  4  1  6  0  0  0
  6  8  1  0  0  0  0
  6 19  1  0  0  0  0
  7 30  1  1  0  0  0
  8  5  1  6  0  0  0
  8 12  1  0  0  0  0
  8 10  1  0  0  0  0
  9  2  1  0  0  0  0
  9 12  1  0  0  0  0
 10  7  1  0  0  0  0
 12 10  1  0  0  0  0
 13 19  2  0  0  0  0
 14  5  2  0  0  0  0
 15  1  1  0  0  0  0
 15 13  1  0  0  0  0
 16  7  1  0  0  0  0
 17 14  1  0  0  0  0
 17  4  1  0  0  0  0
 18  1  1  0  0  0  0
 18  3  1  0  0  0  0
 19 16  1  0  0  0  0
 20 25  1  0  0  0  0
 20 23  1  0  0  0  0
 21 24  1  0  0  0  0
 22 15  1  0  0  0  0
 22 24  1  0  0  0  0
 23 21  1  0  0  0  0
 25 22  1  0  0  0  0
 26 25  1  0  0  0  0
 29 28  1  0  0  0  0
 29 27  1  0  0  0  0
 29 23  1  0  0  0  0
 30 32  1  0  0  0  0
 32 31  1  0  0  0  0
M  END
>  <MODEL>
6

>  <REMARK>
 VINA RESULT:      -5.2      5.674      9.778
  Name = 
  4 active torsions:
  status: ('A' for Active; 'I' for Inactive)
    1  A    between atoms: C_11  and  C_12
    2  A    between atoms: C_11  and  C_31
    3  A    between atoms: C_16  and  C_27
    4  A    between atoms: C_19  and  N_26
                            x       y       z     vdW  Elec       q    Type
                         _______ _______ _______ _____ _____    ______ ____

>  <TORSDO>
F 4

$$$$
=
 OpenBabel10262421063D

 32 37  0  0  1  0  0  0  0  0999 V2000
  182.3530  177.3620  136.3840 C   0  0  0  0  0  0  0  0  0  0  0  0
  181.7480  178.4750  137.2540 C   0  0  1  0  0  3  0  0  0  0  0  0
  182.9730  177.8240  135.0800 C   0  0  0  0  0  2  0  0  0  0  0  0
  180.8730  174.8380  138.9620 C   0  0  0  0  0  2  0  0  0  0  0  0
  179.4100  176.4370  140.9520 C   0  0  0  0  0  3  0  0  0  0  0  0
  181.6330  175.8250  139.8370 C   0  0  2  0  0  3  0  0  0  0  0  0
  182.8670  178.3690  140.6900 C   0  0  2  0  0  3  0  0  0  0  0  0
  180.6930  176.9280  140.3620 C   0  0  2  0  0  0  0  0  0  0  0  0
  180.6690  177.8630  138.1400 C   0  0  0  0  0  2  0  0  0  0  0  0
  181.3500  178.1710  140.9200 C   0  0  2  0  0  3  0  0  0  0  0  0
  182.7410  179.1290  137.9830 O   0  0  0  0  0  1  0  0  0  0  0  0
  180.4880  178.2630  139.6190 C   0  0  2  0  0  3  0  0  0  0  0  0
  183.5240  176.3160  138.2680 N   0  0  0  0  0  0  0  0  0  0  0  0
  178.9580  175.2090  140.6420 C   0  0  0  0  0  3  0  0  0  0  0  0
  182.8210  176.0230  137.0270 C   0  0  2  0  0  3  0  0  0  0  0  0
  183.5600  177.1550  140.4040 O   0  0  0  0  0  0  0  0  0  0  0  0
  179.7370  174.2160  139.7900 C   0  0  0  0  0  2  0  0  0  0  0  0
  181.5970  177.1740  135.0860 C   0  0  0  0  0  2  0  0  0  0  0  0
  182.9910  176.3380  139.4530 C   0  0  0  0  0  0  0  0  0  0  0  0
  183.9350  172.8110  135.1570 C   0  0  0  0  0  2  0  0  0  0  0  0
  185.9650  174.2510  135.5750 C   0  0  0  0  0  2  0  0  0  0  0  0
  183.6690  175.1230  136.1110 C   0  0  1  0  0  3  0  0  0  0  0  0
  185.4080  172.8160  135.5660 C   0  0  2  0  0  3  0  0  0  0  0  0
  185.1480  175.1190  136.5230 C   0  0  0  0  0  2  0  0  0  0  0  0
  183.1140  173.6940  136.0920 C   0  0  1  0  0  3  0  0  0  0  0  0
  181.8000  173.7020  135.6590 F   0  0  0  0  0  0  0  0  0  0  0  0
  187.5930  171.8820  135.1030 C   0  0  0  0  0  1  0  0  0  0  0  0
  185.6680  170.5400  134.9310 C   0  0  0  0  0  1  0  0  0  0  0  0
  186.1810  171.8860  134.7300 N   0  0  0  0  0  0  0  0  0  0  0  0
  183.4830  179.0460  141.8990 C   0  0  0  0  0  2  0  0  0  0  0  0
  183.3260  179.0610  144.3680 C   0  0  0  0  0  1  0  0  0  0  0  0
  182.5350  178.9700  143.0800 C   0  0  0  0  0  2  0  0  0  0  0  0
  1 15  1  0  0  0  0
  1  2  1  0  0  0  0
  2 11  1  1  0  0  0
  2  9  1  0  0  0  0
  3 18  1  0  0  0  0
  3  1  1  0  0  0  0
  4 17  1  0  0  0  0
  6  4  1  6  0  0  0
  6  8  1  0  0  0  0
  7 10  1  0  0  0  0
  7 30  1  1  0  0  0
  8 10  1  0  0  0  0
  8  5  1  1  0  0  0
  9 12  1  0  0  0  0
 12  8  1  0  0  0  0
 12 10  1  0  0  0  0
 13 19  2  0  0  0  0
 14  5  2  0  0  0  0
 15 13  1  0  0  0  0
 16  7  1  0  0  0  0
 17 14  1  0  0  0  0
 18  1  1  0  0  0  0
 19  6  1  0  0  0  0
 19 16  1  0  0  0  0
 20 23  1  0  0  0  0
 20 25  1  0  0  0  0
 21 24  1  0  0  0  0
 22 24  1  0  0  0  0
 22 15  1  0  0  0  0
 23 21  1  0  0  0  0
 25 22  1  0  0  0  0
 26 25  1  0  0  0  0
 29 28  1  0  0  0  0
 29 27  1  0  0  0  0
 29 23  1  0  0  0  0
 30 32  1  0  0  0  0
 32 31  1  0  0  0  0
M  END
>  <MODEL>
7

>  <REMARK>
 VINA RESULT:      -5.2      6.299     10.378
  Name = 
  4 active torsions:
  status: ('A' for Active; 'I' for Inactive)
    1  A    between atoms: C_11  and  C_12
    2  A    between atoms: C_11  and  C_31
    3  A    between atoms: C_16  and  C_27
    4  A    between atoms: C_19  and  N_26
                            x       y       z     vdW  Elec       q    Type
                         _______ _______ _______ _____ _____    ______ ____

>  <TORSDO>
F 4

$$$$
=
 OpenBabel10262421063D

 32 37  0  0  1  0  0  0  0  0999 V2000
  182.4900  179.0030  143.1350 C   0  0  0  0  0  0  0  0  0  0  0  0
  180.9720  178.7710  143.0780 C   0  0  1  0  0  3  0  0  0  0  0  0
  183.1290  178.7770  144.4910 C   0  0  0  0  0  2  0  0  0  0  0  0
  182.2190  180.2830  139.4620 C   0  0  0  0  0  2  0  0  0  0  0  0
  179.3660  180.1830  138.7510 C   0  0  0  0  0  3  0  0  0  0  0  0
  181.5030  178.9400  139.4170 C   0  0  2  0  0  3  0  0  0  0  0  0
  179.9620  176.6060  140.3650 C   0  0  2  0  0  3  0  0  0  0  0  0
  179.9840  179.1220  139.6040 C   0  0  2  0  0  0  0  0  0  0  0  0
  180.4010  179.5970  141.9310 C   0  0  0  0  0  2  0  0  0  0  0  0
  179.1900  177.8840  139.9580 C   0  0  2  0  0  3  0  0  0  0  0  0
  180.6830  177.4120  142.9630 O   0  0  0  0  0  1  0  0  0  0  0  0
  179.3070  179.0560  140.9870 C   0  0  2  0  0  3  0  0  0  0  0  0
  182.9180  177.7220  141.0890 N   0  0  0  0  0  0  0  0  0  0  0  0
  180.1360  181.1500  138.2230 C   0  0  0  0  0  3  0  0  0  0  0  0
  183.3580  178.8840  141.8470 C   0  0  2  0  0  3  0  0  0  0  0  0
  181.3110  176.5890  139.9050 O   0  0  0  0  0  0  0  0  0  0  0  0
  181.6520  181.1820  138.3510 C   0  0  0  0  0  2  0  0  0  0  0  0
  182.8560  180.1910  144.0000 C   0  0  0  0  0  2  0  0  0  0  0  0
  182.0460  177.7320  140.1250 C   0  0  0  0  0  0  0  0  0  0  0  0
  187.1360  178.6220  141.0030 C   0  0  0  0  0  2  0  0  0  0  0  0
  186.7700  177.7840  143.3550 C   0  0  0  0  0  2  0  0  0  0  0  0
  184.8780  178.8450  142.0870 C   0  0  1  0  0  3  0  0  0  0  0  0
  187.5180  177.5560  142.0300 C   0  0  2  0  0  3  0  0  0  0  0  0
  185.2670  177.7700  143.1120 C   0  0  0  0  0  2  0  0  0  0  0  0
  185.6280  178.6260  140.7690 C   0  0  1  0  0  3  0  0  0  0  0  0
  185.3180  179.6360  139.8750 F   0  0  0  0  0  0  0  0  0  0  0  0
  189.3680  176.4020  143.0820 C   0  0  0  0  0  1  0  0  0  0  0  0
  189.5690  177.2020  140.8790 C   0  0  0  0  0  1  0  0  0  0  0  0
  188.9790  177.4820  142.1800 N   0  0  0  0  0  0  0  0  0  0  0  0
  179.2240  175.3820  139.8570 C   0  0  0  0  0  2  0  0  0  0  0  0
  179.3040  173.7570  141.7200 C   0  0  0  0  0  1  0  0  0  0  0  0
  179.8890  174.1200  140.3710 C   0  0  0  0  0  2  0  0  0  0  0  0
  1 18  1  0  0  0  0
  1  3  1  0  0  0  0
  2 11  1  6  0  0  0
  2  1  1  0  0  0  0
  6  4  1  1  0  0  0
  6  8  1  0  0  0  0
  6 19  1  0  0  0  0
  7 30  1  6  0  0  0
  8  5  1  6  0  0  0
  8 10  1  0  0  0  0
  8 12  1  0  0  0  0
  9  2  1  0  0  0  0
 10  7  1  0  0  0  0
 10 12  1  0  0  0  0
 12  9  1  0  0  0  0
 13 15  1  0  0  0  0
 14 17  1  0  0  0  0
 14  5  2  0  0  0  0
 15 22  1  0  0  0  0
 15  1  1  0  0  0  0
 16 19  1  0  0  0  0
 16  7  1  0  0  0  0
 17  4  1  0  0  0  0
 18  3  1  0  0  0  0
 19 13  2  0  0  0  0
 20 23  1  0  0  0  0
 22 24  1  0  0  0  0
 23 29  1  0  0  0  0
 23 21  1  0  0  0  0
 24 21  1  0  0  0  0
 25 20  1  0  0  0  0
 25 22  1  0  0  0  0
 26 25  1  0  0  0  0
 28 29  1  0  0  0  0
 29 27  1  0  0  0  0
 30 32  1  0  0  0  0
 32 31  1  0  0  0  0
M  END
>  <MODEL>
8

>  <REMARK>
 VINA RESULT:      -5.1      6.704      9.453
  Name = 
  4 active torsions:
  status: ('A' for Active; 'I' for Inactive)
    1  A    between atoms: C_11  and  C_12
    2  A    between atoms: C_11  and  C_31
    3  A    between atoms: C_16  and  C_27
    4  A    between atoms: C_19  and  N_26
                            x       y       z     vdW  Elec       q    Type
                         _______ _______ _______ _____ _____    ______ ____

>  <TORSDO>
F 4

$$$$
=
 OpenBabel10262421063D

 32 37  0  0  1  0  0  0  0  0999 V2000
  180.7800  177.7650  139.4250 C   0  0  0  0  0  0  0  0  0  0  0  0
  181.2560  176.3180  139.6350 C   0  0  1  0  0  3  0  0  0  0  0  0
  180.6940  178.6070  140.6830 C   0  0  0  0  0  2  0  0  0  0  0  0
  180.1270  176.7850  135.7080 C   0  0  0  0  0  2  0  0  0  0  0  0
  180.7860  173.9270  135.4690 C   0  0  0  0  0  3  0  0  0  0  0  0
  181.5570  176.3220  135.9450 C   0  0  2  0  0  3  0  0  0  0  0  0
  183.9370  175.3620  137.4070 C   0  0  2  0  0  3  0  0  0  0  0  0
  181.5940  174.8330  136.3420 C   0  0  2  0  0  0  0  0  0  0  0  0
  180.7140  175.4620  138.4960 C   0  0  0  0  0  2  0  0  0  0  0  0
  182.8740  174.3280  136.9680 C   0  0  2  0  0  3  0  0  0  0  0  0
  182.6450  176.2650  139.7390 O   0  0  0  0  0  1  0  0  0  0  0  0
  181.5570  174.3670  137.8110 C   0  0  2  0  0  3  0  0  0  0  0  0
  182.2700  178.1400  137.5150 N   0  0  0  0  0  0  0  0  0  0  0  0
  179.7980  174.4350  134.7090 C   0  0  0  0  0  3  0  0  0  0  0  0
  180.9520  178.4610  138.0430 C   0  0  2  0  0  3  0  0  0  0  0  0
  183.8090  176.6210  136.7480 O   0  0  0  0  0  0  0  0  0  0  0  0
  179.5070  175.9240  134.5940 C   0  0  0  0  0  2  0  0  0  0  0  0
  179.4320  178.0230  140.0650 C   0  0  0  0  0  2  0  0  0  0  0  0
  182.5430  177.1610  136.7060 C   0  0  0  0  0  0  0  0  0  0  0  0
  179.8500  181.9410  136.7240 C   0  0  0  0  0  2  0  0  0  0  0  0
  181.7170  182.2590  138.3930 C   0  0  0  0  0  2  0  0  0  0  0  0
  180.7120  179.9820  138.0460 C   0  0  1  0  0  3  0  0  0  0  0  0
  181.1300  182.7130  137.0450 C   0  0  2  0  0  3  0  0  0  0  0  0
  181.9960  180.7610  138.3600 C   0  0  0  0  0  2  0  0  0  0  0  0
  180.1200  180.4380  136.7080 C   0  0  1  0  0  3  0  0  0  0  0  0
  178.9310  179.7750  136.4650 F   0  0  0  0  0  0  0  0  0  0  0  0
  180.7050  184.5910  135.5780 C   0  0  0  0  0  1  0  0  0  0  0  0
  179.6790  184.4820  137.6920 C   0  0  0  0  0  1  0  0  0  0  0  0
  180.8950  184.1620  136.9600 N   0  0  0  0  0  0  0  0  0  0  0  0
  185.3250  174.7960  137.1790 C   0  0  0  0  0  2  0  0  0  0  0  0
  186.6860  172.7300  137.2360 C   0  0  0  0  0  1  0  0  0  0  0  0
  185.2760  173.2800  137.1700 C   0  0  0  0  0  2  0  0  0  0  0  0
  1  2  1  0  0  0  0
  1 18  1  0  0  0  0
  1  3  1  0  0  0  0
  2 11  1  6  0  0  0
  6  4  1  1  0  0  0
  6  8  1  0  0  0  0
  6 19  1  0  0  0  0
  7 30  1  6  0  0  0
  8  5  1  6  0  0  0
  8 10  1  0  0  0  0
  8 12  1  0  0  0  0
  9  2  1  0  0  0  0
 10  7  1  0  0  0  0
 10 12  1  0  0  0  0
 12  9  1  0  0  0  0
 13 15  1  0  0  0  0
 14  5  2  0  0  0  0
 15 22  1  0  0  0  0
 15  1  1  0  0  0  0
 16  7  1  0  0  0  0
 17 14  1  0  0  0  0
 17  4  1  0  0  0  0
 18  3  1  0  0  0  0
 19 16  1  0  0  0  0
 19 13  2  0  0  0  0
 20 23  1  0  0  0  0
 22 24  1  0  0  0  0
 23 21  1  0  0  0  0
 24 21  1  0  0  0  0
 25 20  1  0  0  0  0
 25 22  1  0  0  0  0
 26 25  1  0  0  0  0
 27 29  1  0  0  0  0
 29 23  1  0  0  0  0
 29 28  1  0  0  0  0
 32 30  1  0  0  0  0
 32 31  1  0  0  0  0
M  END
>  <MODEL>
9

>  <REMARK>
 VINA RESULT:      -4.9      7.451     10.309
  Name = 
  4 active torsions:
  status: ('A' for Active; 'I' for Inactive)
    1  A    between atoms: C_11  and  C_12
    2  A    between atoms: C_11  and  C_31
    3  A    between atoms: C_16  and  C_27
    4  A    between atoms: C_19  and  N_26
                            x       y       z     vdW  Elec       q    Type
                         _______ _______ _______ _____ _____    ______ ____

>  <TORSDO>
F 4

$$$$
