=
 OpenBabel10262419283D

 31 34  0  0  0  0  0  0  0  0999 V2000
  190.6410  177.4990  141.1150 C   0  0  0  0  0  0  0  0  0  0  0  0
  188.7390  177.3940  144.3420 C   0  0  0  0  0  0  0  0  0  0  0  0
  189.7440  177.0250  145.3950 C   0  0  0  0  0  0  0  0  0  0  0  0
  191.9750  176.1660  146.1090 N   0  0  0  0  0  0  0  0  0  0  0  0
  189.0580  177.5270  142.9670 C   0  0  0  0  0  0  0  0  0  0  0  0
  189.6200  177.8270  140.2230 C   0  0  0  0  0  3  0  0  0  0  0  0
  190.9650  176.2000  145.0480 C   0  0  0  0  0  2  0  0  0  0  0  0
  186.4310  177.9840  143.8010 C   0  0  0  0  0  0  0  0  0  0  0  0
  191.9050  177.3200  140.6620 F   0  0  0  0  0  0  0  0  0  0  0  0
  188.2030  177.9690  147.0920 C   0  0  0  0  0  2  0  0  0  0  0  0
  191.7120  176.4540  147.3460 C   0  0  0  0  0  0  0  0  0  0  0  0
  186.7670  178.0880  142.4910 N   0  0  0  0  0  0  0  0  0  0  0  0
  187.4110  177.6590  144.7550 C   0  0  0  0  0  0  0  0  0  0  0  0
  190.3620  177.3530  142.4760 C   0  0  0  0  0  3  0  0  0  0  0  0
  192.7290  176.3410  148.3320 N   0  0  0  0  0  1  0  0  0  0  0  0
  188.0330  177.8750  142.0530 C   0  0  0  0  0  0  0  0  0  0  0  0
  188.3180  178.0170  140.6910 C   0  0  0  0  0  3  0  0  0  0  0  0
  187.0440  177.5220  146.2090 C   0  0  0  0  0  2  0  0  0  0  0  0
  189.4650  177.2660  146.6930 C   0  0  0  0  0  0  0  0  0  0  0  0
  190.4250  176.9520  147.7040 N   0  0  0  0  0  2  0  0  0  0  0  0
  185.0210  178.2600  144.2060 C   0  0  0  0  0  2  0  0  0  0  0  0
  184.4080  179.2980  143.2810 C   0  0  0  0  0  2  0  0  0  0  0  0
  183.1430  178.7500  142.6420 C   0  0  0  0  0  2  0  0  0  0  0  0
  183.4570  178.0050  141.3480 C   0  0  0  0  0  2  0  0  0  0  0  0
  183.0590  178.8050  140.1120 C   0  0  0  0  0  2  0  0  0  0  0  0
  186.0680  178.0200  137.8000 C   0  0  0  0  0  0  0  0  0  0  0  0
  184.6300  180.2280  139.0320 O   0  0  0  0  0  0  0  0  0  0  0  0
  186.5750  179.1350  137.5030 O   0  0  0  0  0  0  0  0  0  0  0  0
  186.6760  176.7750  137.2640 C   0  0  0  0  0  1  0  0  0  0  0  0
  184.2370  179.0480  139.2310 C   0  0  0  0  0  0  0  0  0  0  0  0
  184.9170  177.9330  138.6470 N   0  0  0  0  0  2  0  0  0  0  0  0
  1 14  1  0  0  0  0
  2 13  2  0  0  0  0
  2  3  1  0  0  0  0
  3 19  2  0  0  0  0
  4 11  2  0  0  0  0
  5  2  1  0  0  0  0
  6 17  1  0  0  0  0
  6  1  2  0  0  0  0
  7  3  1  0  0  0  0
  7  4  1  0  0  0  0
  8 21  1  0  0  0  0
  8 13  1  0  0  0  0
  9  1  1  0  0  0  0
 11 20  1  0  0  0  0
 11 15  1  0  0  0  0
 12  8  2  0  0  0  0
 13 18  1  0  0  0  0
 14  5  2  0  0  0  0
 16 12  1  0  0  0  0
 16  5  1  0  0  0  0
 17 16  2  0  0  0  0
 18 10  1  0  0  0  0
 19 10  1  0  0  0  0
 19 20  1  0  0  0  0
 22 21  1  0  0  0  0
 23 22  1  0  0  0  0
 24 23  1  0  0  0  0
 25 24  1  0  0  0  0
 26 31  1  0  0  0  0
 27 30  2  0  0  0  0
 28 26  2  0  0  0  0
 29 26  1  0  0  0  0
 30 25  1  0  0  0  0
 31 30  1  0  0  0  0
M  END
>  <MODEL>
1

>  <REMARK>
 VINA RESULT:      -9.9      0.000      0.000
  Name = 
  6 active torsions:
  status: ('A' for Active; 'I' for Inactive)
    1  A    between atoms: C_3  and  C_19
    2  A    between atoms: C_3  and  C_22
    3  A    between atoms: C_7  and  C_9
    4  A    between atoms: C_7  and  C_22
    5  A    between atoms: C_9  and  C_23
    6  A    between atoms: C_15  and  C_23
                            x       y       z     vdW  Elec       q    Type
                         _______ _______ _______ _____ _____    ______ ____

>  <TORSDO>
F 6

$$$$
=
 OpenBabel10262419283D

 31 34  0  0  0  0  0  0  0  0999 V2000
  185.5590  178.0180  145.4330 C   0  0  0  0  0  0  0  0  0  0  0  0
  188.9170  177.6690  143.8070 C   0  0  0  0  0  0  0  0  0  0  0  0
  189.8610  177.2720  144.9050 C   0  0  0  0  0  0  0  0  0  0  0  0
  190.4470  176.9840  147.3140 N   0  0  0  0  0  0  0  0  0  0  0  0
  187.5360  177.9150  144.0120 C   0  0  0  0  0  0  0  0  0  0  0  0
  184.7810  178.4010  144.3400 C   0  0  0  0  0  3  0  0  0  0  0  0
  189.5990  177.6780  146.3400 C   0  0  0  0  0  2  0  0  0  0  0  0
  188.5900  178.1590  141.4370 C   0  0  0  0  0  0  0  0  0  0  0  0
  184.9910  177.8820  146.6550 F   0  0  0  0  0  0  0  0  0  0  0  0
  191.4050  176.4120  143.1650 C   0  0  0  0  0  2  0  0  0  0  0  0
  191.5600  176.4000  146.9930 C   0  0  0  0  0  0  0  0  0  0  0  0
  187.2760  178.4020  141.6710 N   0  0  0  0  0  0  0  0  0  0  0  0
  189.4310  177.7670  142.4920 C   0  0  0  0  0  0  0  0  0  0  0  0
  186.9250  177.7740  145.2690 C   0  0  0  0  0  3  0  0  0  0  0  0
  192.3620  175.7990  148.0020 N   0  0  0  0  0  1  0  0  0  0  0  0
  186.7320  178.2900  142.9080 C   0  0  0  0  0  0  0  0  0  0  0  0
  185.3650  178.5350  143.0800 C   0  0  0  0  0  3  0  0  0  0  0  0
  190.8950  177.5150  142.2450 C   0  0  0  0  0  2  0  0  0  0  0  0
  191.0490  176.7140  144.5900 C   0  0  0  0  0  0  0  0  0  0  0  0
  191.9450  176.3000  145.6230 N   0  0  0  0  0  2  0  0  0  0  0  0
  189.1050  178.2790  140.0410 C   0  0  0  0  0  2  0  0  0  0  0  0
  188.4230  177.2580  139.1450 C   0  0  0  0  0  2  0  0  0  0  0  0
  189.3780  176.7920  138.0590 C   0  0  0  0  0  2  0  0  0  0  0  0
  190.7290  176.3930  138.6450 C   0  0  0  0  0  2  0  0  0  0  0  0
  191.8010  176.2450  137.5720 C   0  0  0  0  0  2  0  0  0  0  0  0
  195.0600  174.3190  138.4030 C   0  0  0  0  0  0  0  0  0  0  0  0
  193.6430  176.7950  138.9740 O   0  0  0  0  0  0  0  0  0  0  0  0
  195.6990  175.0520  139.2040 O   0  0  0  0  0  0  0  0  0  0  0  0
  195.6280  173.0070  138.0000 C   0  0  0  0  0  1  0  0  0  0  0  0
  193.1320  175.9600  138.1810 C   0  0  0  0  0  0  0  0  0  0  0  0
  193.7930  174.7280  137.8760 N   0  0  0  0  0  2  0  0  0  0  0  0
  1  9  1  0  0  0  0
  2  5  1  0  0  0  0
  2  3  1  0  0  0  0
  3  7  1  0  0  0  0
  5 14  2  0  0  0  0
  6  1  2  0  0  0  0
  7  4  1  0  0  0  0
  8 12  2  0  0  0  0
  8 13  1  0  0  0  0
 10 19  1  0  0  0  0
 11  4  2  0  0  0  0
 11 15  1  0  0  0  0
 12 16  1  0  0  0  0
 13  2  2  0  0  0  0
 14  1  1  0  0  0  0
 16 17  2  0  0  0  0
 16  5  1  0  0  0  0
 17  6  1  0  0  0  0
 18 13  1  0  0  0  0
 18 10  1  0  0  0  0
 19  3  2  0  0  0  0
 19 20  1  0  0  0  0
 20 11  1  0  0  0  0
 21  8  1  0  0  0  0
 22 21  1  0  0  0  0
 23 24  1  0  0  0  0
 23 22  1  0  0  0  0
 25 30  1  0  0  0  0
 25 24  1  0  0  0  0
 26 28  2  0  0  0  0
 29 26  1  0  0  0  0
 30 27  2  0  0  0  0
 31 30  1  0  0  0  0
 31 26  1  0  0  0  0
M  END
>  <MODEL>
2

>  <REMARK>
 VINA RESULT:      -9.5      3.889      6.137
  Name = 
  6 active torsions:
  status: ('A' for Active; 'I' for Inactive)
    1  A    between atoms: C_3  and  C_19
    2  A    between atoms: C_3  and  C_22
    3  A    between atoms: C_7  and  C_9
    4  A    between atoms: C_7  and  C_22
    5  A    between atoms: C_9  and  C_23
    6  A    between atoms: C_15  and  C_23
                            x       y       z     vdW  Elec       q    Type
                         _______ _______ _______ _____ _____    ______ ____

>  <TORSDO>
F 6

$$$$
=
 OpenBabel10262419283D

 31 34  0  0  0  0  0  0  0  0999 V2000
  188.2490  177.9720  148.1020 C   0  0  0  0  0  0  0  0  0  0  0  0
  187.6610  177.6210  144.4170 C   0  0  0  0  0  0  0  0  0  0  0  0
  186.2540  178.0900  144.1840 C   0  0  0  0  0  0  0  0  0  0  0  0
  183.9800  178.7290  144.9890 N   0  0  0  0  0  0  0  0  0  0  0  0
  188.2720  177.5830  145.6960 C   0  0  0  0  0  0  0  0  0  0  0  0
  189.5570  177.4970  148.2010 C   0  0  0  0  0  3  0  0  0  0  0  0
  185.2070  177.9800  145.2720 C   0  0  0  0  0  2  0  0  0  0  0  0
  189.7390  176.7610  143.4660 C   0  0  0  0  0  0  0  0  0  0  0  0
  187.5940  178.3900  149.2110 F   0  0  0  0  0  0  0  0  0  0  0  0
  186.8440  178.4370  141.8010 C   0  0  0  0  0  2  0  0  0  0  0  0
  183.6430  179.1090  143.7950 C   0  0  0  0  0  0  0  0  0  0  0  0
  190.2890  176.7230  144.7060 N   0  0  0  0  0  0  0  0  0  0  0  0
  188.4260  177.2300  143.2930 C   0  0  0  0  0  0  0  0  0  0  0  0
  187.6140  178.0170  146.8580 C   0  0  0  0  0  3  0  0  0  0  0  0
  182.4060  179.7790  143.5860 N   0  0  0  0  0  1  0  0  0  0  0  0
  189.6050  177.1170  145.8080 C   0  0  0  0  0  0  0  0  0  0  0  0
  190.2350  177.0730  147.0570 C   0  0  0  0  0  3  0  0  0  0  0  0
  187.8010  177.2570  141.9230 C   0  0  0  0  0  2  0  0  0  0  0  0
  185.8670  178.4370  142.9380 C   0  0  0  0  0  0  0  0  0  0  0  0
  184.5420  178.9180  142.7050 N   0  0  0  0  0  2  0  0  0  0  0  0
  190.5680  176.3350  142.3000 C   0  0  0  0  0  2  0  0  0  0  0  0
  191.5160  177.4520  141.8980 C   0  0  0  0  0  2  0  0  0  0  0  0
  191.7410  177.4360  140.3960 C   0  0  0  0  0  2  0  0  0  0  0  0
  190.6470  176.6480  139.6820 C   0  0  0  0  0  2  0  0  0  0  0  0
  190.2750  177.2640  138.3380 C   0  0  0  0  0  2  0  0  0  0  0  0
  186.4680  177.7540  137.8040 C   0  0  0  0  0  0  0  0  0  0  0  0
  188.8180  179.0500  138.9280 O   0  0  0  0  0  0  0  0  0  0  0  0
  186.1920  178.8780  138.3020 O   0  0  0  0  0  0  0  0  0  0  0  0
  185.3900  176.9480  137.1770 C   0  0  0  0  0  1  0  0  0  0  0  0
  188.9340  177.9120  138.4000 C   0  0  0  0  0  0  0  0  0  0  0  0
  187.8040  177.2410  137.8320 N   0  0  0  0  0  2  0  0  0  0  0  0
  1  6  1  0  0  0  0
  1  9  1  0  0  0  0
  2  5  1  0  0  0  0
  3  2  1  0  0  0  0
  3  7  1  0  0  0  0
  4  7  1  0  0  0  0
  5 16  2  0  0  0  0
  5 14  1  0  0  0  0
  8 12  2  0  0  0  0
 10 18  1  0  0  0  0
 10 19  1  0  0  0  0
 11  4  2  0  0  0  0
 12 16  1  0  0  0  0
 13  8  1  0  0  0  0
 13  2  2  0  0  0  0
 14  1  2  0  0  0  0
 15 11  1  0  0  0  0
 16 17  1  0  0  0  0
 17  6  2  0  0  0  0
 18 13  1  0  0  0  0
 19  3  2  0  0  0  0
 20 19  1  0  0  0  0
 20 11  1  0  0  0  0
 21  8  1  0  0  0  0
 22 21  1  0  0  0  0
 23 22  1  0  0  0  0
 24 23  1  0  0  0  0
 25 30  1  0  0  0  0
 25 24  1  0  0  0  0
 26 31  1  0  0  0  0
 26 28  2  0  0  0  0
 29 26  1  0  0  0  0
 30 27  2  0  0  0  0
 31 30  1  0  0  0  0
M  END
>  <MODEL>
3

>  <REMARK>
 VINA RESULT:      -9.5      2.545      6.166
  Name = 
  6 active torsions:
  status: ('A' for Active; 'I' for Inactive)
    1  A    between atoms: C_3  and  C_19
    2  A    between atoms: C_3  and  C_22
    3  A    between atoms: C_7  and  C_9
    4  A    between atoms: C_7  and  C_22
    5  A    between atoms: C_9  and  C_23
    6  A    between atoms: C_15  and  C_23
                            x       y       z     vdW  Elec       q    Type
                         _______ _______ _______ _____ _____    ______ ____

>  <TORSDO>
F 6

$$$$
=
 OpenBabel10262419283D

 31 34  0  0  0  0  0  0  0  0999 V2000
  185.5220  178.0240  145.6520 C   0  0  0  0  0  0  0  0  0  0  0  0
  188.8410  177.6850  143.9430 C   0  0  0  0  0  0  0  0  0  0  0  0
  189.8100  177.2770  145.0150 C   0  0  0  0  0  0  0  0  0  0  0  0
  190.4520  176.9670  147.4070 N   0  0  0  0  0  0  0  0  0  0  0  0
  187.4650  177.9310  144.1840 C   0  0  0  0  0  0  0  0  0  0  0  0
  184.7200  178.4180  144.5810 C   0  0  0  0  0  3  0  0  0  0  0  0
  189.5820  177.6700  146.4600 C   0  0  0  0  0  2  0  0  0  0  0  0
  188.4580  178.1970  141.5860 C   0  0  0  0  0  0  0  0  0  0  0  0
  184.9830  177.8780  146.8850 F   0  0  0  0  0  0  0  0  0  0  0  0
  191.3110  176.4300  143.2330 C   0  0  0  0  0  2  0  0  0  0  0  0
  191.5560  176.3840  147.0550 C   0  0  0  0  0  0  0  0  0  0  0  0
  187.1510  178.4390  141.8530 N   0  0  0  0  0  0  0  0  0  0  0  0
  189.3240  177.7940  142.6170 C   0  0  0  0  0  0  0  0  0  0  0  0
  186.8840  177.7800  145.4530 C   0  0  0  0  0  3  0  0  0  0  0  0
  192.3800  175.7730  148.0390 N   0  0  0  0  0  1  0  0  0  0  0  0
  186.6370  178.3170  143.1020 C   0  0  0  0  0  0  0  0  0  0  0  0
  185.2740  178.5620  143.3080 C   0  0  0  0  0  3  0  0  0  0  0  0
  190.7810  177.5420  142.3340 C   0  0  0  0  0  2  0  0  0  0  0  0
  190.9890  176.7200  144.6680 C   0  0  0  0  0  0  0  0  0  0  0  0
  191.9080  176.2950  145.6760 N   0  0  0  0  0  2  0  0  0  0  0  0
  188.9410  178.3280  140.1790 C   0  0  0  0  0  2  0  0  0  0  0  0
  189.0120  176.9600  139.5240 C   0  0  0  0  0  2  0  0  0  0  0  0
  189.3860  177.0990  138.0580 C   0  0  0  0  0  2  0  0  0  0  0  0
  189.0370  178.4860  137.5280 C   0  0  0  0  0  2  0  0  0  0  0  0
  188.0230  178.4310  136.3910 C   0  0  0  0  0  2  0  0  0  0  0  0
  184.8340  178.4220  138.5950 C   0  0  0  0  0  0  0  0  0  0  0  0
  186.0820  177.0540  136.3510 O   0  0  0  0  0  0  0  0  0  0  0  0
  184.1150  177.4850  138.1560 O   0  0  0  0  0  0  0  0  0  0  0  0
  184.3590  179.2300  139.7470 C   0  0  0  0  0  1  0  0  0  0  0  0
  186.6800  178.0220  136.8930 C   0  0  0  0  0  0  0  0  0  0  0  0
  186.1030  178.7200  138.0020 N   0  0  0  0  0  2  0  0  0  0  0  0
  1  9  1  0  0  0  0
  2  5  1  0  0  0  0
  2  3  1  0  0  0  0
  3  7  1  0  0  0  0
  5 14  2  0  0  0  0
  6  1  2  0  0  0  0
  7  4  1  0  0  0  0
  8 12  2  0  0  0  0
  8 13  1  0  0  0  0
 10 19  1  0  0  0  0
 11  4  2  0  0  0  0
 11 15  1  0  0  0  0
 12 16  1  0  0  0  0
 13  2  2  0  0  0  0
 14  1  1  0  0  0  0
 16 17  2  0  0  0  0
 16  5  1  0  0  0  0
 17  6  1  0  0  0  0
 18 13  1  0  0  0  0
 18 10  1  0  0  0  0
 19  3  2  0  0  0  0
 19 20  1  0  0  0  0
 20 11  1  0  0  0  0
 21  8  1  0  0  0  0
 22 21  1  0  0  0  0
 23 22  1  0  0  0  0
 24 23  1  0  0  0  0
 25 30  1  0  0  0  0
 25 24  1  0  0  0  0
 26 29  1  0  0  0  0
 27 30  2  0  0  0  0
 28 26  2  0  0  0  0
 30 31  1  0  0  0  0
 31 26  1  0  0  0  0
M  END
>  <MODEL>
4

>  <REMARK>
 VINA RESULT:      -9.5      2.116      4.416
  Name = 
  6 active torsions:
  status: ('A' for Active; 'I' for Inactive)
    1  A    between atoms: C_3  and  C_19
    2  A    between atoms: C_3  and  C_22
    3  A    between atoms: C_7  and  C_9
    4  A    between atoms: C_7  and  C_22
    5  A    between atoms: C_9  and  C_23
    6  A    between atoms: C_15  and  C_23
                            x       y       z     vdW  Elec       q    Type
                         _______ _______ _______ _____ _____    ______ ____

>  <TORSDO>
F 6

$$$$
=
 OpenBabel10262419283D

 31 34  0  0  0  0  0  0  0  0999 V2000
  185.4720  178.2580  146.0510 C   0  0  0  0  0  0  0  0  0  0  0  0
  188.5970  177.5950  144.0910 C   0  0  0  0  0  0  0  0  0  0  0  0
  189.6460  177.2420  145.1050 C   0  0  0  0  0  0  0  0  0  0  0  0
  190.4980  177.1260  147.4480 N   0  0  0  0  0  0  0  0  0  0  0  0
  187.2620  177.9310  144.4290 C   0  0  0  0  0  0  0  0  0  0  0  0
  184.5880  178.5890  145.0230 C   0  0  0  0  0  3  0  0  0  0  0  0
  189.5720  177.7800  146.5190 C   0  0  0  0  0  2  0  0  0  0  0  0
  188.0140  177.9010  141.7390 C   0  0  0  0  0  0  0  0  0  0  0  0
  185.0470  178.2560  147.3360 F   0  0  0  0  0  0  0  0  0  0  0  0
  190.9350  176.1570  143.2860 C   0  0  0  0  0  2  0  0  0  0  0  0
  191.5390  176.4590  147.0570 C   0  0  0  0  0  0  0  0  0  0  0  0
  186.7480  178.2330  142.0990 N   0  0  0  0  0  0  0  0  0  0  0  0
  188.9560  177.5540  142.7220 C   0  0  0  0  0  0  0  0  0  0  0  0
  186.7970  177.9290  145.7540 C   0  0  0  0  0  3  0  0  0  0  0  0
  192.4270  175.9020  148.0180 N   0  0  0  0  0  1  0  0  0  0  0  0
  186.3500  178.2540  143.3940 C   0  0  0  0  0  0  0  0  0  0  0  0
  185.0250  178.5860  143.6980 C   0  0  0  0  0  3  0  0  0  0  0  0
  190.3680  177.2050  142.3350 C   0  0  0  0  0  2  0  0  0  0  0  0
  190.7630  176.5970  144.7090 C   0  0  0  0  0  0  0  0  0  0  0  0
  191.7550  176.2230  145.6670 N   0  0  0  0  0  2  0  0  0  0  0  0
  188.3650  177.8750  140.2880 C   0  0  0  0  0  2  0  0  0  0  0  0
  187.1550  178.2540  139.4520 C   0  0  0  0  0  2  0  0  0  0  0  0
  187.2250  177.5810  138.0920 C   0  0  0  0  0  2  0  0  0  0  0  0
  187.8560  178.5020  137.0520 C   0  0  0  0  0  2  0  0  0  0  0  0
  188.7140  177.7370  136.0500 C   0  0  0  0  0  2  0  0  0  0  0  0
  191.4530  176.1980  138.3200 C   0  0  0  0  0  0  0  0  0  0  0  0
  189.2970  175.4750  136.5050 O   0  0  0  0  0  0  0  0  0  0  0  0
  191.3380  174.9490  138.2000 O   0  0  0  0  0  0  0  0  0  0  0  0
  192.5090  176.7540  139.2050 C   0  0  0  0  0  1  0  0  0  0  0  0
  189.5300  176.6930  136.7330 C   0  0  0  0  0  0  0  0  0  0  0  0
  190.5830  177.0910  137.6160 N   0  0  0  0  0  2  0  0  0  0  0  0
  1  9  1  0  0  0  0
  2  5  1  0  0  0  0
  2  3  1  0  0  0  0
  3  7  1  0  0  0  0
  5 14  2  0  0  0  0
  6  1  2  0  0  0  0
  7  4  1  0  0  0  0
  8 12  2  0  0  0  0
  8 13  1  0  0  0  0
 10 19  1  0  0  0  0
 11  4  2  0  0  0  0
 11 15  1  0  0  0  0
 12 16  1  0  0  0  0
 13  2  2  0  0  0  0
 14  1  1  0  0  0  0
 16 17  2  0  0  0  0
 16  5  1  0  0  0  0
 17  6  1  0  0  0  0
 18 13  1  0  0  0  0
 18 10  1  0  0  0  0
 19  3  2  0  0  0  0
 19 20  1  0  0  0  0
 20 11  1  0  0  0  0
 21  8  1  0  0  0  0
 22 21  1  0  0  0  0
 23 22  1  0  0  0  0
 24 23  1  0  0  0  0
 25 30  1  0  0  0  0
 25 24  1  0  0  0  0
 26 29  1  0  0  0  0
 27 30  2  0  0  0  0
 28 26  2  0  0  0  0
 30 31  1  0  0  0  0
 31 26  1  0  0  0  0
M  END
>  <MODEL>
5

>  <REMARK>
 VINA RESULT:      -9.3      2.780      4.915
  Name = 
  6 active torsions:
  status: ('A' for Active; 'I' for Inactive)
    1  A    between atoms: C_3  and  C_19
    2  A    between atoms: C_3  and  C_22
    3  A    between atoms: C_7  and  C_9
    4  A    between atoms: C_7  and  C_22
    5  A    between atoms: C_9  and  C_23
    6  A    between atoms: C_15  and  C_23
                            x       y       z     vdW  Elec       q    Type
                         _______ _______ _______ _____ _____    ______ ____

>  <TORSDO>
F 6

$$$$
=
 OpenBabel10262419283D

 31 34  0  0  0  0  0  0  0  0999 V2000
  189.3620  177.8740  141.1320 C   0  0  0  0  0  0  0  0  0  0  0  0
  188.0690  177.6360  144.6410 C   0  0  0  0  0  0  0  0  0  0  0  0
  189.2390  177.2020  145.4770 C   0  0  0  0  0  0  0  0  0  0  0  0
  191.5430  176.2790  145.7360 N   0  0  0  0  0  0  0  0  0  0  0  0
  188.1380  177.8310  143.2390 C   0  0  0  0  0  0  0  0  0  0  0  0
  188.2040  178.2590  140.4560 C   0  0  0  0  0  3  0  0  0  0  0  0
  190.3590  176.3780  144.8770 C   0  0  0  0  0  2  0  0  0  0  0  0
  185.7160  178.2820  144.5550 C   0  0  0  0  0  0  0  0  0  0  0  0
  190.5190  177.7010  140.4500 F   0  0  0  0  0  0  0  0  0  0  0  0
  188.0490  178.0810  147.4670 C   0  0  0  0  0  2  0  0  0  0  0  0
  191.5130  176.5090  147.0120 C   0  0  0  0  0  0  0  0  0  0  0  0
  185.8130  178.4450  143.2110 N   0  0  0  0  0  0  0  0  0  0  0  0
  186.8430  177.8970  145.2990 C   0  0  0  0  0  0  0  0  0  0  0  0
  189.3290  177.6650  142.5130 C   0  0  0  0  0  3  0  0  0  0  0  0
  192.6880  176.3340  147.7920 N   0  0  0  0  0  1  0  0  0  0  0  0
  186.9740  178.2380  142.5430 C   0  0  0  0  0  0  0  0  0  0  0  0
  187.0130  178.4430  141.1590 C   0  0  0  0  0  3  0  0  0  0  0  0
  186.7410  177.6940  146.7880 C   0  0  0  0  0  2  0  0  0  0  0  0
  189.2030  177.3820  146.8140 C   0  0  0  0  0  0  0  0  0  0  0  0
  190.3220  177.0050  147.6200 N   0  0  0  0  0  2  0  0  0  0  0  0
  184.4070  178.5570  145.2190 C   0  0  0  0  0  2  0  0  0  0  0  0
  183.4970  179.3270  144.2790 C   0  0  0  0  0  2  0  0  0  0  0  0
  182.1540  178.6260  144.1570 C   0  0  0  0  0  2  0  0  0  0  0  0
  181.2150  179.3920  143.2310 C   0  0  0  0  0  2  0  0  0  0  0  0
  180.7900  178.5610  142.0250 C   0  0  0  0  0  2  0  0  0  0  0  0
  183.1590  179.2140  139.0290 C   0  0  0  0  0  0  0  0  0  0  0  0
  180.6310  180.0660  140.1890 O   0  0  0  0  0  0  0  0  0  0  0  0
  182.6080  180.1170  138.3440 O   0  0  0  0  0  0  0  0  0  0  0  0
  184.4650  178.6590  138.5900 C   0  0  0  0  0  1  0  0  0  0  0  0
  181.2970  179.1600  140.7580 C   0  0  0  0  0  0  0  0  0  0  0  0
  182.5470  178.7140  140.2220 N   0  0  0  0  0  2  0  0  0  0  0  0
  1 14  1  0  0  0  0
  2 13  2  0  0  0  0
  2  3  1  0  0  0  0
  3 19  2  0  0  0  0
  4 11  2  0  0  0  0
  5  2  1  0  0  0  0
  6  1  2  0  0  0  0
  6 17  1  0  0  0  0
  7  3  1  0  0  0  0
  7  4  1  0  0  0  0
  8 21  1  0  0  0  0
  8 13  1  0  0  0  0
  9  1  1  0  0  0  0
 11 20  1  0  0  0  0
 11 15  1  0  0  0  0
 12  8  2  0  0  0  0
 13 18  1  0  0  0  0
 14  5  2  0  0  0  0
 16 12  1  0  0  0  0
 16  5  1  0  0  0  0
 17 16  2  0  0  0  0
 18 10  1  0  0  0  0
 19 10  1  0  0  0  0
 19 20  1  0  0  0  0
 22 21  1  0  0  0  0
 23 22  1  0  0  0  0
 24 23  1  0  0  0  0
 25 24  1  0  0  0  0
 26 31  1  0  0  0  0
 27 30  2  0  0  0  0
 28 26  2  0  0  0  0
 29 26  1  0  0  0  0
 30 25  1  0  0  0  0
 31 30  1  0  0  0  0
M  END
>  <MODEL>
6

>  <REMARK>
 VINA RESULT:      -9.3      1.526      1.969
  Name = 
  6 active torsions:
  status: ('A' for Active; 'I' for Inactive)
    1  A    between atoms: C_3  and  C_19
    2  A    between atoms: C_3  and  C_22
    3  A    between atoms: C_7  and  C_9
    4  A    between atoms: C_7  and  C_22
    5  A    between atoms: C_9  and  C_23
    6  A    between atoms: C_15  and  C_23
                            x       y       z     vdW  Elec       q    Type
                         _______ _______ _______ _____ _____    ______ ____

>  <TORSDO>
F 6

$$$$
=
 OpenBabel10262419283D

 31 34  0  0  0  0  0  0  0  0999 V2000
  191.0900  176.6250  146.4580 C   0  0  0  0  0  0  0  0  0  0  0  0
  189.2410  177.6110  143.3510 C   0  0  0  0  0  0  0  0  0  0  0  0
  190.2530  177.5620  142.2420 C   0  0  0  0  0  0  0  0  0  0  0  0
  192.5990  177.4360  141.4020 N   0  0  0  0  0  0  0  0  0  0  0  0
  189.5460  177.3160  144.7030 C   0  0  0  0  0  0  0  0  0  0  0  0
  190.0720  176.7240  147.4060 C   0  0  0  0  0  3  0  0  0  0  0  0
  191.7230  177.7930  142.5210 C   0  0  0  0  0  2  0  0  0  0  0  0
  186.9290  178.0180  144.0240 C   0  0  0  0  0  0  0  0  0  0  0  0
  192.3340  176.2480  146.8360 F   0  0  0  0  0  0  0  0  0  0  0  0
  188.3730  177.3970  140.6330 C   0  0  0  0  0  2  0  0  0  0  0  0
  192.1760  177.3220  140.1810 C   0  0  0  0  0  0  0  0  0  0  0  0
  187.2580  177.7440  145.3110 N   0  0  0  0  0  0  0  0  0  0  0  0
  187.9040  177.9360  143.0160 C   0  0  0  0  0  0  0  0  0  0  0  0
  190.8270  176.9160  145.1170 C   0  0  0  0  0  3  0  0  0  0  0  0
  193.0960  177.0330  139.1360 N   0  0  0  0  0  1  0  0  0  0  0  0
  188.5170  177.3970  145.6740 C   0  0  0  0  0  0  0  0  0  0  0  0
  188.7870  177.1070  147.0160 C   0  0  0  0  0  3  0  0  0  0  0  0
  187.5530  178.2580  141.5870 C   0  0  0  0  0  2  0  0  0  0  0  0
  189.8330  177.4990  140.9610 C   0  0  0  0  0  0  0  0  0  0  0  0
  190.7820  177.4170  139.8960 N   0  0  0  0  0  2  0  0  0  0  0  0
  185.5130  178.3660  143.7020 C   0  0  0  0  0  2  0  0  0  0  0  0
  184.9300  179.2420  144.7980 C   0  0  0  0  0  2  0  0  0  0  0  0
  183.4530  178.9390  144.9830 C   0  0  0  0  0  2  0  0  0  0  0  0
  182.7620  178.7190  143.6410 C   0  0  0  0  0  2  0  0  0  0  0  0
  181.2490  178.8710  143.7400 C   0  0  0  0  0  2  0  0  0  0  0  0
  180.6840  180.0400  140.0880 C   0  0  0  0  0  0  0  0  0  0  0  0
  179.9540  180.6520  142.8370 O   0  0  0  0  0  0  0  0  0  0  0  0
  179.9130  181.0350  140.1600 O   0  0  0  0  0  0  0  0  0  0  0  0
  181.1670  179.5850  138.7600 C   0  0  0  0  0  1  0  0  0  0  0  0
  180.7160  179.6760  142.6030 C   0  0  0  0  0  0  0  0  0  0  0  0
  181.1030  179.3430  141.2660 N   0  0  0  0  0  2  0  0  0  0  0  0
  1  9  1  0  0  0  0
  1  6  1  0  0  0  0
  2  5  1  0  0  0  0
  3  7  1  0  0  0  0
  3  2  1  0  0  0  0
  4  7  1  0  0  0  0
  5 14  1  0  0  0  0
  5 16  2  0  0  0  0
  8 12  2  0  0  0  0
 10 19  1  0  0  0  0
 10 18  1  0  0  0  0
 11  4  2  0  0  0  0
 12 16  1  0  0  0  0
 13  2  2  0  0  0  0
 13  8  1  0  0  0  0
 14  1  2  0  0  0  0
 15 11  1  0  0  0  0
 16 17  1  0  0  0  0
 17  6  2  0  0  0  0
 18 13  1  0  0  0  0
 19  3  2  0  0  0  0
 20 11  1  0  0  0  0
 20 19  1  0  0  0  0
 21  8  1  0  0  0  0
 21 22  1  0  0  0  0
 22 23  1  0  0  0  0
 24 25  1  0  0  0  0
 24 23  1  0  0  0  0
 26 28  2  0  0  0  0
 26 31  1  0  0  0  0
 29 26  1  0  0  0  0
 30 27  2  0  0  0  0
 30 25  1  0  0  0  0
 31 30  1  0  0  0  0
M  END
>  <MODEL>
7

>  <REMARK>
 VINA RESULT:      -9.1      3.098      5.048
  Name = 
  6 active torsions:
  status: ('A' for Active; 'I' for Inactive)
    1  A    between atoms: C_3  and  C_19
    2  A    between atoms: C_3  and  C_22
    3  A    between atoms: C_7  and  C_9
    4  A    between atoms: C_7  and  C_22
    5  A    between atoms: C_9  and  C_23
    6  A    between atoms: C_15  and  C_23
                            x       y       z     vdW  Elec       q    Type
                         _______ _______ _______ _____ _____    ______ ____

>  <TORSDO>
F 6

$$$$
=
 OpenBabel10262419283D

 31 34  0  0  0  0  0  0  0  0999 V2000
  189.3960  177.0840  146.7200 C   0  0  0  0  0  0  0  0  0  0  0  0
  188.5260  177.8380  143.1530 C   0  0  0  0  0  0  0  0  0  0  0  0
  189.8190  177.7550  142.3930 C   0  0  0  0  0  0  0  0  0  0  0  0
  192.3100  177.6510  142.2830 N   0  0  0  0  0  0  0  0  0  0  0  0
  188.4260  177.6290  144.5520 C   0  0  0  0  0  0  0  0  0  0  0  0
  188.1440  177.2080  147.3220 C   0  0  0  0  0  3  0  0  0  0  0  0
  191.1400  178.0450  143.0730 C   0  0  0  0  0  2  0  0  0  0  0  0
  186.1140  178.2160  143.0970 C   0  0  0  0  0  0  0  0  0  0  0  0
  190.4800  176.7650  147.4670 F   0  0  0  0  0  0  0  0  0  0  0  0
  188.4940  177.4460  140.3200 C   0  0  0  0  0  2  0  0  0  0  0  0
  192.2640  177.4550  141.0010 C   0  0  0  0  0  0  0  0  0  0  0  0
  186.0560  178.0250  144.4390 N   0  0  0  0  0  0  0  0  0  0  0  0
  187.3430  178.1050  142.4240 C   0  0  0  0  0  0  0  0  0  0  0  0
  189.5340  177.2910  145.3450 C   0  0  0  0  0  3  0  0  0  0  0  0
  193.4520  177.1330  140.2900 N   0  0  0  0  0  1  0  0  0  0  0  0
  187.1580  177.7360  145.1740 C   0  0  0  0  0  0  0  0  0  0  0  0
  187.0260  177.5310  146.5520 C   0  0  0  0  0  3  0  0  0  0  0  0
  187.4220  178.3350  140.9380 C   0  0  0  0  0  2  0  0  0  0  0  0
  189.7930  177.6080  141.0520 C   0  0  0  0  0  0  0  0  0  0  0  0
  191.0130  177.4930  140.3170 N   0  0  0  0  0  2  0  0  0  0  0  0
  184.8510  178.5040  142.3560 C   0  0  0  0  0  2  0  0  0  0  0  0
  183.7340  178.8230  143.3350 C   0  0  0  0  0  2  0  0  0  0  0  0
  182.4100  178.9450  142.5990 C   0  0  0  0  0  2  0  0  0  0  0  0
  182.4680  178.2550  141.2400 C   0  0  0  0  0  2  0  0  0  0  0  0
  182.4710  179.2520  140.0870 C   0  0  0  0  0  2  0  0  0  0  0  0
  185.2330  177.6750  137.8730 C   0  0  0  0  0  0  0  0  0  0  0  0
  184.5050  180.1420  139.2320 O   0  0  0  0  0  0  0  0  0  0  0  0
  186.1000  178.5750  137.7100 O   0  0  0  0  0  0  0  0  0  0  0  0
  185.4400  176.3410  137.2540 C   0  0  0  0  0  1  0  0  0  0  0  0
  183.7310  179.1500  139.2960 C   0  0  0  0  0  0  0  0  0  0  0  0
  184.0530  177.9170  138.6450 N   0  0  0  0  0  2  0  0  0  0  0  0
  1  6  1  0  0  0  0
  1  9  1  0  0  0  0
  2  5  1  0  0  0  0
  3  7  1  0  0  0  0
  3  2  1  0  0  0  0
  4  7  1  0  0  0  0
  5 16  2  0  0  0  0
  5 14  1  0  0  0  0
  8 12  2  0  0  0  0
 10 18  1  0  0  0  0
 10 19  1  0  0  0  0
 11  4  2  0  0  0  0
 12 16  1  0  0  0  0
 13  8  1  0  0  0  0
 13  2  2  0  0  0  0
 14  1  2  0  0  0  0
 15 11  1  0  0  0  0
 16 17  1  0  0  0  0
 17  6  2  0  0  0  0
 18 13  1  0  0  0  0
 19  3  2  0  0  0  0
 20 11  1  0  0  0  0
 20 19  1  0  0  0  0
 21  8  1  0  0  0  0
 21 22  1  0  0  0  0
 23 22  1  0  0  0  0
 24 23  1  0  0  0  0
 25 24  1  0  0  0  0
 26 31  1  0  0  0  0
 27 30  2  0  0  0  0
 28 26  2  0  0  0  0
 29 26  1  0  0  0  0
 30 25  1  0  0  0  0
 31 30  1  0  0  0  0
M  END
>  <MODEL>
8

>  <REMARK>
 VINA RESULT:      -8.8      2.299      4.093
  Name = 
  6 active torsions:
  status: ('A' for Active; 'I' for Inactive)
    1  A    between atoms: C_3  and  C_19
    2  A    between atoms: C_3  and  C_22
    3  A    between atoms: C_7  and  C_9
    4  A    between atoms: C_7  and  C_22
    5  A    between atoms: C_9  and  C_23
    6  A    between atoms: C_15  and  C_23
                            x       y       z     vdW  Elec       q    Type
                         _______ _______ _______ _____ _____    ______ ____

>  <TORSDO>
F 6

$$$$
=
 OpenBabel10262419283D

 31 34  0  0  0  0  0  0  0  0999 V2000
  187.4740  177.7830  136.2260 C   0  0  0  0  0  0  0  0  0  0  0  0
  189.8880  177.2750  139.0470 C   0  0  0  0  0  0  0  0  0  0  0  0
  191.1700  176.8210  138.4090 C   0  0  0  0  0  0  0  0  0  0  0  0
  192.4830  175.9520  136.4730 N   0  0  0  0  0  0  0  0  0  0  0  0
  188.7090  177.5650  138.3160 C   0  0  0  0  0  0  0  0  0  0  0  0
  186.3360  178.1770  136.9290 C   0  0  0  0  0  3  0  0  0  0  0  0
  191.1600  176.0730  137.0930 C   0  0  0  0  0  2  0  0  0  0  0  0
  188.6890  177.8550  141.0940 C   0  0  0  0  0  0  0  0  0  0  0  0
  187.4390  177.6900  134.8760 F   0  0  0  0  0  0  0  0  0  0  0  0
  192.3590  177.5310  140.4660 C   0  0  0  0  0  2  0  0  0  0  0  0
  193.5900  176.0970  137.1340 C   0  0  0  0  0  0  0  0  0  0  0  0
  187.5740  178.1090  140.3650 N   0  0  0  0  0  0  0  0  0  0  0  0
  189.8730  177.4550  140.4510 C   0  0  0  0  0  0  0  0  0  0  0  0
  188.6520  177.4820  136.9150 C   0  0  0  0  0  3  0  0  0  0  0  0
  194.8370  175.9050  136.4790 N   0  0  0  0  0  1  0  0  0  0  0  0
  187.5510  177.9810  139.0160 C   0  0  0  0  0  0  0  0  0  0  0  0
  186.3730  178.2780  138.3210 C   0  0  0  0  0  3  0  0  0  0  0  0
  191.1110  177.1510  141.2530 C   0  0  0  0  0  2  0  0  0  0  0  0
  192.3250  176.9110  139.1010 C   0  0  0  0  0  0  0  0  0  0  0  0
  193.5580  176.5160  138.4970 N   0  0  0  0  0  2  0  0  0  0  0  0
  188.6400  178.0460  142.5740 C   0  0  0  0  0  2  0  0  0  0  0  0
  188.3560  176.7210  143.2610 C   0  0  0  0  0  2  0  0  0  0  0  0
  188.8580  176.7550  144.6950 C   0  0  0  0  0  2  0  0  0  0  0  0
  188.3530  177.9930  145.4280 C   0  0  0  0  0  2  0  0  0  0  0  0
  187.3550  177.6450  146.5270 C   0  0  0  0  0  2  0  0  0  0  0  0
  184.2880  178.7650  144.4390 C   0  0  0  0  0  0  0  0  0  0  0  0
  185.3080  178.6780  147.1630 O   0  0  0  0  0  0  0  0  0  0  0  0
  183.4730  179.2610  145.2630 O   0  0  0  0  0  0  0  0  0  0  0  0
  183.9380  178.7300  142.9960 C   0  0  0  0  0  1  0  0  0  0  0  0
  186.0090  178.2110  146.2260 C   0  0  0  0  0  0  0  0  0  0  0  0
  185.5460  178.2370  144.8720 N   0  0  0  0  0  2  0  0  0  0  0  0
  1 14  2  0  0  0  0
  1  6  1  0  0  0  0
  2 13  1  0  0  0  0
  3  2  1  0  0  0  0
  3 19  2  0  0  0  0
  4  7  1  0  0  0  0
  4 11  2  0  0  0  0
  5 16  1  0  0  0  0
  5  2  2  0  0  0  0
  6 17  2  0  0  0  0
  7  3  1  0  0  0  0
  8 21  1  0  0  0  0
  9  1  1  0  0  0  0
 10 18  1  0  0  0  0
 11 20  1  0  0  0  0
 12  8  1  0  0  0  0
 13  8  2  0  0  0  0
 13 18  1  0  0  0  0
 14  5  1  0  0  0  0
 15 11  1  0  0  0  0
 16 12  2  0  0  0  0
 17 16  1  0  0  0  0
 19 10  1  0  0  0  0
 20 19  1  0  0  0  0
 21 22  1  0  0  0  0
 22 23  1  0  0  0  0
 23 24  1  0  0  0  0
 24 25  1  0  0  0  0
 26 31  1  0  0  0  0
 26 28  2  0  0  0  0
 29 26  1  0  0  0  0
 30 25  1  0  0  0  0
 30 27  2  0  0  0  0
 31 30  1  0  0  0  0
M  END
>  <MODEL>
9

>  <REMARK>
 VINA RESULT:      -8.5      3.970      6.915
  Name = 
  6 active torsions:
  status: ('A' for Active; 'I' for Inactive)
    1  A    between atoms: C_3  and  C_19
    2  A    between atoms: C_3  and  C_22
    3  A    between atoms: C_7  and  C_9
    4  A    between atoms: C_7  and  C_22
    5  A    between atoms: C_9  and  C_23
    6  A    between atoms: C_15  and  C_23
                            x       y       z     vdW  Elec       q    Type
                         _______ _______ _______ _____ _____    ______ ____

>  <TORSDO>
F 6

$$$$
