=
 OpenBabel10262422013D

 30 33  0  0  1  0  0  0  0  0999 V2000
  188.6160  177.9120  145.8720 C   0  0  0  0  0  0  0  0  0  0  0  0
  186.2700  177.8280  146.4720 C   0  0  0  0  0  3  0  0  0  0  0  0
  185.0510  179.1060  142.6270 O   0  0  0  0  0  0  0  0  0  0  0  0
  188.0270  176.5490  142.8300 C   0  0  0  0  0  2  0  0  0  0  0  0
  189.5950  178.6170  145.1020 N   0  0  0  0  0  0  0  0  0  0  0  0
  191.3610  175.8490  143.8380 C   0  0  1  0  0  3  0  0  0  0  0  0
  190.9110  176.7010  144.8800 O   0  0  0  0  0  0  0  0  0  0  0  0
  191.6350  178.8700  143.8540 C   0  0  0  0  0  1  0  0  0  0  0  0
  188.1020  178.5040  140.4670 C   0  0  2  0  0  3  0  0  0  0  0  0
  185.8930  179.0760  141.5240 C   0  0  0  0  0  0  0  0  0  0  0  0
  190.6800  178.0610  144.6620 C   0  0  0  0  0  0  0  0  0  0  0  0
  189.4130  176.3410  142.4120 N   0  0  0  0  0  0  0  0  0  0  0  0
  184.8080  177.8680  146.1530 C   0  0  0  0  0  2  0  0  0  0  0  0
  189.5830  178.3630  140.8320 C   0  0  0  0  0  2  0  0  0  0  0  0
  192.1490  174.7030  144.4370 C   0  0  0  0  0  1  0  0  0  0  0  0
  188.9770  177.2250  146.8670 O   0  0  0  0  0  0  0  0  0  0  0  0
  185.4810  178.7290  143.9010 C   0  0  0  0  0  0  0  0  0  0  0  0
  184.5350  178.9060  145.0690 C   0  0  1  0  0  3  0  0  0  0  0  0
  190.1590  175.2840  143.0870 C   0  0  0  0  0  2  0  0  0  0  0  0
  187.1880  177.9940  145.5100 C   0  0  0  0  0  0  0  0  0  0  0  0
  187.6900  178.0330  142.9470 C   0  0  1  0  0  3  0  0  0  0  0  0
  185.4860  179.5440  140.4280 O   0  0  0  0  0  0  0  0  0  0  0  0
  187.2170  178.5330  141.6460 N   0  0  0  0  0  0  0  0  0  0  0  0
  190.8730  176.3870  140.5880 O   0  0  0  0  0  0  0  0  0  0  0  0
  183.0860  178.7930  144.6300 C   0  0  0  0  0  1  0  0  0  0  0  0
  186.7420  178.2860  144.1090 C   0  0  0  0  0  0  0  0  0  0  0  0
  189.9760  176.9750  141.2480 C   0  0  0  0  0  0  0  0  0  0  0  0
  187.6810  177.4830  139.3970 C   0  0  2  0  0  3  0  0  0  0  0  0
  188.7930  177.2610  138.3920 C   0  0  0  0  0  1  0  0  0  0  0  0
  186.5100  177.8660  138.7380 O   0  0  0  0  0  1  0  0  0  0  0  0
  1 16  2  0  0  0  0
  3 17  1  0  0  0  0
  5  1  1  0  0  0  0
  6 15  1  1  0  0  0
  6  7  1  0  0  0  0
  8 11  1  0  0  0  0
  9 28  1  6  0  0  0
  9 14  1  0  0  0  0
  9 23  1  0  0  0  0
 10 23  1  0  0  0  0
 10  3  1  0  0  0  0
 11  7  1  0  0  0  0
 11  5  2  0  0  0  0
 12  4  1  0  0  0  0
 12 19  1  0  0  0  0
 13  2  1  0  0  0  0
 14 27  1  0  0  0  0
 17 26  2  0  0  0  0
 17 18  1  0  0  0  0
 18 25  1  6  0  0  0
 18 13  1  0  0  0  0
 19  6  1  0  0  0  0
 20  1  1  0  0  0  0
 20  2  2  0  0  0  0
 21  4  1  6  0  0  0
 21 26  1  0  0  0  0
 22 10  2  0  0  0  0
 23 21  1  0  0  0  0
 24 27  2  0  0  0  0
 26 20  1  0  0  0  0
 27 12  1  0  0  0  0
 28 29  1  6  0  0  0
 30 28  1  0  0  0  0
M  END
>  <MODEL>
1

>  <REMARK>
 VINA RESULT:     -10.2      0.000      0.000
  Name = 
  1 active torsions:
  status: ('A' for Active; 'I' for Inactive)
    1  A    between atoms: C_7  and  C_10
                            x       y       z     vdW  Elec       q    Type
                         _______ _______ _______ _____ _____    ______ ____

>  <TORSDO>
F 1

$$$$
