=
 OpenBabel10262419263D

 31 35  0  0  1  0  0  0  0  0999 V2000
  189.7970  177.5360  147.0520 C   0  0  0  0  0  0  0  0  0  0  0  0
  188.1430  177.8240  143.6080 C   0  0  0  0  0  0  0  0  0  0  0  0
  186.7850  178.2220  143.8130 C   0  0  0  0  0  0  0  0  0  0  0  0
  184.8010  177.7270  145.3100 C   0  0  0  0  0  2  0  0  0  0  0  0
  189.0810  177.4460  144.7220 C   0  0  0  0  0  0  0  0  0  0  0  0
  190.9280  176.7790  146.7440 C   0  0  0  0  0  3  0  0  0  0  0  0
  186.2210  178.2610  145.2150 C   0  0  0  0  0  2  0  0  0  0  0  0
  190.0830  177.3330  142.0320 C   0  0  2  0  0  3  0  0  0  0  0  0
  189.5610  177.9850  148.4480 C   0  0  0  0  0  1  0  0  0  0  0  0
  186.5580  178.6000  141.4130 C   0  0  0  0  0  3  0  0  0  0  0  0
  183.7900  178.8560  145.1240 C   0  0  0  0  0  2  0  0  0  0  0  0
  190.5090  176.2540  143.0250 C   0  0  0  0  0  2  0  0  0  0  0  0
  188.6510  177.7560  142.2840 C   0  0  0  0  0  0  0  0  0  0  0  0
  188.8870  177.8710  146.0480 C   0  0  0  0  0  3  0  0  0  0  0  0
  184.1520  179.7950  143.9740 C   0  0  0  0  0  2  0  0  0  0  0  0
  190.2480  176.7100  144.4220 C   0  0  0  0  0  0  0  0  0  0  0  0
  191.1530  176.3670  145.4300 C   0  0  0  0  0  3  0  0  0  0  0  0
  187.8620  178.1750  141.2110 C   0  0  0  0  0  3  0  0  0  0  0  0
  186.0050  178.6350  142.6900 C   0  0  0  0  0  0  0  0  0  0  0  0
  184.5440  179.0040  142.7370 C   0  0  0  0  0  2  0  0  0  0  0  0
  192.3500  177.8170  140.3770 O   0  0  0  0  0  0  0  0  0  0  0  0
  191.4310  177.1020  139.8930 C   0  0  0  0  0  0  0  0  0  0  0  0
  190.2590  176.8350  140.6720 N   0  0  0  0  0  2  0  0  0  0  0  0
  191.6720  175.4890  135.9220 C   0  0  0  0  0  0  0  0  0  0  0  0
  190.3910  176.4360  137.7400 C   0  0  0  0  0  3  0  0  0  0  0  0
  193.9600  176.1870  138.7190 O   0  0  0  0  0  1  0  0  0  0  0  0
  191.7310  174.9830  134.6670 F   0  0  0  0  0  0  0  0  0  0  0  0
  190.4510  175.9150  136.4460 C   0  0  0  0  0  3  0  0  0  0  0  0
  192.7810  176.1090  137.9870 C   0  0  0  0  0  0  0  0  0  0  0  0
  191.5490  176.5410  138.5280 C   0  0  0  0  0  0  0  0  0  0  0  0
  192.8320  175.5870  136.6900 C   0  0  0  0  0  3  0  0  0  0  0  0
  1  9  1  0  0  0  0
  2  3  1  0  0  0  0
  2  5  1  0  0  0  0
  3  7  1  0  0  0  0
  5 14  1  0  0  0  0
  6  1  1  0  0  0  0
  7  4  1  0  0  0  0
  8 23  1  6  0  0  0
  8 13  1  0  0  0  0
  8 12  1  0  0  0  0
 10 19  1  0  0  0  0
 11  4  1  0  0  0  0
 12 16  1  0  0  0  0
 13  2  2  0  0  0  0
 14  1  2  0  0  0  0
 15 11  1  0  0  0  0
 16  5  2  0  0  0  0
 16 17  1  0  0  0  0
 17  6  2  0  0  0  0
 18 10  2  0  0  0  0
 18 13  1  0  0  0  0
 19 20  1  0  0  0  0
 19  3  2  0  0  0  0
 20 15  1  0  0  0  0
 22 21  2  0  0  0  0
 22 23  1  0  0  0  0
 24 28  2  0  0  0  0
 24 31  1  0  0  0  0
 25 30  2  0  0  0  0
 27 24  1  0  0  0  0
 28 25  1  0  0  0  0
 29 30  1  0  0  0  0
 29 26  1  0  0  0  0
 30 22  1  0  0  0  0
 31 29  2  0  0  0  0
M  END
>  <MODEL>
1

>  <REMARK>
 VINA RESULT:     -11.1      0.000      0.000
  Name = 
  2 active torsions:
  status: ('A' for Active; 'I' for Inactive)
    1  A    between atoms: C_9  and  C_22
    2  A    between atoms: C_15  and  N_23
                            x       y       z     vdW  Elec       q    Type
                         _______ _______ _______ _____ _____    ______ ____

>  <TORSDO>
F 2

$$$$
=
 OpenBabel10262419263D

 31 35  0  0  1  0  0  0  0  0999 V2000
  189.7700  177.5460  146.9340 C   0  0  0  0  0  0  0  0  0  0  0  0
  188.0120  177.8420  143.5420 C   0  0  0  0  0  0  0  0  0  0  0  0
  186.6640  178.2510  143.7880 C   0  0  0  0  0  0  0  0  0  0  0  0
  184.7230  177.7750  145.3470 C   0  0  0  0  0  2  0  0  0  0  0  0
  188.9810  177.4580  144.6270 C   0  0  0  0  0  0  0  0  0  0  0  0
  190.8840  176.7790  146.5920 C   0  0  0  0  0  3  0  0  0  0  0  0
  186.1440  178.2970  145.2070 C   0  0  0  0  0  2  0  0  0  0  0  0
  189.8980  177.3320  141.9080 C   0  0  2  0  0  3  0  0  0  0  0  0
  189.5800  178.0000  148.3360 C   0  0  0  0  0  1  0  0  0  0  0  0
  186.3670  178.6260  141.3960 C   0  0  0  0  0  3  0  0  0  0  0  0
  183.7160  178.9120  145.1900 C   0  0  0  0  0  2  0  0  0  0  0  0
  190.3450  176.2510  142.8890 C   0  0  0  0  0  2  0  0  0  0  0  0
  188.4780  177.7670  142.2030 C   0  0  0  0  0  0  0  0  0  0  0  0
  188.8310  177.8870  145.9570 C   0  0  0  0  0  3  0  0  0  0  0  0
  184.0500  179.8460  144.0270 C   0  0  0  0  0  2  0  0  0  0  0  0
  190.1320  176.7120  144.2930 C   0  0  0  0  0  0  0  0  0  0  0  0
  191.0650  176.3630  145.2730 C   0  0  0  0  0  3  0  0  0  0  0  0
  187.6590  178.1900  141.1540 C   0  0  0  0  0  3  0  0  0  0  0  0
  185.8530  178.6680  142.6880 C   0  0  0  0  0  0  0  0  0  0  0  0
  184.3970  179.0500  142.7800 C   0  0  0  0  0  2  0  0  0  0  0  0
  192.2050  177.6070  140.2590 O   0  0  0  0  0  0  0  0  0  0  0  0
  191.2220  176.9880  139.7690 C   0  0  0  0  0  0  0  0  0  0  0  0
  190.0280  176.8290  140.5440 N   0  0  0  0  0  2  0  0  0  0  0  0
  191.4800  175.2990  135.8300 C   0  0  0  0  0  0  0  0  0  0  0  0
  192.1440  175.3440  138.1540 C   0  0  0  0  0  3  0  0  0  0  0  0
  189.6560  178.0190  137.5110 O   0  0  0  0  0  1  0  0  0  0  0  0
  191.5730  174.7550  134.5940 F   0  0  0  0  0  0  0  0  0  0  0  0
  192.2410  174.7820  136.8790 C   0  0  0  0  0  3  0  0  0  0  0  0
  190.5210  176.9450  137.3300 C   0  0  0  0  0  0  0  0  0  0  0  0
  191.2870  176.4290  138.3990 C   0  0  0  0  0  0  0  0  0  0  0  0
  190.6230  176.3770  136.0560 C   0  0  0  0  0  3  0  0  0  0  0  0
  1  9  1  0  0  0  0
  2  3  1  0  0  0  0
  2  5  1  0  0  0  0
  3  7  1  0  0  0  0
  5 14  1  0  0  0  0
  6  1  1  0  0  0  0
  7  4  1  0  0  0  0
  8 23  1  6  0  0  0
  8 13  1  0  0  0  0
  8 12  1  0  0  0  0
 10 19  1  0  0  0  0
 11  4  1  0  0  0  0
 12 16  1  0  0  0  0
 13  2  2  0  0  0  0
 14  1  2  0  0  0  0
 15 11  1  0  0  0  0
 16  5  2  0  0  0  0
 16 17  1  0  0  0  0
 17  6  2  0  0  0  0
 18 10  2  0  0  0  0
 18 13  1  0  0  0  0
 19 20  1  0  0  0  0
 19  3  2  0  0  0  0
 20 15  1  0  0  0  0
 22 21  2  0  0  0  0
 22 23  1  0  0  0  0
 24 31  2  0  0  0  0
 24 28  1  0  0  0  0
 25 30  1  0  0  0  0
 27 24  1  0  0  0  0
 28 25  2  0  0  0  0
 29 26  1  0  0  0  0
 29 30  2  0  0  0  0
 30 22  1  0  0  0  0
 31 29  1  0  0  0  0
M  END
>  <MODEL>
2

>  <REMARK>
 VINA RESULT:     -11.0      0.791      1.212
  Name = 
  2 active torsions:
  status: ('A' for Active; 'I' for Inactive)
    1  A    between atoms: C_9  and  C_22
    2  A    between atoms: C_15  and  N_23
                            x       y       z     vdW  Elec       q    Type
                         _______ _______ _______ _____ _____    ______ ____

>  <TORSDO>
F 2

$$$$
=
 OpenBabel10262419263D

 31 35  0  0  1  0  0  0  0  0999 V2000
  191.8780  177.4500  140.7200 C   0  0  0  0  0  0  0  0  0  0  0  0
  189.3760  177.4170  143.6210 C   0  0  0  0  0  0  0  0  0  0  0  0
  190.0770  176.9910  144.7930 C   0  0  0  0  0  0  0  0  0  0  0  0
  191.7760  175.2650  145.5420 C   0  0  0  0  0  2  0  0  0  0  0  0
  189.9700  177.4050  142.2400 C   0  0  0  0  0  0  0  0  0  0  0  0
  191.0160  177.4760  139.6230 C   0  0  0  0  0  3  0  0  0  0  0  0
  191.4940  176.4780  144.6700 C   0  0  0  0  0  2  0  0  0  0  0  0
  187.2600  178.3140  142.5230 C   0  0  2  0  0  3  0  0  0  0  0  0
  193.3490  177.4520  140.5100 C   0  0  0  0  0  1  0  0  0  0  0  0
  188.1430  177.6050  146.1460 C   0  0  0  0  0  3  0  0  0  0  0  0
  192.3010  175.6980  146.9090 C   0  0  0  0  0  2  0  0  0  0  0  0
  187.6330  177.4700  141.3070 C   0  0  0  0  0  2  0  0  0  0  0  0
  188.0330  177.8610  143.7440 C   0  0  0  0  0  0  0  0  0  0  0  0
  191.3580  177.4220  142.0150 C   0  0  0  0  0  3  0  0  0  0  0  0
  191.5200  176.8710  147.5010 C   0  0  0  0  0  2  0  0  0  0  0  0
  189.1130  177.4650  141.1190 C   0  0  0  0  0  0  0  0  0  0  0  0
  189.6350  177.4830  139.8230 C   0  0  0  0  0  3  0  0  0  0  0  0
  187.4490  177.9790  145.0070 C   0  0  0  0  0  3  0  0  0  0  0  0
  189.4440  177.1170  146.0660 C   0  0  0  0  0  0  0  0  0  0  0  0
  190.0240  176.6400  147.3740 C   0  0  0  0  0  2  0  0  0  0  0  0
  185.2760  179.6920  141.0140 O   0  0  0  0  0  0  0  0  0  0  0  0
  184.8700  178.9420  141.9420 C   0  0  0  0  0  0  0  0  0  0  0  0
  185.8200  178.2330  142.7450 N   0  0  0  0  0  2  0  0  0  0  0  0
  180.6570  178.4800  142.6270 C   0  0  0  0  0  0  0  0  0  0  0  0
  182.5690  178.4570  141.1470 C   0  0  0  0  0  3  0  0  0  0  0  0
  183.6600  179.2980  144.5910 O   0  0  0  0  0  1  0  0  0  0  0  0
  179.3260  178.3300  142.8260 F   0  0  0  0  0  0  0  0  0  0  0  0
  181.1960  178.3020  141.3520 C   0  0  0  0  0  3  0  0  0  0  0  0
  182.8660  178.9670  143.4990 C   0  0  0  0  0  0  0  0  0  0  0  0
  183.4220  178.7900  142.2120 C   0  0  0  0  0  0  0  0  0  0  0  0
  181.4900  178.8100  143.6960 C   0  0  0  0  0  3  0  0  0  0  0  0
  1 14  1  0  0  0  0
  2 13  2  0  0  0  0
  2  3  1  0  0  0  0
  3 19  2  0  0  0  0
  4 11  1  0  0  0  0
  5  2  1  0  0  0  0
  6 17  1  0  0  0  0
  6  1  2  0  0  0  0
  7  3  1  0  0  0  0
  7  4  1  0  0  0  0
  8 23  1  1  0  0  0
  8 13  1  0  0  0  0
  9  1  1  0  0  0  0
 11 15  1  0  0  0  0
 12  8  1  0  0  0  0
 13 18  1  0  0  0  0
 14  5  2  0  0  0  0
 16 12  1  0  0  0  0
 16  5  1  0  0  0  0
 17 16  2  0  0  0  0
 18 10  2  0  0  0  0
 19 10  1  0  0  0  0
 19 20  1  0  0  0  0
 20 15  1  0  0  0  0
 21 22  2  0  0  0  0
 22 30  1  0  0  0  0
 22 23  1  0  0  0  0
 24 27  1  0  0  0  0
 24 31  1  0  0  0  0
 25 28  1  0  0  0  0
 25 30  2  0  0  0  0
 28 24  2  0  0  0  0
 29 31  2  0  0  0  0
 29 26  1  0  0  0  0
 30 29  1  0  0  0  0
M  END
>  <MODEL>
3

>  <REMARK>
 VINA RESULT:     -10.8      4.014      7.931
  Name = 
  2 active torsions:
  status: ('A' for Active; 'I' for Inactive)
    1  A    between atoms: C_9  and  C_22
    2  A    between atoms: C_15  and  N_23
                            x       y       z     vdW  Elec       q    Type
                         _______ _______ _______ _____ _____    ______ ____

>  <TORSDO>
F 2

$$$$
=
 OpenBabel10262419263D

 31 35  0  0  1  0  0  0  0  0999 V2000
  185.0110  178.5620  143.2420 C   0  0  0  0  0  0  0  0  0  0  0  0
  188.6790  177.4560  143.2140 C   0  0  0  0  0  0  0  0  0  0  0  0
  189.1150  177.3690  144.5740 C   0  0  0  0  0  0  0  0  0  0  0  0
  188.9610  178.6310  146.7660 C   0  0  0  0  0  2  0  0  0  0  0  0
  187.3460  178.0150  142.7970 C   0  0  0  0  0  0  0  0  0  0  0  0
  184.8490  178.9880  141.9220 C   0  0  0  0  0  3  0  0  0  0  0  0
  188.2160  177.8730  145.6800 C   0  0  0  0  0  2  0  0  0  0  0  0
  189.1190  177.0970  140.7310 C   0  0  2  0  0  3  0  0  0  0  0  0
  183.8690  178.6280  144.1890 C   0  0  0  0  0  1  0  0  0  0  0  0
  191.1670  176.2850  143.8220 C   0  0  0  0  0  3  0  0  0  0  0  0
  189.4020  177.6810  147.8770 C   0  0  0  0  0  2  0  0  0  0  0  0
  188.2870  178.3540  140.4870 C   0  0  0  0  0  2  0  0  0  0  0  0
  189.5470  177.0140  142.1820 C   0  0  0  0  0  0  0  0  0  0  0  0
  186.2470  178.0740  143.6710 C   0  0  0  0  0  3  0  0  0  0  0  0
  189.9960  176.3780  147.3430 C   0  0  0  0  0  2  0  0  0  0  0  0
  187.1550  178.4180  141.4570 C   0  0  0  0  0  0  0  0  0  0  0  0
  185.9200  178.9150  141.0320 C   0  0  0  0  0  3  0  0  0  0  0  0
  190.7630  176.4070  142.5030 C   0  0  0  0  0  3  0  0  0  0  0  0
  190.3690  176.7500  144.8630 C   0  0  0  0  0  0  0  0  0  0  0  0
  190.9940  176.6560  146.2320 C   0  0  0  0  0  2  0  0  0  0  0  0
  189.4720  175.3720  138.4930 O   0  0  0  0  0  0  0  0  0  0  0  0
  190.3850  176.2120  138.7160 C   0  0  0  0  0  0  0  0  0  0  0  0
  190.2710  177.0980  139.8350 N   0  0  0  0  0  2  0  0  0  0  0  0
  193.7740  176.4030  136.0890 C   0  0  0  0  0  0  0  0  0  0  0  0
  191.4350  175.9410  136.4840 C   0  0  0  0  0  3  0  0  0  0  0  0
  193.0410  177.0540  139.6360 O   0  0  0  0  0  1  0  0  0  0  0  0
  194.8340  176.4580  135.2470 F   0  0  0  0  0  0  0  0  0  0  0  0
  192.5260  175.9980  135.6140 C   0  0  0  0  0  3  0  0  0  0  0  0
  192.8420  176.6990  138.3070 C   0  0  0  0  0  0  0  0  0  0  0  0
  191.5740  176.2890  137.8370 C   0  0  0  0  0  0  0  0  0  0  0  0
  193.9300  176.7530  137.4300 C   0  0  0  0  0  3  0  0  0  0  0  0
  1 14  1  0  0  0  0
  1  9  1  0  0  0  0
  2  3  1  0  0  0  0
  3 19  2  0  0  0  0
  3  7  1  0  0  0  0
  4 11  1  0  0  0  0
  5  2  1  0  0  0  0
  5 14  2  0  0  0  0
  6  1  2  0  0  0  0
  7  4  1  0  0  0  0
  8 23  1  6  0  0  0
  8 13  1  0  0  0  0
 10 19  1  0  0  0  0
 12  8  1  0  0  0  0
 12 16  1  0  0  0  0
 13 18  1  0  0  0  0
 13  2  2  0  0  0  0
 15 11  1  0  0  0  0
 16  5  1  0  0  0  0
 17 16  2  0  0  0  0
 17  6  1  0  0  0  0
 18 10  2  0  0  0  0
 19 20  1  0  0  0  0
 20 15  1  0  0  0  0
 21 22  2  0  0  0  0
 22 23  1  0  0  0  0
 24 31  1  0  0  0  0
 25 30  2  0  0  0  0
 27 24  1  0  0  0  0
 28 24  2  0  0  0  0
 28 25  1  0  0  0  0
 29 26  1  0  0  0  0
 30 29  1  0  0  0  0
 30 22  1  0  0  0  0
 31 29  2  0  0  0  0
M  END
>  <MODEL>
4

>  <REMARK>
 VINA RESULT:      -9.9      1.331      4.341
  Name = 
  2 active torsions:
  status: ('A' for Active; 'I' for Inactive)
    1  A    between atoms: C_9  and  C_22
    2  A    between atoms: C_15  and  N_23
                            x       y       z     vdW  Elec       q    Type
                         _______ _______ _______ _____ _____    ______ ____

>  <TORSDO>
F 2

$$$$
=
 OpenBabel10262419263D

 31 35  0  0  1  0  0  0  0  0999 V2000
  187.4040  177.5060  147.0910 C   0  0  0  0  0  0  0  0  0  0  0  0
  187.2730  178.1330  143.3130 C   0  0  0  0  0  0  0  0  0  0  0  0
  188.6030  177.9910  142.8050 C   0  0  0  0  0  0  0  0  0  0  0  0
  190.9930  178.6250  143.3620 C   0  0  0  0  0  2  0  0  0  0  0  0
  186.9330  178.1230  144.7780 C   0  0  0  0  0  0  0  0  0  0  0  0
  186.1880  178.0580  147.4960 C   0  0  0  0  0  3  0  0  0  0  0  0
  189.7580  177.8370  143.7680 C   0  0  0  0  0  2  0  0  0  0  0  0
  184.7820  178.4730  142.9050 C   0  0  2  0  0  3  0  0  0  0  0  0
  188.3120  176.8890  148.0920 C   0  0  0  0  0  1  0  0  0  0  0  0
  187.7180  178.0690  140.5330 C   0  0  0  0  0  3  0  0  0  0  0  0
  191.9110  177.7720  142.4900 C   0  0  0  0  0  2  0  0  0  0  0  0
  184.7610  179.2630  144.2110 C   0  0  0  0  0  2  0  0  0  0  0  0
  186.2010  178.3140  142.4000 C   0  0  0  0  0  0  0  0  0  0  0  0
  187.7680  177.5330  145.7430 C   0  0  0  0  0  3  0  0  0  0  0  0
  191.1530  176.9820  141.4230 C   0  0  0  0  0  2  0  0  0  0  0  0
  185.6910  178.6460  145.2010 C   0  0  0  0  0  0  0  0  0  0  0  0
  185.3330  178.6270  146.5520 C   0  0  0  0  0  3  0  0  0  0  0  0
  186.4350  178.2480  141.0250 C   0  0  0  0  0  3  0  0  0  0  0  0
  188.8040  177.9360  141.3920 C   0  0  0  0  0  0  0  0  0  0  0  0
  190.1470  177.8700  140.7100 C   0  0  0  0  0  2  0  0  0  0  0  0
  183.1690  177.1690  140.9530 O   0  0  0  0  0  0  0  0  0  0  0  0
  183.1390  178.4290  140.9710 C   0  0  0  0  0  0  0  0  0  0  0  0
  183.9390  179.1430  141.9200 N   0  0  0  0  0  2  0  0  0  0  0  0
  180.5920  180.5530  138.2440 C   0  0  0  0  0  0  0  0  0  0  0  0
  180.9050  178.9410  140.0170 C   0  0  0  0  0  3  0  0  0  0  0  0
  184.1780  180.4000  139.0610 O   0  0  0  0  0  1  0  0  0  0  0  0
  179.7750  181.2150  137.3900 F   0  0  0  0  0  0  0  0  0  0  0  0
  180.0610  179.6230  139.1380 C   0  0  0  0  0  3  0  0  0  0  0  0
  182.8160  180.1240  139.1080 C   0  0  0  0  0  0  0  0  0  0  0  0
  182.2890  179.1780  140.0170 C   0  0  0  0  0  0  0  0  0  0  0  0
  181.9650  180.8020  138.2300 C   0  0  0  0  0  3  0  0  0  0  0  0
  1  6  1  0  0  0  0
  1  9  1  0  0  0  0
  2  5  1  0  0  0  0
  3  2  1  0  0  0  0
  3  7  1  0  0  0  0
  4  7  1  0  0  0  0
  5 16  2  0  0  0  0
  5 14  1  0  0  0  0
  8 23  1  6  0  0  0
  8 12  1  0  0  0  0
 10 18  2  0  0  0  0
 10 19  1  0  0  0  0
 11  4  1  0  0  0  0
 12 16  1  0  0  0  0
 13  8  1  0  0  0  0
 13  2  2  0  0  0  0
 14  1  2  0  0  0  0
 15 11  1  0  0  0  0
 16 17  1  0  0  0  0
 17  6  2  0  0  0  0
 18 13  1  0  0  0  0
 19  3  2  0  0  0  0
 20 19  1  0  0  0  0
 20 15  1  0  0  0  0
 21 22  2  0  0  0  0
 22 23  1  0  0  0  0
 24 28  1  0  0  0  0
 26 29  1  0  0  0  0
 27 24  1  0  0  0  0
 28 25  2  0  0  0  0
 29 30  2  0  0  0  0
 30 25  1  0  0  0  0
 30 22  1  0  0  0  0
 31 24  2  0  0  0  0
 31 29  1  0  0  0  0
M  END
>  <MODEL>
5

>  <REMARK>
 VINA RESULT:      -9.8      4.355      7.376
  Name = 
  2 active torsions:
  status: ('A' for Active; 'I' for Inactive)
    1  A    between atoms: C_9  and  C_22
    2  A    between atoms: C_15  and  N_23
                            x       y       z     vdW  Elec       q    Type
                         _______ _______ _______ _____ _____    ______ ____

>  <TORSDO>
F 2

$$$$
=
 OpenBabel10262419263D

 31 35  0  0  1  0  0  0  0  0999 V2000
  186.8020  178.1340  137.0000 C   0  0  0  0  0  0  0  0  0  0  0  0
  184.9850  178.5330  140.3500 C   0  0  0  0  0  0  0  0  0  0  0  0
  183.6420  178.9360  140.0690 C   0  0  0  0  0  0  0  0  0  0  0  0
  182.3410  180.5140  138.5720 C   0  0  0  0  0  2  0  0  0  0  0  0
  186.0630  178.4300  139.3070 C   0  0  0  0  0  0  0  0  0  0  0  0
  188.1340  178.1480  137.4150 C   0  0  0  0  0  3  0  0  0  0  0  0
  183.2530  179.3000  138.6540 C   0  0  0  0  0  2  0  0  0  0  0  0
  186.7640  177.8050  142.0220 C   0  0  2  0  0  3  0  0  0  0  0  0
  186.4720  177.9770  135.5600 C   0  0  0  0  0  1  0  0  0  0  0  0
  183.0660  178.5720  142.4110 C   0  0  0  0  0  3  0  0  0  0  0  0
  180.8750  180.0870  138.6150 C   0  0  0  0  0  2  0  0  0  0  0  0
  187.7690  178.5570  141.1540 C   0  0  0  0  0  2  0  0  0  0  0  0
  185.3480  178.2290  141.6880 C   0  0  0  0  0  0  0  0  0  0  0  0
  185.7780  178.2670  137.9400 C   0  0  0  0  0  3  0  0  0  0  0  0
  180.5970  179.0230  139.6760 C   0  0  0  0  0  2  0  0  0  0  0  0
  187.4160  178.4080  139.7120 C   0  0  0  0  0  0  0  0  0  0  0  0
  188.4410  178.2850  138.7690 C   0  0  0  0  0  3  0  0  0  0  0  0
  184.3770  178.2220  142.6920 C   0  0  0  0  0  3  0  0  0  0  0  0
  182.6780  178.9250  141.1220 C   0  0  0  0  0  0  0  0  0  0  0  0
  181.2510  179.3950  140.9960 C   0  0  0  0  0  2  0  0  0  0  0  0
  188.2060  176.0240  143.7130 O   0  0  0  0  0  0  0  0  0  0  0  0
  187.8130  177.1070  144.2250 C   0  0  0  0  0  0  0  0  0  0  0  0
  187.0710  178.0370  143.4300 N   0  0  0  0  0  2  0  0  0  0  0  0
  188.5680  178.0500  148.3450 C   0  0  0  0  0  0  0  0  0  0  0  0
  187.0630  177.8830  146.4610 C   0  0  0  0  0  3  0  0  0  0  0  0
  190.4710  176.8330  145.4390 O   0  0  0  0  0  1  0  0  0  0  0  0
  188.7890  178.3520  149.6470 F   0  0  0  0  0  0  0  0  0  0  0  0
  187.2900  178.1930  147.8030 C   0  0  0  0  0  3  0  0  0  0  0  0
  189.3980  177.2810  146.2010 C   0  0  0  0  0  0  0  0  0  0  0  0
  188.1070  177.4240  145.6420 C   0  0  0  0  0  0  0  0  0  0  0  0
  189.6170  177.5950  147.5460 C   0  0  0  0  0  3  0  0  0  0  0  0
  1  6  2  0  0  0  0
  1 14  1  0  0  0  0
  2 13  1  0  0  0  0
  3  2  2  0  0  0  0
  3 19  1  0  0  0  0
  4 11  1  0  0  0  0
  4  7  1  0  0  0  0
  5 16  1  0  0  0  0
  5  2  1  0  0  0  0
  6 17  1  0  0  0  0
  7  3  1  0  0  0  0
  8 23  1  1  0  0  0
  9  1  1  0  0  0  0
 10 18  1  0  0  0  0
 11 15  1  0  0  0  0
 12  8  1  0  0  0  0
 13  8  1  0  0  0  0
 13 18  2  0  0  0  0
 14  5  2  0  0  0  0
 15 20  1  0  0  0  0
 16 12  1  0  0  0  0
 17 16  2  0  0  0  0
 19 10  2  0  0  0  0
 20 19  1  0  0  0  0
 21 22  2  0  0  0  0
 22 30  1  0  0  0  0
 23 22  1  0  0  0  0
 24 27  1  0  0  0  0
 25 28  2  0  0  0  0
 26 29  1  0  0  0  0
 28 24  1  0  0  0  0
 29 31  1  0  0  0  0
 30 29  2  0  0  0  0
 30 25  1  0  0  0  0
 31 24  2  0  0  0  0
M  END
>  <MODEL>
6

>  <REMARK>
 VINA RESULT:      -9.6      4.196      8.005
  Name = 
  2 active torsions:
  status: ('A' for Active; 'I' for Inactive)
    1  A    between atoms: C_9  and  C_22
    2  A    between atoms: C_15  and  N_23
                            x       y       z     vdW  Elec       q    Type
                         _______ _______ _______ _____ _____    ______ ____

>  <TORSDO>
F 2

$$$$
=
 OpenBabel10262419263D

 31 35  0  0  1  0  0  0  0  0999 V2000
  186.1850  178.5340  146.3660 C   0  0  0  0  0  0  0  0  0  0  0  0
  184.9570  178.5890  142.7370 C   0  0  0  0  0  0  0  0  0  0  0  0
  183.5330  178.7250  142.7640 C   0  0  0  0  0  0  0  0  0  0  0  0
  181.5020  177.8410  143.9950 C   0  0  0  0  0  2  0  0  0  0  0  0
  185.7990  178.3650  143.9630 C   0  0  0  0  0  0  0  0  0  0  0  0
  187.4670  178.0050  146.2070 C   0  0  0  0  0  3  0  0  0  0  0  0
  182.7990  178.6290  144.0820 C   0  0  0  0  0  2  0  0  0  0  0  0
  187.1380  178.4970  141.4240 C   0  0  2  0  0  3  0  0  0  0  0  0
  185.6950  178.9020  147.7190 C   0  0  0  0  0  1  0  0  0  0  0  0
  183.5470  179.1070  140.3550 C   0  0  0  0  0  3  0  0  0  0  0  0
  180.3310  178.7690  143.6780 C   0  0  0  0  0  2  0  0  0  0  0  0
  187.6260  177.4930  142.4660 C   0  0  0  0  0  2  0  0  0  0  0  0
  185.6320  178.6440  141.4890 C   0  0  0  0  0  0  0  0  0  0  0  0
  185.3640  178.7180  145.2520 C   0  0  0  0  0  3  0  0  0  0  0  0
  180.6560  179.7830  142.5820 C   0  0  0  0  0  2  0  0  0  0  0  0
  187.1110  177.8630  143.8170 C   0  0  0  0  0  0  0  0  0  0  0  0
  187.9290  177.6700  144.9340 C   0  0  0  0  0  3  0  0  0  0  0  0
  184.9220  178.9330  140.3220 C   0  0  0  0  0  3  0  0  0  0  0  0
  182.8400  179.0120  141.5490 C   0  0  0  0  0  0  0  0  0  0  0  0
  181.3410  179.1050  141.4080 C   0  0  0  0  0  2  0  0  0  0  0  0
  189.8200  177.8860  140.6860 O   0  0  0  0  0  0  0  0  0  0  0  0
  188.9390  177.7630  139.7930 C   0  0  0  0  0  0  0  0  0  0  0  0
  187.5740  178.0690  140.0990 N   0  0  0  0  0  2  0  0  0  0  0  0
  190.0270  176.3650  135.8820 C   0  0  0  0  0  0  0  0  0  0  0  0
  189.8950  176.0480  138.2750 C   0  0  0  0  0  3  0  0  0  0  0  0
  188.4930  179.3610  137.3720 O   0  0  0  0  0  1  0  0  0  0  0  0
  190.3750  175.9090  134.6550 F   0  0  0  0  0  0  0  0  0  0  0  0
  190.2550  175.5760  137.0100 C   0  0  0  0  0  3  0  0  0  0  0  0
  189.0750  178.1020  137.2810 C   0  0  0  0  0  0  0  0  0  0  0  0
  189.3020  177.3110  138.4310 C   0  0  0  0  0  0  0  0  0  0  0  0
  189.4380  177.6230  136.0180 C   0  0  0  0  0  3  0  0  0  0  0  0
  1  9  1  0  0  0  0
  2  3  1  0  0  0  0
  2  5  1  0  0  0  0
  3  7  1  0  0  0  0
  4  7  1  0  0  0  0
  5 14  1  0  0  0  0
  6  1  1  0  0  0  0
  8 23  1  6  0  0  0
  8 13  1  0  0  0  0
  8 12  1  0  0  0  0
 10 19  1  0  0  0  0
 11  4  1  0  0  0  0
 12 16  1  0  0  0  0
 13  2  2  0  0  0  0
 14  1  2  0  0  0  0
 15 11  1  0  0  0  0
 16  5  2  0  0  0  0
 16 17  1  0  0  0  0
 17  6  2  0  0  0  0
 18 10  2  0  0  0  0
 18 13  1  0  0  0  0
 19  3  2  0  0  0  0
 20 19  1  0  0  0  0
 20 15  1  0  0  0  0
 22 23  1  0  0  0  0
 22 21  2  0  0  0  0
 24 31  2  0  0  0  0
 24 28  1  0  0  0  0
 25 30  1  0  0  0  0
 27 24  1  0  0  0  0
 28 25  2  0  0  0  0
 29 26  1  0  0  0  0
 29 30  2  0  0  0  0
 30 22  1  0  0  0  0
 31 29  1  0  0  0  0
M  END
>  <MODEL>
7

>  <REMARK>
 VINA RESULT:      -9.4      2.199      3.399
  Name = 
  2 active torsions:
  status: ('A' for Active; 'I' for Inactive)
    1  A    between atoms: C_9  and  C_22
    2  A    between atoms: C_15  and  N_23
                            x       y       z     vdW  Elec       q    Type
                         _______ _______ _______ _____ _____    ______ ____

>  <TORSDO>
F 2

$$$$
=
 OpenBabel10262419263D

 31 35  0  0  1  0  0  0  0  0999 V2000
  183.6190  179.3970  139.8540 C   0  0  0  0  0  0  0  0  0  0  0  0
  187.1970  178.0810  140.2340 C   0  0  0  0  0  0  0  0  0  0  0  0
  187.7220  177.8700  138.9210 C   0  0  0  0  0  0  0  0  0  0  0  0
  187.0490  176.9230  136.6690 C   0  0  0  0  0  2  0  0  0  0  0  0
  185.7630  178.4400  140.5140 C   0  0  0  0  0  0  0  0  0  0  0  0
  183.1130  179.1720  141.1350 C   0  0  0  0  0  3  0  0  0  0  0  0
  186.8080  177.9920  137.7230 C   0  0  0  0  0  2  0  0  0  0  0  0
  187.5310  178.1380  142.7590 C   0  0  2  0  0  3  0  0  0  0  0  0
  182.7590  180.0170  138.8140 C   0  0  0  0  0  1  0  0  0  0  0  0
  189.9340  177.5170  139.8870 C   0  0  0  0  0  3  0  0  0  0  0  0
  188.0720  177.4040  135.6420 C   0  0  0  0  0  2  0  0  0  0  0  0
  186.0940  177.6360  142.8770 C   0  0  0  0  0  2  0  0  0  0  0  0
  188.0560  177.9280  141.3540 C   0  0  0  0  0  0  0  0  0  0  0  0
  184.9340  179.0400  139.5510 C   0  0  0  0  0  3  0  0  0  0  0  0
  189.2750  178.0970  136.2810 C   0  0  0  0  0  2  0  0  0  0  0  0
  185.2450  178.2500  141.8140 C   0  0  0  0  0  0  0  0  0  0  0  0
  183.9260  178.5990  142.1140 C   0  0  0  0  0  3  0  0  0  0  0  0
  189.4170  177.6800  141.1620 C   0  0  0  0  0  3  0  0  0  0  0  0
  189.1180  177.6100  138.7640 C   0  0  0  0  0  0  0  0  0  0  0  0
  189.7990  177.2910  137.4570 C   0  0  0  0  0  2  0  0  0  0  0  0
  189.8720  179.2190  143.9700 O   0  0  0  0  0  0  0  0  0  0  0  0
  189.5240  178.0610  144.3290 C   0  0  0  0  0  0  0  0  0  0  0  0
  188.3640  177.4580  143.7460 N   0  0  0  0  0  2  0  0  0  0  0  0
  191.7360  175.9500  147.3430 C   0  0  0  0  0  0  0  0  0  0  0  0
  189.9980  177.5030  146.7010 C   0  0  0  0  0  3  0  0  0  0  0  0
  191.7020  176.2080  143.6710 O   0  0  0  0  0  1  0  0  0  0  0  0
  192.4240  175.2910  148.3060 F   0  0  0  0  0  0  0  0  0  0  0  0
  190.7060  176.8240  147.6940 C   0  0  0  0  0  3  0  0  0  0  0  0
  191.3500  176.4300  144.9980 C   0  0  0  0  0  0  0  0  0  0  0  0
  190.3060  177.3180  145.3430 C   0  0  0  0  0  0  0  0  0  0  0  0
  192.0560  175.7540  145.9990 C   0  0  0  0  0  3  0  0  0  0  0  0
  1  6  1  0  0  0  0
  2  5  1  0  0  0  0
  2 13  1  0  0  0  0
  3  2  2  0  0  0  0
  4  7  1  0  0  0  0
  5 16  2  0  0  0  0
  6 17  2  0  0  0  0
  7  3  1  0  0  0  0
  8 12  1  0  0  0  0
  8 23  1  1  0  0  0
  9  1  1  0  0  0  0
 10 18  1  0  0  0  0
 11 15  1  0  0  0  0
 11  4  1  0  0  0  0
 13  8  1  0  0  0  0
 14  1  2  0  0  0  0
 14  5  1  0  0  0  0
 15 20  1  0  0  0  0
 16 17  1  0  0  0  0
 16 12  1  0  0  0  0
 18 13  2  0  0  0  0
 19  3  1  0  0  0  0
 19 10  2  0  0  0  0
 20 19  1  0  0  0  0
 21 22  2  0  0  0  0
 22 30  1  0  0  0  0
 23 22  1  0  0  0  0
 24 28  1  0  0  0  0
 24 27  1  0  0  0  0
 25 28  2  0  0  0  0
 26 29  1  0  0  0  0
 29 30  2  0  0  0  0
 29 31  1  0  0  0  0
 30 25  1  0  0  0  0
 31 24  2  0  0  0  0
M  END
>  <MODEL>
8

>  <REMARK>
 VINA RESULT:      -9.0      3.330      7.690
  Name = 
  2 active torsions:
  status: ('A' for Active; 'I' for Inactive)
    1  A    between atoms: C_9  and  C_22
    2  A    between atoms: C_15  and  N_23
                            x       y       z     vdW  Elec       q    Type
                         _______ _______ _______ _____ _____    ______ ____

>  <TORSDO>
F 2

$$$$
=
 OpenBabel10262419263D

 31 35  0  0  1  0  0  0  0  0999 V2000
  182.6500  179.1010  140.7550 C   0  0  0  0  0  0  0  0  0  0  0  0
  186.3860  178.3500  140.3570 C   0  0  0  0  0  0  0  0  0  0  0  0
  186.6510  178.2010  138.9590 C   0  0  0  0  0  0  0  0  0  0  0  0
  185.6740  177.1290  136.8810 C   0  0  0  0  0  2  0  0  0  0  0  0
  185.0050  178.4900  140.9360 C   0  0  0  0  0  0  0  0  0  0  0  0
  182.4630  178.8200  142.1090 C   0  0  0  0  0  3  0  0  0  0  0  0
  185.4990  178.1640  137.9810 C   0  0  0  0  0  2  0  0  0  0  0  0
  187.2280  178.4950  142.7570 C   0  0  2  0  0  3  0  0  0  0  0  0
  181.5080  179.5660  139.9270 C   0  0  0  0  0  1  0  0  0  0  0  0
  189.0430  178.2030  139.4360 C   0  0  0  0  0  3  0  0  0  0  0  0
  186.3740  177.7440  135.6720 C   0  0  0  0  0  2  0  0  0  0  0  0
  185.9410  177.7820  143.1640 C   0  0  0  0  0  2  0  0  0  0  0  0
  187.4740  178.3460  141.2700 C   0  0  0  0  0  0  0  0  0  0  0  0
  183.9120  178.9430  140.1780 C   0  0  0  0  0  3  0  0  0  0  0  0
  187.5650  178.6220  136.0570 C   0  0  0  0  0  2  0  0  0  0  0  0
  184.8050  178.2440  142.3120 C   0  0  0  0  0  0  0  0  0  0  0  0
  183.5400  178.3930  142.8860 C   0  0  0  0  0  3  0  0  0  0  0  0
  188.7860  178.3050  140.7940 C   0  0  0  0  0  3  0  0  0  0  0  0
  188.0060  178.1540  138.5100 C   0  0  0  0  0  0  0  0  0  0  0  0
  188.4390  177.9220  137.0840 C   0  0  0  0  0  2  0  0  0  0  0  0
  187.2900  178.2530  145.5940 O   0  0  0  0  0  0  0  0  0  0  0  0
  188.3080  177.8570  144.9630 C   0  0  0  0  0  0  0  0  0  0  0  0
  188.3420  177.9650  143.5360 N   0  0  0  0  0  2  0  0  0  0  0  0
  191.7180  176.1830  146.9620 C   0  0  0  0  0  0  0  0  0  0  0  0
  190.5670  176.8280  144.9380 C   0  0  0  0  0  3  0  0  0  0  0  0
  188.4550  177.6150  147.8840 O   0  0  0  0  0  1  0  0  0  0  0  0
  192.8020  175.6530  147.5780 F   0  0  0  0  0  0  0  0  0  0  0  0
  191.6850  176.2820  145.5710 C   0  0  0  0  0  3  0  0  0  0  0  0
  189.5130  177.1810  147.0930 C   0  0  0  0  0  0  0  0  0  0  0  0
  189.4680  177.2850  145.6840 C   0  0  0  0  0  0  0  0  0  0  0  0
  190.6360  176.6320  147.7200 C   0  0  0  0  0  3  0  0  0  0  0  0
  1  6  1  0  0  0  0
  2  5  1  0  0  0  0
  2 13  1  0  0  0  0
  3  2  2  0  0  0  0
  4  7  1  0  0  0  0
  5 16  2  0  0  0  0
  6 17  2  0  0  0  0
  7  3  1  0  0  0  0
  8 12  1  0  0  0  0
  8 23  1  1  0  0  0
  9  1  1  0  0  0  0
 10 18  1  0  0  0  0
 11 15  1  0  0  0  0
 11  4  1  0  0  0  0
 13  8  1  0  0  0  0
 14  1  2  0  0  0  0
 14  5  1  0  0  0  0
 15 20  1  0  0  0  0
 16 17  1  0  0  0  0
 16 12  1  0  0  0  0
 18 13  2  0  0  0  0
 19  3  1  0  0  0  0
 19 10  2  0  0  0  0
 20 19  1  0  0  0  0
 22 21  2  0  0  0  0
 22 30  1  0  0  0  0
 23 22  1  0  0  0  0
 24 27  1  0  0  0  0
 24 31  1  0  0  0  0
 25 28  1  0  0  0  0
 25 30  2  0  0  0  0
 28 24  2  0  0  0  0
 29 31  2  0  0  0  0
 29 26  1  0  0  0  0
 30 29  1  0  0  0  0
M  END
>  <MODEL>
9

>  <REMARK>
 VINA RESULT:      -9.0      3.884      7.839
  Name = 
  2 active torsions:
  status: ('A' for Active; 'I' for Inactive)
    1  A    between atoms: C_9  and  C_22
    2  A    between atoms: C_15  and  N_23
                            x       y       z     vdW  Elec       q    Type
                         _______ _______ _______ _____ _____    ______ ____

>  <TORSDO>
F 2

$$$$
