=
 OpenBabel10262421003D

 32 37  0  0  1  0  0  0  0  0999 V2000
  182.6780  178.8840  139.2230 C   0  0  0  0  0  0  0  0  0  0  0  0
  182.6000  178.9670  141.6580 C   0  0  0  0  0  0  0  0  0  0  0  0
  181.9940  179.1570  137.9050 C   0  0  0  0  0  2  0  0  0  0  0  0
  182.0330  179.2490  140.4160 C   0  0  0  0  0  0  0  0  0  0  0  0
  181.8930  179.3570  142.8510 N   0  0  0  0  0  0  0  0  0  0  0  0
  186.5640  177.7110  144.4140 C   0  0  0  0  0  2  0  0  0  0  0  0
  183.8620  178.3520  141.7270 C   0  0  0  0  0  0  0  0  0  0  0  0
  184.5410  178.7130  145.5000 C   0  0  0  0  0  2  0  0  0  0  0  0
  183.9820  179.0660  144.1250 C   0  0  2  0  0  3  0  0  0  0  0  0
  180.7780  180.0070  140.3680 C   0  0  0  0  0  0  0  0  0  0  0  0
  182.4590  179.0830  144.1730 C   0  0  0  0  0  2  0  0  0  0  0  0
  180.1040  180.2460  141.4540 N   0  0  0  0  0  0  0  0  0  0  0  0
  180.3280  180.5170  139.1100 N   0  0  0  0  0  2  0  0  0  0  0  0
  184.4900  177.9440  140.5390 C   0  0  0  0  0  3  0  0  0  0  0  0
  183.9060  178.1990  139.2870 C   0  0  0  0  0  0  0  0  0  0  0  0
  184.4710  178.0550  143.0770 C   0  0  2  0  0  3  0  0  0  0  0  0
  180.4640  179.6980  142.7710 C   0  0  1  0  0  3  0  0  0  0  0  0
  181.2130  180.4750  137.9470 C   0  0  0  0  0  2  0  0  0  0  0  0
  186.0660  178.7070  145.4580 C   0  0  0  0  0  2  0  0  0  0  0  0
  186.0030  178.0640  143.0390 C   0  0  0  0  0  2  0  0  0  0  0  0
  185.1800  175.7520  136.5560 C   0  0  0  0  0  0  0  0  0  0  0  0
  186.7730  178.3250  134.6150 O   0  0  0  0  0  0  0  0  0  0  0  0
  185.3240  174.5100  136.4020 O   0  0  0  0  0  0  0  0  0  0  0  0
  186.7840  178.2620  136.9600 C   0  0  0  0  0  3  0  0  0  0  0  0
  184.6020  177.7570  138.0260 C   0  0  1  0  0  3  0  0  0  0  0  0
  185.5630  176.6010  135.5110 O   0  0  0  0  0  0  0  0  0  0  0  0
  186.0190  178.2380  138.0460 C   0  0  0  0  0  3  0  0  0  0  0  0
  184.5010  176.2410  137.8080 C   0  0  1  0  0  3  0  0  0  0  0  0
  183.0410  175.8080  137.7660 C   0  0  0  0  0  1  0  0  0  0  0  0
  186.3530  177.7480  135.6530 C   0  0  0  0  0  0  0  0  0  0  0  0
  179.6210  178.4650  143.0590 C   0  0  0  0  0  2  0  0  0  0  0  0
  178.9320  178.6300  144.2600 O   0  0  0  0  0  1  0  0  0  0  0  0
  1 15  2  0  0  0  0
  1  4  1  0  0  0  0
  2  7  1  0  0  0  0
  2  5  1  0  0  0  0
  3 18  1  0  0  0  0
  3  1  1  0  0  0  0
  4  2  2  0  0  0  0
  5 11  1  0  0  0  0
  6 19  1  0  0  0  0
  7 16  1  0  0  0  0
  9 11  1  1  0  0  0
  9  8  1  0  0  0  0
 10  4  1  0  0  0  0
 10 12  2  0  0  0  0
 12 17  1  0  0  0  0
 13 10  1  0  0  0  0
 14  7  2  0  0  0  0
 15 14  1  0  0  0  0
 16 20  1  6  0  0  0
 16  9  1  0  0  0  0
 17  5  1  0  0  0  0
 17 31  1  6  0  0  0
 18 13  1  0  0  0  0
 19  8  1  0  0  0  0
 20  6  1  0  0  0  0
 21 28  1  0  0  0  0
 22 30  2  0  0  0  0
 23 21  2  0  0  0  0
 24 27  2  0  0  0  0
 25 27  1  0  0  0  0
 25 15  1  1  0  0  0
 26 30  1  0  0  0  0
 26 21  1  0  0  0  0
 28 29  1  6  0  0  0
 28 25  1  0  0  0  0
 30 24  1  0  0  0  0
 31 32  1  0  0  0  0
M  END
>  <MODEL>
1

>  <REMARK>
 VINA RESULT:      -8.2      0.000      0.000
  Name = 
  2 active torsions:
  status: ('A' for Active; 'I' for Inactive)
    1  A    between atoms: C_13  and  C_29
    2  A    between atoms: C_16  and  C_27
                            x       y       z     vdW  Elec       q    Type
                         _______ _______ _______ _____ _____    ______ ____

>  <TORSDO>
F 2

$$$$
=
 OpenBabel10262421003D

 32 37  0  0  1  0  0  0  0  0999 V2000
  187.5170  178.0090  141.4070 C   0  0  0  0  0  0  0  0  0  0  0  0
  185.1940  178.2650  140.7160 C   0  0  0  0  0  0  0  0  0  0  0  0
  188.9680  177.8750  141.0110 C   0  0  0  0  0  2  0  0  0  0  0  0
  186.5500  178.1910  140.4040 C   0  0  0  0  0  0  0  0  0  0  0  0
  184.2420  178.4460  139.6490 N   0  0  0  0  0  0  0  0  0  0  0  0
  181.5600  178.9200  144.0710 C   0  0  0  0  0  2  0  0  0  0  0  0
  184.7800  178.2070  142.0590 C   0  0  0  0  0  0  0  0  0  0  0  0
  181.0680  179.1320  141.6240 C   0  0  0  0  0  2  0  0  0  0  0  0
  182.5640  179.1150  141.3260 C   0  0  2  0  0  3  0  0  0  0  0  0
  186.9670  178.3860  139.0110 C   0  0  0  0  0  0  0  0  0  0  0  0
  182.8100  178.5340  139.9380 C   0  0  0  0  0  2  0  0  0  0  0  0
  186.0860  178.4320  138.0550 N   0  0  0  0  0  0  0  0  0  0  0  0
  188.3560  178.5650  138.7260 N   0  0  0  0  0  2  0  0  0  0  0  0
  185.7380  177.9790  143.0590 C   0  0  0  0  0  3  0  0  0  0  0  0
  187.1040  177.8730  142.7450 C   0  0  0  0  0  0  0  0  0  0  0  0
  183.3090  178.2920  142.3890 C   0  0  2  0  0  3  0  0  0  0  0  0
  184.6500  178.1880  138.2600 C   0  0  1  0  0  3  0  0  0  0  0  0
  189.3040  178.7760  139.8180 C   0  0  0  0  0  2  0  0  0  0  0  0
  180.8180  179.7250  143.0070 C   0  0  0  0  0  2  0  0  0  0  0  0
  183.0560  178.9020  143.7710 C   0  0  0  0  0  2  0  0  0  0  0  0
  188.5080  177.6840  146.3590 C   0  0  0  0  0  0  0  0  0  0  0  0
  191.7770  176.6090  145.3180 O   0  0  0  0  0  0  0  0  0  0  0  0
  188.1890  178.0800  147.5110 O   0  0  0  0  0  0  0  0  0  0  0  0
  190.5030  178.2100  144.1720 C   0  0  0  0  0  3  0  0  0  0  0  0
  188.1130  177.6350  143.8370 C   0  0  1  0  0  3  0  0  0  0  0  0
  189.6980  176.9630  146.2080 O   0  0  0  0  0  0  0  0  0  0  0  0
  189.3460  178.4370  143.5590 C   0  0  0  0  0  3  0  0  0  0  0  0
  187.5350  177.9130  145.2320 C   0  0  1  0  0  3  0  0  0  0  0  0
  186.3030  177.0520  145.4770 C   0  0  0  0  0  1  0  0  0  0  0  0
  190.6750  177.2120  145.2360 C   0  0  0  0  0  0  0  0  0  0  0  0
  184.3180  176.7510  137.8820 C   0  0  0  0  0  2  0  0  0  0  0  0
  185.0770  176.3630  136.7790 O   0  0  0  0  0  1  0  0  0  0  0  0
  1 15  1  0  0  0  0
  2  7  2  0  0  0  0
  3  1  1  0  0  0  0
  4  2  1  0  0  0  0
  4  1  2  0  0  0  0
  5 11  1  0  0  0  0
  5  2  1  0  0  0  0
  7 16  1  0  0  0  0
  7 14  1  0  0  0  0
  8 19  1  0  0  0  0
  9 11  1  6  0  0  0
  9  8  1  0  0  0  0
  9 16  1  0  0  0  0
 10  4  1  0  0  0  0
 12 17  1  0  0  0  0
 12 10  2  0  0  0  0
 13 10  1  0  0  0  0
 13 18  1  0  0  0  0
 15 14  2  0  0  0  0
 16 20  1  1  0  0  0
 17 31  1  1  0  0  0
 17  5  1  0  0  0  0
 18  3  1  0  0  0  0
 19  6  1  0  0  0  0
 20  6  1  0  0  0  0
 21 23  2  0  0  0  0
 24 30  1  0  0  0  0
 25 15  1  6  0  0  0
 25 28  1  0  0  0  0
 26 21  1  0  0  0  0
 27 25  1  0  0  0  0
 27 24  2  0  0  0  0
 28 29  1  1  0  0  0
 28 21  1  0  0  0  0
 30 22  2  0  0  0  0
 30 26  1  0  0  0  0
 32 31  1  0  0  0  0
M  END
>  <MODEL>
2

>  <REMARK>
 VINA RESULT:      -7.4      4.195      7.184
  Name = 
  2 active torsions:
  status: ('A' for Active; 'I' for Inactive)
    1  A    between atoms: C_13  and  C_29
    2  A    between atoms: C_16  and  C_27
                            x       y       z     vdW  Elec       q    Type
                         _______ _______ _______ _____ _____    ______ ____

>  <TORSDO>
F 2

$$$$
=
 OpenBabel10262421003D

 32 37  0  0  1  0  0  0  0  0999 V2000
  186.5100  178.2220  145.4600 C   0  0  0  0  0  0  0  0  0  0  0  0
  188.8110  177.5700  144.9910 C   0  0  0  0  0  0  0  0  0  0  0  0
  185.4620  178.5950  146.4820 C   0  0  0  0  0  2  0  0  0  0  0  0
  187.8230  177.9710  145.8890 C   0  0  0  0  0  0  0  0  0  0  0  0
  190.1410  177.3180  145.4840 N   0  0  0  0  0  0  0  0  0  0  0  0
  190.4570  177.0980  140.3050 C   0  0  0  0  0  2  0  0  0  0  0  0
  188.5090  177.4610  143.6220 C   0  0  0  0  0  0  0  0  0  0  0  0
  192.0600  176.9440  142.2250 C   0  0  0  0  0  2  0  0  0  0  0  0
  190.9720  177.4500  143.1680 C   0  0  2  0  0  3  0  0  0  0  0  0
  188.1940  178.2040  147.2890 C   0  0  0  0  0  0  0  0  0  0  0  0
  191.2060  176.9010  144.5710 C   0  0  0  0  0  2  0  0  0  0  0  0
  189.3680  177.8610  147.7310 N   0  0  0  0  0  0  0  0  0  0  0  0
  187.2570  178.8540  148.1510 N   0  0  0  0  0  2  0  0  0  0  0  0
  187.1870  177.6660  143.1960 C   0  0  0  0  0  3  0  0  0  0  0  0
  186.1830  178.0400  144.1040 C   0  0  0  0  0  0  0  0  0  0  0  0
  189.5860  177.0300  142.6550 C   0  0  2  0  0  3  0  0  0  0  0  0
  190.3580  177.1280  146.9270 C   0  0  1  0  0  3  0  0  0  0  0  0
  186.0550  179.4700  147.5910 C   0  0  0  0  0  2  0  0  0  0  0  0
  191.8350  177.5030  140.8230 C   0  0  0  0  0  2  0  0  0  0  0  0
  189.3700  177.6020  141.2500 C   0  0  0  0  0  2  0  0  0  0  0  0
  183.3400  179.0460  141.6590 C   0  0  0  0  0  0  0  0  0  0  0  0
  180.7050  178.2440  143.9690 O   0  0  0  0  0  0  0  0  0  0  0  0
  183.2120  179.6830  140.5800 O   0  0  0  0  0  0  0  0  0  0  0  0
  182.7230  179.2640  144.5930 C   0  0  0  0  0  3  0  0  0  0  0  0
  184.7730  178.2620  143.6200 C   0  0  1  0  0  3  0  0  0  0  0  0
  182.1940  178.5020  142.2500 O   0  0  0  0  0  0  0  0  0  0  0  0
  184.0460  179.1380  144.5910 C   0  0  0  0  0  3  0  0  0  0  0  0
  184.7300  178.8120  142.1880 C   0  0  1  0  0  3  0  0  0  0  0  0
  185.4570  177.8710  141.2360 C   0  0  0  0  0  1  0  0  0  0  0  0
  181.8460  178.6270  143.6010 C   0  0  0  0  0  0  0  0  0  0  0  0
  190.2960  175.6460  147.2680 C   0  0  0  0  0  2  0  0  0  0  0  0
  191.5420  175.2100  147.7180 O   0  0  0  0  0  1  0  0  0  0  0  0
  1  4  1  0  0  0  0
  1  3  1  0  0  0  0
  2  5  1  0  0  0  0
  2  4  2  0  0  0  0
  3 18  1  0  0  0  0
  4 10  1  0  0  0  0
  5 17  1  0  0  0  0
  6 19  1  0  0  0  0
  6 20  1  0  0  0  0
  7  2  1  0  0  0  0
  9  8  1  6  0  0  0
  9 11  1  0  0  0  0
 10 12  2  0  0  0  0
 10 13  1  0  0  0  0
 11  5  1  0  0  0  0
 14  7  2  0  0  0  0
 14 15  1  0  0  0  0
 15  1  2  0  0  0  0
 16 20  1  6  0  0  0
 16  9  1  0  0  0  0
 16  7  1  0  0  0  0
 17 31  1  6  0  0  0
 17 12  1  0  0  0  0
 18 13  1  0  0  0  0
 19  8  1  0  0  0  0
 21 28  1  0  0  0  0
 21 26  1  0  0  0  0
 23 21  2  0  0  0  0
 25 15  1  1  0  0  0
 25 27  1  0  0  0  0
 26 30  1  0  0  0  0
 27 24  2  0  0  0  0
 28 29  1  6  0  0  0
 28 25  1  0  0  0  0
 30 22  2  0  0  0  0
 30 24  1  0  0  0  0
 31 32  1  0  0  0  0
M  END
>  <MODEL>
3

>  <REMARK>
 VINA RESULT:      -7.1      4.647      8.351
  Name = 
  2 active torsions:
  status: ('A' for Active; 'I' for Inactive)
    1  A    between atoms: C_13  and  C_29
    2  A    between atoms: C_16  and  C_27
                            x       y       z     vdW  Elec       q    Type
                         _______ _______ _______ _____ _____    ______ ____

>  <TORSDO>
F 2

$$$$
=
 OpenBabel10262421003D

 32 37  0  0  1  0  0  0  0  0999 V2000
  184.1750  178.7320  141.7270 C   0  0  0  0  0  0  0  0  0  0  0  0
  186.4890  178.2180  141.1600 C   0  0  0  0  0  0  0  0  0  0  0  0
  183.1340  178.9640  142.7960 C   0  0  0  0  0  2  0  0  0  0  0  0
  185.5050  178.4930  142.1090 C   0  0  0  0  0  0  0  0  0  0  0  0
  187.8370  177.9740  141.6060 N   0  0  0  0  0  0  0  0  0  0  0  0
  188.0590  178.2590  136.4250 C   0  0  0  0  0  2  0  0  0  0  0  0
  186.1640  178.2280  139.7920 C   0  0  0  0  0  0  0  0  0  0  0  0
  189.7040  177.9870  138.2950 C   0  0  0  0  0  2  0  0  0  0  0  0
  188.6170  178.3580  139.3000 C   0  0  2  0  0  3  0  0  0  0  0  0
  185.8940  178.6070  143.5180 C   0  0  0  0  0  0  0  0  0  0  0  0
  188.8990  177.6880  140.6390 C   0  0  0  0  0  2  0  0  0  0  0  0
  187.0890  178.2700  143.9060 N   0  0  0  0  0  0  0  0  0  0  0  0
  184.9510  179.1340  144.4530 N   0  0  0  0  0  2  0  0  0  0  0  0
  184.8280  178.4200  139.4090 C   0  0  0  0  0  3  0  0  0  0  0  0
  183.8280  178.6660  140.3650 C   0  0  0  0  0  0  0  0  0  0  0  0
  187.2370  177.9340  138.7710 C   0  0  2  0  0  3  0  0  0  0  0  0
  188.0900  177.6560  143.0200 C   0  0  1  0  0  3  0  0  0  0  0  0
  183.7160  179.7530  143.9740 C   0  0  0  0  0  2  0  0  0  0  0  0
  189.4300  178.6670  136.9570 C   0  0  0  0  0  2  0  0  0  0  0  0
  186.9720  178.6280  137.4310 C   0  0  0  0  0  2  0  0  0  0  0  0
  180.4080  177.8160  138.7360 C   0  0  0  0  0  0  0  0  0  0  0  0
  178.9320  180.9940  139.5420 O   0  0  0  0  0  0  0  0  0  0  0  0
  179.9310  176.9550  137.9510 O   0  0  0  0  0  0  0  0  0  0  0  0
  181.1550  180.7260  138.8430 C   0  0  0  0  0  3  0  0  0  0  0  0
  182.4010  178.8770  139.9270 C   0  0  1  0  0  3  0  0  0  0  0  0
  179.5570  178.8150  139.2240 O   0  0  0  0  0  0  0  0  0  0  0  0
  182.3100  180.1280  139.1120 C   0  0  0  0  0  3  0  0  0  0  0  0
  181.8340  177.6550  139.1900 C   0  0  1  0  0  3  0  0  0  0  0  0
  181.9230  176.4160  140.0710 C   0  0  0  0  0  1  0  0  0  0  0  0
  179.8490  180.1850  139.2410 C   0  0  0  0  0  0  0  0  0  0  0  0
  188.0900  176.1470  143.2180 C   0  0  0  0  0  2  0  0  0  0  0  0
  189.4010  175.6690  143.2190 O   0  0  0  0  0  1  0  0  0  0  0  0
  1  4  1  0  0  0  0
  1  3  1  0  0  0  0
  2  5  1  0  0  0  0
  2  4  2  0  0  0  0
  3 18  1  0  0  0  0
  4 10  1  0  0  0  0
  5 17  1  0  0  0  0
  6 19  1  0  0  0  0
  6 20  1  0  0  0  0
  7  2  1  0  0  0  0
  9  8  1  6  0  0  0
  9 11  1  0  0  0  0
 10 12  2  0  0  0  0
 10 13  1  0  0  0  0
 11  5  1  0  0  0  0
 14  7  2  0  0  0  0
 14 15  1  0  0  0  0
 15  1  2  0  0  0  0
 16 20  1  6  0  0  0
 16  9  1  0  0  0  0
 16  7  1  0  0  0  0
 17 31  1  6  0  0  0
 17 12  1  0  0  0  0
 18 13  1  0  0  0  0
 19  8  1  0  0  0  0
 21 28  1  0  0  0  0
 21 26  1  0  0  0  0
 23 21  2  0  0  0  0
 24 27  2  0  0  0  0
 24 30  1  0  0  0  0
 25 15  1  6  0  0  0
 26 30  1  0  0  0  0
 27 25  1  0  0  0  0
 28 25  1  0  0  0  0
 28 29  1  1  0  0  0
 30 22  2  0  0  0  0
 31 32  1  0  0  0  0
M  END
>  <MODEL>
4

>  <REMARK>
 VINA RESULT:      -7.1      3.255      6.426
  Name = 
  2 active torsions:
  status: ('A' for Active; 'I' for Inactive)
    1  A    between atoms: C_13  and  C_29
    2  A    between atoms: C_16  and  C_27
                            x       y       z     vdW  Elec       q    Type
                         _______ _______ _______ _____ _____    ______ ____

>  <TORSDO>
F 2

$$$$
=
 OpenBabel10262421003D

 32 37  0  0  1  0  0  0  0  0999 V2000
  190.1270  177.2450  141.1660 C   0  0  0  0  0  0  0  0  0  0  0  0
  188.4350  177.5330  139.4350 C   0  0  0  0  0  0  0  0  0  0  0  0
  191.5540  176.9060  141.5250 C   0  0  0  0  0  2  0  0  0  0  0  0
  189.7530  177.2790  139.8130 C   0  0  0  0  0  0  0  0  0  0  0  0
  188.1030  177.5500  138.0330 N   0  0  0  0  0  0  0  0  0  0  0  0
  183.8700  179.2150  140.5400 C   0  0  0  0  0  2  0  0  0  0  0  0
  187.4670  177.8090  140.4170 C   0  0  0  0  0  0  0  0  0  0  0  0
  184.5590  178.9180  138.1490 C   0  0  0  0  0  2  0  0  0  0  0  0
  186.0030  178.7120  138.5950 C   0  0  2  0  0  3  0  0  0  0  0  0
  190.7700  177.1240  138.7670 C   0  0  0  0  0  0  0  0  0  0  0  0
  186.7310  177.8180  137.5980 C   0  0  0  0  0  2  0  0  0  0  0  0
  190.4270  177.0300  137.5160 N   0  0  0  0  0  0  0  0  0  0  0  0
  192.1490  177.1200  139.1420 N   0  0  0  0  0  2  0  0  0  0  0  0
  187.8260  177.7300  141.7720 C   0  0  0  0  0  3  0  0  0  0  0  0
  189.1470  177.4440  142.1560 C   0  0  0  0  0  0  0  0  0  0  0  0
  186.0420  178.0860  139.9990 C   0  0  2  0  0  3  0  0  0  0  0  0
  189.0310  176.9570  137.0580 C   0  0  1  0  0  3  0  0  0  0  0  0
  192.5370  177.4890  140.5030 C   0  0  0  0  0  2  0  0  0  0  0  0
  183.8310  179.8220  139.1400 C   0  0  0  0  0  2  0  0  0  0  0  0
  185.3150  179.0070  140.9850 C   0  0  0  0  0  2  0  0  0  0  0  0
  188.6120  177.5670  145.9990 C   0  0  0  0  0  0  0  0  0  0  0  0
  192.0510  176.8510  146.7680 O   0  0  0  0  0  0  0  0  0  0  0  0
  187.7380  177.9660  146.8120 O   0  0  0  0  0  0  0  0  0  0  0  0
  191.3690  178.2420  145.0070 C   0  0  0  0  0  3  0  0  0  0  0  0
  189.5090  177.3710  143.6170 C   0  0  1  0  0  3  0  0  0  0  0  0
  189.7810  176.9880  146.5090 O   0  0  0  0  0  0  0  0  0  0  0  0
  190.6450  178.3040  143.8940 C   0  0  0  0  0  3  0  0  0  0  0  0
  188.3000  177.6330  144.5270 C   0  0  1  0  0  3  0  0  0  0  0  0
  187.1850  176.6410  144.2260 C   0  0  0  0  0  1  0  0  0  0  0  0
  191.0830  177.3150  146.1100 C   0  0  0  0  0  0  0  0  0  0  0  0
  188.6530  175.5050  136.8020 C   0  0  0  0  0  2  0  0  0  0  0  0
  188.3340  175.3280  135.4560 O   0  0  0  0  0  1  0  0  0  0  0  0
  1  3  1  0  0  0  0
  1 15  1  0  0  0  0
  2  4  1  0  0  0  0
  2  7  2  0  0  0  0
  4  1  2  0  0  0  0
  5  2  1  0  0  0  0
  6 20  1  0  0  0  0
  7 14  1  0  0  0  0
  8  9  1  0  0  0  0
  8 19  1  0  0  0  0
  9 11  1  6  0  0  0
  9 16  1  0  0  0  0
 10 13  1  0  0  0  0
 10  4  1  0  0  0  0
 11  5  1  0  0  0  0
 12 10  2  0  0  0  0
 13 18  1  0  0  0  0
 14 15  2  0  0  0  0
 16  7  1  0  0  0  0
 16 20  1  1  0  0  0
 17 31  1  1  0  0  0
 17 12  1  0  0  0  0
 17  5  1  0  0  0  0
 18  3  1  0  0  0  0
 19  6  1  0  0  0  0
 21 26  1  0  0  0  0
 21 23  2  0  0  0  0
 24 30  1  0  0  0  0
 25 15  1  6  0  0  0
 25 27  1  0  0  0  0
 25 28  1  0  0  0  0
 27 24  2  0  0  0  0
 28 29  1  1  0  0  0
 28 21  1  0  0  0  0
 30 26  1  0  0  0  0
 30 22  2  0  0  0  0
 32 31  1  0  0  0  0
M  END
>  <MODEL>
5

>  <REMARK>
 VINA RESULT:      -7.0      5.476      9.015
  Name = 
  2 active torsions:
  status: ('A' for Active; 'I' for Inactive)
    1  A    between atoms: C_13  and  C_29
    2  A    between atoms: C_16  and  C_27
                            x       y       z     vdW  Elec       q    Type
                         _______ _______ _______ _____ _____    ______ ____

>  <TORSDO>
F 2

$$$$
=
 OpenBabel10262421003D

 32 37  0  0  1  0  0  0  0  0999 V2000
  185.7550  178.0660  143.4700 C   0  0  0  0  0  0  0  0  0  0  0  0
  187.7530  177.8180  142.0970 C   0  0  0  0  0  0  0  0  0  0  0  0
  185.1360  178.0840  144.8470 C   0  0  0  0  0  2  0  0  0  0  0  0
  187.1440  177.8970  143.3480 C   0  0  0  0  0  0  0  0  0  0  0  0
  189.1810  177.6370  142.0270 N   0  0  0  0  0  0  0  0  0  0  0  0
  187.6020  178.5430  137.1630 C   0  0  0  0  0  2  0  0  0  0  0  0
  186.9790  177.9600  140.9320 C   0  0  0  0  0  0  0  0  0  0  0  0
  189.7980  178.1930  138.3180 C   0  0  0  0  0  2  0  0  0  0  0  0
  189.1070  178.3520  139.6690 C   0  0  2  0  0  3  0  0  0  0  0  0
  187.9890  177.8780  144.5470 C   0  0  0  0  0  0  0  0  0  0  0  0
  189.8580  177.5560  140.7310 C   0  0  0  0  0  2  0  0  0  0  0  0
  189.2560  177.5990  144.4630 N   0  0  0  0  0  0  0  0  0  0  0  0
  187.4030  178.2120  145.8080 N   0  0  0  0  0  2  0  0  0  0  0  0
  185.5860  178.0830  141.0480 C   0  0  0  0  0  3  0  0  0  0  0  0
  184.9650  178.1310  142.3080 C   0  0  0  0  0  0  0  0  0  0  0  0
  187.6480  177.8780  139.5800 C   0  0  2  0  0  3  0  0  0  0  0  0
  189.9150  177.1790  143.2160 C   0  0  1  0  0  3  0  0  0  0  0  0
  186.0560  178.7760  145.8600 C   0  0  0  0  0  2  0  0  0  0  0  0
  189.0560  178.9990  137.2560 C   0  0  0  0  0  2  0  0  0  0  0  0
  186.9120  178.6990  138.5160 C   0  0  0  0  0  2  0  0  0  0  0  0
  181.3260  178.7290  141.0970 C   0  0  0  0  0  0  0  0  0  0  0  0
  179.8860  178.3060  144.3630 O   0  0  0  0  0  0  0  0  0  0  0  0
  180.7380  179.1840  140.0800 O   0  0  0  0  0  0  0  0  0  0  0  0
  181.9130  179.4140  143.9640 C   0  0  0  0  0  3  0  0  0  0  0  0
  183.4680  178.2710  142.4070 C   0  0  1  0  0  3  0  0  0  0  0  0
  180.5470  178.2850  142.1730 O   0  0  0  0  0  0  0  0  0  0  0  0
  183.1320  179.2910  143.4480 C   0  0  0  0  0  3  0  0  0  0  0  0
  182.8240  178.5840  141.0490 C   0  0  1  0  0  3  0  0  0  0  0  0
  183.1720  177.5030  140.0340 C   0  0  0  0  0  1  0  0  0  0  0  0
  180.7580  178.6260  143.5140 C   0  0  0  0  0  0  0  0  0  0  0  0
  190.0430  175.6630  143.1930 C   0  0  0  0  0  2  0  0  0  0  0  0
  191.3260  175.2880  143.5930 O   0  0  0  0  0  1  0  0  0  0  0  0
  1  3  1  0  0  0  0
  2  4  2  0  0  0  0
  3 18  1  0  0  0  0
  4  1  1  0  0  0  0
  4 10  1  0  0  0  0
  5  2  1  0  0  0  0
  5 17  1  0  0  0  0
  6 19  1  0  0  0  0
  6 20  1  0  0  0  0
  7 14  2  0  0  0  0
  7  2  1  0  0  0  0
  9  8  1  6  0  0  0
  9 11  1  0  0  0  0
 10 13  1  0  0  0  0
 11  5  1  0  0  0  0
 12 10  2  0  0  0  0
 13 18  1  0  0  0  0
 14 15  1  0  0  0  0
 15  1  2  0  0  0  0
 16 20  1  6  0  0  0
 16  9  1  0  0  0  0
 16  7  1  0  0  0  0
 17 31  1  1  0  0  0
 17 12  1  0  0  0  0
 19  8  1  0  0  0  0
 21 26  1  0  0  0  0
 23 21  2  0  0  0  0
 25 15  1  6  0  0  0
 25 27  1  0  0  0  0
 26 30  1  0  0  0  0
 27 24  2  0  0  0  0
 28 29  1  6  0  0  0
 28 21  1  0  0  0  0
 28 25  1  0  0  0  0
 30 24  1  0  0  0  0
 30 22  2  0  0  0  0
 31 32  1  0  0  0  0
M  END
>  <MODEL>
6

>  <REMARK>
 VINA RESULT:      -6.8      3.839      7.728
  Name = 
  2 active torsions:
  status: ('A' for Active; 'I' for Inactive)
    1  A    between atoms: C_13  and  C_29
    2  A    between atoms: C_16  and  C_27
                            x       y       z     vdW  Elec       q    Type
                         _______ _______ _______ _____ _____    ______ ____

>  <TORSDO>
F 2

$$$$
=
 OpenBabel10262421003D

 32 37  0  0  1  0  0  0  0  0999 V2000
  188.8430  177.4080  138.2260 C   0  0  0  0  0  0  0  0  0  0  0  0
  188.3040  177.7900  140.5720 C   0  0  0  0  0  0  0  0  0  0  0  0
  188.4330  177.5260  136.7780 C   0  0  0  0  0  2  0  0  0  0  0  0
  187.9950  177.9250  139.2200 C   0  0  0  0  0  0  0  0  0  0  0  0
  187.3970  178.3330  141.5520 N   0  0  0  0  0  0  0  0  0  0  0  0
  191.6200  176.8280  144.1730 C   0  0  0  0  0  2  0  0  0  0  0  0
  189.5060  177.1710  140.9570 C   0  0  0  0  0  0  0  0  0  0  0  0
  189.4650  177.9830  144.7210 C   0  0  0  0  0  2  0  0  0  0  0  0
  189.1930  178.1720  143.2320 C   0  0  2  0  0  3  0  0  0  0  0  0
  186.8020  178.6890  138.8400 C   0  0  0  0  0  0  0  0  0  0  0  0
  187.6890  178.2160  142.9810 C   0  0  0  0  0  2  0  0  0  0  0  0
  185.9420  179.0680  139.7390 N   0  0  0  0  0  0  0  0  0  0  0  0
  186.6190  179.0460  137.4680 N   0  0  0  0  0  2  0  0  0  0  0  0
  190.3330  176.6120  139.9700 C   0  0  0  0  0  3  0  0  0  0  0  0
  190.0090  176.7200  138.6070 C   0  0  0  0  0  0  0  0  0  0  0  0
  189.8350  177.0330  142.4250 C   0  0  2  0  0  3  0  0  0  0  0  0
  186.0230  178.6810  141.1570 C   0  0  1  0  0  3  0  0  0  0  0  0
  187.7080  178.8500  136.5120 C   0  0  0  0  0  2  0  0  0  0  0  0
  190.9690  177.9510  144.9760 C   0  0  0  0  0  2  0  0  0  0  0  0
  191.3450  177.0170  142.6840 C   0  0  0  0  0  2  0  0  0  0  0  0
  191.6160  173.9510  136.4120 C   0  0  0  0  0  0  0  0  0  0  0  0
  193.8050  176.2190  134.6830 O   0  0  0  0  0  0  0  0  0  0  0  0
  191.6800  172.6930  136.3850 O   0  0  0  0  0  0  0  0  0  0  0  0
  193.3110  176.3700  136.9710 C   0  0  0  0  0  3  0  0  0  0  0  0
  190.9170  176.1170  137.5660 C   0  0  1  0  0  3  0  0  0  0  0  0
  192.2860  174.6720  135.4160 O   0  0  0  0  0  0  0  0  0  0  0  0
  192.3340  176.4980  137.8610 C   0  0  0  0  0  3  0  0  0  0  0  0
  190.7320  174.5980  137.4440 C   0  0  1  0  0  3  0  0  0  0  0  0
  189.2820  174.2650  137.1140 C   0  0  0  0  0  1  0  0  0  0  0  0
  193.1250  175.7700  135.6430 C   0  0  0  0  0  0  0  0  0  0  0  0
  185.0950  177.5030  141.4180 C   0  0  0  0  0  2  0  0  0  0  0  0
  183.7720  177.8820  141.1910 O   0  0  0  0  0  1  0  0  0  0  0  0
  1 15  2  0  0  0  0
  1  4  1  0  0  0  0
  2  7  1  0  0  0  0
  2  5  1  0  0  0  0
  3  1  1  0  0  0  0
  4  2  2  0  0  0  0
  5 11  1  0  0  0  0
  6 19  1  0  0  0  0
  7 16  1  0  0  0  0
  8 19  1  0  0  0  0
  9 11  1  1  0  0  0
  9  8  1  0  0  0  0
 10  4  1  0  0  0  0
 10 12  2  0  0  0  0
 12 17  1  0  0  0  0
 13 10  1  0  0  0  0
 14  7  2  0  0  0  0
 15 14  1  0  0  0  0
 16 20  1  6  0  0  0
 16  9  1  0  0  0  0
 17 31  1  6  0  0  0
 17  5  1  0  0  0  0
 18  3  1  0  0  0  0
 18 13  1  0  0  0  0
 20  6  1  0  0  0  0
 21 28  1  0  0  0  0
 22 30  2  0  0  0  0
 23 21  2  0  0  0  0
 24 27  2  0  0  0  0
 25 27  1  0  0  0  0
 25 15  1  1  0  0  0
 26 30  1  0  0  0  0
 26 21  1  0  0  0  0
 28 29  1  6  0  0  0
 28 25  1  0  0  0  0
 30 24  1  0  0  0  0
 32 31  1  0  0  0  0
M  END
>  <MODEL>
7

>  <REMARK>
 VINA RESULT:      -6.7      4.743      6.190
  Name = 
  2 active torsions:
  status: ('A' for Active; 'I' for Inactive)
    1  A    between atoms: C_13  and  C_29
    2  A    between atoms: C_16  and  C_27
                            x       y       z     vdW  Elec       q    Type
                         _______ _______ _______ _____ _____    ______ ____

>  <TORSDO>
F 2

$$$$
=
 OpenBabel10262421003D

 32 37  0  0  1  0  0  0  0  0999 V2000
  184.2140  178.5010  138.6910 C   0  0  0  0  0  0  0  0  0  0  0  0
  186.2000  178.1910  140.0700 C   0  0  0  0  0  0  0  0  0  0  0  0
  183.5860  178.4740  137.3180 C   0  0  0  0  0  2  0  0  0  0  0  0
  185.5620  178.1300  138.8330 C   0  0  0  0  0  0  0  0  0  0  0  0
  187.5850  177.8060  140.1610 N   0  0  0  0  0  0  0  0  0  0  0  0
  185.9620  178.5070  145.0440 C   0  0  0  0  0  2  0  0  0  0  0  0
  185.4770  178.5820  141.2110 C   0  0  0  0  0  0  0  0  0  0  0  0
  188.0730  177.7460  143.9290 C   0  0  0  0  0  2  0  0  0  0  0  0
  187.3260  177.6250  142.6050 C   0  0  2  0  0  3  0  0  0  0  0  0
  186.2990  177.5940  137.6830 C   0  0  0  0  0  0  0  0  0  0  0  0
  188.2880  177.8520  141.4440 C   0  0  0  0  0  2  0  0  0  0  0  0
  187.5770  177.3620  137.7640 N   0  0  0  0  0  0  0  0  0  0  0  0
  185.5820  177.2910  136.4840 N   0  0  0  0  0  2  0  0  0  0  0  0
  184.1440  178.9980  141.0660 C   0  0  0  0  0  3  0  0  0  0  0  0
  183.5070  178.9660  139.8140 C   0  0  0  0  0  0  0  0  0  0  0  0
  186.1740  178.6430  142.5490 C   0  0  2  0  0  3  0  0  0  0  0  0
  188.3940  177.7110  138.9360 C   0  0  1  0  0  3  0  0  0  0  0  0
  184.1210  177.3030  136.4850 C   0  0  0  0  0  2  0  0  0  0  0  0
  187.1150  177.5070  145.0920 C   0  0  0  0  0  2  0  0  0  0  0  0
  185.2160  178.3880  143.7180 C   0  0  0  0  0  2  0  0  0  0  0  0
  179.7120  178.6790  139.0490 C   0  0  0  0  0  0  0  0  0  0  0  0
  179.0090  182.0990  139.9060 O   0  0  0  0  0  0  0  0  0  0  0  0
  178.9310  177.8870  138.4590 O   0  0  0  0  0  0  0  0  0  0  0  0
  180.9340  181.4100  138.7590 C   0  0  0  0  0  3  0  0  0  0  0  0
  182.0730  179.4110  139.6850 C   0  0  1  0  0  3  0  0  0  0  0  0
  179.1740  179.8330  139.6320 O   0  0  0  0  0  0  0  0  0  0  0  0
  182.0060  180.6260  138.8140 C   0  0  0  0  0  3  0  0  0  0  0  0
  181.1580  178.2830  139.1900 C   0  0  1  0  0  3  0  0  0  0  0  0
  181.2400  177.0830  140.1250 C   0  0  0  0  0  1  0  0  0  0  0  0
  179.6840  181.1280  139.4760 C   0  0  0  0  0  0  0  0  0  0  0  0
  189.1090  179.0310  138.6850 C   0  0  0  0  0  2  0  0  0  0  0  0
  188.9200  179.4290  137.3610 O   0  0  0  0  0  1  0  0  0  0  0  0
  1  4  2  0  0  0  0
  1 15  1  0  0  0  0
  2  5  1  0  0  0  0
  2  7  2  0  0  0  0
  3  1  1  0  0  0  0
  4  2  1  0  0  0  0
  5 11  1  0  0  0  0
  6 19  1  0  0  0  0
  7 16  1  0  0  0  0
  8 19  1  0  0  0  0
  9 11  1  6  0  0  0
  9  8  1  0  0  0  0
 10 12  2  0  0  0  0
 10  4  1  0  0  0  0
 12 17  1  0  0  0  0
 13 18  1  0  0  0  0
 13 10  1  0  0  0  0
 14  7  1  0  0  0  0
 15 14  2  0  0  0  0
 16  9  1  0  0  0  0
 16 20  1  1  0  0  0
 17 31  1  6  0  0  0
 17  5  1  0  0  0  0
 18  3  1  0  0  0  0
 20  6  1  0  0  0  0
 21 28  1  0  0  0  0
 21 26  1  0  0  0  0
 23 21  2  0  0  0  0
 24 27  2  0  0  0  0
 24 30  1  0  0  0  0
 25 15  1  6  0  0  0
 27 25  1  0  0  0  0
 28 25  1  0  0  0  0
 28 29  1  1  0  0  0
 30 26  1  0  0  0  0
 30 22  2  0  0  0  0
 32 31  1  0  0  0  0
M  END
>  <MODEL>
8

>  <REMARK>
 VINA RESULT:      -6.6      3.167      5.986
  Name = 
  2 active torsions:
  status: ('A' for Active; 'I' for Inactive)
    1  A    between atoms: C_13  and  C_29
    2  A    between atoms: C_16  and  C_27
                            x       y       z     vdW  Elec       q    Type
                         _______ _______ _______ _____ _____    ______ ____

>  <TORSDO>
F 2

$$$$
=
 OpenBabel10262421003D

 32 37  0  0  1  0  0  0  0  0999 V2000
  185.7550  178.5110  142.9060 C   0  0  0  0  0  0  0  0  0  0  0  0
  185.9370  178.4430  140.4760 C   0  0  0  0  0  0  0  0  0  0  0  0
  184.9010  178.7680  144.1240 C   0  0  0  0  0  2  0  0  0  0  0  0
  185.1760  178.6160  141.6310 C   0  0  0  0  0  0  0  0  0  0  0  0
  185.2950  178.5680  139.1920 N   0  0  0  0  0  0  0  0  0  0  0  0
  190.0890  176.8130  138.2420 C   0  0  0  0  0  2  0  0  0  0  0  0
  187.2980  178.1070  140.5800 C   0  0  0  0  0  0  0  0  0  0  0  0
  188.0420  177.3110  136.8860 C   0  0  0  0  0  2  0  0  0  0  0  0
  187.2250  177.4270  138.1700 C   0  0  2  0  0  3  0  0  0  0  0  0
  183.7310  178.8360  141.4990 C   0  0  0  0  0  0  0  0  0  0  0  0
  186.0600  178.3870  137.9580 C   0  0  0  0  0  2  0  0  0  0  0  0
  183.1980  179.0590  140.3340 N   0  0  0  0  0  0  0  0  0  0  0  0
  182.9130  178.7600  142.6680 N   0  0  0  0  0  2  0  0  0  0  0  0
  187.8920  178.0460  141.8500 C   0  0  0  0  0  3  0  0  0  0  0  0
  187.1340  178.2520  143.0150 C   0  0  0  0  0  0  0  0  0  0  0  0
  188.1150  177.9160  139.3240 C   0  0  2  0  0  3  0  0  0  0  0  0
  183.9800  179.2200  139.0980 C   0  0  1  0  0  3  0  0  0  0  0  0
  183.4730  178.2530  143.9190 C   0  0  0  0  0  2  0  0  0  0  0  0
  189.2020  176.3420  137.0920 C   0  0  0  0  0  2  0  0  0  0  0  0
  189.2710  176.9310  139.5250 C   0  0  0  0  0  2  0  0  0  0  0  0
  189.9550  177.6140  145.6050 C   0  0  0  0  0  0  0  0  0  0  0  0
  187.9270  178.5150  148.4340 O   0  0  0  0  0  0  0  0  0  0  0  0
  191.0780  177.0470  145.6490 O   0  0  0  0  0  0  0  0  0  0  0  0
  187.1330  177.2990  146.5930 C   0  0  0  0  0  3  0  0  0  0  0  0
  187.7930  178.1750  144.3680 C   0  0  1  0  0  3  0  0  0  0  0  0
  189.4710  178.2220  146.7700 O   0  0  0  0  0  0  0  0  0  0  0  0
  186.9710  177.3130  145.2740 C   0  0  0  0  0  3  0  0  0  0  0  0
  189.2520  177.7040  144.2770 C   0  0  1  0  0  3  0  0  0  0  0  0
  190.0520  178.6280  143.3690 C   0  0  0  0  0  1  0  0  0  0  0  0
  188.1810  178.0570  147.2890 C   0  0  0  0  0  0  0  0  0  0  0  0
  184.1570  180.7010  138.7960 C   0  0  0  0  0  2  0  0  0  0  0  0
  182.9110  181.3230  138.7190 O   0  0  0  0  0  1  0  0  0  0  0  0
  1 15  1  0  0  0  0
  1  3  1  0  0  0  0
  2  7  2  0  0  0  0
  2  4  1  0  0  0  0
  4  1  2  0  0  0  0
  5  2  1  0  0  0  0
  6 20  1  0  0  0  0
  7 14  1  0  0  0  0
  8 19  1  0  0  0  0
  9  8  1  6  0  0  0
  9 16  1  0  0  0  0
 10  4  1  0  0  0  0
 10 13  1  0  0  0  0
 11  9  1  0  0  0  0
 11  5  1  0  0  0  0
 12 10  2  0  0  0  0
 13 18  1  0  0  0  0
 14 15  2  0  0  0  0
 16 20  1  1  0  0  0
 16  7  1  0  0  0  0
 17 31  1  1  0  0  0
 17  5  1  0  0  0  0
 17 12  1  0  0  0  0
 18  3  1  0  0  0  0
 19  6  1  0  0  0  0
 21 23  2  0  0  0  0
 21 26  1  0  0  0  0
 24 30  1  0  0  0  0
 25 15  1  6  0  0  0
 25 27  1  0  0  0  0
 26 30  1  0  0  0  0
 27 24  2  0  0  0  0
 28 29  1  6  0  0  0
 28 25  1  0  0  0  0
 28 21  1  0  0  0  0
 30 22  2  0  0  0  0
 32 31  1  0  0  0  0
M  END
>  <MODEL>
9

>  <REMARK>
 VINA RESULT:      -6.5      4.117      7.556
  Name = 
  2 active torsions:
  status: ('A' for Active; 'I' for Inactive)
    1  A    between atoms: C_13  and  C_29
    2  A    between atoms: C_16  and  C_27
                            x       y       z     vdW  Elec       q    Type
                         _______ _______ _______ _____ _____    ______ ____

>  <TORSDO>
F 2

$$$$
