=
 OpenBabel10262420093D

 27 30  0  0  1  0  0  0  0  0999 V2000
  187.3470  177.7690  144.4940 C   0  0  1  0  0  3  0  0  0  0  0  0
  185.8250  177.9580  144.4110 C   0  0  1  0  0  3  0  0  0  0  0  0
  181.7970  179.1550  143.9670 C   0  0  0  0  0  3  0  0  0  0  0  0
  179.7750  179.2250  142.6520 O   0  0  0  0  0  1  0  0  0  0  0  0
  185.2910  178.9800  145.4190 C   0  0  0  0  0  2  0  0  0  0  0  0
  183.2410  178.3980  141.6900 C   0  0  0  0  0  3  0  0  0  0  0  0
  181.8640  178.6280  141.6030 C   0  0  0  0  0  3  0  0  0  0  0  0
  183.8980  178.5380  142.9160 C   0  0  0  0  0  0  0  0  0  0  0  0
  181.1420  179.0030  142.7410 C   0  0  0  0  0  0  0  0  0  0  0  0
  183.1740  178.9360  144.0570 C   0  0  0  0  0  0  0  0  0  0  0  0
  185.3810  178.3200  142.9900 C   0  0  0  0  0  2  0  0  0  0  0  0
  183.8380  179.0670  145.3170 N   0  0  0  0  0  2  0  0  0  0  0  0
  188.9410  177.8770  148.4910 C   0  0  0  0  0  3  0  0  0  0  0  0
  187.8850  177.7980  145.8970 C   0  0  0  0  0  0  0  0  0  0  0  0
  189.2700  177.7610  146.0960 C   0  0  0  0  0  3  0  0  0  0  0  0
  189.7970  177.8000  147.3890 C   0  0  0  0  0  3  0  0  0  0  0  0
  187.5570  177.9160  148.3000 C   0  0  0  0  0  3  0  0  0  0  0  0
  187.0300  177.8770  147.0070 C   0  0  0  0  0  3  0  0  0  0  0  0
  187.7630  176.5530  143.8020 N   0  0  0  0  0  2  0  0  0  0  0  0
  191.3070  176.5190  143.2180 C   0  0  0  0  0  3  0  0  0  0  0  0
  191.0890  177.2260  140.8320 C   0  0  0  0  0  0  0  0  0  0  0  0
  191.8880  177.3700  139.7070 O   0  0  0  0  0  1  0  0  0  0  0  0
  188.8580  176.5070  142.8840 C   0  0  0  0  0  0  0  0  0  0  0  0
  191.7620  177.1650  142.1460 C   0  0  0  0  0  3  0  0  0  0  0  0
  189.7600  177.2280  140.6610 C   0  0  0  0  0  3  0  0  0  0  0  0
  188.7240  177.1270  141.7100 C   0  0  0  0  0  3  0  0  0  0  0  0
  190.0690  175.6850  143.1960 C   0  0  0  0  0  2  0  0  0  0  0  0
  1 19  1  1  0  0  0
  1 14  1  0  0  0  0
  2  1  1  6  0  0  0
  2  5  1  0  0  0  0
  3 10  1  0  0  0  0
  4  9  1  0  0  0  0
  6  8  1  0  0  0  0
  7  6  2  0  0  0  0
  7  9  1  0  0  0  0
  8 11  1  0  0  0  0
  8 10  2  0  0  0  0
  9  3  2  0  0  0  0
 10 12  1  0  0  0  0
 11  2  1  0  0  0  0
 12  5  1  0  0  0  0
 14 15  2  0  0  0  0
 14 18  1  0  0  0  0
 15 16  1  0  0  0  0
 16 13  2  0  0  0  0
 17 13  1  0  0  0  0
 18 17  2  0  0  0  0
 21 24  1  0  0  0  0
 22 21  1  0  0  0  0
 23 27  1  0  0  0  0
 23 19  1  0  0  0  0
 24 20  2  0  0  0  0
 25 21  2  0  0  0  0
 25 26  1  0  0  0  0
 26 23  2  0  0  0  0
 27 20  1  0  0  0  0
M  END
>  <MODEL>
1

>  <REMARK>
 VINA RESULT:     -10.3      0.000      0.000
  Name = 
  4 active torsions:
  status: ('A' for Active; 'I' for Inactive)
    1  A    between atoms: N_1  and  C_15
    2  A    between atoms: N_1  and  C_18
    3  A    between atoms: C_2  and  C_15
    4  A    between atoms: C_9  and  C_15
                            x       y       z     vdW  Elec       q    Type
                         _______ _______ _______ _____ _____    ______ ____

>  <TORSDO>
F 4

$$$$
=
 OpenBabel10262420093D

 27 30  0  0  1  0  0  0  0  0999 V2000
  187.5130  178.0240  143.5740 C   0  0  1  0  0  3  0  0  0  0  0  0
  187.6680  177.7740  142.0660 C   0  0  1  0  0  3  0  0  0  0  0  0
  188.5160  177.6790  137.9280 C   0  0  0  0  0  3  0  0  0  0  0  0
  189.8000  176.8040  136.0820 O   0  0  0  0  0  1  0  0  0  0  0  0
  187.0550  178.8850  141.2080 C   0  0  0  0  0  2  0  0  0  0  0  0
  190.4070  176.6490  139.7190 C   0  0  0  0  0  3  0  0  0  0  0  0
  190.5760  176.4730  138.3430 C   0  0  0  0  0  3  0  0  0  0  0  0
  189.2880  177.3330  140.2050 C   0  0  0  0  0  0  0  0  0  0  0  0
  189.6310  176.9850  137.4480 C   0  0  0  0  0  0  0  0  0  0  0  0
  188.3470  177.8660  139.3030 C   0  0  0  0  0  0  0  0  0  0  0  0
  189.1330  177.5430  141.6840 C   0  0  0  0  0  2  0  0  0  0  0  0
  187.1930  178.5540  139.7930 N   0  0  0  0  0  2  0  0  0  0  0  0
  183.4790  178.8190  144.8480 C   0  0  0  0  0  3  0  0  0  0  0  0
  186.0970  178.2890  144.0020 C   0  0  0  0  0  0  0  0  0  0  0  0
  185.8340  178.5710  145.3480 C   0  0  0  0  0  3  0  0  0  0  0  0
  184.5290  178.8350  145.7700 C   0  0  0  0  0  3  0  0  0  0  0  0
  183.7350  178.5410  143.5020 C   0  0  0  0  0  3  0  0  0  0  0  0
  185.0400  178.2770  143.0800 C   0  0  0  0  0  3  0  0  0  0  0  0
  188.0950  176.9330  144.3490 N   0  0  0  0  0  2  0  0  0  0  0  0
  191.5860  176.3530  144.9620 C   0  0  0  0  0  3  0  0  0  0  0  0
  191.3960  176.7730  147.4180 C   0  0  0  0  0  0  0  0  0  0  0  0
  192.2250  176.9210  148.5200 O   0  0  0  0  0  1  0  0  0  0  0  0
  189.2380  177.0900  145.1930 C   0  0  0  0  0  0  0  0  0  0  0  0
  191.9620  176.1200  146.2180 C   0  0  0  0  0  3  0  0  0  0  0  0
  190.1190  177.1620  147.5370 C   0  0  0  0  0  3  0  0  0  0  0  0
  189.0570  177.0640  146.5140 C   0  0  0  0  0  3  0  0  0  0  0  0
  190.5780  177.3910  144.5970 C   0  0  0  0  0  2  0  0  0  0  0  0
  1 14  1  0  0  0  0
  1 19  1  1  0  0  0
  2  1  1  1  0  0  0
  3 10  1  0  0  0  0
  4  9  1  0  0  0  0
  5  2  1  0  0  0  0
  6  8  1  0  0  0  0
  7  6  2  0  0  0  0
  8 11  1  0  0  0  0
  9  3  2  0  0  0  0
  9  7  1  0  0  0  0
 10 12  1  0  0  0  0
 10  8  2  0  0  0  0
 11  2  1  0  0  0  0
 12  5  1  0  0  0  0
 13 16  1  0  0  0  0
 14 15  1  0  0  0  0
 15 16  2  0  0  0  0
 17 13  2  0  0  0  0
 18 17  1  0  0  0  0
 18 14  2  0  0  0  0
 19 23  1  0  0  0  0
 20 24  2  0  0  0  0
 21 25  2  0  0  0  0
 21 22  1  0  0  0  0
 23 26  2  0  0  0  0
 24 21  1  0  0  0  0
 26 25  1  0  0  0  0
 27 20  1  0  0  0  0
 27 23  1  0  0  0  0
M  END
>  <MODEL>
2

>  <REMARK>
 VINA RESULT:     -10.2      3.070      6.213
  Name = 
  4 active torsions:
  status: ('A' for Active; 'I' for Inactive)
    1  A    between atoms: N_1  and  C_15
    2  A    between atoms: N_1  and  C_18
    3  A    between atoms: C_2  and  C_15
    4  A    between atoms: C_9  and  C_15
                            x       y       z     vdW  Elec       q    Type
                         _______ _______ _______ _____ _____    ______ ____

>  <TORSDO>
F 4

$$$$
=
 OpenBabel10262420093D

 27 30  0  0  1  0  0  0  0  0999 V2000
  186.3960  177.9800  142.6210 C   0  0  1  0  0  3  0  0  0  0  0  0
  187.3370  177.9090  143.8330 C   0  0  1  0  0  3  0  0  0  0  0  0
  189.8560  176.9910  147.0990 C   0  0  0  0  0  3  0  0  0  0  0  0
  192.0730  176.6790  148.0000 O   0  0  0  0  0  1  0  0  0  0  0  0
  186.6690  177.3170  145.0770 C   0  0  0  0  0  2  0  0  0  0  0  0
  190.9000  176.8450  144.5040 C   0  0  0  0  0  3  0  0  0  0  0  0
  191.7480  176.7210  145.6090 C   0  0  0  0  0  3  0  0  0  0  0  0
  189.5290  177.0500  144.6930 C   0  0  0  0  0  0  0  0  0  0  0  0
  191.2280  176.7970  146.9050 C   0  0  0  0  0  0  0  0  0  0  0  0
  189.0030  177.1050  145.9980 C   0  0  0  0  0  0  0  0  0  0  0  0
  188.6250  177.1490  143.4990 C   0  0  0  0  0  2  0  0  0  0  0  0
  187.6050  177.3290  146.1980 N   0  0  0  0  0  2  0  0  0  0  0  0
  182.3530  179.1080  143.5740 C   0  0  0  0  0  3  0  0  0  0  0  0
  184.9920  178.3890  142.9680 C   0  0  0  0  0  0  0  0  0  0  0  0
  183.9790  178.2160  142.0180 C   0  0  0  0  0  3  0  0  0  0  0  0
  182.6620  178.5750  142.3190 C   0  0  0  0  0  3  0  0  0  0  0  0
  183.3590  179.2810  144.5280 C   0  0  0  0  0  3  0  0  0  0  0  0
  184.6760  178.9220  144.2270 C   0  0  0  0  0  3  0  0  0  0  0  0
  186.9460  178.8420  141.5800 N   0  0  0  0  0  2  0  0  0  0  0  0
  189.2440  178.5650  138.8330 C   0  0  0  0  0  3  0  0  0  0  0  0
  187.4470  178.1100  137.1580 C   0  0  0  0  0  0  0  0  0  0  0  0
  187.3290  177.7310  135.8280 O   0  0  0  0  0  1  0  0  0  0  0  0
  187.2290  178.3900  140.2530 C   0  0  0  0  0  0  0  0  0  0  0  0
  188.7470  178.6570  137.6010 C   0  0  0  0  0  3  0  0  0  0  0  0
  186.3570  178.0260  137.9320 C   0  0  0  0  0  3  0  0  0  0  0  0
  186.2420  178.4080  139.3560 C   0  0  0  0  0  3  0  0  0  0  0  0
  188.5680  177.8060  139.9250 C   0  0  0  0  0  2  0  0  0  0  0  0
  1 19  1  6  0  0  0
  1 14  1  0  0  0  0
  2  1  1  6  0  0  0
  2  5  1  0  0  0  0
  5 12  1  0  0  0  0
  6  8  2  0  0  0  0
  6  7  1  0  0  0  0
  7  9  2  0  0  0  0
  8 10  1  0  0  0  0
  9  3  1  0  0  0  0
  9  4  1  0  0  0  0
 10 12  1  0  0  0  0
 10  3  2  0  0  0  0
 11  2  1  0  0  0  0
 11  8  1  0  0  0  0
 13 17  1  0  0  0  0
 14 18  1  0  0  0  0
 15 16  1  0  0  0  0
 15 14  2  0  0  0  0
 16 13  2  0  0  0  0
 18 17  2  0  0  0  0
 20 27  1  0  0  0  0
 21 24  1  0  0  0  0
 21 25  2  0  0  0  0
 22 21  1  0  0  0  0
 23 19  1  0  0  0  0
 24 20  2  0  0  0  0
 25 26  1  0  0  0  0
 26 23  2  0  0  0  0
 27 23  1  0  0  0  0
M  END
>  <MODEL>
3

>  <REMARK>
 VINA RESULT:      -9.8      2.872      6.527
  Name = 
  4 active torsions:
  status: ('A' for Active; 'I' for Inactive)
    1  A    between atoms: N_1  and  C_15
    2  A    between atoms: N_1  and  C_18
    3  A    between atoms: C_2  and  C_15
    4  A    between atoms: C_9  and  C_15
                            x       y       z     vdW  Elec       q    Type
                         _______ _______ _______ _____ _____    ______ ____

>  <TORSDO>
F 4

$$$$
=
 OpenBabel10262420093D

 27 30  0  0  1  0  0  0  0  0999 V2000
  187.2980  177.5660  144.3250 C   0  0  1  0  0  3  0  0  0  0  0  0
  188.3550  177.4080  143.2220 C   0  0  1  0  0  3  0  0  0  0  0  0
  190.7960  176.4970  139.8950 C   0  0  0  0  0  3  0  0  0  0  0  0
  191.5990  177.0420  137.6860 O   0  0  0  0  0  1  0  0  0  0  0  0
  188.9750  176.0080  143.1800 C   0  0  0  0  0  2  0  0  0  0  0  0
  188.6940  178.3180  139.5700 C   0  0  0  0  0  3  0  0  0  0  0  0
  189.6230  178.1300  138.5430 C   0  0  0  0  0  3  0  0  0  0  0  0
  188.8160  177.6020  140.7660 C   0  0  0  0  0  0  0  0  0  0  0  0
  190.6750  177.2220  138.7060 C   0  0  0  0  0  0  0  0  0  0  0  0
  189.8640  176.6740  140.9210 C   0  0  0  0  0  0  0  0  0  0  0  0
  187.7940  177.7900  141.8480 C   0  0  0  0  0  2  0  0  0  0  0  0
  190.0030  175.9490  142.1460 N   0  0  0  0  0  2  0  0  0  0  0  0
  188.9050  177.9520  148.3000 C   0  0  0  0  0  3  0  0  0  0  0  0
  187.8780  177.7070  145.7040 C   0  0  0  0  0  0  0  0  0  0  0  0
  187.0310  178.0310  146.7700 C   0  0  0  0  0  3  0  0  0  0  0  0
  187.5420  178.1540  148.0640 C   0  0  0  0  0  3  0  0  0  0  0  0
  189.7560  177.6260  147.2410 C   0  0  0  0  0  3  0  0  0  0  0  0
  189.2450  177.5020  145.9460 C   0  0  0  0  0  3  0  0  0  0  0  0
  186.3910  178.6700  144.0280 N   0  0  0  0  0  2  0  0  0  0  0  0
  183.6490  178.6480  141.7080 C   0  0  0  0  0  3  0  0  0  0  0  0
  181.9190  178.8990  143.4930 C   0  0  0  0  0  0  0  0  0  0  0  0
  180.5380  178.8610  143.6240 O   0  0  0  0  0  1  0  0  0  0  0  0
  184.9950  178.4940  143.7760 C   0  0  0  0  0  0  0  0  0  0  0  0
  182.4730  179.1030  142.1380 C   0  0  0  0  0  3  0  0  0  0  0  0
  182.6560  178.8250  144.6100 C   0  0  0  0  0  3  0  0  0  0  0  0
  184.1290  178.8830  144.7130 C   0  0  0  0  0  3  0  0  0  0  0  0
  184.5360  177.7840  142.5390 C   0  0  0  0  0  2  0  0  0  0  0  0
  1 19  1  6  0  0  0
  1 14  1  0  0  0  0
  2  1  1  1  0  0  0
  3 10  1  0  0  0  0
  4  9  1  0  0  0  0
  5  2  1  0  0  0  0
  6  8  1  0  0  0  0
  7  9  1  0  0  0  0
  7  6  2  0  0  0  0
  8 10  2  0  0  0  0
  8 11  1  0  0  0  0
  9  3  2  0  0  0  0
 10 12  1  0  0  0  0
 11  2  1  0  0  0  0
 12  5  1  0  0  0  0
 14 18  2  0  0  0  0
 14 15  1  0  0  0  0
 15 16  2  0  0  0  0
 16 13  1  0  0  0  0
 17 13  2  0  0  0  0
 18 17  1  0  0  0  0
 20 24  2  0  0  0  0
 20 27  1  0  0  0  0
 21 22  1  0  0  0  0
 21 25  2  0  0  0  0
 23 19  1  0  0  0  0
 23 26  2  0  0  0  0
 24 21  1  0  0  0  0
 25 26  1  0  0  0  0
 27 23  1  0  0  0  0
M  END
>  <MODEL>
4

>  <REMARK>
 VINA RESULT:      -9.6      1.298      6.835
  Name = 
  4 active torsions:
  status: ('A' for Active; 'I' for Inactive)
    1  A    between atoms: N_1  and  C_15
    2  A    between atoms: N_1  and  C_18
    3  A    between atoms: C_2  and  C_15
    4  A    between atoms: C_9  and  C_15
                            x       y       z     vdW  Elec       q    Type
                         _______ _______ _______ _____ _____    ______ ____

>  <TORSDO>
F 4

$$$$
=
 OpenBabel10262420093D

 27 30  0  0  1  0  0  0  0  0999 V2000
  187.7780  177.3550  143.9640 C   0  0  1  0  0  3  0  0  0  0  0  0
  186.2640  177.6120  144.0160 C   0  0  1  0  0  3  0  0  0  0  0  0
  182.2740  179.0020  143.9800 C   0  0  0  0  0  3  0  0  0  0  0  0
  180.1620  179.2490  142.8400 O   0  0  0  0  0  1  0  0  0  0  0  0
  185.8590  178.5810  145.1310 C   0  0  0  0  0  2  0  0  0  0  0  0
  183.5010  178.3510  141.5480 C   0  0  0  0  0  3  0  0  0  0  0  0
  182.1340  178.6430  141.5880 C   0  0  0  0  0  3  0  0  0  0  0  0
  184.2570  178.3760  142.7240 C   0  0  0  0  0  0  0  0  0  0  0  0
  181.5200  178.9650  142.8030 C   0  0  0  0  0  0  0  0  0  0  0  0
  183.6430  178.7210  143.9440 C   0  0  0  0  0  0  0  0  0  0  0  0
  185.7300  178.0920  142.6630 C   0  0  0  0  0  2  0  0  0  0  0  0
  184.4070  178.7350  145.1520 N   0  0  0  0  0  2  0  0  0  0  0  0
  189.4610  177.6230  140.0110 C   0  0  0  0  0  3  0  0  0  0  0  0
  188.3640  177.4700  142.5850 C   0  0  0  0  0  0  0  0  0  0  0  0
  189.2240  176.4670  142.1240 C   0  0  0  0  0  3  0  0  0  0  0  0
  189.7720  176.5420  140.8410 C   0  0  0  0  0  3  0  0  0  0  0  0
  188.6010  178.6270  140.4630 C   0  0  0  0  0  3  0  0  0  0  0  0
  188.0530  178.5520  141.7460 C   0  0  0  0  0  3  0  0  0  0  0  0
  188.4890  178.2170  144.9040 N   0  0  0  0  0  2  0  0  0  0  0  0
  191.6790  176.5680  144.8370 C   0  0  0  0  0  3  0  0  0  0  0  0
  191.7970  176.3340  147.3220 C   0  0  0  0  0  0  0  0  0  0  0  0
  192.7080  175.9440  148.2930 O   0  0  0  0  0  1  0  0  0  0  0  0
  189.6830  177.8210  145.5830 C   0  0  0  0  0  0  0  0  0  0  0  0
  192.0550  175.9070  145.9310 C   0  0  0  0  0  3  0  0  0  0  0  0
  190.7080  177.0060  147.7190 C   0  0  0  0  0  3  0  0  0  0  0  0
  189.5960  177.4840  146.8710 C   0  0  0  0  0  3  0  0  0  0  0  0
  191.0060  177.8990  144.8870 C   0  0  0  0  0  2  0  0  0  0  0  0
  1 19  1  1  0  0  0
  2  1  1  6  0  0  0
  2  5  1  0  0  0  0
  5 12  1  0  0  0  0
  6  7  2  0  0  0  0
  6  8  1  0  0  0  0
  7  9  1  0  0  0  0
  8 10  2  0  0  0  0
  9  4  1  0  0  0  0
  9  3  2  0  0  0  0
 10  3  1  0  0  0  0
 10 12  1  0  0  0  0
 11  8  1  0  0  0  0
 11  2  1  0  0  0  0
 13 17  2  0  0  0  0
 13 16  1  0  0  0  0
 14  1  1  0  0  0  0
 15 14  1  0  0  0  0
 16 15  2  0  0  0  0
 17 18  1  0  0  0  0
 18 14  2  0  0  0  0
 19 23  1  0  0  0  0
 20 27  1  0  0  0  0
 20 24  2  0  0  0  0
 21 25  2  0  0  0  0
 21 22  1  0  0  0  0
 23 26  2  0  0  0  0
 24 21  1  0  0  0  0
 26 25  1  0  0  0  0
 27 23  1  0  0  0  0
M  END
>  <MODEL>
5

>  <REMARK>
 VINA RESULT:      -9.4      2.102      4.221
  Name = 
  4 active torsions:
  status: ('A' for Active; 'I' for Inactive)
    1  A    between atoms: N_1  and  C_15
    2  A    between atoms: N_1  and  C_18
    3  A    between atoms: C_2  and  C_15
    4  A    between atoms: C_9  and  C_15
                            x       y       z     vdW  Elec       q    Type
                         _______ _______ _______ _____ _____    ______ ____

>  <TORSDO>
F 4

$$$$
=
 OpenBabel10262420093D

 27 30  0  0  1  0  0  0  0  0999 V2000
  186.5460  178.3660  143.2490 C   0  0  1  0  0  3  0  0  0  0  0  0
  187.0330  178.0070  141.8370 C   0  0  1  0  0  3  0  0  0  0  0  0
  188.7550  177.6370  137.9960 C   0  0  0  0  0  3  0  0  0  0  0  0
  190.4450  176.7030  136.5500 O   0  0  0  0  0  1  0  0  0  0  0  0
  186.5670  179.0030  140.7710 C   0  0  0  0  0  2  0  0  0  0  0  0
  190.2630  176.8820  140.2320 C   0  0  0  0  0  3  0  0  0  0  0  0
  190.7330  176.6070  138.9440 C   0  0  0  0  0  3  0  0  0  0  0  0
  189.0340  177.5270  140.4070 C   0  0  0  0  0  0  0  0  0  0  0  0
  189.9790  176.9820  137.8270 C   0  0  0  0  0  0  0  0  0  0  0  0
  188.2850  177.9220  139.2810 C   0  0  0  0  0  0  0  0  0  0  0  0
  188.5560  177.8430  141.7940 C   0  0  0  0  0  2  0  0  0  0  0  0
  187.0210  178.5690  139.4530 N   0  0  0  0  0  2  0  0  0  0  0  0
  182.2880  178.8960  143.5910 C   0  0  0  0  0  3  0  0  0  0  0  0
  185.0570  178.5380  143.3510 C   0  0  0  0  0  0  0  0  0  0  0  0
  184.4880  178.8260  144.5970 C   0  0  0  0  0  3  0  0  0  0  0  0
  183.1080  179.0040  144.7180 C   0  0  0  0  0  3  0  0  0  0  0  0
  182.8490  178.6110  142.3430 C   0  0  0  0  0  3  0  0  0  0  0  0
  184.2300  178.4330  142.2230 C   0  0  0  0  0  3  0  0  0  0  0  0
  187.0270  177.3990  144.2310 N   0  0  0  0  0  2  0  0  0  0  0  0
  190.2000  177.1270  145.8920 C   0  0  0  0  0  3  0  0  0  0  0  0
  189.3020  177.8940  148.0940 C   0  0  0  0  0  0  0  0  0  0  0  0
  189.7750  178.2530  149.3480 O   0  0  0  0  0  1  0  0  0  0  0  0
  187.8750  177.7480  145.3280 C   0  0  0  0  0  0  0  0  0  0  0  0
  190.2000  177.1060  147.2240 C   0  0  0  0  0  3  0  0  0  0  0  0
  188.0400  178.2190  147.7830 C   0  0  0  0  0  3  0  0  0  0  0  0
  187.3190  177.9070  146.5310 C   0  0  0  0  0  3  0  0  0  0  0  0
  189.3250  178.0380  145.0960 C   0  0  0  0  0  2  0  0  0  0  0  0
  1 14  1  0  0  0  0
  1 19  1  1  0  0  0
  2  1  1  1  0  0  0
  3 10  1  0  0  0  0
  4  9  1  0  0  0  0
  5  2  1  0  0  0  0
  6  8  1  0  0  0  0
  7  6  2  0  0  0  0
  8 11  1  0  0  0  0
  9  3  2  0  0  0  0
  9  7  1  0  0  0  0
 10 12  1  0  0  0  0
 10  8  2  0  0  0  0
 11  2  1  0  0  0  0
 12  5  1  0  0  0  0
 13 16  1  0  0  0  0
 14 15  1  0  0  0  0
 15 16  2  0  0  0  0
 17 13  2  0  0  0  0
 18 17  1  0  0  0  0
 18 14  2  0  0  0  0
 19 23  1  0  0  0  0
 20 24  2  0  0  0  0
 21 22  1  0  0  0  0
 23 26  2  0  0  0  0
 24 21  1  0  0  0  0
 25 21  2  0  0  0  0
 26 25  1  0  0  0  0
 27 23  1  0  0  0  0
 27 20  1  0  0  0  0
M  END
>  <MODEL>
6

>  <REMARK>
 VINA RESULT:      -9.3      2.831      6.701
  Name = 
  4 active torsions:
  status: ('A' for Active; 'I' for Inactive)
    1  A    between atoms: N_1  and  C_15
    2  A    between atoms: N_1  and  C_18
    3  A    between atoms: C_2  and  C_15
    4  A    between atoms: C_9  and  C_15
                            x       y       z     vdW  Elec       q    Type
                         _______ _______ _______ _____ _____    ______ ____

>  <TORSDO>
F 4

$$$$
=
 OpenBabel10262420093D

 27 30  0  0  1  0  0  0  0  0999 V2000
  188.3350  177.1890  142.0470 C   0  0  1  0  0  3  0  0  0  0  0  0
  189.2470  176.6540  143.1610 C   0  0  1  0  0  3  0  0  0  0  0  0
  192.1300  175.8010  146.1300 C   0  0  0  0  0  3  0  0  0  0  0  0
  192.7890  175.7760  148.4510 O   0  0  0  0  0  1  0  0  0  0  0  0
  190.6690  176.3530  142.6790 C   0  0  0  0  0  2  0  0  0  0  0  0
  190.0080  177.5160  146.7600 C   0  0  0  0  0  3  0  0  0  0  0  0
  190.8750  177.0750  147.7650 C   0  0  0  0  0  3  0  0  0  0  0  0
  190.1940  177.0950  145.4400 C   0  0  0  0  0  0  0  0  0  0  0  0
  191.9330  176.2160  147.4510 C   0  0  0  0  0  0  0  0  0  0  0  0
  191.2720  176.2470  145.1210 C   0  0  0  0  0  0  0  0  0  0  0  0
  189.2750  177.6010  144.3660 C   0  0  0  0  0  2  0  0  0  0  0  0
  191.4600  175.8010  143.7750 N   0  0  0  0  0  2  0  0  0  0  0  0
  184.7260  179.0790  143.4390 C   0  0  0  0  0  3  0  0  0  0  0  0
  187.0820  177.8460  142.5530 C   0  0  0  0  0  0  0  0  0  0  0  0
  186.4240  178.7750  141.7390 C   0  0  0  0  0  3  0  0  0  0  0  0
  185.2490  179.3910  142.1800 C   0  0  0  0  0  3  0  0  0  0  0  0
  185.3770  178.1510  144.2550 C   0  0  0  0  0  3  0  0  0  0  0  0
  186.5510  177.5350  143.8150 C   0  0  0  0  0  3  0  0  0  0  0  0
  189.0670  178.0830  141.1550 N   0  0  0  0  0  2  0  0  0  0  0  0
  187.8030  176.9750  137.9800 C   0  0  0  0  0  3  0  0  0  0  0  0
  190.0720  176.4610  137.0680 C   0  0  0  0  0  0  0  0  0  0  0  0
  190.6580  176.1030  135.8630 O   0  0  0  0  0  1  0  0  0  0  0  0
  189.2940  177.8000  139.7720 C   0  0  0  0  0  0  0  0  0  0  0  0
  188.6160  176.2530  137.2110 C   0  0  0  0  0  3  0  0  0  0  0  0
  190.8740  176.9010  138.0480 C   0  0  0  0  0  3  0  0  0  0  0  0
  190.4770  177.2990  139.4150 C   0  0  0  0  0  3  0  0  0  0  0  0
  188.2640  178.1680  138.7490 C   0  0  0  0  0  2  0  0  0  0  0  0
  1 19  1  1  0  0  0
  1 14  1  0  0  0  0
  2  1  1  6  0  0  0
  2 11  1  0  0  0  0
  3  9  1  0  0  0  0
  5  2  1  0  0  0  0
  5 12  1  0  0  0  0
  6  7  1  0  0  0  0
  8  6  2  0  0  0  0
  9  7  2  0  0  0  0
  9  4  1  0  0  0  0
 10  8  1  0  0  0  0
 10  3  2  0  0  0  0
 11  8  1  0  0  0  0
 12 10  1  0  0  0  0
 13 17  1  0  0  0  0
 14 18  1  0  0  0  0
 15 16  1  0  0  0  0
 15 14  2  0  0  0  0
 16 13  2  0  0  0  0
 18 17  2  0  0  0  0
 20 27  1  0  0  0  0
 21 24  1  0  0  0  0
 21 25  2  0  0  0  0
 22 21  1  0  0  0  0
 23 19  1  0  0  0  0
 24 20  2  0  0  0  0
 25 26  1  0  0  0  0
 26 23  2  0  0  0  0
 27 23  1  0  0  0  0
M  END
>  <MODEL>
7

>  <REMARK>
 VINA RESULT:      -9.2      3.511      6.933
  Name = 
  4 active torsions:
  status: ('A' for Active; 'I' for Inactive)
    1  A    between atoms: N_1  and  C_15
    2  A    between atoms: N_1  and  C_18
    3  A    between atoms: C_2  and  C_15
    4  A    between atoms: C_9  and  C_15
                            x       y       z     vdW  Elec       q    Type
                         _______ _______ _______ _____ _____    ______ ____

>  <TORSDO>
F 4

$$$$
=
 OpenBabel10262420093D

 27 30  0  0  1  0  0  0  0  0999 V2000
  186.5850  178.2820  143.6690 C   0  0  1  0  0  3  0  0  0  0  0  0
  185.0710  178.2370  143.4150 C   0  0  1  0  0  3  0  0  0  0  0  0
  181.0060  178.7550  142.3840 C   0  0  0  0  0  3  0  0  0  0  0  0
  179.1540  178.2950  140.9080 O   0  0  0  0  0  1  0  0  0  0  0  0
  184.3070  179.3450  144.1460 C   0  0  0  0  0  2  0  0  0  0  0  0
  182.7810  177.7960  140.4420 C   0  0  0  0  0  3  0  0  0  0  0  0
  181.4060  177.8110  140.1890 C   0  0  0  0  0  3  0  0  0  0  0  0
  183.2720  178.2530  141.6690 C   0  0  0  0  0  0  0  0  0  0  0  0
  180.5190  178.2870  141.1600 C   0  0  0  0  0  0  0  0  0  0  0  0
  182.3800  178.7520  142.6380 C   0  0  0  0  0  0  0  0  0  0  0  0
  184.7530  178.2620  141.9160 C   0  0  0  0  0  2  0  0  0  0  0  0
  182.8750  179.2070  143.9000 N   0  0  0  0  0  2  0  0  0  0  0  0
  187.5990  177.9180  147.8360 C   0  0  0  0  0  3  0  0  0  0  0  0
  186.9600  178.1550  145.1180 C   0  0  0  0  0  0  0  0  0  0  0  0
  186.0890  178.6530  146.0930 C   0  0  0  0  0  3  0  0  0  0  0  0
  186.4070  178.5360  147.4490 C   0  0  0  0  0  3  0  0  0  0  0  0
  188.4730  177.4160  146.8680 C   0  0  0  0  0  3  0  0  0  0  0  0
  188.1550  177.5330  145.5120 C   0  0  0  0  0  3  0  0  0  0  0  0
  187.2820  177.2840  142.8620 N   0  0  0  0  0  2  0  0  0  0  0  0
  188.8540  177.7660  139.6690 C   0  0  0  0  0  3  0  0  0  0  0  0
  191.1570  177.3810  140.5580 C   0  0  0  0  0  0  0  0  0  0  0  0
  192.4730  177.4800  140.1290 O   0  0  0  0  0  1  0  0  0  0  0  0
  188.4580  177.5710  142.1010 C   0  0  0  0  0  0  0  0  0  0  0  0
  190.1030  177.3260  139.5230 C   0  0  0  0  0  3  0  0  0  0  0  0
  190.9340  177.2670  141.8740 C   0  0  0  0  0  3  0  0  0  0  0  0
  189.6280  177.1120  142.5480 C   0  0  0  0  0  3  0  0  0  0  0  0
  188.3790  178.4620  140.9000 C   0  0  0  0  0  2  0  0  0  0  0  0
  1 19  1  6  0  0  0
  1 14  1  0  0  0  0
  2  1  1  6  0  0  0
  2  5  1  0  0  0  0
  3 10  1  0  0  0  0
  4  9  1  0  0  0  0
  6  8  1  0  0  0  0
  7  6  2  0  0  0  0
  7  9  1  0  0  0  0
  8 11  1  0  0  0  0
  8 10  2  0  0  0  0
  9  3  2  0  0  0  0
 10 12  1  0  0  0  0
 11  2  1  0  0  0  0
 12  5  1  0  0  0  0
 14 18  2  0  0  0  0
 14 15  1  0  0  0  0
 15 16  2  0  0  0  0
 16 13  1  0  0  0  0
 17 13  2  0  0  0  0
 18 17  1  0  0  0  0
 20 27  1  0  0  0  0
 21 25  2  0  0  0  0
 22 21  1  0  0  0  0
 23 26  2  0  0  0  0
 23 19  1  0  0  0  0
 24 20  2  0  0  0  0
 24 21  1  0  0  0  0
 25 26  1  0  0  0  0
 27 23  1  0  0  0  0
M  END
>  <MODEL>
8

>  <REMARK>
 VINA RESULT:      -9.0      1.156      2.098
  Name = 
  4 active torsions:
  status: ('A' for Active; 'I' for Inactive)
    1  A    between atoms: N_1  and  C_15
    2  A    between atoms: N_1  and  C_18
    3  A    between atoms: C_2  and  C_15
    4  A    between atoms: C_9  and  C_15
                            x       y       z     vdW  Elec       q    Type
                         _______ _______ _______ _____ _____    ______ ____

>  <TORSDO>
F 4

$$$$
=
 OpenBabel10262420093D

 27 30  0  0  1  0  0  0  0  0999 V2000
  186.8960  177.5280  142.8830 C   0  0  1  0  0  3  0  0  0  0  0  0
  188.0850  176.9170  143.6400 C   0  0  1  0  0  3  0  0  0  0  0  0
  191.6810  175.8770  145.6000 C   0  0  0  0  0  3  0  0  0  0  0  0
  192.9500  175.6320  147.6380 O   0  0  0  0  0  1  0  0  0  0  0  0
  189.3250  176.7300  142.7600 C   0  0  0  0  0  2  0  0  0  0  0  0
  189.7910  177.4210  146.9740 C   0  0  0  0  0  3  0  0  0  0  0  0
  190.9050  176.9130  147.6490 C   0  0  0  0  0  3  0  0  0  0  0  0
  189.6140  177.1520  145.6120 C   0  0  0  0  0  0  0  0  0  0  0  0
  191.8480  176.1390  146.9640 C   0  0  0  0  0  0  0  0  0  0  0  0
  190.5740  176.3900  144.9190 C   0  0  0  0  0  0  0  0  0  0  0  0
  188.4300  177.7290  144.8920 C   0  0  0  0  0  2  0  0  0  0  0  0
  190.3920  176.1000  143.5310 N   0  0  0  0  0  2  0  0  0  0  0  0
  183.8090  179.0010  145.4980 C   0  0  0  0  0  3  0  0  0  0  0  0
  185.8040  178.0370  143.7810 C   0  0  0  0  0  0  0  0  0  0  0  0
  185.9940  178.0120  145.1670 C   0  0  0  0  0  3  0  0  0  0  0  0
  185.0000  178.4920  146.0240 C   0  0  0  0  0  3  0  0  0  0  0  0
  183.6130  179.0310  144.1140 C   0  0  0  0  0  3  0  0  0  0  0  0
  184.6070  178.5510  143.2570 C   0  0  0  0  0  3  0  0  0  0  0  0
  187.3400  178.5700  141.9630 N   0  0  0  0  0  2  0  0  0  0  0  0
  184.8050  178.1940  139.4470 C   0  0  0  0  0  3  0  0  0  0  0  0
  186.4540  177.9560  137.5840 C   0  0  0  0  0  0  0  0  0  0  0  0
  186.4640  177.8990  136.1980 O   0  0  0  0  0  1  0  0  0  0  0  0
  186.9570  178.6180  140.5860 C   0  0  0  0  0  0  0  0  0  0  0  0
  185.1730  177.6870  138.2710 C   0  0  0  0  0  3  0  0  0  0  0  0
  187.6170  178.1770  138.2100 C   0  0  0  0  0  3  0  0  0  0  0  0
  187.8490  178.2400  139.6690 C   0  0  0  0  0  3  0  0  0  0  0  0
  185.6300  179.1880  140.1930 C   0  0  0  0  0  2  0  0  0  0  0  0
  1 19  1  1  0  0  0
  1 14  1  0  0  0  0
  2  1  1  6  0  0  0
  2 11  1  0  0  0  0
  3  9  1  0  0  0  0
  5 12  1  0  0  0  0
  5  2  1  0  0  0  0
  6  7  1  0  0  0  0
  8  6  2  0  0  0  0
  9  4  1  0  0  0  0
  9  7  2  0  0  0  0
 10  3  2  0  0  0  0
 10  8  1  0  0  0  0
 11  8  1  0  0  0  0
 12 10  1  0  0  0  0
 13 16  1  0  0  0  0
 14 15  1  0  0  0  0
 15 16  2  0  0  0  0
 17 13  2  0  0  0  0
 18 14  2  0  0  0  0
 18 17  1  0  0  0  0
 20 27  1  0  0  0  0
 21 25  2  0  0  0  0
 21 24  1  0  0  0  0
 22 21  1  0  0  0  0
 23 19  1  0  0  0  0
 24 20  2  0  0  0  0
 25 26  1  0  0  0  0
 26 23  2  0  0  0  0
 27 23  1  0  0  0  0
M  END
>  <MODEL>
9

>  <REMARK>
 VINA RESULT:      -8.9      2.938      6.873
  Name = 
  4 active torsions:
  status: ('A' for Active; 'I' for Inactive)
    1  A    between atoms: N_1  and  C_15
    2  A    between atoms: N_1  and  C_18
    3  A    between atoms: C_2  and  C_15
    4  A    between atoms: C_9  and  C_15
                            x       y       z     vdW  Elec       q    Type
                         _______ _______ _______ _____ _____    ______ ____

>  <TORSDO>
F 4

$$$$
