=
 OpenBabel10262422343D

 43 49  0  0  1  0  0  0  0  0999 V2000
  191.2080  176.4430  146.5530 C   0  0  0  0  0  0  0  0  0  0  0  0
  189.6230  177.5720  141.9000 C   0  0  0  0  0  0  0  0  0  0  0  0
  186.9430  178.4070  142.0980 C   0  0  0  0  0  0  0  0  0  0  0  0
  191.0540  176.8110  144.1650 C   0  0  0  0  0  0  0  0  0  0  0  0
  189.8770  176.8410  146.7040 C   0  0  0  0  0  3  0  0  0  0  0  0
  192.0010  176.0380  147.7430 C   0  0  0  0  0  1  0  0  0  0  0  0
  189.7070  177.2160  144.3060 C   0  0  0  0  0  0  0  0  0  0  0  0
  191.7960  176.4280  145.2850 C   0  0  0  0  0  3  0  0  0  0  0  0
  189.1290  177.2260  145.5880 C   0  0  0  0  0  3  0  0  0  0  0  0
  187.6460  178.0190  143.2460 C   0  0  0  0  0  3  0  0  0  0  0  0
  188.9820  177.6020  143.1630 C   0  0  0  0  0  0  0  0  0  0  0  0
  190.9220  177.1720  141.8100 N   0  0  0  0  0  0  0  0  0  0  0  0
  188.9150  177.9570  140.7480 C   0  0  0  0  0  0  0  0  0  0  0  0
  187.5850  178.3750  140.8560 C   0  0  0  0  0  3  0  0  0  0  0  0
  191.6400  176.7970  142.9000 C   0  0  0  0  0  3  0  0  0  0  0  0
  185.5440  178.8620  142.1880 C   0  0  0  0  0  0  0  0  0  0  0  0
  184.8920  178.7420  143.3070 N   0  0  0  0  0  0  0  0  0  0  0  0
  184.9540  179.4100  141.0920 F   0  0  0  0  0  0  0  0  0  0  0  0
  183.5390  179.1590  143.5310 C   0  0  0  0  0  0  0  0  0  0  0  0
  183.2760  180.2560  144.0950 O   0  0  0  0  0  0  0  0  0  0  0  0
  182.4210  178.2690  143.1140 C   0  0  0  0  0  2  0  0  0  0  0  0
  181.2810  179.0820  142.5160 C   0  0  2  0  0  3  0  0  0  0  0  0
  178.9660  178.7800  141.1030 S   0  0  0  0  0  0  0  0  0  0  0  0
  180.1360  179.1910  143.4980 C   0  0  0  0  0  2  0  0  0  0  0  0
  180.7370  178.3850  141.2820 C   0  0  1  0  0  3  0  0  0  0  0  0
  178.9310  179.6380  142.7050 C   0  0  0  0  0  2  0  0  0  0  0  0
  182.2160  177.8120  139.2930 N   0  0  0  0  0  0  0  0  0  0  0  0
  181.5030  178.7910  140.0590 C   0  0  0  0  0  0  0  0  0  0  0  0
  184.4700  177.8910  138.3540 C   0  0  0  0  0  2  0  0  0  0  0  0
  183.1810  175.7640  138.6270 C   0  0  0  0  0  3  0  0  0  0  0  0
  183.6200  176.8520  137.6450 C   0  0  1  0  0  3  0  0  0  0  0  0
  182.2160  176.3990  139.6120 C   0  0  0  0  0  3  0  0  0  0  0  0
  182.9930  178.1530  138.1160 C   0  0  1  0  0  3  0  0  0  0  0  0
  181.5370  180.0050  139.7180 O   0  0  0  0  0  0  0  0  0  0  0  0
  189.5680  177.9610  139.4030 C   0  0  0  0  0  2  0  0  0  0  0  0
  187.6060  178.2870  136.2480 C   0  0  0  0  0  2  0  0  0  0  0  0
  187.1770  176.8170  136.2350 C   0  0  2  0  0  3  0  0  0  0  0  0
  189.0750  176.2860  137.8400 C   0  0  0  0  0  2  0  0  0  0  0  0
  188.6690  178.5710  137.3160 C   0  0  0  0  0  2  0  0  0  0  0  0
  188.6120  177.5690  138.3790 N   0  0  0  0  0  0  0  0  0  0  0  0
  188.3630  175.8980  136.5310 C   0  0  0  0  0  2  0  0  0  0  0  0
  186.4470  175.0920  134.7540 O   0  0  0  0  0  1  0  0  0  0  0  0
  186.5550  176.4770  134.8920 C   0  0  0  0  0  2  0  0  0  0  0  0
  1  5  1  0  0  0  0
  1  6  1  0  0  0  0
  2 11  1  0  0  0  0
  3 16  1  0  0  0  0
  3 10  1  0  0  0  0
  4  7  2  0  0  0  0
  4  8  1  0  0  0  0
  7  9  1  0  0  0  0
  8  1  2  0  0  0  0
  9  5  2  0  0  0  0
 11 10  2  0  0  0  0
 11  7  1  0  0  0  0
 12  2  1  0  0  0  0
 12 15  2  0  0  0  0
 13 14  1  0  0  0  0
 13  2  2  0  0  0  0
 14  3  2  0  0  0  0
 15  4  1  0  0  0  0
 16 17  2  0  0  0  0
 17 19  1  0  0  0  0
 18 16  1  0  0  0  0
 19 20  2  0  0  0  0
 21 19  1  0  0  0  0
 22 21  1  1  0  0  0
 22 24  1  0  0  0  0
 23 25  1  0  0  0  0
 23 26  1  0  0  0  0
 25 28  1  6  0  0  0
 25 22  1  0  0  0  0
 26 24  1  0  0  0  0
 27 32  1  0  0  0  0
 27 28  1  0  0  0  0
 30 32  2  0  0  0  0
 31 33  1  0  0  0  0
 31 29  1  1  0  0  0
 31 30  1  0  0  0  0
 33 29  1  1  0  0  0
 33 27  1  0  0  0  0
 34 28  2  0  0  0  0
 35 13  1  0  0  0  0
 36 39  1  0  0  0  0
 37 43  1  6  0  0  0
 37 36  1  0  0  0  0
 37 41  1  0  0  0  0
 38 40  1  0  0  0  0
 39 40  1  0  0  0  0
 40 35  1  0  0  0  0
 41 38  1  0  0  0  0
 42 43  1  0  0  0  0
M  END
>  <MODEL>
1

>  <REMARK>
 VINA RESULT:      -9.4      0.000      0.000
  Name = 
  8 active torsions:
  status: ('A' for Active; 'I' for Inactive)
    1  A    between atoms: C_1  and  C_34
    2  A    between atoms: C_1  and  N_35
    3  A    between atoms: C_2  and  C_13
    4  A    between atoms: C_3  and  C_4
    5  A    between atoms: C_3  and  C_12
    6  A    between atoms: N_6  and  C_12
    7  A    between atoms: C_14  and  C_22
    8  A    between atoms: C_19  and  C_37
                            x       y       z     vdW  Elec       q    Type
                         _______ _______ _______ _____ _____    ______ ____

>  <TORSDO>
F 8

$$$$
=
 OpenBabel10262422343D

 43 49  0  0  1  0  0  0  0  0999 V2000
  187.3320  178.0280  147.4890 C   0  0  0  0  0  0  0  0  0  0  0  0
  184.1280  178.6820  143.6490 C   0  0  0  0  0  0  0  0  0  0  0  0
  185.6170  178.5150  141.2660 C   0  0  0  0  0  0  0  0  0  0  0  0
  185.3630  178.3970  146.1290 C   0  0  0  0  0  0  0  0  0  0  0  0
  188.1180  177.9460  146.3360 C   0  0  0  0  0  3  0  0  0  0  0  0
  187.9600  177.8730  148.8270 C   0  0  0  0  0  1  0  0  0  0  0  0
  186.1480  178.3150  144.9560 C   0  0  0  0  0  0  0  0  0  0  0  0
  185.9570  178.2530  147.3860 C   0  0  0  0  0  3  0  0  0  0  0  0
  187.5300  178.0880  145.0760 C   0  0  0  0  0  3  0  0  0  0  0  0
  186.2550  178.3780  142.5060 C   0  0  0  0  0  3  0  0  0  0  0  0
  185.5270  178.4580  143.7010 C   0  0  0  0  0  0  0  0  0  0  0  0
  183.4110  178.7560  144.8050 N   0  0  0  0  0  0  0  0  0  0  0  0
  183.4900  178.8240  142.4040 C   0  0  0  0  0  0  0  0  0  0  0  0
  184.2370  178.7350  141.2250 C   0  0  0  0  0  3  0  0  0  0  0  0
  183.9910  178.6200  146.0250 C   0  0  0  0  0  3  0  0  0  0  0  0
  186.3810  178.4150  140.0110 C   0  0  0  0  0  0  0  0  0  0  0  0
  187.6790  178.4870  140.0310 N   0  0  0  0  0  0  0  0  0  0  0  0
  185.7110  178.2400  138.8400 F   0  0  0  0  0  0  0  0  0  0  0  0
  188.5370  178.3860  138.8870 C   0  0  0  0  0  0  0  0  0  0  0  0
  188.9350  179.4120  138.2730 O   0  0  0  0  0  0  0  0  0  0  0  0
  188.9480  177.0410  138.3980 C   0  0  0  0  0  2  0  0  0  0  0  0
  190.4000  177.0530  137.9430 C   0  0  2  0  0  3  0  0  0  0  0  0
  192.6530  175.5140  137.9740 S   0  0  0  0  0  0  0  0  0  0  0  0
  190.5330  176.4210  136.5760 C   0  0  0  0  0  2  0  0  0  0  0  0
  191.2500  176.2300  138.8930 C   0  0  1  0  0  3  0  0  0  0  0  0
  191.9990  176.1100  136.3860 C   0  0  0  0  0  2  0  0  0  0  0  0
  191.1170  176.9480  141.3290 N   0  0  0  0  0  0  0  0  0  0  0  0
  191.7310  177.0660  140.0400 C   0  0  0  0  0  0  0  0  0  0  0  0
  190.4090  178.6840  142.8950 C   0  0  0  0  0  2  0  0  0  0  0  0
  189.6300  176.3110  143.0470 C   0  0  0  0  0  3  0  0  0  0  0  0
  190.6000  177.3550  143.6050 C   0  0  1  0  0  3  0  0  0  0  0  0
  190.0490  176.0140  141.6190 C   0  0  0  0  0  3  0  0  0  0  0  0
  191.5270  177.7500  142.4680 C   0  0  1  0  0  3  0  0  0  0  0  0
  192.6660  177.8940  139.8600 O   0  0  0  0  0  0  0  0  0  0  0  0
  182.0130  179.0370  142.3110 C   0  0  0  0  0  2  0  0  0  0  0  0
  180.2550  177.1370  139.6270 C   0  0  0  0  0  2  0  0  0  0  0  0
  180.3070  178.2930  138.6240 C   0  0  2  0  0  3  0  0  0  0  0  0
  180.7290  179.8970  140.5500 C   0  0  0  0  0  2  0  0  0  0  0  0
  180.6950  177.5670  141.0320 C   0  0  0  0  0  2  0  0  0  0  0  0
  181.5480  178.7530  140.9620 N   0  0  0  0  0  0  0  0  0  0  0  0
  179.8990  179.6100  139.2850 C   0  0  0  0  0  2  0  0  0  0  0  0
  180.0830  178.2470  136.2470 O   0  0  0  0  0  1  0  0  0  0  0  0
  179.4070  177.9850  137.4400 C   0  0  0  0  0  2  0  0  0  0  0  0
  1  6  1  0  0  0  0
  2 11  1  0  0  0  0
  2 12  1  0  0  0  0
  3 10  1  0  0  0  0
  4  8  2  0  0  0  0
  5  1  2  0  0  0  0
  7  9  2  0  0  0  0
  7  4  1  0  0  0  0
  8  1  1  0  0  0  0
  9  5  1  0  0  0  0
 10 11  2  0  0  0  0
 11  7  1  0  0  0  0
 12 15  2  0  0  0  0
 13  2  2  0  0  0  0
 14  3  2  0  0  0  0
 14 13  1  0  0  0  0
 15  4  1  0  0  0  0
 16 17  2  0  0  0  0
 16  3  1  0  0  0  0
 18 16  1  0  0  0  0
 19 17  1  0  0  0  0
 20 19  2  0  0  0  0
 21 19  1  0  0  0  0
 22 21  1  1  0  0  0
 22 25  1  0  0  0  0
 23 25  1  0  0  0  0
 24 22  1  0  0  0  0
 25 28  1  1  0  0  0
 26 24  1  0  0  0  0
 26 23  1  0  0  0  0
 27 32  1  0  0  0  0
 27 33  1  0  0  0  0
 28 27  1  0  0  0  0
 30 31  1  0  0  0  0
 31 29  1  6  0  0  0
 32 30  2  0  0  0  0
 33 29  1  6  0  0  0
 33 31  1  0  0  0  0
 34 28  2  0  0  0  0
 35 13  1  0  0  0  0
 36 39  1  0  0  0  0
 37 43  1  6  0  0  0
 37 41  1  0  0  0  0
 37 36  1  0  0  0  0
 38 40  1  0  0  0  0
 40 39  1  0  0  0  0
 40 35  1  0  0  0  0
 41 38  1  0  0  0  0
 42 43  1  0  0  0  0
M  END
>  <MODEL>
2

>  <REMARK>
 VINA RESULT:      -9.3      3.464      7.945
  Name = 
  8 active torsions:
  status: ('A' for Active; 'I' for Inactive)
    1  A    between atoms: C_1  and  C_34
    2  A    between atoms: C_1  and  N_35
    3  A    between atoms: C_2  and  C_13
    4  A    between atoms: C_3  and  C_4
    5  A    between atoms: C_3  and  C_12
    6  A    between atoms: N_6  and  C_12
    7  A    between atoms: C_14  and  C_22
    8  A    between atoms: C_19  and  C_37
                            x       y       z     vdW  Elec       q    Type
                         _______ _______ _______ _____ _____    ______ ____

>  <TORSDO>
F 8

$$$$
=
 OpenBabel10262422343D

 43 49  0  0  1  0  0  0  0  0999 V2000
  187.8880  177.5060  147.0030 C   0  0  0  0  0  0  0  0  0  0  0  0
  186.3290  178.4030  142.2910 C   0  0  0  0  0  0  0  0  0  0  0  0
  188.5390  178.0420  140.5850 C   0  0  0  0  0  0  0  0  0  0  0  0
  186.5740  178.0440  145.0420 C   0  0  0  0  0  0  0  0  0  0  0  0
  189.0180  177.3240  146.2000 C   0  0  0  0  0  3  0  0  0  0  0  0
  187.9840  177.3150  148.4730 C   0  0  0  0  0  1  0  0  0  0  0  0
  187.7100  177.8610  144.2200 C   0  0  0  0  0  0  0  0  0  0  0  0
  186.6680  177.8660  146.4250 C   0  0  0  0  0  3  0  0  0  0  0  0
  188.9310  177.5000  144.8170 C   0  0  0  0  0  3  0  0  0  0  0  0
  188.6800  177.8660  141.9670 C   0  0  0  0  0  3  0  0  0  0  0  0
  187.5890  178.0410  142.8290 C   0  0  0  0  0  0  0  0  0  0  0  0
  185.2620  178.5710  143.1200 N   0  0  0  0  0  0  0  0  0  0  0  0
  186.1890  178.5840  140.9030 C   0  0  0  0  0  0  0  0  0  0  0  0
  187.2910  178.3980  140.0630 C   0  0  0  0  0  3  0  0  0  0  0  0
  185.3570  178.4010  144.4640 C   0  0  0  0  0  3  0  0  0  0  0  0
  189.6820  177.8420  139.6780 C   0  0  0  0  0  0  0  0  0  0  0  0
  190.7880  177.3260  140.1300 N   0  0  0  0  0  0  0  0  0  0  0  0
  189.5600  178.1950  138.3700 F   0  0  0  0  0  0  0  0  0  0  0  0
  191.9620  177.0630  139.3510 C   0  0  0  0  0  0  0  0  0  0  0  0
  193.1160  177.1790  139.8450 O   0  0  0  0  0  0  0  0  0  0  0  0
  191.8200  176.6690  137.9220 C   0  0  0  0  0  2  0  0  0  0  0  0
  192.0050  175.1680  137.7560 C   0  0  2  0  0  3  0  0  0  0  0  0
  192.2340  173.2520  135.8260 S   0  0  0  0  0  0  0  0  0  0  0  0
  193.4720  174.8250  137.6330 C   0  0  0  0  0  2  0  0  0  0  0  0
  191.3350  174.6990  136.4780 C   0  0  1  0  0  3  0  0  0  0  0  0
  193.5410  173.4220  137.0770 C   0  0  0  0  0  2  0  0  0  0  0  0
  188.8600  175.2320  136.2280 N   0  0  0  0  0  0  0  0  0  0  0  0
  189.8930  174.3700  136.7210 C   0  0  0  0  0  0  0  0  0  0  0  0
  186.8420  176.0540  137.3330 C   0  0  0  0  0  2  0  0  0  0  0  0
  187.7710  177.0830  135.2490 C   0  0  0  0  0  3  0  0  0  0  0  0
  186.7110  176.1410  135.8220 C   0  0  1  0  0  3  0  0  0  0  0  0
  189.1240  176.4250  135.4500 C   0  0  0  0  0  3  0  0  0  0  0  0
  187.4500  174.9740  136.4550 C   0  0  1  0  0  3  0  0  0  0  0  0
  189.5910  173.3390  137.3830 O   0  0  0  0  0  0  0  0  0  0  0  0
  184.8690  178.9420  140.2990 C   0  0  0  0  0  2  0  0  0  0  0  0
  182.5190  176.1510  139.5290 C   0  0  0  0  0  2  0  0  0  0  0  0
  183.0250  175.9760  138.0940 C   0  0  2  0  0  3  0  0  0  0  0  0
  184.0340  178.3060  138.2040 C   0  0  0  0  0  2  0  0  0  0  0  0
  183.0870  177.4100  140.1940 C   0  0  0  0  0  2  0  0  0  0  0  0
  184.3360  177.8130  139.5510 N   0  0  0  0  0  0  0  0  0  0  0  0
  183.1630  177.3280  137.3930 C   0  0  0  0  0  2  0  0  0  0  0  0
  182.7850  174.3810  136.3330 O   0  0  0  0  0  1  0  0  0  0  0  0
  182.0820  175.0660  137.3250 C   0  0  0  0  0  2  0  0  0  0  0  0
  1  6  1  0  0  0  0
  2 11  1  0  0  0  0
  2 12  1  0  0  0  0
  3 10  1  0  0  0  0
  4  8  2  0  0  0  0
  5  1  2  0  0  0  0
  7  9  2  0  0  0  0
  7  4  1  0  0  0  0
  8  1  1  0  0  0  0
  9  5  1  0  0  0  0
 10 11  2  0  0  0  0
 11  7  1  0  0  0  0
 12 15  2  0  0  0  0
 13  2  2  0  0  0  0
 14  3  2  0  0  0  0
 14 13  1  0  0  0  0
 15  4  1  0  0  0  0
 16 17  2  0  0  0  0
 16  3  1  0  0  0  0
 18 16  1  0  0  0  0
 19 20  2  0  0  0  0
 19 17  1  0  0  0  0
 21 19  1  0  0  0  0
 22 21  1  6  0  0  0
 23 25  1  0  0  0  0
 23 26  1  0  0  0  0
 24 22  1  0  0  0  0
 25 28  1  1  0  0  0
 25 22  1  0  0  0  0
 26 24  1  0  0  0  0
 27 33  1  0  0  0  0
 27 28  1  0  0  0  0
 28 34  2  0  0  0  0
 30 32  2  0  0  0  0
 31 30  1  6  0  0  0
 31 33  1  0  0  0  0
 31 29  1  0  0  0  0
 32 27  1  0  0  0  0
 33 29  1  1  0  0  0
 35 13  1  0  0  0  0
 36 39  1  0  0  0  0
 37 43  1  6  0  0  0
 37 36  1  0  0  0  0
 38 40  1  0  0  0  0
 40 39  1  0  0  0  0
 40 35  1  0  0  0  0
 41 37  1  0  0  0  0
 41 38  1  0  0  0  0
 42 43  1  0  0  0  0
M  END
>  <MODEL>
3

>  <REMARK>
 VINA RESULT:      -9.2      3.729      7.423
  Name = 
  8 active torsions:
  status: ('A' for Active; 'I' for Inactive)
    1  A    between atoms: C_1  and  C_34
    2  A    between atoms: C_1  and  N_35
    3  A    between atoms: C_2  and  C_13
    4  A    between atoms: C_3  and  C_4
    5  A    between atoms: C_3  and  C_12
    6  A    between atoms: N_6  and  C_12
    7  A    between atoms: C_14  and  C_22
    8  A    between atoms: C_19  and  C_37
                            x       y       z     vdW  Elec       q    Type
                         _______ _______ _______ _____ _____    ______ ____

>  <TORSDO>
F 8

$$$$
=
 OpenBabel10262422343D

 43 49  0  0  1  0  0  0  0  0999 V2000
  190.9410  176.7730  146.4010 C   0  0  0  0  0  0  0  0  0  0  0  0
  189.7940  177.5520  141.5520 C   0  0  0  0  0  0  0  0  0  0  0  0
  187.1380  178.4780  141.4480 C   0  0  0  0  0  0  0  0  0  0  0  0
  191.0010  176.9430  143.9860 C   0  0  0  0  0  0  0  0  0  0  0  0
  189.6170  177.2210  146.4030 C   0  0  0  0  0  3  0  0  0  0  0  0
  191.6160  176.4470  147.6840 C   0  0  0  0  0  1  0  0  0  0  0  0
  189.6630  177.3980  143.9770 C   0  0  0  0  0  0  0  0  0  0  0  0
  191.6330  176.6340  145.1950 C   0  0  0  0  0  3  0  0  0  0  0  0
  188.9800  177.5320  145.1990 C   0  0  0  0  0  3  0  0  0  0  0  0
  187.7280  178.1680  142.6810 C   0  0  0  0  0  3  0  0  0  0  0  0
  189.0500  177.7070  142.7480 C   0  0  0  0  0  0  0  0  0  0  0  0
  191.0800  177.1090  141.6080 N   0  0  0  0  0  0  0  0  0  0  0  0
  189.1990  177.8590  140.3150 C   0  0  0  0  0  0  0  0  0  0  0  0
  187.8810  178.3240  140.2730 C   0  0  0  0  0  3  0  0  0  0  0  0
  191.6900  176.8060  142.7830 C   0  0  0  0  0  3  0  0  0  0  0  0
  185.7540  178.9790  141.3800 C   0  0  0  0  0  0  0  0  0  0  0  0
  184.9880  178.6380  140.3860 N   0  0  0  0  0  0  0  0  0  0  0  0
  185.2940  179.7920  142.3680 F   0  0  0  0  0  0  0  0  0  0  0  0
  183.6230  179.0400  140.2100 C   0  0  0  0  0  0  0  0  0  0  0  0
  182.7670  178.8690  141.1190 O   0  0  0  0  0  0  0  0  0  0  0  0
  183.2000  179.6490  138.9190 C   0  0  0  0  0  2  0  0  0  0  0  0
  181.7340  179.3530  138.6380 C   0  0  2  0  0  3  0  0  0  0  0  0
  179.9190  179.3320  136.6000 S   0  0  0  0  0  0  0  0  0  0  0  0
  181.5580  177.9140  138.2050 C   0  0  0  0  0  2  0  0  0  0  0  0
  181.2370  180.2200  137.4960 C   0  0  1  0  0  3  0  0  0  0  0  0
  180.1900  177.8200  137.5710 C   0  0  0  0  0  2  0  0  0  0  0  0
  180.6210  182.6580  137.1170 N   0  0  0  0  0  0  0  0  0  0  0  0
  180.7440  181.5410  138.0050 C   0  0  0  0  0  0  0  0  0  0  0  0
  181.2860  184.9890  137.4250 C   0  0  0  0  0  2  0  0  0  0  0  0
  180.7680  184.0040  135.1830 C   0  0  0  0  0  3  0  0  0  0  0  0
  180.2370  184.8610  136.3340 C   0  0  1  0  0  3  0  0  0  0  0  0
  180.9160  182.5840  135.7000 C   0  0  0  0  0  3  0  0  0  0  0  0
  180.1720  183.9650  137.5600 C   0  0  1  0  0  3  0  0  0  0  0  0
  180.4580  181.6720  139.2270 O   0  0  0  0  0  0  0  0  0  0  0  0
  189.9630  177.7310  139.0360 C   0  0  0  0  0  2  0  0  0  0  0  0
  188.7160  175.3840  136.4190 C   0  0  0  0  0  2  0  0  0  0  0  0
  189.4720  174.1790  136.9850 C   0  0  2  0  0  3  0  0  0  0  0  0
  190.9890  175.7730  138.2580 C   0  0  0  0  0  2  0  0  0  0  0  0
  189.1320  176.6980  137.0930 C   0  0  0  0  0  2  0  0  0  0  0  0
  189.6930  176.4420  138.4180 N   0  0  0  0  0  0  0  0  0  0  0  0
  190.9170  174.5490  137.3270 C   0  0  0  0  0  2  0  0  0  0  0  0
  188.2720  172.2800  136.1740 O   0  0  0  0  0  1  0  0  0  0  0  0
  189.4320  173.0340  135.9890 C   0  0  0  0  0  2  0  0  0  0  0  0
  1  5  1  0  0  0  0
  1  6  1  0  0  0  0
  2 12  1  0  0  0  0
  2 11  1  0  0  0  0
  3 10  1  0  0  0  0
  4  8  1  0  0  0  0
  7  4  2  0  0  0  0
  7  9  1  0  0  0  0
  8  1  2  0  0  0  0
  9  5  2  0  0  0  0
 10 11  2  0  0  0  0
 11  7  1  0  0  0  0
 12 15  2  0  0  0  0
 13  2  2  0  0  0  0
 14 13  1  0  0  0  0
 14  3  2  0  0  0  0
 15  4  1  0  0  0  0
 16  3  1  0  0  0  0
 16 18  1  0  0  0  0
 17 16  2  0  0  0  0
 19 17  1  0  0  0  0
 19 20  2  0  0  0  0
 21 19  1  0  0  0  0
 22 21  1  6  0  0  0
 23 25  1  0  0  0  0
 23 26  1  0  0  0  0
 24 22  1  0  0  0  0
 25 28  1  1  0  0  0
 25 22  1  0  0  0  0
 26 24  1  0  0  0  0
 27 33  1  0  0  0  0
 27 28  1  0  0  0  0
 28 34  2  0  0  0  0
 30 32  2  0  0  0  0
 31 30  1  6  0  0  0
 31 29  1  0  0  0  0
 31 33  1  0  0  0  0
 32 27  1  0  0  0  0
 33 29  1  1  0  0  0
 35 13  1  0  0  0  0
 36 37  1  0  0  0  0
 36 39  1  0  0  0  0
 37 43  1  6  0  0  0
 37 41  1  0  0  0  0
 38 40  1  0  0  0  0
 39 40  1  0  0  0  0
 40 35  1  0  0  0  0
 41 38  1  0  0  0  0
 43 42  1  0  0  0  0
M  END
>  <MODEL>
4

>  <REMARK>
 VINA RESULT:      -9.0      2.926      3.797
  Name = 
  8 active torsions:
  status: ('A' for Active; 'I' for Inactive)
    1  A    between atoms: C_1  and  C_34
    2  A    between atoms: C_1  and  N_35
    3  A    between atoms: C_2  and  C_13
    4  A    between atoms: C_3  and  C_4
    5  A    between atoms: C_3  and  C_12
    6  A    between atoms: N_6  and  C_12
    7  A    between atoms: C_14  and  C_22
    8  A    between atoms: C_19  and  C_37
                            x       y       z     vdW  Elec       q    Type
                         _______ _______ _______ _____ _____    ______ ____

>  <TORSDO>
F 8

$$$$
=
 OpenBabel10262422343D

 43 49  0  0  1  0  0  0  0  0999 V2000
  188.5030  177.5370  146.9920 C   0  0  0  0  0  0  0  0  0  0  0  0
  190.1980  177.4110  142.2430 C   0  0  0  0  0  0  0  0  0  0  0  0
  188.0300  178.0170  140.5540 C   0  0  0  0  0  0  0  0  0  0  0  0
  189.8760  177.3280  145.0080 C   0  0  0  0  0  0  0  0  0  0  0  0
  187.3920  177.8330  146.1960 C   0  0  0  0  0  3  0  0  0  0  0  0
  188.3650  177.4920  148.4700 C   0  0  0  0  0  1  0  0  0  0  0  0
  188.7600  177.6280  144.1940 C   0  0  0  0  0  0  0  0  0  0  0  0
  189.7430  177.2850  146.3990 C   0  0  0  0  0  3  0  0  0  0  0  0
  187.5190  177.8790  144.8050 C   0  0  0  0  0  3  0  0  0  0  0  0
  187.8490  177.9700  141.9420 C   0  0  0  0  0  3  0  0  0  0  0  0
  188.9200  177.6710  142.7960 C   0  0  0  0  0  0  0  0  0  0  0  0
  191.2450  177.1240  143.0650 N   0  0  0  0  0  0  0  0  0  0  0  0
  190.3770  177.4540  140.8490 C   0  0  0  0  0  0  0  0  0  0  0  0
  189.2960  177.7600  140.0170 C   0  0  0  0  0  3  0  0  0  0  0  0
  191.1130  177.0790  144.4160 C   0  0  0  0  0  3  0  0  0  0  0  0
  186.9080  178.3480  139.6580 C   0  0  0  0  0  0  0  0  0  0  0  0
  185.7740  178.7470  140.1550 N   0  0  0  0  0  0  0  0  0  0  0  0
  187.0790  178.2360  138.3130 F   0  0  0  0  0  0  0  0  0  0  0  0
  184.6160  179.1150  139.3960 C   0  0  0  0  0  0  0  0  0  0  0  0
  184.4830  180.2760  138.9240 O   0  0  0  0  0  0  0  0  0  0  0  0
  183.5330  178.1150  139.1810 C   0  0  0  0  0  2  0  0  0  0  0  0
  182.9710  178.2250  137.7710 C   0  0  2  0  0  3  0  0  0  0  0  0
  181.4760  176.8330  135.9620 S   0  0  0  0  0  0  0  0  0  0  0  0
  181.5730  178.8020  137.8020 C   0  0  0  0  0  2  0  0  0  0  0  0
  182.8640  176.8470  137.1440 C   0  0  1  0  0  3  0  0  0  0  0  0
  180.9540  178.5020  136.4570 C   0  0  0  0  0  2  0  0  0  0  0  0
  184.7660  175.2060  136.7460 N   0  0  0  0  0  0  0  0  0  0  0  0
  184.1480  176.4680  136.4690 C   0  0  0  0  0  0  0  0  0  0  0  0
  187.1080  174.6700  137.1920 C   0  0  0  0  0  2  0  0  0  0  0  0
  185.2260  173.1100  137.7280 C   0  0  0  0  0  3  0  0  0  0  0  0
  186.3430  173.4390  136.7360 C   0  0  1  0  0  3  0  0  0  0  0  0
  184.1940  174.2190  137.6400 C   0  0  0  0  0  3  0  0  0  0  0  0
  186.0200  174.7980  136.1400 C   0  0  1  0  0  3  0  0  0  0  0  0
  184.6950  177.2760  135.6700 O   0  0  0  0  0  0  0  0  0  0  0  0
  191.7180  177.2080  140.2330 C   0  0  0  0  0  2  0  0  0  0  0  0
  192.8470  176.3940  136.7730 C   0  0  0  0  0  2  0  0  0  0  0  0
  191.4610  175.9360  136.3110 C   0  0  2  0  0  3  0  0  0  0  0  0
  190.7810  175.6590  138.7450 C   0  0  0  0  0  2  0  0  0  0  0  0
  192.9060  176.6270  138.2880 C   0  0  0  0  0  2  0  0  0  0  0  0
  191.5710  176.8920  138.8200 N   0  0  0  0  0  0  0  0  0  0  0  0
  190.8150  175.0140  137.3470 C   0  0  0  0  0  2  0  0  0  0  0  0
  191.0900  173.9330  135.0650 O   0  0  0  0  0  1  0  0  0  0  0  0
  191.5730  175.2390  134.9670 C   0  0  0  0  0  2  0  0  0  0  0  0
  1  6  1  0  0  0  0
  2 11  1  0  0  0  0
  2 12  1  0  0  0  0
  3 10  1  0  0  0  0
  4  8  2  0  0  0  0
  5  1  2  0  0  0  0
  7  9  2  0  0  0  0
  7  4  1  0  0  0  0
  8  1  1  0  0  0  0
  9  5  1  0  0  0  0
 10 11  2  0  0  0  0
 11  7  1  0  0  0  0
 12 15  2  0  0  0  0
 13  2  2  0  0  0  0
 14  3  2  0  0  0  0
 14 13  1  0  0  0  0
 15  4  1  0  0  0  0
 16 17  2  0  0  0  0
 16  3  1  0  0  0  0
 18 16  1  0  0  0  0
 19 17  1  0  0  0  0
 20 19  2  0  0  0  0
 21 19  1  0  0  0  0
 22 24  1  0  0  0  0
 22 21  1  1  0  0  0
 23 26  1  0  0  0  0
 23 25  1  0  0  0  0
 25 28  1  6  0  0  0
 25 22  1  0  0  0  0
 26 24  1  0  0  0  0
 27 32  1  0  0  0  0
 28 27  1  0  0  0  0
 31 29  1  1  0  0  0
 31 30  1  0  0  0  0
 32 30  2  0  0  0  0
 33 31  1  0  0  0  0
 33 27  1  0  0  0  0
 33 29  1  1  0  0  0
 34 28  2  0  0  0  0
 35 13  1  0  0  0  0
 36 39  1  0  0  0  0
 37 43  1  6  0  0  0
 37 36  1  0  0  0  0
 37 41  1  0  0  0  0
 38 40  1  0  0  0  0
 39 40  1  0  0  0  0
 40 35  1  0  0  0  0
 41 38  1  0  0  0  0
 43 42  1  0  0  0  0
M  END
>  <MODEL>
5

>  <REMARK>
 VINA RESULT:      -8.8      2.824      3.858
  Name = 
  8 active torsions:
  status: ('A' for Active; 'I' for Inactive)
    1  A    between atoms: C_1  and  C_34
    2  A    between atoms: C_1  and  N_35
    3  A    between atoms: C_2  and  C_13
    4  A    between atoms: C_3  and  C_4
    5  A    between atoms: C_3  and  C_12
    6  A    between atoms: N_6  and  C_12
    7  A    between atoms: C_14  and  C_22
    8  A    between atoms: C_19  and  C_37
                            x       y       z     vdW  Elec       q    Type
                         _______ _______ _______ _____ _____    ______ ____

>  <TORSDO>
F 8

$$$$
=
 OpenBabel10262422343D

 43 49  0  0  1  0  0  0  0  0999 V2000
  191.2840  176.4140  147.0010 C   0  0  0  0  0  0  0  0  0  0  0  0
  187.2190  177.9030  144.4130 C   0  0  0  0  0  0  0  0  0  0  0  0
  187.9390  178.0120  141.6940 C   0  0  0  0  0  0  0  0  0  0  0  0
  189.0660  177.1370  146.3510 C   0  0  0  0  0  0  0  0  0  0  0  0
  191.6940  176.4610  145.6650 C   0  0  0  0  0  3  0  0  0  0  0  0
  192.2440  176.0030  148.0580 C   0  0  0  0  0  1  0  0  0  0  0  0
  189.4700  177.1870  144.9970 C   0  0  0  0  0  0  0  0  0  0  0  0
  189.9720  176.7520  147.3430 C   0  0  0  0  0  3  0  0  0  0  0  0
  190.7940  176.8450  144.6680 C   0  0  0  0  0  3  0  0  0  0  0  0
  188.8830  177.6330  142.6580 C   0  0  0  0  0  3  0  0  0  0  0  0
  188.5390  177.5730  144.0150 C   0  0  0  0  0  0  0  0  0  0  0  0
  186.8740  177.8430  145.7290 N   0  0  0  0  0  0  0  0  0  0  0  0
  186.2740  178.2880  143.4450 C   0  0  0  0  0  0  0  0  0  0  0  0
  186.6390  178.3350  142.0960 C   0  0  0  0  0  3  0  0  0  0  0  0
  187.7570  177.4730  146.6920 C   0  0  0  0  0  3  0  0  0  0  0  0
  188.2970  178.0590  140.2660 C   0  0  0  0  0  0  0  0  0  0  0  0
  187.3740  178.2530  139.3700 N   0  0  0  0  0  0  0  0  0  0  0  0
  189.5990  177.9030  139.9030 F   0  0  0  0  0  0  0  0  0  0  0  0
  187.5910  178.3370  137.9550 C   0  0  0  0  0  0  0  0  0  0  0  0
  188.2310  179.2960  137.4460 O   0  0  0  0  0  0  0  0  0  0  0  0
  187.0280  177.2840  137.0650 C   0  0  0  0  0  2  0  0  0  0  0  0
  187.6910  175.9410  137.3340 C   0  0  2  0  0  3  0  0  0  0  0  0
  188.3700  173.6140  136.0810 S   0  0  0  0  0  0  0  0  0  0  0  0
  189.1700  176.0090  137.0260 C   0  0  0  0  0  2  0  0  0  0  0  0
  187.1010  174.8780  136.4260 C   0  0  1  0  0  3  0  0  0  0  0  0
  189.6550  174.5820  136.9260 C   0  0  0  0  0  2  0  0  0  0  0  0
  184.5740  174.6720  136.6340 N   0  0  0  0  0  0  0  0  0  0  0  0
  185.8840  174.2610  137.0460 C   0  0  0  0  0  0  0  0  0  0  0  0
  182.6010  175.2000  137.9740 C   0  0  0  0  0  2  0  0  0  0  0  0
  182.8360  175.8640  135.5720 C   0  0  0  0  0  3  0  0  0  0  0  0
  182.2150  174.8600  136.5450 C   0  0  1  0  0  3  0  0  0  0  0  0
  184.3390  175.6520  135.5930 C   0  0  0  0  0  3  0  0  0  0  0  0
  183.3630  174.1260  137.2170 C   0  0  1  0  0  3  0  0  0  0  0  0
  186.0170  173.3930  137.9510 O   0  0  0  0  0  0  0  0  0  0  0  0
  184.8660  178.6190  143.8260 C   0  0  0  0  0  2  0  0  0  0  0  0
  183.4300  177.9070  140.4590 C   0  0  0  0  0  2  0  0  0  0  0  0
  182.3660  179.0040  140.5610 C   0  0  2  0  0  3  0  0  0  0  0  0
  182.6820  179.0260  143.0830 C   0  0  0  0  0  2  0  0  0  0  0  0
  184.1570  177.6790  141.7900 C   0  0  0  0  0  2  0  0  0  0  0  0
  184.0690  178.8690  142.6350 N   0  0  0  0  0  0  0  0  0  0  0  0
  181.6710  178.9680  141.9230 C   0  0  0  0  0  2  0  0  0  0  0  0
  181.6530  179.7300  138.4010 O   0  0  0  0  0  1  0  0  0  0  0  0
  181.3560  178.8440  139.4380 C   0  0  0  0  0  2  0  0  0  0  0  0
  1  8  1  0  0  0  0
  1  6  1  0  0  0  0
  2 12  1  0  0  0  0
  3 14  2  0  0  0  0
  3 10  1  0  0  0  0
  4 15  1  0  0  0  0
  4  8  2  0  0  0  0
  5  1  2  0  0  0  0
  7  4  1  0  0  0  0
  9  7  2  0  0  0  0
  9  5  1  0  0  0  0
 10 11  2  0  0  0  0
 11  2  1  0  0  0  0
 11  7  1  0  0  0  0
 12 15  2  0  0  0  0
 13 35  1  0  0  0  0
 13  2  2  0  0  0  0
 14 13  1  0  0  0  0
 16  3  1  0  0  0  0
 17 16  2  0  0  0  0
 18 16  1  0  0  0  0
 19 17  1  0  0  0  0
 20 19  2  0  0  0  0
 21 19  1  0  0  0  0
 22 21  1  6  0  0  0
 23 25  1  0  0  0  0
 23 26  1  0  0  0  0
 24 22  1  0  0  0  0
 25 28  1  1  0  0  0
 25 22  1  0  0  0  0
 26 24  1  0  0  0  0
 27 28  1  0  0  0  0
 27 33  1  0  0  0  0
 28 34  2  0  0  0  0
 30 32  2  0  0  0  0
 31 30  1  6  0  0  0
 31 33  1  0  0  0  0
 31 29  1  0  0  0  0
 32 27  1  0  0  0  0
 33 29  1  1  0  0  0
 36 37  1  0  0  0  0
 36 39  1  0  0  0  0
 37 43  1  6  0  0  0
 37 41  1  0  0  0  0
 39 40  1  0  0  0  0
 40 38  1  0  0  0  0
 40 35  1  0  0  0  0
 41 38  1  0  0  0  0
 42 43  1  0  0  0  0
M  END
>  <MODEL>
6

>  <REMARK>
 VINA RESULT:      -8.8      2.723      6.174
  Name = 
  8 active torsions:
  status: ('A' for Active; 'I' for Inactive)
    1  A    between atoms: C_1  and  C_34
    2  A    between atoms: C_1  and  N_35
    3  A    between atoms: C_2  and  C_13
    4  A    between atoms: C_3  and  C_4
    5  A    between atoms: C_3  and  C_12
    6  A    between atoms: N_6  and  C_12
    7  A    between atoms: C_14  and  C_22
    8  A    between atoms: C_19  and  C_37
                            x       y       z     vdW  Elec       q    Type
                         _______ _______ _______ _____ _____    ______ ____

>  <TORSDO>
F 8

$$$$
=
 OpenBabel10262422343D

 43 49  0  0  1  0  0  0  0  0999 V2000
  191.2940  176.4410  146.9390 C   0  0  0  0  0  0  0  0  0  0  0  0
  187.0230  177.9620  144.7300 C   0  0  0  0  0  0  0  0  0  0  0  0
  187.5340  178.2030  141.9720 C   0  0  0  0  0  0  0  0  0  0  0  0
  189.0220  177.1480  146.4890 C   0  0  0  0  0  0  0  0  0  0  0  0
  191.6010  176.5540  145.5800 C   0  0  0  0  0  3  0  0  0  0  0  0
  192.3370  176.0020  147.9020 C   0  0  0  0  0  1  0  0  0  0  0  0
  189.3220  177.2640  145.1120 C   0  0  0  0  0  0  0  0  0  0  0  0
  190.0060  176.7380  147.3930 C   0  0  0  0  0  3  0  0  0  0  0  0
  190.6220  176.9630  144.6710 C   0  0  0  0  0  3  0  0  0  0  0  0
  188.5540  177.8000  142.8450 C   0  0  0  0  0  3  0  0  0  0  0  0
  188.3130  177.6750  144.2210 C   0  0  0  0  0  0  0  0  0  0  0  0
  186.7780  177.8390  146.0640 N   0  0  0  0  0  0  0  0  0  0  0  0
  186.0010  178.3700  143.8530 C   0  0  0  0  0  0  0  0  0  0  0  0
  186.2630  178.4830  142.4840 C   0  0  0  0  0  3  0  0  0  0  0  0
  187.7370  177.4440  146.9410 C   0  0  0  0  0  3  0  0  0  0  0  0
  187.7830  178.3180  140.5250 C   0  0  0  0  0  0  0  0  0  0  0  0
  188.9960  178.2310  140.0650 N   0  0  0  0  0  0  0  0  0  0  0  0
  186.7300  178.5070  139.6850 F   0  0  0  0  0  0  0  0  0  0  0  0
  189.3700  178.3080  138.6830 C   0  0  0  0  0  0  0  0  0  0  0  0
  188.9650  179.2460  137.9450 O   0  0  0  0  0  0  0  0  0  0  0  0
  190.2340  177.2450  138.0980 C   0  0  0  0  0  2  0  0  0  0  0  0
  189.4650  176.4320  137.0670 C   0  0  2  0  0  3  0  0  0  0  0  0
  188.8620  173.8540  136.4080 S   0  0  0  0  0  0  0  0  0  0  0  0
  188.0570  176.1610  137.5490 C   0  0  0  0  0  2  0  0  0  0  0  0
  190.1290  175.0830  136.8670 C   0  0  1  0  0  3  0  0  0  0  0  0
  187.5160  175.0430  136.6890 C   0  0  0  0  0  2  0  0  0  0  0  0
  192.5730  174.9560  136.1740 N   0  0  0  0  0  0  0  0  0  0  0  0
  191.2000  175.1650  135.8210 C   0  0  0  0  0  0  0  0  0  0  0  0
  194.5660  176.2150  135.5330 C   0  0  0  0  0  2  0  0  0  0  0  0
  194.5250  174.6130  137.4550 C   0  0  0  0  0  3  0  0  0  0  0  0
  194.9310  174.8140  135.9940 C   0  0  1  0  0  3  0  0  0  0  0  0
  193.0080  174.6220  137.5140 C   0  0  0  0  0  3  0  0  0  0  0  0
  193.6520  175.0470  135.2070 C   0  0  1  0  0  3  0  0  0  0  0  0
  190.8900  175.4420  134.6300 O   0  0  0  0  0  0  0  0  0  0  0  0
  184.6210  178.6580  144.3530 C   0  0  0  0  0  2  0  0  0  0  0  0
  183.0150  178.1920  141.0200 C   0  0  0  0  0  2  0  0  0  0  0  0
  181.9070  179.2150  141.2890 C   0  0  2  0  0  3  0  0  0  0  0  0
  182.3780  179.0150  143.7790 C   0  0  0  0  0  2  0  0  0  0  0  0
  183.8330  177.8780  142.2780 C   0  0  0  0  0  2  0  0  0  0  0  0
  183.7400  178.9760  143.2390 N   0  0  0  0  0  0  0  0  0  0  0  0
  181.3000  179.0130  142.6790 C   0  0  0  0  0  2  0  0  0  0  0  0
  179.5830  179.3700  140.7660 O   0  0  0  0  0  1  0  0  0  0  0  0
  180.8390  179.1090  140.2160 C   0  0  0  0  0  2  0  0  0  0  0  0
  1  8  1  0  0  0  0
  1  6  1  0  0  0  0
  2 12  1  0  0  0  0
  3 14  2  0  0  0  0
  3 10  1  0  0  0  0
  4 15  1  0  0  0  0
  4  8  2  0  0  0  0
  5  1  2  0  0  0  0
  7  4  1  0  0  0  0
  9  7  2  0  0  0  0
  9  5  1  0  0  0  0
 10 11  2  0  0  0  0
 11  2  1  0  0  0  0
 11  7  1  0  0  0  0
 12 15  2  0  0  0  0
 13 35  1  0  0  0  0
 13  2  2  0  0  0  0
 14 13  1  0  0  0  0
 16  3  1  0  0  0  0
 17 16  2  0  0  0  0
 18 16  1  0  0  0  0
 19 17  1  0  0  0  0
 20 19  2  0  0  0  0
 21 19  1  0  0  0  0
 22 24  1  0  0  0  0
 22 21  1  1  0  0  0
 23 26  1  0  0  0  0
 23 25  1  0  0  0  0
 25 28  1  6  0  0  0
 25 22  1  0  0  0  0
 26 24  1  0  0  0  0
 27 32  1  0  0  0  0
 28 27  1  0  0  0  0
 30 32  2  0  0  0  0
 31 29  1  1  0  0  0
 31 30  1  0  0  0  0
 33 29  1  1  0  0  0
 33 31  1  0  0  0  0
 33 27  1  0  0  0  0
 34 28  2  0  0  0  0
 36 37  1  0  0  0  0
 36 39  1  0  0  0  0
 37 43  1  6  0  0  0
 37 41  1  0  0  0  0
 39 40  1  0  0  0  0
 40 38  1  0  0  0  0
 40 35  1  0  0  0  0
 41 38  1  0  0  0  0
 43 42  1  0  0  0  0
M  END
>  <MODEL>
7

>  <REMARK>
 VINA RESULT:      -8.8      3.253      7.808
  Name = 
  8 active torsions:
  status: ('A' for Active; 'I' for Inactive)
    1  A    between atoms: C_1  and  C_34
    2  A    between atoms: C_1  and  N_35
    3  A    between atoms: C_2  and  C_13
    4  A    between atoms: C_3  and  C_4
    5  A    between atoms: C_3  and  C_12
    6  A    between atoms: N_6  and  C_12
    7  A    between atoms: C_14  and  C_22
    8  A    between atoms: C_19  and  C_37
                            x       y       z     vdW  Elec       q    Type
                         _______ _______ _______ _____ _____    ______ ____

>  <TORSDO>
F 8

$$$$
=
 OpenBabel10262422343D

 43 49  0  0  1  0  0  0  0  0999 V2000
  185.0720  178.5540  145.9710 C   0  0  0  0  0  0  0  0  0  0  0  0
  183.0370  178.9030  141.3700 C   0  0  0  0  0  0  0  0  0  0  0  0
  185.1130  178.5760  139.4980 C   0  0  0  0  0  0  0  0  0  0  0  0
  183.5500  178.8080  144.1050 C   0  0  0  0  0  0  0  0  0  0  0  0
  186.1400  178.3950  145.0820 C   0  0  0  0  0  3  0  0  0  0  0  0
  185.3120  178.5010  147.4360 C   0  0  0  0  0  1  0  0  0  0  0  0
  184.6220  178.6470  143.1980 C   0  0  0  0  0  0  0  0  0  0  0  0
  183.7790  178.7610  145.4830 C   0  0  0  0  0  3  0  0  0  0  0  0
  185.9180  178.4410  143.7040 C   0  0  0  0  0  3  0  0  0  0  0  0
  185.3900  178.5340  140.8710 C   0  0  0  0  0  3  0  0  0  0  0  0
  184.3660  178.6950  141.8150 C   0  0  0  0  0  0  0  0  0  0  0  0
  182.0340  179.0560  142.2790 N   0  0  0  0  0  0  0  0  0  0  0  0
  182.7610  178.9500  139.9910 C   0  0  0  0  0  0  0  0  0  0  0  0
  183.7980  178.7810  139.0680 C   0  0  0  0  0  3  0  0  0  0  0  0
  182.2600  179.0130  143.6180 C   0  0  0  0  0  3  0  0  0  0  0  0
  186.1870  178.3900  138.5070 C   0  0  0  0  0  0  0  0  0  0  0  0
  187.4310  178.5150  138.8650 N   0  0  0  0  0  0  0  0  0  0  0  0
  185.8580  178.0830  137.2230 F   0  0  0  0  0  0  0  0  0  0  0  0
  188.5660  178.3430  138.0060 C   0  0  0  0  0  0  0  0  0  0  0  0
  189.1100  179.3250  137.4330 O   0  0  0  0  0  0  0  0  0  0  0  0
  189.0990  176.9730  137.7630 C   0  0  0  0  0  2  0  0  0  0  0  0
  190.6150  177.0010  137.6320 C   0  0  2  0  0  3  0  0  0  0  0  0
  192.8280  175.5080  138.1990 S   0  0  0  0  0  0  0  0  0  0  0  0
  191.0480  176.3300  136.3480 C   0  0  0  0  0  2  0  0  0  0  0  0
  191.2500  176.2240  138.7700 C   0  0  1  0  0  3  0  0  0  0  0  0
  192.5240  176.0430  136.4890 C   0  0  0  0  0  2  0  0  0  0  0  0
  190.5620  177.0410  141.0780 N   0  0  0  0  0  0  0  0  0  0  0  0
  191.4620  177.1040  139.9640 C   0  0  0  0  0  0  0  0  0  0  0  0
  189.5320  178.8430  142.3670 C   0  0  0  0  0  2  0  0  0  0  0  0
  188.7070  176.4810  142.4240 C   0  0  0  0  0  3  0  0  0  0  0  0
  189.5340  177.5420  143.1520 C   0  0  1  0  0  3  0  0  0  0  0  0
  189.4430  176.1240  141.1460 C   0  0  0  0  0  3  0  0  0  0  0  0
  190.7060  177.8870  142.2490 C   0  0  1  0  0  3  0  0  0  0  0  0
  192.4240  177.9200  139.9760 O   0  0  0  0  0  0  0  0  0  0  0  0
  181.3670  179.1440  139.4870 C   0  0  0  0  0  2  0  0  0  0  0  0
  180.7440  181.1940  136.4340 C   0  0  0  0  0  2  0  0  0  0  0  0
  180.7280  182.5220  137.1960 C   0  0  2  0  0  3  0  0  0  0  0  0
  180.3240  181.2380  139.3520 C   0  0  0  0  0  2  0  0  0  0  0  0
  180.7540  179.9840  137.3770 C   0  0  0  0  0  2  0  0  0  0  0  0
  181.2870  180.3560  138.6860 N   0  0  0  0  0  0  0  0  0  0  0  0
  179.8800  182.4150  138.4650 C   0  0  0  0  0  2  0  0  0  0  0  0
  181.2160  184.5590  136.0510 O   0  0  0  0  0  1  0  0  0  0  0  0
  180.2080  183.6260  136.2930 C   0  0  0  0  0  2  0  0  0  0  0  0
  1  6  1  0  0  0  0
  2 11  1  0  0  0  0
  2 12  1  0  0  0  0
  3 10  1  0  0  0  0
  4  8  2  0  0  0  0
  5  1  2  0  0  0  0
  7  9  2  0  0  0  0
  7  4  1  0  0  0  0
  8  1  1  0  0  0  0
  9  5  1  0  0  0  0
 10 11  2  0  0  0  0
 11  7  1  0  0  0  0
 12 15  2  0  0  0  0
 13  2  2  0  0  0  0
 14  3  2  0  0  0  0
 14 13  1  0  0  0  0
 15  4  1  0  0  0  0
 16 17  2  0  0  0  0
 16  3  1  0  0  0  0
 18 16  1  0  0  0  0
 19 17  1  0  0  0  0
 20 19  2  0  0  0  0
 21 19  1  0  0  0  0
 22 21  1  1  0  0  0
 22 25  1  0  0  0  0
 23 25  1  0  0  0  0
 24 26  1  0  0  0  0
 24 22  1  0  0  0  0
 25 28  1  1  0  0  0
 26 23  1  0  0  0  0
 27 32  1  0  0  0  0
 27 33  1  0  0  0  0
 28 34  2  0  0  0  0
 28 27  1  0  0  0  0
 30 31  1  0  0  0  0
 31 29  1  6  0  0  0
 32 30  2  0  0  0  0
 33 29  1  6  0  0  0
 33 31  1  0  0  0  0
 35 13  1  0  0  0  0
 36 37  1  0  0  0  0
 36 39  1  0  0  0  0
 37 43  1  6  0  0  0
 37 41  1  0  0  0  0
 39 40  1  0  0  0  0
 40 38  1  0  0  0  0
 40 35  1  0  0  0  0
 41 38  1  0  0  0  0
 42 43  1  0  0  0  0
M  END
>  <MODEL>
8

>  <REMARK>
 VINA RESULT:      -8.5      3.742      8.470
  Name = 
  8 active torsions:
  status: ('A' for Active; 'I' for Inactive)
    1  A    between atoms: C_1  and  C_34
    2  A    between atoms: C_1  and  N_35
    3  A    between atoms: C_2  and  C_13
    4  A    between atoms: C_3  and  C_4
    5  A    between atoms: C_3  and  C_12
    6  A    between atoms: N_6  and  C_12
    7  A    between atoms: C_14  and  C_22
    8  A    between atoms: C_19  and  C_37
                            x       y       z     vdW  Elec       q    Type
                         _______ _______ _______ _____ _____    ______ ____

>  <TORSDO>
F 8

$$$$
=
 OpenBabel10262422343D

 43 49  0  0  1  0  0  0  0  0999 V2000
  188.3090  177.4770  146.8810 C   0  0  0  0  0  0  0  0  0  0  0  0
  190.0850  177.5580  142.1610 C   0  0  0  0  0  0  0  0  0  0  0  0
  187.9050  178.0260  140.4440 C   0  0  0  0  0  0  0  0  0  0  0  0
  189.7260  177.4060  144.9190 C   0  0  0  0  0  0  0  0  0  0  0  0
  187.1930  177.7030  146.0710 C   0  0  0  0  0  3  0  0  0  0  0  0
  188.1520  177.3980  148.3570 C   0  0  0  0  0  1  0  0  0  0  0  0
  188.6040  177.6340  144.0900 C   0  0  0  0  0  0  0  0  0  0  0  0
  189.5740  177.3290  146.3060 C   0  0  0  0  0  3  0  0  0  0  0  0
  187.3370  177.7810  144.6830 C   0  0  0  0  0  3  0  0  0  0  0  0
  187.7060  177.9440  141.8280 C   0  0  0  0  0  3  0  0  0  0  0  0
  188.7820  177.7120  142.6960 C   0  0  0  0  0  0  0  0  0  0  0  0
  191.1380  177.3370  142.9970 N   0  0  0  0  0  0  0  0  0  0  0  0
  190.2830  177.6360  140.7710 C   0  0  0  0  0  0  0  0  0  0  0  0
  189.1950  177.8740  139.9260 C   0  0  0  0  0  3  0  0  0  0  0  0
  190.9870  177.2590  144.3450 C   0  0  0  0  0  3  0  0  0  0  0  0
  186.7770  178.2870  139.5340 C   0  0  0  0  0  0  0  0  0  0  0  0
  185.7490  178.9670  139.9500 N   0  0  0  0  0  0  0  0  0  0  0  0
  186.8300  177.8130  138.2600 F   0  0  0  0  0  0  0  0  0  0  0  0
  184.5990  179.3040  139.1630 C   0  0  0  0  0  0  0  0  0  0  0  0
  184.1740  180.4890  139.0960 O   0  0  0  0  0  0  0  0  0  0  0  0
  183.8750  178.2290  138.4300 C   0  0  0  0  0  2  0  0  0  0  0  0
  182.6270  177.8050  139.1910 C   0  0  2  0  0  3  0  0  0  0  0  0
  180.0310  177.0690  138.7800 S   0  0  0  0  0  0  0  0  0  0  0  0
  182.5620  176.2990  139.3040 C   0  0  0  0  0  2  0  0  0  0  0  0
  181.3840  178.2430  138.4380 C   0  0  1  0  0  3  0  0  0  0  0  0
  181.1420  175.9570  139.6920 C   0  0  0  0  0  2  0  0  0  0  0  0
  180.7100  180.6140  137.8100 N   0  0  0  0  0  0  0  0  0  0  0  0
  180.9930  179.6390  138.8210 C   0  0  0  0  0  0  0  0  0  0  0  0
  181.4200  182.9450  137.6360 C   0  0  0  0  0  2  0  0  0  0  0  0
  180.4990  181.6520  135.7010 C   0  0  0  0  0  3  0  0  0  0  0  0
  180.1890  182.6850  136.7850 C   0  0  1  0  0  3  0  0  0  0  0  0
  180.7400  180.3220  136.3920 C   0  0  0  0  0  3  0  0  0  0  0  0
  180.3500  181.9850  138.1240 C   0  0  1  0  0  3  0  0  0  0  0  0
  180.9360  179.9590  140.0400 O   0  0  0  0  0  0  0  0  0  0  0  0
  191.6480  177.5030  140.1750 C   0  0  0  0  0  2  0  0  0  0  0  0
  192.8990  176.2690  136.8850 C   0  0  0  0  0  2  0  0  0  0  0  0
  191.5200  175.8000  136.4140 C   0  0  2  0  0  3  0  0  0  0  0  0
  190.7280  175.8200  138.8290 C   0  0  0  0  0  2  0  0  0  0  0  0
  192.9000  176.6710  138.3650 C   0  0  0  0  0  2  0  0  0  0  0  0
  191.5520  177.0320  138.8020 N   0  0  0  0  0  0  0  0  0  0  0  0
  190.8010  175.0190  137.5160 C   0  0  0  0  0  2  0  0  0  0  0  0
  192.8800  174.2620  135.1940 O   0  0  0  0  0  1  0  0  0  0  0  0
  191.6670  174.9510  135.1630 C   0  0  0  0  0  2  0  0  0  0  0  0
  1  6  1  0  0  0  0
  2 11  1  0  0  0  0
  2 12  1  0  0  0  0
  3 10  1  0  0  0  0
  4  8  2  0  0  0  0
  5  1  2  0  0  0  0
  7  9  2  0  0  0  0
  7  4  1  0  0  0  0
  8  1  1  0  0  0  0
  9  5  1  0  0  0  0
 10 11  2  0  0  0  0
 11  7  1  0  0  0  0
 12 15  2  0  0  0  0
 13  2  2  0  0  0  0
 14  3  2  0  0  0  0
 14 13  1  0  0  0  0
 15  4  1  0  0  0  0
 16 17  2  0  0  0  0
 16  3  1  0  0  0  0
 18 16  1  0  0  0  0
 19 17  1  0  0  0  0
 20 19  2  0  0  0  0
 21 19  1  0  0  0  0
 22 21  1  6  0  0  0
 22 24  1  0  0  0  0
 23 26  1  0  0  0  0
 24 26  1  0  0  0  0
 25 23  1  0  0  0  0
 25 28  1  1  0  0  0
 25 22  1  0  0  0  0
 27 33  1  0  0  0  0
 27 28  1  0  0  0  0
 28 34  2  0  0  0  0
 30 32  2  0  0  0  0
 31 30  1  6  0  0  0
 31 29  1  0  0  0  0
 31 33  1  0  0  0  0
 32 27  1  0  0  0  0
 33 29  1  1  0  0  0
 35 13  1  0  0  0  0
 36 39  1  0  0  0  0
 37 43  1  6  0  0  0
 37 36  1  0  0  0  0
 37 41  1  0  0  0  0
 39 40  1  0  0  0  0
 40 38  1  0  0  0  0
 40 35  1  0  0  0  0
 41 38  1  0  0  0  0
 43 42  1  0  0  0  0
M  END
>  <MODEL>
9

>  <REMARK>
 VINA RESULT:      -8.5      2.750      3.835
  Name = 
  8 active torsions:
  status: ('A' for Active; 'I' for Inactive)
    1  A    between atoms: C_1  and  C_34
    2  A    between atoms: C_1  and  N_35
    3  A    between atoms: C_2  and  C_13
    4  A    between atoms: C_3  and  C_4
    5  A    between atoms: C_3  and  C_12
    6  A    between atoms: N_6  and  C_12
    7  A    between atoms: C_14  and  C_22
    8  A    between atoms: C_19  and  C_37
                            x       y       z     vdW  Elec       q    Type
                         _______ _______ _______ _____ _____    ______ ____

>  <TORSDO>
F 8

$$$$
