=
 OpenBabel10262419403D

 31 34  0  0  1  0  0  0  0  0999 V2000
  186.4200  177.2860  134.9350 C   0  0  0  0  0  2  0  0  0  0  0  0
  188.9680  177.9240  137.2660 C   0  0  1  0  0  3  0  0  0  0  0  0
  189.2920  176.4670  137.0520 C   0  0  0  0  0  0  0  0  0  0  0  0
  188.4730  174.1000  137.0580 C   0  0  0  0  0  2  0  0  0  0  0  0
  187.5430  178.3920  136.9480 C   0  0  1  0  0  3  0  0  0  0  0  0
  184.6500  176.9710  136.6960 C   0  0  0  0  0  2  0  0  0  0  0  0
  188.3330  175.4860  136.4280 C   0  0  0  0  0  2  0  0  0  0  0  0
  188.2810  177.7400  139.7150 C   0  0  1  0  0  3  0  0  0  0  0  0
  184.9340  177.3520  135.2510 C   0  0  0  0  0  2  0  0  0  0  0  0
  191.3460  177.0970  138.1900 C   0  0  0  0  0  2  0  0  0  0  0  0
  189.9170  173.6160  136.9320 C   0  0  0  0  0  2  0  0  0  0  0  0
  186.8450  177.8170  139.2450 C   0  0  0  0  0  3  0  0  0  0  0  0
  189.3330  178.2890  138.7260 C   0  0  1  0  0  3  0  0  0  0  0  0
  187.1530  178.5080  135.4720 C   0  0  0  0  0  2  0  0  0  0  0  0
  191.9900  174.2710  137.9200 O   0  0  0  0  0  0  0  0  0  0  0  0
  186.4920  178.0410  137.9720 C   0  0  0  0  0  0  0  0  0  0  0  0
  185.0340  178.0970  137.6430 C   0  0  0  0  0  2  0  0  0  0  0  0
  190.6290  177.8590  139.1550 O   0  0  0  0  0  0  0  0  0  0  0  0
  190.4780  176.0620  137.5240 C   0  0  0  0  0  0  0  0  0  0  0  0
  190.8620  174.6360  137.4960 C   0  0  0  0  0  0  0  0  0  0  0  0
  188.4370  178.3190  141.1200 C   0  0  0  0  0  2  0  0  0  0  0  0
  187.1540  177.2010  142.8180 O   0  0  0  0  0  1  0  0  0  0  0  0
  188.4130  177.2440  142.2110 C   0  0  2  0  0  3  0  0  0  0  0  0
  189.5270  177.4260  143.2600 C   0  0  2  0  0  0  0  0  0  0  0  0
  190.0430  178.7250  143.1650 O   0  0  0  0  0  1  0  0  0  0  0  0
  190.6230  176.4400  142.9500 C   0  0  0  0  0  0  0  0  0  0  0  0
  190.3640  175.2110  142.8440 O   0  0  0  0  0  0  0  0  0  0  0  0
  191.9430  176.8660  142.8470 O   0  0  0  0  0  1  0  0  0  0  0  0
  188.3400  178.3200  145.1650 F   0  0  0  0  0  0  0  0  0  0  0  0
  190.0520  176.8930  145.5610 O   0  0  0  0  0  1  0  0  0  0  0  0
  189.0030  177.2010  144.6910 C   0  0  2  0  0  3  0  0  0  0  0  0
  1  9  1  0  0  0  0
  1 14  1  0  0  0  0
  2  3  1  1  0  0  0
  2 13  1  0  0  0  0
  3 19  2  0  0  0  0
  5 14  1  6  0  0  0
  5  2  1  0  0  0  0
  5 16  1  0  0  0  0
  6 17  1  0  0  0  0
  7  3  1  0  0  0  0
  7  4  1  0  0  0  0
  8 21  1  1  0  0  0
  9  6  1  0  0  0  0
 10 18  1  0  0  0  0
 11  4  1  0  0  0  0
 11 20  1  0  0  0  0
 12  8  1  0  0  0  0
 13 18  1  1  0  0  0
 13  8  1  0  0  0  0
 16 12  2  0  0  0  0
 17 16  1  0  0  0  0
 19 10  1  0  0  0  0
 20 19  1  0  0  0  0
 20 15  2  0  0  0  0
 21 23  1  0  0  0  0
 23 22  1  1  0  0  0
 23 24  1  0  0  0  0
 24 25  1  6  0  0  0
 24 31  1  0  0  0  0
 26 24  1  0  0  0  0
 27 26  2  0  0  0  0
 28 26  1  0  0  0  0
 31 29  1  1  0  0  0
 31 30  1  0  0  0  0
M  END
>  <MODEL>
1

>  <REMARK>
 VINA RESULT:      -6.9      0.000      0.000
  Name = 
  5 active torsions:
  status: ('A' for Active; 'I' for Inactive)
    1  A    between atoms: C_1  and  C_19
    2  A    between atoms: C_9  and  C_19
    3  A    between atoms: C_9  and  C_23
    4  A    between atoms: C_15  and  C_23
    5  A    between atoms: C_19  and  C_22
                            x       y       z     vdW  Elec       q    Type
                         _______ _______ _______ _____ _____    ______ ____

>  <TORSDO>
F 5

$$$$
=
 OpenBabel10262419403D

 31 34  0  0  1  0  0  0  0  0999 V2000
  189.0500  177.5150  148.0860 C   0  0  0  0  0  2  0  0  0  0  0  0
  188.5400  176.4130  144.7910 C   0  0  1  0  0  3  0  0  0  0  0  0
  189.7700  177.2380  144.5080 C   0  0  0  0  0  0  0  0  0  0  0  0
  190.9010  179.4660  144.6750 C   0  0  0  0  0  2  0  0  0  0  0  0
  187.7190  176.7620  146.0370 C   0  0  1  0  0  3  0  0  0  0  0  0
  187.3640  179.3740  147.9100 C   0  0  0  0  0  2  0  0  0  0  0  0
  190.2970  178.2930  145.4460 C   0  0  0  0  0  2  0  0  0  0  0  0
  186.9030  177.8010  143.4150 C   0  0  1  0  0  3  0  0  0  0  0  0
  188.0930  178.4210  148.8440 C   0  0  0  0  0  2  0  0  0  0  0  0
  189.7120  176.0030  142.4150 C   0  0  0  0  0  2  0  0  0  0  0  0
  191.9990  178.9620  143.7400 C   0  0  0  0  0  2  0  0  0  0  0  0
  186.4180  178.3940  144.7190 C   0  0  0  0  0  3  0  0  0  0  0  0
  187.6360  176.4480  143.5340 C   0  0  1  0  0  3  0  0  0  0  0  0
  188.3060  176.3780  147.3990 C   0  0  0  0  0  2  0  0  0  0  0  0
  192.0220  177.6450  141.7480 O   0  0  0  0  0  0  0  0  0  0  0  0
  186.8360  177.9810  145.9230 C   0  0  0  0  0  0  0  0  0  0  0  0
  186.2730  178.6510  147.1350 C   0  0  0  0  0  2  0  0  0  0  0  0
  188.3060  176.1820  142.2960 O   0  0  0  0  0  0  0  0  0  0  0  0
  190.3430  177.0310  143.3150 C   0  0  0  0  0  0  0  0  0  0  0  0
  191.4750  177.8640  142.8600 C   0  0  0  0  0  0  0  0  0  0  0  0
  185.7890  177.7760  142.3690 C   0  0  0  0  0  2  0  0  0  0  0  0
  185.3030  180.1280  142.2510 O   0  0  0  0  0  1  0  0  0  0  0  0
  185.7600  179.0390  141.5020 C   0  0  2  0  0  3  0  0  0  0  0  0
  184.9320  178.8670  140.2140 C   0  0  2  0  0  0  0  0  0  0  0  0
  184.5550  180.1280  139.7360 O   0  0  0  0  0  1  0  0  0  0  0  0
  183.6920  178.0830  140.5610 C   0  0  0  0  0  0  0  0  0  0  0  0
  183.4380  176.9970  139.9740 O   0  0  0  0  0  0  0  0  0  0  0  0
  182.7780  178.5870  141.4810 O   0  0  0  0  0  1  0  0  0  0  0  0
  187.0670  178.0240  139.4610 F   0  0  0  0  0  0  0  0  0  0  0  0
  185.6280  178.8070  137.8980 O   0  0  0  0  0  1  0  0  0  0  0  0
  185.7300  178.1340  139.1190 C   0  0  2  0  0  3  0  0  0  0  0  0
  1  9  1  0  0  0  0
  2  3  1  6  0  0  0
  2  5  1  0  0  0  0
  3  7  1  0  0  0  0
  4  7  1  0  0  0  0
  5 14  1  1  0  0  0
  6  9  1  0  0  0  0
  8 21  1  6  0  0  0
  8 13  1  0  0  0  0
  8 12  1  0  0  0  0
 10 19  1  0  0  0  0
 11  4  1  0  0  0  0
 12 16  2  0  0  0  0
 13 18  1  6  0  0  0
 13  2  1  0  0  0  0
 14  1  1  0  0  0  0
 15 20  2  0  0  0  0
 16  5  1  0  0  0  0
 16 17  1  0  0  0  0
 17  6  1  0  0  0  0
 18 10  1  0  0  0  0
 19  3  2  0  0  0  0
 20 19  1  0  0  0  0
 20 11  1  0  0  0  0
 23 22  1  1  0  0  0
 23 21  1  0  0  0  0
 24 25  1  6  0  0  0
 24 26  1  0  0  0  0
 24 23  1  0  0  0  0
 26 28  1  0  0  0  0
 27 26  2  0  0  0  0
 31 30  1  6  0  0  0
 31 29  1  0  0  0  0
 31 24  1  0  0  0  0
M  END
>  <MODEL>
2

>  <REMARK>
 VINA RESULT:      -6.8      3.584      7.974
  Name = 
  5 active torsions:
  status: ('A' for Active; 'I' for Inactive)
    1  A    between atoms: C_1  and  C_19
    2  A    between atoms: C_9  and  C_19
    3  A    between atoms: C_9  and  C_23
    4  A    between atoms: C_15  and  C_23
    5  A    between atoms: C_19  and  C_22
                            x       y       z     vdW  Elec       q    Type
                         _______ _______ _______ _____ _____    ______ ____

>  <TORSDO>
F 5

$$$$
=
 OpenBabel10262419403D

 31 34  0  0  1  0  0  0  0  0999 V2000
  185.5050  176.7670  134.8170 C   0  0  0  0  0  2  0  0  0  0  0  0
  188.6790  177.2700  136.2350 C   0  0  1  0  0  3  0  0  0  0  0  0
  188.7420  175.7640  136.2020 C   0  0  0  0  0  0  0  0  0  0  0  0
  187.6720  173.5920  136.8410 C   0  0  0  0  0  2  0  0  0  0  0  0
  187.2930  177.9250  136.2310 C   0  0  1  0  0  3  0  0  0  0  0  0
  184.2970  176.9930  137.0140 C   0  0  0  0  0  2  0  0  0  0  0  0
  187.5290  174.8840  136.0380 C   0  0  0  0  0  2  0  0  0  0  0  0
  188.7150  177.5330  138.7700 C   0  0  1  0  0  3  0  0  0  0  0  0
  184.1950  177.1240  135.5020 C   0  0  0  0  0  2  0  0  0  0  0  0
  191.1000  176.1840  136.6220 C   0  0  0  0  0  2  0  0  0  0  0  0
  188.9450  172.8580  136.4220 C   0  0  0  0  0  2  0  0  0  0  0  0
  187.2260  177.7890  138.6950 C   0  0  0  0  0  3  0  0  0  0  0  0
  189.4940  177.7600  137.4570 C   0  0  1  0  0  3  0  0  0  0  0  0
  186.5090  177.9080  134.9160 C   0  0  0  0  0  2  0  0  0  0  0  0
  191.2800  173.2790  136.6900 O   0  0  0  0  0  0  0  0  0  0  0  0
  186.5490  177.8970  137.5440 C   0  0  0  0  0  0  0  0  0  0  0  0
  185.0770  178.1540  137.6110 C   0  0  0  0  0  2  0  0  0  0  0  0
  190.7950  177.1780  137.5930 O   0  0  0  0  0  0  0  0  0  0  0  0
  189.9540  175.2310  136.4040 C   0  0  0  0  0  0  0  0  0  0  0  0
  190.1330  173.7700  136.5250 C   0  0  0  0  0  0  0  0  0  0  0  0
  189.3420  178.2600  139.9590 C   0  0  0  0  0  2  0  0  0  0  0  0
  187.9560  178.8030  141.8470 O   0  0  0  0  0  1  0  0  0  0  0  0
  188.7690  177.8030  141.3040 C   0  0  2  0  0  3  0  0  0  0  0  0
  189.8560  177.3690  142.3060 C   0  0  2  0  0  0  0  0  0  0  0  0
  191.0860  177.2760  141.6410 O   0  0  0  0  0  1  0  0  0  0  0  0
  189.4820  176.0100  142.8380 C   0  0  0  0  0  0  0  0  0  0  0  0
  190.3440  175.0920  142.9060 O   0  0  0  0  0  0  0  0  0  0  0  0
  188.1660  175.7330  143.1930 O   0  0  0  0  0  1  0  0  0  0  0  0
  191.0710  179.2200  143.2750 F   0  0  0  0  0  0  0  0  0  0  0  0
  190.1520  177.7040  144.6840 O   0  0  0  0  0  1  0  0  0  0  0  0
  189.9920  178.3730  143.4670 C   0  0  2  0  0  3  0  0  0  0  0  0
  1 14  1  0  0  0  0
  1  9  1  0  0  0  0
  2  3  1  1  0  0  0
  2 13  1  0  0  0  0
  3 19  2  0  0  0  0
  5 14  1  6  0  0  0
  5  2  1  0  0  0  0
  5 16  1  0  0  0  0
  6 17  1  0  0  0  0
  7  3  1  0  0  0  0
  7  4  1  0  0  0  0
  8 21  1  1  0  0  0
  9  6  1  0  0  0  0
 10 18  1  0  0  0  0
 11 20  1  0  0  0  0
 11  4  1  0  0  0  0
 12  8  1  0  0  0  0
 13 18  1  1  0  0  0
 13  8  1  0  0  0  0
 16 17  1  0  0  0  0
 16 12  2  0  0  0  0
 19 20  1  0  0  0  0
 19 10  1  0  0  0  0
 20 15  2  0  0  0  0
 21 23  1  0  0  0  0
 23 22  1  1  0  0  0
 23 24  1  0  0  0  0
 24 25  1  6  0  0  0
 24 26  1  0  0  0  0
 24 31  1  0  0  0  0
 26 27  2  0  0  0  0
 26 28  1  0  0  0  0
 31 29  1  6  0  0  0
 31 30  1  0  0  0  0
M  END
>  <MODEL>
3

>  <REMARK>
 VINA RESULT:      -6.7      1.298      1.573
  Name = 
  5 active torsions:
  status: ('A' for Active; 'I' for Inactive)
    1  A    between atoms: C_1  and  C_19
    2  A    between atoms: C_9  and  C_19
    3  A    between atoms: C_9  and  C_23
    4  A    between atoms: C_15  and  C_23
    5  A    between atoms: C_19  and  C_22
                            x       y       z     vdW  Elec       q    Type
                         _______ _______ _______ _____ _____    ______ ____

>  <TORSDO>
F 5

$$$$
=
 OpenBabel10262419403D

 31 34  0  0  1  0  0  0  0  0999 V2000
  187.6270  177.9750  136.3620 C   0  0  0  0  0  2  0  0  0  0  0  0
  190.7230  177.6250  137.9810 C   0  0  1  0  0  3  0  0  0  0  0  0
  190.6700  176.2310  137.4100 C   0  0  0  0  0  0  0  0  0  0  0  0
  189.3900  174.0900  137.1840 C   0  0  0  0  0  2  0  0  0  0  0  0
  189.3970  178.3720  138.1630 C   0  0  1  0  0  3  0  0  0  0  0  0
  186.2900  177.5230  138.4460 C   0  0  0  0  0  2  0  0  0  0  0  0
  189.4060  175.5910  136.8960 C   0  0  0  0  0  2  0  0  0  0  0  0
  190.6030  176.9650  140.4410 C   0  0  1  0  0  3  0  0  0  0  0  0
  186.3040  178.1930  137.0800 C   0  0  0  0  0  2  0  0  0  0  0  0
  193.0180  176.2390  138.0400 C   0  0  0  0  0  2  0  0  0  0  0  0
  190.6270  173.4320  136.5760 C   0  0  0  0  0  2  0  0  0  0  0  0
  189.1480  177.3760  140.4080 C   0  0  0  0  0  3  0  0  0  0  0  0
  191.4870  177.5650  139.3270 C   0  0  1  0  0  3  0  0  0  0  0  0
  188.7080  178.9010  136.9020 C   0  0  0  0  0  2  0  0  0  0  0  0
  192.9640  173.4970  137.0630 O   0  0  0  0  0  0  0  0  0  0  0  0
  188.5640  177.9530  139.3490 C   0  0  0  0  0  0  0  0  0  0  0  0
  187.1160  178.3130  139.4500 C   0  0  0  0  0  2  0  0  0  0  0  0
  192.7260  176.8480  139.2920 O   0  0  0  0  0  0  0  0  0  0  0  0
  191.8190  175.5440  137.4510 C   0  0  0  0  0  0  0  0  0  0  0  0
  191.8730  174.1250  137.0450 C   0  0  0  0  0  0  0  0  0  0  0  0
  191.2010  177.1560  141.8340 C   0  0  0  0  0  2  0  0  0  0  0  0
  190.7700  179.0380  143.2670 O   0  0  0  0  0  1  0  0  0  0  0  0
  190.2310  177.8310  142.8090 C   0  0  2  0  0  3  0  0  0  0  0  0
  189.8300  176.9220  143.9860 C   0  0  2  0  0  0  0  0  0  0  0  0
  190.1850  175.6000  143.6890 O   0  0  0  0  0  1  0  0  0  0  0  0
  188.3330  177.0020  144.1460 C   0  0  0  0  0  0  0  0  0  0  0  0
  187.5860  176.1480  143.5980 O   0  0  0  0  0  0  0  0  0  0  0  0
  187.7570  178.0610  144.8400 O   0  0  0  0  0  1  0  0  0  0  0  0
  191.8710  177.0210  145.2740 F   0  0  0  0  0  0  0  0  0  0  0  0
  189.9250  176.7280  146.3960 O   0  0  0  0  0  1  0  0  0  0  0  0
  190.5250  177.3440  145.2940 C   0  0  2  0  0  3  0  0  0  0  0  0
  1 14  1  0  0  0  0
  1  9  1  0  0  0  0
  2  3  1  1  0  0  0
  2  5  1  0  0  0  0
  2 13  1  0  0  0  0
  3 19  2  0  0  0  0
  5 14  1  6  0  0  0
  5 16  1  0  0  0  0
  6 17  1  0  0  0  0
  7  4  1  0  0  0  0
  7  3  1  0  0  0  0
  8 21  1  1  0  0  0
  9  6  1  0  0  0  0
 10 18  1  0  0  0  0
 11 20  1  0  0  0  0
 11  4  1  0  0  0  0
 12  8  1  0  0  0  0
 13 18  1  6  0  0  0
 13  8  1  0  0  0  0
 16 17  1  0  0  0  0
 16 12  2  0  0  0  0
 19 10  1  0  0  0  0
 20 15  2  0  0  0  0
 20 19  1  0  0  0  0
 21 23  1  0  0  0  0
 23 22  1  1  0  0  0
 23 24  1  0  0  0  0
 24 25  1  6  0  0  0
 24 26  1  0  0  0  0
 24 31  1  0  0  0  0
 26 28  1  0  0  0  0
 27 26  2  0  0  0  0
 31 29  1  6  0  0  0
 31 30  1  0  0  0  0
M  END
>  <MODEL>
4

>  <REMARK>
 VINA RESULT:      -6.6      1.474      2.406
  Name = 
  5 active torsions:
  status: ('A' for Active; 'I' for Inactive)
    1  A    between atoms: C_1  and  C_19
    2  A    between atoms: C_9  and  C_19
    3  A    between atoms: C_9  and  C_23
    4  A    between atoms: C_15  and  C_23
    5  A    between atoms: C_19  and  C_22
                            x       y       z     vdW  Elec       q    Type
                         _______ _______ _______ _____ _____    ______ ____

>  <TORSDO>
F 5

$$$$
=
 OpenBabel10262419403D

 31 34  0  0  1  0  0  0  0  0999 V2000
  189.2730  177.4610  148.0070 C   0  0  0  0  0  2  0  0  0  0  0  0
  188.5210  176.4400  144.7320 C   0  0  1  0  0  3  0  0  0  0  0  0
  189.7330  177.2640  144.3800 C   0  0  0  0  0  0  0  0  0  0  0  0
  190.8900  179.4800  144.5170 C   0  0  0  0  0  2  0  0  0  0  0  0
  187.7930  176.7640  146.0410 C   0  0  1  0  0  3  0  0  0  0  0  0
  187.5930  179.3340  147.9940 C   0  0  0  0  0  2  0  0  0  0  0  0
  190.3340  178.2930  145.3020 C   0  0  0  0  0  2  0  0  0  0  0  0
  186.8000  177.8690  143.5090 C   0  0  1  0  0  3  0  0  0  0  0  0
  188.3800  178.3550  148.8520 C   0  0  0  0  0  2  0  0  0  0  0  0
  189.5170  176.0780  142.2690 C   0  0  0  0  0  2  0  0  0  0  0  0
  191.9150  178.9920  143.4940 C   0  0  0  0  0  2  0  0  0  0  0  0
  186.4140  178.4340  144.8580 C   0  0  0  0  0  3  0  0  0  0  0  0
  187.5300  176.5090  143.5440 C   0  0  1  0  0  3  0  0  0  0  0  0
  188.4740  176.3450  147.3480 C   0  0  0  0  0  2  0  0  0  0  0  0
  191.7860  177.7220  141.4760 O   0  0  0  0  0  0  0  0  0  0  0  0
  186.9140  177.9900  146.0190 C   0  0  0  0  0  0  0  0  0  0  0  0
  186.4440  178.6360  147.2830 C   0  0  0  0  0  2  0  0  0  0  0  0
  188.1070  176.2690  142.2560 O   0  0  0  0  0  0  0  0  0  0  0  0
  190.2180  177.0820  143.1450 C   0  0  0  0  0  0  0  0  0  0  0  0
  191.3210  177.9190  142.6290 C   0  0  0  0  0  0  0  0  0  0  0  0
  185.6140  177.8750  142.5450 C   0  0  0  0  0  2  0  0  0  0  0  0
  185.9150  180.1020  141.6890 O   0  0  0  0  0  1  0  0  0  0  0  0
  185.8540  178.7560  141.3140 C   0  0  2  0  0  3  0  0  0  0  0  0
  184.8070  178.5370  140.2050 C   0  0  2  0  0  0  0  0  0  0  0  0
  184.0340  177.4100  140.5150 O   0  0  0  0  0  1  0  0  0  0  0  0
  185.5440  178.2860  138.9140 C   0  0  0  0  0  0  0  0  0  0  0  0
  186.7550  178.6160  138.7970 O   0  0  0  0  0  1  0  0  0  0  0  0
  184.8760  177.7550  137.8160 O   0  0  0  0  0  0  0  0  0  0  0  0
  182.5510  179.3640  139.9500 F   0  0  0  0  0  0  0  0  0  0  0  0
  184.2180  180.5040  138.9250 O   0  0  0  0  0  1  0  0  0  0  0  0
  183.8750  179.7550  140.0540 C   0  0  2  0  0  3  0  0  0  0  0  0
  1  9  1  0  0  0  0
  2  3  1  6  0  0  0
  2  5  1  0  0  0  0
  3  7  1  0  0  0  0
  4  7  1  0  0  0  0
  5 14  1  1  0  0  0
  6  9  1  0  0  0  0
  8 21  1  6  0  0  0
  8 13  1  0  0  0  0
  8 12  1  0  0  0  0
 10 19  1  0  0  0  0
 11  4  1  0  0  0  0
 12 16  2  0  0  0  0
 13 18  1  6  0  0  0
 13  2  1  0  0  0  0
 14  1  1  0  0  0  0
 15 20  2  0  0  0  0
 16  5  1  0  0  0  0
 16 17  1  0  0  0  0
 17  6  1  0  0  0  0
 18 10  1  0  0  0  0
 19  3  2  0  0  0  0
 20 19  1  0  0  0  0
 20 11  1  0  0  0  0
 23 22  1  1  0  0  0
 23 21  1  0  0  0  0
 24 25  1  1  0  0  0
 24 23  1  0  0  0  0
 26 24  1  0  0  0  0
 27 26  1  0  0  0  0
 28 26  2  0  0  0  0
 29 31  1  0  0  0  0
 31 30  1  6  0  0  0
 31 24  1  0  0  0  0
M  END
>  <MODEL>
5

>  <REMARK>
 VINA RESULT:      -6.5      3.683      7.977
  Name = 
  5 active torsions:
  status: ('A' for Active; 'I' for Inactive)
    1  A    between atoms: C_1  and  C_19
    2  A    between atoms: C_9  and  C_19
    3  A    between atoms: C_9  and  C_23
    4  A    between atoms: C_15  and  C_23
    5  A    between atoms: C_19  and  C_22
                            x       y       z     vdW  Elec       q    Type
                         _______ _______ _______ _____ _____    ______ ____

>  <TORSDO>
F 5

$$$$
=
 OpenBabel10262419403D

 31 34  0  0  1  0  0  0  0  0999 V2000
  180.9560  178.7550  138.7740 C   0  0  0  0  0  2  0  0  0  0  0  0
  184.4450  179.0100  139.0870 C   0  0  1  0  0  3  0  0  0  0  0  0
  184.4350  177.7040  138.3350 C   0  0  0  0  0  0  0  0  0  0  0  0
  183.5920  175.3490  138.2050 C   0  0  0  0  0  2  0  0  0  0  0  0
  183.1800  179.3960  139.8610 C   0  0  1  0  0  3  0  0  0  0  0  0
  180.6450  177.8020  141.0830 C   0  0  0  0  0  2  0  0  0  0  0  0
  183.2140  176.8300  138.2030 C   0  0  0  0  0  2  0  0  0  0  0  0
  185.4160  178.1130  141.2670 C   0  0  1  0  0  3  0  0  0  0  0  0
  180.0020  178.5800  139.9450 C   0  0  0  0  0  2  0  0  0  0  0  0
  186.7970  178.2170  138.0720 C   0  0  0  0  0  2  0  0  0  0  0  0
  184.5950  175.0670  137.0870 C   0  0  0  0  0  2  0  0  0  0  0  0
  184.0130  178.1640  141.8310 C   0  0  0  0  0  3  0  0  0  0  0  0
  185.6680  179.0100  140.0360 C   0  0  1  0  0  3  0  0  0  0  0  0
  181.9680  179.8590  139.0470 C   0  0  0  0  0  2  0  0  0  0  0  0
  186.8800  175.6460  136.7090 O   0  0  0  0  0  0  0  0  0  0  0  0
  182.9670  178.6790  141.1720 C   0  0  0  0  0  0  0  0  0  0  0  0
  181.6320  178.6700  141.8470 C   0  0  0  0  0  2  0  0  0  0  0  0
  186.9060  178.6180  139.4330 O   0  0  0  0  0  0  0  0  0  0  0  0
  185.6160  177.3130  137.8390 C   0  0  0  0  0  0  0  0  0  0  0  0
  185.7720  175.9930  137.1940 C   0  0  0  0  0  0  0  0  0  0  0  0
  186.4610  178.3120  142.3640 C   0  0  0  0  0  2  0  0  0  0  0  0
  187.4840  176.3990  143.4020 O   0  0  0  0  0  1  0  0  0  0  0  0
  187.5820  177.2690  142.3110 C   0  0  2  0  0  3  0  0  0  0  0  0
  188.9870  177.8980  142.2290 C   0  0  2  0  0  0  0  0  0  0  0  0
  188.8730  179.2270  141.8020 O   0  0  0  0  0  1  0  0  0  0  0  0
  189.7850  177.1230  141.2120 C   0  0  0  0  0  0  0  0  0  0  0  0
  190.2910  176.0090  141.5140 O   0  0  0  0  0  1  0  0  0  0  0  0
  190.0300  177.6620  139.9540 O   0  0  0  0  0  0  0  0  0  0  0  0
  188.9460  178.5010  144.5690 F   0  0  0  0  0  0  0  0  0  0  0  0
  190.9490  178.4970  143.5120 O   0  0  0  0  0  1  0  0  0  0  0  0
  189.7020  177.8720  143.5940 C   0  0  2  0  0  3  0  0  0  0  0  0
  1 14  1  0  0  0  0
  1  9  1  0  0  0  0
  2  3  1  1  0  0  0
  2  5  1  0  0  0  0
  2 13  1  0  0  0  0
  5 14  1  6  0  0  0
  5 16  1  0  0  0  0
  6 17  1  0  0  0  0
  7  4  1  0  0  0  0
  7  3  1  0  0  0  0
  8 12  1  0  0  0  0
  8 21  1  1  0  0  0
  9  6  1  0  0  0  0
 10 18  1  0  0  0  0
 11 20  1  0  0  0  0
 11  4  1  0  0  0  0
 13 18  1  6  0  0  0
 13  8  1  0  0  0  0
 15 20  2  0  0  0  0
 16 12  2  0  0  0  0
 16 17  1  0  0  0  0
 19 10  1  0  0  0  0
 19  3  2  0  0  0  0
 20 19  1  0  0  0  0
 23 21  1  0  0  0  0
 23 22  1  1  0  0  0
 24 25  1  6  0  0  0
 24 23  1  0  0  0  0
 24 31  1  0  0  0  0
 26 27  1  0  0  0  0
 26 24  1  0  0  0  0
 28 26  2  0  0  0  0
 31 30  1  6  0  0  0
 31 29  1  0  0  0  0
M  END
>  <MODEL>
6

>  <REMARK>
 VINA RESULT:      -6.2      2.873      4.384
  Name = 
  5 active torsions:
  status: ('A' for Active; 'I' for Inactive)
    1  A    between atoms: C_1  and  C_19
    2  A    between atoms: C_9  and  C_19
    3  A    between atoms: C_9  and  C_23
    4  A    between atoms: C_15  and  C_23
    5  A    between atoms: C_19  and  C_22
                            x       y       z     vdW  Elec       q    Type
                         _______ _______ _______ _____ _____    ______ ____

>  <TORSDO>
F 5

$$$$
=
 OpenBabel10262419403D

 31 34  0  0  1  0  0  0  0  0999 V2000
  181.3970  176.2690  137.3850 C   0  0  0  0  0  2  0  0  0  0  0  0
  182.6100  177.2850  140.5210 C   0  0  1  0  0  3  0  0  0  0  0  0
  181.5440  178.3440  140.3980 C   0  0  0  0  0  0  0  0  0  0  0  0
  180.5590  180.2000  139.0350 C   0  0  0  0  0  2  0  0  0  0  0  0
  183.1280  176.6430  139.2290 C   0  0  1  0  0  3  0  0  0  0  0  0
  183.1980  177.4730  136.1050 C   0  0  0  0  0  2  0  0  0  0  0  0
  180.8790  178.7070  139.0950 C   0  0  0  0  0  2  0  0  0  0  0  0
  184.6200  178.8520  140.4600 C   0  0  1  0  0  3  0  0  0  0  0  0
  182.2030  176.3240  136.0970 C   0  0  0  0  0  2  0  0  0  0  0  0
  182.0200  178.6290  142.7650 C   0  0  0  0  0  2  0  0  0  0  0  0
  179.6870  180.5930  140.2270 C   0  0  0  0  0  2  0  0  0  0  0  0
  184.8160  178.4320  139.0200 C   0  0  0  0  0  3  0  0  0  0  0  0
  183.7900  177.8820  141.3270 C   0  0  1  0  0  3  0  0  0  0  0  0
  182.2060  175.6490  138.5170 C   0  0  0  0  0  2  0  0  0  0  0  0
  180.0560  180.7700  142.5790 O   0  0  0  0  0  0  0  0  0  0  0  0
  184.0930  177.4760  138.4220 C   0  0  0  0  0  0  0  0  0  0  0  0
  184.3920  177.1550  136.9920 C   0  0  0  0  0  2  0  0  0  0  0  0
  183.4220  178.5530  142.5370 O   0  0  0  0  0  0  0  0  0  0  0  0
  181.2620  179.0150  141.5230 C   0  0  0  0  0  0  0  0  0  0  0  0
  180.3320  180.1630  141.5120 C   0  0  0  0  0  0  0  0  0  0  0  0
  185.9500  179.2320  141.1120 C   0  0  0  0  0  2  0  0  0  0  0  0
  186.5930  177.7420  142.8860 O   0  0  0  0  0  1  0  0  0  0  0  0
  186.7780  178.0120  141.5260 C   0  0  2  0  0  3  0  0  0  0  0  0
  188.2740  178.1570  141.1890 C   0  0  2  0  0  0  0  0  0  0  0  0
  188.7440  179.3780  141.6890 O   0  0  0  0  0  1  0  0  0  0  0  0
  188.4150  178.1560  139.6880 C   0  0  0  0  0  0  0  0  0  0  0  0
  188.9720  179.1210  139.0990 O   0  0  0  0  0  1  0  0  0  0  0  0
  187.8680  177.1250  138.9320 O   0  0  0  0  0  0  0  0  0  0  0  0
  189.5100  177.3180  143.0880 F   0  0  0  0  0  0  0  0  0  0  0  0
  190.2400  176.7560  141.0200 O   0  0  0  0  0  1  0  0  0  0  0  0
  189.1080  177.0140  141.7980 C   0  0  2  0  0  3  0  0  0  0  0  0
  1 14  1  0  0  0  0
  2  3  1  6  0  0  0
  2 13  1  0  0  0  0
  3 19  2  0  0  0  0
  4  7  1  0  0  0  0
  4 11  1  0  0  0  0
  5 14  1  6  0  0  0
  5  2  1  0  0  0  0
  6 17  1  0  0  0  0
  7  3  1  0  0  0  0
  8 21  1  1  0  0  0
  8 13  1  0  0  0  0
  9  6  1  0  0  0  0
  9  1  1  0  0  0  0
 11 20  1  0  0  0  0
 12  8  1  0  0  0  0
 13 18  1  1  0  0  0
 16 12  2  0  0  0  0
 16  5  1  0  0  0  0
 17 16  1  0  0  0  0
 18 10  1  0  0  0  0
 19 10  1  0  0  0  0
 20 19  1  0  0  0  0
 20 15  2  0  0  0  0
 21 23  1  0  0  0  0
 23 22  1  1  0  0  0
 24 23  1  0  0  0  0
 24 25  1  1  0  0  0
 24 31  1  0  0  0  0
 26 24  1  0  0  0  0
 27 26  1  0  0  0  0
 28 26  2  0  0  0  0
 31 30  1  6  0  0  0
 31 29  1  0  0  0  0
M  END
>  <MODEL>
7

>  <REMARK>
 VINA RESULT:      -5.9      3.651      6.800
  Name = 
  5 active torsions:
  status: ('A' for Active; 'I' for Inactive)
    1  A    between atoms: C_1  and  C_19
    2  A    between atoms: C_9  and  C_19
    3  A    between atoms: C_9  and  C_23
    4  A    between atoms: C_15  and  C_23
    5  A    between atoms: C_19  and  C_22
                            x       y       z     vdW  Elec       q    Type
                         _______ _______ _______ _____ _____    ______ ____

>  <TORSDO>
F 5

$$$$
=
 OpenBabel10262419403D

 31 34  0  0  1  0  0  0  0  0999 V2000
  187.5470  177.4600  147.1250 C   0  0  0  0  0  2  0  0  0  0  0  0
  187.8180  176.8050  143.6860 C   0  0  1  0  0  3  0  0  0  0  0  0
  189.1870  177.4140  143.8530 C   0  0  0  0  0  0  0  0  0  0  0  0
  190.5470  179.3680  144.6290 C   0  0  0  0  0  2  0  0  0  0  0  0
  186.7430  177.1730  144.7150 C   0  0  1  0  0  3  0  0  0  0  0  0
  186.2750  179.6060  146.7920 C   0  0  0  0  0  2  0  0  0  0  0  0
  189.5830  178.2550  145.0390 C   0  0  0  0  0  2  0  0  0  0  0  0
  186.8580  178.6000  142.1510 C   0  0  1  0  0  3  0  0  0  0  0  0
  186.5630  178.4460  147.7340 C   0  0  0  0  0  2  0  0  0  0  0  0
  189.5320  176.4250  141.6590 C   0  0  0  0  0  2  0  0  0  0  0  0
  191.7740  178.7670  143.9460 C   0  0  0  0  0  2  0  0  0  0  0  0
  186.1220  179.1390  143.3580 C   0  0  0  0  0  3  0  0  0  0  0  0
  187.3170  177.1300  142.2570 C   0  0  1  0  0  3  0  0  0  0  0  0
  186.8630  176.5530  146.1100 C   0  0  0  0  0  2  0  0  0  0  0  0
  192.1550  177.6740  141.8580 O   0  0  0  0  0  0  0  0  0  0  0  0
  186.1200  178.5380  144.5560 C   0  0  0  0  0  0  0  0  0  0  0  0
  185.3480  179.1760  145.6660 C   0  0  0  0  0  2  0  0  0  0  0  0
  188.2580  176.8710  141.2090 O   0  0  0  0  0  0  0  0  0  0  0  0
  190.0330  177.2260  142.8320 C   0  0  0  0  0  0  0  0  0  0  0  0
  191.3580  177.8780  142.8110 C   0  0  0  0  0  0  0  0  0  0  0  0
  186.0890  178.8850  140.8620 C   0  0  0  0  0  2  0  0  0  0  0  0
  184.2480  177.5040  141.5600 O   0  0  0  0  0  1  0  0  0  0  0  0
  184.5720  178.7600  141.0350 C   0  0  2  0  0  3  0  0  0  0  0  0
  183.7920  179.0340  139.7350 C   0  0  2  0  0  0  0  0  0  0  0  0
  184.3440  180.1490  139.0920 O   0  0  0  0  0  1  0  0  0  0  0  0
  182.3630  179.3400  140.1060 C   0  0  0  0  0  0  0  0  0  0  0  0
  181.7250  180.2390  139.4960 O   0  0  0  0  0  0  0  0  0  0  0  0
  181.7590  178.6830  141.1720 O   0  0  0  0  0  1  0  0  0  0  0  0
  184.8820  177.9530  137.8690 F   0  0  0  0  0  0  0  0  0  0  0  0
  182.6410  177.7020  138.0750 O   0  0  0  0  0  1  0  0  0  0  0  0
  183.8430  177.8290  138.7760 C   0  0  2  0  0  3  0  0  0  0  0  0
  1  9  1  0  0  0  0
  2  3  1  1  0  0  0
  2  5  1  0  0  0  0
  3  7  1  0  0  0  0
  4  7  1  0  0  0  0
  5 14  1  1  0  0  0
  6  9  1  0  0  0  0
  8 21  1  6  0  0  0
  8 13  1  0  0  0  0
  8 12  1  0  0  0  0
 10 19  1  0  0  0  0
 11  4  1  0  0  0  0
 12 16  2  0  0  0  0
 13 18  1  6  0  0  0
 13  2  1  0  0  0  0
 14  1  1  0  0  0  0
 15 20  2  0  0  0  0
 16  5  1  0  0  0  0
 16 17  1  0  0  0  0
 17  6  1  0  0  0  0
 18 10  1  0  0  0  0
 19  3  2  0  0  0  0
 20 19  1  0  0  0  0
 20 11  1  0  0  0  0
 21 23  1  0  0  0  0
 23 22  1  6  0  0  0
 24 25  1  6  0  0  0
 24 26  1  0  0  0  0
 24 23  1  0  0  0  0
 26 28  1  0  0  0  0
 27 26  2  0  0  0  0
 30 31  1  0  0  0  0
 31 29  1  6  0  0  0
 31 24  1  0  0  0  0
M  END
>  <MODEL>
8

>  <REMARK>
 VINA RESULT:      -5.9      3.821      7.827
  Name = 
  5 active torsions:
  status: ('A' for Active; 'I' for Inactive)
    1  A    between atoms: C_1  and  C_19
    2  A    between atoms: C_9  and  C_19
    3  A    between atoms: C_9  and  C_23
    4  A    between atoms: C_15  and  C_23
    5  A    between atoms: C_19  and  C_22
                            x       y       z     vdW  Elec       q    Type
                         _______ _______ _______ _____ _____    ______ ____

>  <TORSDO>
F 5

$$$$
=
 OpenBabel10262419403D

 31 34  0  0  1  0  0  0  0  0999 V2000
  180.7390  178.6110  138.6730 C   0  0  0  0  0  2  0  0  0  0  0  0
  184.2280  178.9490  138.8950 C   0  0  1  0  0  3  0  0  0  0  0  0
  184.2280  177.5860  138.2520 C   0  0  0  0  0  0  0  0  0  0  0  0
  183.4260  175.2150  138.3300 C   0  0  0  0  0  2  0  0  0  0  0  0
  182.9700  179.3760  139.6610 C   0  0  1  0  0  3  0  0  0  0  0  0
  180.4880  177.8440  141.0570 C   0  0  0  0  0  2  0  0  0  0  0  0
  183.0210  176.6840  138.2150 C   0  0  0  0  0  2  0  0  0  0  0  0
  185.2550  178.2490  141.1210 C   0  0  1  0  0  3  0  0  0  0  0  0
  179.8100  178.5160  139.8730 C   0  0  0  0  0  2  0  0  0  0  0  0
  186.5750  178.1160  137.9020 C   0  0  0  0  0  2  0  0  0  0  0  0
  184.4130  174.8600  137.2190 C   0  0  0  0  0  2  0  0  0  0  0  0
  183.8620  178.3220  141.7070 C   0  0  0  0  0  3  0  0  0  0  0  0
  185.4680  179.0470  139.8170 C   0  0  1  0  0  3  0  0  0  0  0  0
  181.7360  179.7510  138.8350 C   0  0  0  0  0  2  0  0  0  0  0  0
  186.6800  175.4440  136.7500 O   0  0  0  0  0  0  0  0  0  0  0  0
  182.7940  178.7650  141.0290 C   0  0  0  0  0  0  0  0  0  0  0  0
  181.4730  178.7880  141.7290 C   0  0  0  0  0  2  0  0  0  0  0  0
  186.7020  178.6280  139.2230 O   0  0  0  0  0  0  0  0  0  0  0  0
  185.4070  177.1760  137.7660 C   0  0  0  0  0  0  0  0  0  0  0  0
  185.5750  175.8110  137.2270 C   0  0  0  0  0  0  0  0  0  0  0  0
  186.3160  178.5540  142.1770 C   0  0  0  0  0  2  0  0  0  0  0  0
  186.1600  177.5130  144.3390 O   0  0  0  0  0  1  0  0  0  0  0  0
  186.6580  177.3370  143.0440 C   0  0  2  0  0  3  0  0  0  0  0  0
  188.1650  177.0200  143.0690 C   0  0  2  0  0  0  0  0  0  0  0  0
  188.3530  175.6490  142.8480 O   0  0  0  0  0  1  0  0  0  0  0  0
  188.6910  177.3710  144.4370 C   0  0  0  0  0  0  0  0  0  0  0  0
  189.3010  176.5100  145.1270 O   0  0  0  0  0  1  0  0  0  0  0  0
  188.4470  178.6280  144.9820 O   0  0  0  0  0  0  0  0  0  0  0  0
  188.9450  177.1270  140.7850 F   0  0  0  0  0  0  0  0  0  0  0  0
  190.2480  178.0490  142.3910 O   0  0  0  0  0  1  0  0  0  0  0  0
  188.9310  177.8090  141.9900 C   0  0  2  0  0  3  0  0  0  0  0  0
  1 14  1  0  0  0  0
  1  9  1  0  0  0  0
  2  3  1  1  0  0  0
  2  5  1  0  0  0  0
  2 13  1  0  0  0  0
  5 14  1  6  0  0  0
  5 16  1  0  0  0  0
  6 17  1  0  0  0  0
  7  3  1  0  0  0  0
  7  4  1  0  0  0  0
  8 12  1  0  0  0  0
  8 21  1  1  0  0  0
  9  6  1  0  0  0  0
 10 18  1  0  0  0  0
 11 20  1  0  0  0  0
 11  4  1  0  0  0  0
 13 18  1  6  0  0  0
 13  8  1  0  0  0  0
 15 20  2  0  0  0  0
 16 12  2  0  0  0  0
 16 17  1  0  0  0  0
 19 10  1  0  0  0  0
 19  3  2  0  0  0  0
 20 19  1  0  0  0  0
 21 23  1  0  0  0  0
 23 24  1  0  0  0  0
 23 22  1  1  0  0  0
 24 25  1  6  0  0  0
 24 26  1  0  0  0  0
 26 28  2  0  0  0  0
 26 27  1  0  0  0  0
 31 29  1  6  0  0  0
 31 30  1  0  0  0  0
 31 24  1  0  0  0  0
M  END
>  <MODEL>
9

>  <REMARK>
 VINA RESULT:      -5.9      3.090      4.681
  Name = 
  5 active torsions:
  status: ('A' for Active; 'I' for Inactive)
    1  A    between atoms: C_1  and  C_19
    2  A    between atoms: C_9  and  C_19
    3  A    between atoms: C_9  and  C_23
    4  A    between atoms: C_15  and  C_23
    5  A    between atoms: C_19  and  C_22
                            x       y       z     vdW  Elec       q    Type
                         _______ _______ _______ _____ _____    ______ ____

>  <TORSDO>
F 5

$$$$
