=
 OpenBabel10262423213D

 34 39  0  0  0  0  0  0  0  0999 V2000
  184.3270  178.6550  141.8960 C   0  0  0  0  0  0  0  0  0  0  0  0
  185.6440  178.3230  138.2910 C   0  0  0  0  0  3  0  0  0  0  0  0
  183.4340  178.5350  139.2370 C   0  0  0  0  0  3  0  0  0  0  0  0
  183.5000  178.8630  144.2040 C   0  0  0  0  0  0  0  0  0  0  0  0
  184.5810  178.7270  143.2870 C   0  0  0  0  0  3  0  0  0  0  0  0
  181.9600  178.8430  142.3630 C   0  0  0  0  0  0  0  0  0  0  0  0
  180.8110  178.8690  141.6530 N   0  0  0  0  0  0  0  0  0  0  0  0
  182.1600  178.9170  143.7410 C   0  0  0  0  0  3  0  0  0  0  0  0
  182.5800  178.6640  140.2780 N   0  0  0  0  0  0  0  0  0  0  0  0
  183.0040  178.7200  141.5230 C   0  0  0  0  0  0  0  0  0  0  0  0
  181.2310  178.7550  140.3530 C   0  0  0  0  0  3  0  0  0  0  0  0
  186.9600  178.2230  138.1470 C   0  0  0  0  0  3  0  0  0  0  0  0
  188.0180  178.2170  139.1620 C   0  0  0  0  0  0  0  0  0  0  0  0
  187.8180  178.3190  140.4750 C   0  0  0  0  0  3  0  0  0  0  0  0
  184.8230  178.4590  139.5000 C   0  0  0  0  0  0  0  0  0  0  0  0
  186.5740  178.4560  141.2380 C   0  0  0  0  0  3  0  0  0  0  0  0
  185.2920  178.5190  140.8600 C   0  0  0  0  0  0  0  0  0  0  0  0
  189.4070  178.0890  138.6780 C   0  0  0  0  0  0  0  0  0  0  0  0
  189.6930  178.2470  137.3270 O   0  0  0  0  0  0  0  0  0  0  0  0
  190.3480  177.8350  139.4770 O   0  0  0  0  0  1  0  0  0  0  0  0
  183.7770  178.9100  145.6690 C   0  0  0  0  0  2  0  0  0  0  0  0
  187.0180  178.2380  147.5180 C   0  0  0  0  0  3  0  0  0  0  0  0
  185.9950  178.0310  144.9130 C   0  0  0  0  0  3  0  0  0  0  0  0
  189.9770  176.9340  145.7100 C   0  0  0  0  0  0  0  0  0  0  0  0
  189.1570  177.4040  146.7450 C   0  0  0  0  0  3  0  0  0  0  0  0
  187.8330  177.7680  146.4850 C   0  0  0  0  0  0  0  0  0  0  0  0
  188.1360  177.1980  144.1410 C   0  0  0  0  0  3  0  0  0  0  0  0
  187.3190  177.6650  145.1730 C   0  0  0  0  0  0  0  0  0  0  0  0
  189.4600  176.8340  144.4090 C   0  0  0  0  0  3  0  0  0  0  0  0
  185.1810  178.4950  145.9530 C   0  0  0  0  0  0  0  0  0  0  0  0
  185.6940  178.6030  147.2510 C   0  0  0  0  0  3  0  0  0  0  0  0
  191.3700  176.5520  145.9900 C   0  0  0  0  0  0  0  0  0  0  0  0
  192.0350  175.8950  145.1450 O   0  0  0  0  0  0  0  0  0  0  0  0
  191.9670  176.9120  147.1930 O   0  0  0  0  0  1  0  0  0  0  0  0
  1  5  1  0  0  0  0
  2 15  1  0  0  0  0
  3 15  2  0  0  0  0
  3  9  1  0  0  0  0
  4 21  1  0  0  0  0
  5  4  2  0  0  0  0
  6  8  2  0  0  0  0
  7  6  1  0  0  0  0
  8  4  1  0  0  0  0
  9 11  1  0  0  0  0
  9 10  1  0  0  0  0
 10  1  2  0  0  0  0
 10  6  1  0  0  0  0
 11  7  2  0  0  0  0
 12  2  2  0  0  0  0
 12 13  1  0  0  0  0
 13 14  2  0  0  0  0
 14 16  1  0  0  0  0
 15 17  1  0  0  0  0
 17 16  2  0  0  0  0
 17  1  1  0  0  0  0
 18 13  1  0  0  0  0
 18 20  1  0  0  0  0
 19 18  2  0  0  0  0
 21 30  1  0  0  0  0
 23 28  2  0  0  0  0
 23 30  1  0  0  0  0
 24 32  1  0  0  0  0
 24 25  2  0  0  0  0
 26 25  1  0  0  0  0
 26 22  2  0  0  0  0
 27 29  2  0  0  0  0
 27 28  1  0  0  0  0
 28 26  1  0  0  0  0
 29 24  1  0  0  0  0
 30 31  2  0  0  0  0
 31 22  1  0  0  0  0
 32 34  1  0  0  0  0
 33 32  2  0  0  0  0
M  END
>  <MODEL>
1

>  <REMARK>
 VINA RESULT:     -12.4      0.000      0.000
  Name = 
  4 active torsions:
  status: ('A' for Active; 'I' for Inactive)
    1  A    between atoms: C_3  and  C_25
    2  A    between atoms: C_7  and  C_11
    3  A    between atoms: C_8  and  C_18
    4  A    between atoms: C_18  and  C_30
                            x       y       z     vdW  Elec       q    Type
                         _______ _______ _______ _____ _____    ______ ____

>  <TORSDO>
F 4

$$$$
=
 OpenBabel10262423213D

 34 39  0  0  0  0  0  0  0  0999 V2000
  189.0750  177.5700  144.3240 C   0  0  0  0  0  0  0  0  0  0  0  0
  191.4200  177.1080  141.3010 C   0  0  0  0  0  3  0  0  0  0  0  0
  191.6760  176.7340  143.6720 C   0  0  0  0  0  3  0  0  0  0  0  0
  187.5690  177.8730  146.2440 C   0  0  0  0  0  0  0  0  0  0  0  0
  187.8170  177.9550  144.8450 C   0  0  0  0  0  3  0  0  0  0  0  0
  189.7980  177.0490  146.5730 C   0  0  0  0  0  0  0  0  0  0  0  0
  190.9200  176.5870  147.1700 N   0  0  0  0  0  0  0  0  0  0  0  0
  188.5760  177.4170  147.1330 C   0  0  0  0  0  3  0  0  0  0  0  0
  191.2190  176.7410  144.9450 N   0  0  0  0  0  0  0  0  0  0  0  0
  189.9990  177.1330  145.2460 C   0  0  0  0  0  0  0  0  0  0  0  0
  191.7890  176.4040  146.1260 C   0  0  0  0  0  3  0  0  0  0  0  0
  190.9250  177.4270  140.1120 C   0  0  0  0  0  3  0  0  0  0  0  0
  189.5980  177.9390  139.7540 C   0  0  0  0  0  0  0  0  0  0  0  0
  188.6140  178.1820  140.6180 C   0  0  0  0  0  3  0  0  0  0  0  0
  190.8110  177.1620  142.6360 C   0  0  0  0  0  0  0  0  0  0  0  0
  188.5670  178.0220  142.0740 C   0  0  0  0  0  3  0  0  0  0  0  0
  189.4750  177.5930  142.9590 C   0  0  0  0  0  0  0  0  0  0  0  0
  189.3470  178.2010  138.3230 C   0  0  0  0  0  0  0  0  0  0  0  0
  188.9210  179.4580  137.9070 O   0  0  0  0  0  1  0  0  0  0  0  0
  189.5140  177.2960  137.4610 O   0  0  0  0  0  0  0  0  0  0  0  0
  186.2480  178.3070  146.7860 C   0  0  0  0  0  2  0  0  0  0  0  0
  183.0010  178.9860  144.9510 C   0  0  0  0  0  3  0  0  0  0  0  0
  185.6390  178.2360  144.3590 C   0  0  0  0  0  3  0  0  0  0  0  0
  182.8190  178.6480  141.2660 C   0  0  0  0  0  0  0  0  0  0  0  0
  182.4430  178.8860  142.5960 C   0  0  0  0  0  3  0  0  0  0  0  0
  183.3770  178.7510  143.6260 C   0  0  0  0  0  0  0  0  0  0  0  0
  185.0790  178.1330  142.0040 C   0  0  0  0  0  3  0  0  0  0  0  0
  184.7050  178.3720  143.3280 C   0  0  0  0  0  0  0  0  0  0  0  0
  184.1400  178.2710  140.9770 C   0  0  0  0  0  3  0  0  0  0  0  0
  185.2580  178.4780  145.6840 C   0  0  0  0  0  0  0  0  0  0  0  0
  183.9400  178.8470  145.9780 C   0  0  0  0  0  3  0  0  0  0  0  0
  181.8310  178.7920  140.1850 C   0  0  0  0  0  0  0  0  0  0  0  0
  180.7300  178.1820  140.2400 O   0  0  0  0  0  1  0  0  0  0  0  0
  182.1040  179.6030  139.0890 O   0  0  0  0  0  0  0  0  0  0  0  0
  1  5  2  0  0  0  0
  1 10  1  0  0  0  0
  2 15  1  0  0  0  0
  3  9  1  0  0  0  0
  4 21  1  0  0  0  0
  4  8  2  0  0  0  0
  5  4  1  0  0  0  0
  6  8  1  0  0  0  0
  6  7  1  0  0  0  0
  9 10  1  0  0  0  0
  9 11  1  0  0  0  0
 10  6  2  0  0  0  0
 11  7  2  0  0  0  0
 12  2  2  0  0  0  0
 13 12  1  0  0  0  0
 13 14  2  0  0  0  0
 14 16  1  0  0  0  0
 15 17  1  0  0  0  0
 15  3  2  0  0  0  0
 16 17  2  0  0  0  0
 17  1  1  0  0  0  0
 18 13  1  0  0  0  0
 19 18  1  0  0  0  0
 20 18  2  0  0  0  0
 22 31  1  0  0  0  0
 23 30  1  0  0  0  0
 24 25  2  0  0  0  0
 25 26  1  0  0  0  0
 26 22  2  0  0  0  0
 27 28  1  0  0  0  0
 28 26  1  0  0  0  0
 28 23  2  0  0  0  0
 29 24  1  0  0  0  0
 29 27  2  0  0  0  0
 30 31  2  0  0  0  0
 30 21  1  0  0  0  0
 32 33  1  0  0  0  0
 32 24  1  0  0  0  0
 34 32  2  0  0  0  0
M  END
>  <MODEL>
2

>  <REMARK>
 VINA RESULT:     -12.4      3.582      6.914
  Name = 
  4 active torsions:
  status: ('A' for Active; 'I' for Inactive)
    1  A    between atoms: C_3  and  C_25
    2  A    between atoms: C_7  and  C_11
    3  A    between atoms: C_8  and  C_18
    4  A    between atoms: C_18  and  C_30
                            x       y       z     vdW  Elec       q    Type
                         _______ _______ _______ _____ _____    ______ ____

>  <TORSDO>
F 4

$$$$
=
 OpenBabel10262423213D

 34 39  0  0  0  0  0  0  0  0999 V2000
  187.8110  177.7180  145.2660 C   0  0  0  0  0  0  0  0  0  0  0  0
  184.1630  178.8670  145.7310 C   0  0  0  0  0  3  0  0  0  0  0  0
  186.0080  178.5470  147.2540 C   0  0  0  0  0  3  0  0  0  0  0  0
  190.1360  176.9800  144.9550 C   0  0  0  0  0  0  0  0  0  0  0  0
  188.8530  177.2780  144.4160 C   0  0  0  0  0  3  0  0  0  0  0  0
  189.3280  177.5450  147.1420 C   0  0  0  0  0  0  0  0  0  0  0  0
  189.2800  177.7550  148.4770 N   0  0  0  0  0  0  0  0  0  0  0  0
  190.3850  177.1090  146.3460 C   0  0  0  0  0  3  0  0  0  0  0  0
  187.2870  178.2110  147.5370 N   0  0  0  0  0  0  0  0  0  0  0  0
  188.1290  177.8240  146.6010 C   0  0  0  0  0  0  0  0  0  0  0  0
  187.9920  178.1700  148.6920 C   0  0  0  0  0  3  0  0  0  0  0  0
  183.4140  178.9230  144.6370 C   0  0  0  0  0  3  0  0  0  0  0  0
  183.7590  178.6110  143.2460 C   0  0  0  0  0  0  0  0  0  0  0  0
  184.9540  178.1960  142.8300 C   0  0  0  0  0  3  0  0  0  0  0  0
  185.5670  178.4770  145.9100 C   0  0  0  0  0  0  0  0  0  0  0  0
  186.1870  177.9440  143.5820 C   0  0  0  0  0  3  0  0  0  0  0  0
  186.4830  178.0530  144.8830 C   0  0  0  0  0  0  0  0  0  0  0  0
  182.6910  178.7750  142.2400 C   0  0  0  0  0  0  0  0  0  0  0  0
  181.3870  179.0390  142.6430 O   0  0  0  0  0  1  0  0  0  0  0  0
  182.9430  178.6770  141.0090 O   0  0  0  0  0  0  0  0  0  0  0  0
  191.2200  176.4910  144.0540 C   0  0  0  0  0  2  0  0  0  0  0  0
  191.7340  177.4280  140.4160 C   0  0  0  0  0  3  0  0  0  0  0  0
  189.6150  177.0660  142.2200 C   0  0  0  0  0  3  0  0  0  0  0  0
  188.8310  178.1980  138.2460 C   0  0  0  0  0  0  0  0  0  0  0  0
  190.1520  178.0000  138.6730 C   0  0  0  0  0  3  0  0  0  0  0  0
  190.4170  177.6230  139.9920 C   0  0  0  0  0  0  0  0  0  0  0  0
  188.0350  177.6400  140.4760 C   0  0  0  0  0  3  0  0  0  0  0  0
  189.3500  177.4420  140.9000 C   0  0  0  0  0  0  0  0  0  0  0  0
  187.7760  178.0170  139.1540 C   0  0  0  0  0  3  0  0  0  0  0  0
  190.9360  176.8660  142.6380 C   0  0  0  0  0  0  0  0  0  0  0  0
  191.9920  177.0520  141.7390 C   0  0  0  0  0  3  0  0  0  0  0  0
  188.5590  178.5950  136.8560 C   0  0  0  0  0  0  0  0  0  0  0  0
  189.2050  178.0790  135.9050 O   0  0  0  0  0  0  0  0  0  0  0  0
  187.5830  179.5460  136.5770 O   0  0  0  0  0  1  0  0  0  0  0  0
  1 10  1  0  0  0  0
  2 15  1  0  0  0  0
  3  9  1  0  0  0  0
  4  8  2  0  0  0  0
  5  4  1  0  0  0  0
  5  1  2  0  0  0  0
  6  7  1  0  0  0  0
  7 11  2  0  0  0  0
  8  6  1  0  0  0  0
  9 11  1  0  0  0  0
 10  6  2  0  0  0  0
 10  9  1  0  0  0  0
 12  2  2  0  0  0  0
 13 12  1  0  0  0  0
 14 13  2  0  0  0  0
 14 16  1  0  0  0  0
 15  3  2  0  0  0  0
 16 17  2  0  0  0  0
 17  1  1  0  0  0  0
 17 15  1  0  0  0  0
 18 19  1  0  0  0  0
 18 13  1  0  0  0  0
 20 18  2  0  0  0  0
 21  4  1  0  0  0  0
 22 31  1  0  0  0  0
 23 30  1  0  0  0  0
 24 25  2  0  0  0  0
 24 29  1  0  0  0  0
 25 26  1  0  0  0  0
 26 22  2  0  0  0  0
 26 28  1  0  0  0  0
 27 28  1  0  0  0  0
 28 23  2  0  0  0  0
 29 27  2  0  0  0  0
 30 21  1  0  0  0  0
 31 30  2  0  0  0  0
 32 24  1  0  0  0  0
 33 32  2  0  0  0  0
 34 32  1  0  0  0  0
M  END
>  <MODEL>
3

>  <REMARK>
 VINA RESULT:     -12.3      3.601      7.627
  Name = 
  4 active torsions:
  status: ('A' for Active; 'I' for Inactive)
    1  A    between atoms: C_3  and  C_25
    2  A    between atoms: C_7  and  C_11
    3  A    between atoms: C_8  and  C_18
    4  A    between atoms: C_18  and  C_30
                            x       y       z     vdW  Elec       q    Type
                         _______ _______ _______ _____ _____    ______ ____

>  <TORSDO>
F 4

$$$$
=
 OpenBabel10262423213D

 34 39  0  0  0  0  0  0  0  0999 V2000
  187.5180  177.8750  144.9170 C   0  0  0  0  0  0  0  0  0  0  0  0
  190.8660  176.8150  143.3330 C   0  0  0  0  0  3  0  0  0  0  0  0
  190.1350  177.1280  145.6120 C   0  0  0  0  0  3  0  0  0  0  0  0
  185.3750  178.5560  145.9150 C   0  0  0  0  0  0  0  0  0  0  0  0
  186.1690  178.2740  144.7670 C   0  0  0  0  0  3  0  0  0  0  0  0
  187.2580  178.0560  147.3160 C   0  0  0  0  0  0  0  0  0  0  0  0
  188.0300  177.8770  148.4110 N   0  0  0  0  0  0  0  0  0  0  0  0
  185.9260  178.4530  147.2180 C   0  0  0  0  0  3  0  0  0  0  0  0
  189.2050  177.4430  146.5420 N   0  0  0  0  0  0  0  0  0  0  0  0
  187.9790  177.7920  146.2120 C   0  0  0  0  0  0  0  0  0  0  0  0
  189.2400  177.4940  147.8950 C   0  0  0  0  0  3  0  0  0  0  0  0
  190.9020  176.7510  142.0080 C   0  0  0  0  0  3  0  0  0  0  0  0
  189.8480  177.0250  141.0260 C   0  0  0  0  0  0  0  0  0  0  0  0
  188.6070  177.4060  141.3240 C   0  0  0  0  0  3  0  0  0  0  0  0
  189.7730  177.1780  144.2430 C   0  0  0  0  0  0  0  0  0  0  0  0
  187.9730  177.6470  142.6230 C   0  0  0  0  0  3  0  0  0  0  0  0
  188.4340  177.5610  143.8760 C   0  0  0  0  0  0  0  0  0  0  0  0
  190.2030  176.8630  139.6020 C   0  0  0  0  0  0  0  0  0  0  0  0
  190.1330  177.9490  138.7370 O   0  0  0  0  0  0  0  0  0  0  0  0
  190.5720  175.7450  139.1520 O   0  0  0  0  0  1  0  0  0  0  0  0
  183.9620  179.0030  145.7440 C   0  0  0  0  0  2  0  0  0  0  0  0
  181.8110  178.5130  142.6610 C   0  0  0  0  0  3  0  0  0  0  0  0
  184.5000  179.0000  143.2990 C   0  0  0  0  0  3  0  0  0  0  0  0
  183.3230  178.6080  139.2790 C   0  0  0  0  0  0  0  0  0  0  0  0
  182.3730  178.4960  140.3040 C   0  0  0  0  0  3  0  0  0  0  0  0
  182.7590  178.6270  141.6410 C   0  0  0  0  0  0  0  0  0  0  0  0
  185.0600  178.9810  140.9420 C   0  0  0  0  0  3  0  0  0  0  0  0
  184.1130  178.8710  141.9610 C   0  0  0  0  0  0  0  0  0  0  0  0
  184.6670  178.8510  139.6060 C   0  0  0  0  0  3  0  0  0  0  0  0
  183.5440  178.8910  144.3160 C   0  0  0  0  0  0  0  0  0  0  0  0
  182.2040  178.6430  143.9970 C   0  0  0  0  0  3  0  0  0  0  0  0
  182.9100  178.4700  137.8740 C   0  0  0  0  0  0  0  0  0  0  0  0
  181.9360  179.1300  137.4260 O   0  0  0  0  0  1  0  0  0  0  0  0
  183.5930  177.6060  137.0250 O   0  0  0  0  0  0  0  0  0  0  0  0
  1 10  1  0  0  0  0
  2 15  1  0  0  0  0
  3  9  1  0  0  0  0
  4  8  2  0  0  0  0
  5  1  2  0  0  0  0
  5  4  1  0  0  0  0
  6  7  1  0  0  0  0
  8  6  1  0  0  0  0
  9 11  1  0  0  0  0
 10  9  1  0  0  0  0
 10  6  2  0  0  0  0
 11  7  2  0  0  0  0
 12  2  2  0  0  0  0
 13 14  2  0  0  0  0
 13 12  1  0  0  0  0
 14 16  1  0  0  0  0
 15  3  2  0  0  0  0
 16 17  2  0  0  0  0
 17 15  1  0  0  0  0
 17  1  1  0  0  0  0
 18 13  1  0  0  0  0
 19 18  2  0  0  0  0
 20 18  1  0  0  0  0
 21  4  1  0  0  0  0
 22 31  1  0  0  0  0
 23 30  1  0  0  0  0
 24 29  1  0  0  0  0
 24 25  2  0  0  0  0
 25 26  1  0  0  0  0
 26 28  1  0  0  0  0
 26 22  2  0  0  0  0
 27 28  1  0  0  0  0
 28 23  2  0  0  0  0
 29 27  2  0  0  0  0
 30 21  1  0  0  0  0
 31 30  2  0  0  0  0
 32 24  1  0  0  0  0
 33 32  1  0  0  0  0
 34 32  2  0  0  0  0
M  END
>  <MODEL>
4

>  <REMARK>
 VINA RESULT:     -11.9      3.074      6.918
  Name = 
  4 active torsions:
  status: ('A' for Active; 'I' for Inactive)
    1  A    between atoms: C_3  and  C_25
    2  A    between atoms: C_7  and  C_11
    3  A    between atoms: C_8  and  C_18
    4  A    between atoms: C_18  and  C_30
                            x       y       z     vdW  Elec       q    Type
                         _______ _______ _______ _____ _____    ______ ____

>  <TORSDO>
F 4

$$$$
=
 OpenBabel10262423213D

 34 39  0  0  0  0  0  0  0  0999 V2000
  186.6180  178.2040  143.9270 C   0  0  0  0  0  0  0  0  0  0  0  0
  187.8350  177.6050  147.5320 C   0  0  0  0  0  3  0  0  0  0  0  0
  185.7250  178.2970  146.5880 C   0  0  0  0  0  3  0  0  0  0  0  0
  185.8560  178.5870  141.6190 C   0  0  0  0  0  0  0  0  0  0  0  0
  186.8820  178.2220  142.5360 C   0  0  0  0  0  3  0  0  0  0  0  0
  184.3520  178.9150  143.4610 C   0  0  0  0  0  0  0  0  0  0  0  0
  183.2400  179.2040  144.1730 N   0  0  0  0  0  0  0  0  0  0  0  0
  184.5640  178.9470  142.0840 C   0  0  0  0  0  3  0  0  0  0  0  0
  184.9190  178.6050  145.5460 N   0  0  0  0  0  0  0  0  0  0  0  0
  185.3420  178.5600  144.3000 C   0  0  0  0  0  0  0  0  0  0  0  0
  183.6260  179.0010  145.4720 C   0  0  0  0  0  3  0  0  0  0  0  0
  189.0970  177.2200  147.6760 C   0  0  0  0  0  3  0  0  0  0  0  0
  190.1280  176.9820  146.6610 C   0  0  0  0  0  0  0  0  0  0  0  0
  189.9530  177.1200  145.3480 C   0  0  0  0  0  3  0  0  0  0  0  0
  187.0630  177.9150  146.3230 C   0  0  0  0  0  0  0  0  0  0  0  0
  188.7680  177.5220  144.5840 C   0  0  0  0  0  3  0  0  0  0  0  0
  187.5310  177.8650  144.9620 C   0  0  0  0  0  0  0  0  0  0  0  0
  191.4560  176.5560  147.1450 C   0  0  0  0  0  0  0  0  0  0  0  0
  192.1260  175.5110  146.5170 O   0  0  0  0  0  0  0  0  0  0  0  0
  191.9990  177.1280  148.1280 O   0  0  0  0  0  1  0  0  0  0  0  0
  186.1520  178.6280  140.1580 C   0  0  0  0  0  2  0  0  0  0  0  0
  189.8290  177.8360  140.6310 C   0  0  0  0  0  3  0  0  0  0  0  0
  187.8730  177.6430  138.6290 C   0  0  0  0  0  3  0  0  0  0  0  0
  191.8100  176.3810  137.8580 C   0  0  0  0  0  0  0  0  0  0  0  0
  191.4710  176.8990  139.1160 C   0  0  0  0  0  3  0  0  0  0  0  0
  190.1650  177.3190  139.3780 C   0  0  0  0  0  0  0  0  0  0  0  0
  189.5170  176.7080  137.1150 C   0  0  0  0  0  3  0  0  0  0  0  0
  189.1800  177.2220  138.3690 C   0  0  0  0  0  0  0  0  0  0  0  0
  190.8270  176.2890  136.8610 C   0  0  0  0  0  3  0  0  0  0  0  0
  187.5410  178.1550  139.8890 C   0  0  0  0  0  0  0  0  0  0  0  0
  188.5190  178.2560  140.8850 C   0  0  0  0  0  3  0  0  0  0  0  0
  193.1880  175.9410  137.5890 C   0  0  0  0  0  0  0  0  0  0  0  0
  194.0200  176.7280  137.0630 O   0  0  0  0  0  0  0  0  0  0  0  0
  193.5870  174.6490  137.9140 O   0  0  0  0  0  1  0  0  0  0  0  0
  1 10  1  0  0  0  0
  1 17  1  0  0  0  0
  2 12  2  0  0  0  0
  4  8  2  0  0  0  0
  4  5  1  0  0  0  0
  5  1  2  0  0  0  0
  6  7  1  0  0  0  0
  6 10  2  0  0  0  0
  7 11  2  0  0  0  0
  8  6  1  0  0  0  0
  9  3  1  0  0  0  0
 10  9  1  0  0  0  0
 11  9  1  0  0  0  0
 13 18  1  0  0  0  0
 13 12  1  0  0  0  0
 14 13  2  0  0  0  0
 15  3  2  0  0  0  0
 15  2  1  0  0  0  0
 16 17  2  0  0  0  0
 16 14  1  0  0  0  0
 17 15  1  0  0  0  0
 18 20  1  0  0  0  0
 19 18  2  0  0  0  0
 21  4  1  0  0  0  0
 22 31  1  0  0  0  0
 23 30  1  0  0  0  0
 24 25  2  0  0  0  0
 25 26  1  0  0  0  0
 26 22  2  0  0  0  0
 27 28  1  0  0  0  0
 28 23  2  0  0  0  0
 28 26  1  0  0  0  0
 29 27  2  0  0  0  0
 29 24  1  0  0  0  0
 30 21  1  0  0  0  0
 30 31  2  0  0  0  0
 32 24  1  0  0  0  0
 32 34  1  0  0  0  0
 33 32  2  0  0  0  0
M  END
>  <MODEL>
5

>  <REMARK>
 VINA RESULT:     -11.5      2.174      6.919
  Name = 
  4 active torsions:
  status: ('A' for Active; 'I' for Inactive)
    1  A    between atoms: C_3  and  C_25
    2  A    between atoms: C_7  and  C_11
    3  A    between atoms: C_8  and  C_18
    4  A    between atoms: C_18  and  C_30
                            x       y       z     vdW  Elec       q    Type
                         _______ _______ _______ _____ _____    ______ ____

>  <TORSDO>
F 4

$$$$
=
 OpenBabel10262423213D

 34 39  0  0  0  0  0  0  0  0999 V2000
  188.9270  177.6120  143.6470 C   0  0  0  0  0  0  0  0  0  0  0  0
  185.7740  177.9850  145.8290 C   0  0  0  0  0  3  0  0  0  0  0  0
  188.0870  177.5050  146.3250 C   0  0  0  0  0  3  0  0  0  0  0  0
  190.9320  177.3740  142.2410 C   0  0  0  0  0  0  0  0  0  0  0  0
  189.5350  177.6200  142.3690 C   0  0  0  0  0  3  0  0  0  0  0  0
  191.0840  177.1110  144.6220 C   0  0  0  0  0  0  0  0  0  0  0  0
  191.5850  176.8930  145.8580 N   0  0  0  0  0  0  0  0  0  0  0  0
  191.7280  177.1080  143.3850 C   0  0  0  0  0  3  0  0  0  0  0  0
  189.3750  177.3010  145.9650 N   0  0  0  0  0  0  0  0  0  0  0  0
  189.7640  177.3530  144.7090 C   0  0  0  0  0  0  0  0  0  0  0  0
  190.4920  177.0180  146.6760 C   0  0  0  0  0  3  0  0  0  0  0  0
  184.6410  178.2560  145.1940 C   0  0  0  0  0  3  0  0  0  0  0  0
  184.3900  178.4420  143.7610 C   0  0  0  0  0  0  0  0  0  0  0  0
  185.3150  178.3630  142.8060 C   0  0  0  0  0  3  0  0  0  0  0  0
  187.1340  177.7820  145.3150 C   0  0  0  0  0  0  0  0  0  0  0  0
  186.7520  178.0880  142.8970 C   0  0  0  0  0  3  0  0  0  0  0  0
  187.5540  177.8390  143.9390 C   0  0  0  0  0  0  0  0  0  0  0  0
  183.0000  178.7380  143.3600 C   0  0  0  0  0  0  0  0  0  0  0  0
  181.9980  178.8210  144.3200 O   0  0  0  0  0  1  0  0  0  0  0  0
  182.7020  178.9180  142.1480 O   0  0  0  0  0  0  0  0  0  0  0  0
  191.5570  177.3570  140.8870 C   0  0  0  0  0  2  0  0  0  0  0  0
  189.8680  175.7690  137.8880 C   0  0  0  0  0  3  0  0  0  0  0  0
  189.3370  177.7520  139.8000 C   0  0  0  0  0  3  0  0  0  0  0  0
  186.5100  176.9000  136.8030 C   0  0  0  0  0  0  0  0  0  0  0  0
  187.7210  176.1930  136.8500 C   0  0  0  0  0  3  0  0  0  0  0  0
  188.6620  176.4720  137.8440 C   0  0  0  0  0  0  0  0  0  0  0  0
  187.1900  178.1770  138.7590 C   0  0  0  0  0  3  0  0  0  0  0  0
  188.3950  177.4720  138.8060 C   0  0  0  0  0  0  0  0  0  0  0  0
  186.2520  177.8920  137.7620 C   0  0  0  0  0  3  0  0  0  0  0  0
  190.5410  177.0390  139.8420 C   0  0  0  0  0  0  0  0  0  0  0  0
  190.8070  176.0540  138.8850 C   0  0  0  0  0  3  0  0  0  0  0  0
  185.5230  176.6020  135.7540 C   0  0  0  0  0  0  0  0  0  0  0  0
  185.2430  177.4610  134.8770 O   0  0  0  0  0  0  0  0  0  0  0  0
  184.8880  175.3650  135.7220 O   0  0  0  0  0  1  0  0  0  0  0  0
  1 17  1  0  0  0  0
  1 10  1  0  0  0  0
  4  5  1  0  0  0  0
  4  8  2  0  0  0  0
  5  1  2  0  0  0  0
  6 10  2  0  0  0  0
  6  7  1  0  0  0  0
  7 11  2  0  0  0  0
  8  6  1  0  0  0  0
  9  3  1  0  0  0  0
  9 11  1  0  0  0  0
 10  9  1  0  0  0  0
 12  2  2  0  0  0  0
 13 12  1  0  0  0  0
 14 16  1  0  0  0  0
 14 13  2  0  0  0  0
 15  2  1  0  0  0  0
 15  3  2  0  0  0  0
 16 17  2  0  0  0  0
 17 15  1  0  0  0  0
 18 13  1  0  0  0  0
 18 19  1  0  0  0  0
 20 18  2  0  0  0  0
 21  4  1  0  0  0  0
 22 31  1  0  0  0  0
 23 30  1  0  0  0  0
 24 25  2  0  0  0  0
 24 29  1  0  0  0  0
 25 26  1  0  0  0  0
 26 22  2  0  0  0  0
 26 28  1  0  0  0  0
 27 28  1  0  0  0  0
 28 23  2  0  0  0  0
 29 27  2  0  0  0  0
 30 21  1  0  0  0  0
 31 30  2  0  0  0  0
 32 24  1  0  0  0  0
 33 32  2  0  0  0  0
 34 32  1  0  0  0  0
M  END
>  <MODEL>
6

>  <REMARK>
 VINA RESULT:     -11.2      3.948      8.587
  Name = 
  4 active torsions:
  status: ('A' for Active; 'I' for Inactive)
    1  A    between atoms: C_3  and  C_25
    2  A    between atoms: C_7  and  C_11
    3  A    between atoms: C_8  and  C_18
    4  A    between atoms: C_18  and  C_30
                            x       y       z     vdW  Elec       q    Type
                         _______ _______ _______ _____ _____    ______ ____

>  <TORSDO>
F 4

$$$$
=
 OpenBabel10262423213D

 34 39  0  0  0  0  0  0  0  0999 V2000
  188.4480  177.8960  141.3470 C   0  0  0  0  0  0  0  0  0  0  0  0
  188.2540  177.7580  145.1920 C   0  0  0  0  0  3  0  0  0  0  0  0
  190.0470  177.4370  143.6090 C   0  0  0  0  0  3  0  0  0  0  0  0
  188.5560  177.9840  138.8910 C   0  0  0  0  0  0  0  0  0  0  0  0
  187.8090  178.0910  140.0980 C   0  0  0  0  0  3  0  0  0  0  0  0
  190.5240  177.4910  140.1720 C   0  0  0  0  0  0  0  0  0  0  0  0
  191.8010  177.1910  140.4960 N   0  0  0  0  0  0  0  0  0  0  0  0
  189.9400  177.6730  138.9200 C   0  0  0  0  0  3  0  0  0  0  0  0
  190.5460  177.3870  142.3520 N   0  0  0  0  0  0  0  0  0  0  0  0
  189.7920  177.6040  141.2950 C   0  0  0  0  0  0  0  0  0  0  0  0
  191.7830  177.1330  141.8650 C   0  0  0  0  0  3  0  0  0  0  0  0
  187.0660  177.9920  145.7350 C   0  0  0  0  0  3  0  0  0  0  0  0
  185.7850  178.3020  145.0930 C   0  0  0  0  0  0  0  0  0  0  0  0
  185.5940  178.4050  143.7790 C   0  0  0  0  0  3  0  0  0  0  0  0
  188.6730  177.7310  143.7860 C   0  0  0  0  0  0  0  0  0  0  0  0
  186.5370  178.2520  142.6670 C   0  0  0  0  0  3  0  0  0  0  0  0
  187.8440  177.9680  142.6320 C   0  0  0  0  0  0  0  0  0  0  0  0
  184.6250  178.5130  145.9830 C   0  0  0  0  0  0  0  0  0  0  0  0
  183.4300  179.0030  145.4680 O   0  0  0  0  0  0  0  0  0  0  0  0
  184.7010  178.2540  147.2140 O   0  0  0  0  0  1  0  0  0  0  0  0
  187.8670  178.1640  137.5800 C   0  0  0  0  0  2  0  0  0  0  0  0
  184.4160  176.6310  137.2390 C   0  0  0  0  0  3  0  0  0  0  0  0
  187.0930  175.7950  137.3420 C   0  0  0  0  0  3  0  0  0  0  0  0
  184.0100  172.9590  136.9540 C   0  0  0  0  0  0  0  0  0  0  0  0
  183.7040  174.3250  137.0310 C   0  0  0  0  0  3  0  0  0  0  0  0
  184.7240  175.2710  137.1590 C   0  0  0  0  0  0  0  0  0  0  0  0
  186.3780  173.4890  137.1370 C   0  0  0  0  0  3  0  0  0  0  0  0
  186.0710  174.8490  137.2130 C   0  0  0  0  0  0  0  0  0  0  0  0
  185.3520  172.5480  137.0080 C   0  0  0  0  0  3  0  0  0  0  0  0
  186.7790  177.1570  137.4150 C   0  0  0  0  0  0  0  0  0  0  0  0
  185.4430  177.5720  137.3690 C   0  0  0  0  0  3  0  0  0  0  0  0
  182.9310  171.9680  136.8190 C   0  0  0  0  0  0  0  0  0  0  0  0
  183.2000  170.7510  136.6370 O   0  0  0  0  0  0  0  0  0  0  0  0
  181.6010  172.3670  136.8900 O   0  0  0  0  0  1  0  0  0  0  0  0
  1 17  1  0  0  0  0
  2 12  2  0  0  0  0
  3 15  2  0  0  0  0
  4  8  2  0  0  0  0
  4  5  1  0  0  0  0
  5  1  2  0  0  0  0
  6  7  1  0  0  0  0
  6 10  2  0  0  0  0
  7 11  2  0  0  0  0
  8  6  1  0  0  0  0
  9  3  1  0  0  0  0
 10  1  1  0  0  0  0
 10  9  1  0  0  0  0
 11  9  1  0  0  0  0
 13 12  1  0  0  0  0
 13 18  1  0  0  0  0
 14 13  2  0  0  0  0
 15  2  1  0  0  0  0
 16 14  1  0  0  0  0
 17 16  2  0  0  0  0
 17 15  1  0  0  0  0
 18 20  1  0  0  0  0
 19 18  2  0  0  0  0
 21  4  1  0  0  0  0
 22 31  1  0  0  0  0
 23 30  1  0  0  0  0
 24 29  1  0  0  0  0
 24 25  2  0  0  0  0
 25 26  1  0  0  0  0
 26 28  1  0  0  0  0
 26 22  2  0  0  0  0
 27 28  1  0  0  0  0
 28 23  2  0  0  0  0
 29 27  2  0  0  0  0
 30 21  1  0  0  0  0
 31 30  2  0  0  0  0
 32 34  1  0  0  0  0
 32 24  1  0  0  0  0
 33 32  2  0  0  0  0
M  END
>  <MODEL>
7

>  <REMARK>
 VINA RESULT:     -11.1      4.626      9.054
  Name = 
  4 active torsions:
  status: ('A' for Active; 'I' for Inactive)
    1  A    between atoms: C_3  and  C_25
    2  A    between atoms: C_7  and  C_11
    3  A    between atoms: C_8  and  C_18
    4  A    between atoms: C_18  and  C_30
                            x       y       z     vdW  Elec       q    Type
                         _______ _______ _______ _____ _____    ______ ____

>  <TORSDO>
F 4

$$$$
=
 OpenBabel10262423213D

 34 39  0  0  0  0  0  0  0  0999 V2000
  184.1840  178.4370  141.9280 C   0  0  0  0  0  0  0  0  0  0  0  0
  185.2530  178.4260  145.6300 C   0  0  0  0  0  3  0  0  0  0  0  0
  183.1620  178.8700  144.5080 C   0  0  0  0  0  3  0  0  0  0  0  0
  183.5160  178.4440  139.5610 C   0  0  0  0  0  0  0  0  0  0  0  0
  184.5120  178.2660  140.5620 C   0  0  0  0  0  3  0  0  0  0  0  0
  181.9150  178.9610  141.2720 C   0  0  0  0  0  0  0  0  0  0  0  0
  180.7580  179.2950  141.8880 N   0  0  0  0  0  0  0  0  0  0  0  0
  182.1900  178.8040  139.9150 C   0  0  0  0  0  3  0  0  0  0  0  0
  182.3940  178.9840  143.4010 N   0  0  0  0  0  0  0  0  0  0  0  0
  182.8770  178.7800  142.1940 C   0  0  0  0  0  0  0  0  0  0  0  0
  181.0900  179.3010  143.2170 C   0  0  0  0  0  3  0  0  0  0  0  0
  186.5220  178.1290  145.8800 C   0  0  0  0  0  3  0  0  0  0  0  0
  187.6090  177.7970  144.9530 C   0  0  0  0  0  0  0  0  0  0  0  0
  187.4910  177.7350  143.6280 C   0  0  0  0  0  3  0  0  0  0  0  0
  184.5260  178.5200  144.3580 C   0  0  0  0  0  0  0  0  0  0  0  0
  186.3270  177.9640  142.7660 C   0  0  0  0  0  3  0  0  0  0  0  0
  185.0600  178.2960  143.0390 C   0  0  0  0  0  0  0  0  0  0  0  0
  188.9300  177.5110  145.5480 C   0  0  0  0  0  0  0  0  0  0  0  0
  189.0190  176.8310  146.7570 O   0  0  0  0  0  1  0  0  0  0  0  0
  189.9900  177.8780  144.9730 O   0  0  0  0  0  0  0  0  0  0  0  0
  183.8800  178.2890  138.1230 C   0  0  0  0  0  2  0  0  0  0  0  0
  186.7120  175.9870  137.0950 C   0  0  0  0  0  3  0  0  0  0  0  0
  186.3240  178.2810  138.6640 C   0  0  0  0  0  3  0  0  0  0  0  0
  190.1550  176.5760  138.3310 C   0  0  0  0  0  0  0  0  0  0  0  0
  189.0680  176.0000  137.6580 C   0  0  0  0  0  3  0  0  0  0  0  0
  187.7940  176.5630  137.7640 C   0  0  0  0  0  0  0  0  0  0  0  0
  188.6800  178.2910  139.2280 C   0  0  0  0  0  3  0  0  0  0  0  0
  187.5990  177.7170  138.5560 C   0  0  0  0  0  0  0  0  0  0  0  0
  189.9530  177.7220  139.1150 C   0  0  0  0  0  3  0  0  0  0  0  0
  185.2440  177.7030  137.9850 C   0  0  0  0  0  0  0  0  0  0  0  0
  185.4380  176.5550  137.2070 C   0  0  0  0  0  3  0  0  0  0  0  0
  191.4940  175.9780  138.2140 C   0  0  0  0  0  0  0  0  0  0  0  0
  192.5250  176.6860  138.3590 O   0  0  0  0  0  1  0  0  0  0  0  0
  191.6340  174.6210  137.9420 O   0  0  0  0  0  0  0  0  0  0  0  0
  1 10  1  0  0  0  0
  1 17  1  0  0  0  0
  2 12  2  0  0  0  0
  4  8  2  0  0  0  0
  4  5  1  0  0  0  0
  5  1  2  0  0  0  0
  6  7  1  0  0  0  0
  6 10  2  0  0  0  0
  7 11  2  0  0  0  0
  8  6  1  0  0  0  0
  9  3  1  0  0  0  0
 10  9  1  0  0  0  0
 11  9  1  0  0  0  0
 13 18  1  0  0  0  0
 13 12  1  0  0  0  0
 14 13  2  0  0  0  0
 15  3  2  0  0  0  0
 15  2  1  0  0  0  0
 16 17  2  0  0  0  0
 16 14  1  0  0  0  0
 17 15  1  0  0  0  0
 18 19  1  0  0  0  0
 20 18  2  0  0  0  0
 21  4  1  0  0  0  0
 22 31  2  0  0  0  0
 22 26  1  0  0  0  0
 24 29  1  0  0  0  0
 25 26  1  0  0  0  0
 25 24  2  0  0  0  0
 26 28  2  0  0  0  0
 28 23  1  0  0  0  0
 28 27  1  0  0  0  0
 29 27  2  0  0  0  0
 30 21  1  0  0  0  0
 30 23  2  0  0  0  0
 31 30  1  0  0  0  0
 32 24  1  0  0  0  0
 32 33  1  0  0  0  0
 34 32  2  0  0  0  0
M  END
>  <MODEL>
8

>  <REMARK>
 VINA RESULT:     -10.9      1.667      6.289
  Name = 
  4 active torsions:
  status: ('A' for Active; 'I' for Inactive)
    1  A    between atoms: C_3  and  C_25
    2  A    between atoms: C_7  and  C_11
    3  A    between atoms: C_8  and  C_18
    4  A    between atoms: C_18  and  C_30
                            x       y       z     vdW  Elec       q    Type
                         _______ _______ _______ _____ _____    ______ ____

>  <TORSDO>
F 4

$$$$
=
 OpenBabel10262423213D

 34 39  0  0  0  0  0  0  0  0999 V2000
  183.1560  178.0800  140.1430 C   0  0  0  0  0  0  0  0  0  0  0  0
  184.7760  177.1710  136.7680 C   0  0  0  0  0  3  0  0  0  0  0  0
  182.5450  176.9250  137.6570 C   0  0  0  0  0  3  0  0  0  0  0  0
  182.1350  178.6640  142.3040 C   0  0  0  0  0  0  0  0  0  0  0  0
  183.2700  178.6250  141.4450 C   0  0  0  0  0  3  0  0  0  0  0  0
  180.8210  177.6260  140.5850 C   0  0  0  0  0  0  0  0  0  0  0  0
  179.7770  177.0780  139.9240 N   0  0  0  0  0  0  0  0  0  0  0  0
  180.8840  178.1510  141.8750 C   0  0  0  0  0  3  0  0  0  0  0  0
  181.6190  177.0660  138.6330 N   0  0  0  0  0  0  0  0  0  0  0  0
  181.9100  177.6080  139.7960 C   0  0  0  0  0  0  0  0  0  0  0  0
  180.3070  176.7380  138.7070 C   0  0  0  0  0  3  0  0  0  0  0  0
  186.0640  177.4600  136.6310 C   0  0  0  0  0  3  0  0  0  0  0  0
  186.9920  178.0840  137.5790 C   0  0  0  0  0  0  0  0  0  0  0  0
  186.6730  178.4880  138.8070 C   0  0  0  0  0  3  0  0  0  0  0  0
  183.8650  177.3770  137.9010 C   0  0  0  0  0  0  0  0  0  0  0  0
  185.3950  178.4320  139.5240 C   0  0  0  0  0  3  0  0  0  0  0  0
  184.1890  177.9700  139.1720 C   0  0  0  0  0  0  0  0  0  0  0  0
  188.3840  178.2740  137.1240 C   0  0  0  0  0  0  0  0  0  0  0  0
  189.0600  179.4520  137.4200 O   0  0  0  0  0  1  0  0  0  0  0  0
  188.9760  177.3780  136.4650 O   0  0  0  0  0  0  0  0  0  0  0  0
  182.2730  179.2140  143.6840 C   0  0  0  0  0  2  0  0  0  0  0  0
  185.0490  178.6290  146.1990 C   0  0  0  0  0  3  0  0  0  0  0  0
  184.6340  178.4200  143.4320 C   0  0  0  0  0  3  0  0  0  0  0  0
  188.3800  177.4500  145.0820 C   0  0  0  0  0  0  0  0  0  0  0  0
  187.3340  177.8780  145.9130 C   0  0  0  0  0  3  0  0  0  0  0  0
  186.0890  178.2010  145.3700 C   0  0  0  0  0  0  0  0  0  0  0  0
  186.9210  177.6720  143.1470 C   0  0  0  0  0  3  0  0  0  0  0  0
  185.8810  178.0970  143.9760 C   0  0  0  0  0  0  0  0  0  0  0  0
  188.1650  177.3490  143.6980 C   0  0  0  0  0  3  0  0  0  0  0  0
  183.5950  178.8430  144.2680 C   0  0  0  0  0  0  0  0  0  0  0  0
  183.8050  178.9520  145.6480 C   0  0  0  0  0  3  0  0  0  0  0  0
  189.6890  177.1120  145.6600 C   0  0  0  0  0  0  0  0  0  0  0  0
  190.7130  177.0460  144.9290 O   0  0  0  0  0  0  0  0  0  0  0  0
  189.8090  176.8590  147.0230 O   0  0  0  0  0  1  0  0  0  0  0  0
  1  5  1  0  0  0  0
  2 15  1  0  0  0  0
  3 15  2  0  0  0  0
  3  9  1  0  0  0  0
  4 21  1  0  0  0  0
  5  4  2  0  0  0  0
  6  8  2  0  0  0  0
  7  6  1  0  0  0  0
  8  4  1  0  0  0  0
  9 11  1  0  0  0  0
  9 10  1  0  0  0  0
 10  1  2  0  0  0  0
 10  6  1  0  0  0  0
 11  7  2  0  0  0  0
 12  2  2  0  0  0  0
 12 13  1  0  0  0  0
 13 14  2  0  0  0  0
 14 16  1  0  0  0  0
 15 17  1  0  0  0  0
 17 16  2  0  0  0  0
 17  1  1  0  0  0  0
 18 19  1  0  0  0  0
 18 13  1  0  0  0  0
 20 18  2  0  0  0  0
 21 30  1  0  0  0  0
 23 28  2  0  0  0  0
 23 30  1  0  0  0  0
 24 32  1  0  0  0  0
 24 25  2  0  0  0  0
 26 25  1  0  0  0  0
 26 22  2  0  0  0  0
 27 29  2  0  0  0  0
 27 28  1  0  0  0  0
 28 26  1  0  0  0  0
 29 24  1  0  0  0  0
 30 31  2  0  0  0  0
 31 22  1  0  0  0  0
 32 34  1  0  0  0  0
 33 32  2  0  0  0  0
M  END
>  <MODEL>
9

>  <REMARK>
 VINA RESULT:     -10.6      1.413      2.202
  Name = 
  4 active torsions:
  status: ('A' for Active; 'I' for Inactive)
    1  A    between atoms: C_3  and  C_25
    2  A    between atoms: C_7  and  C_11
    3  A    between atoms: C_8  and  C_18
    4  A    between atoms: C_18  and  C_30
                            x       y       z     vdW  Elec       q    Type
                         _______ _______ _______ _____ _____    ______ ____

>  <TORSDO>
F 4

$$$$
