=
 OpenBabel10262420273D

 55 59  0  0  1  0  0  0  0  0999 V2000
  185.3850  178.5700  144.3260 C   0  0  0  0  0  2  0  0  0  0  0  0
  183.0010  178.7240  142.7960 C   0  0  0  0  0  0  0  0  0  0  0  0
  184.2200  179.2980  142.1240 C   0  0  0  0  0  2  0  0  0  0  0  0
  184.1000  179.0670  144.9680 C   0  0  0  0  0  2  0  0  0  0  0  0
  185.5460  179.1200  142.9030 C   0  0  2  0  0  3  0  0  0  0  0  0
  182.9460  178.6210  144.1300 C   0  0  0  0  0  3  0  0  0  0  0  0
  181.9210  178.3450  141.9940 O   0  0  0  0  0  0  0  0  0  0  0  0
  180.6460  178.9740  142.0640 C   0  0  0  0  0  2  0  0  0  0  0  0
  180.4590  179.8780  140.8660 C   0  0  0  0  0  2  0  0  0  0  0  0
  180.6230  179.0710  139.5900 C   0  0  0  0  0  2  0  0  0  0  0  0
  181.3590  179.8690  138.5200 C   0  0  1  0  0  3  0  0  0  0  0  0
  182.4310  179.0240  137.8320 C   0  0  0  0  0  2  0  0  0  0  0  0
  185.4450  178.1040  137.8610 C   0  0  0  0  0  0  0  0  0  0  0  0
  181.8590  176.3710  137.8280 F   0  0  0  0  0  0  0  0  0  0  0  0
  183.1840  178.1390  138.8270 C   0  0  1  0  0  3  0  0  0  0  0  0
  186.2640  174.8510  136.4730 N   0  0  0  0  0  2  0  0  0  0  0  0
  182.8840  175.9850  139.7800 F   0  0  0  0  0  0  0  0  0  0  0  0
  183.0150  176.6150  138.5570 C   0  0  0  0  0  0  0  0  0  0  0  0
  186.5620  178.6730  137.7290 O   0  0  0  0  0  0  0  0  0  0  0  0
  184.9690  174.3000  136.0830 C   0  0  0  0  0  2  0  0  0  0  0  0
  183.8920  174.6800  137.1030 C   0  0  0  0  0  2  0  0  0  0  0  0
  185.0270  176.9760  136.9700 C   0  0  2  0  0  3  0  0  0  0  0  0
  184.2290  175.9890  137.8340 C   0  0  1  0  0  3  0  0  0  0  0  0
  186.2310  176.3040  136.2790 C   0  0  0  0  0  2  0  0  0  0  0  0
  184.5580  178.5330  138.8490 O   0  0  0  0  0  0  0  0  0  0  0  0
  180.3760  180.4810  137.5170 C   0  0  0  0  0  2  0  0  0  0  0  0
  180.6920  182.1380  135.6740 O   0  0  0  0  0  0  0  0  0  0  0  0
  180.8090  181.8260  137.0220 C   0  0  0  0  0  0  0  0  0  0  0  0
  181.3070  182.6630  137.8180 O   0  0  0  0  0  1  0  0  0  0  0  0
  186.4970  178.2170  142.1380 C   0  0  0  0  0  2  0  0  0  0  0  0
  187.7440  178.9670  141.7090 C   0  0  0  0  0  2  0  0  0  0  0  0
  188.3860  178.2380  140.5470 C   0  0  0  0  0  2  0  0  0  0  0  0
  188.8610  176.8680  140.9920 C   0  0  0  0  0  2  0  0  0  0  0  0
  190.1810  176.5160  140.2880 C   0  0  1  0  0  3  0  0  0  0  0  0
  191.6330  176.9120  138.4310 C   0  0  0  0  0  2  0  0  0  0  0  0
  190.1850  176.0750  136.7010 C   0  0  1  0  0  3  0  0  0  0  0  0
  190.2530  177.0110  138.9050 N   0  0  0  0  0  0  0  0  0  0  0  0
  189.4230  176.2170  137.9990 C   0  0  0  0  0  2  0  0  0  0  0  0
  191.6350  176.1660  137.1110 C   0  0  0  0  0  2  0  0  0  0  0  0
  189.8700  174.7730  136.0250 C   0  0  0  0  0  0  0  0  0  0  0  0
  189.3460  174.7490  134.7380 O   0  0  0  0  0  0  0  0  0  0  0  0
  190.0220  173.6900  136.6490 O   0  0  0  0  0  1  0  0  0  0  0  0
  191.3910  177.0050  141.0820 C   0  0  0  0  0  2  0  0  0  0  0  0
  191.1450  178.6180  145.3770 C   0  0  0  0  0  2  0  0  0  0  0  0
  190.8700  179.3200  144.0520 C   0  0  0  0  0  2  0  0  0  0  0  0
  191.5090  176.2480  143.4190 C   0  0  0  0  0  3  0  0  0  0  0  0
  191.0120  177.3370  142.5140 C   0  0  1  0  0  3  0  0  0  0  0  0
  191.6290  178.6770  142.8980 C   0  0  0  0  0  2  0  0  0  0  0  0
  191.2560  176.2170  144.7340 C   0  0  0  0  0  3  0  0  0  0  0  0
  190.4450  177.2660  145.4400 C   0  0  1  0  0  3  0  0  0  0  0  0
  190.2620  176.8740  146.9030 C   0  0  0  0  0  2  0  0  0  0  0  0
  188.3290  176.1090  148.2320 C   0  0  0  0  0  1  0  0  0  0  0  0
  187.9410  177.7030  146.4000 C   0  0  0  0  0  1  0  0  0  0  0  0
  189.0850  178.4350  148.4760 C   0  0  0  0  0  1  0  0  0  0  0  0
  188.9120  177.2920  147.4910 C   0  0  0  0  0  0  0  0  0  0  0  0
  1  4  1  0  0  0  0
  2  6  2  0  0  0  0
  3  2  1  0  0  0  0
  3  5  1  0  0  0  0
  5 30  1  6  0  0  0
  5  1  1  0  0  0  0
  6  4  1  0  0  0  0
  7  8  1  0  0  0  0
  7  2  1  0  0  0  0
  9  8  1  0  0  0  0
 10  9  1  0  0  0  0
 11 26  1  6  0  0  0
 11 10  1  0  0  0  0
 12 11  1  0  0  0  0
 13 25  1  0  0  0  0
 14 18  1  0  0  0  0
 15 12  1  6  0  0  0
 15 25  1  0  0  0  0
 18 15  1  0  0  0  0
 18 17  1  0  0  0  0
 19 13  2  0  0  0  0
 20 16  1  0  0  0  0
 20 21  1  0  0  0  0
 22 24  1  1  0  0  0
 22 23  1  0  0  0  0
 22 13  1  0  0  0  0
 23 21  1  6  0  0  0
 23 18  1  0  0  0  0
 24 16  1  0  0  0  0
 27 28  2  0  0  0  0
 28 26  1  0  0  0  0
 28 29  1  0  0  0  0
 31 30  1  0  0  0  0
 32 33  1  0  0  0  0
 32 31  1  0  0  0  0
 34 33  1  1  0  0  0
 34 43  1  0  0  0  0
 35 37  1  0  0  0  0
 36 40  1  1  0  0  0
 36 39  1  0  0  0  0
 36 38  1  0  0  0  0
 37 34  1  0  0  0  0
 38 37  1  0  0  0  0
 39 35  1  0  0  0  0
 40 42  1  0  0  0  0
 41 40  2  0  0  0  0
 44 50  1  0  0  0  0
 45 44  1  0  0  0  0
 46 49  2  0  0  0  0
 47 43  1  6  0  0  0
 47 48  1  0  0  0  0
 47 46  1  0  0  0  0
 48 45  1  0  0  0  0
 49 50  1  0  0  0  0
 50 51  1  1  0  0  0
 51 55  1  0  0  0  0
 53 55  1  0  0  0  0
 55 52  1  0  0  0  0
 55 54  1  0  0  0  0
M  END
>  <MODEL>
1

>  <REMARK>
 VINA RESULT:      -7.0      0.000      0.000
  Name = 
  20 active torsions:
  status: ('A' for Active; 'I' for Inactive)
    1  A    between atoms: C_2  and  C_28
    2  A    between atoms: C_2  and  C_44
    3  A    between atoms: C_6  and  C_46
    4  A    between atoms: C_8  and  C_20
    5  A    between atoms: C_8  and  C_22
    6  A    between atoms: C_10  and  C_32
    7  A    between atoms: C_17  and  C_36
    8  A    between atoms: C_19  and  C_40
    9  A    between atoms: C_19  and  C_45
   10  A    between atoms: C_22  and  C_35
   11  A    between atoms: C_22  and  C_46
   12  A    between atoms: C_27  and  O_54
   13  A    between atoms: C_28  and  C_49
   14  A    between atoms: C_33  and  C_49
   15  A    between atoms: C_33  and  C_52
   16  A    between atoms: N_34  and  C_52
   17  A    between atoms: C_35  and  C_43
   18  A    between atoms: C_36  and  C_52
   19  A    between atoms: C_43  and  C_51
   20  A    between atoms: C_51  and  O_54
                            x       y       z     vdW  Elec       q    Type
                         _______ _______ _______ _____ _____    ______ ____

>  <TORSDO>
F 20

$$$$
=
 OpenBabel10262420273D

 55 59  0  0  1  0  0  0  0  0999 V2000
  190.8010  176.7870  145.1090 C   0  0  0  0  0  2  0  0  0  0  0  0
  188.1990  177.5820  144.3020 C   0  0  0  0  0  0  0  0  0  0  0  0
  189.3130  178.0700  143.4130 C   0  0  0  0  0  2  0  0  0  0  0  0
  189.8270  177.3560  146.1300 C   0  0  0  0  0  2  0  0  0  0  0  0
  190.7240  177.5510  143.7810 C   0  0  2  0  0  3  0  0  0  0  0  0
  188.4430  177.2520  145.5770 C   0  0  0  0  0  3  0  0  0  0  0  0
  186.9070  177.5270  143.7720 O   0  0  0  0  0  0  0  0  0  0  0  0
  186.5340  178.1910  142.5700 C   0  0  0  0  0  2  0  0  0  0  0  0
  185.3140  179.0500  142.8220 C   0  0  0  0  0  2  0  0  0  0  0  0
  184.0740  178.1740  142.8500 C   0  0  0  0  0  2  0  0  0  0  0  0
  182.8250  178.9700  142.4890 C   0  0  1  0  0  3  0  0  0  0  0  0
  182.2550  178.5320  141.1410 C   0  0  0  0  0  2  0  0  0  0  0  0
  182.3390  180.4610  138.6500 C   0  0  0  0  0  0  0  0  0  0  0  0
  182.3480  176.5330  139.3090 F   0  0  0  0  0  0  0  0  0  0  0  0
  183.2880  178.6520  140.0190 C   0  0  1  0  0  3  0  0  0  0  0  0
  181.0830  179.2260  135.4750 N   0  0  0  0  0  2  0  0  0  0  0  0
  184.3200  177.1780  138.4700 F   0  0  0  0  0  0  0  0  0  0  0  0
  183.0750  177.6290  138.8650 C   0  0  0  0  0  0  0  0  0  0  0  0
  182.1940  181.6990  138.4630 O   0  0  0  0  0  0  0  0  0  0  0  0
  180.7060  177.8450  135.7610 C   0  0  0  0  0  2  0  0  0  0  0  0
  181.7030  177.2030  136.7290 C   0  0  0  0  0  2  0  0  0  0  0  0
  181.4900  179.4540  137.9400 C   0  0  2  0  0  3  0  0  0  0  0  0
  182.3850  178.2460  137.6280 C   0  0  1  0  0  3  0  0  0  0  0  0
  180.8330  180.0360  136.6720 C   0  0  0  0  0  2  0  0  0  0  0  0
  183.3040  180.0010  139.5470 O   0  0  0  0  0  0  0  0  0  0  0  0
  181.7820  178.8940  143.6090 C   0  0  0  0  0  2  0  0  0  0  0  0
  179.4000  178.3640  143.0710 O   0  0  0  0  0  1  0  0  0  0  0  0
  180.4140  179.3080  143.1620 C   0  0  0  0  0  0  0  0  0  0  0  0
  180.1890  180.5020  142.8380 O   0  0  0  0  0  0  0  0  0  0  0  0
  191.2710  176.6620  142.6780 C   0  0  0  0  0  2  0  0  0  0  0  0
  190.3800  176.6970  141.4500 C   0  0  0  0  0  2  0  0  0  0  0  0
  191.0740  177.4830  140.3570 C   0  0  0  0  0  2  0  0  0  0  0  0
  191.2290  176.6220  139.1180 C   0  0  0  0  0  2  0  0  0  0  0  0
  189.8460  176.1960  138.6000 C   0  0  1  0  0  3  0  0  0  0  0  0
  189.5070  178.2070  137.3530 C   0  0  0  0  0  2  0  0  0  0  0  0
  187.1800  177.8840  136.8410 C   0  0  1  0  0  3  0  0  0  0  0  0
  188.9350  177.3270  138.3710 N   0  0  0  0  0  0  0  0  0  0  0  0
  187.6300  176.8840  137.8820 C   0  0  0  0  0  2  0  0  0  0  0  0
  188.4650  178.4370  136.2760 C   0  0  0  0  0  2  0  0  0  0  0  0
  186.3360  177.2290  135.7870 C   0  0  0  0  0  0  0  0  0  0  0  0
  185.9840  177.9150  134.6300 O   0  0  0  0  0  0  0  0  0  0  0  0
  185.8880  176.0670  135.9750 O   0  0  0  0  0  1  0  0  0  0  0  0
  189.9550  175.3470  137.3340 C   0  0  0  0  0  2  0  0  0  0  0  0
  194.0340  174.7890  135.2960 C   0  0  0  0  0  2  0  0  0  0  0  0
  193.3110  176.0680  135.7020 C   0  0  0  0  0  2  0  0  0  0  0  0
  191.5600  173.5890  136.7170 C   0  0  0  0  0  3  0  0  0  0  0  0
  191.4040  175.0560  136.9890 C   0  0  1  0  0  3  0  0  0  0  0  0
  191.8010  175.8740  135.7650 C   0  0  0  0  0  2  0  0  0  0  0  0
  192.7420  173.0130  136.4660 C   0  0  0  0  0  3  0  0  0  0  0  0
  194.0370  173.7730  136.4330 C   0  0  1  0  0  3  0  0  0  0  0  0
  195.1960  172.8040  136.2250 C   0  0  0  0  0  2  0  0  0  0  0  0
  195.6260  173.4690  138.5620 C   0  0  0  0  0  1  0  0  0  0  0  0
  197.4150  172.3350  137.3130 C   0  0  0  0  0  1  0  0  0  0  0  0
  195.4030  171.0780  138.0350 C   0  0  0  0  0  1  0  0  0  0  0  0
  195.9140  172.4110  137.5190 C   0  0  0  0  0  0  0  0  0  0  0  0
  1  4  1  0  0  0  0
  2  6  2  0  0  0  0
  3  5  1  0  0  0  0
  3  2  1  0  0  0  0
  5 30  1  6  0  0  0
  5  1  1  0  0  0  0
  6  4  1  0  0  0  0
  7  2  1  0  0  0  0
  8  9  1  0  0  0  0
  8  7  1  0  0  0  0
  9 10  1  0  0  0  0
 11 12  1  6  0  0  0
 11 10  1  0  0  0  0
 11 26  1  0  0  0  0
 13 25  1  0  0  0  0
 15 12  1  1  0  0  0
 16 20  1  0  0  0  0
 16 24  1  0  0  0  0
 17 18  1  0  0  0  0
 18 14  1  0  0  0  0
 18 15  1  0  0  0  0
 19 13  2  0  0  0  0
 20 21  1  0  0  0  0
 22 24  1  6  0  0  0
 22 13  1  0  0  0  0
 23 21  1  1  0  0  0
 23 22  1  0  0  0  0
 23 18  1  0  0  0  0
 25 15  1  0  0  0  0
 27 28  1  0  0  0  0
 28 26  1  0  0  0  0
 29 28  2  0  0  0  0
 31 30  1  0  0  0  0
 32 31  1  0  0  0  0
 33 32  1  0  0  0  0
 34 43  1  6  0  0  0
 34 33  1  0  0  0  0
 35 37  1  0  0  0  0
 36 40  1  6  0  0  0
 36 38  1  0  0  0  0
 37 34  1  0  0  0  0
 38 37  1  0  0  0  0
 39 36  1  0  0  0  0
 39 35  1  0  0  0  0
 40 42  1  0  0  0  0
 41 40  2  0  0  0  0
 44 45  1  0  0  0  0
 44 50  1  0  0  0  0
 45 48  1  0  0  0  0
 46 47  1  0  0  0  0
 47 43  1  6  0  0  0
 48 47  1  0  0  0  0
 49 46  2  0  0  0  0
 50 51  1  6  0  0  0
 50 49  1  0  0  0  0
 51 55  1  0  0  0  0
 53 55  1  0  0  0  0
 55 54  1  0  0  0  0
 55 52  1  0  0  0  0
M  END
>  <MODEL>
2

>  <REMARK>
 VINA RESULT:      -6.6      2.740      6.548
  Name = 
  20 active torsions:
  status: ('A' for Active; 'I' for Inactive)
    1  A    between atoms: C_2  and  C_28
    2  A    between atoms: C_2  and  C_44
    3  A    between atoms: C_6  and  C_46
    4  A    between atoms: C_8  and  C_20
    5  A    between atoms: C_8  and  C_22
    6  A    between atoms: C_10  and  C_32
    7  A    between atoms: C_17  and  C_36
    8  A    between atoms: C_19  and  C_40
    9  A    between atoms: C_19  and  C_45
   10  A    between atoms: C_22  and  C_35
   11  A    between atoms: C_22  and  C_46
   12  A    between atoms: C_27  and  O_54
   13  A    between atoms: C_28  and  C_49
   14  A    between atoms: C_33  and  C_49
   15  A    between atoms: C_33  and  C_52
   16  A    between atoms: N_34  and  C_52
   17  A    between atoms: C_35  and  C_43
   18  A    between atoms: C_36  and  C_52
   19  A    between atoms: C_43  and  C_51
   20  A    between atoms: C_51  and  O_54
                            x       y       z     vdW  Elec       q    Type
                         _______ _______ _______ _____ _____    ______ ____

>  <TORSDO>
F 20

$$$$
=
 OpenBabel10262420273D

 55 59  0  0  1  0  0  0  0  0999 V2000
  186.1100  174.1150  136.5930 C   0  0  0  0  0  2  0  0  0  0  0  0
  184.2610  176.2430  136.9110 C   0  0  0  0  0  0  0  0  0  0  0  0
  185.7090  176.6510  136.9690 C   0  0  0  0  0  2  0  0  0  0  0  0
  184.9320  173.9640  137.5420 C   0  0  0  0  0  2  0  0  0  0  0  0
  186.7250  175.5170  136.6880 C   0  0  2  0  0  3  0  0  0  0  0  0
  183.9000  174.9830  137.1840 C   0  0  0  0  0  3  0  0  0  0  0  0
  183.3110  177.2220  136.6070 O   0  0  0  0  0  0  0  0  0  0  0  0
  182.8340  178.1610  137.5640 C   0  0  0  0  0  2  0  0  0  0  0  0
  181.3490  178.3760  137.3700 C   0  0  0  0  0  2  0  0  0  0  0  0
  180.6640  178.4410  138.7240 C   0  0  0  0  0  2  0  0  0  0  0  0
  180.7620  177.1090  139.4580 C   0  0  1  0  0  3  0  0  0  0  0  0
  180.9760  177.3120  140.9580 C   0  0  0  0  0  2  0  0  0  0  0  0
  183.7250  178.8450  141.1040 C   0  0  0  0  0  0  0  0  0  0  0  0
  180.6690  178.0830  143.5410 F   0  0  0  0  0  0  0  0  0  0  0  0
  181.2750  178.7730  141.2980 C   0  0  1  0  0  3  0  0  0  0  0  0
  185.3200  179.2130  144.3450 N   0  0  0  0  0  2  0  0  0  0  0  0
  180.7480  180.2680  143.0660 F   0  0  0  0  0  0  0  0  0  0  0  0
  181.3600  179.0520  142.8270 C   0  0  0  0  0  0  0  0  0  0  0  0
  184.7370  178.9530  140.3620 O   0  0  0  0  0  0  0  0  0  0  0  0
  184.3780  178.5910  145.2720 C   0  0  0  0  0  2  0  0  0  0  0  0
  182.9350  178.8920  144.8570 C   0  0  0  0  0  2  0  0  0  0  0  0
  183.8330  178.3570  142.5140 C   0  0  2  0  0  3  0  0  0  0  0  0
  182.8120  179.1470  143.3460 C   0  0  1  0  0  3  0  0  0  0  0  0
  185.2650  178.4910  143.0700 C   0  0  0  0  0  2  0  0  0  0  0  0
  182.4620  179.1750  140.6100 O   0  0  0  0  0  0  0  0  0  0  0  0
  179.5430  176.2280  139.1640 C   0  0  0  0  0  2  0  0  0  0  0  0
  178.9320  175.1250  141.3210 O   0  0  0  0  0  1  0  0  0  0  0  0
  179.4690  175.0200  140.0450 C   0  0  0  0  0  0  0  0  0  0  0  0
  179.9210  173.9160  139.6460 O   0  0  0  0  0  0  0  0  0  0  0  0
  187.4950  175.7960  135.4090 C   0  0  0  0  0  2  0  0  0  0  0  0
  188.2990  177.0790  135.5180 C   0  0  0  0  0  2  0  0  0  0  0  0
  189.7670  176.7340  135.6560 C   0  0  0  0  0  2  0  0  0  0  0  0
  189.9210  175.2870  136.0850 C   0  0  0  0  0  2  0  0  0  0  0  0
  190.5190  175.2210  137.5000 C   0  0  1  0  0  3  0  0  0  0  0  0
  191.7210  173.4810  136.3850 C   0  0  0  0  0  2  0  0  0  0  0  0
  193.9390  174.1540  137.0270 C   0  0  1  0  0  3  0  0  0  0  0  0
  191.6210  174.2560  137.6220 N   0  0  0  0  0  0  0  0  0  0  0  0
  192.9080  174.9210  137.8240 C   0  0  0  0  0  2  0  0  0  0  0  0
  193.1530  173.5450  135.8920 C   0  0  0  0  0  2  0  0  0  0  0  0
  195.0300  175.0600  136.5360 C   0  0  0  0  0  0  0  0  0  0  0  0
  194.7680  176.3920  136.2370 O   0  0  0  0  0  0  0  0  0  0  0  0
  196.1840  174.5980  136.3320 O   0  0  0  0  0  1  0  0  0  0  0  0
  190.9720  176.5980  137.9850 C   0  0  0  0  0  2  0  0  0  0  0  0
  188.5330  178.8490  141.1610 C   0  0  0  0  0  2  0  0  0  0  0  0
  188.0960  178.2770  139.8180 C   0  0  0  0  0  2  0  0  0  0  0  0
  191.1580  177.4670  140.2780 C   0  0  0  0  0  3  0  0  0  0  0  0
  190.1940  177.0320  139.2140 C   0  0  1  0  0  3  0  0  0  0  0  0
  189.2570  178.1740  138.8370 C   0  0  0  0  0  2  0  0  0  0  0  0
  190.7760  177.8280  141.5090 C   0  0  0  0  0  3  0  0  0  0  0  0
  189.3420  177.8300  141.9570 C   0  0  1  0  0  3  0  0  0  0  0  0
  189.2670  178.1900  143.4370 C   0  0  0  0  0  2  0  0  0  0  0  0
  188.1570  177.5180  145.5350 C   0  0  0  0  0  1  0  0  0  0  0  0
  190.2030  176.3350  144.8550 C   0  0  0  0  0  1  0  0  0  0  0  0
  188.0840  175.9850  143.6160 C   0  0  0  0  0  1  0  0  0  0  0  0
  188.9390  177.0040  144.3470 C   0  0  0  0  0  0  0  0  0  0  0  0
  1  5  1  0  0  0  0
  1  4  1  0  0  0  0
  2  3  1  0  0  0  0
  2  6  2  0  0  0  0
  5 30  1  6  0  0  0
  5  3  1  0  0  0  0
  6  4  1  0  0  0  0
  7  2  1  0  0  0  0
  7  8  1  0  0  0  0
  9  8  1  0  0  0  0
  9 10  1  0  0  0  0
 11 10  1  6  0  0  0
 11 12  1  0  0  0  0
 13 22  1  0  0  0  0
 15 12  1  1  0  0  0
 15 18  1  0  0  0  0
 16 20  1  0  0  0  0
 18 17  1  0  0  0  0
 18 23  1  0  0  0  0
 18 14  1  0  0  0  0
 19 13  2  0  0  0  0
 21 20  1  0  0  0  0
 22 24  1  1  0  0  0
 22 23  1  0  0  0  0
 23 21  1  1  0  0  0
 24 16  1  0  0  0  0
 25 13  1  0  0  0  0
 25 15  1  0  0  0  0
 26 11  1  0  0  0  0
 26 28  1  0  0  0  0
 28 27  1  0  0  0  0
 29 28  2  0  0  0  0
 30 31  1  0  0  0  0
 31 32  1  0  0  0  0
 32 33  1  0  0  0  0
 34 33  1  6  0  0  0
 34 37  1  0  0  0  0
 34 43  1  0  0  0  0
 35 37  1  0  0  0  0
 36 40  1  6  0  0  0
 36 38  1  0  0  0  0
 37 38  1  0  0  0  0
 39 35  1  0  0  0  0
 39 36  1  0  0  0  0
 41 40  2  0  0  0  0
 42 40  1  0  0  0  0
 44 50  1  0  0  0  0
 45 44  1  0  0  0  0
 46 49  2  0  0  0  0
 47 43  1  6  0  0  0
 47 46  1  0  0  0  0
 48 47  1  0  0  0  0
 48 45  1  0  0  0  0
 49 50  1  0  0  0  0
 50 51  1  1  0  0  0
 51 55  1  0  0  0  0
 54 55  1  0  0  0  0
 55 53  1  0  0  0  0
 55 52  1  0  0  0  0
M  END
>  <MODEL>
3

>  <REMARK>
 VINA RESULT:      -6.5      2.672      5.669
  Name = 
  20 active torsions:
  status: ('A' for Active; 'I' for Inactive)
    1  A    between atoms: C_2  and  C_28
    2  A    between atoms: C_2  and  C_44
    3  A    between atoms: C_6  and  C_46
    4  A    between atoms: C_8  and  C_20
    5  A    between atoms: C_8  and  C_22
    6  A    between atoms: C_10  and  C_32
    7  A    between atoms: C_17  and  C_36
    8  A    between atoms: C_19  and  C_40
    9  A    between atoms: C_19  and  C_45
   10  A    between atoms: C_22  and  C_35
   11  A    between atoms: C_22  and  C_46
   12  A    between atoms: C_27  and  O_54
   13  A    between atoms: C_28  and  C_49
   14  A    between atoms: C_33  and  C_49
   15  A    between atoms: C_33  and  C_52
   16  A    between atoms: N_34  and  C_52
   17  A    between atoms: C_35  and  C_43
   18  A    between atoms: C_36  and  C_52
   19  A    between atoms: C_43  and  C_51
   20  A    between atoms: C_51  and  O_54
                            x       y       z     vdW  Elec       q    Type
                         _______ _______ _______ _____ _____    ______ ____

>  <TORSDO>
F 20

$$$$
=
 OpenBabel10262420273D

 55 59  0  0  1  0  0  0  0  0999 V2000
  189.7080  176.8080  144.1590 C   0  0  0  0  0  2  0  0  0  0  0  0
  191.4520  177.1020  141.9400 C   0  0  0  0  0  0  0  0  0  0  0  0
  190.1430  176.4260  141.6290 C   0  0  0  0  0  2  0  0  0  0  0  0
  191.1770  176.4360  144.2910 C   0  0  0  0  0  2  0  0  0  0  0  0
  189.1400  176.3600  142.8060 C   0  0  2  0  0  3  0  0  0  0  0  0
  191.9360  177.1010  143.1890 C   0  0  0  0  0  3  0  0  0  0  0  0
  192.1610  177.6870  140.8870 O   0  0  0  0  0  0  0  0  0  0  0  0
  191.9860  177.3010  139.5280 C   0  0  0  0  0  2  0  0  0  0  0  0
  193.2880  176.7520  138.9850 C   0  0  0  0  0  2  0  0  0  0  0  0
  193.1310  176.4460  137.5060 C   0  0  0  0  0  2  0  0  0  0  0  0
  192.7760  174.9820  137.2770 C   0  0  1  0  0  3  0  0  0  0  0  0
  191.4390  174.8380  136.5510 C   0  0  0  0  0  2  0  0  0  0  0  0
  188.7200  173.2540  136.3700 C   0  0  0  0  0  0  0  0  0  0  0  0
  189.8740  177.0450  136.7620 F   0  0  0  0  0  0  0  0  0  0  0  0
  190.2630  174.7780  137.5280 C   0  0  1  0  0  3  0  0  0  0  0  0
  185.7920  174.9990  135.1190 N   0  0  0  0  0  2  0  0  0  0  0  0
  188.8680  176.3480  138.6360 F   0  0  0  0  0  0  0  0  0  0  0  0
  189.2600  175.9590  137.3690 C   0  0  0  0  0  0  0  0  0  0  0  0
  188.3840  172.0690  136.1040 O   0  0  0  0  0  0  0  0  0  0  0  0
  186.2700  176.3590  134.8810 C   0  0  0  0  0  2  0  0  0  0  0  0
  187.2640  176.7790  135.9670 C   0  0  0  0  0  2  0  0  0  0  0  0
  188.1860  174.4150  135.5910 C   0  0  2  0  0  3  0  0  0  0  0  0
  187.9880  175.5720  136.5820 C   0  0  1  0  0  3  0  0  0  0  0  0
  186.8860  174.0640  134.8390 C   0  0  0  0  0  2  0  0  0  0  0  0
  189.6220  173.5070  137.4040 O   0  0  0  0  0  0  0  0  0  0  0  0
  193.9070  174.2470  136.5510 C   0  0  0  0  0  2  0  0  0  0  0  0
  196.3850  174.3380  136.8620 O   0  0  0  0  0  0  0  0  0  0  0  0
  195.1300  174.0770  137.3980 C   0  0  0  0  0  0  0  0  0  0  0  0
  195.0280  173.6670  138.5820 O   0  0  0  0  0  1  0  0  0  0  0  0
  187.9030  177.1880  142.5020 C   0  0  0  0  0  2  0  0  0  0  0  0
  188.2720  178.5200  141.8770 C   0  0  0  0  0  2  0  0  0  0  0  0
  187.4860  178.7010  140.5950 C   0  0  0  0  0  2  0  0  0  0  0  0
  186.1320  178.0300  140.7180 C   0  0  0  0  0  2  0  0  0  0  0  0
  185.0140  179.0780  140.5980 C   0  0  1  0  0  3  0  0  0  0  0  0
  184.8110  178.1850  138.3900 C   0  0  0  0  0  2  0  0  0  0  0  0
  182.7120  179.2080  137.8160 C   0  0  1  0  0  3  0  0  0  0  0  0
  184.6530  179.3880  139.2070 N   0  0  0  0  0  0  0  0  0  0  0  0
  183.2600  179.8150  139.0880 C   0  0  0  0  0  2  0  0  0  0  0  0
  183.5240  177.9510  137.6250 C   0  0  0  0  0  2  0  0  0  0  0  0
  181.2440  178.9190  137.9400 C   0  0  0  0  0  0  0  0  0  0  0  0
  180.3120  179.6490  137.2110 O   0  0  0  0  0  0  0  0  0  0  0  0
  180.8440  178.0490  138.7580 O   0  0  0  0  0  1  0  0  0  0  0  0
  183.7690  178.6690  141.3830 C   0  0  0  0  0  2  0  0  0  0  0  0
  183.8260  179.0400  145.9620 C   0  0  0  0  0  2  0  0  0  0  0  0
  182.8530  178.2970  145.0540 C   0  0  0  0  0  2  0  0  0  0  0  0
  185.1740  179.5140  143.2160 C   0  0  0  0  0  3  0  0  0  0  0  0
  184.0650  178.5640  142.8690 C   0  0  1  0  0  3  0  0  0  0  0  0
  182.8040  178.9000  143.6560 C   0  0  0  0  0  2  0  0  0  0  0  0
  185.7140  179.5910  144.4390 C   0  0  0  0  0  3  0  0  0  0  0  0
  185.2720  178.7330  145.5900 C   0  0  1  0  0  3  0  0  0  0  0  0
  186.1600  179.0000  146.8000 C   0  0  0  0  0  2  0  0  0  0  0  0
  186.9640  176.7680  146.1250 C   0  0  0  0  0  1  0  0  0  0  0  0
  187.3710  177.5170  148.4320 C   0  0  0  0  0  1  0  0  0  0  0  0
  188.6140  178.5410  146.5460 C   0  0  0  0  0  1  0  0  0  0  0  0
  187.2780  177.9710  146.9870 C   0  0  0  0  0  0  0  0  0  0  0  0
  1  4  1  0  0  0  0
  2  6  2  0  0  0  0
  3  2  1  0  0  0  0
  3  5  1  0  0  0  0
  5 30  1  6  0  0  0
  5  1  1  0  0  0  0
  6  4  1  0  0  0  0
  7  2  1  0  0  0  0
  8  7  1  0  0  0  0
  9  8  1  0  0  0  0
 10  9  1  0  0  0  0
 11 26  1  6  0  0  0
 11 10  1  0  0  0  0
 12 11  1  0  0  0  0
 13 25  1  0  0  0  0
 14 18  1  0  0  0  0
 15 12  1  6  0  0  0
 18 15  1  0  0  0  0
 18 17  1  0  0  0  0
 19 13  2  0  0  0  0
 20 16  1  0  0  0  0
 20 21  1  0  0  0  0
 22 24  1  1  0  0  0
 22 13  1  0  0  0  0
 22 23  1  0  0  0  0
 23 21  1  6  0  0  0
 23 18  1  0  0  0  0
 24 16  1  0  0  0  0
 25 15  1  0  0  0  0
 26 28  1  0  0  0  0
 27 28  2  0  0  0  0
 28 29  1  0  0  0  0
 31 30  1  0  0  0  0
 32 33  1  0  0  0  0
 32 31  1  0  0  0  0
 34 33  1  6  0  0  0
 34 43  1  0  0  0  0
 35 37  1  0  0  0  0
 36 40  1  1  0  0  0
 36 38  1  0  0  0  0
 37 34  1  0  0  0  0
 38 37  1  0  0  0  0
 39 36  1  0  0  0  0
 39 35  1  0  0  0  0
 40 42  1  0  0  0  0
 41 40  2  0  0  0  0
 45 44  1  0  0  0  0
 46 49  2  0  0  0  0
 47 43  1  6  0  0  0
 47 46  1  0  0  0  0
 47 48  1  0  0  0  0
 48 45  1  0  0  0  0
 49 50  1  0  0  0  0
 50 44  1  0  0  0  0
 50 51  1  1  0  0  0
 51 55  1  0  0  0  0
 52 55  1  0  0  0  0
 54 55  1  0  0  0  0
 55 53  1  0  0  0  0
M  END
>  <MODEL>
4

>  <REMARK>
 VINA RESULT:      -6.4      2.593      8.242
  Name = 
  20 active torsions:
  status: ('A' for Active; 'I' for Inactive)
    1  A    between atoms: C_2  and  C_28
    2  A    between atoms: C_2  and  C_44
    3  A    between atoms: C_6  and  C_46
    4  A    between atoms: C_8  and  C_20
    5  A    between atoms: C_8  and  C_22
    6  A    between atoms: C_10  and  C_32
    7  A    between atoms: C_17  and  C_36
    8  A    between atoms: C_19  and  C_40
    9  A    between atoms: C_19  and  C_45
   10  A    between atoms: C_22  and  C_35
   11  A    between atoms: C_22  and  C_46
   12  A    between atoms: C_27  and  O_54
   13  A    between atoms: C_28  and  C_49
   14  A    between atoms: C_33  and  C_49
   15  A    between atoms: C_33  and  C_52
   16  A    between atoms: N_34  and  C_52
   17  A    between atoms: C_35  and  C_43
   18  A    between atoms: C_36  and  C_52
   19  A    between atoms: C_43  and  C_51
   20  A    between atoms: C_51  and  O_54
                            x       y       z     vdW  Elec       q    Type
                         _______ _______ _______ _____ _____    ______ ____

>  <TORSDO>
F 20

$$$$
=
 OpenBabel10262420273D

 55 59  0  0  1  0  0  0  0  0999 V2000
  190.8690  176.6290  143.3130 C   0  0  0  0  0  2  0  0  0  0  0  0
  188.7530  177.8160  144.7840 C   0  0  0  0  0  0  0  0  0  0  0  0
  188.9490  178.3720  143.3980 C   0  0  0  0  0  2  0  0  0  0  0  0
  191.0930  177.0600  144.7540 C   0  0  0  0  0  2  0  0  0  0  0  0
  190.0280  177.6570  142.5480 C   0  0  2  0  0  3  0  0  0  0  0  0
  189.7620  177.2050  145.4180 C   0  0  0  0  0  3  0  0  0  0  0  0
  187.5100  177.9940  145.3970 O   0  0  0  0  0  0  0  0  0  0  0  0
  186.3050  177.4420  144.8800 C   0  0  0  0  0  2  0  0  0  0  0  0
  185.4210  178.5530  144.3560 C   0  0  0  0  0  2  0  0  0  0  0  0
  185.1420  178.3250  142.8810 C   0  0  0  0  0  2  0  0  0  0  0  0
  183.8020  178.9250  142.4710 C   0  0  1  0  0  3  0  0  0  0  0  0
  183.2210  178.2140  141.2490 C   0  0  0  0  0  2  0  0  0  0  0  0
  182.8250  180.2590  138.8840 C   0  0  0  0  0  0  0  0  0  0  0  0
  183.1530  176.3130  139.3150 F   0  0  0  0  0  0  0  0  0  0  0  0
  184.0670  178.4520  139.9970 C   0  0  1  0  0  3  0  0  0  0  0  0
  181.1810  179.0960  135.8620 N   0  0  0  0  0  2  0  0  0  0  0  0
  184.9390  177.1210  138.2340 F   0  0  0  0  0  0  0  0  0  0  0  0
  183.7430  177.4730  138.8310 C   0  0  0  0  0  0  0  0  0  0  0  0
  182.5840  181.4920  138.7890 O   0  0  0  0  0  0  0  0  0  0  0  0
  180.9290  177.6810  136.1230 C   0  0  0  0  0  2  0  0  0  0  0  0
  182.0940  177.0600  136.8980 C   0  0  0  0  0  2  0  0  0  0  0  0
  181.9380  179.2340  138.2510 C   0  0  2  0  0  3  0  0  0  0  0  0
  182.8430  178.1020  137.7440 C   0  0  1  0  0  3  0  0  0  0  0  0
  181.0670  179.8310  137.1260 C   0  0  0  0  0  2  0  0  0  0  0  0
  183.9380  179.8200  139.6030 O   0  0  0  0  0  0  0  0  0  0  0  0
  182.8220  178.9380  143.6490 C   0  0  0  0  0  2  0  0  0  0  0  0
  180.9930  180.0680  142.3770 O   0  0  0  0  0  0  0  0  0  0  0  0
  181.3920  179.0380  143.2190 C   0  0  0  0  0  0  0  0  0  0  0  0
  180.5440  178.2110  143.6420 O   0  0  0  0  0  1  0  0  0  0  0  0
  189.3950  176.9710  141.3500 C   0  0  0  0  0  2  0  0  0  0  0  0
  190.2150  177.1910  140.0920 C   0  0  0  0  0  2  0  0  0  0  0  0
  189.3350  176.9610  138.8810 C   0  0  0  0  0  2  0  0  0  0  0  0
  190.1920  176.6420  137.6710 C   0  0  0  0  0  2  0  0  0  0  0  0
  189.3570  175.8930  136.6200 C   0  0  1  0  0  3  0  0  0  0  0  0
  190.9170  176.4250  134.8890 C   0  0  0  0  0  2  0  0  0  0  0  0
  192.4030  174.5610  135.2060 C   0  0  1  0  0  3  0  0  0  0  0  0
  190.1610  175.3430  135.5200 N   0  0  0  0  0  0  0  0  0  0  0  0
  191.1290  174.3550  135.9950 C   0  0  0  0  0  2  0  0  0  0  0  0
  192.3770  176.0230  134.8350 C   0  0  0  0  0  2  0  0  0  0  0  0
  193.6110  174.2060  136.0230 C   0  0  0  0  0  0  0  0  0  0  0  0
  193.4750  173.6800  137.3030 O   0  0  0  0  0  1  0  0  0  0  0  0
  194.7630  174.4440  135.5740 O   0  0  0  0  0  0  0  0  0  0  0  0
  188.5120  174.7880  137.2550 C   0  0  0  0  0  2  0  0  0  0  0  0
  184.5070  175.2620  135.0540 C   0  0  0  0  0  2  0  0  0  0  0  0
  185.9210  175.5980  134.5940 C   0  0  0  0  0  2  0  0  0  0  0  0
  186.1310  174.2130  137.4720 C   0  0  0  0  0  3  0  0  0  0  0  0
  187.2110  174.5870  136.4990 C   0  0  1  0  0  3  0  0  0  0  0  0
  186.8520  175.8750  135.7670 C   0  0  0  0  0  2  0  0  0  0  0  0
  184.8870  173.8910  137.0960 C   0  0  0  0  0  3  0  0  0  0  0  0
  184.4430  173.8650  135.6610 C   0  0  1  0  0  3  0  0  0  0  0  0
  183.0070  173.3570  135.5780 C   0  0  0  0  0  2  0  0  0  0  0  0
  184.0790  171.3390  134.6490 C   0  0  0  0  0  1  0  0  0  0  0  0
  181.6230  171.4390  134.7220 C   0  0  0  0  0  1  0  0  0  0  0  0
  182.9280  171.1750  136.8150 C   0  0  0  0  0  1  0  0  0  0  0  0
  182.8940  171.8360  135.4480 C   0  0  0  0  0  0  0  0  0  0  0  0
  1  4  1  0  0  0  0
  2  7  1  0  0  0  0
  2  6  2  0  0  0  0
  3  2  1  0  0  0  0
  4  6  1  0  0  0  0
  5 30  1  6  0  0  0
  5  1  1  0  0  0  0
  5  3  1  0  0  0  0
  8  7  1  0  0  0  0
  9  8  1  0  0  0  0
 10  9  1  0  0  0  0
 11 12  1  6  0  0  0
 11 10  1  0  0  0  0
 11 26  1  0  0  0  0
 13 25  1  0  0  0  0
 15 12  1  1  0  0  0
 16 20  1  0  0  0  0
 16 24  1  0  0  0  0
 17 18  1  0  0  0  0
 18 14  1  0  0  0  0
 18 15  1  0  0  0  0
 19 13  2  0  0  0  0
 20 21  1  0  0  0  0
 22 24  1  6  0  0  0
 22 13  1  0  0  0  0
 23 21  1  1  0  0  0
 23 22  1  0  0  0  0
 23 18  1  0  0  0  0
 25 15  1  0  0  0  0
 27 28  2  0  0  0  0
 28 29  1  0  0  0  0
 28 26  1  0  0  0  0
 31 30  1  0  0  0  0
 32 31  1  0  0  0  0
 33 32  1  0  0  0  0
 34 43  1  1  0  0  0
 34 33  1  0  0  0  0
 35 37  1  0  0  0  0
 36 38  1  0  0  0  0
 36 40  1  1  0  0  0
 37 38  1  0  0  0  0
 37 34  1  0  0  0  0
 39 35  1  0  0  0  0
 39 36  1  0  0  0  0
 40 41  1  0  0  0  0
 42 40  2  0  0  0  0
 44 50  1  0  0  0  0
 45 44  1  0  0  0  0
 45 48  1  0  0  0  0
 47 43  1  1  0  0  0
 47 46  1  0  0  0  0
 48 47  1  0  0  0  0
 49 46  2  0  0  0  0
 50 51  1  1  0  0  0
 50 49  1  0  0  0  0
 52 55  1  0  0  0  0
 53 55  1  0  0  0  0
 55 51  1  0  0  0  0
 55 54  1  0  0  0  0
M  END
>  <MODEL>
5

>  <REMARK>
 VINA RESULT:      -6.1      2.379      7.168
  Name = 
  20 active torsions:
  status: ('A' for Active; 'I' for Inactive)
    1  A    between atoms: C_2  and  C_28
    2  A    between atoms: C_2  and  C_44
    3  A    between atoms: C_6  and  C_46
    4  A    between atoms: C_8  and  C_20
    5  A    between atoms: C_8  and  C_22
    6  A    between atoms: C_10  and  C_32
    7  A    between atoms: C_17  and  C_36
    8  A    between atoms: C_19  and  C_40
    9  A    between atoms: C_19  and  C_45
   10  A    between atoms: C_22  and  C_35
   11  A    between atoms: C_22  and  C_46
   12  A    between atoms: C_27  and  O_54
   13  A    between atoms: C_28  and  C_49
   14  A    between atoms: C_33  and  C_49
   15  A    between atoms: C_33  and  C_52
   16  A    between atoms: N_34  and  C_52
   17  A    between atoms: C_35  and  C_43
   18  A    between atoms: C_36  and  C_52
   19  A    between atoms: C_43  and  C_51
   20  A    between atoms: C_51  and  O_54
                            x       y       z     vdW  Elec       q    Type
                         _______ _______ _______ _____ _____    ______ ____

>  <TORSDO>
F 20

$$$$
=
 OpenBabel10262420273D

 55 59  0  0  1  0  0  0  0  0999 V2000
  191.8270  175.9680  143.8670 C   0  0  0  0  0  2  0  0  0  0  0  0
  190.0950  177.6530  145.3530 C   0  0  0  0  0  0  0  0  0  0  0  0
  190.6870  178.2850  144.1210 C   0  0  0  0  0  2  0  0  0  0  0  0
  191.9730  176.0670  145.3770 C   0  0  0  0  0  2  0  0  0  0  0  0
  191.5450  177.3410  143.2440 C   0  0  2  0  0  3  0  0  0  0  0  0
  190.7030  176.6160  145.9420 C   0  0  0  0  0  3  0  0  0  0  0  0
  188.9260  178.2070  145.8830 O   0  0  0  0  0  0  0  0  0  0  0  0
  187.6420  177.6210  145.7030 C   0  0  0  0  0  2  0  0  0  0  0  0
  187.3390  177.5030  144.2250 C   0  0  0  0  0  2  0  0  0  0  0  0
  185.8350  177.5190  144.0120 C   0  0  0  0  0  2  0  0  0  0  0  0
  185.2810  178.9370  144.0840 C   0  0  1  0  0  3  0  0  0  0  0  0
  184.7950  179.4170  142.7160 C   0  0  0  0  0  2  0  0  0  0  0  0
  184.5340  179.0970  139.5920 C   0  0  0  0  0  0  0  0  0  0  0  0
  182.1000  179.1020  142.7450 F   0  0  0  0  0  0  0  0  0  0  0  0
  184.2100  178.2730  141.8860 C   0  0  1  0  0  3  0  0  0  0  0  0
  181.3820  179.9940  138.0290 N   0  0  0  0  0  2  0  0  0  0  0  0
  182.1680  177.0620  141.8280 F   0  0  0  0  0  0  0  0  0  0  0  0
  182.6630  178.3480  141.7250 C   0  0  0  0  0  0  0  0  0  0  0  0
  185.3030  179.2390  138.6040 O   0  0  0  0  0  0  0  0  0  0  0  0
  180.5310  180.3800  139.1510 C   0  0  0  0  0  2  0  0  0  0  0  0
  180.7960  179.4810  140.3630 C   0  0  0  0  0  2  0  0  0  0  0  0
  183.2470  179.8520  139.7020 C   0  0  2  0  0  3  0  0  0  0  0  0
  182.2240  178.9120  140.3550 C   0  0  1  0  0  3  0  0  0  0  0  0
  182.7630  180.3800  138.3350 C   0  0  0  0  0  2  0  0  0  0  0  0
  184.8820  178.2250  140.6250 O   0  0  0  0  0  0  0  0  0  0  0  0
  184.1900  179.0470  145.1540 C   0  0  0  0  0  2  0  0  0  0  0  0
  185.6790  179.7290  147.0400 O   0  0  0  0  0  0  0  0  0  0  0  0
  184.7140  178.8630  146.5440 C   0  0  0  0  0  0  0  0  0  0  0  0
  184.3060  177.9080  147.2530 O   0  0  0  0  0  1  0  0  0  0  0  0
  190.8930  177.1340  141.8880 C   0  0  0  0  0  2  0  0  0  0  0  0
  191.8390  177.5040  140.7600 C   0  0  0  0  0  2  0  0  0  0  0  0
  191.2310  177.0720  139.4420 C   0  0  0  0  0  2  0  0  0  0  0  0
  192.3260  176.6760  138.4700 C   0  0  0  0  0  2  0  0  0  0  0  0
  191.7190  175.9270  137.2730 C   0  0  1  0  0  3  0  0  0  0  0  0
  194.0140  175.9810  136.6060 C   0  0  0  0  0  2  0  0  0  0  0  0
  194.3970  173.6070  136.5660 C   0  0  1  0  0  3  0  0  0  0  0  0
  192.7280  175.3160  136.3960 N   0  0  0  0  0  0  0  0  0  0  0  0
  192.9180  173.8960  136.6920 C   0  0  0  0  0  2  0  0  0  0  0  0
  195.0610  174.9220  136.8880 C   0  0  0  0  0  2  0  0  0  0  0  0
  194.8190  172.5160  137.5060 C   0  0  0  0  0  0  0  0  0  0  0  0
  195.4410  172.8170  138.7120 O   0  0  0  0  0  1  0  0  0  0  0  0
  194.6660  171.3100  137.1760 O   0  0  0  0  0  0  0  0  0  0  0  0
  190.7070  174.8740  137.7210 C   0  0  0  0  0  2  0  0  0  0  0  0
  187.2030  175.9310  134.9450 C   0  0  0  0  0  2  0  0  0  0  0  0
  188.1880  174.7710  134.8770 C   0  0  0  0  0  2  0  0  0  0  0  0
  188.8010  176.4180  137.5510 C   0  0  0  0  0  3  0  0  0  0  0  0
  189.3510  175.1040  137.0790 C   0  0  1  0  0  3  0  0  0  0  0  0
  189.5070  175.1010  135.5630 C   0  0  0  0  0  2  0  0  0  0  0  0
  187.5810  176.8610  137.2230 C   0  0  0  0  0  3  0  0  0  0  0  0
  186.6330  176.0880  136.3510 C   0  0  1  0  0  3  0  0  0  0  0  0
  185.3000  176.8250  136.2630 C   0  0  0  0  0  2  0  0  0  0  0  0
  183.0200  176.7080  137.1960 C   0  0  0  0  0  1  0  0  0  0  0  0
  184.4290  174.6940  137.2770 C   0  0  0  0  0  1  0  0  0  0  0  0
  183.5090  175.4920  135.1170 C   0  0  0  0  0  1  0  0  0  0  0  0
  184.0800  175.9210  136.4560 C   0  0  0  0  0  0  0  0  0  0  0  0
  1  4  1  0  0  0  0
  2  7  1  0  0  0  0
  2  6  2  0  0  0  0
  3  2  1  0  0  0  0
  4  6  1  0  0  0  0
  5 30  1  6  0  0  0
  5  1  1  0  0  0  0
  5  3  1  0  0  0  0
  8  7  1  0  0  0  0
  9  8  1  0  0  0  0
 10 11  1  0  0  0  0
 10  9  1  0  0  0  0
 11 12  1  6  0  0  0
 11 26  1  0  0  0  0
 13 22  1  0  0  0  0
 13 25  1  0  0  0  0
 15 12  1  6  0  0  0
 16 24  1  0  0  0  0
 16 20  1  0  0  0  0
 18 17  1  0  0  0  0
 18 15  1  0  0  0  0
 18 14  1  0  0  0  0
 19 13  2  0  0  0  0
 20 21  1  0  0  0  0
 22 24  1  6  0  0  0
 22 23  1  0  0  0  0
 23 21  1  1  0  0  0
 23 18  1  0  0  0  0
 25 15  1  0  0  0  0
 26 28  1  0  0  0  0
 28 27  2  0  0  0  0
 28 29  1  0  0  0  0
 31 30  1  0  0  0  0
 32 31  1  0  0  0  0
 33 32  1  0  0  0  0
 34 43  1  1  0  0  0
 34 33  1  0  0  0  0
 35 39  1  0  0  0  0
 36 38  1  0  0  0  0
 36 39  1  0  0  0  0
 36 40  1  1  0  0  0
 37 35  1  0  0  0  0
 37 38  1  0  0  0  0
 37 34  1  0  0  0  0
 40 41  1  0  0  0  0
 42 40  2  0  0  0  0
 44 50  1  0  0  0  0
 45 44  1  0  0  0  0
 45 48  1  0  0  0  0
 47 46  1  0  0  0  0
 47 43  1  1  0  0  0
 48 47  1  0  0  0  0
 49 46  2  0  0  0  0
 50 51  1  6  0  0  0
 50 49  1  0  0  0  0
 51 55  1  0  0  0  0
 54 55  1  0  0  0  0
 55 52  1  0  0  0  0
 55 53  1  0  0  0  0
M  END
>  <MODEL>
6

>  <REMARK>
 VINA RESULT:      -6.0      2.771      7.435
  Name = 
  20 active torsions:
  status: ('A' for Active; 'I' for Inactive)
    1  A    between atoms: C_2  and  C_28
    2  A    between atoms: C_2  and  C_44
    3  A    between atoms: C_6  and  C_46
    4  A    between atoms: C_8  and  C_20
    5  A    between atoms: C_8  and  C_22
    6  A    between atoms: C_10  and  C_32
    7  A    between atoms: C_17  and  C_36
    8  A    between atoms: C_19  and  C_40
    9  A    between atoms: C_19  and  C_45
   10  A    between atoms: C_22  and  C_35
   11  A    between atoms: C_22  and  C_46
   12  A    between atoms: C_27  and  O_54
   13  A    between atoms: C_28  and  C_49
   14  A    between atoms: C_33  and  C_49
   15  A    between atoms: C_33  and  C_52
   16  A    between atoms: N_34  and  C_52
   17  A    between atoms: C_35  and  C_43
   18  A    between atoms: C_36  and  C_52
   19  A    between atoms: C_43  and  C_51
   20  A    between atoms: C_51  and  O_54
                            x       y       z     vdW  Elec       q    Type
                         _______ _______ _______ _____ _____    ______ ____

>  <TORSDO>
F 20

$$$$
=
 OpenBabel10262420273D

 55 59  0  0  1  0  0  0  0  0999 V2000
  181.1280  178.6620  139.9860 C   0  0  0  0  0  2  0  0  0  0  0  0
  182.6120  178.8910  142.3930 C   0  0  0  0  0  0  0  0  0  0  0  0
  183.3330  178.1930  141.2700 C   0  0  0  0  0  2  0  0  0  0  0  0
  180.4800  178.3080  141.3160 C   0  0  0  0  0  2  0  0  0  0  0  0
  182.5760  178.1600  139.9210 C   0  0  2  0  0  3  0  0  0  0  0  0
  181.2740  178.9390  142.4130 C   0  0  0  0  0  3  0  0  0  0  0  0
  183.3740  179.4440  143.4260 O   0  0  0  0  0  0  0  0  0  0  0  0
  183.5940  178.7820  144.6660 C   0  0  0  0  0  2  0  0  0  0  0  0
  184.9830  179.1040  145.1740 C   0  0  0  0  0  2  0  0  0  0  0  0
  185.1880  178.4570  146.5330 C   0  0  0  0  0  2  0  0  0  0  0  0
  186.6410  178.0440  146.7360 C   0  0  1  0  0  3  0  0  0  0  0  0
  187.4470  178.1840  145.4460 C   0  0  0  0  0  2  0  0  0  0  0  0
  190.4480  177.3820  144.9130 C   0  0  0  0  0  0  0  0  0  0  0  0
  187.0240  177.4140  142.8790 F   0  0  0  0  0  0  0  0  0  0  0  0
  188.0490  176.8500  145.0020 C   0  0  1  0  0  3  0  0  0  0  0  0
  191.6760  177.4870  141.4970 N   0  0  0  0  0  2  0  0  0  0  0  0
  187.6900  175.3070  143.2330 F   0  0  0  0  0  0  0  0  0  0  0  0
  188.0120  176.6320  143.4610 C   0  0  0  0  0  0  0  0  0  0  0  0
  191.5390  177.5140  145.5290 O   0  0  0  0  0  0  0  0  0  0  0  0
  190.5050  177.8750  140.7160 C   0  0  0  0  0  2  0  0  0  0  0  0
  189.2410  177.2180  141.2760 C   0  0  0  0  0  2  0  0  0  0  0  0
  190.2610  177.9110  143.5250 C   0  0  2  0  0  3  0  0  0  0  0  0
  189.3690  176.9100  142.7760 C   0  0  1  0  0  3  0  0  0  0  0  0
  191.6040  178.1470  142.8050 C   0  0  0  0  0  2  0  0  0  0  0  0
  189.3730  176.7410  145.5290 O   0  0  0  0  0  0  0  0  0  0  0  0
  187.2740  178.8150  147.8990 C   0  0  0  0  0  2  0  0  0  0  0  0
  189.6300  178.3600  148.5970 O   0  0  0  0  0  0  0  0  0  0  0  0
  188.2870  178.0090  148.6510 C   0  0  0  0  0  0  0  0  0  0  0  0
  187.9310  176.9960  149.3060 O   0  0  0  0  0  1  0  0  0  0  0  0
  183.3210  178.9650  138.8700 C   0  0  0  0  0  2  0  0  0  0  0  0
  184.8060  178.6560  138.8890 C   0  0  0  0  0  2  0  0  0  0  0  0
  185.1940  178.0100  137.5750 C   0  0  0  0  0  2  0  0  0  0  0  0
  186.5950  177.4370  137.6730 C   0  0  0  0  0  2  0  0  0  0  0  0
  186.7800  176.3250  136.6280 C   0  0  1  0  0  3  0  0  0  0  0  0
  188.6670  177.7230  136.1800 C   0  0  0  0  0  2  0  0  0  0  0  0
  190.3610  176.0180  136.2610 C   0  0  1  0  0  3  0  0  0  0  0  0
  188.0360  176.4390  135.8730 N   0  0  0  0  0  0  0  0  0  0  0  0
  188.9860  175.3890  136.2350 C   0  0  0  0  0  2  0  0  0  0  0  0
  190.1010  177.4650  136.5980 C   0  0  0  0  0  2  0  0  0  0  0  0
  191.2450  175.3520  137.2740 C   0  0  0  0  0  0  0  0  0  0  0  0
  190.8470  175.2420  138.6020 O   0  0  0  0  0  1  0  0  0  0  0  0
  192.3860  174.9410  136.9370 O   0  0  0  0  0  0  0  0  0  0  0  0
  186.6710  174.9370  137.2560 C   0  0  0  0  0  2  0  0  0  0  0  0
  182.8720  173.2560  135.2930 C   0  0  0  0  0  2  0  0  0  0  0  0
  183.8420  174.3200  134.7930 C   0  0  0  0  0  2  0  0  0  0  0  0
  184.9970  173.1590  137.5420 C   0  0  0  0  0  3  0  0  0  0  0  0
  185.6230  174.0940  136.5500 C   0  0  1  0  0  3  0  0  0  0  0  0
  184.5710  175.0110  135.9380 C   0  0  0  0  0  2  0  0  0  0  0  0
  184.0940  172.2300  137.2030 C   0  0  0  0  0  3  0  0  0  0  0  0
  183.6170  172.0230  135.7930 C   0  0  1  0  0  3  0  0  0  0  0  0
  182.6760  170.8240  135.7400 C   0  0  0  0  0  2  0  0  0  0  0  0
  180.3740  169.9510  135.5880 C   0  0  0  0  0  1  0  0  0  0  0  0
  180.8150  172.2450  134.8210 C   0  0  0  0  0  1  0  0  0  0  0  0
  180.8660  171.7020  137.2410 C   0  0  0  0  0  1  0  0  0  0  0  0
  181.1940  171.1950  135.8480 C   0  0  0  0  0  0  0  0  0  0  0  0
  1  4  1  0  0  0  0
  2  6  2  0  0  0  0
  2  7  1  0  0  0  0
  3  2  1  0  0  0  0
  4  6  1  0  0  0  0
  5 30  1  6  0  0  0
  5  1  1  0  0  0  0
  5  3  1  0  0  0  0
  7  8  1  0  0  0  0
  8  9  1  0  0  0  0
  9 10  1  0  0  0  0
 10 11  1  0  0  0  0
 11 12  1  6  0  0  0
 11 26  1  0  0  0  0
 13 25  1  0  0  0  0
 13 19  2  0  0  0  0
 14 18  1  0  0  0  0
 15 12  1  6  0  0  0
 15 25  1  0  0  0  0
 16 24  1  0  0  0  0
 17 18  1  0  0  0  0
 18 15  1  0  0  0  0
 20 21  1  0  0  0  0
 20 16  1  0  0  0  0
 22 24  1  6  0  0  0
 22 13  1  0  0  0  0
 23 21  1  6  0  0  0
 23 18  1  0  0  0  0
 23 22  1  0  0  0  0
 26 28  1  0  0  0  0
 27 28  2  0  0  0  0
 28 29  1  0  0  0  0
 30 31  1  0  0  0  0
 32 33  1  0  0  0  0
 32 31  1  0  0  0  0
 34 43  1  1  0  0  0
 34 33  1  0  0  0  0
 35 39  1  0  0  0  0
 36 39  1  0  0  0  0
 36 40  1  1  0  0  0
 37 35  1  0  0  0  0
 37 38  1  0  0  0  0
 37 34  1  0  0  0  0
 38 36  1  0  0  0  0
 40 41  1  0  0  0  0
 42 40  2  0  0  0  0
 44 50  1  0  0  0  0
 45 44  1  0  0  0  0
 45 48  1  0  0  0  0
 47 43  1  1  0  0  0
 47 46  1  0  0  0  0
 48 47  1  0  0  0  0
 49 46  2  0  0  0  0
 50 51  1  1  0  0  0
 50 49  1  0  0  0  0
 51 55  1  0  0  0  0
 52 55  1  0  0  0  0
 53 55  1  0  0  0  0
 55 54  1  0  0  0  0
M  END
>  <MODEL>
7

>  <REMARK>
 VINA RESULT:      -6.0      3.427      8.886
  Name = 
  20 active torsions:
  status: ('A' for Active; 'I' for Inactive)
    1  A    between atoms: C_2  and  C_28
    2  A    between atoms: C_2  and  C_44
    3  A    between atoms: C_6  and  C_46
    4  A    between atoms: C_8  and  C_20
    5  A    between atoms: C_8  and  C_22
    6  A    between atoms: C_10  and  C_32
    7  A    between atoms: C_17  and  C_36
    8  A    between atoms: C_19  and  C_40
    9  A    between atoms: C_19  and  C_45
   10  A    between atoms: C_22  and  C_35
   11  A    between atoms: C_22  and  C_46
   12  A    between atoms: C_27  and  O_54
   13  A    between atoms: C_28  and  C_49
   14  A    between atoms: C_33  and  C_49
   15  A    between atoms: C_33  and  C_52
   16  A    between atoms: N_34  and  C_52
   17  A    between atoms: C_35  and  C_43
   18  A    between atoms: C_36  and  C_52
   19  A    between atoms: C_43  and  C_51
   20  A    between atoms: C_51  and  O_54
                            x       y       z     vdW  Elec       q    Type
                         _______ _______ _______ _____ _____    ______ ____

>  <TORSDO>
F 20

$$$$
=
 OpenBabel10262420273D

 55 59  0  0  1  0  0  0  0  0999 V2000
  189.8730  177.1670  144.5530 C   0  0  0  0  0  2  0  0  0  0  0  0
  187.1400  177.9250  144.6300 C   0  0  0  0  0  0  0  0  0  0  0  0
  187.8740  178.3350  143.3800 C   0  0  0  0  0  2  0  0  0  0  0  0
  189.2990  177.8190  145.8010 C   0  0  0  0  0  2  0  0  0  0  0  0
  189.3340  177.8310  143.2800 C   0  0  2  0  0  3  0  0  0  0  0  0
  187.8110  177.6880  145.7640 C   0  0  0  0  0  3  0  0  0  0  0  0
  185.7460  177.8430  144.5790 O   0  0  0  0  0  0  0  0  0  0  0  0
  184.8910  178.8320  145.1410 C   0  0  0  0  0  2  0  0  0  0  0  0
  184.2080  179.6030  144.0320 C   0  0  0  0  0  2  0  0  0  0  0  0
  183.6420  178.6300  143.0120 C   0  0  0  0  0  2  0  0  0  0  0  0
  182.2140  178.9990  142.6280 C   0  0  1  0  0  3  0  0  0  0  0  0
  181.9160  178.6390  141.1730 C   0  0  0  0  0  2  0  0  0  0  0  0
  181.9920  180.0120  138.3370 C   0  0  0  0  0  0  0  0  0  0  0  0
  183.1180  176.5430  139.9380 F   0  0  0  0  0  0  0  0  0  0  0  0
  183.1010  178.9460  140.2560 C   0  0  1  0  0  3  0  0  0  0  0  0
  182.0550  177.8820  135.3970 N   0  0  0  0  0  2  0  0  0  0  0  0
  184.9150  177.7280  139.3270 F   0  0  0  0  0  0  0  0  0  0  0  0
  183.5340  177.7400  139.3720 C   0  0  0  0  0  0  0  0  0  0  0  0
  181.5020  181.0540  137.8270 O   0  0  0  0  0  0  0  0  0  0  0  0
  182.0910  176.5290  135.9450 C   0  0  0  0  0  2  0  0  0  0  0  0
  182.9640  176.4790  137.2020 C   0  0  0  0  0  2  0  0  0  0  0  0
  181.7280  178.6560  137.7610 C   0  0  2  0  0  3  0  0  0  0  0  0
  183.0170  177.8370  137.9190 C   0  0  1  0  0  3  0  0  0  0  0  0
  181.2600  178.7280  136.2930 C   0  0  0  0  0  2  0  0  0  0  0  0
  182.7950  180.1040  139.4750 O   0  0  0  0  0  0  0  0  0  0  0  0
  181.2050  178.3710  143.5950 C   0  0  0  0  0  2  0  0  0  0  0  0
  179.3850  180.0830  143.6460 O   0  0  0  0  0  1  0  0  0  0  0  0
  179.7940  178.7960  143.3240 C   0  0  0  0  0  0  0  0  0  0  0  0
  178.9710  177.9800  142.8360 O   0  0  0  0  0  0  0  0  0  0  0  0
  189.4850  176.8570  142.1240 C   0  0  0  0  0  2  0  0  0  0  0  0
  189.0310  177.4780  140.8170 C   0  0  0  0  0  2  0  0  0  0  0  0
  189.9700  177.0450  139.7100 C   0  0  0  0  0  2  0  0  0  0  0  0
  189.5890  177.7270  138.4100 C   0  0  0  0  0  2  0  0  0  0  0  0
  189.2230  176.6730  137.3530 C   0  0  1  0  0  3  0  0  0  0  0  0
  187.6290  176.5810  135.5740 C   0  0  0  0  0  2  0  0  0  0  0  0
  186.1240  174.9900  136.5680 C   0  0  1  0  0  3  0  0  0  0  0  0
  187.7910  176.6480  137.0260 N   0  0  0  0  0  0  0  0  0  0  0  0
  187.1240  175.4760  137.5930 C   0  0  0  0  0  2  0  0  0  0  0  0
  186.7080  175.4230  135.2460 C   0  0  0  0  0  2  0  0  0  0  0  0
  185.9450  173.5030  136.6460 C   0  0  0  0  0  0  0  0  0  0  0  0
  185.8950  172.8560  137.8760 O   0  0  0  0  0  1  0  0  0  0  0  0
  185.8990  172.8200  135.5890 O   0  0  0  0  0  0  0  0  0  0  0  0
  190.0480  176.8440  136.0770 C   0  0  0  0  0  2  0  0  0  0  0  0
  192.3460  172.8910  135.6320 C   0  0  0  0  0  2  0  0  0  0  0  0
  191.5560  173.6840  134.5980 C   0  0  0  0  0  2  0  0  0  0  0  0
  191.5790  175.3720  137.3170 C   0  0  0  0  0  3  0  0  0  0  0  0
  191.0950  175.7520  135.9480 C   0  0  1  0  0  3  0  0  0  0  0  0
  190.4810  174.5490  135.2420 C   0  0  0  0  0  2  0  0  0  0  0  0
  192.5660  174.4910  137.5250 C   0  0  0  0  0  3  0  0  0  0  0  0
  193.2950  173.7950  136.4120 C   0  0  1  0  0  3  0  0  0  0  0  0
  194.4220  172.9440  136.9900 C   0  0  0  0  0  2  0  0  0  0  0  0
  196.7770  172.3770  136.5240 C   0  0  0  0  0  1  0  0  0  0  0  0
  196.2950  174.3160  137.9570 C   0  0  0  0  0  1  0  0  0  0  0  0
  195.8320  174.4130  135.5230 C   0  0  0  0  0  1  0  0  0  0  0  0
  195.8190  173.5250  136.7540 C   0  0  0  0  0  0  0  0  0  0  0  0
  1  4  1  0  0  0  0
  2  6  2  0  0  0  0
  3  2  1  0  0  0  0
  5 30  1  6  0  0  0
  5  3  1  0  0  0  0
  5  1  1  0  0  0  0
  6  4  1  0  0  0  0
  7  2  1  0  0  0  0
  7  8  1  0  0  0  0
  9  8  1  0  0  0  0
 10  9  1  0  0  0  0
 11 12  1  6  0  0  0
 11 10  1  0  0  0  0
 11 26  1  0  0  0  0
 13 25  1  0  0  0  0
 15 12  1  6  0  0  0
 16 20  1  0  0  0  0
 16 24  1  0  0  0  0
 17 18  1  0  0  0  0
 18 14  1  0  0  0  0
 18 15  1  0  0  0  0
 19 13  2  0  0  0  0
 20 21  1  0  0  0  0
 22 24  1  6  0  0  0
 22 23  1  0  0  0  0
 22 13  1  0  0  0  0
 23 21  1  1  0  0  0
 23 18  1  0  0  0  0
 25 15  1  0  0  0  0
 28 26  1  0  0  0  0
 28 27  1  0  0  0  0
 29 28  2  0  0  0  0
 31 30  1  0  0  0  0
 32 31  1  0  0  0  0
 33 32  1  0  0  0  0
 34 43  1  6  0  0  0
 34 33  1  0  0  0  0
 35 37  1  0  0  0  0
 36 40  1  6  0  0  0
 36 38  1  0  0  0  0
 37 34  1  0  0  0  0
 37 38  1  0  0  0  0
 39 35  1  0  0  0  0
 39 36  1  0  0  0  0
 40 41  1  0  0  0  0
 42 40  2  0  0  0  0
 44 50  1  0  0  0  0
 45 48  1  0  0  0  0
 45 44  1  0  0  0  0
 46 49  2  0  0  0  0
 47 43  1  1  0  0  0
 47 46  1  0  0  0  0
 48 47  1  0  0  0  0
 50 51  1  1  0  0  0
 50 49  1  0  0  0  0
 52 55  1  0  0  0  0
 54 55  1  0  0  0  0
 55 51  1  0  0  0  0
 55 53  1  0  0  0  0
M  END
>  <MODEL>
8

>  <REMARK>
 VINA RESULT:      -5.9      2.543      6.510
  Name = 
  20 active torsions:
  status: ('A' for Active; 'I' for Inactive)
    1  A    between atoms: C_2  and  C_28
    2  A    between atoms: C_2  and  C_44
    3  A    between atoms: C_6  and  C_46
    4  A    between atoms: C_8  and  C_20
    5  A    between atoms: C_8  and  C_22
    6  A    between atoms: C_10  and  C_32
    7  A    between atoms: C_17  and  C_36
    8  A    between atoms: C_19  and  C_40
    9  A    between atoms: C_19  and  C_45
   10  A    between atoms: C_22  and  C_35
   11  A    between atoms: C_22  and  C_46
   12  A    between atoms: C_27  and  O_54
   13  A    between atoms: C_28  and  C_49
   14  A    between atoms: C_33  and  C_49
   15  A    between atoms: C_33  and  C_52
   16  A    between atoms: N_34  and  C_52
   17  A    between atoms: C_35  and  C_43
   18  A    between atoms: C_36  and  C_52
   19  A    between atoms: C_43  and  C_51
   20  A    between atoms: C_51  and  O_54
                            x       y       z     vdW  Elec       q    Type
                         _______ _______ _______ _____ _____    ______ ____

>  <TORSDO>
F 20

$$$$
=
 OpenBabel10262420273D

 55 59  0  0  1  0  0  0  0  0999 V2000
  189.4990  176.8980  144.3600 C   0  0  0  0  0  2  0  0  0  0  0  0
  186.9170  177.7650  143.5690 C   0  0  0  0  0  0  0  0  0  0  0  0
  188.0330  178.1860  142.6500 C   0  0  0  0  0  2  0  0  0  0  0  0
  188.5640  177.5320  145.3780 C   0  0  0  0  0  2  0  0  0  0  0  0
  189.4300  177.6260  143.0120 C   0  0  2  0  0  3  0  0  0  0  0  0
  187.1690  177.4640  144.8490 C   0  0  0  0  0  3  0  0  0  0  0  0
  185.6150  177.7420  143.0600 O   0  0  0  0  0  0  0  0  0  0  0  0
  184.9930  178.8800  142.4740 C   0  0  0  0  0  2  0  0  0  0  0  0
  183.8080  178.4390  141.6420 C   0  0  0  0  0  2  0  0  0  0  0  0
  182.5300  178.6240  142.4400 C   0  0  0  0  0  2  0  0  0  0  0  0
  181.3030  178.5940  141.5370 C   0  0  1  0  0  3  0  0  0  0  0  0
  181.4390  177.5340  140.4450 C   0  0  0  0  0  2  0  0  0  0  0  0
  180.0050  174.9020  139.4680 C   0  0  0  0  0  0  0  0  0  0  0  0
  181.4420  178.2320  137.8230 F   0  0  0  0  0  0  0  0  0  0  0  0
  180.1360  177.3500  139.6640 C   0  0  1  0  0  3  0  0  0  0  0  0
  180.5800  173.7940  136.0580 N   0  0  0  0  0  2  0  0  0  0  0  0
  179.2120  178.1840  137.6420 F   0  0  0  0  0  0  0  0  0  0  0  0
  180.3070  177.4920  138.1230 C   0  0  0  0  0  0  0  0  0  0  0  0
  179.6880  173.8020  139.9930 O   0  0  0  0  0  0  0  0  0  0  0  0
  181.4440  174.8280  135.4950 C   0  0  0  0  0  2  0  0  0  0  0  0
  181.0390  176.2110  136.0140 C   0  0  0  0  0  2  0  0  0  0  0  0
  180.8780  174.9710  138.2540 C   0  0  2  0  0  3  0  0  0  0  0  0
  180.3620  176.1330  137.3920 C   0  0  1  0  0  3  0  0  0  0  0  0
  180.9060  173.6380  137.4800 C   0  0  0  0  0  2  0  0  0  0  0  0
  179.5510  176.0970  140.0280 O   0  0  0  0  0  0  0  0  0  0  0  0
  180.0210  178.4170  142.3560 C   0  0  0  0  0  2  0  0  0  0  0  0
  179.9670  180.8780  142.7870 O   0  0  0  0  0  0  0  0  0  0  0  0
  179.7260  179.5880  143.2410 C   0  0  0  0  0  0  0  0  0  0  0  0
  179.2910  179.4060  144.4070 O   0  0  0  0  0  1  0  0  0  0  0  0
  189.9260  176.6850  141.9270 C   0  0  0  0  0  2  0  0  0  0  0  0
  189.8630  177.3390  140.5600 C   0  0  0  0  0  2  0  0  0  0  0  0
  191.0670  176.9080  139.7490 C   0  0  0  0  0  2  0  0  0  0  0  0
  190.8390  177.2090  138.2800 C   0  0  0  0  0  2  0  0  0  0  0  0
  189.4950  176.6170  137.8270 C   0  0  1  0  0  3  0  0  0  0  0  0
  188.4040  177.7490  136.0250 C   0  0  0  0  0  2  0  0  0  0  0  0
  186.1690  177.6960  136.9140 C   0  0  1  0  0  3  0  0  0  0  0  0
  188.4960  177.6380  137.4810 N   0  0  0  0  0  0  0  0  0  0  0  0
  187.1650  177.2880  137.9760 C   0  0  0  0  0  2  0  0  0  0  0  0
  186.9480  177.6140  135.6240 C   0  0  0  0  0  2  0  0  0  0  0  0
  184.9740  176.7890  136.9110 C   0  0  0  0  0  0  0  0  0  0  0  0
  184.7060  175.9700  135.8200 O   0  0  0  0  0  0  0  0  0  0  0  0
  184.1690  176.8100  137.8780 O   0  0  0  0  0  1  0  0  0  0  0  0
  189.6720  175.6430  136.6630 C   0  0  0  0  0  2  0  0  0  0  0  0
  193.8380  174.6860  134.9800 C   0  0  0  0  0  2  0  0  0  0  0  0
  193.1020  176.0170  135.0680 C   0  0  0  0  0  2  0  0  0  0  0  0
  191.2970  173.8040  136.5120 C   0  0  0  0  0  3  0  0  0  0  0  0
  191.1340  175.2940  136.4540 C   0  0  1  0  0  3  0  0  0  0  0  0
  191.5900  175.8320  135.1020 C   0  0  0  0  0  2  0  0  0  0  0  0
  192.4870  173.1950  136.4450 C   0  0  0  0  0  3  0  0  0  0  0  0
  193.7860  173.9390  136.3080 C   0  0  1  0  0  3  0  0  0  0  0  0
  194.9490  172.9550  136.3670 C   0  0  0  0  0  2  0  0  0  0  0  0
  196.9240  172.1300  137.5940 C   0  0  0  0  0  1  0  0  0  0  0  0
  195.4140  173.7120  138.7200 C   0  0  0  0  0  1  0  0  0  0  0  0
  196.8780  174.4790  136.8710 C   0  0  0  0  0  1  0  0  0  0  0  0
  196.0280  173.3310  137.3850 C   0  0  0  0  0  0  0  0  0  0  0  0
  1  4  1  0  0  0  0
  2  6  2  0  0  0  0
  3  5  1  0  0  0  0
  3  2  1  0  0  0  0
  5 30  1  6  0  0  0
  5  1  1  0  0  0  0
  6  4  1  0  0  0  0
  7  2  1  0  0  0  0
  8  7  1  0  0  0  0
  9 10  1  0  0  0  0
  9  8  1  0  0  0  0
 11 12  1  6  0  0  0
 11 26  1  0  0  0  0
 11 10  1  0  0  0  0
 13 19  2  0  0  0  0
 13 25  1  0  0  0  0
 14 18  1  0  0  0  0
 15 25  1  0  0  0  0
 15 12  1  1  0  0  0
 16 24  1  0  0  0  0
 17 18  1  0  0  0  0
 18 15  1  0  0  0  0
 20 21  1  0  0  0  0
 20 16  1  0  0  0  0
 22 24  1  6  0  0  0
 22 13  1  0  0  0  0
 23 21  1  6  0  0  0
 23 18  1  0  0  0  0
 23 22  1  0  0  0  0
 26 28  1  0  0  0  0
 27 28  2  0  0  0  0
 28 29  1  0  0  0  0
 31 30  1  0  0  0  0
 32 31  1  0  0  0  0
 33 32  1  0  0  0  0
 34 43  1  6  0  0  0
 34 33  1  0  0  0  0
 35 37  1  0  0  0  0
 36 40  1  6  0  0  0
 36 38  1  0  0  0  0
 37 34  1  0  0  0  0
 37 38  1  0  0  0  0
 39 35  1  0  0  0  0
 39 36  1  0  0  0  0
 40 42  1  0  0  0  0
 41 40  2  0  0  0  0
 44 45  1  0  0  0  0
 44 50  1  0  0  0  0
 45 48  1  0  0  0  0
 47 46  1  0  0  0  0
 47 43  1  6  0  0  0
 48 47  1  0  0  0  0
 49 46  2  0  0  0  0
 50 51  1  6  0  0  0
 50 49  1  0  0  0  0
 51 55  1  0  0  0  0
 54 55  1  0  0  0  0
 55 52  1  0  0  0  0
 55 53  1  0  0  0  0
M  END
>  <MODEL>
9

>  <REMARK>
 VINA RESULT:      -5.8      2.887      6.592
  Name = 
  20 active torsions:
  status: ('A' for Active; 'I' for Inactive)
    1  A    between atoms: C_2  and  C_28
    2  A    between atoms: C_2  and  C_44
    3  A    between atoms: C_6  and  C_46
    4  A    between atoms: C_8  and  C_20
    5  A    between atoms: C_8  and  C_22
    6  A    between atoms: C_10  and  C_32
    7  A    between atoms: C_17  and  C_36
    8  A    between atoms: C_19  and  C_40
    9  A    between atoms: C_19  and  C_45
   10  A    between atoms: C_22  and  C_35
   11  A    between atoms: C_22  and  C_46
   12  A    between atoms: C_27  and  O_54
   13  A    between atoms: C_28  and  C_49
   14  A    between atoms: C_33  and  C_49
   15  A    between atoms: C_33  and  C_52
   16  A    between atoms: N_34  and  C_52
   17  A    between atoms: C_35  and  C_43
   18  A    between atoms: C_36  and  C_52
   19  A    between atoms: C_43  and  C_51
   20  A    between atoms: C_51  and  O_54
                            x       y       z     vdW  Elec       q    Type
                         _______ _______ _______ _____ _____    ______ ____

>  <TORSDO>
F 20

$$$$
