=
 OpenBabel10252414563D

 34 38  0  0  1  0  0  0  0  0999 V2000
  185.9660  178.1930  138.1750 C   0  0  0  0  0  0  0  0  0  0  0  0
  188.2770  177.3220  138.0370 C   0  0  0  0  0  0  0  0  0  0  0  0
  187.3930  178.1010  140.1880 C   0  0  0  0  0  0  0  0  0  0  0  0
  188.2490  177.2360  143.2020 C   0  0  0  0  0  2  0  0  0  0  0  0
  183.3590  179.1250  138.2560 Cl  0  0  0  0  0  0  0  0  0  0  0  0
  188.1820  177.0550  136.7110 F   0  0  0  0  0  0  0  0  0  0  0  0
  189.6470  177.2760  139.9760 N   0  0  0  0  0  0  0  0  0  0  0  0
  187.2100  177.8720  138.7840 C   0  0  0  0  0  0  0  0  0  0  0  0
  189.0080  178.1120  142.2040 C   0  0  2  0  0  3  0  0  0  0  0  0
  185.7230  178.0040  136.7080 C   0  0  0  0  0  1  0  0  0  0  0  0
  186.2910  178.5900  140.9580 C   0  0  0  0  0  0  0  0  0  0  0  0
  184.9200  178.7090  138.9510 C   0  0  0  0  0  0  0  0  0  0  0  0
  189.4780  177.0250  138.6600 C   0  0  0  0  0  3  0  0  0  0  0  0
  186.7340  177.4210  143.1300 C   0  0  0  0  0  2  0  0  0  0  0  0
  186.3560  178.7450  142.4670 C   0  0  2  0  0  3  0  0  0  0  0  0
  188.6710  177.8100  140.7580 C   0  0  0  0  0  0  0  0  0  0  0  0
  185.0880  178.8860  140.3140 C   0  0  0  0  0  3  0  0  0  0  0  0
  184.8630  178.8120  145.5780 C   0  0  1  0  0  3  0  0  0  0  0  0
  183.3360  178.7350  145.4530 C   0  0  0  0  0  2  0  0  0  0  0  0
  185.1400  179.4160  143.1300 C   0  0  2  0  0  3  0  0  0  0  0  0
  182.8200  178.9910  144.0300 C   0  0  0  0  0  2  0  0  0  0  0  0
  185.4610  179.8060  144.5820 C   0  0  0  0  0  2  0  0  0  0  0  0
  183.8500  178.5850  142.9820 C   0  0  0  0  0  2  0  0  0  0  0  0
  185.2080  179.1810  146.8760 O   0  0  0  0  0  1  0  0  0  0  0  0
  190.5070  178.2110  142.5250 C   0  0  0  0  0  2  0  0  0  0  0  0
  190.8050  179.0770  143.7430 C   0  0  0  0  0  2  0  0  0  0  0  0
  191.6120  178.3020  144.7760 C   0  0  0  0  0  2  0  0  0  0  0  0
  189.0410  176.5860  146.7950 O   0  0  0  0  0  1  0  0  0  0  0  0
  190.8610  177.0840  145.3170 C   0  0  2  0  0  3  0  0  0  0  0  0
  190.2050  177.3470  146.6860 C   0  0  2  0  0  3  0  0  0  0  0  0
  192.0770  176.0820  147.7120 C   0  0  0  0  0  3  0  0  0  0  0  0
  192.3050  175.4010  146.4250 C   0  0  0  0  0  3  0  0  0  0  0  0
  191.7200  175.8430  145.3080 C   0  0  0  0  0  3  0  0  0  0  0  0
  191.1260  177.0130  147.8330 C   0  0  0  0  0  3  0  0  0  0  0  0
  1  8  2  0  0  0  0
  1 12  1  0  0  0  0
  2 13  2  0  0  0  0
  2  8  1  0  0  0  0
  3 16  1  0  0  0  0
  3 11  2  0  0  0  0
  5 12  1  0  0  0  0
  6  2  1  0  0  0  0
  7 16  2  0  0  0  0
  8  3  1  0  0  0  0
  9 25  1  6  0  0  0
  9  4  1  0  0  0  0
 10  1  1  0  0  0  0
 11 15  1  0  0  0  0
 12 17  2  0  0  0  0
 13  7  1  0  0  0  0
 14  4  1  0  0  0  0
 15 14  1  1  0  0  0
 15 20  1  0  0  0  0
 16  9  1  0  0  0  0
 17 11  1  0  0  0  0
 18 24  1  1  0  0  0
 19 18  1  0  0  0  0
 20 23  1  1  0  0  0
 20 22  1  0  0  0  0
 21 19  1  0  0  0  0
 22 18  1  0  0  0  0
 23 21  1  0  0  0  0
 25 26  1  0  0  0  0
 26 27  1  0  0  0  0
 29 27  1  1  0  0  0
 29 30  1  0  0  0  0
 30 28  1  1  0  0  0
 30 34  1  0  0  0  0
 31 34  2  0  0  0  0
 32 31  1  0  0  0  0
 33 29  1  0  0  0  0
 33 32  2  0  0  0  0
M  END
>  <MODEL>
1

>  <REMARK>
 VINA RESULT:      -9.6      0.000      0.000
  Name = 
  5 active torsions:
  status: ('A' for Active; 'I' for Inactive)
    1  A    between atoms: C_3  and  C_13
    2  A    between atoms: C_3  and  C_17
    3  A    between atoms: C_12  and  C_28
    4  A    between atoms: C_17  and  C_29
    5  A    between atoms: C_18  and  C_29
                            x       y       z     vdW  Elec       q    Type
                         _______ _______ _______ _____ _____    ______ ____

>  <TORSDO>
F 5

$$$$
=
 OpenBabel10252414563D

 34 38  0  0  1  0  0  0  0  0999 V2000
  189.2180  177.3970  146.2100 C   0  0  0  0  0  0  0  0  0  0  0  0
  191.1840  177.3580  144.7090 C   0  0  0  0  0  0  0  0  0  0  0  0
  188.9280  177.5140  143.7610 C   0  0  0  0  0  0  0  0  0  0  0  0
  187.9680  178.7840  140.9260 C   0  0  0  0  0  2  0  0  0  0  0  0
  187.0690  177.4690  147.9550 Cl  0  0  0  0  0  0  0  0  0  0  0  0
  192.0670  177.2880  145.7370 F   0  0  0  0  0  0  0  0  0  0  0  0
  190.8840  177.4340  142.3550 N   0  0  0  0  0  0  0  0  0  0  0  0
  189.7850  177.4200  144.9060 C   0  0  0  0  0  0  0  0  0  0  0  0
  188.7150  177.4740  141.1860 C   0  0  2  0  0  3  0  0  0  0  0  0
  190.0590  177.2720  147.4440 C   0  0  0  0  0  1  0  0  0  0  0  0
  187.5190  177.6490  143.9610 C   0  0  0  0  0  0  0  0  0  0  0  0
  187.8300  177.4910  146.3690 C   0  0  0  0  0  0  0  0  0  0  0  0
  191.7050  177.3760  143.4250 C   0  0  0  0  0  3  0  0  0  0  0  0
  186.9470  179.1170  142.0120 C   0  0  0  0  0  2  0  0  0  0  0  0
  186.5500  177.8780  142.8140 C   0  0  2  0  0  3  0  0  0  0  0  0
  189.5300  177.4880  142.4640 C   0  0  0  0  0  0  0  0  0  0  0  0
  187.0100  177.6260  145.2620 C   0  0  0  0  0  3  0  0  0  0  0  0
  183.5660  178.8650  141.3900 C   0  0  1  0  0  3  0  0  0  0  0  0
  182.6590  179.5370  142.4290 C   0  0  0  0  0  2  0  0  0  0  0  0
  185.0550  177.8600  143.1800 C   0  0  2  0  0  3  0  0  0  0  0  0
  183.1120  179.3130  143.8780 C   0  0  0  0  0  2  0  0  0  0  0  0
  184.1960  177.5850  141.9350 C   0  0  0  0  0  2  0  0  0  0  0  0
  184.6210  179.1130  143.9660 C   0  0  0  0  0  2  0  0  0  0  0  0
  182.8290  178.5770  140.2420 O   0  0  0  0  0  1  0  0  0  0  0  0
  189.4500  176.9560  139.9420 C   0  0  0  0  0  2  0  0  0  0  0  0
  189.4810  177.9640  138.7990 C   0  0  0  0  0  2  0  0  0  0  0  0
  188.7230  177.4360  137.5880 C   0  0  0  0  0  2  0  0  0  0  0  0
  185.4640  179.0380  138.2500 O   0  0  0  0  0  1  0  0  0  0  0  0
  187.5030  178.2900  137.2380 C   0  0  2  0  0  3  0  0  0  0  0  0
  186.2520  177.9040  138.0500 C   0  0  2  0  0  3  0  0  0  0  0  0
  185.4330  176.7170  136.0310 C   0  0  0  0  0  3  0  0  0  0  0  0
  186.3000  177.5650  135.1950 C   0  0  0  0  0  3  0  0  0  0  0  0
  187.2480  178.3250  135.7500 C   0  0  0  0  0  3  0  0  0  0  0  0
  185.4310  176.8430  137.3620 C   0  0  0  0  0  3  0  0  0  0  0  0
  1 12  1  0  0  0  0
  1 10  1  0  0  0  0
  2  8  1  0  0  0  0
  2  6  1  0  0  0  0
  3 11  2  0  0  0  0
  3  8  1  0  0  0  0
  4  9  1  0  0  0  0
  4 14  1  0  0  0  0
  7 16  2  0  0  0  0
  7 13  1  0  0  0  0
  8  1  2  0  0  0  0
  9 25  1  6  0  0  0
  9 16  1  0  0  0  0
 11 17  1  0  0  0  0
 12  5  1  0  0  0  0
 13  2  2  0  0  0  0
 15 14  1  1  0  0  0
 15 20  1  0  0  0  0
 15 11  1  0  0  0  0
 16  3  1  0  0  0  0
 17 12  2  0  0  0  0
 18 24  1  6  0  0  0
 18 22  1  0  0  0  0
 18 19  1  0  0  0  0
 19 21  1  0  0  0  0
 20 22  1  6  0  0  0
 20 23  1  0  0  0  0
 21 23  1  0  0  0  0
 26 25  1  0  0  0  0
 27 26  1  0  0  0  0
 29 27  1  6  0  0  0
 29 30  1  0  0  0  0
 30 28  1  6  0  0  0
 31 34  2  0  0  0  0
 32 33  2  0  0  0  0
 32 31  1  0  0  0  0
 33 29  1  0  0  0  0
 34 30  1  0  0  0  0
M  END
>  <MODEL>
2

>  <REMARK>
 VINA RESULT:      -9.5      3.444      7.179
  Name = 
  5 active torsions:
  status: ('A' for Active; 'I' for Inactive)
    1  A    between atoms: C_3  and  C_13
    2  A    between atoms: C_3  and  C_17
    3  A    between atoms: C_12  and  C_28
    4  A    between atoms: C_17  and  C_29
    5  A    between atoms: C_18  and  C_29
                            x       y       z     vdW  Elec       q    Type
                         _______ _______ _______ _____ _____    ______ ____

>  <TORSDO>
F 5

$$$$
=
 OpenBabel10252414563D

 34 38  0  0  1  0  0  0  0  0999 V2000
  187.8680  178.1090  137.9200 C   0  0  0  0  0  0  0  0  0  0  0  0
  188.8490  178.0990  140.1920 C   0  0  0  0  0  0  0  0  0  0  0  0
  186.4500  178.5180  139.9000 C   0  0  0  0  0  0  0  0  0  0  0  0
  184.0000  178.0030  141.9740 C   0  0  0  0  0  2  0  0  0  0  0  0
  186.8390  178.0730  135.3500 Cl  0  0  0  0  0  0  0  0  0  0  0  0
  190.0950  177.8150  139.7390 F   0  0  0  0  0  0  0  0  0  0  0  0
  187.4750  178.5310  142.0810 N   0  0  0  0  0  0  0  0  0  0  0  0
  187.7360  178.2410  139.3300 C   0  0  0  0  0  0  0  0  0  0  0  0
  185.0770  179.0900  142.0120 C   0  0  2  0  0  3  0  0  0  0  0  0
  189.1900  177.8480  137.2640 C   0  0  0  0  0  1  0  0  0  0  0  0
  185.3130  178.5910  139.0360 C   0  0  0  0  0  0  0  0  0  0  0  0
  186.7400  178.2270  137.0990 C   0  0  0  0  0  0  0  0  0  0  0  0
  188.6870  178.2380  141.5610 C   0  0  0  0  0  3  0  0  0  0  0  0
  183.5580  177.6480  140.5560 C   0  0  0  0  0  2  0  0  0  0  0  0
  183.8980  178.7580  139.5620 C   0  0  2  0  0  3  0  0  0  0  0  0
  186.3620  178.6900  141.3160 C   0  0  0  0  0  0  0  0  0  0  0  0
  185.4930  178.4500  137.6580 C   0  0  0  0  0  3  0  0  0  0  0  0
  180.7570  180.1760  139.3810 C   0  0  1  0  0  3  0  0  0  0  0  0
  179.8020  179.2880  138.5730 C   0  0  0  0  0  2  0  0  0  0  0  0
  182.8020  178.9620  138.5000 C   0  0  2  0  0  3  0  0  0  0  0  0
  180.5130  178.1950  137.7640 C   0  0  0  0  0  2  0  0  0  0  0  0
  182.1120  180.3230  138.6900 C   0  0  0  0  0  2  0  0  0  0  0  0
  181.8220  177.7760  138.4230 C   0  0  0  0  0  2  0  0  0  0  0  0
  180.1840  181.4330  139.5670 O   0  0  0  0  0  1  0  0  0  0  0  0
  185.2470  179.7040  143.4090 C   0  0  0  0  0  2  0  0  0  0  0  0
  184.8740  178.7470  144.5360 C   0  0  0  0  0  2  0  0  0  0  0  0
  185.7280  179.0040  145.7700 C   0  0  0  0  0  2  0  0  0  0  0  0
  187.7180  177.0110  148.1570 O   0  0  0  0  0  1  0  0  0  0  0  0
  186.4350  177.7420  146.2700 C   0  0  2  0  0  3  0  0  0  0  0  0
  187.5950  178.0510  147.2360 C   0  0  2  0  0  3  0  0  0  0  0  0
  189.1460  177.6240  145.3470 C   0  0  0  0  0  3  0  0  0  0  0  0
  188.1050  176.8120  144.6910 C   0  0  0  0  0  3  0  0  0  0  0  0
  186.8440  176.8380  145.1330 C   0  0  0  0  0  3  0  0  0  0  0  0
  188.9050  178.2320  146.5120 C   0  0  0  0  0  3  0  0  0  0  0  0
  1  8  1  0  0  0  0
  2 13  1  0  0  0  0
  3 16  2  0  0  0  0
  4  9  1  0  0  0  0
  5 12  1  0  0  0  0
  6  2  1  0  0  0  0
  8  3  1  0  0  0  0
  8  2  2  0  0  0  0
  9 25  1  1  0  0  0
 10  1  1  0  0  0  0
 11 15  1  0  0  0  0
 11  3  1  0  0  0  0
 12 17  1  0  0  0  0
 12  1  2  0  0  0  0
 13  7  2  0  0  0  0
 14  4  1  0  0  0  0
 15 14  1  6  0  0  0
 16  9  1  0  0  0  0
 16  7  1  0  0  0  0
 17 11  2  0  0  0  0
 18 24  1  6  0  0  0
 19 18  1  0  0  0  0
 20 23  1  1  0  0  0
 20 22  1  0  0  0  0
 20 15  1  0  0  0  0
 21 23  1  0  0  0  0
 21 19  1  0  0  0  0
 22 18  1  0  0  0  0
 25 26  1  0  0  0  0
 26 27  1  0  0  0  0
 29 27  1  6  0  0  0
 29 30  1  0  0  0  0
 30 28  1  1  0  0  0
 31 34  2  0  0  0  0
 32 33  2  0  0  0  0
 32 31  1  0  0  0  0
 33 29  1  0  0  0  0
 34 30  1  0  0  0  0
M  END
>  <MODEL>
3

>  <REMARK>
 VINA RESULT:      -9.5      2.810      4.619
  Name = 
  5 active torsions:
  status: ('A' for Active; 'I' for Inactive)
    1  A    between atoms: C_3  and  C_13
    2  A    between atoms: C_3  and  C_17
    3  A    between atoms: C_12  and  C_28
    4  A    between atoms: C_17  and  C_29
    5  A    between atoms: C_18  and  C_29
                            x       y       z     vdW  Elec       q    Type
                         _______ _______ _______ _____ _____    ______ ____

>  <TORSDO>
F 5

$$$$
=
 OpenBabel10252414563D

 34 38  0  0  1  0  0  0  0  0999 V2000
  183.8840  178.8970  141.7820 C   0  0  0  0  0  0  0  0  0  0  0  0
  184.8060  178.3180  144.0040 C   0  0  0  0  0  0  0  0  0  0  0  0
  186.1830  178.0210  141.9960 C   0  0  0  0  0  0  0  0  0  0  0  0
  189.4200  178.0290  141.6980 C   0  0  0  0  0  2  0  0  0  0  0  0
  182.7950  179.5970  139.3340 Cl  0  0  0  0  0  0  0  0  0  0  0  0
  183.6770  178.6890  144.6570 F   0  0  0  0  0  0  0  0  0  0  0  0
  187.0060  177.4420  144.1860 N   0  0  0  0  0  0  0  0  0  0  0  0
  184.9430  178.4150  142.5990 C   0  0  0  0  0  0  0  0  0  0  0  0
  188.5160  176.9530  142.3010 C   0  0  2  0  0  3  0  0  0  0  0  0
  182.5560  179.2970  142.3500 C   0  0  0  0  0  1  0  0  0  0  0  0
  186.3480  178.1850  140.5850 C   0  0  0  0  0  0  0  0  0  0  0  0
  184.0650  179.0070  140.3980 C   0  0  0  0  0  0  0  0  0  0  0  0
  185.8550  177.8390  144.7710 C   0  0  0  0  0  3  0  0  0  0  0  0
  188.7910  178.7380  140.5000 C   0  0  0  0  0  2  0  0  0  0  0  0
  187.6650  177.9110  139.8800 C   0  0  2  0  0  3  0  0  0  0  0  0
  187.2090  177.4970  142.8430 C   0  0  0  0  0  0  0  0  0  0  0  0
  185.2800  178.6670  139.8250 C   0  0  0  0  0  3  0  0  0  0  0  0
  188.8330  176.0710  137.2040 C   0  0  1  0  0  3  0  0  0  0  0  0
  189.4210  176.9890  136.1250 C   0  0  0  0  0  2  0  0  0  0  0  0
  187.6390  177.9970  138.3440 C   0  0  2  0  0  3  0  0  0  0  0  0
  189.0550  178.4680  136.3070 C   0  0  0  0  0  2  0  0  0  0  0  0
  187.4960  176.5970  137.7250 C   0  0  0  0  0  2  0  0  0  0  0  0
  188.8210  178.8070  137.7750 C   0  0  0  0  0  2  0  0  0  0  0  0
  188.6650  174.7870  136.6870 O   0  0  0  0  0  1  0  0  0  0  0  0
  189.2730  176.0030  143.2400 C   0  0  0  0  0  2  0  0  0  0  0  0
  190.7860  176.1880  143.1900 C   0  0  0  0  0  2  0  0  0  0  0  0
  191.4380  175.6680  144.4640 C   0  0  0  0  0  2  0  0  0  0  0  0
  192.0560  177.0060  147.8490 O   0  0  0  0  0  1  0  0  0  0  0  0
  191.6840  176.7740  145.4930 C   0  0  2  0  0  3  0  0  0  0  0  0
  191.2340  176.3780  146.9130 C   0  0  2  0  0  3  0  0  0  0  0  0
  189.2210  177.7830  146.5560 C   0  0  0  0  0  3  0  0  0  0  0  0
  189.9500  178.5440  145.5260 C   0  0  0  0  0  3  0  0  0  0  0  0
  191.1130  178.0970  145.0450 C   0  0  0  0  0  3  0  0  0  0  0  0
  189.7990  176.7520  147.1800 C   0  0  0  0  0  3  0  0  0  0  0  0
  1 10  1  0  0  0  0
  1  8  1  0  0  0  0
  2  6  1  0  0  0  0
  2 13  1  0  0  0  0
  3  8  1  0  0  0  0
  3 16  2  0  0  0  0
  4  9  1  0  0  0  0
  5 12  1  0  0  0  0
  7 13  2  0  0  0  0
  8  2  2  0  0  0  0
  9 16  1  0  0  0  0
  9 25  1  1  0  0  0
 11  3  1  0  0  0  0
 12  1  2  0  0  0  0
 14  4  1  0  0  0  0
 15 14  1  1  0  0  0
 15 11  1  0  0  0  0
 16  7  1  0  0  0  0
 17 12  1  0  0  0  0
 17 11  2  0  0  0  0
 18 24  1  6  0  0  0
 18 22  1  0  0  0  0
 19 21  1  0  0  0  0
 19 18  1  0  0  0  0
 20 22  1  6  0  0  0
 20 15  1  0  0  0  0
 21 23  1  0  0  0  0
 23 20  1  0  0  0  0
 26 25  1  0  0  0  0
 26 27  1  0  0  0  0
 29 27  1  6  0  0  0
 29 30  1  0  0  0  0
 30 34  1  0  0  0  0
 30 28  1  1  0  0  0
 31 34  2  0  0  0  0
 32 31  1  0  0  0  0
 33 29  1  0  0  0  0
 33 32  2  0  0  0  0
M  END
>  <MODEL>
4

>  <REMARK>
 VINA RESULT:      -9.4      2.848      5.443
  Name = 
  5 active torsions:
  status: ('A' for Active; 'I' for Inactive)
    1  A    between atoms: C_3  and  C_13
    2  A    between atoms: C_3  and  C_17
    3  A    between atoms: C_12  and  C_28
    4  A    between atoms: C_17  and  C_29
    5  A    between atoms: C_18  and  C_29
                            x       y       z     vdW  Elec       q    Type
                         _______ _______ _______ _____ _____    ______ ____

>  <TORSDO>
F 5

$$$$
=
 OpenBabel10252414563D

 34 38  0  0  1  0  0  0  0  0999 V2000
  183.8050  178.7760  142.7700 C   0  0  0  0  0  0  0  0  0  0  0  0
  184.2320  178.6190  140.3380 C   0  0  0  0  0  0  0  0  0  0  0  0
  186.0960  178.4200  141.9200 C   0  0  0  0  0  0  0  0  0  0  0  0
  188.9450  176.8960  141.5670 C   0  0  0  0  0  2  0  0  0  0  0  0
  183.2430  178.9300  145.4770 Cl  0  0  0  0  0  0  0  0  0  0  0  0
  182.9230  178.7700  140.0180 F   0  0  0  0  0  0  0  0  0  0  0  0
  186.4470  178.3130  139.5380 N   0  0  0  0  0  0  0  0  0  0  0  0
  184.6960  178.6090  141.6740 C   0  0  0  0  0  0  0  0  0  0  0  0
  188.4740  178.2070  140.9340 C   0  0  2  0  0  3  0  0  0  0  0  0
  182.3360  179.0050  142.5760 C   0  0  0  0  0  1  0  0  0  0  0  0
  186.5550  178.3390  143.2710 C   0  0  0  0  0  0  0  0  0  0  0  0
  184.2940  178.7320  144.0810 C   0  0  0  0  0  0  0  0  0  0  0  0
  185.1270  178.4590  139.2930 C   0  0  0  0  0  3  0  0  0  0  0  0
  188.4280  176.6980  142.9900 C   0  0  0  0  0  2  0  0  0  0  0  0
  187.9980  178.0200  143.6250 C   0  0  2  0  0  3  0  0  0  0  0  0
  186.9680  178.3030  140.7940 C   0  0  0  0  0  0  0  0  0  0  0  0
  185.6400  178.5050  144.3140 C   0  0  0  0  0  3  0  0  0  0  0  0
  190.5900  177.0350  145.6790 C   0  0  1  0  0  3  0  0  0  0  0  0
  190.0550  176.4630  146.9980 C   0  0  0  0  0  2  0  0  0  0  0  0
  188.3620  178.1100  145.1180 C   0  0  2  0  0  3  0  0  0  0  0  0
  188.5720  176.7690  147.2470 C   0  0  0  0  0  2  0  0  0  0  0  0
  189.8740  178.3280  145.2930 C   0  0  0  0  0  2  0  0  0  0  0  0
  187.8090  176.9270  145.9360 C   0  0  0  0  0  2  0  0  0  0  0  0
  191.9590  177.2690  145.7900 O   0  0  0  0  0  1  0  0  0  0  0  0
  189.2780  178.5810  139.6810 C   0  0  0  0  0  2  0  0  0  0  0  0
  190.4020  177.5970  139.3730 C   0  0  0  0  0  2  0  0  0  0  0  0
  190.3870  177.2000  137.9020 C   0  0  0  0  0  2  0  0  0  0  0  0
  187.0390  175.7580  137.3210 O   0  0  0  0  0  1  0  0  0  0  0  0
  188.9750  177.1700  137.3150 C   0  0  2  0  0  3  0  0  0  0  0  0
  188.4240  175.7400  137.1580 C   0  0  2  0  0  3  0  0  0  0  0  0
  188.9380  175.9170  134.7370 C   0  0  0  0  0  3  0  0  0  0  0  0
  188.8900  177.3860  134.8470 C   0  0  0  0  0  3  0  0  0  0  0  0
  188.8760  177.9790  136.0430 C   0  0  0  0  0  3  0  0  0  0  0  0
  188.7590  175.1450  135.8130 C   0  0  0  0  0  3  0  0  0  0  0  0
  1 12  1  0  0  0  0
  2  8  1  0  0  0  0
  3 11  2  0  0  0  0
  4 14  1  0  0  0  0
  6  2  1  0  0  0  0
  7 16  2  0  0  0  0
  8  3  1  0  0  0  0
  8  1  2  0  0  0  0
  9 25  1  6  0  0  0
  9  4  1  0  0  0  0
 10  1  1  0  0  0  0
 11 15  1  0  0  0  0
 11 17  1  0  0  0  0
 12 17  2  0  0  0  0
 12  5  1  0  0  0  0
 13  7  1  0  0  0  0
 13  2  2  0  0  0  0
 15 14  1  1  0  0  0
 15 20  1  0  0  0  0
 16  9  1  0  0  0  0
 16  3  1  0  0  0  0
 18 24  1  1  0  0  0
 18 19  1  0  0  0  0
 19 21  1  0  0  0  0
 20 22  1  6  0  0  0
 20 23  1  0  0  0  0
 22 18  1  0  0  0  0
 23 21  1  0  0  0  0
 26 25  1  0  0  0  0
 27 26  1  0  0  0  0
 29 27  1  6  0  0  0
 30 29  1  0  0  0  0
 30 28  1  6  0  0  0
 31 32  1  0  0  0  0
 31 34  2  0  0  0  0
 32 33  2  0  0  0  0
 33 29  1  0  0  0  0
 34 30  1  0  0  0  0
M  END
>  <MODEL>
5

>  <REMARK>
 VINA RESULT:      -9.4      2.917      6.599
  Name = 
  5 active torsions:
  status: ('A' for Active; 'I' for Inactive)
    1  A    between atoms: C_3  and  C_13
    2  A    between atoms: C_3  and  C_17
    3  A    between atoms: C_12  and  C_28
    4  A    between atoms: C_17  and  C_29
    5  A    between atoms: C_18  and  C_29
                            x       y       z     vdW  Elec       q    Type
                         _______ _______ _______ _____ _____    ______ ____

>  <TORSDO>
F 5

$$$$
=
 OpenBabel10252414563D

 34 38  0  0  1  0  0  0  0  0999 V2000
  183.9020  178.7750  142.8990 C   0  0  0  0  0  0  0  0  0  0  0  0
  184.3060  178.6430  140.4620 C   0  0  0  0  0  0  0  0  0  0  0  0
  186.1850  178.4330  142.0230 C   0  0  0  0  0  0  0  0  0  0  0  0
  189.0340  176.9180  141.6270 C   0  0  0  0  0  2  0  0  0  0  0  0
  183.3670  178.9010  145.6130 Cl  0  0  0  0  0  0  0  0  0  0  0  0
  182.9940  178.7950  140.1550 F   0  0  0  0  0  0  0  0  0  0  0  0
  186.5140  178.3510  139.6370 N   0  0  0  0  0  0  0  0  0  0  0  0
  184.7830  178.6210  141.7930 C   0  0  0  0  0  0  0  0  0  0  0  0
  188.5550  178.2350  141.0130 C   0  0  2  0  0  3  0  0  0  0  0  0
  182.4310  179.0030  142.7220 C   0  0  0  0  0  1  0  0  0  0  0  0
  186.6580  178.3400  143.3690 C   0  0  0  0  0  0  0  0  0  0  0  0
  184.4050  178.7180  144.2050 C   0  0  0  0  0  0  0  0  0  0  0  0
  185.1920  178.4960  139.4060 C   0  0  0  0  0  3  0  0  0  0  0  0
  188.5310  176.7050  143.0530 C   0  0  0  0  0  2  0  0  0  0  0  0
  188.1050  178.0190  143.7060 C   0  0  2  0  0  3  0  0  0  0  0  0
  187.0480  178.3290  140.8870 C   0  0  0  0  0  0  0  0  0  0  0  0
  185.7530  178.4920  144.4220 C   0  0  0  0  0  3  0  0  0  0  0  0
  190.6780  176.9450  145.7380 C   0  0  1  0  0  3  0  0  0  0  0  0
  190.1340  176.3890  147.0610 C   0  0  0  0  0  2  0  0  0  0  0  0
  188.4840  178.0950  145.1960 C   0  0  2  0  0  3  0  0  0  0  0  0
  188.6640  176.7450  147.3210 C   0  0  0  0  0  2  0  0  0  0  0  0
  190.0030  178.2620  145.3600 C   0  0  0  0  0  2  0  0  0  0  0  0
  187.8970  176.9310  146.0170 C   0  0  0  0  0  2  0  0  0  0  0  0
  192.0550  177.1320  145.8400 O   0  0  0  0  0  1  0  0  0  0  0  0
  189.3460  178.6230  139.7550 C   0  0  0  0  0  2  0  0  0  0  0  0
  189.9710  177.4270  139.0460 C   0  0  0  0  0  2  0  0  0  0  0  0
  189.5260  177.3670  137.5900 C   0  0  0  0  0  2  0  0  0  0  0  0
  190.5480  173.8190  137.5920 O   0  0  0  0  0  1  0  0  0  0  0  0
  189.7340  175.9850  136.9670 C   0  0  2  0  0  3  0  0  0  0  0  0
  190.8490  175.1800  137.6620 C   0  0  2  0  0  3  0  0  0  0  0  0
  192.3210  175.7630  135.7510 C   0  0  0  0  0  3  0  0  0  0  0  0
  191.1280  175.9880  134.9170 C   0  0  0  0  0  3  0  0  0  0  0  0
  189.9140  176.0640  135.4700 C   0  0  0  0  0  3  0  0  0  0  0  0
  192.2000  175.4220  137.0380 C   0  0  0  0  0  3  0  0  0  0  0  0
  1 12  1  0  0  0  0
  2  8  1  0  0  0  0
  3 11  2  0  0  0  0
  4 14  1  0  0  0  0
  6  2  1  0  0  0  0
  7 16  2  0  0  0  0
  8  3  1  0  0  0  0
  8  1  2  0  0  0  0
  9 25  1  6  0  0  0
  9  4  1  0  0  0  0
 10  1  1  0  0  0  0
 11 15  1  0  0  0  0
 11 17  1  0  0  0  0
 12 17  2  0  0  0  0
 12  5  1  0  0  0  0
 13  7  1  0  0  0  0
 13  2  2  0  0  0  0
 15 14  1  1  0  0  0
 15 20  1  0  0  0  0
 16  9  1  0  0  0  0
 16  3  1  0  0  0  0
 18 24  1  1  0  0  0
 18 19  1  0  0  0  0
 19 21  1  0  0  0  0
 20 22  1  6  0  0  0
 20 23  1  0  0  0  0
 22 18  1  0  0  0  0
 23 21  1  0  0  0  0
 26 25  1  0  0  0  0
 27 26  1  0  0  0  0
 29 27  1  1  0  0  0
 29 30  1  0  0  0  0
 30 28  1  6  0  0  0
 31 34  2  0  0  0  0
 32 33  2  0  0  0  0
 32 31  1  0  0  0  0
 33 29  1  0  0  0  0
 34 30  1  0  0  0  0
M  END
>  <MODEL>
6

>  <REMARK>
 VINA RESULT:      -9.3      3.053      6.463
  Name = 
  5 active torsions:
  status: ('A' for Active; 'I' for Inactive)
    1  A    between atoms: C_3  and  C_13
    2  A    between atoms: C_3  and  C_17
    3  A    between atoms: C_12  and  C_28
    4  A    between atoms: C_17  and  C_29
    5  A    between atoms: C_18  and  C_29
                            x       y       z     vdW  Elec       q    Type
                         _______ _______ _______ _____ _____    ______ ____

>  <TORSDO>
F 5

$$$$
=
 OpenBabel10252414563D

 34 38  0  0  1  0  0  0  0  0999 V2000
  186.1400  178.0750  146.0950 C   0  0  0  0  0  0  0  0  0  0  0  0
  184.8340  178.3030  144.0060 C   0  0  0  0  0  0  0  0  0  0  0  0
  187.2610  177.9700  143.8980 C   0  0  0  0  0  0  0  0  0  0  0  0
  189.0590  176.6650  141.5240 C   0  0  0  0  0  2  0  0  0  0  0  0
  187.5280  177.7960  148.4750 Cl  0  0  0  0  0  0  0  0  0  0  0  0
  183.6550  178.4310  144.6630 F   0  0  0  0  0  0  0  0  0  0  0  0
  185.9360  178.2360  141.9030 N   0  0  0  0  0  0  0  0  0  0  0  0
  186.0660  178.1190  144.6750 C   0  0  0  0  0  0  0  0  0  0  0  0
  188.3680  178.0300  141.5640 C   0  0  2  0  0  3  0  0  0  0  0  0
  184.9310  178.2530  146.9620 C   0  0  0  0  0  1  0  0  0  0  0  0
  188.4970  177.7130  144.5720 C   0  0  0  0  0  0  0  0  0  0  0  0
  187.3720  177.8620  146.7240 C   0  0  0  0  0  0  0  0  0  0  0  0
  184.7980  178.3460  142.6210 C   0  0  0  0  0  3  0  0  0  0  0  0
  189.6070  176.2320  142.8820 C   0  0  0  0  0  2  0  0  0  0  0  0
  189.7870  177.4200  143.8260 C   0  0  2  0  0  3  0  0  0  0  0  0
  187.1570  178.0660  142.4750 C   0  0  0  0  0  0  0  0  0  0  0  0
  188.5170  177.6740  145.9670 C   0  0  0  0  0  3  0  0  0  0  0  0
  191.7330  174.9120  145.1790 C   0  0  1  0  0  3  0  0  0  0  0  0
  192.1410  175.2530  146.6190 C   0  0  0  0  0  2  0  0  0  0  0  0
  191.0560  177.3070  144.6900 C   0  0  2  0  0  3  0  0  0  0  0  0
  191.9020  176.7210  146.9960 C   0  0  0  0  0  2  0  0  0  0  0  0
  191.9090  176.1090  144.2450 C   0  0  0  0  0  2  0  0  0  0  0  0
  190.7470  177.3200  146.2010 C   0  0  0  0  0  2  0  0  0  0  0  0
  192.4930  173.8390  144.7190 O   0  0  0  0  0  1  0  0  0  0  0  0
  188.1570  178.6260  140.1650 C   0  0  0  0  0  2  0  0  0  0  0  0
  189.2620  178.2560  139.1810 C   0  0  0  0  0  2  0  0  0  0  0  0
  189.0560  178.9570  137.8450 C   0  0  0  0  0  2  0  0  0  0  0  0
  187.6010  177.8800  134.6270 O   0  0  0  0  0  1  0  0  0  0  0  0
  188.8030  177.9760  136.6980 C   0  0  2  0  0  3  0  0  0  0  0  0
  187.4720  178.2410  135.9690 C   0  0  2  0  0  3  0  0  0  0  0  0
  186.5230  176.3190  137.2190 C   0  0  0  0  0  3  0  0  0  0  0  0
  187.8830  175.7870  137.4090 C   0  0  0  0  0  3  0  0  0  0  0  0
  188.9530  176.5410  137.1410 C   0  0  0  0  0  3  0  0  0  0  0  0
  186.3250  177.4770  136.5820 C   0  0  0  0  0  3  0  0  0  0  0  0
  1 12  1  0  0  0  0
  1 10  1  0  0  0  0
  2  6  1  0  0  0  0
  2  8  1  0  0  0  0
  3 11  2  0  0  0  0
  3  8  1  0  0  0  0
  4  9  1  0  0  0  0
  4 14  1  0  0  0  0
  7 16  2  0  0  0  0
  7 13  1  0  0  0  0
  8  1  2  0  0  0  0
  9 25  1  6  0  0  0
  9 16  1  0  0  0  0
 11 17  1  0  0  0  0
 12  5  1  0  0  0  0
 13  2  2  0  0  0  0
 15 14  1  1  0  0  0
 15 11  1  0  0  0  0
 15 20  1  0  0  0  0
 16  3  1  0  0  0  0
 17 12  2  0  0  0  0
 18 24  1  6  0  0  0
 18 19  1  0  0  0  0
 19 21  1  0  0  0  0
 20 22  1  6  0  0  0
 20 23  1  0  0  0  0
 22 18  1  0  0  0  0
 23 21  1  0  0  0  0
 26 25  1  0  0  0  0
 27 26  1  0  0  0  0
 29 33  1  0  0  0  0
 29 27  1  1  0  0  0
 30 28  1  6  0  0  0
 30 34  1  0  0  0  0
 30 29  1  0  0  0  0
 31 32  1  0  0  0  0
 33 32  2  0  0  0  0
 34 31  2  0  0  0  0
M  END
>  <MODEL>
7

>  <REMARK>
 VINA RESULT:      -9.2      3.694      7.867
  Name = 
  5 active torsions:
  status: ('A' for Active; 'I' for Inactive)
    1  A    between atoms: C_3  and  C_13
    2  A    between atoms: C_3  and  C_17
    3  A    between atoms: C_12  and  C_28
    4  A    between atoms: C_17  and  C_29
    5  A    between atoms: C_18  and  C_29
                            x       y       z     vdW  Elec       q    Type
                         _______ _______ _______ _____ _____    ______ ____

>  <TORSDO>
F 5

$$$$
=
 OpenBabel10252414563D

 34 38  0  0  1  0  0  0  0  0999 V2000
  187.4870  177.8540  146.3330 C   0  0  0  0  0  0  0  0  0  0  0  0
  189.7950  177.7790  145.4440 C   0  0  0  0  0  0  0  0  0  0  0  0
  187.8900  177.7410  143.9000 C   0  0  0  0  0  0  0  0  0  0  0  0
  187.7300  178.7090  140.8000 C   0  0  0  0  0  2  0  0  0  0  0  0
  184.9360  177.9720  147.4030 Cl  0  0  0  0  0  0  0  0  0  0  0  0
  190.3570  177.8440  146.6760 F   0  0  0  0  0  0  0  0  0  0  0  0
  190.1610  177.6340  143.1020 N   0  0  0  0  0  0  0  0  0  0  0  0
  188.3950  177.7900  145.2400 C   0  0  0  0  0  0  0  0  0  0  0  0
  188.4040  177.4650  141.3830 C   0  0  2  0  0  3  0  0  0  0  0  0
  187.9540  177.8780  147.7580 C   0  0  0  0  0  1  0  0  0  0  0  0
  186.4780  177.8240  143.6900 C   0  0  0  0  0  0  0  0  0  0  0  0
  186.1080  177.8920  146.0940 C   0  0  0  0  0  0  0  0  0  0  0  0
  190.6520  177.7110  144.3570 C   0  0  0  0  0  3  0  0  0  0  0  0
  186.4380  179.0850  141.5250 C   0  0  0  0  0  2  0  0  0  0  0  0
  185.8620  177.9030  142.3040 C   0  0  2  0  0  3  0  0  0  0  0  0
  188.8300  177.6310  142.8280 C   0  0  0  0  0  0  0  0  0  0  0  0
  185.6270  177.8900  144.7960 C   0  0  0  0  0  3  0  0  0  0  0  0
  183.3640  178.7490  140.0780 C   0  0  1  0  0  3  0  0  0  0  0  0
  182.1890  179.4170  140.8030 C   0  0  0  0  0  2  0  0  0  0  0  0
  184.3250  177.8430  142.2430 C   0  0  2  0  0  3  0  0  0  0  0  0
  182.2280  179.2470  142.3280 C   0  0  0  0  0  2  0  0  0  0  0  0
  183.8520  177.5060  140.8200 C   0  0  0  0  0  2  0  0  0  0  0  0
  183.6590  179.1010  142.8350 C   0  0  0  0  0  2  0  0  0  0  0  0
  182.9810  178.4050  138.7830 O   0  0  0  0  0  1  0  0  0  0  0  0
  189.4680  176.8770  140.4460 C   0  0  0  0  0  2  0  0  0  0  0  0
  189.9690  177.8720  139.4050 C   0  0  0  0  0  2  0  0  0  0  0  0
  190.1060  177.2070  138.0410 C   0  0  0  0  0  2  0  0  0  0  0  0
  187.3700  179.3740  136.8380 O   0  0  0  0  0  1  0  0  0  0  0  0
  189.2220  177.8590  136.9760 C   0  0  2  0  0  3  0  0  0  0  0  0
  187.8270  178.2400  137.5110 C   0  0  2  0  0  3  0  0  0  0  0  0
  186.9480  176.2270  136.3590 C   0  0  0  0  0  3  0  0  0  0  0  0
  188.1080  176.2550  135.4500 C   0  0  0  0  0  3  0  0  0  0  0  0
  189.1600  177.0350  135.7140 C   0  0  0  0  0  3  0  0  0  0  0  0
  186.8280  177.1240  137.3420 C   0  0  0  0  0  3  0  0  0  0  0  0
  1 10  1  0  0  0  0
  2  6  1  0  0  0  0
  3  8  1  0  0  0  0
  4  9  1  0  0  0  0
  4 14  1  0  0  0  0
  7 13  1  0  0  0  0
  8  2  1  0  0  0  0
  8  1  2  0  0  0  0
  9 25  1  6  0  0  0
  9 16  1  0  0  0  0
 11  3  2  0  0  0  0
 11 17  1  0  0  0  0
 12  1  1  0  0  0  0
 12  5  1  0  0  0  0
 13  2  2  0  0  0  0
 15 14  1  1  0  0  0
 15 11  1  0  0  0  0
 16  7  2  0  0  0  0
 16  3  1  0  0  0  0
 17 12  2  0  0  0  0
 18 24  1  6  0  0  0
 18 19  1  0  0  0  0
 18 22  1  0  0  0  0
 19 21  1  0  0  0  0
 20 22  1  6  0  0  0
 20 15  1  0  0  0  0
 20 23  1  0  0  0  0
 21 23  1  0  0  0  0
 26 25  1  0  0  0  0
 27 26  1  0  0  0  0
 29 30  1  0  0  0  0
 29 27  1  1  0  0  0
 30 28  1  6  0  0  0
 31 34  2  0  0  0  0
 32 33  2  0  0  0  0
 32 31  1  0  0  0  0
 33 29  1  0  0  0  0
 34 30  1  0  0  0  0
M  END
>  <MODEL>
8

>  <REMARK>
 VINA RESULT:      -9.0      3.697      7.028
  Name = 
  5 active torsions:
  status: ('A' for Active; 'I' for Inactive)
    1  A    between atoms: C_3  and  C_13
    2  A    between atoms: C_3  and  C_17
    3  A    between atoms: C_12  and  C_28
    4  A    between atoms: C_17  and  C_29
    5  A    between atoms: C_18  and  C_29
                            x       y       z     vdW  Elec       q    Type
                         _______ _______ _______ _____ _____    ______ ____

>  <TORSDO>
F 5

$$$$
=
 OpenBabel10252414563D

 34 38  0  0  1  0  0  0  0  0999 V2000
  189.2280  177.3950  146.1870 C   0  0  0  0  0  0  0  0  0  0  0  0
  191.1480  177.3960  144.6260 C   0  0  0  0  0  0  0  0  0  0  0  0
  188.8630  177.5500  143.7500 C   0  0  0  0  0  0  0  0  0  0  0  0
  187.8060  178.8570  140.9670 C   0  0  0  0  0  2  0  0  0  0  0  0
  187.1330  177.4210  147.9970 Cl  0  0  0  0  0  0  0  0  0  0  0  0
  192.0620  177.3170  145.6250 F   0  0  0  0  0  0  0  0  0  0  0  0
  190.7750  177.5080  142.2830 N   0  0  0  0  0  0  0  0  0  0  0  0
  189.7550  177.4440  144.8670 C   0  0  0  0  0  0  0  0  0  0  0  0
  188.5710  177.5490  141.1820 C   0  0  2  0  0  3  0  0  0  0  0  0
  190.1080  177.2560  147.3920 C   0  0  0  0  0  1  0  0  0  0  0  0
  187.4590  177.6700  143.9950 C   0  0  0  0  0  0  0  0  0  0  0  0
  187.8450  177.4750  146.3900 C   0  0  0  0  0  0  0  0  0  0  0  0
  191.6280  177.4400  143.3270 C   0  0  0  0  0  3  0  0  0  0  0  0
  186.8160  179.1640  142.0890 C   0  0  0  0  0  2  0  0  0  0  0  0
  186.4530  177.9090  142.8820 C   0  0  2  0  0  3  0  0  0  0  0  0
  189.4240  177.5490  142.4350 C   0  0  0  0  0  0  0  0  0  0  0  0
  186.9900  177.6210  145.3100 C   0  0  0  0  0  3  0  0  0  0  0  0
  183.4030  178.7340  141.4950 C   0  0  1  0  0  3  0  0  0  0  0  0
  182.5090  179.4410  142.5220 C   0  0  0  0  0  2  0  0  0  0  0  0
  184.9700  177.8720  143.2930 C   0  0  2  0  0  3  0  0  0  0  0  0
  183.0090  179.3120  143.9670 C   0  0  0  0  0  2  0  0  0  0  0  0
  184.0850  177.5040  142.0920 C   0  0  0  0  0  2  0  0  0  0  0  0
  184.5240  179.1560  144.0210 C   0  0  0  0  0  2  0  0  0  0  0  0
  182.6430  178.3620  140.3880 O   0  0  0  0  0  1  0  0  0  0  0  0
  189.2710  177.0570  139.9080 C   0  0  0  0  0  2  0  0  0  0  0  0
  189.4430  178.1490  138.8570 C   0  0  0  0  0  2  0  0  0  0  0  0
  189.4170  177.5600  137.4530 C   0  0  0  0  0  2  0  0  0  0  0  0
  190.3980  174.0040  137.6020 O   0  0  0  0  0  1  0  0  0  0  0  0
  189.1610  176.0510  137.4530 C   0  0  2  0  0  3  0  0  0  0  0  0
  190.3750  175.2410  136.9580 C   0  0  2  0  0  3  0  0  0  0  0  0
  189.1920  174.9840  134.7920 C   0  0  0  0  0  3  0  0  0  0  0  0
  187.9110  175.2270  135.4780 C   0  0  0  0  0  3  0  0  0  0  0  0
  187.8860  175.6960  136.7280 C   0  0  0  0  0  3  0  0  0  0  0  0
  190.3460  175.0240  135.4660 C   0  0  0  0  0  3  0  0  0  0  0  0
  1 12  1  0  0  0  0
  1 10  1  0  0  0  0
  2  8  1  0  0  0  0
  2  6  1  0  0  0  0
  3 11  2  0  0  0  0
  3  8  1  0  0  0  0
  4  9  1  0  0  0  0
  4 14  1  0  0  0  0
  7 16  2  0  0  0  0
  7 13  1  0  0  0  0
  8  1  2  0  0  0  0
  9 25  1  6  0  0  0
  9 16  1  0  0  0  0
 11 17  1  0  0  0  0
 12  5  1  0  0  0  0
 13  2  2  0  0  0  0
 15 14  1  1  0  0  0
 15 20  1  0  0  0  0
 15 11  1  0  0  0  0
 16  3  1  0  0  0  0
 17 12  2  0  0  0  0
 18 24  1  6  0  0  0
 18 22  1  0  0  0  0
 18 19  1  0  0  0  0
 19 21  1  0  0  0  0
 20 22  1  6  0  0  0
 20 23  1  0  0  0  0
 21 23  1  0  0  0  0
 26 25  1  0  0  0  0
 27 26  1  0  0  0  0
 29 27  1  6  0  0  0
 30 29  1  0  0  0  0
 30 28  1  1  0  0  0
 31 34  2  0  0  0  0
 31 32  1  0  0  0  0
 32 33  2  0  0  0  0
 33 29  1  0  0  0  0
 34 30  1  0  0  0  0
M  END
>  <MODEL>
9

>  <REMARK>
 VINA RESULT:      -9.0      3.636      7.061
  Name = 
  5 active torsions:
  status: ('A' for Active; 'I' for Inactive)
    1  A    between atoms: C_3  and  C_13
    2  A    between atoms: C_3  and  C_17
    3  A    between atoms: C_12  and  C_28
    4  A    between atoms: C_17  and  C_29
    5  A    between atoms: C_18  and  C_29
                            x       y       z     vdW  Elec       q    Type
                         _______ _______ _______ _____ _____    ______ ____

>  <TORSDO>
F 5

$$$$
