=
 OpenBabel10262420303D

 55 60  0  0  1  0  0  0  0  0999 V2000
  192.6410  173.5780  135.4990 C   0  0  1  0  0  3  0  0  0  0  0  0
  193.2310  176.5630  138.0360 C   0  0  2  0  0  0  0  0  0  0  0  0
  194.2810  174.4790  136.8480 C   0  0  0  0  0  2  0  0  0  0  0  0
  191.1910  176.8060  139.2100 C   0  0  1  0  0  0  0  0  0  0  0  0
  191.3220  174.2120  137.5310 O   0  0  0  0  0  0  0  0  0  0  0  0
  191.7230  176.5990  137.8050 C   0  0  2  0  0  3  0  0  0  0  0  0
  193.8370  175.1350  138.1610 C   0  0  1  0  0  3  0  0  0  0  0  0
  193.3980  174.7380  135.7830 O   0  0  0  0  0  0  0  0  0  0  0  0
  193.3510  177.3060  139.3710 C   0  0  0  0  0  2  0  0  0  0  0  0
  193.4790  172.3490  135.1560 C   0  0  0  0  0  1  0  0  0  0  0  0
  194.9200  175.1130  139.0450 O   0  0  0  0  0  1  0  0  0  0  0  0
  192.1890  177.1090  140.1440 O   0  0  0  0  0  0  0  0  0  0  0  0
  193.8870  177.3010  137.0490 O   0  0  0  0  0  1  0  0  0  0  0  0
  191.0630  175.4810  136.9830 C   0  0  0  0  0  2  0  0  0  0  0  0
  189.8100  177.3990  139.4570 C   0  0  2  0  0  0  0  0  0  0  0  0
  191.4800  173.2800  136.4800 C   0  0  1  0  0  3  0  0  0  0  0  0
  190.0800  175.9230  139.7570 C   0  0  0  0  0  2  0  0  0  0  0  0
  187.3430  178.2380  136.0230 C   0  0  0  0  0  3  0  0  0  0  0  0
  188.9700  177.6950  138.2440 C   0  0  0  0  0  0  0  0  0  0  0  0
  188.0710  176.7300  137.7710 C   0  0  0  0  0  3  0  0  0  0  0  0
  188.2380  179.2040  136.4870 C   0  0  0  0  0  3  0  0  0  0  0  0
  187.2610  177.0000  136.6620 C   0  0  0  0  0  3  0  0  0  0  0  0
  189.0520  178.9340  137.5920 C   0  0  0  0  0  3  0  0  0  0  0  0
  190.1590  173.0100  135.7560 C   0  0  0  0  0  2  0  0  0  0  0  0
  189.0300  172.7410  136.7370 C   0  0  0  0  0  2  0  0  0  0  0  0
  187.8680  173.5480  136.3960 N   0  0  0  0  0  2  0  0  0  0  0  0
  185.8790  172.8460  137.5830 C   0  0  0  0  0  1  0  0  0  0  0  0
  186.7310  172.6490  136.3470 C   0  0  0  0  0  2  0  0  0  0  0  0
  189.6920  178.3050  140.6760 C   0  0  0  0  0  2  0  0  0  0  0  0
  188.3520  178.4670  141.0440 O   0  0  0  0  0  0  0  0  0  0  0  0
  189.5770  177.9840  142.9200 O   0  0  0  0  0  1  0  0  0  0  0  0
  188.3580  178.4730  142.4430 C   0  0  2  0  0  3  0  0  0  0  0  0
  187.2830  176.4100  142.8250 O   0  0  0  0  0  0  0  0  0  0  0  0
  187.2420  177.6240  142.9640 C   0  0  0  0  0  0  0  0  0  0  0  0
  186.1020  178.2840  143.7130 C   0  0  2  0  0  3  0  0  0  0  0  0
  187.3330  177.2250  145.6440 C   0  0  0  0  0  3  0  0  0  0  0  0
  187.9710  177.4650  146.7990 C   0  0  0  0  0  3  0  0  0  0  0  0
  185.8820  179.2620  146.0350 C   0  0  0  0  0  2  0  0  0  0  0  0
  186.1080  178.9850  147.5160 C   0  0  0  0  0  2  0  0  0  0  0  0
  187.5650  178.5800  147.7270 C   0  0  0  0  0  2  0  0  0  0  0  0
  186.0890  177.9800  145.2190 C   0  0  1  0  0  3  0  0  0  0  0  0
  183.8030  178.2850  144.1650 C   0  0  0  0  0  1  0  0  0  0  0  0
  184.7710  178.1010  143.0850 N   0  0  0  0  0  0  0  0  0  0  0  0
  184.5320  179.0570  142.0540 N   0  0  0  0  0  0  0  0  0  0  0  0
  185.6890  179.7570  141.8790 O   0  0  0  0  0  1  0  0  0  0  0  0
  184.2750  180.2990  139.3560 O   0  0  0  0  0  1  0  0  0  0  0  0
  182.7350  178.1260  140.6020 C   0  0  0  0  0  2  0  0  0  0  0  0
  182.3260  177.7420  139.1700 C   0  0  0  0  0  2  0  0  0  0  0  0
  184.8450  179.0360  139.5380 C   0  0  2  0  0  3  0  0  0  0  0  0
  184.6520  178.1980  138.2700 C   0  0  0  0  0  2  0  0  0  0  0  0
  183.5020  177.1820  138.3660 C   0  0  2  0  0  3  0  0  0  0  0  0
  184.2520  178.3420  140.7860 C   0  0  1  0  0  3  0  0  0  0  0  0
  183.0890  176.7250  136.9990 C   0  0  0  0  0  0  0  0  0  0  0  0
  182.0300  177.2320  136.4550 N   0  0  0  0  0  1  0  0  0  0  0  0
  183.7240  175.6020  136.3850 N   0  0  0  0  0  2  0  0  0  0  0  0
  1 10  1  1  0  0  0
  1  8  1  0  0  0  0
  1 16  1  0  0  0  0
  2 13  1  6  0  0  0
  2  7  1  0  0  0  0
  2  9  1  0  0  0  0
  3  7  1  0  0  0  0
  4 15  1  0  0  0  0
  4 17  1  1  0  0  0
  4 12  1  0  0  0  0
  6 14  1  1  0  0  0
  6  2  1  0  0  0  0
  6  4  1  0  0  0  0
  7 11  1  1  0  0  0
  8  3  1  0  0  0  0
  9 12  1  0  0  0  0
 14  5  1  0  0  0  0
 15 17  1  0  0  0  0
 15 29  1  1  0  0  0
 16 24  1  6  0  0  0
 16  5  1  0  0  0  0
 18 21  2  0  0  0  0
 18 22  1  0  0  0  0
 19 15  1  0  0  0  0
 20 19  1  0  0  0  0
 21 23  1  0  0  0  0
 22 20  2  0  0  0  0
 23 19  2  0  0  0  0
 24 25  1  0  0  0  0
 26 25  1  0  0  0  0
 28 26  1  0  0  0  0
 28 27  1  0  0  0  0
 29 30  1  0  0  0  0
 30 32  1  0  0  0  0
 32 31  1  1  0  0  0
 32 34  1  0  0  0  0
 33 34  2  0  0  0  0
 35 34  1  6  0  0  0
 36 37  2  0  0  0  0
 37 40  1  0  0  0  0
 38 39  1  0  0  0  0
 39 40  1  0  0  0  0
 41 35  1  6  0  0  0
 41 36  1  0  0  0  0
 41 38  1  0  0  0  0
 43 35  1  0  0  0  0
 43 42  1  0  0  0  0
 44 43  1  0  0  0  0
 45 44  1  0  0  0  0
 47 52  1  0  0  0  0
 48 47  1  0  0  0  0
 49 46  1  6  0  0  0
 49 52  1  0  0  0  0
 50 51  1  0  0  0  0
 50 49  1  0  0  0  0
 51 53  1  6  0  0  0
 51 48  1  0  0  0  0
 52 44  1  1  0  0  0
 54 53  1  0  0  0  0
 55 53  2  0  0  0  0
M  END
>  <MODEL>
1

>  <REMARK>
 VINA RESULT:      -7.4      0.000      0.000
  Name = 
  15 active torsions:
  status: ('A' for Active; 'I' for Inactive)
    1  A    between atoms: N_3  and  C_25
    2  A    between atoms: N_3  and  C_38
    3  A    between atoms: C_10  and  C_48
    4  A    between atoms: C_19  and  C_37
    5  A    between atoms: C_19  and  C_45
    6  A    between atoms: C_26  and  C_45
    7  A    between atoms: C_27  and  C_51
    8  A    between atoms: C_29  and  C_38
    9  A    between atoms: C_29  and  C_53
   10  A    between atoms: N_33  and  N_49
   11  A    between atoms: N_33  and  C_52
   12  A    between atoms: C_35  and  O_40
   13  A    between atoms: C_35  and  C_51
   14  A    between atoms: C_37  and  O_40
   15  A    between atoms: C_45  and  N_49
                            x       y       z     vdW  Elec       q    Type
                         _______ _______ _______ _____ _____    ______ ____

>  <TORSDO>
F 15

$$$$
=
 OpenBabel10262420303D

 55 60  0  0  1  0  0  0  0  0999 V2000
  180.3490  177.7990  139.1210 C   0  0  1  0  0  3  0  0  0  0  0  0
  184.2960  178.0960  138.9510 C   0  0  2  0  0  0  0  0  0  0  0  0
  182.0630  179.2190  139.7300 C   0  0  0  0  0  2  0  0  0  0  0  0
  184.9100  177.1640  136.8650 C   0  0  1  0  0  0  0  0  0  0  0  0
  181.8640  177.6330  137.1350 O   0  0  0  0  0  0  0  0  0  0  0  0
  184.0000  176.9010  138.0490 C   0  0  2  0  0  3  0  0  0  0  0  0
  183.2930  179.2780  138.8160 C   0  0  1  0  0  3  0  0  0  0  0  0
  181.5460  177.9170  139.8660 O   0  0  0  0  0  0  0  0  0  0  0  0
  185.6810  178.5190  138.4490 C   0  0  0  0  0  2  0  0  0  0  0  0
  179.2660  178.8020  139.5100 C   0  0  0  0  0  1  0  0  0  0  0  0
  183.9220  180.5100  139.0150 O   0  0  0  0  0  1  0  0  0  0  0  0
  185.8200  178.2060  137.0820 O   0  0  0  0  0  0  0  0  0  0  0  0
  184.4060  177.6810  140.2800 O   0  0  0  0  0  1  0  0  0  0  0  0
  182.5400  176.5490  137.7240 C   0  0  0  0  0  2  0  0  0  0  0  0
  185.3550  176.0370  135.9410 C   0  0  2  0  0  0  0  0  0  0  0  0
  180.5260  177.6440  137.5900 C   0  0  1  0  0  3  0  0  0  0  0  0
  184.3710  177.0990  135.4440 C   0  0  0  0  0  2  0  0  0  0  0  0
  183.7110  172.1440  136.7830 C   0  0  0  0  0  3  0  0  0  0  0  0
  184.7880  174.6700  136.2110 C   0  0  0  0  0  0  0  0  0  0  0  0
  185.3020  173.9030  137.2650 C   0  0  0  0  0  3  0  0  0  0  0  0
  183.1960  172.9020  135.7290 C   0  0  0  0  0  3  0  0  0  0  0  0
  184.7650  172.6420  137.5490 C   0  0  0  0  0  3  0  0  0  0  0  0
  183.7340  174.1590  135.4410 C   0  0  0  0  0  3  0  0  0  0  0  0
  179.7230  176.4700  137.0260 C   0  0  0  0  0  2  0  0  0  0  0  0
  179.2460  175.5390  138.1290 C   0  0  0  0  0  2  0  0  0  0  0  0
  179.9010  174.2450  138.0090 N   0  0  0  0  0  2  0  0  0  0  0  0
  179.5440  171.9550  137.3150 C   0  0  0  0  0  1  0  0  0  0  0  0
  178.9310  173.3340  137.4330 C   0  0  0  0  0  2  0  0  0  0  0  0
  186.7740  176.1560  135.3980 C   0  0  0  0  0  2  0  0  0  0  0  0
  187.6940  175.6070  136.2990 O   0  0  0  0  0  0  0  0  0  0  0  0
  189.5360  176.7940  135.6270 O   0  0  0  0  0  1  0  0  0  0  0  0
  188.5600  176.6580  136.6180 C   0  0  2  0  0  3  0  0  0  0  0  0
  188.6610  175.6970  138.7690 O   0  0  0  0  0  0  0  0  0  0  0  0
  189.2200  176.3950  137.9350 C   0  0  0  0  0  0  0  0  0  0  0  0
  190.6060  176.9520  138.1890 C   0  0  2  0  0  3  0  0  0  0  0  0
  191.2440  174.5990  137.5380 C   0  0  0  0  0  3  0  0  0  0  0  0
  192.0230  173.8580  136.7370 C   0  0  0  0  0  3  0  0  0  0  0  0
  192.9900  176.4310  137.5250 C   0  0  0  0  0  2  0  0  0  0  0  0
  193.9920  175.3020  137.3120 C   0  0  0  0  0  2  0  0  0  0  0  0
  193.4030  174.2990  136.3240 C   0  0  0  0  0  2  0  0  0  0  0  0
  191.7150  175.8890  138.1820 C   0  0  1  0  0  3  0  0  0  0  0  0
  189.3250  178.2850  139.6280 C   0  0  0  0  0  1  0  0  0  0  0  0
  190.6970  177.8580  139.3590 N   0  0  0  0  0  0  0  0  0  0  0  0
  191.2300  177.1970  140.5050 N   0  0  0  0  0  0  0  0  0  0  0  0
  192.4180  177.7970  140.7990 O   0  0  0  0  0  1  0  0  0  0  0  0
  192.0290  177.2870  143.3760 O   0  0  0  0  0  1  0  0  0  0  0  0
  189.6630  176.0970  142.0980 C   0  0  0  0  0  2  0  0  0  0  0  0
  189.0170  176.1540  143.4930 C   0  0  0  0  0  2  0  0  0  0  0  0
  191.0120  178.0980  142.8650 C   0  0  2  0  0  3  0  0  0  0  0  0
  190.0140  178.4340  143.9790 C   0  0  0  0  0  2  0  0  0  0  0  0
  188.7290  177.5910  143.9360 C   0  0  2  0  0  3  0  0  0  0  0  0
  190.3250  177.4190  141.6580 C   0  0  1  0  0  3  0  0  0  0  0  0
  188.0200  177.6480  145.2560 C   0  0  0  0  0  0  0  0  0  0  0  0
  186.9050  178.2990  145.3480 N   0  0  0  0  0  2  0  0  0  0  0  0
  188.6550  177.1740  146.4440 N   0  0  0  0  0  1  0  0  0  0  0  0
  1 10  1  6  0  0  0
  1  8  1  0  0  0  0
  2 13  1  1  0  0  0
  3  8  1  0  0  0  0
  4 17  1  6  0  0  0
  4 12  1  0  0  0  0
  4  6  1  0  0  0  0
  5 16  1  0  0  0  0
  5 14  1  0  0  0  0
  6 14  1  6  0  0  0
  6  2  1  0  0  0  0
  7  2  1  0  0  0  0
  7 11  1  1  0  0  0
  7  3  1  0  0  0  0
  9  2  1  0  0  0  0
 12  9  1  0  0  0  0
 15 29  1  6  0  0  0
 15 19  1  0  0  0  0
 15  4  1  0  0  0  0
 16 24  1  1  0  0  0
 16  1  1  0  0  0  0
 17 15  1  0  0  0  0
 18 22  1  0  0  0  0
 19 20  1  0  0  0  0
 20 22  2  0  0  0  0
 21 18  2  0  0  0  0
 23 21  1  0  0  0  0
 23 19  2  0  0  0  0
 24 25  1  0  0  0  0
 26 25  1  0  0  0  0
 27 28  1  0  0  0  0
 28 26  1  0  0  0  0
 29 30  1  0  0  0  0
 30 32  1  0  0  0  0
 32 31  1  6  0  0  0
 32 34  1  0  0  0  0
 34 33  2  0  0  0  0
 35 34  1  1  0  0  0
 35 43  1  0  0  0  0
 36 41  1  0  0  0  0
 37 36  2  0  0  0  0
 38 41  1  0  0  0  0
 39 38  1  0  0  0  0
 40 37  1  0  0  0  0
 40 39  1  0  0  0  0
 41 35  1  6  0  0  0
 43 42  1  0  0  0  0
 43 44  1  0  0  0  0
 44 45  1  0  0  0  0
 47 48  1  0  0  0  0
 48 51  1  0  0  0  0
 49 46  1  1  0  0  0
 49 50  1  0  0  0  0
 51 50  1  0  0  0  0
 51 53  1  1  0  0  0
 52 44  1  6  0  0  0
 52 47  1  0  0  0  0
 52 49  1  0  0  0  0
 53 54  2  0  0  0  0
 53 55  1  0  0  0  0
M  END
>  <MODEL>
2

>  <REMARK>
 VINA RESULT:      -6.7      2.824      9.067
  Name = 
  15 active torsions:
  status: ('A' for Active; 'I' for Inactive)
    1  A    between atoms: N_3  and  C_25
    2  A    between atoms: N_3  and  C_38
    3  A    between atoms: C_10  and  C_48
    4  A    between atoms: C_19  and  C_37
    5  A    between atoms: C_19  and  C_45
    6  A    between atoms: C_26  and  C_45
    7  A    between atoms: C_27  and  C_51
    8  A    between atoms: C_29  and  C_38
    9  A    between atoms: C_29  and  C_53
   10  A    between atoms: N_33  and  N_49
   11  A    between atoms: N_33  and  C_52
   12  A    between atoms: C_35  and  O_40
   13  A    between atoms: C_35  and  C_51
   14  A    between atoms: C_37  and  O_40
   15  A    between atoms: C_45  and  N_49
                            x       y       z     vdW  Elec       q    Type
                         _______ _______ _______ _____ _____    ______ ____

>  <TORSDO>
F 15

$$$$
=
 OpenBabel10262420303D

 55 60  0  0  1  0  0  0  0  0999 V2000
  192.6940  173.5150  135.4250 C   0  0  1  0  0  3  0  0  0  0  0  0
  193.1190  176.5490  137.9370 C   0  0  2  0  0  0  0  0  0  0  0  0
  194.2660  174.4830  136.8100 C   0  0  0  0  0  2  0  0  0  0  0  0
  191.0390  176.7460  139.0480 C   0  0  1  0  0  0  0  0  0  0  0  0
  191.2980  174.1350  137.4090 O   0  0  0  0  0  0  0  0  0  0  0  0
  191.6180  176.5360  137.6620 C   0  0  2  0  0  3  0  0  0  0  0  0
  193.7640  175.1420  138.1000 C   0  0  1  0  0  3  0  0  0  0  0  0
  193.4080  174.7010  135.7150 O   0  0  0  0  0  0  0  0  0  0  0  0
  193.1780  177.3130  139.2640 C   0  0  0  0  0  2  0  0  0  0  0  0
  193.5780  172.3080  135.1250 C   0  0  0  0  0  1  0  0  0  0  0  0
  194.8200  175.1640  139.0150 O   0  0  0  0  0  1  0  0  0  0  0  0
  192.0000  177.0900  140.0060 O   0  0  0  0  0  0  0  0  0  0  0  0
  193.7820  177.2940  136.9590 O   0  0  0  0  0  1  0  0  0  0  0  0
  191.0160  175.3880  136.8360 C   0  0  0  0  0  2  0  0  0  0  0  0
  189.6340  177.3000  139.2450 C   0  0  2  0  0  0  0  0  0  0  0  0
  191.5140  173.1940  136.3760 C   0  0  1  0  0  3  0  0  0  0  0  0
  189.9390  175.8370  139.5740 C   0  0  0  0  0  2  0  0  0  0  0  0
  187.3690  178.0340  135.6520 C   0  0  0  0  0  3  0  0  0  0  0  0
  188.8220  177.5540  138.0050 C   0  0  0  0  0  0  0  0  0  0  0  0
  188.9850  178.7570  137.3040 C   0  0  0  0  0  3  0  0  0  0  0  0
  187.2000  176.8340  136.3470 C   0  0  0  0  0  3  0  0  0  0  0  0
  188.2590  178.9960  136.1320 C   0  0  0  0  0  3  0  0  0  0  0  0
  187.9200  176.5950  137.5210 C   0  0  0  0  0  3  0  0  0  0  0  0
  190.2230  172.8750  135.6180 C   0  0  0  0  0  2  0  0  0  0  0  0
  188.9950  173.1160  136.4800 C   0  0  0  0  0  2  0  0  0  0  0  0
  187.8060  173.1940  135.6460 N   0  0  0  0  0  2  0  0  0  0  0  0
  186.1900  172.9420  137.4290 C   0  0  0  0  0  1  0  0  0  0  0  0
  186.8280  172.2900  136.2210 C   0  0  0  0  0  2  0  0  0  0  0  0
  189.4540  178.2170  140.4490 C   0  0  0  0  0  2  0  0  0  0  0  0
  188.0970  178.3680  140.7560 O   0  0  0  0  0  0  0  0  0  0  0  0
  189.3570  178.6010  142.6550 O   0  0  0  0  0  1  0  0  0  0  0  0
  188.0620  178.6220  142.1310 C   0  0  2  0  0  3  0  0  0  0  0  0
  187.5200  176.4070  142.7290 O   0  0  0  0  0  0  0  0  0  0  0  0
  187.2280  177.5910  142.8220 C   0  0  0  0  0  0  0  0  0  0  0  0
  186.0620  178.0390  143.6800 C   0  0  2  0  0  3  0  0  0  0  0  0
  184.9760  178.3750  141.4290 C   0  0  0  0  0  3  0  0  0  0  0  0
  183.8620  178.1720  140.7090 C   0  0  0  0  0  3  0  0  0  0  0  0
  183.5790  178.4970  143.5360 C   0  0  0  0  0  2  0  0  0  0  0  0
  182.4710  179.0070  142.6230 C   0  0  0  0  0  2  0  0  0  0  0  0
  182.4890  178.2000  141.3270 C   0  0  0  0  0  2  0  0  0  0  0  0
  184.9500  178.7520  142.8970 C   0  0  1  0  0  3  0  0  0  0  0  0
  185.5120  179.8870  145.0110 C   0  0  0  0  0  1  0  0  0  0  0  0
  186.4540  178.7750  144.9070 N   0  0  0  0  0  0  0  0  0  0  0  0
  186.3660  177.9560  146.0710 N   0  0  0  0  0  0  0  0  0  0  0  0
  185.5220  176.9270  145.7750 O   0  0  0  0  0  1  0  0  0  0  0  0
  188.0900  178.5700  148.4240 O   0  0  0  0  0  1  0  0  0  0  0  0
  188.8050  178.1390  145.6040 C   0  0  0  0  0  2  0  0  0  0  0  0
  190.2250  177.8540  146.1210 C   0  0  0  0  0  2  0  0  0  0  0  0
  188.0320  177.2910  147.8620 C   0  0  2  0  0  3  0  0  0  0  0  0
  189.3530  176.5570  148.1180 C   0  0  0  0  0  2  0  0  0  0  0  0
  190.3000  176.5420  146.9070 C   0  0  2  0  0  3  0  0  0  0  0  0
  187.6970  177.3710  146.3550 C   0  0  1  0  0  3  0  0  0  0  0  0
  191.6990  176.2160  147.3380 C   0  0  0  0  0  0  0  0  0  0  0  0
  192.2540  176.9200  148.2720 N   0  0  0  0  0  1  0  0  0  0  0  0
  192.4900  175.2860  146.5970 N   0  0  0  0  0  2  0  0  0  0  0  0
  1 10  1  1  0  0  0
  1  8  1  0  0  0  0
  1 16  1  0  0  0  0
  2 13  1  6  0  0  0
  2  7  1  0  0  0  0
  2  9  1  0  0  0  0
  3  7  1  0  0  0  0
  4 15  1  0  0  0  0
  4 17  1  1  0  0  0
  4 12  1  0  0  0  0
  6 14  1  1  0  0  0
  6  2  1  0  0  0  0
  6  4  1  0  0  0  0
  7 11  1  1  0  0  0
  8  3  1  0  0  0  0
  9 12  1  0  0  0  0
 14  5  1  0  0  0  0
 15 17  1  0  0  0  0
 15 29  1  1  0  0  0
 16 24  1  6  0  0  0
 16  5  1  0  0  0  0
 18 22  2  0  0  0  0
 18 21  1  0  0  0  0
 19 15  1  0  0  0  0
 20 19  2  0  0  0  0
 21 23  2  0  0  0  0
 22 20  1  0  0  0  0
 23 19  1  0  0  0  0
 24 25  1  0  0  0  0
 26 28  1  0  0  0  0
 26 25  1  0  0  0  0
 28 27  1  0  0  0  0
 29 30  1  0  0  0  0
 30 32  1  0  0  0  0
 32 31  1  1  0  0  0
 32 34  1  0  0  0  0
 33 34  2  0  0  0  0
 35 34  1  6  0  0  0
 35 43  1  0  0  0  0
 36 41  1  0  0  0  0
 37 40  1  0  0  0  0
 37 36  2  0  0  0  0
 39 38  1  0  0  0  0
 40 39  1  0  0  0  0
 41 38  1  0  0  0  0
 41 35  1  1  0  0  0
 43 42  1  0  0  0  0
 43 44  1  0  0  0  0
 45 44  1  0  0  0  0
 47 48  1  0  0  0  0
 47 52  1  0  0  0  0
 48 51  1  0  0  0  0
 49 50  1  0  0  0  0
 49 46  1  6  0  0  0
 51 53  1  1  0  0  0
 51 50  1  0  0  0  0
 52 44  1  1  0  0  0
 52 49  1  0  0  0  0
 53 54  1  0  0  0  0
 55 53  2  0  0  0  0
M  END
>  <MODEL>
3

>  <REMARK>
 VINA RESULT:      -6.3      2.247      5.280
  Name = 
  15 active torsions:
  status: ('A' for Active; 'I' for Inactive)
    1  A    between atoms: N_3  and  C_25
    2  A    between atoms: N_3  and  C_38
    3  A    between atoms: C_10  and  C_48
    4  A    between atoms: C_19  and  C_37
    5  A    between atoms: C_19  and  C_45
    6  A    between atoms: C_26  and  C_45
    7  A    between atoms: C_27  and  C_51
    8  A    between atoms: C_29  and  C_38
    9  A    between atoms: C_29  and  C_53
   10  A    between atoms: N_33  and  N_49
   11  A    between atoms: N_33  and  C_52
   12  A    between atoms: C_35  and  O_40
   13  A    between atoms: C_35  and  C_51
   14  A    between atoms: C_37  and  O_40
   15  A    between atoms: C_45  and  N_49
                            x       y       z     vdW  Elec       q    Type
                         _______ _______ _______ _____ _____    ______ ____

>  <TORSDO>
F 15

$$$$
=
 OpenBabel10262420303D

 55 60  0  0  1  0  0  0  0  0999 V2000
  191.9500  174.3850  136.4180 C   0  0  1  0  0  3  0  0  0  0  0  0
  188.2360  175.4980  137.2320 C   0  0  2  0  0  0  0  0  0  0  0  0
  189.8610  174.4880  135.4450 C   0  0  0  0  0  2  0  0  0  0  0  0
  188.4370  177.4270  138.5870 C   0  0  1  0  0  0  0  0  0  0  0  0
  191.1080  176.5810  137.2760 O   0  0  0  0  0  0  0  0  0  0  0  0
  189.0260  176.0400  138.4190 C   0  0  2  0  0  3  0  0  0  0  0  0
  188.9440  175.6470  135.8540 C   0  0  1  0  0  3  0  0  0  0  0  0
  190.6010  173.9700  136.5230 O   0  0  0  0  0  0  0  0  0  0  0  0
  186.9800  176.3760  137.2770 C   0  0  0  0  0  2  0  0  0  0  0  0
  192.6310  173.9810  135.1140 C   0  0  0  0  0  1  0  0  0  0  0  0
  188.0230  175.8570  134.8230 O   0  0  0  0  0  1  0  0  0  0  0  0
  187.2910  177.6430  137.8110 O   0  0  0  0  0  0  0  0  0  0  0  0
  187.8660  174.1710  137.4640 O   0  0  0  0  0  1  0  0  0  0  0  0
  190.5600  175.9460  138.4050 C   0  0  0  0  0  2  0  0  0  0  0  0
  188.5240  178.1710  139.9140 C   0  0  2  0  0  0  0  0  0  0  0  0
  192.2340  175.8490  136.8360 C   0  0  1  0  0  3  0  0  0  0  0  0
  189.3400  178.6440  138.7090 C   0  0  0  0  0  2  0  0  0  0  0  0
  190.7360  176.3150  143.1140 C   0  0  0  0  0  3  0  0  0  0  0  0
  189.2900  177.5000  141.0210 C   0  0  0  0  0  0  0  0  0  0  0  0
  190.6670  177.7260  141.1480 C   0  0  0  0  0  3  0  0  0  0  0  0
  189.3640  176.0830  142.9920 C   0  0  0  0  0  3  0  0  0  0  0  0
  191.3890  177.1330  142.1900 C   0  0  0  0  0  3  0  0  0  0  0  0
  188.6430  176.6700  141.9480 C   0  0  0  0  0  3  0  0  0  0  0  0
  193.4030  175.9600  137.8170 C   0  0  0  0  0  2  0  0  0  0  0  0
  194.2330  174.6870  137.8410 C   0  0  0  0  0  2  0  0  0  0  0  0
  195.6430  175.0130  137.9990 N   0  0  0  0  0  2  0  0  0  0  0  0
  196.5310  174.9740  140.2490 C   0  0  0  0  0  1  0  0  0  0  0  0
  196.1610  174.1440  139.0380 C   0  0  0  0  0  2  0  0  0  0  0  0
  187.3170  179.0310  140.2640 C   0  0  0  0  0  2  0  0  0  0  0  0
  186.2670  178.2380  140.7410 O   0  0  0  0  0  0  0  0  0  0  0  0
  184.9780  179.9030  139.8360 O   0  0  0  0  0  1  0  0  0  0  0  0
  185.1860  178.5230  139.8990 C   0  0  2  0  0  3  0  0  0  0  0  0
  183.8560  177.5690  141.5970 O   0  0  0  0  0  0  0  0  0  0  0  0
  183.9500  177.8540  140.4110 C   0  0  0  0  0  0  0  0  0  0  0  0
  182.8020  177.5970  139.4550 C   0  0  2  0  0  3  0  0  0  0  0  0
  181.5400  178.5830  141.4050 C   0  0  0  0  0  3  0  0  0  0  0  0
  180.8350  179.6420  141.8300 C   0  0  0  0  0  3  0  0  0  0  0  0
  180.7540  179.0220  139.0390 C   0  0  0  0  0  2  0  0  0  0  0  0
  179.5170  179.6240  139.6950 C   0  0  0  0  0  2  0  0  0  0  0  0
  179.9490  180.4410  140.9100 C   0  0  0  0  0  2  0  0  0  0  0  0
  181.4320  178.0340  139.9960 C   0  0  1  0  0  3  0  0  0  0  0  0
  181.6280  175.5700  139.5000 C   0  0  0  0  0  1  0  0  0  0  0  0
  182.7770  176.2290  138.8830 N   0  0  0  0  0  0  0  0  0  0  0  0
  182.6200  176.2470  137.4660 N   0  0  0  0  0  0  0  0  0  0  0  0
  183.0700  177.4570  137.0260 O   0  0  0  0  0  1  0  0  0  0  0  0
  181.7030  173.7300  136.1580 O   0  0  0  0  0  1  0  0  0  0  0  0
  183.9850  174.2210  137.9470 C   0  0  0  0  0  2  0  0  0  0  0  0
  184.5690  172.9150  137.3810 C   0  0  0  0  0  2  0  0  0  0  0  0
  182.8240  174.4330  135.7070 C   0  0  2  0  0  3  0  0  0  0  0  0
  183.7990  173.4650  135.0290 C   0  0  0  0  0  2  0  0  0  0  0  0
  184.9880  173.0590  135.9150 C   0  0  2  0  0  3  0  0  0  0  0  0
  183.4890  175.2070  136.8680 C   0  0  1  0  0  3  0  0  0  0  0  0
  185.6380  171.8160  135.3850 C   0  0  0  0  0  0  0  0  0  0  0  0
  186.7800  171.9060  134.7830 N   0  0  0  0  0  2  0  0  0  0  0  0
  184.9240  170.5790  135.3520 N   0  0  0  0  0  1  0  0  0  0  0  0
  1 10  1  6  0  0  0
  1  8  1  0  0  0  0
  1 16  1  0  0  0  0
  2  9  1  0  0  0  0
  2 13  1  1  0  0  0
  2  6  1  0  0  0  0
  3  7  1  0  0  0  0
  3  8  1  0  0  0  0
  4 17  1  6  0  0  0
  4 15  1  0  0  0  0
  5 14  1  0  0  0  0
  6 14  1  6  0  0  0
  6  4  1  0  0  0  0
  7 11  1  6  0  0  0
  7  2  1  0  0  0  0
  9 12  1  0  0  0  0
 12  4  1  0  0  0  0
 15 29  1  1  0  0  0
 15 19  1  0  0  0  0
 16  5  1  0  0  0  0
 16 24  1  1  0  0  0
 17 15  1  0  0  0  0
 19 20  2  0  0  0  0
 19 23  1  0  0  0  0
 20 22  1  0  0  0  0
 21 18  1  0  0  0  0
 22 18  2  0  0  0  0
 23 21  2  0  0  0  0
 24 25  1  0  0  0  0
 25 26  1  0  0  0  0
 26 28  1  0  0  0  0
 28 27  1  0  0  0  0
 29 30  1  0  0  0  0
 32 31  1  1  0  0  0
 32 34  1  0  0  0  0
 32 30  1  0  0  0  0
 34 33  2  0  0  0  0
 35 34  1  1  0  0  0
 36 37  2  0  0  0  0
 38 39  1  0  0  0  0
 38 41  1  0  0  0  0
 39 40  1  0  0  0  0
 40 37  1  0  0  0  0
 41 35  1  6  0  0  0
 41 36  1  0  0  0  0
 43 35  1  0  0  0  0
 43 42  1  0  0  0  0
 44 43  1  0  0  0  0
 45 44  1  0  0  0  0
 48 47  1  0  0  0  0
 49 46  1  1  0  0  0
 49 52  1  0  0  0  0
 50 49  1  0  0  0  0
 50 51  1  0  0  0  0
 51 53  1  6  0  0  0
 51 48  1  0  0  0  0
 52 44  1  1  0  0  0
 52 47  1  0  0  0  0
 54 53  2  0  0  0  0
 55 53  1  0  0  0  0
M  END
>  <MODEL>
4

>  <REMARK>
 VINA RESULT:      -6.1      2.692      5.971
  Name = 
  15 active torsions:
  status: ('A' for Active; 'I' for Inactive)
    1  A    between atoms: N_3  and  C_25
    2  A    between atoms: N_3  and  C_38
    3  A    between atoms: C_10  and  C_48
    4  A    between atoms: C_19  and  C_37
    5  A    between atoms: C_19  and  C_45
    6  A    between atoms: C_26  and  C_45
    7  A    between atoms: C_27  and  C_51
    8  A    between atoms: C_29  and  C_38
    9  A    between atoms: C_29  and  C_53
   10  A    between atoms: N_33  and  N_49
   11  A    between atoms: N_33  and  C_52
   12  A    between atoms: C_35  and  O_40
   13  A    between atoms: C_35  and  C_51
   14  A    between atoms: C_37  and  O_40
   15  A    between atoms: C_45  and  N_49
                            x       y       z     vdW  Elec       q    Type
                         _______ _______ _______ _____ _____    ______ ____

>  <TORSDO>
F 15

$$$$
=
 OpenBabel10262420303D

 55 60  0  0  1  0  0  0  0  0999 V2000
  180.8330  173.6550  135.3030 C   0  0  1  0  0  3  0  0  0  0  0  0
  183.9810  175.9890  135.8790 C   0  0  2  0  0  0  0  0  0  0  0  0
  183.0800  173.7820  134.7960 C   0  0  0  0  0  2  0  0  0  0  0  0
  183.7420  176.8440  138.0720 C   0  0  1  0  0  0  0  0  0  0  0  0
  181.7780  174.5360  137.4470 O   0  0  0  0  0  0  0  0  0  0  0  0
  182.9350  176.5850  136.8150 C   0  0  2  0  0  3  0  0  0  0  0  0
  184.0040  174.4340  135.8320 C   0  0  1  0  0  3  0  0  0  0  0  0
  181.8380  174.4350  134.6850 O   0  0  0  0  0  0  0  0  0  0  0  0
  185.2790  176.5170  136.4990 C   0  0  0  0  0  2  0  0  0  0  0  0
  180.6990  172.2430  134.7400 C   0  0  0  0  0  1  0  0  0  0  0  0
  185.2980  173.9450  135.6270 O   0  0  0  0  0  1  0  0  0  0  0  0
  185.1210  176.6820  137.8910 O   0  0  0  0  0  0  0  0  0  0  0  0
  183.8440  176.5270  134.5970 O   0  0  0  0  0  1  0  0  0  0  0  0
  181.5930  175.8570  137.0020 C   0  0  0  0  0  2  0  0  0  0  0  0
  183.2950  177.8690  139.1060 C   0  0  2  0  0  0  0  0  0  0  0  0
  180.8010  173.7080  136.8510 C   0  0  1  0  0  3  0  0  0  0  0  0
  183.2380  176.3740  139.4280 C   0  0  0  0  0  2  0  0  0  0  0  0
  179.5250  179.8090  138.3320 C   0  0  0  0  0  3  0  0  0  0  0  0
  181.9780  178.5540  138.8600 C   0  0  0  0  0  0  0  0  0  0  0  0
  181.9010  179.5920  137.9230 C   0  0  0  0  0  3  0  0  0  0  0  0
  179.5950  178.7770  139.2700 C   0  0  0  0  0  3  0  0  0  0  0  0
  180.6780  180.2200  137.6610 C   0  0  0  0  0  3  0  0  0  0  0  0
  180.8170  178.1530  139.5370 C   0  0  0  0  0  3  0  0  0  0  0  0
  179.4010  173.9960  137.3970 C   0  0  0  0  0  2  0  0  0  0  0  0
  179.3520  173.8580  138.9090 C   0  0  0  0  0  2  0  0  0  0  0  0
  178.9400  175.1150  139.5140 N   0  0  0  0  0  2  0  0  0  0  0  0
  179.6770  173.6600  141.3010 C   0  0  0  0  0  1  0  0  0  0  0  0
  179.3950  175.0900  140.8910 C   0  0  0  0  0  2  0  0  0  0  0  0
  184.4150  178.6430  139.7890 C   0  0  0  0  0  2  0  0  0  0  0  0
  184.0400  179.0160  141.0850 O   0  0  0  0  0  0  0  0  0  0  0  0
  184.0570  177.8310  143.0460 O   0  0  0  0  0  1  0  0  0  0  0  0
  184.8090  178.2120  141.9320 C   0  0  2  0  0  3  0  0  0  0  0  0
  186.1110  180.1620  142.1790 O   0  0  0  0  0  0  0  0  0  0  0  0
  186.0240  178.9600  142.3830 C   0  0  0  0  0  0  0  0  0  0  0  0
  187.1050  178.2190  143.1440 C   0  0  2  0  0  3  0  0  0  0  0  0
  185.8580  179.2210  145.0940 C   0  0  0  0  0  3  0  0  0  0  0  0
  185.2520  178.9540  146.2610 C   0  0  0  0  0  3  0  0  0  0  0  0
  187.4130  177.2590  145.4630 C   0  0  0  0  0  2  0  0  0  0  0  0
  187.2000  177.5300  146.9480 C   0  0  0  0  0  2  0  0  0  0  0  0
  185.7290  177.8630  147.1830 C   0  0  0  0  0  2  0  0  0  0  0  0
  187.1300  178.5270  144.6480 C   0  0  1  0  0  3  0  0  0  0  0  0
  189.3070  178.9150  143.5360 C   0  0  0  0  0  1  0  0  0  0  0  0
  188.4510  178.2970  142.5260 N   0  0  0  0  0  0  0  0  0  0  0  0
  188.9570  177.0070  142.1870 N   0  0  0  0  0  0  0  0  0  0  0  0
  188.0260  176.0930  142.5810 O   0  0  0  0  0  1  0  0  0  0  0  0
  191.4210  177.5250  140.5900 O   0  0  0  0  0  1  0  0  0  0  0  0
  188.6160  178.2130  140.0340 C   0  0  0  0  0  2  0  0  0  0  0  0
  189.0540  178.3450  138.5650 C   0  0  0  0  0  2  0  0  0  0  0  0
  190.5020  176.5340  140.2330 C   0  0  2  0  0  3  0  0  0  0  0  0
  190.5540  176.3070  138.7180 C   0  0  0  0  0  2  0  0  0  0  0  0
  189.4130  176.9910  137.9470 C   0  0  2  0  0  3  0  0  0  0  0  0
  189.0800  176.9070  140.7130 C   0  0  1  0  0  3  0  0  0  0  0  0
  189.7560  177.1030  136.4920 C   0  0  0  0  0  0  0  0  0  0  0  0
  188.9550  177.7420  135.7000 N   0  0  0  0  0  2  0  0  0  0  0  0
  190.8330  176.3470  135.9380 N   0  0  0  0  0  1  0  0  0  0  0  0
  1 10  1  1  0  0  0
  1 16  1  0  0  0  0
  2 13  1  6  0  0  0
  2  9  1  0  0  0  0
  2  6  1  0  0  0  0
  3  7  1  0  0  0  0
  4 15  1  0  0  0  0
  4 17  1  1  0  0  0
  6 14  1  1  0  0  0
  6  4  1  0  0  0  0
  7 11  1  6  0  0  0
  7  2  1  0  0  0  0
  8  3  1  0  0  0  0
  8  1  1  0  0  0  0
  9 12  1  0  0  0  0
 12  4  1  0  0  0  0
 14  5  1  0  0  0  0
 15 17  1  0  0  0  0
 15 29  1  1  0  0  0
 16 24  1  6  0  0  0
 16  5  1  0  0  0  0
 18 21  1  0  0  0  0
 19 15  1  0  0  0  0
 19 23  1  0  0  0  0
 20 19  2  0  0  0  0
 21 23  2  0  0  0  0
 22 20  1  0  0  0  0
 22 18  2  0  0  0  0
 24 25  1  0  0  0  0
 25 26  1  0  0  0  0
 26 28  1  0  0  0  0
 28 27  1  0  0  0  0
 29 30  1  0  0  0  0
 30 32  1  0  0  0  0
 32 34  1  0  0  0  0
 32 31  1  1  0  0  0
 33 34  2  0  0  0  0
 35 34  1  6  0  0  0
 36 37  2  0  0  0  0
 37 40  1  0  0  0  0
 38 39  1  0  0  0  0
 39 40  1  0  0  0  0
 41 35  1  6  0  0  0
 41 36  1  0  0  0  0
 41 38  1  0  0  0  0
 43 35  1  0  0  0  0
 43 42  1  0  0  0  0
 44 43  1  0  0  0  0
 44 45  1  0  0  0  0
 47 52  1  0  0  0  0
 48 47  1  0  0  0  0
 49 46  1  6  0  0  0
 49 52  1  0  0  0  0
 50 49  1  0  0  0  0
 51 53  1  6  0  0  0
 51 48  1  0  0  0  0
 51 50  1  0  0  0  0
 52 44  1  1  0  0  0
 54 53  2  0  0  0  0
 55 53  1  0  0  0  0
M  END
>  <MODEL>
5

>  <REMARK>
 VINA RESULT:      -6.1      3.185      7.507
  Name = 
  15 active torsions:
  status: ('A' for Active; 'I' for Inactive)
    1  A    between atoms: N_3  and  C_25
    2  A    between atoms: N_3  and  C_38
    3  A    between atoms: C_10  and  C_48
    4  A    between atoms: C_19  and  C_37
    5  A    between atoms: C_19  and  C_45
    6  A    between atoms: C_26  and  C_45
    7  A    between atoms: C_27  and  C_51
    8  A    between atoms: C_29  and  C_38
    9  A    between atoms: C_29  and  C_53
   10  A    between atoms: N_33  and  N_49
   11  A    between atoms: N_33  and  C_52
   12  A    between atoms: C_35  and  O_40
   13  A    between atoms: C_35  and  C_51
   14  A    between atoms: C_37  and  O_40
   15  A    between atoms: C_45  and  N_49
                            x       y       z     vdW  Elec       q    Type
                         _______ _______ _______ _____ _____    ______ ____

>  <TORSDO>
F 15

$$$$
=
 OpenBabel10262420303D

 55 60  0  0  1  0  0  0  0  0999 V2000
  184.8960  178.9780  144.8200 C   0  0  1  0  0  3  0  0  0  0  0  0
  186.9280  178.8150  141.4230 C   0  0  2  0  0  0  0  0  0  0  0  0
  184.5840  179.1550  142.5410 C   0  0  0  0  0  2  0  0  0  0  0  0
  188.5630  177.1360  141.7450 C   0  0  1  0  0  0  0  0  0  0  0  0
  186.4120  177.1770  143.9680 O   0  0  0  0  0  0  0  0  0  0  0  0
  187.9380  178.3220  142.4540 C   0  0  2  0  0  3  0  0  0  0  0  0
  185.4750  178.2970  141.6350 C   0  0  1  0  0  3  0  0  0  0  0  0
  185.2760  179.6770  143.6510 O   0  0  0  0  0  0  0  0  0  0  0  0
  187.5090  178.2390  140.1280 C   0  0  0  0  0  2  0  0  0  0  0  0
  183.3980  179.0110  145.1130 C   0  0  0  0  0  1  0  0  0  0  0  0
  184.8110  178.1180  140.4180 O   0  0  0  0  0  1  0  0  0  0  0  0
  188.2010  177.0400  140.3960 O   0  0  0  0  0  0  0  0  0  0  0  0
  186.9560  180.2090  141.3490 O   0  0  0  0  0  1  0  0  0  0  0  0
  187.4800  178.0890  143.9030 C   0  0  0  0  0  2  0  0  0  0  0  0
  189.9430  176.6170  142.1300 C   0  0  2  0  0  0  0  0  0  0  0  0
  185.5280  177.5750  144.9970 C   0  0  1  0  0  3  0  0  0  0  0  0
  188.6930  175.7930  142.4480 C   0  0  0  0  0  2  0  0  0  0  0  0
  191.8300  178.5810  145.4700 C   0  0  0  0  0  3  0  0  0  0  0  0
  190.6210  177.2860  143.2950 C   0  0  0  0  0  0  0  0  0  0  0  0
  191.0300  178.6210  143.1860 C   0  0  0  0  0  3  0  0  0  0  0  0
  191.4270  177.2490  145.5850 C   0  0  0  0  0  3  0  0  0  0  0  0
  191.6360  179.2660  144.2700 C   0  0  0  0  0  3  0  0  0  0  0  0
  190.8270  176.6020  144.5020 C   0  0  0  0  0  3  0  0  0  0  0  0
  186.1480  177.3850  146.3840 C   0  0  0  0  0  2  0  0  0  0  0  0
  186.2250  178.6980  147.1450 C   0  0  0  0  0  2  0  0  0  0  0  0
  187.1130  178.5610  148.2890 N   0  0  0  0  0  2  0  0  0  0  0  0
  189.5060  178.2470  148.4620 C   0  0  0  0  0  1  0  0  0  0  0  0
  188.2180  177.7210  147.8660 C   0  0  0  0  0  2  0  0  0  0  0  0
  190.7930  176.0980  140.9780 C   0  0  0  0  0  2  0  0  0  0  0  0
  191.0280  177.1110  140.0410 O   0  0  0  0  0  0  0  0  0  0  0  0
  193.0030  177.2360  138.8840 O   0  0  0  0  0  1  0  0  0  0  0  0
  191.8170  176.5150  139.0510 C   0  0  2  0  0  3  0  0  0  0  0  0
  190.5620  177.4990  137.3140 O   0  0  0  0  0  0  0  0  0  0  0  0
  191.0690  176.4780  137.7560 C   0  0  0  0  0  0  0  0  0  0  0  0
  191.0070  175.1780  136.9790 C   0  0  2  0  0  3  0  0  0  0  0  0
  193.1530  175.9560  135.9050 C   0  0  0  0  0  3  0  0  0  0  0  0
  194.4830  176.0430  136.0530 C   0  0  0  0  0  3  0  0  0  0  0  0
  193.1390  173.8640  137.3300 C   0  0  0  0  0  2  0  0  0  0  0  0
  194.5550  173.6510  136.8090 C   0  0  0  0  0  2  0  0  0  0  0  0
  195.2800  174.9940  136.7840 C   0  0  0  0  0  2  0  0  0  0  0  0
  192.3490  174.7550  136.3630 C   0  0  1  0  0  3  0  0  0  0  0  0
  190.5030  174.7540  134.7310 C   0  0  0  0  0  1  0  0  0  0  0  0
  189.8870  175.0980  136.0100 N   0  0  0  0  0  0  0  0  0  0  0  0
  188.9380  174.0970  136.3740 N   0  0  0  0  0  0  0  0  0  0  0  0
  189.4220  173.4670  137.4810 O   0  0  0  0  0  1  0  0  0  0  0  0
  186.2150  173.3400  135.4240 O   0  0  0  0  0  1  0  0  0  0  0  0
  187.4000  175.9930  135.8780 C   0  0  0  0  0  2  0  0  0  0  0  0
  185.9520  176.5080  135.9410 C   0  0  0  0  0  2  0  0  0  0  0  0
  186.4440  173.8060  136.7220 C   0  0  2  0  0  3  0  0  0  0  0  0
  185.1770  174.4830  137.2550 C   0  0  0  0  0  2  0  0  0  0  0  0
  185.2210  176.0190  137.1950 C   0  0  2  0  0  3  0  0  0  0  0  0
  187.6650  174.7530  136.7570 C   0  0  1  0  0  3  0  0  0  0  0  0
  183.8390  176.5890  137.3050 C   0  0  0  0  0  0  0  0  0  0  0  0
  183.0280  176.1150  138.1970 N   0  0  0  0  0  1  0  0  0  0  0  0
  183.3440  177.4920  136.3160 N   0  0  0  0  0  2  0  0  0  0  0  0
  1 16  1  0  0  0  0
  1 10  1  6  0  0  0
  2 13  1  6  0  0  0
  2  7  1  0  0  0  0
  2  6  1  0  0  0  0
  3  8  1  0  0  0  0
  4 15  1  0  0  0  0
  4 17  1  1  0  0  0
  4  6  1  0  0  0  0
  5 16  1  0  0  0  0
  6 14  1  1  0  0  0
  7 11  1  6  0  0  0
  7  3  1  0  0  0  0
  8  1  1  0  0  0  0
  9 12  1  0  0  0  0
  9  2  1  0  0  0  0
 12  4  1  0  0  0  0
 14  5  1  0  0  0  0
 15 29  1  6  0  0  0
 15 17  1  0  0  0  0
 15 19  1  0  0  0  0
 16 24  1  1  0  0  0
 18 21  1  0  0  0  0
 19 23  1  0  0  0  0
 20 19  2  0  0  0  0
 20 22  1  0  0  0  0
 22 18  2  0  0  0  0
 23 21  2  0  0  0  0
 24 25  1  0  0  0  0
 25 26  1  0  0  0  0
 28 26  1  0  0  0  0
 28 27  1  0  0  0  0
 30 29  1  0  0  0  0
 32 31  1  6  0  0  0
 32 30  1  0  0  0  0
 33 34  2  0  0  0  0
 34 32  1  0  0  0  0
 35 34  1  6  0  0  0
 36 37  2  0  0  0  0
 36 41  1  0  0  0  0
 37 40  1  0  0  0  0
 39 38  1  0  0  0  0
 40 39  1  0  0  0  0
 41 35  1  1  0  0  0
 41 38  1  0  0  0  0
 42 43  1  0  0  0  0
 43 44  1  0  0  0  0
 43 35  1  0  0  0  0
 44 45  1  0  0  0  0
 47 48  1  0  0  0  0
 47 52  1  0  0  0  0
 48 51  1  0  0  0  0
 49 46  1  6  0  0  0
 49 52  1  0  0  0  0
 49 50  1  0  0  0  0
 51 50  1  0  0  0  0
 51 53  1  6  0  0  0
 52 44  1  6  0  0  0
 53 54  1  0  0  0  0
 55 53  2  0  0  0  0
M  END
>  <MODEL>
6

>  <REMARK>
 VINA RESULT:      -5.6      2.211      9.046
  Name = 
  15 active torsions:
  status: ('A' for Active; 'I' for Inactive)
    1  A    between atoms: N_3  and  C_25
    2  A    between atoms: N_3  and  C_38
    3  A    between atoms: C_10  and  C_48
    4  A    between atoms: C_19  and  C_37
    5  A    between atoms: C_19  and  C_45
    6  A    between atoms: C_26  and  C_45
    7  A    between atoms: C_27  and  C_51
    8  A    between atoms: C_29  and  C_38
    9  A    between atoms: C_29  and  C_53
   10  A    between atoms: N_33  and  N_49
   11  A    between atoms: N_33  and  C_52
   12  A    between atoms: C_35  and  O_40
   13  A    between atoms: C_35  and  C_51
   14  A    between atoms: C_37  and  O_40
   15  A    between atoms: C_45  and  N_49
                            x       y       z     vdW  Elec       q    Type
                         _______ _______ _______ _____ _____    ______ ____

>  <TORSDO>
F 15

$$$$
=
 OpenBabel10262420303D

 55 60  0  0  1  0  0  0  0  0999 V2000
  185.3470  178.0080  145.0510 C   0  0  1  0  0  3  0  0  0  0  0  0
  188.4640  176.6740  143.0010 C   0  0  2  0  0  0  0  0  0  0  0  0
  187.4520  177.1210  145.3740 C   0  0  0  0  0  2  0  0  0  0  0  0
  188.6130  178.0710  141.0980 C   0  0  1  0  0  0  0  0  0  0  0  0
  186.6490  179.1390  143.2360 O   0  0  0  0  0  0  0  0  0  0  0  0
  187.5920  177.3150  141.9260 C   0  0  2  0  0  3  0  0  0  0  0  0
  188.5320  177.4630  144.3410 C   0  0  1  0  0  3  0  0  0  0  0  0
  186.1900  176.9010  144.7930 O   0  0  0  0  0  0  0  0  0  0  0  0
  189.8360  176.6730  142.3190 C   0  0  0  0  0  2  0  0  0  0  0  0
  185.1590  178.3220  146.5330 C   0  0  0  0  0  1  0  0  0  0  0  0
  189.7800  177.3240  144.9550 O   0  0  0  0  0  1  0  0  0  0  0  0
  189.9380  177.7620  141.4290 O   0  0  0  0  0  0  0  0  0  0  0  0
  188.0680  175.3520  143.2180 O   0  0  0  0  0  1  0  0  0  0  0  0
  186.3370  178.0970  142.3440 C   0  0  0  0  0  2  0  0  0  0  0  0
  188.3330  178.4560  139.6510 C   0  0  2  0  0  0  0  0  0  0  0  0
  185.6070  179.2640  144.1820 C   0  0  1  0  0  3  0  0  0  0  0  0
  188.3910  179.5320  140.7370 C   0  0  0  0  0  2  0  0  0  0  0  0
  184.4380  177.4280  138.1190 C   0  0  0  0  0  3  0  0  0  0  0  0
  186.9700  178.1210  139.1080 C   0  0  0  0  0  0  0  0  0  0  0  0
  186.8440  177.1640  138.0930 C   0  0  0  0  0  3  0  0  0  0  0  0
  184.5560  178.3850  139.1290 C   0  0  0  0  0  3  0  0  0  0  0  0
  185.5810  176.8200  137.5980 C   0  0  0  0  0  3  0  0  0  0  0  0
  185.8180  178.7340  139.6210 C   0  0  0  0  0  3  0  0  0  0  0  0
  184.3250  179.8100  143.5480 C   0  0  0  0  0  2  0  0  0  0  0  0
  183.1050  179.0150  143.9830 C   0  0  0  0  0  2  0  0  0  0  0  0
  182.1110  179.0040  142.9210 N   0  0  0  0  0  2  0  0  0  0  0  0
  179.9850  177.8710  143.1560 C   0  0  0  0  0  1  0  0  0  0  0  0
  180.8110  179.0740  143.5610 C   0  0  0  0  0  2  0  0  0  0  0  0
  189.5340  178.4070  138.7150 C   0  0  0  0  0  2  0  0  0  0  0  0
  190.1940  177.1770  138.8220 O   0  0  0  0  0  0  0  0  0  0  0  0
  189.8230  177.4550  136.5780 O   0  0  0  0  0  1  0  0  0  0  0  0
  190.6820  176.9140  137.5380 C   0  0  2  0  0  3  0  0  0  0  0  0
  190.8150  174.6830  138.2900 O   0  0  0  0  0  0  0  0  0  0  0  0
  190.7980  175.4370  137.3280 C   0  0  0  0  0  0  0  0  0  0  0  0
  190.8310  174.8940  135.9130 C   0  0  2  0  0  3  0  0  0  0  0  0
  189.2450  173.0090  136.4540 C   0  0  0  0  0  3  0  0  0  0  0  0
  187.9990  172.7040  136.8480 C   0  0  0  0  0  3  0  0  0  0  0  0
  188.3730  175.1190  135.3610 C   0  0  0  0  0  2  0  0  0  0  0  0
  187.0720  174.3430  135.1890 C   0  0  0  0  0  2  0  0  0  0  0  0
  186.8060  173.5380  136.4580 C   0  0  0  0  0  2  0  0  0  0  0  0
  189.5520  174.1480  135.5030 C   0  0  1  0  0  3  0  0  0  0  0  0
  191.6050  172.9480  134.8650 C   0  0  0  0  0  1  0  0  0  0  0  0
  192.0620  174.1400  135.5760 N   0  0  0  0  0  0  0  0  0  0  0  0
  192.9380  174.8950  134.7400 N   0  0  0  0  0  0  0  0  0  0  0  0
  192.4380  176.1610  134.6730 O   0  0  0  0  0  1  0  0  0  0  0  0
  195.0920  172.8400  134.5940 O   0  0  0  0  0  1  0  0  0  0  0  0
  194.2010  174.5020  136.8510 C   0  0  0  0  0  2  0  0  0  0  0  0
  195.5730  174.1960  137.4760 C   0  0  0  0  0  2  0  0  0  0  0  0
  195.3760  174.2080  134.6270 C   0  0  2  0  0  3  0  0  0  0  0  0
  196.7590  174.4320  135.2470 C   0  0  0  0  0  2  0  0  0  0  0  0
  196.7150  174.8780  136.7180 C   0  0  2  0  0  3  0  0  0  0  0  0
  194.2700  174.9780  135.3850 C   0  0  1  0  0  3  0  0  0  0  0  0
  198.0450  174.6560  137.3740 C   0  0  0  0  0  0  0  0  0  0  0  0
  198.3000  175.2380  138.5010 N   0  0  0  0  0  1  0  0  0  0  0  0
  199.0970  173.9860  136.6770 N   0  0  0  0  0  2  0  0  0  0  0  0
  1 10  1  1  0  0  0
  2 13  1  1  0  0  0
  2  7  1  0  0  0  0
  4 17  1  1  0  0  0
  4 12  1  0  0  0  0
  4  6  1  0  0  0  0
  5 16  1  0  0  0  0
  6 14  1  1  0  0  0
  6  2  1  0  0  0  0
  7 11  1  1  0  0  0
  7  3  1  0  0  0  0
  8  1  1  0  0  0  0
  8  3  1  0  0  0  0
  9  2  1  0  0  0  0
 12  9  1  0  0  0  0
 14  5  1  0  0  0  0
 15 29  1  6  0  0  0
 15 17  1  0  0  0  0
 15  4  1  0  0  0  0
 16 24  1  6  0  0  0
 16  1  1  0  0  0  0
 18 21  1  0  0  0  0
 19 23  1  0  0  0  0
 19 15  1  0  0  0  0
 20 19  2  0  0  0  0
 21 23  2  0  0  0  0
 22 20  1  0  0  0  0
 22 18  2  0  0  0  0
 24 25  1  0  0  0  0
 26 28  1  0  0  0  0
 26 25  1  0  0  0  0
 27 28  1  0  0  0  0
 29 30  1  0  0  0  0
 32 31  1  6  0  0  0
 32 30  1  0  0  0  0
 34 32  1  0  0  0  0
 34 33  2  0  0  0  0
 35 34  1  1  0  0  0
 36 37  2  0  0  0  0
 38 41  1  0  0  0  0
 39 38  1  0  0  0  0
 39 40  1  0  0  0  0
 40 37  1  0  0  0  0
 41 35  1  1  0  0  0
 41 36  1  0  0  0  0
 42 43  1  0  0  0  0
 43 35  1  0  0  0  0
 44 43  1  0  0  0  0
 45 44  1  0  0  0  0
 47 48  1  0  0  0  0
 49 46  1  1  0  0  0
 49 50  1  0  0  0  0
 49 52  1  0  0  0  0
 50 51  1  0  0  0  0
 51 53  1  1  0  0  0
 51 48  1  0  0  0  0
 52 44  1  6  0  0  0
 52 47  1  0  0  0  0
 53 54  1  0  0  0  0
 55 53  2  0  0  0  0
M  END
>  <MODEL>
7

>  <REMARK>
 VINA RESULT:      -5.2      2.935     10.006
  Name = 
  15 active torsions:
  status: ('A' for Active; 'I' for Inactive)
    1  A    between atoms: N_3  and  C_25
    2  A    between atoms: N_3  and  C_38
    3  A    between atoms: C_10  and  C_48
    4  A    between atoms: C_19  and  C_37
    5  A    between atoms: C_19  and  C_45
    6  A    between atoms: C_26  and  C_45
    7  A    between atoms: C_27  and  C_51
    8  A    between atoms: C_29  and  C_38
    9  A    between atoms: C_29  and  C_53
   10  A    between atoms: N_33  and  N_49
   11  A    between atoms: N_33  and  C_52
   12  A    between atoms: C_35  and  O_40
   13  A    between atoms: C_35  and  C_51
   14  A    between atoms: C_37  and  O_40
   15  A    between atoms: C_45  and  N_49
                            x       y       z     vdW  Elec       q    Type
                         _______ _______ _______ _____ _____    ______ ____

>  <TORSDO>
F 15

$$$$
=
 OpenBabel10262420303D

 55 60  0  0  1  0  0  0  0  0999 V2000
  185.5500  177.9630  145.3110 C   0  0  1  0  0  3  0  0  0  0  0  0
  188.5180  176.6970  143.0120 C   0  0  2  0  0  0  0  0  0  0  0  0
  187.6740  177.0730  145.4620 C   0  0  0  0  0  2  0  0  0  0  0  0
  188.5330  178.1490  141.1440 C   0  0  1  0  0  0  0  0  0  0  0  0
  186.7220  179.1490  143.4430 O   0  0  0  0  0  0  0  0  0  0  0  0
  187.5730  177.3660  142.0190 C   0  0  2  0  0  3  0  0  0  0  0  0
  188.6790  177.4480  144.3660 C   0  0  1  0  0  3  0  0  0  0  0  0
  186.3740  176.8660  144.9630 O   0  0  0  0  0  0  0  0  0  0  0  0
  189.8400  176.7200  142.2370 C   0  0  0  0  0  2  0  0  0  0  0  0
  185.4650  178.2330  146.8110 C   0  0  0  0  0  1  0  0  0  0  0  0
  189.9670  177.2960  144.8880 O   0  0  0  0  0  1  0  0  0  0  0  0
  189.8780  177.8340  141.3730 O   0  0  0  0  0  0  0  0  0  0  0  0
  188.1400  175.3690  143.2180 O   0  0  0  0  0  1  0  0  0  0  0  0
  186.3490  178.1320  142.5460 C   0  0  0  0  0  2  0  0  0  0  0  0
  188.1530  178.5750  139.7310 C   0  0  2  0  0  0  0  0  0  0  0  0
  185.7480  179.2440  144.4630 C   0  0  1  0  0  3  0  0  0  0  0  0
  188.2850  179.6190  140.8420 C   0  0  0  0  0  2  0  0  0  0  0  0
  184.1420  177.7200  138.4070 C   0  0  0  0  0  3  0  0  0  0  0  0
  186.7560  178.2510  139.2760 C   0  0  0  0  0  0  0  0  0  0  0  0
  185.6640  178.8810  139.8880 C   0  0  0  0  0  3  0  0  0  0  0  0
  185.2250  177.0860  137.7940 C   0  0  0  0  0  3  0  0  0  0  0  0
  184.3600  178.6140  139.4560 C   0  0  0  0  0  3  0  0  0  0  0  0
  186.5280  177.3480  138.2280 C   0  0  0  0  0  3  0  0  0  0  0  0
  184.4240  179.8030  143.9350 C   0  0  0  0  0  2  0  0  0  0  0  0
  183.2930  178.7990  144.0880 C   0  0  0  0  0  2  0  0  0  0  0  0
  182.0110  179.4560  143.8860 N   0  0  0  0  0  2  0  0  0  0  0  0
  179.7450  178.6150  143.9980 C   0  0  0  0  0  1  0  0  0  0  0  0
  181.1060  178.4570  143.3530 C   0  0  0  0  0  2  0  0  0  0  0  0
  189.2860  178.5560  138.7130 C   0  0  0  0  0  2  0  0  0  0  0  0
  189.3230  177.3310  138.0370 O   0  0  0  0  0  0  0  0  0  0  0  0
  188.9720  178.4450  136.0660 O   0  0  0  0  0  1  0  0  0  0  0  0
  189.8540  177.6270  136.7770 C   0  0  2  0  0  3  0  0  0  0  0  0
  190.5030  176.4150  134.8620 O   0  0  0  0  0  0  0  0  0  0  0  0
  190.0900  176.3640  136.0120 C   0  0  0  0  0  0  0  0  0  0  0  0
  189.8690  175.0320  136.7010 C   0  0  2  0  0  3  0  0  0  0  0  0
  191.8170  173.6870  135.8290 C   0  0  0  0  0  3  0  0  0  0  0  0
  193.1440  173.6810  135.6340 C   0  0  0  0  0  3  0  0  0  0  0  0
  192.1270  175.2100  137.8270 C   0  0  0  0  0  2  0  0  0  0  0  0
  193.4920  174.5460  137.9640 C   0  0  0  0  0  2  0  0  0  0  0  0
  194.0980  174.3710  136.5740 C   0  0  0  0  0  2  0  0  0  0  0  0
  191.1680  174.2930  137.0570 C   0  0  1  0  0  3  0  0  0  0  0  0
  188.8460  172.9290  136.8280 C   0  0  0  0  0  1  0  0  0  0  0  0
  188.8800  174.1530  136.0320 N   0  0  0  0  0  0  0  0  0  0  0  0
  187.5820  174.7430  135.9950 N   0  0  0  0  0  0  0  0  0  0  0  0
  187.4340  175.3160  134.7670 O   0  0  0  0  0  1  0  0  0  0  0  0
  184.7570  174.9030  135.0580 O   0  0  0  0  0  1  0  0  0  0  0  0
  185.8850  173.7090  137.4970 C   0  0  0  0  0  2  0  0  0  0  0  0
  184.5770  172.9040  137.5770 C   0  0  0  0  0  2  0  0  0  0  0  0
  185.4910  173.7150  134.9960 C   0  0  2  0  0  3  0  0  0  0  0  0
  184.5380  172.5180  135.0710 C   0  0  0  0  0  2  0  0  0  0  0  0
  184.4740  171.8620  136.4600 C   0  0  2  0  0  3  0  0  0  0  0  0
  186.5610  173.6740  136.1110 C   0  0  1  0  0  3  0  0  0  0  0  0
  183.2420  171.0150  136.5850 C   0  0  0  0  0  0  0  0  0  0  0  0
  183.1830  169.8870  135.9530 N   0  0  0  0  0  2  0  0  0  0  0  0
  182.0690  171.5280  137.2170 N   0  0  0  0  0  1  0  0  0  0  0  0
  1 10  1  1  0  0  0
  2 13  1  1  0  0  0
  2  7  1  0  0  0  0
  4 17  1  1  0  0  0
  4 12  1  0  0  0  0
  4  6  1  0  0  0  0
  5 16  1  0  0  0  0
  6 14  1  1  0  0  0
  6  2  1  0  0  0  0
  7 11  1  1  0  0  0
  7  3  1  0  0  0  0
  8  1  1  0  0  0  0
  8  3  1  0  0  0  0
  9  2  1  0  0  0  0
 12  9  1  0  0  0  0
 14  5  1  0  0  0  0
 15 29  1  6  0  0  0
 15 17  1  0  0  0  0
 15  4  1  0  0  0  0
 16 24  1  6  0  0  0
 16  1  1  0  0  0  0
 18 22  1  0  0  0  0
 19 15  1  0  0  0  0
 19 20  1  0  0  0  0
 21 23  1  0  0  0  0
 21 18  2  0  0  0  0
 22 20  2  0  0  0  0
 23 19  2  0  0  0  0
 24 25  1  0  0  0  0
 26 25  1  0  0  0  0
 28 26  1  0  0  0  0
 28 27  1  0  0  0  0
 30 29  1  0  0  0  0
 32 31  1  6  0  0  0
 32 30  1  0  0  0  0
 33 34  2  0  0  0  0
 34 32  1  0  0  0  0
 35 34  1  6  0  0  0
 36 41  1  0  0  0  0
 37 36  2  0  0  0  0
 37 40  1  0  0  0  0
 38 39  1  0  0  0  0
 40 39  1  0  0  0  0
 41 35  1  6  0  0  0
 41 38  1  0  0  0  0
 43 35  1  0  0  0  0
 43 42  1  0  0  0  0
 44 43  1  0  0  0  0
 45 44  1  0  0  0  0
 47 48  1  0  0  0  0
 49 46  1  1  0  0  0
 49 50  1  0  0  0  0
 49 52  1  0  0  0  0
 50 51  1  0  0  0  0
 51 53  1  1  0  0  0
 51 48  1  0  0  0  0
 52 44  1  6  0  0  0
 52 47  1  0  0  0  0
 53 55  1  0  0  0  0
 54 53  2  0  0  0  0
M  END
>  <MODEL>
8

>  <REMARK>
 VINA RESULT:      -5.1      2.384      8.419
  Name = 
  15 active torsions:
  status: ('A' for Active; 'I' for Inactive)
    1  A    between atoms: N_3  and  C_25
    2  A    between atoms: N_3  and  C_38
    3  A    between atoms: C_10  and  C_48
    4  A    between atoms: C_19  and  C_37
    5  A    between atoms: C_19  and  C_45
    6  A    between atoms: C_26  and  C_45
    7  A    between atoms: C_27  and  C_51
    8  A    between atoms: C_29  and  C_38
    9  A    between atoms: C_29  and  C_53
   10  A    between atoms: N_33  and  N_49
   11  A    between atoms: N_33  and  C_52
   12  A    between atoms: C_35  and  O_40
   13  A    between atoms: C_35  and  C_51
   14  A    between atoms: C_37  and  O_40
   15  A    between atoms: C_45  and  N_49
                            x       y       z     vdW  Elec       q    Type
                         _______ _______ _______ _____ _____    ______ ____

>  <TORSDO>
F 15

$$$$
=
 OpenBabel10262420303D

 55 60  0  0  1  0  0  0  0  0999 V2000
  190.4100  176.7820  146.4620 C   0  0  1  0  0  3  0  0  0  0  0  0
  190.3010  176.1020  142.5610 C   0  0  2  0  0  0  0  0  0  0  0  0
  191.6960  175.8910  144.7670 C   0  0  0  0  0  2  0  0  0  0  0  0
  189.1550  177.9500  141.6290 C   0  0  1  0  0  0  0  0  0  0  0  0
  189.9420  178.3770  144.5900 O   0  0  0  0  0  0  0  0  0  0  0  0
  189.0760  176.9810  142.7930 C   0  0  2  0  0  3  0  0  0  0  0  0
  191.5630  176.5160  143.3730 C   0  0  1  0  0  3  0  0  0  0  0  0
  190.4660  175.8010  145.4450 O   0  0  0  0  0  0  0  0  0  0  0  0
  190.5460  176.3110  141.0630 C   0  0  0  0  0  2  0  0  0  0  0  0
  191.5430  176.6940  147.4820 C   0  0  0  0  0  1  0  0  0  0  0  0
  192.7390  176.2510  142.6640 O   0  0  0  0  0  1  0  0  0  0  0  0
  190.1160  177.5960  140.6740 O   0  0  0  0  0  0  0  0  0  0  0  0
  189.9810  174.7600  142.7820 O   0  0  0  0  0  1  0  0  0  0  0  0
  188.8460  177.5970  144.1820 C   0  0  0  0  0  2  0  0  0  0  0  0
  187.9230  178.6930  141.1290 C   0  0  2  0  0  0  0  0  0  0  0  0
  190.1210  178.2270  145.9840 C   0  0  1  0  0  3  0  0  0  0  0  0
  189.0350  179.4490  141.8590 C   0  0  0  0  0  2  0  0  0  0  0  0
  184.2380  178.0310  143.2650 C   0  0  0  0  0  3  0  0  0  0  0  0
  186.6430  178.4800  141.8920 C   0  0  0  0  0  0  0  0  0  0  0  0
  185.4140  178.7150  141.2620 C   0  0  0  0  0  3  0  0  0  0  0  0
  185.4590  177.7970  143.8990 C   0  0  0  0  0  3  0  0  0  0  0  0
  184.2140  178.4940  141.9480 C   0  0  0  0  0  3  0  0  0  0  0  0
  186.6590  178.0230  143.2170 C   0  0  0  0  0  3  0  0  0  0  0  0
  188.9920  178.8890  146.7780 C   0  0  0  0  0  2  0  0  0  0  0  0
  188.8570  178.2850  148.1660 C   0  0  0  0  0  2  0  0  0  0  0  0
  187.4530  178.0770  148.4860 N   0  0  0  0  0  2  0  0  0  0  0  0
  185.5990  178.9710  147.2140 C   0  0  0  0  0  1  0  0  0  0  0  0
  186.7440  177.9800  147.2250 C   0  0  0  0  0  2  0  0  0  0  0  0
  187.8580  178.9170  139.6240 C   0  0  0  0  0  2  0  0  0  0  0  0
  187.6460  177.7080  138.9520 O   0  0  0  0  0  0  0  0  0  0  0  0
  188.7720  179.1350  137.5570 O   0  0  0  0  0  1  0  0  0  0  0  0
  188.4040  177.8060  137.7810 C   0  0  2  0  0  3  0  0  0  0  0  0
  187.1380  178.0960  135.8130 O   0  0  0  0  0  0  0  0  0  0  0  0
  187.6120  177.3040  136.6150 C   0  0  0  0  0  0  0  0  0  0  0  0
  187.4620  175.8090  136.4150 C   0  0  2  0  0  3  0  0  0  0  0  0
  189.6500  176.1030  135.1940 C   0  0  0  0  0  3  0  0  0  0  0  0
  190.9860  176.0680  135.3150 C   0  0  0  0  0  3  0  0  0  0  0  0
  189.4480  174.3640  137.0220 C   0  0  0  0  0  2  0  0  0  0  0  0
  190.8170  173.8900  136.5510 C   0  0  0  0  0  2  0  0  0  0  0  0
  191.6830  175.1090  136.2450 C   0  0  0  0  0  2  0  0  0  0  0  0
  188.7330  175.1210  135.8950 C   0  0  1  0  0  3  0  0  0  0  0  0
  186.7100  174.4360  134.6720 C   0  0  0  0  0  1  0  0  0  0  0  0
  186.2510  175.4120  135.6580 N   0  0  0  0  0  0  0  0  0  0  0  0
  185.2660  174.8180  136.5020 N   0  0  0  0  0  0  0  0  0  0  0  0
  185.9300  174.1090  137.4580 O   0  0  0  0  0  1  0  0  0  0  0  0
  182.5120  174.5850  137.6200 O   0  0  0  0  0  1  0  0  0  0  0  0
  183.7940  176.8000  136.1720 C   0  0  0  0  0  2  0  0  0  0  0  0
  182.7000  177.6900  136.7850 C   0  0  0  0  0  2  0  0  0  0  0  0
  183.4970  175.3630  138.2350 C   0  0  2  0  0  3  0  0  0  0  0  0
  182.8370  176.5010  139.0200 C   0  0  0  0  0  2  0  0  0  0  0  0
  182.8730  177.8570  138.2970 C   0  0  2  0  0  3  0  0  0  0  0  0
  184.5090  175.8900  137.1920 C   0  0  1  0  0  3  0  0  0  0  0  0
  181.8610  178.7940  138.8850 C   0  0  0  0  0  0  0  0  0  0  0  0
  182.2250  179.9900  139.2200 N   0  0  0  0  0  2  0  0  0  0  0  0
  180.5690  178.3210  139.2690 N   0  0  0  0  0  1  0  0  0  0  0  0
  1 10  1  6  0  0  0
  2 13  1  1  0  0  0
  2  6  1  0  0  0  0
  2  7  1  0  0  0  0
  3  8  1  0  0  0  0
  4 17  1  1  0  0  0
  4  6  1  0  0  0  0
  5 16  1  0  0  0  0
  6 14  1  1  0  0  0
  7 11  1  6  0  0  0
  7  3  1  0  0  0  0
  8  1  1  0  0  0  0
  9  2  1  0  0  0  0
 12  9  1  0  0  0  0
 12  4  1  0  0  0  0
 14  5  1  0  0  0  0
 15 29  1  6  0  0  0
 15  4  1  0  0  0  0
 15 17  1  0  0  0  0
 15 19  1  0  0  0  0
 16  1  1  0  0  0  0
 16 24  1  1  0  0  0
 18 21  1  0  0  0  0
 19 23  1  0  0  0  0
 20 19  2  0  0  0  0
 20 22  1  0  0  0  0
 22 18  2  0  0  0  0
 23 21  2  0  0  0  0
 24 25  1  0  0  0  0
 25 26  1  0  0  0  0
 27 28  1  0  0  0  0
 28 26  1  0  0  0  0
 30 29  1  0  0  0  0
 32 31  1  6  0  0  0
 32 30  1  0  0  0  0
 33 34  2  0  0  0  0
 34 32  1  0  0  0  0
 35 34  1  6  0  0  0
 36 37  2  0  0  0  0
 36 41  1  0  0  0  0
 37 40  1  0  0  0  0
 39 38  1  0  0  0  0
 40 39  1  0  0  0  0
 41 35  1  1  0  0  0
 41 38  1  0  0  0  0
 42 43  1  0  0  0  0
 43 35  1  0  0  0  0
 43 44  1  0  0  0  0
 44 45  1  0  0  0  0
 47 48  1  0  0  0  0
 47 52  1  0  0  0  0
 48 51  1  0  0  0  0
 49 46  1  6  0  0  0
 49 50  1  0  0  0  0
 51 53  1  1  0  0  0
 51 50  1  0  0  0  0
 52 44  1  6  0  0  0
 52 49  1  0  0  0  0
 53 54  2  0  0  0  0
 53 55  1  0  0  0  0
M  END
>  <MODEL>
9

>  <REMARK>
 VINA RESULT:      -4.9      2.562      7.896
  Name = 
  15 active torsions:
  status: ('A' for Active; 'I' for Inactive)
    1  A    between atoms: N_3  and  C_25
    2  A    between atoms: N_3  and  C_38
    3  A    between atoms: C_10  and  C_48
    4  A    between atoms: C_19  and  C_37
    5  A    between atoms: C_19  and  C_45
    6  A    between atoms: C_26  and  C_45
    7  A    between atoms: C_27  and  C_51
    8  A    between atoms: C_29  and  C_38
    9  A    between atoms: C_29  and  C_53
   10  A    between atoms: N_33  and  N_49
   11  A    between atoms: N_33  and  C_52
   12  A    between atoms: C_35  and  O_40
   13  A    between atoms: C_35  and  C_51
   14  A    between atoms: C_37  and  O_40
   15  A    between atoms: C_45  and  N_49
                            x       y       z     vdW  Elec       q    Type
                         _______ _______ _______ _____ _____    ______ ____

>  <TORSDO>
F 15

$$$$
