=
 OpenBabel10262423303D

 34 39  0  0  1  0  0  0  0  0999 V2000
  186.5950  178.1850  143.7400 N   0  0  0  0  0  0  0  0  0  0  0  0
  182.9260  178.9790  144.4050 C   0  0  0  0  0  3  0  0  0  0  0  0
  184.8060  178.5370  145.8840 C   0  0  0  0  0  3  0  0  0  0  0  0
  189.2330  177.4330  144.3170 N   0  0  0  0  0  0  0  0  0  0  0  0
  187.5440  177.9770  142.6800 C   0  0  0  0  0  3  0  0  0  0  0  0
  188.4440  177.6260  145.3320 C   0  0  0  0  0  0  0  0  0  0  0  0
  187.9030  177.6910  147.7750 C   0  0  0  0  0  3  0  0  0  0  0  0
  188.9600  177.4420  146.7280 C   0  0  0  0  0  3  0  0  0  0  0  0
  188.8070  177.6020  142.9490 C   0  0  0  0  0  0  0  0  0  0  0  0
  186.2200  178.2160  146.1300 C   0  0  0  0  0  0  0  0  0  0  0  0
  187.0500  178.0250  145.0960 C   0  0  2  0  0  3  0  0  0  0  0  0
  186.6830  178.0360  147.4770 N   0  0  0  0  0  0  0  0  0  0  0  0
  182.4390  178.8320  143.1680 C   0  0  0  0  0  0  0  0  0  0  0  0
  183.3170  178.3850  142.0610 C   0  0  0  0  0  3  0  0  0  0  0  0
  184.3600  178.7680  144.6480 C   0  0  0  0  0  0  0  0  0  0  0  0
  184.6470  178.3350  142.2070 C   0  0  0  0  0  3  0  0  0  0  0  0
  185.3070  178.8390  143.4670 C   0  0  2  0  0  3  0  0  0  0  0  0
  192.0630  177.3020  141.0180 C   0  0  0  0  0  3  0  0  0  0  0  0
  189.3090  177.0220  140.5770 C   0  0  0  0  0  3  0  0  0  0  0  0
  192.0240  176.3770  137.4300 C   0  0  0  0  0  0  0  0  0  0  0  0
  192.4930  176.7330  138.7040 C   0  0  0  0  0  3  0  0  0  0  0  0
  191.5950  176.9480  139.7520 C   0  0  0  0  0  0  0  0  0  0  0  0
  189.7390  176.4530  138.2620 C   0  0  0  0  0  3  0  0  0  0  0  0
  190.2070  176.8070  139.5290 C   0  0  0  0  0  0  0  0  0  0  0  0
  190.6440  176.2390  137.2180 C   0  0  0  0  0  3  0  0  0  0  0  0
  189.7740  177.3780  141.8520 C   0  0  0  0  0  0  0  0  0  0  0  0
  191.1580  177.5160  142.0620 C   0  0  0  0  0  3  0  0  0  0  0  0
  192.9730  176.1500  136.3250 C   0  0  0  0  0  0  0  0  0  0  0  0
  194.3000  176.6610  136.3980 N   0  0  0  0  0  1  0  0  0  0  0  0
  192.6180  175.5020  135.3050 O   0  0  0  0  0  0  0  0  0  0  0  0
  180.9830  179.0390  142.9200 C   0  0  0  0  0  2  0  0  0  0  0  0
  180.1660  178.6510  144.1430 C   0  0  1  0  0  3  0  0  0  0  0  0
  178.9310  179.5220  144.2160 C   0  0  0  0  0  1  0  0  0  0  0  0
  179.7810  177.3120  144.0530 O   0  0  0  0  0  1  0  0  0  0  0  0
  1 11  1  0  0  0  0
  2 15  1  0  0  0  0
  3 10  1  0  0  0  0
  4  6  2  0  0  0  0
  5  9  2  0  0  0  0
  5  1  1  0  0  0  0
  6  8  1  0  0  0  0
  8  7  2  0  0  0  0
  9  4  1  0  0  0  0
 10 12  2  0  0  0  0
 11  6  1  6  0  0  0
 11 10  1  0  0  0  0
 12  7  1  0  0  0  0
 13  2  2  0  0  0  0
 14 16  2  0  0  0  0
 14 13  1  0  0  0  0
 15  3  2  0  0  0  0
 17 16  1  6  0  0  0
 17  1  1  0  0  0  0
 17 15  1  0  0  0  0
 18 27  1  0  0  0  0
 19 26  1  0  0  0  0
 20 21  2  0  0  0  0
 21 22  1  0  0  0  0
 22 18  2  0  0  0  0
 23 24  1  0  0  0  0
 24 22  1  0  0  0  0
 24 19  2  0  0  0  0
 25 20  1  0  0  0  0
 25 23  2  0  0  0  0
 26 27  2  0  0  0  0
 26  9  1  0  0  0  0
 28 29  1  0  0  0  0
 28 20  1  0  0  0  0
 30 28  2  0  0  0  0
 31 13  1  0  0  0  0
 31 32  1  0  0  0  0
 32 33  1  6  0  0  0
 34 32  1  0  0  0  0
M  END
>  <MODEL>
1

>  <REMARK>
 VINA RESULT:     -11.0      0.000      0.000
  Name = 
  4 active torsions:
  status: ('A' for Active; 'I' for Inactive)
    1  A    between atoms: C_3  and  C_25
    2  A    between atoms: C_7  and  C_11
    3  A    between atoms: C_18  and  C_30
    4  A    between atoms: C_23  and  C_25
                            x       y       z     vdW  Elec       q    Type
                         _______ _______ _______ _____ _____    ______ ____

>  <TORSDO>
F 4

$$$$
=
 OpenBabel10262423303D

 34 39  0  0  1  0  0  0  0  0999 V2000
  186.5320  178.1320  143.4250 N   0  0  0  0  0  0  0  0  0  0  0  0
  183.0520  179.0290  144.6940 C   0  0  0  0  0  3  0  0  0  0  0  0
  185.1280  178.4860  145.8380 C   0  0  0  0  0  3  0  0  0  0  0  0
  189.2000  177.2780  143.5500 N   0  0  0  0  0  0  0  0  0  0  0  0
  187.2890  177.9210  142.2210 C   0  0  0  0  0  3  0  0  0  0  0  0
  188.5920  177.4690  144.6830 C   0  0  0  0  0  0  0  0  0  0  0  0
  188.4560  177.4870  147.1830 C   0  0  0  0  0  3  0  0  0  0  0  0
  189.3210  177.2310  145.9740 C   0  0  0  0  0  3  0  0  0  0  0  0
  188.5650  177.4970  142.2730 C   0  0  0  0  0  0  0  0  0  0  0  0
  186.5500  178.1110  145.8440 C   0  0  0  0  0  0  0  0  0  0  0  0
  187.1940  177.9210  144.6850 C   0  0  2  0  0  3  0  0  0  0  0  0
  187.2180  177.8800  147.0940 N   0  0  0  0  0  0  0  0  0  0  0  0
  182.3660  178.9310  143.5490 C   0  0  0  0  0  0  0  0  0  0  0  0
  183.0360  178.4850  142.3060 C   0  0  0  0  0  3  0  0  0  0  0  0
  184.4970  178.7640  144.6960 C   0  0  0  0  0  0  0  0  0  0  0  0
  184.3690  178.3870  142.2320 C   0  0  0  0  0  3  0  0  0  0  0  0
  185.2420  178.8350  143.3790 C   0  0  2  0  0  3  0  0  0  0  0  0
  189.4190  176.8870  138.6240 C   0  0  0  0  0  3  0  0  0  0  0  0
  190.7340  177.2220  141.0760 C   0  0  0  0  0  3  0  0  0  0  0  0
  192.9570  176.5800  137.5640 C   0  0  0  0  0  0  0  0  0  0  0  0
  191.5550  176.6270  137.5130 C   0  0  0  0  0  3  0  0  0  0  0  0
  190.8130  176.8400  138.6770 C   0  0  0  0  0  0  0  0  0  0  0  0
  192.8700  176.9620  139.9650 C   0  0  0  0  0  3  0  0  0  0  0  0
  191.4760  177.0090  139.9120 C   0  0  0  0  0  0  0  0  0  0  0  0
  193.6060  176.7480  138.7950 C   0  0  0  0  0  3  0  0  0  0  0  0
  189.3330  177.2710  141.0290 C   0  0  0  0  0  0  0  0  0  0  0  0
  188.6830  177.1010  139.7930 C   0  0  0  0  0  3  0  0  0  0  0  0
  193.7380  176.3540  136.3350 C   0  0  0  0  0  0  0  0  0  0  0  0
  193.3660  175.3270  135.4210 N   0  0  0  0  0  1  0  0  0  0  0  0
  194.7440  177.0680  136.0810 O   0  0  0  0  0  0  0  0  0  0  0  0
  180.8970  179.1930  143.5460 C   0  0  0  0  0  2  0  0  0  0  0  0
  180.4210  179.5840  142.1560 C   0  0  1  0  0  3  0  0  0  0  0  0
  179.3690  178.6000  141.6920 C   0  0  0  0  0  1  0  0  0  0  0  0
  179.8720  180.8670  142.1840 O   0  0  0  0  0  1  0  0  0  0  0  0
  1 11  1  0  0  0  0
  2 15  1  0  0  0  0
  3 10  1  0  0  0  0
  4  6  2  0  0  0  0
  5  9  2  0  0  0  0
  5  1  1  0  0  0  0
  6  8  1  0  0  0  0
  8  7  2  0  0  0  0
  9  4  1  0  0  0  0
 10 12  2  0  0  0  0
 11  6  1  6  0  0  0
 11 10  1  0  0  0  0
 12  7  1  0  0  0  0
 13  2  2  0  0  0  0
 14 13  1  0  0  0  0
 15  3  2  0  0  0  0
 16 14  2  0  0  0  0
 17 16  1  6  0  0  0
 17  1  1  0  0  0  0
 17 15  1  0  0  0  0
 18 22  2  0  0  0  0
 18 27  1  0  0  0  0
 20 25  1  0  0  0  0
 21 20  2  0  0  0  0
 21 22  1  0  0  0  0
 22 24  1  0  0  0  0
 24 23  1  0  0  0  0
 24 19  2  0  0  0  0
 25 23  2  0  0  0  0
 26 19  1  0  0  0  0
 26  9  1  0  0  0  0
 27 26  2  0  0  0  0
 28 20  1  0  0  0  0
 29 28  1  0  0  0  0
 30 28  2  0  0  0  0
 31 13  1  0  0  0  0
 32 33  1  1  0  0  0
 32 34  1  0  0  0  0
 32 31  1  0  0  0  0
M  END
>  <MODEL>
2

>  <REMARK>
 VINA RESULT:     -10.4      1.174      1.753
  Name = 
  4 active torsions:
  status: ('A' for Active; 'I' for Inactive)
    1  A    between atoms: C_3  and  C_25
    2  A    between atoms: C_7  and  C_11
    3  A    between atoms: C_18  and  C_30
    4  A    between atoms: C_23  and  C_25
                            x       y       z     vdW  Elec       q    Type
                         _______ _______ _______ _____ _____    ______ ____

>  <TORSDO>
F 4

$$$$
=
 OpenBabel10262423303D

 34 39  0  0  1  0  0  0  0  0999 V2000
  189.2610  177.2910  143.3930 N   0  0  0  0  0  0  0  0  0  0  0  0
  192.3760  176.6590  141.2890 C   0  0  0  0  0  2  0  0  0  0  0  0
  191.9830  176.6430  143.6890 C   0  0  0  0  0  3  0  0  0  0  0  0
  187.7310  177.7040  145.7050 N   0  0  0  0  0  0  0  0  0  0  0  0
  187.8700  177.6400  143.2950 C   0  0  0  0  0  3  0  0  0  0  0  0
  188.9750  177.3680  145.8780 C   0  0  0  0  0  0  0  0  0  0  0  0
  190.9850  176.8430  147.2730 C   0  0  0  0  0  3  0  0  0  0  0  0
  189.5250  177.2210  147.2660 C   0  0  0  0  0  3  0  0  0  0  0  0
  187.1330  177.8540  144.4000 C   0  0  0  0  0  0  0  0  0  0  0  0
  191.1150  176.7980  144.8660 C   0  0  0  0  0  0  0  0  0  0  0  0
  189.8280  177.1330  144.7050 C   0  0  2  0  0  3  0  0  0  0  0  0
  191.6720  176.6610  146.1820 N   0  0  0  0  0  0  0  0  0  0  0  0
  191.9360  177.0950  140.1030 C   0  0  0  0  0  0  0  0  0  0  0  0
  190.5860  177.6920  139.9740 C   0  0  0  0  0  3  0  0  0  0  0  0
  191.4830  176.7060  142.4540 C   0  0  0  0  0  0  0  0  0  0  0  0
  189.6930  177.6080  140.9670 C   0  0  0  0  0  3  0  0  0  0  0  0
  189.9900  176.8080  142.2120 C   0  0  0  0  0  0  0  0  0  0  0  0
  183.6160  178.9610  145.3100 C   0  0  0  0  0  3  0  0  0  0  0  0
  185.0700  178.1880  143.0410 C   0  0  0  0  0  3  0  0  0  0  0  0
  181.0110  179.2320  142.6870 C   0  0  0  0  0  0  0  0  0  0  0  0
  181.6430  179.2690  143.9410 C   0  0  0  0  0  3  0  0  0  0  0  0
  182.9900  178.9230  144.0620 C   0  0  0  0  0  0  0  0  0  0  0  0
  183.0970  178.4960  141.6720 C   0  0  0  0  0  3  0  0  0  0  0  0
  183.7220  178.5340  142.9190 C   0  0  0  0  0  0  0  0  0  0  0  0
  181.7470  178.8440  141.5580 C   0  0  0  0  0  3  0  0  0  0  0  0
  185.7050  178.2240  144.2920 C   0  0  0  0  0  0  0  0  0  0  0  0
  184.9650  178.6130  145.4230 C   0  0  0  0  0  3  0  0  0  0  0  0
  179.5890  179.5970  142.5600 C   0  0  0  0  0  0  0  0  0  0  0  0
  178.9330  179.5150  141.2980 N   0  0  0  0  0  1  0  0  0  0  0  0
  178.9390  179.9840  143.5670 O   0  0  0  0  0  0  0  0  0  0  0  0
  192.8440  177.0550  138.9200 C   0  0  0  0  0  2  0  0  0  0  0  0
  192.2290  176.2390  137.7940 C   0  0  1  0  0  3  0  0  0  0  0  0
  193.3060  175.8750  136.7950 C   0  0  0  0  0  1  0  0  0  0  0  0
  191.6630  175.0700  138.3070 O   0  0  0  0  0  1  0  0  0  0  0  0
  1 11  1  0  0  0  0
  2 15  1  0  0  0  0
  3 10  1  0  0  0  0
  4  6  2  0  0  0  0
  5  1  1  0  0  0  0
  5  9  2  0  0  0  0
  6  8  1  0  0  0  0
  8  7  2  0  0  0  0
  9  4  1  0  0  0  0
 10 12  2  0  0  0  0
 11 10  1  1  0  0  0
 11  6  1  0  0  0  0
 12  7  1  0  0  0  0
 13  2  1  0  0  0  0
 14 13  2  0  0  0  0
 14 16  1  0  0  0  0
 15  3  2  0  0  0  0
 16 17  2  0  0  0  0
 17 15  1  0  0  0  0
 17  1  1  0  0  0  0
 18 27  1  0  0  0  0
 19 26  1  0  0  0  0
 20 21  2  0  0  0  0
 21 22  1  0  0  0  0
 22 18  2  0  0  0  0
 23 24  1  0  0  0  0
 24 19  2  0  0  0  0
 24 22  1  0  0  0  0
 25 23  2  0  0  0  0
 25 20  1  0  0  0  0
 26  9  1  0  0  0  0
 26 27  2  0  0  0  0
 28 20  1  0  0  0  0
 28 30  2  0  0  0  0
 29 28  1  0  0  0  0
 31 13  1  0  0  0  0
 32 33  1  6  0  0  0
 32 34  1  0  0  0  0
 32 31  1  0  0  0  0
M  END
>  <MODEL>
3

>  <REMARK>
 VINA RESULT:      -9.9      2.010      9.287
  Name = 
  4 active torsions:
  status: ('A' for Active; 'I' for Inactive)
    1  A    between atoms: C_3  and  C_25
    2  A    between atoms: C_7  and  C_11
    3  A    between atoms: C_18  and  C_30
    4  A    between atoms: C_23  and  C_25
                            x       y       z     vdW  Elec       q    Type
                         _______ _______ _______ _____ _____    ______ ____

>  <TORSDO>
F 4

$$$$
=
 OpenBabel10262423303D

 34 39  0  0  1  0  0  0  0  0999 V2000
  182.6380  178.7040  141.4320 N   0  0  0  0  0  0  0  0  0  0  0  0
  181.3880  178.6580  137.8320 C   0  0  0  0  0  2  0  0  0  0  0  0
  180.2700  179.0600  139.9540 C   0  0  0  0  0  3  0  0  0  0  0  0
  182.4900  178.8050  144.2300 N   0  0  0  0  0  0  0  0  0  0  0  0
  183.8160  178.5120  142.2340 C   0  0  0  0  0  3  0  0  0  0  0  0
  181.3850  179.0130  143.5770 C   0  0  0  0  0  0  0  0  0  0  0  0
  178.9340  179.4880  143.4060 C   0  0  0  0  0  3  0  0  0  0  0  0
  180.1140  179.2890  144.3240 C   0  0  0  0  0  3  0  0  0  0  0  0
  183.7500  178.5450  143.5770 C   0  0  0  0  0  0  0  0  0  0  0  0
  180.2660  179.1770  141.4210 C   0  0  0  0  0  0  0  0  0  0  0  0
  181.3980  178.9770  142.1080 C   0  0  2  0  0  3  0  0  0  0  0  0
  179.0320  179.4320  142.1090 N   0  0  0  0  0  0  0  0  0  0  0  0
  182.4530  178.1150  137.2330 C   0  0  0  0  0  0  0  0  0  0  0  0
  183.6200  177.6690  138.0300 C   0  0  0  0  0  3  0  0  0  0  0  0
  181.4090  178.8830  139.2830 C   0  0  0  0  0  0  0  0  0  0  0  0
  183.7430  177.9970  139.3220 C   0  0  0  0  0  3  0  0  0  0  0  0
  182.7530  178.9250  139.9840 C   0  0  0  0  0  0  0  0  0  0  0  0
  186.1290  178.4250  146.5340 C   0  0  0  0  0  3  0  0  0  0  0  0
  186.1300  177.8350  143.7940 C   0  0  0  0  0  3  0  0  0  0  0  0
  189.6050  177.2220  146.0820 C   0  0  0  0  0  0  0  0  0  0  0  0
  188.4410  177.7220  146.6870 C   0  0  0  0  0  3  0  0  0  0  0  0
  187.2850  177.9270  145.9310 C   0  0  0  0  0  0  0  0  0  0  0  0
  188.4420  177.1320  143.9470 C   0  0  0  0  0  3  0  0  0  0  0  0
  187.2860  177.6300  144.5500 C   0  0  0  0  0  0  0  0  0  0  0  0
  189.5960  176.9300  144.7100 C   0  0  0  0  0  3  0  0  0  0  0  0
  184.9640  178.3340  144.3940 C   0  0  0  0  0  0  0  0  0  0  0  0
  184.9750  178.6270  145.7710 C   0  0  0  0  0  3  0  0  0  0  0  0
  190.8250  177.0070  146.8810 C   0  0  0  0  0  0  0  0  0  0  0  0
  191.9820  176.4260  146.2880 N   0  0  0  0  0  1  0  0  0  0  0  0
  190.8550  177.3350  148.0970 O   0  0  0  0  0  0  0  0  0  0  0  0
  182.4310  177.8790  135.7600 C   0  0  0  0  0  2  0  0  0  0  0  0
  182.6580  176.4100  135.4440 C   0  0  1  0  0  3  0  0  0  0  0  0
  181.4350  175.8530  134.7480 C   0  0  0  0  0  1  0  0  0  0  0  0
  183.7680  176.2680  134.6090 O   0  0  0  0  0  1  0  0  0  0  0  0
  1 11  1  0  0  0  0
  1  5  1  0  0  0  0
  2 15  1  0  0  0  0
  3 10  1  0  0  0  0
  5  9  2  0  0  0  0
  6  4  2  0  0  0  0
  6  8  1  0  0  0  0
  7  8  2  0  0  0  0
  9  4  1  0  0  0  0
  9 26  1  0  0  0  0
 10 12  2  0  0  0  0
 11 10  1  1  0  0  0
 11  6  1  0  0  0  0
 12  7  1  0  0  0  0
 13  2  1  0  0  0  0
 13 14  2  0  0  0  0
 14 16  1  0  0  0  0
 15  3  2  0  0  0  0
 15 17  1  0  0  0  0
 16 17  2  0  0  0  0
 17  1  1  0  0  0  0
 19 26  2  0  0  0  0
 19 24  1  0  0  0  0
 20 21  1  0  0  0  0
 20 28  1  0  0  0  0
 22 18  1  0  0  0  0
 22 21  2  0  0  0  0
 23 24  2  0  0  0  0
 23 25  1  0  0  0  0
 24 22  1  0  0  0  0
 25 20  2  0  0  0  0
 26 27  1  0  0  0  0
 27 18  2  0  0  0  0
 28 30  2  0  0  0  0
 29 28  1  0  0  0  0
 31 13  1  0  0  0  0
 32 33  1  6  0  0  0
 32 31  1  0  0  0  0
 34 32  1  0  0  0  0
M  END
>  <MODEL>
4

>  <REMARK>
 VINA RESULT:      -9.8      4.624      7.727
  Name = 
  4 active torsions:
  status: ('A' for Active; 'I' for Inactive)
    1  A    between atoms: C_3  and  C_25
    2  A    between atoms: C_7  and  C_11
    3  A    between atoms: C_18  and  C_30
    4  A    between atoms: C_23  and  C_25
                            x       y       z     vdW  Elec       q    Type
                         _______ _______ _______ _____ _____    ______ ____

>  <TORSDO>
F 4

$$$$
=
 OpenBabel10262423303D

 34 39  0  0  1  0  0  0  0  0999 V2000
  191.3610  176.4550  138.0480 N   0  0  0  0  0  0  0  0  0  0  0  0
  193.8330  175.3900  135.3500 C   0  0  0  0  0  2  0  0  0  0  0  0
  191.4810  176.0040  135.2740 C   0  0  0  0  0  3  0  0  0  0  0  0
  188.8850  177.1200  139.1830 N   0  0  0  0  0  0  0  0  0  0  0  0
  191.2420  176.6790  139.4640 C   0  0  0  0  0  3  0  0  0  0  0  0
  188.9140  176.9570  137.8940 C   0  0  0  0  0  0  0  0  0  0  0  0
  187.8760  176.8830  135.6180 C   0  0  0  0  0  3  0  0  0  0  0  0
  187.6580  177.1260  137.0900 C   0  0  0  0  0  2  0  0  0  0  0  0
  190.0550  176.9850  140.0170 C   0  0  0  0  0  0  0  0  0  0  0  0
  190.2260  176.4280  135.9120 C   0  0  0  0  0  0  0  0  0  0  0  0
  190.1820  176.6110  137.2380 C   0  0  0  0  0  0  0  0  0  0  0  0
  189.0380  176.5710  135.1190 N   0  0  0  0  0  0  0  0  0  0  0  0
  194.8350  174.9570  136.1240 C   0  0  0  0  0  0  0  0  0  0  0  0
  194.6920  174.9360  137.5980 C   0  0  0  0  0  3  0  0  0  0  0  0
  192.6130  175.9200  135.9740 C   0  0  0  0  0  0  0  0  0  0  0  0
  193.6690  175.5500  138.2050 C   0  0  0  0  0  3  0  0  0  0  0  0
  192.6850  176.3800  137.4160 C   0  0  0  0  0  0  0  0  0  0  0  0
  190.9530  177.6750  143.6420 C   0  0  0  0  0  3  0  0  0  0  0  0
  188.6800  177.1400  142.0900 C   0  0  0  0  0  3  0  0  0  0  0  0
  188.3060  177.7520  146.2350 C   0  0  0  0  0  0  0  0  0  0  0  0
  189.5680  177.8150  145.6240 C   0  0  0  0  0  3  0  0  0  0  0  0
  189.6970  177.6120  144.2480 C   0  0  0  0  0  0  0  0  0  0  0  0
  187.2960  177.2800  144.0720 C   0  0  0  0  0  3  0  0  0  0  0  0
  188.5520  177.3430  143.4670 C   0  0  0  0  0  0  0  0  0  0  0  0
  187.1740  177.4840  145.4510 C   0  0  0  0  0  3  0  0  0  0  0  0
  189.9400  177.2020  141.4760 C   0  0  0  0  0  0  0  0  0  0  0  0
  191.0730  177.4710  142.2640 C   0  0  0  0  0  3  0  0  0  0  0  0
  188.1720  177.9650  147.6870 C   0  0  0  0  0  0  0  0  0  0  0  0
  189.3210  178.2260  148.4870 N   0  0  0  0  0  1  0  0  0  0  0  0
  187.0390  177.9200  148.2340 O   0  0  0  0  0  0  0  0  0  0  0  0
  196.0710  174.4120  135.4920 C   0  0  0  0  0  2  0  0  0  0  0  0
  197.3140  174.9860  136.1550 C   0  0  1  0  0  3  0  0  0  0  0  0
  198.5460  174.4090  135.4910 C   0  0  0  0  0  1  0  0  0  0  0  0
  197.3270  176.3750  136.0220 O   0  0  0  0  0  1  0  0  0  0  0  0
  1  5  1  0  0  0  0
  2 15  1  0  0  0  0
  2 13  1  0  0  0  0
  3 10  1  0  0  0  0
  3 15  2  0  0  0  0
  4  9  1  0  0  0  0
  5  9  2  0  0  0  0
  6  4  2  0  0  0  0
  7  8  1  0  0  0  0
  8  6  1  0  0  0  0
  9 26  1  0  0  0  0
 10 11  2  0  0  0  0
 11  6  1  0  0  0  0
 11  1  1  0  0  0  0
 12  7  2  0  0  0  0
 12 10  1  0  0  0  0
 13 14  2  0  0  0  0
 14 16  1  0  0  0  0
 15 17  1  0  0  0  0
 17  1  1  0  0  0  0
 17 16  2  0  0  0  0
 18 22  1  0  0  0  0
 19 24  1  0  0  0  0
 20 28  1  0  0  0  0
 21 20  1  0  0  0  0
 22 21  2  0  0  0  0
 23 25  1  0  0  0  0
 24 23  2  0  0  0  0
 24 22  1  0  0  0  0
 25 20  2  0  0  0  0
 26 19  2  0  0  0  0
 26 27  1  0  0  0  0
 27 18  2  0  0  0  0
 28 30  2  0  0  0  0
 28 29  1  0  0  0  0
 31 13  1  0  0  0  0
 31 32  1  0  0  0  0
 32 33  1  6  0  0  0
 34 32  1  0  0  0  0
M  END
>  <MODEL>
5

>  <REMARK>
 VINA RESULT:      -9.5      3.631     11.225
  Name = 
  4 active torsions:
  status: ('A' for Active; 'I' for Inactive)
    1  A    between atoms: C_3  and  C_25
    2  A    between atoms: C_7  and  C_11
    3  A    between atoms: C_18  and  C_30
    4  A    between atoms: C_23  and  C_25
                            x       y       z     vdW  Elec       q    Type
                         _______ _______ _______ _____ _____    ______ ____

>  <TORSDO>
F 4

$$$$
=
 OpenBabel10262423303D

 34 39  0  0  1  0  0  0  0  0999 V2000
  185.9720  178.1420  141.5130 N   0  0  0  0  0  0  0  0  0  0  0  0
  182.2820  178.9510  141.0020 C   0  0  0  0  0  2  0  0  0  0  0  0
  184.1640  178.8180  139.4660 C   0  0  0  0  0  3  0  0  0  0  0  0
  188.6840  177.8690  140.8570 N   0  0  0  0  0  0  0  0  0  0  0  0
  186.9390  177.8130  142.5250 C   0  0  0  0  0  3  0  0  0  0  0  0
  187.8700  178.1440  139.8820 C   0  0  0  0  0  0  0  0  0  0  0  0
  187.3180  178.6320  137.4900 C   0  0  0  0  0  3  0  0  0  0  0  0
  188.4000  178.3000  138.4860 C   0  0  0  0  0  2  0  0  0  0  0  0
  188.2440  177.6950  142.2210 C   0  0  0  0  0  0  0  0  0  0  0  0
  185.5860  178.5900  139.1670 C   0  0  0  0  0  0  0  0  0  0  0  0
  186.4360  178.2950  140.1600 C   0  0  0  0  0  0  0  0  0  0  0  0
  186.0650  178.7560  137.8250 N   0  0  0  0  0  0  0  0  0  0  0  0
  181.9100  179.1060  142.2780 C   0  0  0  0  0  0  0  0  0  0  0  0
  182.9070  179.0160  143.3690 C   0  0  0  0  0  3  0  0  0  0  0  0
  183.6780  178.6140  140.6920 C   0  0  0  0  0  0  0  0  0  0  0  0
  184.1450  178.5590  143.1430 C   0  0  0  0  0  3  0  0  0  0  0  0
  184.5340  178.0150  141.7900 C   0  0  0  0  0  0  0  0  0  0  0  0
  191.4360  176.5660  143.9390 C   0  0  0  0  0  3  0  0  0  0  0  0
  188.9030  177.5540  144.6210 C   0  0  0  0  0  3  0  0  0  0  0  0
  191.6880  176.6370  147.6360 C   0  0  0  0  0  0  0  0  0  0  0  0
  192.0230  176.4500  146.2860 C   0  0  0  0  0  3  0  0  0  0  0  0
  191.1010  176.7530  145.2810 C   0  0  0  0  0  0  0  0  0  0  0  0
  189.4900  177.4380  146.9670 C   0  0  0  0  0  3  0  0  0  0  0  0
  189.8250  177.2510  145.6250 C   0  0  0  0  0  0  0  0  0  0  0  0
  190.4180  177.1320  147.9680 C   0  0  0  0  0  3  0  0  0  0  0  0
  189.2340  177.3680  143.2700 C   0  0  0  0  0  0  0  0  0  0  0  0
  190.5080  176.8720  142.9400 C   0  0  0  0  0  3  0  0  0  0  0  0
  192.6620  176.3160  148.6950 C   0  0  0  0  0  0  0  0  0  0  0  0
  193.2260  177.3520  149.4940 N   0  0  0  0  0  1  0  0  0  0  0  0
  193.0030  175.1230  148.9050 O   0  0  0  0  0  0  0  0  0  0  0  0
  180.4950  179.4550  142.5940 C   0  0  0  0  0  2  0  0  0  0  0  0
  180.0810  178.8710  143.9360 C   0  0  1  0  0  3  0  0  0  0  0  0
  178.9310  179.6770  144.4990 C   0  0  0  0  0  1  0  0  0  0  0  0
  179.6790  177.5440  143.7740 O   0  0  0  0  0  1  0  0  0  0  0  0
  1 17  1  0  0  0  0
  1  5  1  0  0  0  0
  2 13  1  0  0  0  0
  3 15  2  0  0  0  0
  4  9  1  0  0  0  0
  6 11  1  0  0  0  0
  6  4  2  0  0  0  0
  7 12  2  0  0  0  0
  7  8  1  0  0  0  0
  8  6  1  0  0  0  0
  9  5  2  0  0  0  0
  9 26  1  0  0  0  0
 10  3  1  0  0  0  0
 10 11  2  0  0  0  0
 11  1  1  0  0  0  0
 12 10  1  0  0  0  0
 13 31  1  0  0  0  0
 13 14  2  0  0  0  0
 15  2  1  0  0  0  0
 15 17  1  0  0  0  0
 16 14  1  0  0  0  0
 17 16  2  0  0  0  0
 18 22  1  0  0  0  0
 19 24  1  0  0  0  0
 20 25  1  0  0  0  0
 20 28  1  0  0  0  0
 21 20  2  0  0  0  0
 22 24  2  0  0  0  0
 22 21  1  0  0  0  0
 23 25  2  0  0  0  0
 24 23  1  0  0  0  0
 26 19  2  0  0  0  0
 27 26  1  0  0  0  0
 27 18  2  0  0  0  0
 28 30  2  0  0  0  0
 28 29  1  0  0  0  0
 31 32  1  0  0  0  0
 32 33  1  6  0  0  0
 34 32  1  0  0  0  0
M  END
>  <MODEL>
6

>  <REMARK>
 VINA RESULT:      -9.5      3.606      6.504
  Name = 
  4 active torsions:
  status: ('A' for Active; 'I' for Inactive)
    1  A    between atoms: C_3  and  C_25
    2  A    between atoms: C_7  and  C_11
    3  A    between atoms: C_18  and  C_30
    4  A    between atoms: C_23  and  C_25
                            x       y       z     vdW  Elec       q    Type
                         _______ _______ _______ _____ _____    ______ ____

>  <TORSDO>
F 4

$$$$
=
 OpenBabel10262423303D

 34 39  0  0  1  0  0  0  0  0999 V2000
  185.4910  178.4130  141.4580 N   0  0  0  0  0  0  0  0  0  0  0  0
  185.0080  178.6150  137.6820 C   0  0  0  0  0  2  0  0  0  0  0  0
  183.4680  178.8460  139.5510 C   0  0  0  0  0  3  0  0  0  0  0  0
  184.7690  178.3080  144.1650 N   0  0  0  0  0  0  0  0  0  0  0  0
  186.4850  178.1790  142.4700 C   0  0  0  0  0  3  0  0  0  0  0  0
  183.8170  178.5480  143.3130 C   0  0  0  0  0  0  0  0  0  0  0  0
  181.4410  179.0030  142.6730 C   0  0  0  0  0  3  0  0  0  0  0  0
  182.4120  178.7530  143.7990 C   0  0  0  0  0  3  0  0  0  0  0  0
  186.1440  178.1130  143.7700 C   0  0  0  0  0  0  0  0  0  0  0  0
  183.1600  178.8550  140.9890 C   0  0  0  0  0  0  0  0  0  0  0  0
  184.1320  178.6200  141.8800 C   0  0  2  0  0  3  0  0  0  0  0  0
  181.8040  179.0430  141.4230 N   0  0  0  0  0  0  0  0  0  0  0  0
  186.1890  178.1300  137.2810 C   0  0  0  0  0  0  0  0  0  0  0  0
  187.1790  177.6440  138.2690 C   0  0  0  0  0  3  0  0  0  0  0  0
  184.7250  178.7330  139.1190 C   0  0  0  0  0  0  0  0  0  0  0  0
  187.0250  177.8780  139.5780 C   0  0  0  0  0  3  0  0  0  0  0  0
  185.8950  178.7420  140.0830 C   0  0  0  0  0  0  0  0  0  0  0  0
  187.8650  177.8010  147.1400 C   0  0  0  0  0  3  0  0  0  0  0  0
  188.4490  177.4270  144.4240 C   0  0  0  0  0  3  0  0  0  0  0  0
  191.3970  176.6950  147.3340 C   0  0  0  0  0  0  0  0  0  0  0  0
  190.1180  177.1270  147.7180 C   0  0  0  0  0  3  0  0  0  0  0  0
  189.1360  177.3720  146.7550 C   0  0  0  0  0  0  0  0  0  0  0  0
  190.7020  176.7530  145.0020 C   0  0  0  0  0  3  0  0  0  0  0  0
  189.4310  177.1830  145.3870 C   0  0  0  0  0  0  0  0  0  0  0  0
  191.6800  176.5110  145.9720 C   0  0  0  0  0  3  0  0  0  0  0  0
  187.1700  177.8590  144.8040 C   0  0  0  0  0  0  0  0  0  0  0  0
  186.8880  178.0440  146.1700 C   0  0  0  0  0  3  0  0  0  0  0  0
  192.4320  176.4380  148.3510 C   0  0  0  0  0  0  0  0  0  0  0  0
  192.8050  177.4570  149.2740 N   0  0  0  0  0  1  0  0  0  0  0  0
  192.9970  175.3140  148.4140 O   0  0  0  0  0  0  0  0  0  0  0  0
  186.4750  178.0030  135.8220 C   0  0  0  0  0  2  0  0  0  0  0  0
  186.1780  176.5940  135.3340 C   0  0  1  0  0  3  0  0  0  0  0  0
  187.4720  175.8170  135.2300 C   0  0  0  0  0  1  0  0  0  0  0  0
  185.3240  175.9490  136.2300 O   0  0  0  0  0  1  0  0  0  0  0  0
  1 11  1  0  0  0  0
  1  5  1  0  0  0  0
  2 15  1  0  0  0  0
  3 10  1  0  0  0  0
  5  9  2  0  0  0  0
  6  8  1  0  0  0  0
  6  4  2  0  0  0  0
  7  8  2  0  0  0  0
  9  4  1  0  0  0  0
  9 26  1  0  0  0  0
 10 12  2  0  0  0  0
 11 10  1  6  0  0  0
 11  6  1  0  0  0  0
 12  7  1  0  0  0  0
 13  2  1  0  0  0  0
 13 14  2  0  0  0  0
 14 16  1  0  0  0  0
 15  3  2  0  0  0  0
 15 17  1  0  0  0  0
 16 17  2  0  0  0  0
 17  1  1  0  0  0  0
 19 26  2  0  0  0  0
 19 24  1  0  0  0  0
 20 21  1  0  0  0  0
 20 28  1  0  0  0  0
 22 18  1  0  0  0  0
 22 21  2  0  0  0  0
 23 24  2  0  0  0  0
 23 25  1  0  0  0  0
 24 22  1  0  0  0  0
 25 20  2  0  0  0  0
 26 27  1  0  0  0  0
 27 18  2  0  0  0  0
 28 30  2  0  0  0  0
 28 29  1  0  0  0  0
 31 13  1  0  0  0  0
 32 33  1  1  0  0  0
 32 31  1  0  0  0  0
 32 34  1  0  0  0  0
M  END
>  <MODEL>
7

>  <REMARK>
 VINA RESULT:      -9.1      3.861      7.664
  Name = 
  4 active torsions:
  status: ('A' for Active; 'I' for Inactive)
    1  A    between atoms: C_3  and  C_25
    2  A    between atoms: C_7  and  C_11
    3  A    between atoms: C_18  and  C_30
    4  A    between atoms: C_23  and  C_25
                            x       y       z     vdW  Elec       q    Type
                         _______ _______ _______ _____ _____    ______ ____

>  <TORSDO>
F 4

$$$$
=
 OpenBabel10262423303D

 34 39  0  0  1  0  0  0  0  0999 V2000
  189.2000  176.6700  138.0530 N   0  0  0  0  0  0  0  0  0  0  0  0
  186.9870  176.5970  134.9510 C   0  0  0  0  0  2  0  0  0  0  0  0
  189.3800  176.2970  135.2700 C   0  0  0  0  0  3  0  0  0  0  0  0
  191.5700  176.6790  139.5510 N   0  0  0  0  0  0  0  0  0  0  0  0
  189.1640  176.8720  139.4760 C   0  0  0  0  0  3  0  0  0  0  0  0
  191.6850  176.4660  138.2750 C   0  0  0  0  0  0  0  0  0  0  0  0
  192.9830  176.0270  136.1800 C   0  0  0  0  0  3  0  0  0  0  0  0
  193.0400  176.2410  137.6710 C   0  0  0  0  0  3  0  0  0  0  0  0
  190.2980  176.8930  140.1990 C   0  0  0  0  0  0  0  0  0  0  0  0
  190.5820  176.2370  136.1160 C   0  0  0  0  0  0  0  0  0  0  0  0
  190.4790  176.4450  137.4350 C   0  0  2  0  0  3  0  0  0  0  0  0
  191.8660  176.0310  135.5090 N   0  0  0  0  0  0  0  0  0  0  0  0
  185.8600  177.0980  135.4690 C   0  0  0  0  0  0  0  0  0  0  0  0
  185.8170  177.5540  136.8780 C   0  0  0  0  0  3  0  0  0  0  0  0
  188.1670  176.4280  135.8100 C   0  0  0  0  0  0  0  0  0  0  0  0
  186.8130  177.2740  137.7280 C   0  0  0  0  0  3  0  0  0  0  0  0
  187.9630  176.3900  137.3110 C   0  0  0  0  0  0  0  0  0  0  0  0
  191.3750  177.5640  143.7790 C   0  0  0  0  0  3  0  0  0  0  0  0
  189.0220  177.0810  142.3330 C   0  0  0  0  0  3  0  0  0  0  0  0
  188.8510  177.7040  146.4890 C   0  0  0  0  0  0  0  0  0  0  0  0
  190.0850  177.7370  145.8210 C   0  0  0  0  0  3  0  0  0  0  0  0
  190.1460  177.5300  144.4410 C   0  0  0  0  0  0  0  0  0  0  0  0
  187.7320  177.2540  144.3750 C   0  0  0  0  0  3  0  0  0  0  0  0
  188.9610  177.2870  143.7130 C   0  0  0  0  0  0  0  0  0  0  0  0
  187.6780  177.4610  145.7570 C   0  0  0  0  0  3  0  0  0  0  0  0
  190.2540  177.1140  141.6610 C   0  0  0  0  0  0  0  0  0  0  0  0
  191.4280  177.3560  142.3970 C   0  0  0  0  0  3  0  0  0  0  0  0
  188.7870  177.9210  147.9450 C   0  0  0  0  0  0  0  0  0  0  0  0
  187.5550  177.7690  148.6440 N   0  0  0  0  0  1  0  0  0  0  0  0
  189.8220  178.2430  148.5860 O   0  0  0  0  0  0  0  0  0  0  0  0
  184.6640  177.2760  134.5970 C   0  0  0  0  0  2  0  0  0  0  0  0
  183.3880  176.9390  135.3530 C   0  0  1  0  0  3  0  0  0  0  0  0
  182.2380  177.7330  134.7730 C   0  0  0  0  0  1  0  0  0  0  0  0
  183.1120  175.5750  135.2360 O   0  0  0  0  0  1  0  0  0  0  0  0
  1  5  1  0  0  0  0
  2 13  1  0  0  0  0
  2 15  1  0  0  0  0
  3 15  2  0  0  0  0
  3 10  1  0  0  0  0
  4  9  1  0  0  0  0
  5  9  2  0  0  0  0
  6  4  2  0  0  0  0
  7  8  2  0  0  0  0
  8  6  1  0  0  0  0
  9 26  1  0  0  0  0
 11 10  1  6  0  0  0
 11  1  1  0  0  0  0
 11  6  1  0  0  0  0
 12 10  2  0  0  0  0
 12  7  1  0  0  0  0
 13 14  2  0  0  0  0
 14 16  1  0  0  0  0
 15 17  1  0  0  0  0
 17 16  2  0  0  0  0
 17  1  1  0  0  0  0
 18 22  1  0  0  0  0
 19 24  1  0  0  0  0
 20 28  1  0  0  0  0
 21 20  1  0  0  0  0
 22 21  2  0  0  0  0
 23 25  1  0  0  0  0
 24 23  2  0  0  0  0
 24 22  1  0  0  0  0
 25 20  2  0  0  0  0
 26 19  2  0  0  0  0
 26 27  1  0  0  0  0
 27 18  2  0  0  0  0
 28 30  2  0  0  0  0
 28 29  1  0  0  0  0
 31 32  1  0  0  0  0
 31 13  1  0  0  0  0
 32 33  1  6  0  0  0
 34 32  1  0  0  0  0
M  END
>  <MODEL>
8

>  <REMARK>
 VINA RESULT:      -9.0      4.138      8.695
  Name = 
  4 active torsions:
  status: ('A' for Active; 'I' for Inactive)
    1  A    between atoms: C_3  and  C_25
    2  A    between atoms: C_7  and  C_11
    3  A    between atoms: C_18  and  C_30
    4  A    between atoms: C_23  and  C_25
                            x       y       z     vdW  Elec       q    Type
                         _______ _______ _______ _____ _____    ______ ____

>  <TORSDO>
F 4

$$$$
=
 OpenBabel10262423303D

 34 39  0  0  1  0  0  0  0  0999 V2000
  182.6060  178.7610  140.8540 N   0  0  0  0  0  0  0  0  0  0  0  0
  180.5340  179.0770  137.6710 C   0  0  0  0  0  2  0  0  0  0  0  0
  179.9570  179.2290  140.0290 C   0  0  0  0  0  3  0  0  0  0  0  0
  183.1290  178.5610  143.6010 N   0  0  0  0  0  0  0  0  0  0  0  0
  183.9400  178.5070  141.3270 C   0  0  0  0  0  3  0  0  0  0  0  0
  181.9020  178.8160  143.2550 C   0  0  0  0  0  0  0  0  0  0  0  0
  179.4840  179.2600  143.7250 C   0  0  0  0  0  3  0  0  0  0  0  0
  180.8470  178.9870  144.3090 C   0  0  0  0  0  3  0  0  0  0  0  0
  184.1950  178.3950  142.6430 C   0  0  0  0  0  0  0  0  0  0  0  0
  180.3030  179.1880  141.4580 C   0  0  0  0  0  0  0  0  0  0  0  0
  181.5640  178.9370  141.8310 C   0  0  2  0  0  3  0  0  0  0  0  0
  179.2700  179.3450  142.4430 N   0  0  0  0  0  0  0  0  0  0  0  0
  181.4220  178.6210  136.7810 C   0  0  0  0  0  0  0  0  0  0  0  0
  182.7420  178.1150  137.2250 C   0  0  0  0  0  3  0  0  0  0  0  0
  180.9020  179.1460  139.0910 C   0  0  0  0  0  0  0  0  0  0  0  0
  183.1710  178.3060  138.4790 C   0  0  0  0  0  3  0  0  0  0  0  0
  182.3740  179.1390  139.4530 C   0  0  0  0  0  0  0  0  0  0  0  0
  187.9350  177.7370  142.6830 C   0  0  0  0  0  3  0  0  0  0  0  0
  185.8110  177.9830  144.4960 C   0  0  0  0  0  3  0  0  0  0  0  0
  189.6990  177.2040  145.8990 C   0  0  0  0  0  0  0  0  0  0  0  0
  189.4600  177.3420  144.5220 C   0  0  0  0  0  3  0  0  0  0  0  0
  188.1710  177.6000  144.0520 C   0  0  0  0  0  0  0  0  0  0  0  0
  187.3360  177.5880  146.3350 C   0  0  0  0  0  3  0  0  0  0  0  0
  187.1010  177.7240  144.9660 C   0  0  0  0  0  0  0  0  0  0  0  0
  188.6300  177.3290  146.7990 C   0  0  0  0  0  3  0  0  0  0  0  0
  185.5680  178.1220  143.1210 C   0  0  0  0  0  0  0  0  0  0  0  0
  186.6420  177.9960  142.2200 C   0  0  0  0  0  3  0  0  0  0  0  0
  191.0610  176.9310  146.3930 C   0  0  0  0  0  0  0  0  0  0  0  0
  191.3780  177.1150  147.7700 N   0  0  0  0  0  1  0  0  0  0  0  0
  191.9560  176.5310  145.6030 O   0  0  0  0  0  0  0  0  0  0  0  0
  181.0480  178.5440  135.3390 C   0  0  0  0  0  2  0  0  0  0  0  0
  180.5410  179.8880  134.8390 C   0  0  1  0  0  3  0  0  0  0  0  0
  179.0290  179.8650  134.7880 C   0  0  0  0  0  1  0  0  0  0  0  0
  180.9580  180.9040  135.7010 O   0  0  0  0  0  1  0  0  0  0  0  0
  1  5  1  0  0  0  0
  1 11  1  0  0  0  0
  2 15  1  0  0  0  0
  3 10  1  0  0  0  0
  5  9  2  0  0  0  0
  6  4  2  0  0  0  0
  6  8  1  0  0  0  0
  7  8  2  0  0  0  0
  9 26  1  0  0  0  0
  9  4  1  0  0  0  0
 10 12  2  0  0  0  0
 11 10  1  6  0  0  0
 11  6  1  0  0  0  0
 12  7  1  0  0  0  0
 13 14  2  0  0  0  0
 13  2  1  0  0  0  0
 14 16  1  0  0  0  0
 15 17  1  0  0  0  0
 15  3  2  0  0  0  0
 16 17  2  0  0  0  0
 17  1  1  0  0  0  0
 18 22  1  0  0  0  0
 19 24  1  0  0  0  0
 20 28  1  0  0  0  0
 20 25  1  0  0  0  0
 21 20  2  0  0  0  0
 22 21  1  0  0  0  0
 22 24  2  0  0  0  0
 23 25  2  0  0  0  0
 24 23  1  0  0  0  0
 26 19  2  0  0  0  0
 27 18  2  0  0  0  0
 27 26  1  0  0  0  0
 28 29  1  0  0  0  0
 30 28  2  0  0  0  0
 31 13  1  0  0  0  0
 32 33  1  1  0  0  0
 32 31  1  0  0  0  0
 32 34  1  0  0  0  0
M  END
>  <MODEL>
9

>  <REMARK>
 VINA RESULT:      -8.8      4.519      7.424
  Name = 
  4 active torsions:
  status: ('A' for Active; 'I' for Inactive)
    1  A    between atoms: C_3  and  C_25
    2  A    between atoms: C_7  and  C_11
    3  A    between atoms: C_18  and  C_30
    4  A    between atoms: C_23  and  C_25
                            x       y       z     vdW  Elec       q    Type
                         _______ _______ _______ _____ _____    ______ ____

>  <TORSDO>
F 4

$$$$
