=
 OpenBabel10262421593D

 30 34  0  0  1  0  0  0  0  0999 V2000
  188.7020  178.6000  138.2420 C   0  0  2  0  0  3  0  0  0  0  0  0
  186.5130  177.7980  136.9640 C   0  0  1  0  0  3  0  0  0  0  0  0
  189.2180  174.0750  136.6360 C   0  0  0  0  0  2  0  0  0  0  0  0
  190.0640  177.9490  138.4980 C   0  0  1  0  0  3  0  0  0  0  0  0
  187.9250  178.5740  139.4280 O   0  0  0  0  0  0  0  0  0  0  0  0
  188.6780  176.0950  142.7690 C   0  0  0  0  0  1  0  0  0  0  0  0
  190.1390  178.0670  139.9990 C   0  0  1  0  0  3  0  0  0  0  0  0
  188.4610  178.4020  141.7940 C   0  0  0  0  0  2  0  0  0  0  0  0
  190.4460  174.1430  137.5710 C   0  0  1  0  0  3  0  0  0  0  0  0
  188.7010  177.8990  140.3820 C   0  0  1  0  0  3  0  0  0  0  0  0
  191.0120  177.5360  142.5390 S   0  0  0  0  0  0  0  0  0  0  0  0
  185.8410  176.6840  137.7490 C   0  0  0  0  0  2  0  0  0  0  0  0
  188.9450  178.0370  144.0870 O   0  0  0  0  0  1  0  0  0  0  0  0
  185.9800  179.0350  137.3310 O   0  0  0  0  0  1  0  0  0  0  0  0
  188.1670  175.1270  137.0200 C   0  0  2  0  0  3  0  0  0  0  0  0
  186.9480  175.0320  136.1240 C   0  0  0  0  0  2  0  0  0  0  0  0
  189.1940  177.5250  142.8150 C   0  0  2  0  0  0  0  0  0  0  0  0
  188.0440  177.7910  137.1170 C   0  0  2  0  0  3  0  0  0  0  0  0
  189.8550  176.5120  138.0320 C   0  0  2  0  0  3  0  0  0  0  0  0
  191.4270  173.2410  137.1530 O   0  0  0  0  0  1  0  0  0  0  0  0
  191.0280  175.5680  137.7410 C   0  0  2  0  0  3  0  0  0  0  0  0
  192.4460  177.1390  140.2720 C   0  0  0  0  0  1  0  0  0  0  0  0
  185.6800  175.4270  136.8870 C   0  0  0  0  0  2  0  0  0  0  0  0
  188.8370  176.4980  136.9260 C   0  0  1  0  0  3  0  0  0  0  0  0
  191.0130  177.0760  140.7660 C   0  0  2  0  0  3  0  0  0  0  0  0
  191.9400  175.9900  136.5720 C   0  0  1  0  0  3  0  0  0  0  0  0
  191.2700  176.8050  135.6550 O   0  0  0  0  0  1  0  0  0  0  0  0
  193.2070  176.6730  137.0680 C   0  0  0  0  0  2  0  0  0  0  0  0
  194.3010  175.7380  137.1250 N   0  0  0  0  0  0  0  0  0  0  0  0
  194.6340  175.2590  138.1670 O   0  0  0  0  0  0  0  0  0  0  0  0
  1  4  1  0  0  0  0
  1  5  1  1  0  0  0
  2 18  1  0  0  0  0
  2 14  1  1  0  0  0
  2 12  1  0  0  0  0
  3 15  1  0  0  0  0
  3  9  1  0  0  0  0
  4  7  1  0  0  0  0
  5 10  1  0  0  0  0
  6 17  1  0  0  0  0
  7 10  1  0  0  0  0
  7 25  1  0  0  0  0
  8 17  1  0  0  0  0
  9 21  1  0  0  0  0
 10  8  1  0  0  0  0
 11 17  1  0  0  0  0
 16 23  1  0  0  0  0
 16 15  1  0  0  0  0
 17 13  1  0  0  0  0
 18  1  1  0  0  0  0
 19  4  1  0  0  0  0
 20  9  1  0  0  0  0
 21 19  1  0  0  0  0
 22 25  1  0  0  0  0
 23 12  1  0  0  0  0
 24 15  1  0  0  0  0
 24 18  1  0  0  0  0
 24 19  1  0  0  0  0
 25 11  1  0  0  0  0
 26 28  1  0  0  0  0
 26 21  1  0  0  0  0
 27 26  1  0  0  0  0
 28 29  1  0  0  0  0
 29 30  2  0  0  0  0
M  END
>  <MODEL>
1

>  <REMARK>
 VINA RESULT:      -6.0      0.000      0.000
  Name = 
  3 active torsions:
  status: ('A' for Active; 'I' for Inactive)
    1  A    between atoms: C_7  and  C_10
    2  A    between atoms: C_7  and  N_16
    3  A    between atoms: C_10  and  C_25
                            x       y       z     vdW  Elec       q    Type
                         _______ _______ _______ _____ _____    ______ ____

>  <TORSDO>
F 3

$$$$
=
 OpenBabel10262421593D

 30 34  0  0  1  0  0  0  0  0999 V2000
  188.1080  178.6120  138.1920 C   0  0  2  0  0  3  0  0  0  0  0  0
  185.6620  177.9830  137.3660 C   0  0  1  0  0  3  0  0  0  0  0  0
  187.9730  174.0770  136.5380 C   0  0  0  0  0  2  0  0  0  0  0  0
  189.4440  177.8610  138.1820 C   0  0  1  0  0  3  0  0  0  0  0  0
  187.5760  178.6320  139.5060 O   0  0  0  0  0  0  0  0  0  0  0  0
  188.7770  176.0730  142.6500 C   0  0  0  0  0  1  0  0  0  0  0  0
  189.8160  177.9590  139.6400 C   0  0  1  0  0  3  0  0  0  0  0  0
  188.5450  178.3980  141.7240 C   0  0  0  0  0  2  0  0  0  0  0  0
  189.3600  174.0460  137.2180 C   0  0  1  0  0  3  0  0  0  0  0  0
  188.4700  177.8920  140.2950 C   0  0  1  0  0  3  0  0  0  0  0  0
  191.1210  177.3420  141.9660 S   0  0  0  0  0  0  0  0  0  0  0  0
  185.0750  176.9130  138.2720 C   0  0  0  0  0  2  0  0  0  0  0  0
  189.4350  177.9770  143.8820 O   0  0  0  0  0  1  0  0  0  0  0  0
  185.3020  179.2520  137.8230 O   0  0  0  0  0  1  0  0  0  0  0  0
  187.0960  175.1990  137.1130 C   0  0  2  0  0  3  0  0  0  0  0  0
  185.7220  175.2010  136.4700 C   0  0  0  0  0  2  0  0  0  0  0  0
  189.3960  177.4610  142.5890 C   0  0  2  0  0  0  0  0  0  0  0  0
  187.1890  177.8630  137.2200 C   0  0  2  0  0  3  0  0  0  0  0  0
  189.0440  176.4470  137.7730 C   0  0  2  0  0  3  0  0  0  0  0  0
  190.1730  173.0800  136.6220 O   0  0  0  0  0  1  0  0  0  0  0  0
  190.0670  175.4240  137.2650 C   0  0  2  0  0  3  0  0  0  0  0  0
  192.0580  176.8640  139.4670 C   0  0  0  0  0  1  0  0  0  0  0  0
  184.6590  175.6800  137.4630 C   0  0  0  0  0  2  0  0  0  0  0  0
  187.8330  176.5180  136.8850 C   0  0  1  0  0  3  0  0  0  0  0  0
  190.7460  176.9000  140.2280 C   0  0  2  0  0  3  0  0  0  0  0  0
  190.7640  175.7900  135.9390 C   0  0  1  0  0  3  0  0  0  0  0  0
  190.1650  176.8910  135.3220 O   0  0  0  0  0  1  0  0  0  0  0  0
  192.2530  176.0330  136.1390 C   0  0  0  0  0  2  0  0  0  0  0  0
  192.9730  174.7870  136.1710 N   0  0  0  0  0  0  0  0  0  0  0  0
  193.4150  174.3690  137.1980 O   0  0  0  0  0  0  0  0  0  0  0  0
  1  5  1  1  0  0  0
  2 14  1  1  0  0  0
  2 12  1  0  0  0  0
  3 15  1  0  0  0  0
  3  9  1  0  0  0  0
  4  1  1  0  0  0  0
  4  7  1  0  0  0  0
  5 10  1  0  0  0  0
  7 25  1  0  0  0  0
  7 10  1  0  0  0  0
  8 17  1  0  0  0  0
  9 21  1  0  0  0  0
 10  8  1  0  0  0  0
 11 17  1  0  0  0  0
 16 15  1  0  0  0  0
 16 23  1  0  0  0  0
 17  6  1  0  0  0  0
 17 13  1  0  0  0  0
 18  2  1  0  0  0  0
 18  1  1  0  0  0  0
 19  4  1  0  0  0  0
 20  9  1  0  0  0  0
 21 19  1  0  0  0  0
 22 25  1  0  0  0  0
 23 12  1  0  0  0  0
 24 15  1  0  0  0  0
 24 18  1  0  0  0  0
 24 19  1  0  0  0  0
 25 11  1  0  0  0  0
 26 28  1  0  0  0  0
 26 21  1  0  0  0  0
 27 26  1  0  0  0  0
 28 29  1  0  0  0  0
 29 30  2  0  0  0  0
M  END
>  <MODEL>
2

>  <REMARK>
 VINA RESULT:      -5.8      0.929      1.012
  Name = 
  3 active torsions:
  status: ('A' for Active; 'I' for Inactive)
    1  A    between atoms: C_7  and  C_10
    2  A    between atoms: C_7  and  N_16
    3  A    between atoms: C_10  and  C_25
                            x       y       z     vdW  Elec       q    Type
                         _______ _______ _______ _____ _____    ______ ____

>  <TORSDO>
F 3

$$$$
=
 OpenBabel10262421593D

 30 34  0  0  1  0  0  0  0  0999 V2000
  186.4980  177.8670  136.7590 C   0  0  2  0  0  3  0  0  0  0  0  0
  188.7230  178.3110  138.1430 C   0  0  1  0  0  3  0  0  0  0  0  0
  185.5030  178.5100  141.4410 C   0  0  0  0  0  2  0  0  0  0  0  0
  185.0140  177.8430  137.1390 C   0  0  1  0  0  3  0  0  0  0  0  0
  186.9700  176.5430  136.5730 O   0  0  0  0  0  0  0  0  0  0  0  0
  185.0300  173.0570  137.9730 C   0  0  0  0  0  1  0  0  0  0  0  0
  184.6290  176.4800  136.6240 C   0  0  1  0  0  3  0  0  0  0  0  0
  185.8950  174.4250  136.0500 C   0  0  0  0  0  2  0  0  0  0  0  0
  184.1330  177.9710  140.9730 C   0  0  1  0  0  3  0  0  0  0  0  0
  185.8860  175.7030  136.8700 C   0  0  1  0  0  3  0  0  0  0  0  0
  183.1250  174.2080  136.3540 S   0  0  0  0  0  0  0  0  0  0  0  0
  188.9780  177.1500  139.0900 C   0  0  0  0  0  2  0  0  0  0  0  0
  184.8490  172.3190  135.7370 O   0  0  0  0  0  1  0  0  0  0  0  0
  189.3860  178.1000  136.9320 O   0  0  0  0  0  1  0  0  0  0  0  0
  186.6210  178.1050  140.4690 C   0  0  2  0  0  3  0  0  0  0  0  0
  187.9700  178.6040  140.9520 C   0  0  0  0  0  2  0  0  0  0  0  0
  184.7980  173.4660  136.5270 C   0  0  2  0  0  0  0  0  0  0  0  0
  187.2240  178.5710  137.9120 C   0  0  2  0  0  3  0  0  0  0  0  0
  185.0450  177.9070  138.6620 C   0  0  2  0  0  3  0  0  0  0  0  0
  183.1170  178.4240  141.8180 O   0  0  0  0  0  1  0  0  0  0  0  0
  183.8090  178.2820  139.4900 C   0  0  2  0  0  3  0  0  0  0  0  0
  182.1860  176.6260  137.1420 C   0  0  0  0  0  1  0  0  0  0  0  0
  189.0850  177.6390  140.5380 C   0  0  0  0  0  2  0  0  0  0  0  0
  186.2630  178.6730  139.0960 C   0  0  1  0  0  3  0  0  0  0  0  0
  183.4340  175.7710  137.2580 C   0  0  2  0  0  3  0  0  0  0  0  0
  183.2800  179.7130  139.2740 C   0  0  1  0  0  3  0  0  0  0  0  0
  184.2850  180.5810  138.8390 O   0  0  0  0  0  1  0  0  0  0  0  0
  182.1000  179.7340  138.3120 C   0  0  0  0  0  2  0  0  0  0  0  0
  180.8620  179.5410  139.0200 N   0  0  0  0  0  0  0  0  0  0  0  0
  180.6680  180.0910  140.0620 O   0  0  0  0  0  0  0  0  0  0  0  0
  1  5  1  1  0  0  0
  1  4  1  0  0  0  0
  1 18  1  0  0  0  0
  2 14  1  6  0  0  0
  2 12  1  0  0  0  0
  4 19  1  0  0  0  0
  5 10  1  0  0  0  0
  7 10  1  0  0  0  0
  7  4  1  0  0  0  0
  7 25  1  0  0  0  0
  8 17  1  0  0  0  0
  8 10  1  0  0  0  0
  9  3  1  0  0  0  0
  9 20  1  0  0  0  0
 11 17  1  0  0  0  0
 11 25  1  0  0  0  0
 12 23  1  0  0  0  0
 13 17  1  0  0  0  0
 15 16  1  0  0  0  0
 15  3  1  0  0  0  0
 17  6  1  0  0  0  0
 18  2  1  0  0  0  0
 18 24  1  0  0  0  0
 19 24  1  0  0  0  0
 19 21  1  0  0  0  0
 21  9  1  0  0  0  0
 22 25  1  0  0  0  0
 23 16  1  0  0  0  0
 24 15  1  0  0  0  0
 26 21  1  0  0  0  0
 27 26  1  0  0  0  0
 28 29  1  0  0  0  0
 28 26  1  0  0  0  0
 29 30  2  0  0  0  0
M  END
>  <MODEL>
3

>  <REMARK>
 VINA RESULT:      -5.4      4.376      7.964
  Name = 
  3 active torsions:
  status: ('A' for Active; 'I' for Inactive)
    1  A    between atoms: C_7  and  C_10
    2  A    between atoms: C_7  and  N_16
    3  A    between atoms: C_10  and  C_25
                            x       y       z     vdW  Elec       q    Type
                         _______ _______ _______ _____ _____    ______ ____

>  <TORSDO>
F 3

$$$$
=
 OpenBabel10262421593D

 30 34  0  0  1  0  0  0  0  0999 V2000
  186.6550  178.4760  137.9190 C   0  0  2  0  0  3  0  0  0  0  0  0
  184.0590  177.9130  137.9910 C   0  0  1  0  0  3  0  0  0  0  0  0
  185.8870  173.8060  136.9550 C   0  0  0  0  0  2  0  0  0  0  0  0
  187.8980  177.6480  137.5780 C   0  0  1  0  0  3  0  0  0  0  0  0
  186.5740  178.6690  139.3210 O   0  0  0  0  0  0  0  0  0  0  0  0
  188.6590  176.3930  142.2100 C   0  0  0  0  0  1  0  0  0  0  0  0
  188.7210  177.8780  138.8210 C   0  0  1  0  0  3  0  0  0  0  0  0
  188.1980  178.6160  141.1300 C   0  0  0  0  0  2  0  0  0  0  0  0
  187.4180  173.7640  137.1600 C   0  0  1  0  0  3  0  0  0  0  0  0
  187.6560  177.9650  139.8710 C   0  0  1  0  0  3  0  0  0  0  0  0
  190.6900  177.4350  140.6710 S   0  0  0  0  0  0  0  0  0  0  0  0
  183.7680  176.9850  139.1590 C   0  0  0  0  0  2  0  0  0  0  0  0
  189.7240  178.3740  142.9300 O   0  0  0  0  0  1  0  0  0  0  0  0
  183.8950  179.2440  138.3810 O   0  0  0  0  0  1  0  0  0  0  0  0
  185.2690  175.0350  137.6370 C   0  0  2  0  0  3  0  0  0  0  0  0
  183.7620  175.0530  137.4660 C   0  0  0  0  0  2  0  0  0  0  0  0
  189.2590  177.7260  141.7880 C   0  0  2  0  0  0  0  0  0  0  0  0
  185.4540  177.6850  137.3850 C   0  0  2  0  0  3  0  0  0  0  0  0
  187.3550  176.2250  137.4910 C   0  0  2  0  0  3  0  0  0  0  0  0
  187.9730  172.6910  136.4600 O   0  0  0  0  0  1  0  0  0  0  0  0
  188.1350  175.0920  136.8130 C   0  0  2  0  0  3  0  0  0  0  0  0
  190.7620  176.6350  138.0820 C   0  0  0  0  0  1  0  0  0  0  0  0
  183.0850  175.7000  138.6790 C   0  0  0  0  0  2  0  0  0  0  0  0
  185.9250  176.2750  137.0290 C   0  0  1  0  0  3  0  0  0  0  0  0
  189.7660  176.8340  139.2080 C   0  0  2  0  0  3  0  0  0  0  0  0
  188.3780  175.2700  135.3020 C   0  0  1  0  0  3  0  0  0  0  0  0
  188.0180  176.5470  134.8620 O   0  0  0  0  0  1  0  0  0  0  0  0
  189.8220  174.9640  134.9270 C   0  0  0  0  0  2  0  0  0  0  0  0
  190.5290  176.1720  134.5950 N   0  0  0  0  0  0  0  0  0  0  0  0
  191.7210  176.2110  134.6530 O   0  0  0  0  0  0  0  0  0  0  0  0
  1  5  1  1  0  0  0
  2 14  1  1  0  0  0
  2 12  1  0  0  0  0
  3  9  1  0  0  0  0
  3 15  1  0  0  0  0
  4  1  1  0  0  0  0
  4  7  1  0  0  0  0
  5 10  1  0  0  0  0
  7 25  1  0  0  0  0
  7 10  1  0  0  0  0
  8 17  1  0  0  0  0
 10  8  1  0  0  0  0
 11 17  1  0  0  0  0
 16 15  1  0  0  0  0
 16 23  1  0  0  0  0
 17  6  1  0  0  0  0
 17 13  1  0  0  0  0
 18  1  1  0  0  0  0
 18  2  1  0  0  0  0
 19  4  1  0  0  0  0
 20  9  1  0  0  0  0
 21  9  1  0  0  0  0
 21 19  1  0  0  0  0
 22 25  1  0  0  0  0
 23 12  1  0  0  0  0
 24 18  1  0  0  0  0
 24 19  1  0  0  0  0
 24 15  1  0  0  0  0
 25 11  1  0  0  0  0
 26 21  1  0  0  0  0
 27 26  1  0  0  0  0
 28 26  1  0  0  0  0
 29 30  2  0  0  0  0
 29 28  1  0  0  0  0
M  END
>  <MODEL>
4

>  <REMARK>
 VINA RESULT:      -5.3      1.988      2.819
  Name = 
  3 active torsions:
  status: ('A' for Active; 'I' for Inactive)
    1  A    between atoms: C_7  and  C_10
    2  A    between atoms: C_7  and  N_16
    3  A    between atoms: C_10  and  C_25
                            x       y       z     vdW  Elec       q    Type
                         _______ _______ _______ _____ _____    ______ ____

>  <TORSDO>
F 3

$$$$
=
 OpenBabel10262421593D

 30 34  0  0  1  0  0  0  0  0999 V2000
  187.2010  178.0490  137.9130 C   0  0  2  0  0  3  0  0  0  0  0  0
  188.7520  178.2540  140.0610 C   0  0  1  0  0  3  0  0  0  0  0  0
  184.5360  178.2690  141.9350 C   0  0  0  0  0  2  0  0  0  0  0  0
  185.6820  178.0530  137.7120 C   0  0  1  0  0  3  0  0  0  0  0  0
  187.7010  176.7300  137.7720 O   0  0  0  0  0  0  0  0  0  0  0  0
  185.3640  173.2120  137.9680 C   0  0  0  0  0  1  0  0  0  0  0  0
  185.5100  176.7660  136.9460 C   0  0  1  0  0  3  0  0  0  0  0  0
  186.8890  174.7240  136.6620 C   0  0  0  0  0  2  0  0  0  0  0  0
  183.4360  177.8410  140.9380 C   0  0  1  0  0  3  0  0  0  0  0  0
  186.5810  175.9140  137.5540 C   0  0  1  0  0  3  0  0  0  0  0  0
  184.2040  174.6020  135.8950 S   0  0  0  0  0  0  0  0  0  0  0  0
  188.6300  176.9950  140.9030 C   0  0  0  0  0  2  0  0  0  0  0  0
  186.0250  172.7090  135.7580 O   0  0  0  0  0  1  0  0  0  0  0  0
  189.8170  178.1340  139.1660 O   0  0  0  0  0  1  0  0  0  0  0  0
  185.9340  177.9120  141.4080 C   0  0  2  0  0  3  0  0  0  0  0  0
  187.0080  178.3000  142.4060 C   0  0  0  0  0  2  0  0  0  0  0  0
  185.6890  173.7730  136.5920 C   0  0  2  0  0  0  0  0  0  0  0  0
  187.4480  178.6010  139.3220 C   0  0  2  0  0  3  0  0  0  0  0  0
  185.1430  177.9650  139.1360 C   0  0  2  0  0  3  0  0  0  0  0  0
  182.1820  178.2520  141.3910 O   0  0  0  0  0  1  0  0  0  0  0  0
  183.6900  178.3100  139.4830 C   0  0  2  0  0  3  0  0  0  0  0  0
  183.0510  176.9700  136.5370 C   0  0  0  0  0  1  0  0  0  0  0  0
  188.1930  177.3320  142.3320 C   0  0  0  0  0  2  0  0  0  0  0  0
  186.1160  178.6290  140.0700 C   0  0  1  0  0  3  0  0  0  0  0  0
  184.1610  176.0520  137.0120 C   0  0  2  0  0  3  0  0  0  0  0  0
  183.2860  179.7780  139.2440 C   0  0  1  0  0  3  0  0  0  0  0  0
  184.3400  180.5310  138.7200 O   0  0  0  0  0  1  0  0  0  0  0  0
  182.0580  179.8820  138.3500 C   0  0  0  0  0  2  0  0  0  0  0  0
  181.0580  180.7250  138.9530 N   0  0  0  0  0  0  0  0  0  0  0  0
  181.0270  181.8940  138.7110 O   0  0  0  0  0  0  0  0  0  0  0  0
  1  5  1  1  0  0  0
  1 18  1  0  0  0  0
  2 14  1  6  0  0  0
  2 12  1  0  0  0  0
  4  1  1  0  0  0  0
  4 19  1  0  0  0  0
  7 25  1  0  0  0  0
  7 10  1  0  0  0  0
  7  4  1  0  0  0  0
  8 10  1  0  0  0  0
  9 20  1  0  0  0  0
  9  3  1  0  0  0  0
 10  5  1  0  0  0  0
 11 17  1  0  0  0  0
 11 25  1  0  0  0  0
 12 23  1  0  0  0  0
 13 17  1  0  0  0  0
 15  3  1  0  0  0  0
 15 16  1  0  0  0  0
 17  8  1  0  0  0  0
 17  6  1  0  0  0  0
 18  2  1  0  0  0  0
 18 24  1  0  0  0  0
 19 21  1  0  0  0  0
 19 24  1  0  0  0  0
 21  9  1  0  0  0  0
 22 25  1  0  0  0  0
 23 16  1  0  0  0  0
 24 15  1  0  0  0  0
 26 21  1  0  0  0  0
 27 26  1  0  0  0  0
 28 29  1  0  0  0  0
 28 26  1  0  0  0  0
 30 29  2  0  0  0  0
M  END
>  <MODEL>
5

>  <REMARK>
 VINA RESULT:      -5.1      4.341      7.948
  Name = 
  3 active torsions:
  status: ('A' for Active; 'I' for Inactive)
    1  A    between atoms: C_7  and  C_10
    2  A    between atoms: C_7  and  N_16
    3  A    between atoms: C_10  and  C_25
                            x       y       z     vdW  Elec       q    Type
                         _______ _______ _______ _____ _____    ______ ____

>  <TORSDO>
F 3

$$$$
=
 OpenBabel10262421593D

 30 34  0  0  1  0  0  0  0  0999 V2000
  181.5940  180.1600  137.9860 C   0  0  2  0  0  3  0  0  0  0  0  0
  179.9690  179.5510  135.9720 C   0  0  1  0  0  3  0  0  0  0  0  0
  182.1610  175.5500  136.6610 C   0  0  0  0  0  2  0  0  0  0  0  0
  182.6780  179.3770  138.7320 C   0  0  1  0  0  3  0  0  0  0  0  0
  180.4310  180.2610  138.7910 O   0  0  0  0  0  0  0  0  0  0  0  0
  179.5910  177.8370  142.1520 C   0  0  0  0  0  1  0  0  0  0  0  0
  182.1970  179.5400  140.1510 C   0  0  1  0  0  3  0  0  0  0  0  0
  180.0170  180.1170  141.1830 C   0  0  0  0  0  2  0  0  0  0  0  0
  182.9480  175.5200  137.9910 C   0  0  1  0  0  3  0  0  0  0  0  0
  180.7110  179.5410  139.9630 C   0  0  1  0  0  3  0  0  0  0  0  0
  181.9870  179.0100  142.8290 S   0  0  0  0  0  0  0  0  0  0  0  0
  178.9310  178.5450  136.4380 C   0  0  0  0  0  2  0  0  0  0  0  0
  179.5610  179.7850  143.4880 O   0  0  0  0  0  1  0  0  0  0  0  0
  179.4810  180.8510  136.1200 O   0  0  0  0  0  1  0  0  0  0  0  0
  181.1690  176.7220  136.6290 C   0  0  2  0  0  3  0  0  0  0  0  0
  180.3730  176.7260  135.3380 C   0  0  0  0  0  2  0  0  0  0  0  0
  180.2100  179.2040  142.4000 C   0  0  2  0  0  0  0  0  0  0  0  0
  181.3200  179.3860  136.6900 C   0  0  2  0  0  3  0  0  0  0  0  0
  182.4990  177.9540  138.2120 C   0  0  2  0  0  3  0  0  0  0  0  0
  183.9050  174.5040  137.9670 O   0  0  0  0  0  1  0  0  0  0  0  0
  183.5810  176.8800  138.3770 C   0  0  2  0  0  3  0  0  0  0  0  0
  184.1120  178.3810  141.2680 C   0  0  0  0  0  1  0  0  0  0  0  0
  178.9640  177.2820  135.5710 C   0  0  0  0  0  2  0  0  0  0  0  0
  181.9750  178.0090  136.8030 C   0  0  1  0  0  3  0  0  0  0  0  0
  182.6010  178.4900  141.1840 C   0  0  2  0  0  3  0  0  0  0  0  0
  184.9060  177.1590  137.6410 C   0  0  1  0  0  3  0  0  0  0  0  0
  184.7180  177.3020  136.2640 O   0  0  0  0  0  1  0  0  0  0  0  0
  185.6170  178.3780  138.2130 C   0  0  0  0  0  2  0  0  0  0  0  0
  187.0020  178.3900  137.8200 N   0  0  0  0  0  0  0  0  0  0  0  0
  187.4080  179.2140  137.0580 O   0  0  0  0  0  0  0  0  0  0  0  0
  1  4  1  0  0  0  0
  1  5  1  1  0  0  0
  2 14  1  1  0  0  0
  2 12  1  0  0  0  0
  2 18  1  0  0  0  0
  3  9  1  0  0  0  0
  4  7  1  0  0  0  0
  5 10  1  0  0  0  0
  6 17  1  0  0  0  0
  7 25  1  0  0  0  0
  8 17  1  0  0  0  0
  9 21  1  0  0  0  0
 10  7  1  0  0  0  0
 10  8  1  0  0  0  0
 15  3  1  0  0  0  0
 15 24  1  0  0  0  0
 16 23  1  0  0  0  0
 16 15  1  0  0  0  0
 17 11  1  0  0  0  0
 17 13  1  0  0  0  0
 18 24  1  0  0  0  0
 18  1  1  0  0  0  0
 19 21  1  0  0  0  0
 19  4  1  0  0  0  0
 20  9  1  0  0  0  0
 23 12  1  0  0  0  0
 24 19  1  0  0  0  0
 25 22  1  0  0  0  0
 25 11  1  0  0  0  0
 26 28  1  0  0  0  0
 26 21  1  0  0  0  0
 27 26  1  0  0  0  0
 29 28  1  0  0  0  0
 30 29  2  0  0  0  0
M  END
>  <MODEL>
6

>  <REMARK>
 VINA RESULT:      -4.8      5.680      7.807
  Name = 
  3 active torsions:
  status: ('A' for Active; 'I' for Inactive)
    1  A    between atoms: C_7  and  C_10
    2  A    between atoms: C_7  and  N_16
    3  A    between atoms: C_10  and  C_25
                            x       y       z     vdW  Elec       q    Type
                         _______ _______ _______ _____ _____    ______ ____

>  <TORSDO>
F 3

$$$$
=
 OpenBabel10262421593D

 30 34  0  0  1  0  0  0  0  0999 V2000
  183.4220  178.7250  139.5800 C   0  0  2  0  0  3  0  0  0  0  0  0
  185.5400  177.8300  138.2450 C   0  0  1  0  0  3  0  0  0  0  0  0
  182.1100  175.4470  136.2840 C   0  0  0  0  0  2  0  0  0  0  0  0
  181.9340  178.3640  139.5480 C   0  0  1  0  0  3  0  0  0  0  0  0
  183.6320  179.9650  138.9260 O   0  0  0  0  0  0  0  0  0  0  0  0
  180.8940  181.8110  136.2860 C   0  0  0  0  0  1  0  0  0  0  0  0
  181.3340  179.7270  139.3130 C   0  0  1  0  0  3  0  0  0  0  0  0
  182.2090  181.8730  138.4280 C   0  0  0  0  0  2  0  0  0  0  0  0
  180.7130  175.9990  136.6480 C   0  0  1  0  0  3  0  0  0  0  0  0
  182.3760  180.3650  138.4450 C   0  0  1  0  0  3  0  0  0  0  0  0
  179.4360  181.5700  138.6080 S   0  0  0  0  0  0  0  0  0  0  0  0
  185.4560  178.2740  136.7950 C   0  0  0  0  0  2  0  0  0  0  0  0
  180.7940  183.6560  137.7580 O   0  0  0  0  0  1  0  0  0  0  0  0
  186.2640  178.7590  138.9930 O   0  0  0  0  0  1  0  0  0  0  0  0
  183.2150  176.4510  136.6420 C   0  0  2  0  0  3  0  0  0  0  0  0
  184.5810  175.9220  136.2490 C   0  0  0  0  0  2  0  0  0  0  0  0
  180.8970  182.2670  137.7370 C   0  0  2  0  0  0  0  0  0  0  0  0
  184.1550  177.5800  138.8700 C   0  0  2  0  0  3  0  0  0  0  0  0
  181.8220  177.4560  138.3270 C   0  0  2  0  0  3  0  0  0  0  0  0
  179.7300  175.0390  136.3990 O   0  0  0  0  0  1  0  0  0  0  0  0
  180.6110  176.5450  138.0940 C   0  0  2  0  0  3  0  0  0  0  0  0
  178.9320  179.0420  139.4490 C   0  0  0  0  0  1  0  0  0  0  0  0
  185.5140  177.0690  135.8490 C   0  0  0  0  0  2  0  0  0  0  0  0
  183.1200  176.7200  138.1440 C   0  0  1  0  0  3  0  0  0  0  0  0
  179.9620  179.8160  138.6470 C   0  0  2  0  0  3  0  0  0  0  0  0
  180.4070  175.4360  139.1450 C   0  0  1  0  0  3  0  0  0  0  0  0
  181.4420  175.4110  140.0840 O   0  0  0  0  0  1  0  0  0  0  0  0
  179.0580  175.5630  139.8390 C   0  0  0  0  0  2  0  0  0  0  0  0
  179.2220  175.6000  141.2690 N   0  0  0  0  0  0  0  0  0  0  0  0
  179.1990  176.6410  141.8540 O   0  0  0  0  0  0  0  0  0  0  0  0
  1  5  1  6  0  0  0
  2 18  1  0  0  0  0
  2 14  1  1  0  0  0
  3 15  1  0  0  0  0
  3  9  1  0  0  0  0
  4  1  1  0  0  0  0
  6 17  1  0  0  0  0
  7  4  1  0  0  0  0
  8 10  1  0  0  0  0
  9 21  1  0  0  0  0
 10  5  1  0  0  0  0
 10  7  1  0  0  0  0
 11 25  1  0  0  0  0
 12  2  1  0  0  0  0
 15 24  1  0  0  0  0
 16 15  1  0  0  0  0
 17 13  1  0  0  0  0
 17  8  1  0  0  0  0
 17 11  1  0  0  0  0
 18  1  1  0  0  0  0
 19  4  1  0  0  0  0
 20  9  1  0  0  0  0
 21 19  1  0  0  0  0
 21 26  1  0  0  0  0
 23 16  1  0  0  0  0
 23 12  1  0  0  0  0
 24 19  1  0  0  0  0
 24 18  1  0  0  0  0
 25  7  1  0  0  0  0
 25 22  1  0  0  0  0
 26 28  1  0  0  0  0
 26 27  1  0  0  0  0
 28 29  1  0  0  0  0
 29 30  2  0  0  0  0
M  END
>  <MODEL>
7

>  <REMARK>
 VINA RESULT:      -4.4      6.234      9.520
  Name = 
  3 active torsions:
  status: ('A' for Active; 'I' for Inactive)
    1  A    between atoms: C_7  and  C_10
    2  A    between atoms: C_7  and  N_16
    3  A    between atoms: C_10  and  C_25
                            x       y       z     vdW  Elec       q    Type
                         _______ _______ _______ _____ _____    ______ ____

>  <TORSDO>
F 3

$$$$
=
 OpenBabel10262421593D

 30 34  0  0  1  0  0  0  0  0999 V2000
  181.3290  179.2020  136.9170 C   0  0  2  0  0  3  0  0  0  0  0  0
  180.0460  178.0470  134.8950 C   0  0  1  0  0  3  0  0  0  0  0  0
  182.9330  174.7000  136.2210 C   0  0  0  0  0  2  0  0  0  0  0  0
  182.4790  178.7510  137.8240 C   0  0  1  0  0  3  0  0  0  0  0  0
  180.1030  179.1410  137.6270 O   0  0  0  0  0  0  0  0  0  0  0  0
  179.4750  176.9770  141.2050 C   0  0  0  0  0  1  0  0  0  0  0  0
  181.8500  178.9630  139.1770 C   0  0  1  0  0  3  0  0  0  0  0  0
  179.5150  179.1760  139.9870 C   0  0  0  0  0  2  0  0  0  0  0  0
  183.5880  174.9820  137.5920 C   0  0  1  0  0  3  0  0  0  0  0  0
  180.4170  178.6290  138.8950 C   0  0  1  0  0  3  0  0  0  0  0  0
  181.5140  178.6970  141.8820 S   0  0  0  0  0  0  0  0  0  0  0  0
  179.1960  176.9000  135.4160 C   0  0  0  0  0  2  0  0  0  0  0  0
  178.9330  179.0090  142.2800 O   0  0  0  0  0  1  0  0  0  0  0  0
  179.2940  179.2220  134.8470 O   0  0  0  0  0  1  0  0  0  0  0  0
  181.7310  175.6240  135.9770 C   0  0  2  0  0  3  0  0  0  0  0  0
  181.0680  175.3190  134.6480 C   0  0  0  0  0  2  0  0  0  0  0  0
  179.7800  178.4630  141.3180 C   0  0  2  0  0  0  0  0  0  0  0  0
  181.3340  178.2500  135.7140 C   0  0  2  0  0  3  0  0  0  0  0  0
  182.6380  177.2750  137.4760 C   0  0  2  0  0  3  0  0  0  0  0  0
  184.7290  174.1950  137.7570 O   0  0  0  0  0  1  0  0  0  0  0  0
  183.8960  176.4790  137.8440 C   0  0  2  0  0  3  0  0  0  0  0  0
  183.8530  178.3650  140.5510 C   0  0  0  0  0  1  0  0  0  0  0  0
  179.5620  175.5860  134.7180 C   0  0  0  0  0  2  0  0  0  0  0  0
  182.2410  177.0640  136.0410 C   0  0  1  0  0  3  0  0  0  0  0  0
  182.3650  178.1420  140.3580 C   0  0  2  0  0  3  0  0  0  0  0  0
  185.1970  176.9500  137.1650 C   0  0  1  0  0  3  0  0  0  0  0  0
  185.0160  177.1890  135.8000 O   0  0  0  0  0  1  0  0  0  0  0  0
  185.7720  178.1810  137.8520 C   0  0  0  0  0  2  0  0  0  0  0  0
  187.0450  177.8800  138.4530 N   0  0  0  0  0  0  0  0  0  0  0  0
  187.4530  178.5330  139.3660 O   0  0  0  0  0  0  0  0  0  0  0  0
  1  5  1  1  0  0  0
  1  4  1  0  0  0  0
  2 14  1  1  0  0  0
  2 12  1  0  0  0  0
  2 18  1  0  0  0  0
  3  9  1  0  0  0  0
  4  7  1  0  0  0  0
  5 10  1  0  0  0  0
  6 17  1  0  0  0  0
  7 25  1  0  0  0  0
  8 17  1  0  0  0  0
  9 20  1  0  0  0  0
  9 21  1  0  0  0  0
 10  7  1  0  0  0  0
 10  8  1  0  0  0  0
 15 24  1  0  0  0  0
 15  3  1  0  0  0  0
 16 23  1  0  0  0  0
 16 15  1  0  0  0  0
 17 11  1  0  0  0  0
 17 13  1  0  0  0  0
 18 24  1  0  0  0  0
 18  1  1  0  0  0  0
 19  4  1  0  0  0  0
 19 21  1  0  0  0  0
 23 12  1  0  0  0  0
 24 19  1  0  0  0  0
 25 22  1  0  0  0  0
 25 11  1  0  0  0  0
 26 21  1  0  0  0  0
 26 28  1  0  0  0  0
 27 26  1  0  0  0  0
 28 29  1  0  0  0  0
 29 30  2  0  0  0  0
M  END
>  <MODEL>
8

>  <REMARK>
 VINA RESULT:      -4.2      5.422      7.743
  Name = 
  3 active torsions:
  status: ('A' for Active; 'I' for Inactive)
    1  A    between atoms: C_7  and  C_10
    2  A    between atoms: C_7  and  N_16
    3  A    between atoms: C_10  and  C_25
                            x       y       z     vdW  Elec       q    Type
                         _______ _______ _______ _____ _____    ______ ____

>  <TORSDO>
F 3

$$$$
=
 OpenBabel10262421593D

 30 34  0  0  1  0  0  0  0  0999 V2000
  184.7340  178.9320  138.6150 C   0  0  2  0  0  3  0  0  0  0  0  0
  185.6070  179.0690  141.1220 C   0  0  1  0  0  3  0  0  0  0  0  0
  181.0330  178.9440  141.7190 C   0  0  0  0  0  2  0  0  0  0  0  0
  183.3350  178.9230  137.9910 C   0  0  1  0  0  3  0  0  0  0  0  0
  185.2880  177.6270  138.5750 O   0  0  0  0  0  0  0  0  0  0  0  0
  183.0830  174.0710  137.9710 C   0  0  0  0  0  1  0  0  0  0  0  0
  183.4200  177.6660  137.1620 C   0  0  1  0  0  3  0  0  0  0  0  0
  184.8760  175.6590  137.2080 C   0  0  0  0  0  2  0  0  0  0  0  0
  180.2730  178.5420  140.4350 C   0  0  1  0  0  3  0  0  0  0  0  0
  184.2970  176.8050  138.0180 C   0  0  1  0  0  3  0  0  0  0  0  0
  182.5220  175.5290  135.7050 S   0  0  0  0  0  0  0  0  0  0  0  0
  185.2840  177.7740  141.8480 C   0  0  0  0  0  2  0  0  0  0  0  0
  184.3560  173.6700  136.0230 O   0  0  0  0  0  1  0  0  0  0  0  0
  186.8840  179.0020  140.5620 O   0  0  0  0  0  1  0  0  0  0  0  0
  182.5320  178.6300  141.5990 C   0  0  2  0  0  3  0  0  0  0  0  0
  183.2690  178.9910  142.8740 C   0  0  0  0  0  2  0  0  0  0  0  0
  183.7700  174.6930  136.7650 C   0  0  2  0  0  0  0  0  0  0  0  0
  184.5570  179.4280  140.0550 C   0  0  2  0  0  3  0  0  0  0  0  0
  182.4160  178.7660  139.1990 C   0  0  2  0  0  3  0  0  0  0  0  0
  178.9310  178.9150  140.5270 O   0  0  0  0  0  1  0  0  0  0  0  0
  180.9160  179.0760  139.1310 C   0  0  2  0  0  3  0  0  0  0  0  0
  181.1730  177.8510  136.0780 C   0  0  0  0  0  1  0  0  0  0  0  0
  184.4510  178.0450  143.1050 C   0  0  0  0  0  2  0  0  0  0  0  0
  183.0660  179.4050  140.3940 C   0  0  1  0  0  3  0  0  0  0  0  0
  182.1270  176.9310  136.8160 C   0  0  2  0  0  3  0  0  0  0  0  0
  180.5580  180.5460  138.8400 C   0  0  1  0  0  3  0  0  0  0  0  0
  181.6970  181.3450  138.7130 O   0  0  0  0  0  1  0  0  0  0  0  0
  179.6750  180.6740  137.6060 C   0  0  0  0  0  2  0  0  0  0  0  0
  180.3610  181.3870  136.5610 N   0  0  0  0  0  0  0  0  0  0  0  0
  179.8470  181.5380  135.4930 O   0  0  0  0  0  0  0  0  0  0  0  0
  1  5  1  1  0  0  0
  1 18  1  0  0  0  0
  2 14  1  6  0  0  0
  2 12  1  0  0  0  0
  4  1  1  0  0  0  0
  4 19  1  0  0  0  0
  7  4  1  0  0  0  0
  7 10  1  0  0  0  0
  8 10  1  0  0  0  0
  9 20  1  0  0  0  0
  9  3  1  0  0  0  0
 10  5  1  0  0  0  0
 11 17  1  0  0  0  0
 11 25  1  0  0  0  0
 12 23  1  0  0  0  0
 13 17  1  0  0  0  0
 15  3  1  0  0  0  0
 15 16  1  0  0  0  0
 16 23  1  0  0  0  0
 17  8  1  0  0  0  0
 17  6  1  0  0  0  0
 18 24  1  0  0  0  0
 18  2  1  0  0  0  0
 19 24  1  0  0  0  0
 21 19  1  0  0  0  0
 21  9  1  0  0  0  0
 22 25  1  0  0  0  0
 24 15  1  0  0  0  0
 25  7  1  0  0  0  0
 26 21  1  0  0  0  0
 27 26  1  0  0  0  0
 28 26  1  0  0  0  0
 29 28  1  0  0  0  0
 30 29  2  0  0  0  0
M  END
>  <MODEL>
9

>  <REMARK>
 VINA RESULT:      -4.1      5.921      9.486
  Name = 
  3 active torsions:
  status: ('A' for Active; 'I' for Inactive)
    1  A    between atoms: C_7  and  C_10
    2  A    between atoms: C_7  and  N_16
    3  A    between atoms: C_10  and  C_25
                            x       y       z     vdW  Elec       q    Type
                         _______ _______ _______ _____ _____    ______ ____

>  <TORSDO>
F 3

$$$$
