=
 OpenBabel10262421543D

 30 33  0  0  1  0  0  0  0  0999 V2000
  189.1650  177.5190  143.5410 C   0  0  0  0  0  3  0  0  0  0  0  0
  191.0840  176.7440  144.8070 C   0  0  0  0  0  0  0  0  0  0  0  0
  186.9010  177.8870  147.0790 C   0  0  0  0  0  3  0  0  0  0  0  0
  187.8370  177.9470  143.4740 C   0  0  0  0  0  0  0  0  0  0  0  0
  185.5820  178.3410  147.0150 C   0  0  0  0  0  3  0  0  0  0  0  0
  191.6700  176.4080  146.0290 C   0  0  0  0  0  3  0  0  0  0  0  0
  191.8140  176.6290  143.6680 F   0  0  0  0  0  0  0  0  0  0  0  0
  187.6700  177.7540  145.9090 C   0  0  0  0  0  0  0  0  0  0  0  0
  190.9380  176.5150  147.2140 C   0  0  0  0  0  3  0  0  0  0  0  0
  189.7540  177.1900  144.7640 C   0  0  0  0  0  0  0  0  0  0  0  0
  187.0880  178.0860  144.6590 C   0  0  0  0  0  0  0  0  0  0  0  0
  185.0140  178.6690  145.7840 C   0  0  0  0  0  3  0  0  0  0  0  0
  185.7620  178.5420  144.6120 C   0  0  0  0  0  3  0  0  0  0  0  0
  189.6140  176.9590  147.1810 C   0  0  0  0  0  3  0  0  0  0  0  0
  189.0050  177.3010  145.9620 C   0  0  0  0  0  0  0  0  0  0  0  0
  187.4610  178.4670  139.8760 O   0  0  0  0  0  0  0  0  0  0  0  0
  187.9490  178.0210  140.9480 C   0  0  0  0  0  0  0  0  0  0  0  0
  187.2740  178.2860  142.1980 N   0  0  0  0  0  0  0  0  0  0  0  0
  190.4600  178.0520  141.0940 C   0  0  0  0  0  2  0  0  0  0  0  0
  189.3950  176.3690  139.2580 S   0  0  0  0  0  0  0  0  0  0  0  0
  189.2220  177.2270  140.8500 C   0  0  2  0  0  3  0  0  0  0  0  0
  191.5530  177.3990  140.2850 C   0  0  0  0  0  2  0  0  0  0  0  0
  191.0070  177.0500  138.9840 N   0  0  0  0  0  2  0  0  0  0  0  0
  185.9920  178.9820  142.1900 C   0  0  0  0  0  2  0  0  0  0  0  0
  184.8940  178.0460  141.7120 C   0  0  0  0  0  2  0  0  0  0  0  0
  183.5910  178.8060  141.5550 C   0  0  0  0  0  2  0  0  0  0  0  0
  182.9870  178.4950  140.2690 N   0  0  0  0  0  2  0  0  0  0  0  0
  184.3020  180.2120  139.1270 O   0  0  0  0  0  1  0  0  0  0  0  0
  183.3500  179.2010  139.0830 C   0  0  0  0  0  0  0  0  0  0  0  0
  182.8050  178.9030  137.9900 O   0  0  0  0  0  0  0  0  0  0  0  0
  1 10  1  0  0  0  0
  2  6  1  0  0  0  0
  4  1  2  0  0  0  0
  4 11  1  0  0  0  0
  5  3  1  0  0  0  0
  6  9  2  0  0  0  0
  7  2  1  0  0  0  0
  8 15  1  0  0  0  0
  8  3  2  0  0  0  0
 10  2  2  0  0  0  0
 10 15  1  0  0  0  0
 11  8  1  0  0  0  0
 12  5  2  0  0  0  0
 13 11  2  0  0  0  0
 13 12  1  0  0  0  0
 14  9  1  0  0  0  0
 15 14  2  0  0  0  0
 16 17  2  0  0  0  0
 17 18  1  0  0  0  0
 18  4  1  0  0  0  0
 20 21  1  0  0  0  0
 21 17  1  6  0  0  0
 21 19  1  0  0  0  0
 22 19  1  0  0  0  0
 23 20  1  0  0  0  0
 23 22  1  0  0  0  0
 24 18  1  0  0  0  0
 25 24  1  0  0  0  0
 26 25  1  0  0  0  0
 27 26  1  0  0  0  0
 29 28  1  0  0  0  0
 29 27  1  0  0  0  0
 30 29  2  0  0  0  0
M  END
>  <MODEL>
1

>  <REMARK>
 VINA RESULT:      -9.5      0.000      0.000
  Name = 
  6 active torsions:
  status: ('A' for Active; 'I' for Inactive)
    1  A    between atoms: C_4  and  N_13
    2  A    between atoms: N_7  and  C_16
    3  A    between atoms: C_8  and  C_12
    4  A    between atoms: N_13  and  C_27
    5  A    between atoms: C_16  and  C_30
    6  A    between atoms: C_27  and  C_30
                            x       y       z     vdW  Elec       q    Type
                         _______ _______ _______ _____ _____    ______ ____

>  <TORSDO>
F 6

$$$$
=
 OpenBabel10262421543D

 30 33  0  0  1  0  0  0  0  0999 V2000
  183.1880  178.9600  141.5540 C   0  0  0  0  0  3  0  0  0  0  0  0
  183.0870  178.8650  143.9760 C   0  0  0  0  0  0  0  0  0  0  0  0
  187.3490  178.2860  141.6370 C   0  0  0  0  0  3  0  0  0  0  0  0
  183.9090  178.9190  140.3580 C   0  0  0  0  0  0  0  0  0  0  0  0
  188.0650  178.2180  140.4400 C   0  0  0  0  0  3  0  0  0  0  0  0
  183.7290  178.7130  145.2060 C   0  0  0  0  0  3  0  0  0  0  0  0
  181.7470  179.0780  143.9480 F   0  0  0  0  0  0  0  0  0  0  0  0
  185.9620  178.5150  141.6290 C   0  0  0  0  0  0  0  0  0  0  0  0
  185.1070  178.4960  145.2600 C   0  0  0  0  0  3  0  0  0  0  0  0
  183.8280  178.8010  142.7850 C   0  0  0  0  0  0  0  0  0  0  0  0
  185.2950  178.6760  140.3870 C   0  0  0  0  0  0  0  0  0  0  0  0
  187.4070  178.3750  139.2210 C   0  0  0  0  0  3  0  0  0  0  0  0
  186.0300  178.6030  139.1930 C   0  0  0  0  0  3  0  0  0  0  0  0
  185.8520  178.4300  144.0810 C   0  0  0  0  0  3  0  0  0  0  0  0
  185.2270  178.5810  142.8310 C   0  0  0  0  0  0  0  0  0  0  0  0
  182.3970  178.1840  137.1110 O   0  0  0  0  0  0  0  0  0  0  0  0
  182.8880  177.9620  138.2500 C   0  0  0  0  0  0  0  0  0  0  0  0
  183.2110  179.0760  139.1130 N   0  0  0  0  0  0  0  0  0  0  0  0
  184.0720  175.8030  137.7350 C   0  0  0  0  0  2  0  0  0  0  0  0
  181.5600  175.5770  138.7230 S   0  0  0  0  0  0  0  0  0  0  0  0
  183.1070  176.5260  138.6390 C   0  0  2  0  0  3  0  0  0  0  0  0
  183.6440  174.3570  137.7510 C   0  0  0  0  0  2  0  0  0  0  0  0
  182.1940  174.3120  137.6560 N   0  0  0  0  0  2  0  0  0  0  0  0
  182.8750  180.4320  138.6940 C   0  0  0  0  0  2  0  0  0  0  0  0
  181.3820  180.6680  138.8420 C   0  0  0  0  0  2  0  0  0  0  0  0
  180.8630  181.4840  137.6730 C   0  0  0  0  0  2  0  0  0  0  0  0
  181.2800  182.8710  137.8110 N   0  0  0  0  0  2  0  0  0  0  0  0
  180.8420  183.3370  135.4500 O   0  0  0  0  0  0  0  0  0  0  0  0
  181.2630  183.7680  136.7030 C   0  0  0  0  0  0  0  0  0  0  0  0
  181.6320  184.9610  136.8610 O   0  0  0  0  0  1  0  0  0  0  0  0
  1 10  1  0  0  0  0
  2  6  1  0  0  0  0
  4 11  1  0  0  0  0
  4  1  2  0  0  0  0
  5  3  2  0  0  0  0
  6  9  2  0  0  0  0
  7  2  1  0  0  0  0
  8  3  1  0  0  0  0
  8 15  1  0  0  0  0
 10 15  1  0  0  0  0
 10  2  2  0  0  0  0
 11  8  2  0  0  0  0
 12  5  1  0  0  0  0
 13 12  2  0  0  0  0
 13 11  1  0  0  0  0
 14  9  1  0  0  0  0
 15 14  2  0  0  0  0
 16 17  2  0  0  0  0
 17 18  1  0  0  0  0
 18  4  1  0  0  0  0
 19 22  1  0  0  0  0
 19 21  1  0  0  0  0
 21 17  1  6  0  0  0
 21 20  1  0  0  0  0
 23 22  1  0  0  0  0
 23 20  1  0  0  0  0
 24 25  1  0  0  0  0
 24 18  1  0  0  0  0
 26 27  1  0  0  0  0
 26 25  1  0  0  0  0
 28 29  2  0  0  0  0
 29 30  1  0  0  0  0
 29 27  1  0  0  0  0
M  END
>  <MODEL>
2

>  <REMARK>
 VINA RESULT:      -9.4      4.208      6.544
  Name = 
  6 active torsions:
  status: ('A' for Active; 'I' for Inactive)
    1  A    between atoms: C_4  and  N_13
    2  A    between atoms: N_7  and  C_16
    3  A    between atoms: C_8  and  C_12
    4  A    between atoms: N_13  and  C_27
    5  A    between atoms: C_16  and  C_30
    6  A    between atoms: C_27  and  C_30
                            x       y       z     vdW  Elec       q    Type
                         _______ _______ _______ _____ _____    ______ ____

>  <TORSDO>
F 6

$$$$
=
 OpenBabel10262421543D

 30 33  0  0  1  0  0  0  0  0999 V2000
  184.6350  178.8640  140.5200 C   0  0  0  0  0  3  0  0  0  0  0  0
  186.5990  178.4050  141.8680 C   0  0  0  0  0  0  0  0  0  0  0  0
  182.1590  178.6000  143.9230 C   0  0  0  0  0  3  0  0  0  0  0  0
  183.2540  179.0310  140.3890 C   0  0  0  0  0  0  0  0  0  0  0  0
  180.7830  178.7950  143.7970 C   0  0  0  0  0  3  0  0  0  0  0  0
  187.1740  178.1240  143.1090 C   0  0  0  0  0  3  0  0  0  0  0  0
  187.3960  178.4940  140.7730 F   0  0  0  0  0  0  0  0  0  0  0  0
  183.0000  178.6800  142.7990 C   0  0  0  0  0  0  0  0  0  0  0  0
  186.3740  178.0250  144.2490 C   0  0  0  0  0  3  0  0  0  0  0  0
  185.2110  178.5890  141.7620 C   0  0  0  0  0  0  0  0  0  0  0  0
  182.4310  178.9600  141.5300 C   0  0  0  0  0  0  0  0  0  0  0  0
  180.2270  179.0720  142.5480 C   0  0  0  0  0  3  0  0  0  0  0  0
  181.0450  179.1540  141.4210 C   0  0  0  0  0  3  0  0  0  0  0  0
  184.9930  178.2070  144.1540 C   0  0  0  0  0  3  0  0  0  0  0  0
  184.3930  178.4900  142.9150 C   0  0  0  0  0  0  0  0  0  0  0  0
  181.9250  178.6140  137.0090 O   0  0  0  0  0  0  0  0  0  0  0  0
  182.2710  178.2940  138.1770 C   0  0  0  0  0  0  0  0  0  0  0  0
  182.7030  179.3230  139.0960 N   0  0  0  0  0  0  0  0  0  0  0  0
  183.3940  176.0470  138.0560 C   0  0  0  0  0  2  0  0  0  0  0  0
  180.6870  176.0320  137.9540 S   0  0  0  0  0  0  0  0  0  0  0  0
  182.2060  176.8370  138.5420 C   0  0  2  0  0  3  0  0  0  0  0  0
  182.8860  174.6460  137.8210 C   0  0  0  0  0  2  0  0  0  0  0  0
  181.5960  174.7360  137.1580 N   0  0  0  0  0  2  0  0  0  0  0  0
  182.6420  180.7230  138.6890 C   0  0  0  0  0  2  0  0  0  0  0  0
  181.2020  181.2070  138.7050 C   0  0  0  0  0  2  0  0  0  0  0  0
  180.8750  181.9180  137.4060 C   0  0  0  0  0  2  0  0  0  0  0  0
  180.1070  183.1230  137.6780 N   0  0  0  0  0  2  0  0  0  0  0  0
  182.0110  184.5690  137.1640 O   0  0  0  0  0  0  0  0  0  0  0  0
  180.6860  184.4210  137.5530 C   0  0  0  0  0  0  0  0  0  0  0  0
  179.9890  185.4390  137.7970 O   0  0  0  0  0  1  0  0  0  0  0  0
  1 10  1  0  0  0  0
  2  6  1  0  0  0  0
  4  1  2  0  0  0  0
  4 11  1  0  0  0  0
  5  3  1  0  0  0  0
  6  9  2  0  0  0  0
  7  2  1  0  0  0  0
  8 15  1  0  0  0  0
  8  3  2  0  0  0  0
 10  2  2  0  0  0  0
 10 15  1  0  0  0  0
 11  8  1  0  0  0  0
 12  5  2  0  0  0  0
 13 11  2  0  0  0  0
 13 12  1  0  0  0  0
 14  9  1  0  0  0  0
 15 14  2  0  0  0  0
 16 17  2  0  0  0  0
 17 18  1  0  0  0  0
 18  4  1  0  0  0  0
 19 21  1  0  0  0  0
 20 21  1  0  0  0  0
 21 17  1  6  0  0  0
 22 19  1  0  0  0  0
 23 22  1  0  0  0  0
 23 20  1  0  0  0  0
 24 25  1  0  0  0  0
 24 18  1  0  0  0  0
 26 27  1  0  0  0  0
 26 25  1  0  0  0  0
 28 29  2  0  0  0  0
 29 27  1  0  0  0  0
 29 30  1  0  0  0  0
M  END
>  <MODEL>
3

>  <REMARK>
 VINA RESULT:      -9.4      4.018      6.377
  Name = 
  6 active torsions:
  status: ('A' for Active; 'I' for Inactive)
    1  A    between atoms: C_4  and  N_13
    2  A    between atoms: N_7  and  C_16
    3  A    between atoms: C_8  and  C_12
    4  A    between atoms: N_13  and  C_27
    5  A    between atoms: C_16  and  C_30
    6  A    between atoms: C_27  and  C_30
                            x       y       z     vdW  Elec       q    Type
                         _______ _______ _______ _____ _____    ______ ____

>  <TORSDO>
F 6

$$$$
=
 OpenBabel10262421543D

 30 33  0  0  1  0  0  0  0  0999 V2000
  186.8240  178.1580  141.2240 C   0  0  0  0  0  3  0  0  0  0  0  0
  184.5510  178.6970  140.5700 C   0  0  0  0  0  0  0  0  0  0  0  0
  185.6900  178.0160  145.2830 C   0  0  0  0  0  3  0  0  0  0  0  0
  187.7820  177.8850  142.2040 C   0  0  0  0  0  0  0  0  0  0  0  0
  186.6420  177.7160  146.2600 C   0  0  0  0  0  3  0  0  0  0  0  0
  183.2230  178.9520  140.9160 C   0  0  0  0  0  3  0  0  0  0  0  0
  184.9160  178.7390  139.2630 F   0  0  0  0  0  0  0  0  0  0  0  0
  186.0500  178.0720  143.9250 C   0  0  0  0  0  0  0  0  0  0  0  0
  182.8240  178.9170  142.2540 C   0  0  0  0  0  3  0  0  0  0  0  0
  185.4940  178.4060  141.5690 C   0  0  0  0  0  0  0  0  0  0  0  0
  187.3970  177.8200  143.5570 C   0  0  0  0  0  0  0  0  0  0  0  0
  187.9640  177.4670  145.8940 C   0  0  0  0  0  3  0  0  0  0  0  0
  188.3410  177.5190  144.5520 C   0  0  0  0  0  3  0  0  0  0  0  0
  183.7540  178.6280  143.2540 C   0  0  0  0  0  3  0  0  0  0  0  0
  185.0970  178.3690  142.9290 C   0  0  0  0  0  0  0  0  0  0  0  0
  190.7020  177.0690  140.1630 O   0  0  0  0  0  0  0  0  0  0  0  0
  189.5240  177.4280  140.4280 C   0  0  0  0  0  0  0  0  0  0  0  0
  189.1360  177.6240  141.8060 N   0  0  0  0  0  0  0  0  0  0  0  0
  188.4570  176.4210  138.3850 C   0  0  0  0  0  2  0  0  0  0  0  0
  189.0420  179.0620  138.2430 S   0  0  0  0  0  0  0  0  0  0  0  0
  188.5880  177.6340  139.2690 C   0  0  2  0  0  3  0  0  0  0  0  0
  188.1560  176.9500  137.0050 C   0  0  0  0  0  2  0  0  0  0  0  0
  189.0210  178.0930  136.7590 N   0  0  0  0  0  2  0  0  0  0  0  0
  190.1360  177.4970  142.8600 C   0  0  0  0  0  2  0  0  0  0  0  0
  190.5530  176.0430  143.0110 C   0  0  0  0  0  2  0  0  0  0  0  0
  191.7400  175.9330  143.9480 C   0  0  0  0  0  2  0  0  0  0  0  0
  191.5310  176.7740  145.1160 N   0  0  0  0  0  2  0  0  0  0  0  0
  192.4090  175.0620  146.6260 O   0  0  0  0  0  0  0  0  0  0  0  0
  191.8670  176.3260  146.4280 C   0  0  0  0  0  0  0  0  0  0  0  0
  191.6710  177.0820  147.4140 O   0  0  0  0  0  1  0  0  0  0  0  0
  1 10  2  0  0  0  0
  1  4  1  0  0  0  0
  2  6  2  0  0  0  0
  2 10  1  0  0  0  0
  3  5  2  0  0  0  0
  4 11  2  0  0  0  0
  6  9  1  0  0  0  0
  7  2  1  0  0  0  0
  8  3  1  0  0  0  0
  9 14  2  0  0  0  0
 10 15  1  0  0  0  0
 11  8  1  0  0  0  0
 11 13  1  0  0  0  0
 12  5  1  0  0  0  0
 13 12  2  0  0  0  0
 15 14  1  0  0  0  0
 15  8  2  0  0  0  0
 16 17  2  0  0  0  0
 17 18  1  0  0  0  0
 18  4  1  0  0  0  0
 18 24  1  0  0  0  0
 19 21  1  0  0  0  0
 20 21  1  0  0  0  0
 21 17  1  1  0  0  0
 22 19  1  0  0  0  0
 23 22  1  0  0  0  0
 23 20  1  0  0  0  0
 24 25  1  0  0  0  0
 25 26  1  0  0  0  0
 26 27  1  0  0  0  0
 27 29  1  0  0  0  0
 29 28  2  0  0  0  0
 29 30  1  0  0  0  0
M  END
>  <MODEL>
4

>  <REMARK>
 VINA RESULT:      -9.4      3.383      6.477
  Name = 
  6 active torsions:
  status: ('A' for Active; 'I' for Inactive)
    1  A    between atoms: C_4  and  N_13
    2  A    between atoms: N_7  and  C_16
    3  A    between atoms: C_8  and  C_12
    4  A    between atoms: N_13  and  C_27
    5  A    between atoms: C_16  and  C_30
    6  A    between atoms: C_27  and  C_30
                            x       y       z     vdW  Elec       q    Type
                         _______ _______ _______ _____ _____    ______ ____

>  <TORSDO>
F 6

$$$$
=
 OpenBabel10262421543D

 30 33  0  0  1  0  0  0  0  0999 V2000
  183.1350  178.8750  141.5750 C   0  0  0  0  0  3  0  0  0  0  0  0
  183.1730  178.7790  143.9990 C   0  0  0  0  0  0  0  0  0  0  0  0
  187.3140  178.3320  141.4250 C   0  0  0  0  0  3  0  0  0  0  0  0
  183.7890  178.8560  140.3410 C   0  0  0  0  0  0  0  0  0  0  0  0
  187.9640  178.2840  140.1900 C   0  0  0  0  0  3  0  0  0  0  0  0
  183.8870  178.6490  145.1920 C   0  0  0  0  0  3  0  0  0  0  0  0
  181.8270  178.9510  144.0470 F   0  0  0  0  0  0  0  0  0  0  0  0
  185.9220  178.5160  141.4950 C   0  0  0  0  0  0  0  0  0  0  0  0
  185.2720  178.4740  145.1680 C   0  0  0  0  0  3  0  0  0  0  0  0
  183.8480  178.7380  142.7680 C   0  0  0  0  0  0  0  0  0  0  0  0
  185.1820  178.6560  140.2920 C   0  0  0  0  0  0  0  0  0  0  0  0
  187.2330  178.4200  139.0100 C   0  0  0  0  0  3  0  0  0  0  0  0
  185.8510  178.6050  139.0590 C   0  0  0  0  0  3  0  0  0  0  0  0
  185.9510  178.4300  143.9490 C   0  0  0  0  0  3  0  0  0  0  0  0
  185.2530  178.5610  142.7370 C   0  0  0  0  0  0  0  0  0  0  0  0
  182.1430  178.0790  137.1710 O   0  0  0  0  0  0  0  0  0  0  0  0
  182.7050  177.8700  138.2790 C   0  0  0  0  0  0  0  0  0  0  0  0
  183.0180  178.9900  139.1370 N   0  0  0  0  0  0  0  0  0  0  0  0
  184.0190  175.8000  137.7140 C   0  0  0  0  0  2  0  0  0  0  0  0
  181.5310  175.3980  138.7090 S   0  0  0  0  0  0  0  0  0  0  0  0
  183.0150  176.4430  138.6370 C   0  0  2  0  0  3  0  0  0  0  0  0
  183.6810  174.3300  137.7030 C   0  0  0  0  0  2  0  0  0  0  0  0
  182.2370  174.1970  137.6130 N   0  0  0  0  0  2  0  0  0  0  0  0
  182.5940  180.3310  138.7540 C   0  0  0  0  0  2  0  0  0  0  0  0
  181.0850  180.3710  138.5800 C   0  0  0  0  0  2  0  0  0  0  0  0
  180.4220  180.8160  139.8690 C   0  0  0  0  0  2  0  0  0  0  0  0
  179.7770  179.6840  140.5140 N   0  0  0  0  0  2  0  0  0  0  0  0
  179.8210  180.7790  142.7000 O   0  0  0  0  0  1  0  0  0  0  0  0
  179.4890  179.6840  141.9110 C   0  0  0  0  0  0  0  0  0  0  0  0
  178.9310  178.6850  142.4330 O   0  0  0  0  0  0  0  0  0  0  0  0
  1 10  1  0  0  0  0
  2  7  1  0  0  0  0
  2  6  1  0  0  0  0
  3  8  1  0  0  0  0
  4  1  2  0  0  0  0
  5  3  2  0  0  0  0
  8 15  1  0  0  0  0
  9  6  2  0  0  0  0
 10  2  2  0  0  0  0
 11  4  1  0  0  0  0
 11  8  2  0  0  0  0
 12 13  2  0  0  0  0
 12  5  1  0  0  0  0
 13 11  1  0  0  0  0
 14  9  1  0  0  0  0
 15 10  1  0  0  0  0
 15 14  2  0  0  0  0
 16 17  2  0  0  0  0
 17 18  1  0  0  0  0
 18  4  1  0  0  0  0
 19 21  1  0  0  0  0
 21 17  1  6  0  0  0
 21 20  1  0  0  0  0
 22 19  1  0  0  0  0
 23 22  1  0  0  0  0
 23 20  1  0  0  0  0
 24 18  1  0  0  0  0
 25 24  1  0  0  0  0
 25 26  1  0  0  0  0
 26 27  1  0  0  0  0
 27 29  1  0  0  0  0
 29 30  2  0  0  0  0
 29 28  1  0  0  0  0
M  END
>  <MODEL>
5

>  <REMARK>
 VINA RESULT:      -9.3      4.251      6.473
  Name = 
  6 active torsions:
  status: ('A' for Active; 'I' for Inactive)
    1  A    between atoms: C_4  and  N_13
    2  A    between atoms: N_7  and  C_16
    3  A    between atoms: C_8  and  C_12
    4  A    between atoms: N_13  and  C_27
    5  A    between atoms: C_16  and  C_30
    6  A    between atoms: C_27  and  C_30
                            x       y       z     vdW  Elec       q    Type
                         _______ _______ _______ _____ _____    ______ ____

>  <TORSDO>
F 6

$$$$
=
 OpenBabel10262421543D

 30 33  0  0  1  0  0  0  0  0999 V2000
  181.6670  178.9240  141.9190 C   0  0  0  0  0  3  0  0  0  0  0  0
  182.4910  178.9070  144.2010 C   0  0  0  0  0  0  0  0  0  0  0  0
  185.6010  178.6250  140.4300 C   0  0  0  0  0  3  0  0  0  0  0  0
  181.8880  178.9050  140.5400 C   0  0  0  0  0  0  0  0  0  0  0  0
  185.8190  178.5780  139.0510 C   0  0  0  0  0  3  0  0  0  0  0  0
  183.5580  178.8570  145.1000 C   0  0  0  0  0  3  0  0  0  0  0  0
  181.2240  179.0000  144.6800 F   0  0  0  0  0  0  0  0  0  0  0  0
  184.2960  178.7290  140.9450 C   0  0  0  0  0  0  0  0  0  0  0  0
  184.8710  178.7650  144.6300 C   0  0  0  0  0  3  0  0  0  0  0  0
  182.7340  178.8670  142.8190 C   0  0  0  0  0  0  0  0  0  0  0  0
  183.2010  178.7870  140.0450 C   0  0  0  0  0  0  0  0  0  0  0  0
  184.7400  178.6330  138.1700 C   0  0  0  0  0  3  0  0  0  0  0  0
  183.4380  178.7370  138.6620 C   0  0  0  0  0  3  0  0  0  0  0  0
  185.1220  178.7230  143.2570 C   0  0  0  0  0  3  0  0  0  0  0  0
  184.0620  178.7740  142.3350 C   0  0  0  0  0  0  0  0  0  0  0  0
  179.2740  177.8950  138.1930 O   0  0  0  0  0  0  0  0  0  0  0  0
  180.1690  177.7710  139.0700 C   0  0  0  0  0  0  0  0  0  0  0  0
  180.7630  178.9550  139.6500 N   0  0  0  0  0  0  0  0  0  0  0  0
  180.7770  175.4620  138.2810 C   0  0  0  0  0  2  0  0  0  0  0  0
  179.3740  175.5980  140.5940 S   0  0  0  0  0  0  0  0  0  0  0  0
  180.5640  176.3740  139.4610 C   0  0  2  0  0  3  0  0  0  0  0  0
  180.4300  174.0760  138.7660 C   0  0  0  0  0  2  0  0  0  0  0  0
  179.2190  174.1640  139.5640 N   0  0  0  0  0  2  0  0  0  0  0  0
  180.2510  180.2700  139.2820 C   0  0  0  0  0  2  0  0  0  0  0  0
  180.8500  180.7100  137.9570 C   0  0  0  0  0  2  0  0  0  0  0  0
  181.4090  182.1150  138.0760 C   0  0  0  0  0  2  0  0  0  0  0  0
  180.7580  182.9920  137.1160 N   0  0  0  0  0  2  0  0  0  0  0  0
  182.3060  184.8240  137.5940 O   0  0  0  0  0  1  0  0  0  0  0  0
  181.2150  184.3250  136.8930 C   0  0  0  0  0  0  0  0  0  0  0  0
  180.6250  185.0540  136.0540 O   0  0  0  0  0  0  0  0  0  0  0  0
  1 10  1  0  0  0  0
  2  7  1  0  0  0  0
  2  6  1  0  0  0  0
  3  8  1  0  0  0  0
  4  1  2  0  0  0  0
  5  3  2  0  0  0  0
  8 15  1  0  0  0  0
  9  6  2  0  0  0  0
 10  2  2  0  0  0  0
 11  4  1  0  0  0  0
 11  8  2  0  0  0  0
 12 13  2  0  0  0  0
 12  5  1  0  0  0  0
 13 11  1  0  0  0  0
 14  9  1  0  0  0  0
 15 10  1  0  0  0  0
 15 14  2  0  0  0  0
 16 17  2  0  0  0  0
 17 18  1  0  0  0  0
 18  4  1  0  0  0  0
 19 22  1  0  0  0  0
 19 21  1  0  0  0  0
 21 17  1  6  0  0  0
 21 20  1  0  0  0  0
 22 23  1  0  0  0  0
 23 20  1  0  0  0  0
 24 18  1  0  0  0  0
 25 26  1  0  0  0  0
 25 24  1  0  0  0  0
 27 26  1  0  0  0  0
 29 27  1  0  0  0  0
 29 28  1  0  0  0  0
 30 29  2  0  0  0  0
M  END
>  <MODEL>
6

>  <REMARK>
 VINA RESULT:      -9.2      5.378      7.857
  Name = 
  6 active torsions:
  status: ('A' for Active; 'I' for Inactive)
    1  A    between atoms: C_4  and  N_13
    2  A    between atoms: N_7  and  C_16
    3  A    between atoms: C_8  and  C_12
    4  A    between atoms: N_13  and  C_27
    5  A    between atoms: C_16  and  C_30
    6  A    between atoms: C_27  and  C_30
                            x       y       z     vdW  Elec       q    Type
                         _______ _______ _______ _____ _____    ______ ____

>  <TORSDO>
F 6

$$$$
=
 OpenBabel10262421543D

 30 33  0  0  1  0  0  0  0  0999 V2000
  188.3300  177.8080  141.8450 C   0  0  0  0  0  3  0  0  0  0  0  0
  190.5250  177.1000  142.5940 C   0  0  0  0  0  0  0  0  0  0  0  0
  186.9140  177.8380  145.8170 C   0  0  0  0  0  3  0  0  0  0  0  0
  187.0000  178.1480  142.1050 C   0  0  0  0  0  0  0  0  0  0  0  0
  185.5920  178.2050  146.0790 C   0  0  0  0  0  3  0  0  0  0  0  0
  191.3910  176.7410  143.6290 C   0  0  0  0  0  3  0  0  0  0  0  0
  190.9820  177.0940  141.3160 F   0  0  0  0  0  0  0  0  0  0  0  0
  187.4020  177.8180  144.4980 C   0  0  0  0  0  0  0  0  0  0  0  0
  190.9430  176.7370  144.9520 C   0  0  0  0  0  3  0  0  0  0  0  0
  189.1980  177.4560  142.8800 C   0  0  0  0  0  0  0  0  0  0  0  0
  186.5340  178.1750  143.4340 C   0  0  0  0  0  0  0  0  0  0  0  0
  184.7420  178.5570  145.0310 C   0  0  0  0  0  3  0  0  0  0  0  0
  185.2090  178.5420  143.7160 C   0  0  0  0  0  3  0  0  0  0  0  0
  189.6250  177.0910  145.2460 C   0  0  0  0  0  3  0  0  0  0  0  0
  188.7360  177.4540  144.2200 C   0  0  0  0  0  0  0  0  0  0  0  0
  185.8040  178.8870  138.7310 O   0  0  0  0  0  0  0  0  0  0  0  0
  186.5530  178.4220  139.6300 C   0  0  0  0  0  0  0  0  0  0  0  0
  186.1430  178.5150  141.0130 N   0  0  0  0  0  0  0  0  0  0  0  0
  188.8820  178.7900  138.7540 C   0  0  0  0  0  2  0  0  0  0  0  0
  187.6160  176.5630  137.8720 S   0  0  0  0  0  0  0  0  0  0  0  0
  187.8450  177.7880  139.1930 C   0  0  2  0  0  3  0  0  0  0  0  0
  189.7250  178.0800  137.7240 C   0  0  0  0  0  2  0  0  0  0  0  0
  188.8390  177.3340  136.8470 N   0  0  0  0  0  2  0  0  0  0  0  0
  184.8290  179.0580  141.3390 C   0  0  0  0  0  2  0  0  0  0  0  0
  183.7450  178.0690  140.9480 C   0  0  0  0  0  2  0  0  0  0  0  0
  182.4990  178.8080  140.4980 C   0  0  0  0  0  2  0  0  0  0  0  0
  181.3120  178.1180  140.9760 N   0  0  0  0  0  2  0  0  0  0  0  0
  181.2020  179.4980  142.9920 O   0  0  0  0  0  1  0  0  0  0  0  0
  180.6870  178.4730  142.2080 C   0  0  0  0  0  0  0  0  0  0  0  0
  179.6610  177.8520  142.5880 O   0  0  0  0  0  0  0  0  0  0  0  0
  1  4  2  0  0  0  0
  1 10  1  0  0  0  0
  2 10  2  0  0  0  0
  2  6  1  0  0  0  0
  3  5  1  0  0  0  0
  4 11  1  0  0  0  0
  6  9  2  0  0  0  0
  7  2  1  0  0  0  0
  8  3  2  0  0  0  0
  9 14  1  0  0  0  0
 10 15  1  0  0  0  0
 11 13  2  0  0  0  0
 11  8  1  0  0  0  0
 12  5  2  0  0  0  0
 13 12  1  0  0  0  0
 15  8  1  0  0  0  0
 15 14  2  0  0  0  0
 16 17  2  0  0  0  0
 17 18  1  0  0  0  0
 18 24  1  0  0  0  0
 18  4  1  0  0  0  0
 19 21  1  0  0  0  0
 20 21  1  0  0  0  0
 21 17  1  6  0  0  0
 22 19  1  0  0  0  0
 23 22  1  0  0  0  0
 23 20  1  0  0  0  0
 25 24  1  0  0  0  0
 26 25  1  0  0  0  0
 26 27  1  0  0  0  0
 27 29  1  0  0  0  0
 29 30  2  0  0  0  0
 29 28  1  0  0  0  0
M  END
>  <MODEL>
7

>  <REMARK>
 VINA RESULT:      -9.2      2.152      2.460
  Name = 
  6 active torsions:
  status: ('A' for Active; 'I' for Inactive)
    1  A    between atoms: C_4  and  N_13
    2  A    between atoms: N_7  and  C_16
    3  A    between atoms: C_8  and  C_12
    4  A    between atoms: N_13  and  C_27
    5  A    between atoms: C_16  and  C_30
    6  A    between atoms: C_27  and  C_30
                            x       y       z     vdW  Elec       q    Type
                         _______ _______ _______ _____ _____    ______ ____

>  <TORSDO>
F 6

$$$$
=
 OpenBabel10262421543D

 30 33  0  0  1  0  0  0  0  0999 V2000
  184.2170  178.6270  139.4960 C   0  0  0  0  0  3  0  0  0  0  0  0
  186.6200  178.3710  139.2840 C   0  0  0  0  0  0  0  0  0  0  0  0
  184.5340  178.7350  143.6990 C   0  0  0  0  0  3  0  0  0  0  0  0
  183.0650  178.7530  140.2760 C   0  0  0  0  0  0  0  0  0  0  0  0
  183.3860  178.8890  144.4780 C   0  0  0  0  0  3  0  0  0  0  0  0
  187.8790  178.2520  139.8760 C   0  0  0  0  0  3  0  0  0  0  0  0
  186.5170  178.3400  137.9310 F   0  0  0  0  0  0  0  0  0  0  0  0
  184.4470  178.6930  142.2960 C   0  0  0  0  0  0  0  0  0  0  0  0
  188.0090  178.2780  141.2660 C   0  0  0  0  0  3  0  0  0  0  0  0
  185.4770  178.5150  140.0870 C   0  0  0  0  0  0  0  0  0  0  0  0
  183.1750  178.8070  141.6790 C   0  0  0  0  0  0  0  0  0  0  0  0
  182.1370  179.0030  143.8680 C   0  0  0  0  0  3  0  0  0  0  0  0
  182.0310  178.9620  142.4770 C   0  0  0  0  0  3  0  0  0  0  0  0
  186.8780  178.4230  142.0720 C   0  0  0  0  0  3  0  0  0  0  0  0
  185.6010  178.5430  141.4980 C   0  0  0  0  0  0  0  0  0  0  0  0
  180.0850  177.9790  138.3060 O   0  0  0  0  0  0  0  0  0  0  0  0
  181.1350  177.7700  138.9700 C   0  0  0  0  0  0  0  0  0  0  0  0
  181.7900  178.8770  139.6280 N   0  0  0  0  0  0  0  0  0  0  0  0
  182.3930  175.9340  137.7970 C   0  0  0  0  0  2  0  0  0  0  0  0
  180.3200  175.1500  139.3550 S   0  0  0  0  0  0  0  0  0  0  0  0
  181.6410  176.3550  139.0340 C   0  0  2  0  0  3  0  0  0  0  0  0
  182.1790  174.4460  137.6750 C   0  0  0  0  0  2  0  0  0  0  0  0
  180.7810  174.1640  137.9570 N   0  0  0  0  0  2  0  0  0  0  0  0
  181.1760  180.2000  139.5950 C   0  0  0  0  0  2  0  0  0  0  0  0
  181.6220  180.9490  138.3500 C   0  0  0  0  0  2  0  0  0  0  0  0
  181.0250  182.3430  138.3370 C   0  0  0  0  0  2  0  0  0  0  0  0
  180.7220  182.7420  136.9720 N   0  0  0  0  0  2  0  0  0  0  0  0
  181.9310  184.8540  137.2190 O   0  0  0  0  0  1  0  0  0  0  0  0
  181.1770  183.9840  136.4390 C   0  0  0  0  0  0  0  0  0  0  0  0
  180.8950  184.2940  135.2530 O   0  0  0  0  0  0  0  0  0  0  0  0
  1 10  2  0  0  0  0
  1  4  1  0  0  0  0
  2  6  2  0  0  0  0
  2 10  1  0  0  0  0
  3  5  2  0  0  0  0
  4 11  2  0  0  0  0
  6  9  1  0  0  0  0
  7  2  1  0  0  0  0
  8  3  1  0  0  0  0
  9 14  2  0  0  0  0
 10 15  1  0  0  0  0
 11  8  1  0  0  0  0
 11 13  1  0  0  0  0
 12  5  1  0  0  0  0
 13 12  2  0  0  0  0
 15 14  1  0  0  0  0
 15  8  2  0  0  0  0
 16 17  2  0  0  0  0
 17 18  1  0  0  0  0
 18  4  1  0  0  0  0
 19 21  1  0  0  0  0
 21 17  1  6  0  0  0
 21 20  1  0  0  0  0
 22 19  1  0  0  0  0
 22 23  1  0  0  0  0
 23 20  1  0  0  0  0
 24 18  1  0  0  0  0
 25 24  1  0  0  0  0
 26 25  1  0  0  0  0
 27 26  1  0  0  0  0
 29 27  1  0  0  0  0
 29 28  1  0  0  0  0
 30 29  2  0  0  0  0
M  END
>  <MODEL>
8

>  <REMARK>
 VINA RESULT:      -9.2      4.630      6.668
  Name = 
  6 active torsions:
  status: ('A' for Active; 'I' for Inactive)
    1  A    between atoms: C_4  and  N_13
    2  A    between atoms: N_7  and  C_16
    3  A    between atoms: C_8  and  C_12
    4  A    between atoms: N_13  and  C_27
    5  A    between atoms: C_16  and  C_30
    6  A    between atoms: C_27  and  C_30
                            x       y       z     vdW  Elec       q    Type
                         _______ _______ _______ _____ _____    ______ ____

>  <TORSDO>
F 6

$$$$
=
 OpenBabel10262421543D

 30 33  0  0  1  0  0  0  0  0999 V2000
  185.5020  178.7690  142.4390 C   0  0  0  0  0  3  0  0  0  0  0  0
  184.2510  179.0820  144.4930 C   0  0  0  0  0  0  0  0  0  0  0  0
  188.6090  176.8500  144.5470 C   0  0  0  0  0  3  0  0  0  0  0  0
  186.6340  178.3220  141.7520 C   0  0  0  0  0  0  0  0  0  0  0  0
  189.7270  176.3780  143.8570 C   0  0  0  0  0  3  0  0  0  0  0  0
  184.1420  178.9280  145.8770 C   0  0  0  0  0  3  0  0  0  0  0  0
  183.2500  179.6970  143.8140 F   0  0  0  0  0  0  0  0  0  0  0  0
  187.5650  177.4960  143.8610 C   0  0  0  0  0  0  0  0  0  0  0  0
  185.1610  178.3020  146.5980 C   0  0  0  0  0  3  0  0  0  0  0  0
  185.3900  178.6090  143.8210 C   0  0  0  0  0  0  0  0  0  0  0  0
  187.6620  177.6650  142.4560 C   0  0  0  0  0  0  0  0  0  0  0  0
  189.8190  176.5450  142.4760 C   0  0  0  0  0  3  0  0  0  0  0  0
  188.7930  177.1850  141.7780 C   0  0  0  0  0  3  0  0  0  0  0  0
  186.2960  177.8260  145.9380 C   0  0  0  0  0  3  0  0  0  0  0  0
  186.4270  177.9730  144.5460 C   0  0  0  0  0  0  0  0  0  0  0  0
  185.6620  178.6410  138.2430 O   0  0  0  0  0  0  0  0  0  0  0  0
  185.5320  178.6280  139.4960 C   0  0  0  0  0  0  0  0  0  0  0  0
  186.7050  178.4970  140.3290 N   0  0  0  0  0  0  0  0  0  0  0  0
  183.4190  177.4360  140.1590 C   0  0  0  0  0  2  0  0  0  0  0  0
  183.1070  179.9070  139.0940 S   0  0  0  0  0  0  0  0  0  0  0  0
  184.1380  178.7550  140.0470 C   0  0  2  0  0  3  0  0  0  0  0  0
  181.9540  177.7530  139.9910 C   0  0  0  0  0  2  0  0  0  0  0  0
  181.8170  178.7070  138.9020 N   0  0  0  0  0  2  0  0  0  0  0  0
  188.0270  178.4770  139.7130 C   0  0  0  0  0  2  0  0  0  0  0  0
  188.0720  177.4330  138.6090 C   0  0  0  0  0  2  0  0  0  0  0  0
  189.3150  177.6210  137.7610 C   0  0  0  0  0  2  0  0  0  0  0  0
  190.4650  177.8780  138.6140 N   0  0  0  0  0  2  0  0  0  0  0  0
  191.0390  175.5030  138.7190 O   0  0  0  0  0  0  0  0  0  0  0  0
  191.3020  176.8200  139.0760 C   0  0  0  0  0  0  0  0  0  0  0  0
  192.2880  177.0820  139.8130 O   0  0  0  0  0  1  0  0  0  0  0  0
  1 10  1  0  0  0  0
  2  6  1  0  0  0  0
  4  1  2  0  0  0  0
  4 11  1  0  0  0  0
  5  3  2  0  0  0  0
  6  9  2  0  0  0  0
  7  2  1  0  0  0  0
  8 15  1  0  0  0  0
  8  3  1  0  0  0  0
 10  2  2  0  0  0  0
 10 15  1  0  0  0  0
 11  8  2  0  0  0  0
 12  5  1  0  0  0  0
 13 11  1  0  0  0  0
 13 12  2  0  0  0  0
 14  9  1  0  0  0  0
 15 14  2  0  0  0  0
 16 17  2  0  0  0  0
 17 18  1  0  0  0  0
 18  4  1  0  0  0  0
 20 21  1  0  0  0  0
 21 17  1  6  0  0  0
 21 19  1  0  0  0  0
 22 19  1  0  0  0  0
 23 20  1  0  0  0  0
 23 22  1  0  0  0  0
 24 18  1  0  0  0  0
 25 24  1  0  0  0  0
 26 25  1  0  0  0  0
 26 27  1  0  0  0  0
 27 29  1  0  0  0  0
 28 29  2  0  0  0  0
 29 30  1  0  0  0  0
M  END
>  <MODEL>
9

>  <REMARK>
 VINA RESULT:      -9.1      2.871      6.082
  Name = 
  6 active torsions:
  status: ('A' for Active; 'I' for Inactive)
    1  A    between atoms: C_4  and  N_13
    2  A    between atoms: N_7  and  C_16
    3  A    between atoms: C_8  and  C_12
    4  A    between atoms: N_13  and  C_27
    5  A    between atoms: C_16  and  C_30
    6  A    between atoms: C_27  and  C_30
                            x       y       z     vdW  Elec       q    Type
                         _______ _______ _______ _____ _____    ______ ____

>  <TORSDO>
F 6

$$$$
