=
 OpenBabel10262421083D

 32 37  0  0  1  0  0  0  0  0999 V2000
  189.7990  177.4870  142.7280 C   0  0  1  0  0  3  0  0  0  0  0  0
  188.1750  176.9160  144.5120 C   0  0  1  0  0  3  0  0  0  0  0  0
  191.1680  178.1050  142.3940 C   0  0  0  0  0  2  0  0  0  0  0  0
  189.4120  177.7040  144.1830 C   0  0  1  0  0  3  0  0  0  0  0  0
  187.6740  177.4560  145.8130 C   0  0  1  0  0  3  0  0  0  0  0  0
  187.0310  177.0380  143.5200 C   0  0  1  0  0  3  0  0  0  0  0  0
  185.7650  177.1820  144.3970 C   0  0  1  0  0  3  0  0  0  0  0  0
  190.5080  177.2830  145.1620 C   0  0  2  0  0  3  0  0  0  0  0  0
  186.2310  177.0050  145.8500 C   0  0  0  0  0  2  0  0  0  0  0  0
  190.0510  177.5580  146.6140 C   0  0  0  0  0  2  0  0  0  0  0  0
  191.8480  177.9680  144.8510 C   0  0  0  0  0  2  0  0  0  0  0  0
  187.2860  178.1300  142.4570 C   0  0  0  0  0  2  0  0  0  0  0  0
  188.6860  178.0040  141.7920 C   0  0  2  0  0  3  0  0  0  0  0  0
  188.6370  177.0000  146.9190 C   0  0  1  0  0  3  0  0  0  0  0  0
  191.8160  178.8360  143.5810 C   0  0  0  0  0  2  0  0  0  0  0  0
  190.8110  177.6810  139.0730 C   0  0  1  0  0  3  0  0  0  0  0  0
  191.9200  177.0060  138.5540 O   0  0  0  0  0  1  0  0  0  0  0  0
  188.7900  178.8710  138.5340 C   0  0  0  0  0  2  0  0  0  0  0  0
  188.6660  177.2220  140.4710 C   0  0  1  0  0  3  0  0  0  0  0  0
  189.9620  178.1800  137.9800 N   0  0  0  0  0  0  0  0  0  0  0  0
  187.8950  177.9230  139.3440 C   0  0  0  0  0  2  0  0  0  0  0  0
  190.0440  176.8090  140.0390 C   0  0  0  0  0  0  0  0  0  0  0  0
  190.5610  175.8200  140.5330 O   0  0  0  0  0  0  0  0  0  0  0  0
  189.2660  177.6730  135.9700 C   0  0  0  0  0  1  0  0  0  0  0  0
  189.5340  177.1300  137.2290 O   0  0  0  0  0  0  0  0  0  0  0  0
  183.6240  179.9860  143.4750 N   0  0  0  0  0  0  0  0  0  0  0  0
  185.3170  179.6980  144.8000 C   0  0  0  0  0  3  0  0  0  0  0  0
  185.0280  178.4790  144.2200 C   0  0  0  0  0  0  0  0  0  0  0  0
  184.4410  180.5500  144.3180 O   0  0  0  0  0  0  0  0  0  0  0  0
  183.9590  178.6860  143.3780 C   0  0  0  0  0  3  0  0  0  0  0  0
  188.2040  177.5060  148.2590 C   0  0  0  0  0  3  0  0  0  0  0  0
  188.8860  178.4620  148.8840 C   0  0  0  0  0  2  0  0  0  0  0  0
  1  3  1  6  0  0  0
  1  4  1  0  0  0  0
  2  5  1  0  0  0  0
  3 15  1  0  0  0  0
  4  2  1  0  0  0  0
  4  8  1  0  0  0  0
  5  9  1  0  0  0  0
  5 14  1  0  0  0  0
  6  7  1  0  0  0  0
  6  2  1  0  0  0  0
  7  9  1  0  0  0  0
  8 10  1  0  0  0  0
 10 14  1  0  0  0  0
 11  8  1  0  0  0  0
 12  6  1  0  0  0  0
 13 12  1  0  0  0  0
 13  1  1  0  0  0  0
 14 31  1  0  0  0  0
 15 11  1  0  0  0  0
 16 22  1  0  0  0  0
 17 16  1  0  0  0  0
 18 21  1  0  0  0  0
 19 13  1  0  0  0  0
 20 18  1  0  0  0  0
 20 16  1  0  0  0  0
 21 19  1  0  0  0  0
 22 19  1  0  0  0  0
 22 23  2  0  0  0  0
 24 25  1  0  0  0  0
 25 20  1  0  0  0  0
 26 29  1  0  0  0  0
 28  7  1  0  0  0  0
 28 27  2  0  0  0  0
 29 27  1  0  0  0  0
 30 26  2  0  0  0  0
 30 28  1  0  0  0  0
 31 32  2  0  0  0  0
M  END
>  <MODEL>
1

>  <REMARK>
 VINA RESULT:      -8.2      0.000      0.000
  Name = 
  4 active torsions:
  status: ('A' for Active; 'I' for Inactive)
    1  A    between atoms: C_12  and  C_28
    2  A    between atoms: C_13  and  C_29
    3  A    between atoms: C_16  and  C_27
    4  A    between atoms: N_19  and  O_26
                            x       y       z     vdW  Elec       q    Type
                         _______ _______ _______ _____ _____    ______ ____

>  <TORSDO>
F 4

$$$$
=
 OpenBabel10262421083D

 32 37  0  0  1  0  0  0  0  0999 V2000
  180.7000  179.3640  141.1090 C   0  0  1  0  0  3  0  0  0  0  0  0
  183.1620  179.3160  140.8200 C   0  0  1  0  0  3  0  0  0  0  0  0
  179.5120  179.0210  142.0250 C   0  0  0  0  0  2  0  0  0  0  0  0
  182.0090  178.7900  141.6290 C   0  0  1  0  0  3  0  0  0  0  0  0
  184.3320  178.4480  141.1540 C   0  0  1  0  0  3  0  0  0  0  0  0
  182.9910  179.2550  139.3110 C   0  0  1  0  0  3  0  0  0  0  0  0
  184.3570  178.7580  138.7820 C   0  0  1  0  0  3  0  0  0  0  0  0
  182.2720  179.1370  143.0950 C   0  0  2  0  0  3  0  0  0  0  0  0
  185.2850  178.6820  140.0040 C   0  0  0  0  0  2  0  0  0  0  0  0
  183.6030  178.4990  143.5560 C   0  0  0  0  0  2  0  0  0  0  0  0
  181.1020  178.7200  144.0000 C   0  0  0  0  0  2  0  0  0  0  0  0
  181.7350  178.4600  138.8910 C   0  0  0  0  0  2  0  0  0  0  0  0
  180.4570  178.9130  139.6520 C   0  0  2  0  0  3  0  0  0  0  0  0
  184.7790  178.7830  142.5850 C   0  0  1  0  0  3  0  0  0  0  0  0
  179.9000  178.1470  143.2290 C   0  0  0  0  0  2  0  0  0  0  0  0
  180.6960  180.4970  136.5780 C   0  0  1  0  0  3  0  0  0  0  0  0
  180.4120  180.4060  135.2120 O   0  0  0  0  0  1  0  0  0  0  0  0
  181.0690  181.9940  138.4250 C   0  0  0  0  0  2  0  0  0  0  0  0
  179.6240  179.9490  138.8840 C   0  0  1  0  0  3  0  0  0  0  0  0
  180.7900  181.9080  136.9850 N   0  0  0  0  0  0  0  0  0  0  0  0
  179.9320  181.4020  139.2670 C   0  0  0  0  0  2  0  0  0  0  0  0
  179.6840  179.7320  137.3990 C   0  0  0  0  0  0  0  0  0  0  0  0
  178.9730  178.8850  136.8820 O   0  0  0  0  0  0  0  0  0  0  0  0
  179.9530  183.8070  136.2950 C   0  0  0  0  0  1  0  0  0  0  0  0
  179.6050  182.5270  136.7340 O   0  0  0  0  0  0  0  0  0  0  0  0
  184.5410  175.9090  136.5140 N   0  0  0  0  0  0  0  0  0  0  0  0
  183.6540  176.2900  138.4560 C   0  0  0  0  0  3  0  0  0  0  0  0
  184.3040  177.4410  138.0600 C   0  0  0  0  0  0  0  0  0  0  0  0
  183.8390  175.4160  137.4930 O   0  0  0  0  0  0  0  0  0  0  0  0
  184.8510  177.1820  136.8240 C   0  0  0  0  0  3  0  0  0  0  0  0
  185.9510  177.9490  142.9980 C   0  0  0  0  0  3  0  0  0  0  0  0
  186.2830  177.8200  144.2800 C   0  0  0  0  0  2  0  0  0  0  0  0
  1  4  1  0  0  0  0
  1  3  1  1  0  0  0
  2  5  1  0  0  0  0
  2  4  1  0  0  0  0
  3 15  1  0  0  0  0
  4  8  1  0  0  0  0
  5 14  1  0  0  0  0
  6  2  1  0  0  0  0
  7  6  1  0  0  0  0
  7  9  1  0  0  0  0
  8 10  1  0  0  0  0
  8 11  1  0  0  0  0
  9  5  1  0  0  0  0
 12  6  1  0  0  0  0
 12 13  1  0  0  0  0
 13  1  1  0  0  0  0
 14 31  1  0  0  0  0
 14 10  1  0  0  0  0
 15 11  1  0  0  0  0
 16 20  1  0  0  0  0
 16 22  1  0  0  0  0
 17 16  1  0  0  0  0
 18 21  1  0  0  0  0
 19 21  1  0  0  0  0
 19 13  1  0  0  0  0
 20 18  1  0  0  0  0
 22 19  1  0  0  0  0
 23 22  2  0  0  0  0
 24 25  1  0  0  0  0
 25 20  1  0  0  0  0
 26 30  2  0  0  0  0
 26 29  1  0  0  0  0
 28 27  2  0  0  0  0
 28  7  1  0  0  0  0
 29 27  1  0  0  0  0
 30 28  1  0  0  0  0
 31 32  2  0  0  0  0
M  END
>  <MODEL>
2

>  <REMARK>
 VINA RESULT:      -7.6      5.485      8.839
  Name = 
  4 active torsions:
  status: ('A' for Active; 'I' for Inactive)
    1  A    between atoms: C_12  and  C_28
    2  A    between atoms: C_13  and  C_29
    3  A    between atoms: C_16  and  C_27
    4  A    between atoms: N_19  and  O_26
                            x       y       z     vdW  Elec       q    Type
                         _______ _______ _______ _____ _____    ______ ____

>  <TORSDO>
F 4

$$$$
=
 OpenBabel10262421083D

 32 37  0  0  1  0  0  0  0  0999 V2000
  189.8870  174.3690  136.2230 C   0  0  1  0  0  3  0  0  0  0  0  0
  189.2900  176.6050  137.1120 C   0  0  1  0  0  3  0  0  0  0  0  0
  189.3700  172.9950  135.7630 C   0  0  0  0  0  2  0  0  0  0  0  0
  188.7930  175.2080  136.8650 C   0  0  1  0  0  3  0  0  0  0  0  0
  188.3070  177.2360  138.0460 C   0  0  1  0  0  3  0  0  0  0  0  0
  190.6520  176.7130  137.7780 C   0  0  1  0  0  3  0  0  0  0  0  0
  190.4860  177.8310  138.8320 C   0  0  1  0  0  3  0  0  0  0  0  0
  187.5340  175.3070  136.0030 C   0  0  2  0  0  3  0  0  0  0  0  0
  189.0730  178.3990  138.6320 C   0  0  0  0  0  2  0  0  0  0  0  0
  186.4620  176.1510  136.7330 C   0  0  0  0  0  2  0  0  0  0  0  0
  186.9950  173.9210  135.6160 C   0  0  0  0  0  2  0  0  0  0  0  0
  191.1790  175.3460  138.2690 C   0  0  0  0  0  2  0  0  0  0  0  0
  191.0970  174.2440  137.1750 C   0  0  2  0  0  3  0  0  0  0  0  0
  187.0120  177.5000  137.2630 C   0  0  1  0  0  3  0  0  0  0  0  0
  187.8860  172.7590  136.0890 C   0  0  0  0  0  2  0  0  0  0  0  0
  194.3540  175.3870  137.4920 C   0  0  1  0  0  3  0  0  0  0  0  0
  195.5970  175.1660  138.0930 O   0  0  0  0  0  1  0  0  0  0  0  0
  193.2130  176.3480  135.6040 C   0  0  0  0  0  2  0  0  0  0  0  0
  192.4030  174.0650  136.3900 C   0  0  1  0  0  3  0  0  0  0  0  0
  194.5210  176.1370  136.2380 N   0  0  0  0  0  0  0  0  0  0  0  0
  192.5500  175.0240  135.2010 C   0  0  0  0  0  2  0  0  0  0  0  0
  193.6080  174.0890  137.2860 C   0  0  0  0  0  0  0  0  0  0  0  0
  193.9250  173.0820  137.9000 O   0  0  0  0  0  0  0  0  0  0  0  0
  196.1820  176.3570  134.8320 C   0  0  0  0  0  1  0  0  0  0  0  0
  195.3070  175.4210  135.3880 O   0  0  0  0  0  0  0  0  0  0  0  0
  190.3020  176.6530  142.2790 N   0  0  0  0  0  0  0  0  0  0  0  0
  191.8550  177.4580  140.9960 C   0  0  0  0  0  3  0  0  0  0  0  0
  190.6930  177.3850  140.2520 C   0  0  0  0  0  0  0  0  0  0  0  0
  191.5530  177.0020  142.1900 O   0  0  0  0  0  0  0  0  0  0  0  0
  189.7210  176.8820  141.0860 C   0  0  0  0  0  3  0  0  0  0  0  0
  185.9700  178.1310  138.1320 C   0  0  0  0  0  3  0  0  0  0  0  0
  184.6850  177.8100  138.0060 C   0  0  0  0  0  2  0  0  0  0  0  0
  1  3  1  1  0  0  0
  1  4  1  0  0  0  0
  1 13  1  0  0  0  0
  2  6  1  0  0  0  0
  2  5  1  0  0  0  0
  3 15  1  0  0  0  0
  4  2  1  0  0  0  0
  5  9  1  0  0  0  0
  6 12  1  0  0  0  0
  6  7  1  0  0  0  0
  7 28  1  0  0  0  0
  8 10  1  0  0  0  0
  8  4  1  0  0  0  0
  9  7  1  0  0  0  0
 10 14  1  0  0  0  0
 11  8  1  0  0  0  0
 11 15  1  0  0  0  0
 13 12  1  0  0  0  0
 14  5  1  0  0  0  0
 14 31  1  0  0  0  0
 16 17  1  0  0  0  0
 18 20  1  0  0  0  0
 19 13  1  0  0  0  0
 19 22  1  0  0  0  0
 20 16  1  0  0  0  0
 21 18  1  0  0  0  0
 21 19  1  0  0  0  0
 22 16  1  0  0  0  0
 22 23  2  0  0  0  0
 24 25  1  0  0  0  0
 25 20  1  0  0  0  0
 27 29  1  0  0  0  0
 28 27  2  0  0  0  0
 28 30  1  0  0  0  0
 29 26  1  0  0  0  0
 30 26  2  0  0  0  0
 32 31  2  0  0  0  0
M  END
>  <MODEL>
3

>  <REMARK>
 VINA RESULT:      -7.4      4.596      7.784
  Name = 
  4 active torsions:
  status: ('A' for Active; 'I' for Inactive)
    1  A    between atoms: C_12  and  C_28
    2  A    between atoms: C_13  and  C_29
    3  A    between atoms: C_16  and  C_27
    4  A    between atoms: N_19  and  O_26
                            x       y       z     vdW  Elec       q    Type
                         _______ _______ _______ _____ _____    ______ ____

>  <TORSDO>
F 4

$$$$
=
 OpenBabel10262421083D

 32 37  0  0  1  0  0  0  0  0999 V2000
  184.7230  178.2970  141.0190 C   0  0  1  0  0  3  0  0  0  0  0  0
  182.2610  178.1550  140.7650 C   0  0  1  0  0  3  0  0  0  0  0  0
  185.8930  178.7700  141.8990 C   0  0  0  0  0  2  0  0  0  0  0  0
  183.3820  178.8030  141.5280 C   0  0  1  0  0  3  0  0  0  0  0  0
  181.0350  178.9550  141.0700 C   0  0  1  0  0  3  0  0  0  0  0  0
  182.4100  178.1490  139.2520 C   0  0  1  0  0  3  0  0  0  0  0  0
  181.0070  178.5190  138.7190 C   0  0  1  0  0  3  0  0  0  0  0  0
  183.1610  178.5170  143.0140 C   0  0  2  0  0  3  0  0  0  0  0  0
  180.0900  178.5940  139.9480 C   0  0  0  0  0  2  0  0  0  0  0  0
  181.7930  179.0830  143.4600 C   0  0  0  0  0  2  0  0  0  0  0  0
  184.3080  179.0620  143.8790 C   0  0  0  0  0  2  0  0  0  0  0  0
  183.6020  179.0060  138.7730 C   0  0  0  0  0  2  0  0  0  0  0  0
  184.9180  178.6860  139.5370 C   0  0  2  0  0  3  0  0  0  0  0  0
  180.6300  178.6660  142.5230 C   0  0  1  0  0  3  0  0  0  0  0  0
  185.4580  179.6770  143.0620 C   0  0  0  0  0  2  0  0  0  0  0  0
  187.3830  178.8540  137.1070 C   0  0  1  0  0  3  0  0  0  0  0  0
  188.7450  179.0580  136.8620 O   0  0  0  0  0  1  0  0  0  0  0  0
  185.3640  177.8150  136.3100 C   0  0  0  0  0  2  0  0  0  0  0  0
  185.8140  177.6730  138.8120 C   0  0  1  0  0  3  0  0  0  0  0  0
  186.7900  178.0410  136.0340 N   0  0  0  0  0  0  0  0  0  0  0  0
  185.1480  177.0110  137.5980 C   0  0  0  0  0  2  0  0  0  0  0  0
  187.1580  178.2500  138.4730 C   0  0  0  0  0  0  0  0  0  0  0  0
  188.0290  178.2980  139.3280 O   0  0  0  0  0  0  0  0  0  0  0  0
  187.4780  176.5160  134.6260 C   0  0  0  0  0  1  0  0  0  0  0  0
  187.4190  176.8360  135.9850 O   0  0  0  0  0  0  0  0  0  0  0  0
  180.8300  181.9230  137.4210 N   0  0  0  0  0  0  0  0  0  0  0  0
  180.8750  179.9340  136.5560 C   0  0  0  0  0  3  0  0  0  0  0  0
  180.9580  179.7960  137.9280 C   0  0  0  0  0  0  0  0  0  0  0  0
  180.8070  181.2240  136.3220 O   0  0  0  0  0  0  0  0  0  0  0  0
  180.9190  181.0660  138.4560 C   0  0  0  0  0  3  0  0  0  0  0  0
  179.4060  179.4360  142.9100 C   0  0  0  0  0  3  0  0  0  0  0  0
  178.9310  179.3890  144.1520 C   0  0  0  0  0  2  0  0  0  0  0  0
  1  4  1  0  0  0  0
  1  3  1  1  0  0  0
  2  5  1  0  0  0  0
  2  4  1  0  0  0  0
  3 15  1  0  0  0  0
  4  8  1  0  0  0  0
  5 14  1  0  0  0  0
  6  2  1  0  0  0  0
  7  6  1  0  0  0  0
  7  9  1  0  0  0  0
  8 10  1  0  0  0  0
  8 11  1  0  0  0  0
  9  5  1  0  0  0  0
 12  6  1  0  0  0  0
 12 13  1  0  0  0  0
 13  1  1  0  0  0  0
 14 31  1  0  0  0  0
 14 10  1  0  0  0  0
 15 11  1  0  0  0  0
 16 22  1  0  0  0  0
 17 16  1  0  0  0  0
 18 21  1  0  0  0  0
 19 13  1  0  0  0  0
 20 18  1  0  0  0  0
 20 16  1  0  0  0  0
 21 19  1  0  0  0  0
 22 19  1  0  0  0  0
 22 23  2  0  0  0  0
 24 25  1  0  0  0  0
 25 20  1  0  0  0  0
 26 30  2  0  0  0  0
 27 28  2  0  0  0  0
 28 30  1  0  0  0  0
 28  7  1  0  0  0  0
 29 27  1  0  0  0  0
 29 26  1  0  0  0  0
 31 32  2  0  0  0  0
M  END
>  <MODEL>
4

>  <REMARK>
 VINA RESULT:      -7.3      4.305      6.707
  Name = 
  4 active torsions:
  status: ('A' for Active; 'I' for Inactive)
    1  A    between atoms: C_12  and  C_28
    2  A    between atoms: C_13  and  C_29
    3  A    between atoms: C_16  and  C_27
    4  A    between atoms: N_19  and  O_26
                            x       y       z     vdW  Elec       q    Type
                         _______ _______ _______ _____ _____    ______ ____

>  <TORSDO>
F 4

$$$$
=
 OpenBabel10262421083D

 32 37  0  0  1  0  0  0  0  0999 V2000
  186.6260  178.4940  141.4640 C   0  0  1  0  0  3  0  0  0  0  0  0
  188.3280  178.4650  139.6610 C   0  0  1  0  0  3  0  0  0  0  0  0
  186.2820  178.0800  142.9050 C   0  0  0  0  0  2  0  0  0  0  0  0
  187.9320  177.8760  140.9870 C   0  0  1  0  0  3  0  0  0  0  0  0
  189.3910  177.5700  139.1110 C   0  0  1  0  0  3  0  0  0  0  0  0
  187.2300  178.5310  138.6130 C   0  0  1  0  0  3  0  0  0  0  0  0
  187.9120  178.0770  137.3020 C   0  0  1  0  0  3  0  0  0  0  0  0
  189.0890  178.0990  141.9600 C   0  0  2  0  0  3  0  0  0  0  0  0
  189.4000  177.8960  137.6360 C   0  0  0  0  0  2  0  0  0  0  0  0
  190.3700  177.4210  141.4190 C   0  0  0  0  0  2  0  0  0  0  0  0
  188.7470  177.6110  143.3770 C   0  0  0  0  0  2  0  0  0  0  0  0
  185.9530  177.7770  139.0480 C   0  0  0  0  0  2  0  0  0  0  0  0
  185.4840  178.1670  140.4780 C   0  0  2  0  0  3  0  0  0  0  0  0
  190.6670  177.7830  139.9410 C   0  0  1  0  0  3  0  0  0  0  0  0
  187.3000  177.1070  143.5230 C   0  0  0  0  0  2  0  0  0  0  0  0
  182.0220  178.2470  140.6370 C   0  0  1  0  0  3  0  0  0  0  0  0
  180.9100  178.2360  141.4840 O   0  0  0  0  0  1  0  0  0  0  0  0
  182.8680  178.9340  138.4920 C   0  0  0  0  0  2  0  0  0  0  0  0
  184.4120  179.2650  140.4900 C   0  0  1  0  0  3  0  0  0  0  0  0
  181.6880  178.9100  139.3670 N   0  0  0  0  0  0  0  0  0  0  0  0
  184.0120  179.7610  139.0930 C   0  0  0  0  0  2  0  0  0  0  0  0
  183.2170  178.8780  141.3140 C   0  0  0  0  0  0  0  0  0  0  0  0
  183.2540  179.0020  142.5280 O   0  0  0  0  0  0  0  0  0  0  0  0
  180.3600  180.4830  138.6290 C   0  0  0  0  0  1  0  0  0  0  0  0
  181.3050  180.1910  139.6170 O   0  0  0  0  0  0  0  0  0  0  0  0
  187.0160  174.7180  136.2010 N   0  0  0  0  0  0  0  0  0  0  0  0
  186.3630  176.7300  135.7270 C   0  0  0  0  0  3  0  0  0  0  0  0
  187.3370  176.8250  136.7010 C   0  0  0  0  0  0  0  0  0  0  0  0
  186.2170  175.4490  135.4790 O   0  0  0  0  0  0  0  0  0  0  0  0
  187.7430  175.5410  136.9800 C   0  0  0  0  0  3  0  0  0  0  0  0
  191.7840  176.9150  139.4530 C   0  0  0  0  0  3  0  0  0  0  0  0
  193.0390  177.1280  139.8410 C   0  0  0  0  0  2  0  0  0  0  0  0
  1  3  1  1  0  0  0
  2  4  1  0  0  0  0
  3 15  1  0  0  0  0
  4  1  1  0  0  0  0
  4  8  1  0  0  0  0
  5  2  1  0  0  0  0
  5 14  1  0  0  0  0
  6 12  1  0  0  0  0
  6  2  1  0  0  0  0
  7  9  1  0  0  0  0
  7  6  1  0  0  0  0
  8 11  1  0  0  0  0
  9  5  1  0  0  0  0
 10  8  1  0  0  0  0
 11 15  1  0  0  0  0
 12 13  1  0  0  0  0
 13 19  1  0  0  0  0
 13  1  1  0  0  0  0
 14 10  1  0  0  0  0
 16 22  1  0  0  0  0
 16 17  1  0  0  0  0
 18 21  1  0  0  0  0
 18 20  1  0  0  0  0
 19 22  1  0  0  0  0
 20 25  1  0  0  0  0
 20 16  1  0  0  0  0
 21 19  1  0  0  0  0
 22 23  2  0  0  0  0
 24 25  1  0  0  0  0
 26 30  2  0  0  0  0
 27 28  2  0  0  0  0
 28 30  1  0  0  0  0
 28  7  1  0  0  0  0
 29 27  1  0  0  0  0
 29 26  1  0  0  0  0
 31 32  2  0  0  0  0
 31 14  1  0  0  0  0
M  END
>  <MODEL>
5

>  <REMARK>
 VINA RESULT:      -7.1      3.123      7.301
  Name = 
  4 active torsions:
  status: ('A' for Active; 'I' for Inactive)
    1  A    between atoms: C_12  and  C_28
    2  A    between atoms: C_13  and  C_29
    3  A    between atoms: C_16  and  C_27
    4  A    between atoms: N_19  and  O_26
                            x       y       z     vdW  Elec       q    Type
                         _______ _______ _______ _____ _____    ______ ____

>  <TORSDO>
F 4

$$$$
=
 OpenBabel10262421083D

 32 37  0  0  1  0  0  0  0  0999 V2000
  185.0820  178.7940  141.0350 C   0  0  1  0  0  3  0  0  0  0  0  0
  186.6840  178.5630  139.1570 C   0  0  1  0  0  3  0  0  0  0  0  0
  184.8360  178.5860  142.5390 C   0  0  0  0  0  2  0  0  0  0  0  0
  186.3880  178.1640  140.5750 C   0  0  1  0  0  3  0  0  0  0  0  0
  187.7580  177.6380  138.6810 C   0  0  1  0  0  3  0  0  0  0  0  0
  185.5290  178.4280  138.1780 C   0  0  1  0  0  3  0  0  0  0  0  0
  186.1610  177.8100  136.9090 C   0  0  1  0  0  3  0  0  0  0  0  0
  187.5840  178.5740  141.4340 C   0  0  2  0  0  3  0  0  0  0  0  0
  187.6710  177.7410  137.1760 C   0  0  0  0  0  2  0  0  0  0  0  0
  188.8650  177.8740  140.9220 C   0  0  0  0  0  2  0  0  0  0  0  0
  187.3420  178.2900  142.9250 C   0  0  0  0  0  2  0  0  0  0  0  0
  184.3150  177.6980  138.7950 C   0  0  0  0  0  2  0  0  0  0  0  0
  183.9050  178.2790  140.1780 C   0  0  2  0  0  3  0  0  0  0  0  0
  189.0640  178.0220  139.3920 C   0  0  1  0  0  3  0  0  0  0  0  0
  185.9310  177.7580  143.2310 C   0  0  0  0  0  2  0  0  0  0  0  0
  180.4520  178.1880  139.8870 C   0  0  1  0  0  3  0  0  0  0  0  0
  179.2420  178.0860  140.5790 O   0  0  0  0  0  1  0  0  0  0  0  0
  181.5290  179.0120  137.8990 C   0  0  0  0  0  2  0  0  0  0  0  0
  182.7840  179.3240  140.0930 C   0  0  1  0  0  3  0  0  0  0  0  0
  180.2500  178.8920  138.6110 N   0  0  0  0  0  0  0  0  0  0  0  0
  182.5420  179.8630  138.6770 C   0  0  0  0  0  2  0  0  0  0  0  0
  181.5150  178.8430  140.7380 C   0  0  0  0  0  0  0  0  0  0  0  0
  181.3890  178.9130  141.9500 O   0  0  0  0  0  0  0  0  0  0  0  0
  178.9310  180.4250  137.7780 C   0  0  0  0  0  1  0  0  0  0  0  0
  179.7700  180.1410  138.8580 O   0  0  0  0  0  0  0  0  0  0  0  0
  185.4050  174.2930  136.3120 N   0  0  0  0  0  0  0  0  0  0  0  0
  184.5260  176.1880  135.7290 C   0  0  0  0  0  3  0  0  0  0  0  0
  185.6140  176.4620  136.5340 C   0  0  0  0  0  0  0  0  0  0  0  0
  184.4550  174.8800  135.6420 O   0  0  0  0  0  0  0  0  0  0  0  0
  186.1620  175.2490  136.8840 C   0  0  0  0  0  3  0  0  0  0  0  0
  190.1940  177.1360  138.9700 C   0  0  0  0  0  3  0  0  0  0  0  0
  191.3090  177.0560  139.6910 C   0  0  0  0  0  2  0  0  0  0  0  0
  1  3  1  1  0  0  0
  2  4  1  0  0  0  0
  3 15  1  0  0  0  0
  4  1  1  0  0  0  0
  4  8  1  0  0  0  0
  5  2  1  0  0  0  0
  5 14  1  0  0  0  0
  6 12  1  0  0  0  0
  6  2  1  0  0  0  0
  7  9  1  0  0  0  0
  7  6  1  0  0  0  0
  8 11  1  0  0  0  0
  9  5  1  0  0  0  0
 10  8  1  0  0  0  0
 11 15  1  0  0  0  0
 12 13  1  0  0  0  0
 13  1  1  0  0  0  0
 14 10  1  0  0  0  0
 16 17  1  0  0  0  0
 16 22  1  0  0  0  0
 18 20  1  0  0  0  0
 18 21  1  0  0  0  0
 19 13  1  0  0  0  0
 19 22  1  0  0  0  0
 20 25  1  0  0  0  0
 20 16  1  0  0  0  0
 21 19  1  0  0  0  0
 22 23  2  0  0  0  0
 24 25  1  0  0  0  0
 26 30  2  0  0  0  0
 27 28  2  0  0  0  0
 28 30  1  0  0  0  0
 28  7  1  0  0  0  0
 29 27  1  0  0  0  0
 29 26  1  0  0  0  0
 31 14  1  0  0  0  0
 31 32  2  0  0  0  0
M  END
>  <MODEL>
6

>  <REMARK>
 VINA RESULT:      -7.0      4.022      8.008
  Name = 
  4 active torsions:
  status: ('A' for Active; 'I' for Inactive)
    1  A    between atoms: C_12  and  C_28
    2  A    between atoms: C_13  and  C_29
    3  A    between atoms: C_16  and  C_27
    4  A    between atoms: N_19  and  O_26
                            x       y       z     vdW  Elec       q    Type
                         _______ _______ _______ _____ _____    ______ ____

>  <TORSDO>
F 4

$$$$
=
 OpenBabel10262421083D

 32 37  0  0  1  0  0  0  0  0999 V2000
  187.8880  176.5480  136.8360 C   0  0  1  0  0  3  0  0  0  0  0  0
  187.5560  178.0920  138.7470 C   0  0  1  0  0  3  0  0  0  0  0  0
  187.2190  175.5970  135.8270 C   0  0  0  0  0  2  0  0  0  0  0  0
  186.9200  177.0160  137.9110 C   0  0  1  0  0  3  0  0  0  0  0  0
  186.6990  178.2310  139.9640 C   0  0  1  0  0  3  0  0  0  0  0  0
  188.9640  177.8000  139.2370 C   0  0  1  0  0  3  0  0  0  0  0  0
  188.9710  178.2690  140.7110 C   0  0  1  0  0  3  0  0  0  0  0  0
  185.6190  177.5790  137.3380 C   0  0  2  0  0  3  0  0  0  0  0  0
  187.6050  178.9250  140.9550 C   0  0  0  0  0  2  0  0  0  0  0  0
  184.6790  178.0090  138.4890 C   0  0  0  0  0  2  0  0  0  0  0  0
  184.9330  176.5840  136.3900 C   0  0  0  0  0  2  0  0  0  0  0  0
  189.3980  176.3450  138.9530 C   0  0  0  0  0  2  0  0  0  0  0  0
  189.1430  175.9190  137.4790 C   0  0  2  0  0  3  0  0  0  0  0  0
  185.3830  178.9020  139.5430 C   0  0  1  0  0  3  0  0  0  0  0  0
  185.7460  175.2990  136.1500 C   0  0  0  0  0  2  0  0  0  0  0  0
  191.7180  173.8680  136.3920 C   0  0  1  0  0  3  0  0  0  0  0  0
  192.1130  172.9270  135.4370 O   0  0  0  0  0  1  0  0  0  0  0  0
  192.4680  175.5670  137.9230 C   0  0  0  0  0  2  0  0  0  0  0  0
  190.3720  176.0870  136.5740 C   0  0  1  0  0  3  0  0  0  0  0  0
  192.8940  174.5660  136.9350 N   0  0  0  0  0  0  0  0  0  0  0  0
  191.6000  176.6630  137.2930 C   0  0  0  0  0  2  0  0  0  0  0  0
  190.6970  174.8270  135.8250 C   0  0  0  0  0  0  0  0  0  0  0  0
  190.0770  174.5500  134.8100 O   0  0  0  0  0  0  0  0  0  0  0  0
  194.8990  175.1110  136.2540 C   0  0  0  0  0  1  0  0  0  0  0  0
  193.5440  175.2020  135.9240 O   0  0  0  0  0  0  0  0  0  0  0  0
  190.2210  175.5650  142.8140 N   0  0  0  0  0  0  0  0  0  0  0  0
  188.3450  176.6340  142.6160 C   0  0  0  0  0  3  0  0  0  0  0  0
  189.2340  177.1790  141.7110 C   0  0  0  0  0  0  0  0  0  0  0  0
  188.9980  175.6830  143.2430 O   0  0  0  0  0  0  0  0  0  0  0  0
  190.4130  176.4810  141.8460 C   0  0  0  0  0  3  0  0  0  0  0  0
  184.4640  179.0760  140.7110 C   0  0  0  0  0  3  0  0  0  0  0  0
  183.9360  178.0230  141.3310 C   0  0  0  0  0  2  0  0  0  0  0  0
  1  3  1  6  0  0  0
  1 13  1  0  0  0  0
  1  4  1  0  0  0  0
  2  6  1  0  0  0  0
  2  5  1  0  0  0  0
  3 15  1  0  0  0  0
  4  2  1  0  0  0  0
  5  9  1  0  0  0  0
  6  7  1  0  0  0  0
  7  9  1  0  0  0  0
  7 28  1  0  0  0  0
  8  4  1  0  0  0  0
  8 10  1  0  0  0  0
 10 14  1  0  0  0  0
 11  8  1  0  0  0  0
 12  6  1  0  0  0  0
 13 12  1  0  0  0  0
 14  5  1  0  0  0  0
 14 31  1  0  0  0  0
 15 11  1  0  0  0  0
 16 20  1  0  0  0  0
 17 16  1  0  0  0  0
 19 21  1  0  0  0  0
 19 13  1  0  0  0  0
 20 18  1  0  0  0  0
 21 18  1  0  0  0  0
 22 16  1  0  0  0  0
 22 19  1  0  0  0  0
 23 22  2  0  0  0  0
 25 24  1  0  0  0  0
 25 20  1  0  0  0  0
 26 29  1  0  0  0  0
 27 29  1  0  0  0  0
 28 30  1  0  0  0  0
 28 27  2  0  0  0  0
 30 26  2  0  0  0  0
 31 32  2  0  0  0  0
M  END
>  <MODEL>
7

>  <REMARK>
 VINA RESULT:      -6.9      3.610      6.686
  Name = 
  4 active torsions:
  status: ('A' for Active; 'I' for Inactive)
    1  A    between atoms: C_12  and  C_28
    2  A    between atoms: C_13  and  C_29
    3  A    between atoms: C_16  and  C_27
    4  A    between atoms: N_19  and  O_26
                            x       y       z     vdW  Elec       q    Type
                         _______ _______ _______ _____ _____    ______ ____

>  <TORSDO>
F 4

$$$$
=
 OpenBabel10262421083D

 32 37  0  0  1  0  0  0  0  0999 V2000
  186.4300  178.6160  142.3240 C   0  0  1  0  0  3  0  0  0  0  0  0
  188.0440  178.5990  144.2070 C   0  0  1  0  0  3  0  0  0  0  0  0
  184.9630  178.4430  141.8950 C   0  0  0  0  0  2  0  0  0  0  0  0
  186.6520  178.2240  143.7770 C   0  0  1  0  0  3  0  0  0  0  0  0
  188.2910  177.8730  145.4900 C   0  0  1  0  0  3  0  0  0  0  0  0
  189.1590  178.1950  143.2570 C   0  0  1  0  0  3  0  0  0  0  0  0
  190.2750  177.6450  144.1750 C   0  0  1  0  0  3  0  0  0  0  0  0
  185.6710  178.9000  144.7350 C   0  0  2  0  0  3  0  0  0  0  0  0
  189.7970  177.8800  145.6160 C   0  0  0  0  0  2  0  0  0  0  0  0
  185.9430  178.4320  146.1840 C   0  0  0  0  0  2  0  0  0  0  0  0
  184.2100  178.6520  144.3260 C   0  0  0  0  0  2  0  0  0  0  0  0
  188.6610  177.2800  142.1170 C   0  0  0  0  0  2  0  0  0  0  0  0
  187.3990  177.8420  141.4040 C   0  0  2  0  0  3  0  0  0  0  0  0
  187.4380  178.5370  146.5830 C   0  0  1  0  0  3  0  0  0  0  0  0
  184.0630  177.8760  143.0050 C   0  0  0  0  0  2  0  0  0  0  0  0
  187.0400  177.3410  137.9930 C   0  0  1  0  0  3  0  0  0  0  0  0
  186.1740  177.4480  136.9000 O   0  0  0  0  0  1  0  0  0  0  0  0
  189.3400  177.3080  138.6980 C   0  0  0  0  0  2  0  0  0  0  0  0
  187.7210  178.6470  140.1380 C   0  0  1  0  0  3  0  0  0  0  0  0
  188.4380  177.4010  137.5420 N   0  0  0  0  0  0  0  0  0  0  0  0
  189.1700  178.4950  139.6550 C   0  0  0  0  0  2  0  0  0  0  0  0
  186.7310  178.3880  139.0380 C   0  0  0  0  0  0  0  0  0  0  0  0
  185.6560  178.9670  139.0440 O   0  0  0  0  0  0  0  0  0  0  0  0
  189.3270  178.2530  135.7340 C   0  0  0  0  0  1  0  0  0  0  0  0
  188.6570  178.5880  136.9140 O   0  0  0  0  0  0  0  0  0  0  0  0
  191.6800  174.2860  143.9690 N   0  0  0  0  0  0  0  0  0  0  0  0
  189.9380  175.2910  143.1570 C   0  0  0  0  0  3  0  0  0  0  0  0
  190.6150  176.1990  143.9460 C   0  0  0  0  0  0  0  0  0  0  0  0
  190.6220  174.1720  143.2190 O   0  0  0  0  0  0  0  0  0  0  0  0
  191.7190  175.5460  144.4430 C   0  0  0  0  0  3  0  0  0  0  0  0
  187.6270  177.8620  147.9050 C   0  0  0  0  0  3  0  0  0  0  0  0
  188.5820  178.2540  148.7440 C   0  0  0  0  0  2  0  0  0  0  0  0
  1  3  1  6  0  0  0
  1  4  1  0  0  0  0
  2  5  1  0  0  0  0
  3 15  1  0  0  0  0
  4  2  1  0  0  0  0
  4  8  1  0  0  0  0
  5  9  1  0  0  0  0
  5 14  1  0  0  0  0
  6  7  1  0  0  0  0
  6  2  1  0  0  0  0
  7  9  1  0  0  0  0
  8 10  1  0  0  0  0
 10 14  1  0  0  0  0
 11  8  1  0  0  0  0
 12  6  1  0  0  0  0
 13 12  1  0  0  0  0
 13  1  1  0  0  0  0
 14 31  1  0  0  0  0
 15 11  1  0  0  0  0
 16 22  1  0  0  0  0
 17 16  1  0  0  0  0
 18 21  1  0  0  0  0
 19 13  1  0  0  0  0
 20 16  1  0  0  0  0
 20 18  1  0  0  0  0
 21 19  1  0  0  0  0
 22 23  2  0  0  0  0
 22 19  1  0  0  0  0
 24 25  1  0  0  0  0
 25 20  1  0  0  0  0
 26 30  2  0  0  0  0
 27 29  1  0  0  0  0
 27 28  2  0  0  0  0
 28  7  1  0  0  0  0
 28 30  1  0  0  0  0
 29 26  1  0  0  0  0
 31 32  2  0  0  0  0
M  END
>  <MODEL>
8

>  <REMARK>
 VINA RESULT:      -6.9      2.311      4.751
  Name = 
  4 active torsions:
  status: ('A' for Active; 'I' for Inactive)
    1  A    between atoms: C_12  and  C_28
    2  A    between atoms: C_13  and  C_29
    3  A    between atoms: C_16  and  C_27
    4  A    between atoms: N_19  and  O_26
                            x       y       z     vdW  Elec       q    Type
                         _______ _______ _______ _____ _____    ______ ____

>  <TORSDO>
F 4

$$$$
=
 OpenBabel10262421083D

 32 37  0  0  1  0  0  0  0  0999 V2000
  183.9350  178.6060  140.9320 C   0  0  1  0  0  3  0  0  0  0  0  0
  185.6060  178.5710  139.1010 C   0  0  1  0  0  3  0  0  0  0  0  0
  183.6950  178.4930  142.4470 C   0  0  0  0  0  2  0  0  0  0  0  0
  185.3640  178.2530  140.5510 C   0  0  1  0  0  3  0  0  0  0  0  0
  186.8790  177.8780  138.7320 C   0  0  1  0  0  3  0  0  0  0  0  0
  184.5450  178.0780  138.1310 C   0  0  1  0  0  3  0  0  0  0  0  0
  185.3420  177.5030  136.9370 C   0  0  1  0  0  3  0  0  0  0  0  0
  186.4060  179.0110  141.3740 C   0  0  2  0  0  3  0  0  0  0  0  0
  186.8190  177.8110  137.2230 C   0  0  0  0  0  2  0  0  0  0  0  0
  187.8290  178.5810  140.9470 C   0  0  0  0  0  2  0  0  0  0  0  0
  186.1880  178.8250  142.8830 C   0  0  0  0  0  2  0  0  0  0  0  0
  183.5120  177.1500  138.8090 C   0  0  0  0  0  2  0  0  0  0  0  0
  182.9360  177.7510  140.1210 C   0  0  2  0  0  3  0  0  0  0  0  0
  188.0390  178.6220  139.4110 C   0  0  1  0  0  3  0  0  0  0  0  0
  184.9280  178.0120  143.2290 C   0  0  0  0  0  2  0  0  0  0  0  0
  180.9100  178.5160  137.4150 C   0  0  1  0  0  3  0  0  0  0  0  0
  179.8850  178.0610  136.5810 O   0  0  0  0  0  1  0  0  0  0  0  0
  181.9890  180.4560  138.3430 C   0  0  0  0  0  2  0  0  0  0  0  0
  181.6080  178.4940  139.9210 C   0  0  1  0  0  3  0  0  0  0  0  0
  180.9220  179.9870  137.4500 N   0  0  0  0  0  0  0  0  0  0  0  0
  181.7590  180.0160  139.7950 C   0  0  0  0  0  2  0  0  0  0  0  0
  180.8010  177.9130  138.7950 C   0  0  0  0  0  0  0  0  0  0  0  0
  180.1280  176.9120  138.9880 O   0  0  0  0  0  0  0  0  0  0  0  0
  179.5030  181.6400  137.2590 C   0  0  0  0  0  1  0  0  0  0  0  0
  179.7280  180.4330  137.9260 O   0  0  0  0  0  0  0  0  0  0  0  0
  185.4420  173.8660  136.6820 N   0  0  0  0  0  0  0  0  0  0  0  0
  184.1490  175.4380  135.9330 C   0  0  0  0  0  3  0  0  0  0  0  0
  185.1330  176.0340  136.6970 C   0  0  0  0  0  0  0  0  0  0  0  0
  184.3880  174.1480  135.9710 O   0  0  0  0  0  0  0  0  0  0  0  0
  185.9460  175.0220  137.1540 C   0  0  0  0  0  3  0  0  0  0  0  0
  189.3540  177.9850  139.0920 C   0  0  0  0  0  3  0  0  0  0  0  0
  189.9080  177.1030  139.9210 C   0  0  0  0  0  2  0  0  0  0  0  0
  1  3  1  1  0  0  0
  2  4  1  0  0  0  0
  3 15  1  0  0  0  0
  4  1  1  0  0  0  0
  4  8  1  0  0  0  0
  5  2  1  0  0  0  0
  5 14  1  0  0  0  0
  6 12  1  0  0  0  0
  6  2  1  0  0  0  0
  7  9  1  0  0  0  0
  7  6  1  0  0  0  0
  8 11  1  0  0  0  0
  9  5  1  0  0  0  0
 10  8  1  0  0  0  0
 11 15  1  0  0  0  0
 12 13  1  0  0  0  0
 13  1  1  0  0  0  0
 14 10  1  0  0  0  0
 16 20  1  0  0  0  0
 16 22  1  0  0  0  0
 17 16  1  0  0  0  0
 18 21  1  0  0  0  0
 19 13  1  0  0  0  0
 20 25  1  0  0  0  0
 20 18  1  0  0  0  0
 21 19  1  0  0  0  0
 22 23  2  0  0  0  0
 22 19  1  0  0  0  0
 24 25  1  0  0  0  0
 26 30  2  0  0  0  0
 27 29  1  0  0  0  0
 27 28  2  0  0  0  0
 28  7  1  0  0  0  0
 28 30  1  0  0  0  0
 29 26  1  0  0  0  0
 31 14  1  0  0  0  0
 31 32  2  0  0  0  0
M  END
>  <MODEL>
9

>  <REMARK>
 VINA RESULT:      -6.6      4.691      8.190
  Name = 
  4 active torsions:
  status: ('A' for Active; 'I' for Inactive)
    1  A    between atoms: C_12  and  C_28
    2  A    between atoms: C_13  and  C_29
    3  A    between atoms: C_16  and  C_27
    4  A    between atoms: N_19  and  O_26
                            x       y       z     vdW  Elec       q    Type
                         _______ _______ _______ _____ _____    ______ ____

>  <TORSDO>
F 4

$$$$
