=
 OpenBabel10262422483D

 37 46  0  0  1  0  0  0  0  0999 V2000
  187.5460  177.2390  136.9020 C   0  0  2  0  0  3  0  0  0  0  0  0
  183.1810  173.4410  136.2190 O   0  0  0  0  0  0  0  0  0  0  0  0
  187.0100  177.7100  143.4460 C   0  0  0  0  0  2  0  0  0  0  0  0
  184.0440  179.0810  139.1320 C   0  0  1  0  0  3  0  0  0  0  0  0
  187.1860  178.1600  135.7610 C   0  0  0  0  0  2  0  0  0  0  0  0
  183.5190  174.0930  137.4350 C   0  0  1  0  0  3  0  0  0  0  0  0
  185.0030  174.4570  137.5160 C   0  0  0  0  0  2  0  0  0  0  0  0
  182.5140  175.1550  137.9600 C   0  0  2  0  0  3  0  0  0  0  0  0
  183.8910  178.3790  141.5510 C   0  0  0  0  0  2  0  0  0  0  0  0
  184.9530  178.3510  138.1190 C   0  0  2  0  0  3  0  0  0  0  0  0
  188.6360  177.4190  139.2810 C   0  0  2  0  0  3  0  0  0  0  0  0
  184.7550  179.0620  140.4920 C   0  0  1  0  0  3  0  0  0  0  0  0
  184.5380  176.8500  138.0390 C   0  0  2  0  0  3  0  0  0  0  0  0
  180.1400  175.6960  137.8040 F   0  0  0  0  0  0  0  0  0  0  0  0
  184.7230  177.5970  142.5710 C   0  0  0  0  0  2  0  0  0  0  0  0
  186.9590  177.2140  134.5940 C   0  0  0  0  0  2  0  0  0  0  0  0
  181.1420  174.6930  135.8530 C   0  0  0  0  0  2  0  0  0  0  0  0
  181.1260  174.8260  137.3790 C   0  0  1  0  0  3  0  0  0  0  0  0
  186.0140  178.2740  140.2400 C   0  0  2  0  0  3  0  0  0  0  0  0
  188.3840  177.7390  140.7790 C   0  0  0  0  0  2  0  0  0  0  0  0
  182.0570  177.7130  137.5700 C   0  0  0  0  0  2  0  0  0  0  0  0
  188.7560  178.7010  138.4810 C   0  0  0  0  0  2  0  0  0  0  0  0
  187.2060  178.6790  141.0790 C   0  0  2  0  0  3  0  0  0  0  0  0
  186.8200  175.8030  135.1760 C   0  0  2  0  0  3  0  0  0  0  0  0
  185.2860  175.8900  137.0780 C   0  0  1  0  0  3  0  0  0  0  0  0
  186.2950  178.5500  138.8010 C   0  0  1  0  0  3  0  0  0  0  0  0
  185.7140  178.4840  143.3180 C   0  0  2  0  0  3  0  0  0  0  0  0
  183.0330  176.6050  137.7490 C   0  0  2  0  0  0  0  0  0  0  0  0
  186.9910  178.9660  142.5910 C   0  0  1  0  0  3  0  0  0  0  0  0
  186.7730  175.9620  136.6880 C   0  0  2  0  0  3  0  0  0  0  0  0
  182.5500  174.3500  135.3490 C   0  0  0  0  0  2  0  0  0  0  0  0
  187.5250  177.8260  138.2960 C   0  0  1  0  0  0  0  0  0  0  0  0
  182.6960  177.1090  136.4730 O   0  0  0  0  0  0  0  0  0  0  0  0
  188.0120  174.9460  134.7820 C   0  0  0  0  0  2  0  0  0  0  0  0
  188.2040  173.8190  135.7800 C   0  0  0  0  0  1  0  0  0  0  0  0
  182.4460  180.8020  138.6960 O   0  0  0  0  0  1  0  0  0  0  0  0
  183.8110  180.5140  138.6810 C   0  0  0  0  0  2  0  0  0  0  0  0
  1  5  1  6  0  0  0
  1 32  1  0  0  0  0
  2  6  1  0  0  0  0
  4 37  1  6  0  0  0
  4 12  1  0  0  0  0
  6  7  1  6  0  0  0
  6  8  1  0  0  0  0
  9 15  1  0  0  0  0
 10 26  1  0  0  0  0
 10  4  1  0  0  0  0
 11 20  1  0  0  0  0
 12  9  1  0  0  0  0
 13 10  1  0  0  0  0
 15 27  1  0  0  0  0
 16 24  1  0  0  0  0
 16  5  1  0  0  0  0
 17 18  1  0  0  0  0
 18 14  1  0  0  0  0
 18  8  1  0  0  0  0
 19 12  1  0  0  0  0
 19 23  1  0  0  0  0
 20 23  1  0  0  0  0
 21 28  1  0  0  0  0
 22 11  1  0  0  0  0
 23 29  1  0  0  0  0
 24 30  1  0  0  0  0
 25  7  1  0  0  0  0
 25 13  1  0  0  0  0
 26 19  1  0  0  0  0
 27  3  1  0  0  0  0
 28  8  1  0  0  0  0
 28 13  1  0  0  0  0
 29 27  1  0  0  0  0
 29  3  1  0  0  0  0
 30  1  1  0  0  0  0
 30 25  1  0  0  0  0
 31 17  1  0  0  0  0
 31  2  1  0  0  0  0
 32 22  1  0  0  0  0
 32 26  1  0  0  0  0
 32 11  1  0  0  0  0
 33 21  1  0  0  0  0
 33 28  1  0  0  0  0
 34 24  1  0  0  0  0
 34 35  1  0  0  0  0
 37 36  1  0  0  0  0
M  END
>  <MODEL>
1

>  <REMARK>
 VINA RESULT:      -5.8      0.000      0.000
  Name = 
  2 active torsions:
  status: ('A' for Active; 'I' for Inactive)
    1  A    between atoms: C_4  and  C_28
    2  A    between atoms: C_11  and  C_26
                            x       y       z     vdW  Elec       q    Type
                         _______ _______ _______ _____ _____    ______ ____

>  <TORSDO>
F 2

$$$$
=
 OpenBabel10262422483D

 37 46  0  0  1  0  0  0  0  0999 V2000
  186.5490  176.4950  136.6330 C   0  0  2  0  0  3  0  0  0  0  0  0
  184.3940  171.0850  136.4520 O   0  0  0  0  0  0  0  0  0  0  0  0
  182.6180  178.6240  141.4660 C   0  0  0  0  0  2  0  0  0  0  0  0
  182.0520  177.0450  136.3200 C   0  0  1  0  0  3  0  0  0  0  0  0
  186.5910  176.7390  135.1440 C   0  0  0  0  0  2  0  0  0  0  0  0
  183.8650  172.1540  137.2240 C   0  0  1  0  0  3  0  0  0  0  0  0
  184.9290  173.1790  137.6180 C   0  0  0  0  0  2  0  0  0  0  0  0
  182.4870  172.7190  136.7800 C   0  0  2  0  0  3  0  0  0  0  0  0
  180.8760  177.1290  138.5510 C   0  0  0  0  0  2  0  0  0  0  0  0
  183.5120  176.5630  136.1760 C   0  0  2  0  0  3  0  0  0  0  0  0
  186.1630  177.8810  138.8260 C   0  0  2  0  0  3  0  0  0  0  0  0
  181.9350  177.7790  137.6630 C   0  0  1  0  0  3  0  0  0  0  0  0
  183.6270  175.0990  136.7060 C   0  0  2  0  0  3  0  0  0  0  0  0
  180.4900  171.9990  135.5770 F   0  0  0  0  0  0  0  0  0  0  0  0
  181.2420  177.1840  140.0370 C   0  0  0  0  0  2  0  0  0  0  0  0
  187.2660  175.4950  134.5940 C   0  0  0  0  0  2  0  0  0  0  0  0
  182.5830  171.0480  134.8480 C   0  0  0  0  0  2  0  0  0  0  0  0
  181.7480  171.6140  136.0000 C   0  0  1  0  0  3  0  0  0  0  0  0
  183.3040  177.6440  138.2780 C   0  0  2  0  0  3  0  0  0  0  0  0
  185.0990  178.4830  139.7840 C   0  0  0  0  0  2  0  0  0  0  0  0
  181.6150  174.5010  135.0580 C   0  0  0  0  0  2  0  0  0  0  0  0
  186.3200  178.7550  137.5970 C   0  0  0  0  0  2  0  0  0  0  0  0
  183.7300  178.7970  139.1600 C   0  0  2  0  0  3  0  0  0  0  0  0
  187.2410  174.4390  135.7040 C   0  0  2  0  0  3  0  0  0  0  0  0
  184.9910  174.3660  136.6620 C   0  0  1  0  0  3  0  0  0  0  0  0
  184.1970  177.5670  137.0860 C   0  0  1  0  0  3  0  0  0  0  0  0
  181.4200  178.6140  140.5400 C   0  0  2  0  0  3  0  0  0  0  0  0
  182.6200  174.0990  136.0780 C   0  0  2  0  0  0  0  0  0  0  0  0
  182.6990  179.3930  140.1580 C   0  0  1  0  0  3  0  0  0  0  0  0
  186.3810  175.0080  136.8230 C   0  0  2  0  0  3  0  0  0  0  0  0
  184.0800  171.2750  135.0930 C   0  0  0  0  0  2  0  0  0  0  0  0
  185.6550  177.3940  137.4560 C   0  0  1  0  0  0  0  0  0  0  0  0
  182.8640  173.9690  134.6930 O   0  0  0  0  0  0  0  0  0  0  0  0
  188.6470  174.1710  136.2170 C   0  0  0  0  0  2  0  0  0  0  0  0
  188.7230  172.7970  136.8560 C   0  0  0  0  0  1  0  0  0  0  0  0
  181.1730  179.1720  135.6810 O   0  0  0  0  0  1  0  0  0  0  0  0
  181.7020  177.9840  135.1770 C   0  0  0  0  0  2  0  0  0  0  0  0
  1  5  1  6  0  0  0
  1 30  1  0  0  0  0
  1 32  1  0  0  0  0
  2  6  1  0  0  0  0
  4 37  1  6  0  0  0
  4 12  1  0  0  0  0
  6  7  1  6  0  0  0
  8  6  1  0  0  0  0
  9 15  1  0  0  0  0
 10  4  1  0  0  0  0
 10 13  1  0  0  0  0
 10 26  1  0  0  0  0
 11 20  1  0  0  0  0
 12 19  1  0  0  0  0
 12  9  1  0  0  0  0
 14 18  1  0  0  0  0
 15 27  1  0  0  0  0
 16  5  1  0  0  0  0
 16 24  1  0  0  0  0
 17 31  1  0  0  0  0
 17 18  1  0  0  0  0
 18  8  1  0  0  0  0
 19 23  1  0  0  0  0
 21 28  1  0  0  0  0
 22 11  1  0  0  0  0
 23 20  1  0  0  0  0
 23 29  1  0  0  0  0
 24 34  1  0  0  0  0
 24 30  1  0  0  0  0
 25 13  1  0  0  0  0
 25 30  1  0  0  0  0
 25  7  1  0  0  0  0
 26 32  1  0  0  0  0
 26 19  1  0  0  0  0
 27  3  1  0  0  0  0
 28 13  1  0  0  0  0
 28  8  1  0  0  0  0
 29 27  1  0  0  0  0
 29  3  1  0  0  0  0
 31  2  1  0  0  0  0
 32 22  1  0  0  0  0
 32 11  1  0  0  0  0
 33 21  1  0  0  0  0
 33 28  1  0  0  0  0
 34 35  1  0  0  0  0
 37 36  1  0  0  0  0
M  END
>  <MODEL>
2

>  <REMARK>
 VINA RESULT:      -5.4      2.041      3.293
  Name = 
  2 active torsions:
  status: ('A' for Active; 'I' for Inactive)
    1  A    between atoms: C_4  and  C_28
    2  A    between atoms: C_11  and  C_26
                            x       y       z     vdW  Elec       q    Type
                         _______ _______ _______ _____ _____    ______ ____

>  <TORSDO>
F 2

$$$$
=
 OpenBabel10262422483D

 37 46  0  0  1  0  0  0  0  0999 V2000
  183.1480  174.9490  136.9360 C   0  0  2  0  0  3  0  0  0  0  0  0
  188.1250  177.1790  134.8870 O   0  0  0  0  0  0  0  0  0  0  0  0
  179.9400  180.6860  137.3040 C   0  0  0  0  0  2  0  0  0  0  0  0
  184.1520  178.3500  139.7730 C   0  0  1  0  0  3  0  0  0  0  0  0
  183.7540  174.0300  137.9690 C   0  0  0  0  0  2  0  0  0  0  0  0
  187.0090  177.9360  135.3350 C   0  0  1  0  0  3  0  0  0  0  0  0
  185.6850  177.1890  135.1670 C   0  0  0  0  0  2  0  0  0  0  0  0
  187.1940  178.7340  136.6560 C   0  0  2  0  0  3  0  0  0  0  0  0
  183.2010  180.5790  139.0710 C   0  0  0  0  0  2  0  0  0  0  0  0
  184.2000  177.1370  138.8180 C   0  0  2  0  0  3  0  0  0  0  0  0
  180.9660  176.3750  136.6390 C   0  0  2  0  0  3  0  0  0  0  0  0
  182.8730  179.1390  139.4590 C   0  0  1  0  0  3  0  0  0  0  0  0
  185.0340  177.5090  137.5530 C   0  0  2  0  0  3  0  0  0  0  0  0
  188.9810  179.7360  137.9810 F   0  0  0  0  0  0  0  0  0  0  0  0
  182.2440  181.1340  138.0120 C   0  0  0  0  0  2  0  0  0  0  0  0
  184.8470  173.3010  137.2040 C   0  0  0  0  0  2  0  0  0  0  0  0
  189.5400  177.7240  136.7730 C   0  0  0  0  0  2  0  0  0  0  0  0
  188.6990  179.0030  136.8430 C   0  0  1  0  0  3  0  0  0  0  0  0
  182.2590  178.4000  138.3000 C   0  0  2  0  0  3  0  0  0  0  0  0
  180.2690  177.7220  136.9660 C   0  0  0  0  0  2  0  0  0  0  0  0
  186.9720  178.2530  139.2290 C   0  0  0  0  0  2  0  0  0  0  0  0
  180.9020  175.4440  137.8330 C   0  0  0  0  0  2  0  0  0  0  0  0
  180.7470  178.4380  138.2400 C   0  0  2  0  0  3  0  0  0  0  0  0
  185.0820  174.0770  135.9040 C   0  0  2  0  0  3  0  0  0  0  0  0
  185.2520  176.4580  136.4340 C   0  0  1  0  0  3  0  0  0  0  0  0
  182.7170  176.9980  138.5190 C   0  0  1  0  0  3  0  0  0  0  0  0
  180.7910  181.1240  138.4780 C   0  0  2  0  0  3  0  0  0  0  0  0
  186.4500  178.0710  137.8480 C   0  0  2  0  0  0  0  0  0  0  0  0
  180.0230  179.7830  138.5230 C   0  0  1  0  0  3  0  0  0  0  0  0
  184.2650  175.3560  136.0090 C   0  0  2  0  0  3  0  0  0  0  0  0
  188.8040  176.6290  135.9900 C   0  0  0  0  0  2  0  0  0  0  0  0
  182.2410  176.0500  137.4390 C   0  0  1  0  0  0  0  0  0  0  0  0
  187.2380  177.0890  138.4870 O   0  0  0  0  0  0  0  0  0  0  0  0
  184.6170  173.2630  134.7060 C   0  0  0  0  0  2  0  0  0  0  0  0
  184.5720  171.7870  135.0580 C   0  0  0  0  0  1  0  0  0  0  0  0
  184.5030  178.9130  142.0680 O   0  0  0  0  0  1  0  0  0  0  0  0
  184.1330  177.8720  141.2160 C   0  0  0  0  0  2  0  0  0  0  0  0
  1 32  1  0  0  0  0
  1  5  1  1  0  0  0
  2  6  1  0  0  0  0
  2 31  1  0  0  0  0
  3 27  1  0  0  0  0
  3 29  1  0  0  0  0
  4 37  1  1  0  0  0
  6  7  1  1  0  0  0
  6  8  1  0  0  0  0
  7 25  1  0  0  0  0
  8 18  1  0  0  0  0
  8 28  1  0  0  0  0
  9 12  1  0  0  0  0
 10  4  1  0  0  0  0
 11 20  1  0  0  0  0
 11 32  1  0  0  0  0
 11 22  1  0  0  0  0
 12  4  1  0  0  0  0
 13 28  1  0  0  0  0
 13 10  1  0  0  0  0
 15 27  1  0  0  0  0
 15  9  1  0  0  0  0
 16  5  1  0  0  0  0
 17 18  1  0  0  0  0
 18 14  1  0  0  0  0
 19 26  1  0  0  0  0
 19 12  1  0  0  0  0
 20 23  1  0  0  0  0
 23 19  1  0  0  0  0
 23 29  1  0  0  0  0
 24 30  1  0  0  0  0
 24 16  1  0  0  0  0
 25 13  1  0  0  0  0
 26 10  1  0  0  0  0
 27 29  1  0  0  0  0
 28 33  1  0  0  0  0
 28 21  1  0  0  0  0
 30 25  1  0  0  0  0
 30  1  1  0  0  0  0
 31 17  1  0  0  0  0
 32 22  1  0  0  0  0
 32 26  1  0  0  0  0
 33 21  1  0  0  0  0
 34 35  1  0  0  0  0
 34 24  1  0  0  0  0
 37 36  1  0  0  0  0
M  END
>  <MODEL>
3

>  <REMARK>
 VINA RESULT:      -5.2      2.685      5.831
  Name = 
  2 active torsions:
  status: ('A' for Active; 'I' for Inactive)
    1  A    between atoms: C_4  and  C_28
    2  A    between atoms: C_11  and  C_26
                            x       y       z     vdW  Elec       q    Type
                         _______ _______ _______ _____ _____    ______ ____

>  <TORSDO>
F 2

$$$$
=
 OpenBabel10262422483D

 37 46  0  0  1  0  0  0  0  0999 V2000
  184.8050  176.9930  137.1960 C   0  0  2  0  0  3  0  0  0  0  0  0
  184.8140  171.2220  136.3940 O   0  0  0  0  0  0  0  0  0  0  0  0
  179.9870  177.0420  141.6810 C   0  0  0  0  0  2  0  0  0  0  0  0
  180.4630  175.9230  136.4070 C   0  0  1  0  0  3  0  0  0  0  0  0
  184.8760  177.3940  135.7420 C   0  0  0  0  0  2  0  0  0  0  0  0
  183.8680  171.9420  137.1720 C   0  0  1  0  0  3  0  0  0  0  0  0
  184.4450  173.2330  137.7560 C   0  0  0  0  0  2  0  0  0  0  0  0
  182.4200  172.0180  136.6130 C   0  0  2  0  0  3  0  0  0  0  0  0
  179.1610  175.3410  138.4890 C   0  0  0  0  0  2  0  0  0  0  0  0
  182.0050  176.0150  136.3990 C   0  0  2  0  0  3  0  0  0  0  0  0
  183.7590  177.9070  139.4200 C   0  0  2  0  0  3  0  0  0  0  0  0
  179.9760  176.4180  137.7760 C   0  0  1  0  0  3  0  0  0  0  0  0
  182.6070  174.6430  136.8350 C   0  0  2  0  0  3  0  0  0  0  0  0
  180.9330  170.7620  135.1420 F   0  0  0  0  0  0  0  0  0  0  0  0
  179.3580  175.3650  140.0070 C   0  0  0  0  0  2  0  0  0  0  0  0
  186.0040  176.5400  135.1870 C   0  0  0  0  0  2  0  0  0  0  0  0
  183.2820  170.7090  134.5940 C   0  0  0  0  0  2  0  0  0  0  0  0
  182.2060  170.8120  135.6790 C   0  0  1  0  0  3  0  0  0  0  0  0
  181.2420  176.7190  138.5320 C   0  0  2  0  0  3  0  0  0  0  0  0
  182.4750  177.9810  140.2890 C   0  0  0  0  0  2  0  0  0  0  0  0
  181.0980  173.5410  134.9300 C   0  0  0  0  0  2  0  0  0  0  0  0
  183.6830  178.9050  138.2810 C   0  0  0  0  0  2  0  0  0  0  0  0
  181.1410  177.8470  139.5360 C   0  0  2  0  0  3  0  0  0  0  0  0
  186.2790  175.4340  136.2120 C   0  0  2  0  0  3  0  0  0  0  0  0
  184.1440  174.4570  136.8980 C   0  0  1  0  0  3  0  0  0  0  0  0
  182.1950  177.0950  137.4490 C   0  0  1  0  0  3  0  0  0  0  0  0
  178.9560  176.7010  140.6260 C   0  0  2  0  0  3  0  0  0  0  0  0
  182.0930  173.4200  136.0280 C   0  0  2  0  0  0  0  0  0  0  0  0
  179.8860  177.9240  140.4480 C   0  0  1  0  0  3  0  0  0  0  0  0
  185.1820  175.5340  137.2620 C   0  0  2  0  0  3  0  0  0  0  0  0
  184.5650  171.4310  135.0250 C   0  0  0  0  0  2  0  0  0  0  0  0
  183.5790  177.4190  137.9710 C   0  0  1  0  0  0  0  0  0  0  0  0
  182.4800  173.5350  134.6750 O   0  0  0  0  0  0  0  0  0  0  0  0
  187.6380  175.6360  136.8630 C   0  0  0  0  0  2  0  0  0  0  0  0
  188.4660  176.6220  136.0590 C   0  0  0  0  0  1  0  0  0  0  0  0
  179.0880  177.7930  135.8470 O   0  0  0  0  0  1  0  0  0  0  0  0
  179.8870  176.7900  135.2990 C   0  0  0  0  0  2  0  0  0  0  0  0
  1  5  1  6  0  0  0
  1 30  1  0  0  0  0
  1 32  1  0  0  0  0
  2  6  1  0  0  0  0
  4 37  1  6  0  0  0
  4 12  1  0  0  0  0
  6  7  1  6  0  0  0
  8  6  1  0  0  0  0
  9 15  1  0  0  0  0
 10  4  1  0  0  0  0
 10 13  1  0  0  0  0
 10 26  1  0  0  0  0
 11 20  1  0  0  0  0
 12  9  1  0  0  0  0
 12 19  1  0  0  0  0
 13 25  1  0  0  0  0
 14 18  1  0  0  0  0
 15 27  1  0  0  0  0
 16  5  1  0  0  0  0
 16 24  1  0  0  0  0
 17 31  1  0  0  0  0
 17 18  1  0  0  0  0
 18  8  1  0  0  0  0
 19 23  1  0  0  0  0
 21 28  1  0  0  0  0
 22 11  1  0  0  0  0
 23 20  1  0  0  0  0
 23 29  1  0  0  0  0
 24 34  1  0  0  0  0
 24 30  1  0  0  0  0
 25 30  1  0  0  0  0
 25  7  1  0  0  0  0
 26 32  1  0  0  0  0
 26 19  1  0  0  0  0
 27  3  1  0  0  0  0
 28  8  1  0  0  0  0
 28 13  1  0  0  0  0
 29 27  1  0  0  0  0
 29  3  1  0  0  0  0
 31  2  1  0  0  0  0
 32 22  1  0  0  0  0
 32 11  1  0  0  0  0
 33 21  1  0  0  0  0
 33 28  1  0  0  0  0
 35 34  1  0  0  0  0
 37 36  1  0  0  0  0
M  END
>  <MODEL>
4

>  <REMARK>
 VINA RESULT:      -4.8      2.728      4.662
  Name = 
  2 active torsions:
  status: ('A' for Active; 'I' for Inactive)
    1  A    between atoms: C_4  and  C_28
    2  A    between atoms: C_11  and  C_26
                            x       y       z     vdW  Elec       q    Type
                         _______ _______ _______ _____ _____    ______ ____

>  <TORSDO>
F 2

$$$$
=
 OpenBabel10262422483D

 37 46  0  0  1  0  0  0  0  0999 V2000
  183.1270  176.2820  136.5580 C   0  0  2  0  0  3  0  0  0  0  0  0
  187.1930  178.2300  140.2480 O   0  0  0  0  0  0  0  0  0  0  0  0
  180.4290  182.1660  135.3620 C   0  0  0  0  0  2  0  0  0  0  0  0
  180.8480  178.7960  139.5760 C   0  0  1  0  0  3  0  0  0  0  0  0
  182.6900  175.0820  137.3630 C   0  0  0  0  0  2  0  0  0  0  0  0
  186.1370  179.0090  139.7050 C   0  0  1  0  0  3  0  0  0  0  0  0
  185.6750  178.5020  138.3380 C   0  0  0  0  0  2  0  0  0  0  0  0
  185.0240  179.4600  140.6920 C   0  0  2  0  0  3  0  0  0  0  0  0
  180.6670  181.2320  138.9450 C   0  0  0  0  0  2  0  0  0  0  0  0
  181.8270  177.8330  138.8690 C   0  0  2  0  0  3  0  0  0  0  0  0
  182.0580  178.0160  134.9070 C   0  0  2  0  0  3  0  0  0  0  0  0
  180.3450  179.7990  138.5290 C   0  0  1  0  0  3  0  0  0  0  0  0
  183.2850  178.3640  139.0340 C   0  0  2  0  0  3  0  0  0  0  0  0
  184.7240  179.8920  143.0740 F   0  0  0  0  0  0  0  0  0  0  0  0
  180.9880  182.1330  137.7490 C   0  0  0  0  0  2  0  0  0  0  0  0
  183.9970  174.4040  137.7390 C   0  0  0  0  0  2  0  0  0  0  0  0
  186.2820  178.1450  142.4880 C   0  0  0  0  0  2  0  0  0  0  0  0
  185.6240  179.4760  142.1100 C   0  0  1  0  0  3  0  0  0  0  0  0
  181.0890  179.4270  137.2730 C   0  0  2  0  0  3  0  0  0  0  0  0
  181.2500  179.3370  134.7910 C   0  0  0  0  0  2  0  0  0  0  0  0
  182.8000  178.4480  141.6570 C   0  0  0  0  0  2  0  0  0  0  0  0
  181.1320  176.8580  135.2250 C   0  0  0  0  0  2  0  0  0  0  0  0
  180.3410  179.6780  135.9830 C   0  0  2  0  0  3  0  0  0  0  0  0
  185.1200  175.4130  137.4770 C   0  0  2  0  0  3  0  0  0  0  0  0
  184.4700  177.5710  138.4270 C   0  0  1  0  0  3  0  0  0  0  0  0
  181.3170  177.9630  137.4440 C   0  0  1  0  0  3  0  0  0  0  0  0
  179.8340  182.2130  136.7540 C   0  0  2  0  0  3  0  0  0  0  0  0
  183.7100  178.6510  140.4990 C   0  0  2  0  0  0  0  0  0  0  0  0
  179.5570  181.0100  135.8220 C   0  0  1  0  0  3  0  0  0  0  0  0
  184.4460  176.7340  137.1360 C   0  0  2  0  0  3  0  0  0  0  0  0
  186.6890  177.3610  141.2340 C   0  0  0  0  0  2  0  0  0  0  0  0
  182.0930  177.3530  136.2960 C   0  0  1  0  0  0  0  0  0  0  0  0
  183.7070  177.4550  141.2490 O   0  0  0  0  0  0  0  0  0  0  0  0
  185.9840  174.9570  136.3110 C   0  0  0  0  0  2  0  0  0  0  0  0
  186.7320  176.1360  135.7170 C   0  0  0  0  0  1  0  0  0  0  0  0
  180.0790  176.7080  140.4440 O   0  0  0  0  0  1  0  0  0  0  0  0
  179.6820  178.0140  140.1580 C   0  0  0  0  0  2  0  0  0  0  0  0
  1 30  1  0  0  0  0
  1  5  1  1  0  0  0
  2 31  1  0  0  0  0
  3 29  1  0  0  0  0
  3 27  1  0  0  0  0
  4 37  1  6  0  0  0
  5 16  1  0  0  0  0
  6  7  1  6  0  0  0
  6  2  1  0  0  0  0
  6  8  1  0  0  0  0
  7 25  1  0  0  0  0
  8 18  1  0  0  0  0
 10 13  1  0  0  0  0
 10  4  1  0  0  0  0
 11 22  1  0  0  0  0
 11 32  1  0  0  0  0
 12  9  1  0  0  0  0
 12  4  1  0  0  0  0
 13 28  1  0  0  0  0
 15  9  1  0  0  0  0
 18 17  1  0  0  0  0
 18 14  1  0  0  0  0
 19 26  1  0  0  0  0
 19 12  1  0  0  0  0
 20 11  1  0  0  0  0
 20 23  1  0  0  0  0
 22 32  1  0  0  0  0
 23 19  1  0  0  0  0
 24 16  1  0  0  0  0
 25 13  1  0  0  0  0
 26 10  1  0  0  0  0
 27 15  1  0  0  0  0
 28  8  1  0  0  0  0
 28 33  1  0  0  0  0
 28 21  1  0  0  0  0
 29 23  1  0  0  0  0
 29 27  1  0  0  0  0
 30 24  1  0  0  0  0
 30 25  1  0  0  0  0
 31 17  1  0  0  0  0
 32  1  1  0  0  0  0
 32 26  1  0  0  0  0
 33 21  1  0  0  0  0
 34 24  1  0  0  0  0
 35 34  1  0  0  0  0
 37 36  1  0  0  0  0
M  END
>  <MODEL>
5

>  <REMARK>
 VINA RESULT:      -4.4      2.917      6.335
  Name = 
  2 active torsions:
  status: ('A' for Active; 'I' for Inactive)
    1  A    between atoms: C_4  and  C_28
    2  A    between atoms: C_11  and  C_26
                            x       y       z     vdW  Elec       q    Type
                         _______ _______ _______ _____ _____    ______ ____

>  <TORSDO>
F 2

$$$$
=
 OpenBabel10262422483D

 37 46  0  0  1  0  0  0  0  0999 V2000
  182.6660  179.4780  140.4530 C   0  0  2  0  0  3  0  0  0  0  0  0
  179.0550  175.1150  141.8180 O   0  0  0  0  0  0  0  0  0  0  0  0
  179.0700  181.7860  135.4450 C   0  0  0  0  0  2  0  0  0  0  0  0
  181.9220  177.3160  136.5290 C   0  0  1  0  0  3  0  0  0  0  0  0
  183.9560  178.6990  140.5330 C   0  0  0  0  0  2  0  0  0  0  0  0
  178.9310  175.9580  140.6820 C   0  0  1  0  0  3  0  0  0  0  0  0
  179.5300  177.3470  140.9100 C   0  0  0  0  0  2  0  0  0  0  0  0
  179.1970  175.3060  139.2960 C   0  0  2  0  0  3  0  0  0  0  0  0
  179.9270  178.1810  135.2490 C   0  0  0  0  0  2  0  0  0  0  0  0
  182.1750  177.6850  138.0070 C   0  0  2  0  0  3  0  0  0  0  0  0
  181.6820  181.4810  139.0730 C   0  0  2  0  0  3  0  0  0  0  0  0
  181.2870  178.5360  135.8480 C   0  0  1  0  0  3  0  0  0  0  0  0
  180.9590  177.2260  138.8710 C   0  0  2  0  0  3  0  0  0  0  0  0
  179.1210  173.1090  138.2370 F   0  0  0  0  0  0  0  0  0  0  0  0
  178.9310  179.3420  135.3290 C   0  0  0  0  0  2  0  0  0  0  0  0
  183.8530  177.9670  141.8610 C   0  0  0  0  0  2  0  0  0  0  0  0
  179.7340  173.1560  140.5700 C   0  0  0  0  0  2  0  0  0  0  0  0
  178.9410  173.7930  139.4260 C   0  0  1  0  0  3  0  0  0  0  0  0
  181.1360  179.5420  136.9580 C   0  0  2  0  0  3  0  0  0  0  0  0
  180.9910  181.8990  137.7480 C   0  0  0  0  0  2  0  0  0  0  0  0
  181.2890  174.8100  137.7860 C   0  0  0  0  0  2  0  0  0  0  0  0
  183.1700  181.2910  138.8550 C   0  0  0  0  0  2  0  0  0  0  0  0
  181.2520  180.9900  136.5350 C   0  0  2  0  0  3  0  0  0  0  0  0
  182.3880  178.0420  142.3050 C   0  0  2  0  0  3  0  0  0  0  0  0
  180.9640  177.4640  140.4020 C   0  0  1  0  0  3  0  0  0  0  0  0
  182.2600  179.1950  137.8750 C   0  0  1  0  0  3  0  0  0  0  0  0
  179.4240  180.5850  134.5940 C   0  0  2  0  0  3  0  0  0  0  0  0
  180.5690  175.7330  138.7040 C   0  0  2  0  0  0  0  0  0  0  0  0
  180.5360  181.4470  135.2340 C   0  0  1  0  0  3  0  0  0  0  0  0
  181.6140  178.6470  141.1420 C   0  0  2  0  0  3  0  0  0  0  0  0
  180.1110  174.2040  141.6240 C   0  0  0  0  0  2  0  0  0  0  0  0
  182.2990  180.0700  139.1110 C   0  0  1  0  0  0  0  0  0  0  0  0
  181.6220  174.9040  139.1490 O   0  0  0  0  0  0  0  0  0  0  0  0
  182.2490  178.9260  143.5340 C   0  0  0  0  0  2  0  0  0  0  0  0
  183.5470  178.9440  144.3200 C   0  0  0  0  0  1  0  0  0  0  0  0
  184.1320  176.4500  136.7900 O   0  0  0  0  0  1  0  0  0  0  0  0
  183.2350  176.9610  135.8520 C   0  0  0  0  0  2  0  0  0  0  0  0
  1  5  1  6  0  0  0
  1 30  1  0  0  0  0
  4 37  1  6  0  0  0
  4 10  1  0  0  0  0
  5 16  1  0  0  0  0
  6  7  1  1  0  0  0
  6  2  1  0  0  0  0
  8 18  1  0  0  0  0
  8  6  1  0  0  0  0
  9 15  1  0  0  0  0
  9 12  1  0  0  0  0
 10 13  1  0  0  0  0
 11 32  1  0  0  0  0
 12  4  1  0  0  0  0
 12 19  1  0  0  0  0
 13 25  1  0  0  0  0
 14 18  1  0  0  0  0
 16 24  1  0  0  0  0
 17 31  1  0  0  0  0
 18 17  1  0  0  0  0
 19 26  1  0  0  0  0
 20 11  1  0  0  0  0
 21 28  1  0  0  0  0
 21 33  1  0  0  0  0
 22 11  1  0  0  0  0
 22 32  1  0  0  0  0
 23 19  1  0  0  0  0
 23 20  1  0  0  0  0
 24 34  1  0  0  0  0
 25  7  1  0  0  0  0
 25 30  1  0  0  0  0
 26 10  1  0  0  0  0
 26 32  1  0  0  0  0
 27 29  1  0  0  0  0
 27 15  1  0  0  0  0
 27  3  1  0  0  0  0
 28 13  1  0  0  0  0
 28 33  1  0  0  0  0
 28  8  1  0  0  0  0
 29  3  1  0  0  0  0
 29 23  1  0  0  0  0
 30 24  1  0  0  0  0
 31  2  1  0  0  0  0
 32  1  1  0  0  0  0
 34 35  1  0  0  0  0
 37 36  1  0  0  0  0
M  END
>  <MODEL>
6

>  <REMARK>
 VINA RESULT:      -4.4      3.263      6.923
  Name = 
  2 active torsions:
  status: ('A' for Active; 'I' for Inactive)
    1  A    between atoms: C_4  and  C_28
    2  A    between atoms: C_11  and  C_26
                            x       y       z     vdW  Elec       q    Type
                         _______ _______ _______ _____ _____    ______ ____

>  <TORSDO>
F 2

$$$$
=
 OpenBabel10262422483D

 37 46  0  0  1  0  0  0  0  0999 V2000
  180.9140  179.5440  137.8500 C   0  0  2  0  0  3  0  0  0  0  0  0
  182.7340  178.9990  143.3580 O   0  0  0  0  0  0  0  0  0  0  0  0
  182.0130  173.2780  136.1560 C   0  0  0  0  0  2  0  0  0  0  0  0
  184.9960  177.5770  137.5360 C   0  0  1  0  0  3  0  0  0  0  0  0
  181.6170  180.8430  137.5380 C   0  0  0  0  0  2  0  0  0  0  0  0
  182.8430  178.0000  142.3550 C   0  0  1  0  0  3  0  0  0  0  0  0
  181.7500  178.1110  141.2900 C   0  0  0  0  0  2  0  0  0  0  0  0
  184.2750  177.6730  141.8480 C   0  0  2  0  0  3  0  0  0  0  0  0
  184.9230  175.0570  137.6160 C   0  0  0  0  0  2  0  0  0  0  0  0
  183.7830  178.4490  137.9310 C   0  0  2  0  0  3  0  0  0  0  0  0
  180.2080  177.3580  136.5840 C   0  0  2  0  0  3  0  0  0  0  0  0
  184.4560  176.3050  136.8700 C   0  0  1  0  0  3  0  0  0  0  0  0
  183.3840  178.1410  139.4070 C   0  0  2  0  0  3  0  0  0  0  0  0
  186.5860  177.7880  142.6240 F   0  0  0  0  0  0  0  0  0  0  0  0
  183.8750  173.9400  137.6060 C   0  0  0  0  0  2  0  0  0  0  0  0
  181.2670  181.7340  138.7190 C   0  0  0  0  0  2  0  0  0  0  0  0
  185.0980  179.5100  143.4250 C   0  0  0  0  0  2  0  0  0  0  0  0
  185.2720  178.0620  142.9570 C   0  0  1  0  0  3  0  0  0  0  0  0
  182.9590  176.4490  136.9550 C   0  0  2  0  0  3  0  0  0  0  0  0
  180.6780  175.9650  136.0850 C   0  0  0  0  0  2  0  0  0  0  0  0
  185.9290  178.6280  140.0430 C   0  0  0  0  0  2  0  0  0  0  0  0
  180.7000  178.4460  135.6500 C   0  0  0  0  0  2  0  0  0  0  0  0
  182.1850  175.8160  135.8200 C   0  0  2  0  0  3  0  0  0  0  0  0
  180.7150  180.8250  139.8220 C   0  0  2  0  0  3  0  0  0  0  0  0
  182.1990  178.8950  140.0610 C   0  0  1  0  0  3  0  0  0  0  0  0
  182.7670  177.9280  136.9300 C   0  0  1  0  0  3  0  0  0  0  0  0
  183.5110  173.4960  136.1920 C   0  0  2  0  0  3  0  0  0  0  0  0
  184.5420  178.2590  140.4330 C   0  0  2  0  0  0  0  0  0  0  0  0
  182.6070  174.4040  135.3270 C   0  0  1  0  0  3  0  0  0  0  0  0
  180.9270  179.3940  139.3510 C   0  0  2  0  0  3  0  0  0  0  0  0
  183.6810  180.0150  143.1260 C   0  0  0  0  0  2  0  0  0  0  0  0
  181.3110  178.3310  137.0380 C   0  0  1  0  0  0  0  0  0  0  0  0
  185.0070  179.5910  140.4880 O   0  0  0  0  0  0  0  0  0  0  0  0
  179.2310  181.0860  140.0330 C   0  0  0  0  0  2  0  0  0  0  0  0
  178.9310  181.2530  141.5110 C   0  0  0  0  0  1  0  0  0  0  0  0
  187.2030  177.8870  136.6780 O   0  0  0  0  0  1  0  0  0  0  0  0
  185.8880  178.3380  136.5690 C   0  0  0  0  0  2  0  0  0  0  0  0
  1  5  1  1  0  0  0
  1 30  1  0  0  0  0
  3 27  1  0  0  0  0
  4 37  1  6  0  0  0
  4 10  1  0  0  0  0
  5 16  1  0  0  0  0
  6  7  1  6  0  0  0
  6  2  1  0  0  0  0
  8  6  1  0  0  0  0
  8 18  1  0  0  0  0
 10 13  1  0  0  0  0
 11 32  1  0  0  0  0
 12 19  1  0  0  0  0
 12  4  1  0  0  0  0
 12  9  1  0  0  0  0
 13 25  1  0  0  0  0
 13 28  1  0  0  0  0
 14 18  1  0  0  0  0
 15  9  1  0  0  0  0
 16 24  1  0  0  0  0
 18 17  1  0  0  0  0
 20 11  1  0  0  0  0
 21 28  1  0  0  0  0
 21 33  1  0  0  0  0
 22 11  1  0  0  0  0
 22 32  1  0  0  0  0
 23 20  1  0  0  0  0
 23 19  1  0  0  0  0
 24 34  1  0  0  0  0
 25  7  1  0  0  0  0
 26 19  1  0  0  0  0
 26 32  1  0  0  0  0
 26 10  1  0  0  0  0
 27 15  1  0  0  0  0
 28 33  1  0  0  0  0
 28  8  1  0  0  0  0
 29 23  1  0  0  0  0
 29  3  1  0  0  0  0
 29 27  1  0  0  0  0
 30 24  1  0  0  0  0
 30 25  1  0  0  0  0
 31  2  1  0  0  0  0
 31 17  1  0  0  0  0
 32  1  1  0  0  0  0
 34 35  1  0  0  0  0
 37 36  1  0  0  0  0
M  END
>  <MODEL>
7

>  <REMARK>
 VINA RESULT:      -4.3      2.691      7.358
  Name = 
  2 active torsions:
  status: ('A' for Active; 'I' for Inactive)
    1  A    between atoms: C_4  and  C_28
    2  A    between atoms: C_11  and  C_26
                            x       y       z     vdW  Elec       q    Type
                         _______ _______ _______ _____ _____    ______ ____

>  <TORSDO>
F 2

$$$$
=
 OpenBabel10262422483D

 37 46  0  0  1  0  0  0  0  0999 V2000
  185.4470  178.0130  139.1690 C   0  0  2  0  0  3  0  0  0  0  0  0
  182.4890  174.1330  135.9850 O   0  0  0  0  0  0  0  0  0  0  0  0
  181.3200  177.9610  144.2970 C   0  0  0  0  0  2  0  0  0  0  0  0
  181.1760  179.5570  139.1280 C   0  0  1  0  0  3  0  0  0  0  0  0
  185.7210  179.0060  138.0650 C   0  0  0  0  0  2  0  0  0  0  0  0
  182.0450  174.7000  137.2090 C   0  0  1  0  0  3  0  0  0  0  0  0
  183.2000  175.1070  138.1240 C   0  0  0  0  0  2  0  0  0  0  0  0
  180.8450  175.6840  137.1260 C   0  0  2  0  0  3  0  0  0  0  0  0
  179.7510  178.6670  141.0100 C   0  0  0  0  0  2  0  0  0  0  0  0
  182.5460  178.9400  138.7690 C   0  0  2  0  0  3  0  0  0  0  0  0
  185.0090  178.0460  141.7550 C   0  0  2  0  0  3  0  0  0  0  0  0
  181.0070  179.4580  140.6500 C   0  0  1  0  0  3  0  0  0  0  0  0
  182.3540  177.4350  138.4020 C   0  0  2  0  0  3  0  0  0  0  0  0
  178.9310  176.1550  135.6880 F   0  0  0  0  0  0  0  0  0  0  0  0
  179.9260  177.8370  142.2850 C   0  0  0  0  0  2  0  0  0  0  0  0
  186.2520  178.1460  136.9310 C   0  0  0  0  0  2  0  0  0  0  0  0
  180.9190  175.3390  134.5940 C   0  0  0  0  0  2  0  0  0  0  0  0
  180.0450  175.3540  135.8510 C   0  0  1  0  0  3  0  0  0  0  0  0
  182.2450  178.7360  141.1130 C   0  0  2  0  0  3  0  0  0  0  0  0
  183.9420  178.2410  142.8650 C   0  0  0  0  0  2  0  0  0  0  0  0
  180.5020  178.2470  136.6610 C   0  0  0  0  0  2  0  0  0  0  0  0
  185.4630  179.3890  141.2180 C   0  0  0  0  0  2  0  0  0  0  0  0
  182.7330  179.1150  142.4940 C   0  0  2  0  0  3  0  0  0  0  0  0
  185.9130  176.6900  137.2710 C   0  0  2  0  0  3  0  0  0  0  0  0
  183.5760  176.5790  137.9860 C   0  0  1  0  0  3  0  0  0  0  0  0
  183.2600  179.1300  140.0950 C   0  0  1  0  0  3  0  0  0  0  0  0
  180.2650  178.6980  143.4980 C   0  0  2  0  0  3  0  0  0  0  0  0
  181.2890  177.1630  137.3070 C   0  0  2  0  0  0  0  0  0  0  0  0
  181.6920  179.2770  143.6350 C   0  0  1  0  0  3  0  0  0  0  0  0
  185.0190  176.7300  138.5010 C   0  0  2  0  0  3  0  0  0  0  0  0
  182.3890  175.0840  134.9520 C   0  0  0  0  0  2  0  0  0  0  0  0
  184.6110  178.4890  140.3350 C   0  0  1  0  0  0  0  0  0  0  0  0
  181.6860  177.7520  136.0870 O   0  0  0  0  0  0  0  0  0  0  0  0
  187.1800  175.9060  137.5770 C   0  0  0  0  0  2  0  0  0  0  0  0
  188.3690  176.5290  136.8690 C   0  0  0  0  0  1  0  0  0  0  0  0
  179.9150  181.2870  138.0680 O   0  0  0  0  0  1  0  0  0  0  0  0
  181.1340  181.0120  138.6890 C   0  0  0  0  0  2  0  0  0  0  0  0
  1  5  1  6  0  0  0
  1 32  1  0  0  0  0
  2  6  1  0  0  0  0
  4 37  1  1  0  0  0
  4 12  1  0  0  0  0
  6  7  1  6  0  0  0
  8  6  1  0  0  0  0
  8 28  1  0  0  0  0
  9 15  1  0  0  0  0
 10  4  1  0  0  0  0
 10 26  1  0  0  0  0
 11 20  1  0  0  0  0
 12  9  1  0  0  0  0
 12 19  1  0  0  0  0
 13 10  1  0  0  0  0
 14 18  1  0  0  0  0
 15 27  1  0  0  0  0
 16 24  1  0  0  0  0
 16  5  1  0  0  0  0
 17 31  1  0  0  0  0
 17 18  1  0  0  0  0
 18  8  1  0  0  0  0
 19 23  1  0  0  0  0
 21 28  1  0  0  0  0
 22 11  1  0  0  0  0
 23 20  1  0  0  0  0
 23 29  1  0  0  0  0
 24 34  1  0  0  0  0
 24 30  1  0  0  0  0
 25  7  1  0  0  0  0
 25 13  1  0  0  0  0
 25 30  1  0  0  0  0
 26 32  1  0  0  0  0
 26 19  1  0  0  0  0
 27 29  1  0  0  0  0
 27  3  1  0  0  0  0
 28 13  1  0  0  0  0
 29  3  1  0  0  0  0
 30  1  1  0  0  0  0
 31  2  1  0  0  0  0
 32 22  1  0  0  0  0
 32 11  1  0  0  0  0
 33 21  1  0  0  0  0
 33 28  1  0  0  0  0
 35 34  1  0  0  0  0
 36 37  1  0  0  0  0
M  END
>  <MODEL>
8

>  <REMARK>
 VINA RESULT:      -4.2      2.009      3.285
  Name = 
  2 active torsions:
  status: ('A' for Active; 'I' for Inactive)
    1  A    between atoms: C_4  and  C_28
    2  A    between atoms: C_11  and  C_26
                            x       y       z     vdW  Elec       q    Type
                         _______ _______ _______ _____ _____    ______ ____

>  <TORSDO>
F 2

$$$$
=
 OpenBabel10262422483D

 37 46  0  0  1  0  0  0  0  0999 V2000
  190.0890  175.0870  136.8340 C   0  0  2  0  0  3  0  0  0  0  0  0
  185.2760  171.8570  136.2440 O   0  0  0  0  0  0  0  0  0  0  0  0
  188.2560  178.0070  142.4420 C   0  0  0  0  0  2  0  0  0  0  0  0
  186.6550  178.0270  137.2720 C   0  0  1  0  0  3  0  0  0  0  0  0
  190.1880  175.5560  135.4020 C   0  0  0  0  0  2  0  0  0  0  0  0
  185.4720  172.8670  137.2230 C   0  0  1  0  0  3  0  0  0  0  0  0
  186.9450  173.0550  137.5900 C   0  0  0  0  0  2  0  0  0  0  0  0
  184.6240  174.1600  137.0710 C   0  0  2  0  0  3  0  0  0  0  0  0
  185.8360  178.2940  139.6440 C   0  0  0  0  0  2  0  0  0  0  0  0
  187.5880  176.8720  136.8480 C   0  0  2  0  0  3  0  0  0  0  0  0
  190.6490  176.0020  139.2270 C   0  0  2  0  0  3  0  0  0  0  0  0
  187.0330  178.4280  138.7050 C   0  0  1  0  0  3  0  0  0  0  0  0
  186.8930  175.5080  137.1510 C   0  0  2  0  0  3  0  0  0  0  0  0
  182.5090  174.8850  136.0920 F   0  0  0  0  0  0  0  0  0  0  0  0
  186.2430  177.8520  141.0520 C   0  0  0  0  0  2  0  0  0  0  0  0
  190.0260  174.2800  134.5940 C   0  0  0  0  0  2  0  0  0  0  0  0
  183.6770  173.1180  134.9370 C   0  0  0  0  0  2  0  0  0  0  0  0
  183.3580  173.8070  136.2670 C   0  0  1  0  0  3  0  0  0  0  0  0
  188.1220  177.4590  139.0840 C   0  0  2  0  0  3  0  0  0  0  0  0
  190.1510  176.8820  140.4060 C   0  0  0  0  0  2  0  0  0  0  0  0
  184.8120  176.4270  135.7550 C   0  0  0  0  0  2  0  0  0  0  0  0
  191.2070  176.8730  138.1190 C   0  0  0  0  0  2  0  0  0  0  0  0
  189.1610  178.0000  140.0410 C   0  0  2  0  0  3  0  0  0  0  0  0
  189.4690  173.2120  135.5420 C   0  0  2  0  0  3  0  0  0  0  0  0
  187.6120  174.1800  136.8050 C   0  0  1  0  0  3  0  0  0  0  0  0
  188.7610  177.1470  137.7730 C   0  0  1  0  0  3  0  0  0  0  0  0
  187.2120  178.8270  141.7130 C   0  0  2  0  0  3  0  0  0  0  0  0
  185.4700  175.3560  136.5500 C   0  0  2  0  0  0  0  0  0  0  0  0
  188.6880  178.8490  141.2540 C   0  0  1  0  0  3  0  0  0  0  0  0
  189.1290  173.9230  136.8430 C   0  0  2  0  0  3  0  0  0  0  0  0
  185.0560  172.4480  134.9850 C   0  0  0  0  0  2  0  0  0  0  0  0
  189.8900  176.1460  137.8960 C   0  0  1  0  0  0  0  0  0  0  0  0
  185.5330  175.3890  135.1400 O   0  0  0  0  0  0  0  0  0  0  0  0
  190.5100  172.1340  135.7980 C   0  0  0  0  0  2  0  0  0  0  0  0
  191.6700  172.2800  134.8310 C   0  0  0  0  0  1  0  0  0  0  0  0
  187.1740  178.7560  135.0580 O   0  0  0  0  0  1  0  0  0  0  0  0
  186.8330  179.2090  136.3320 C   0  0  0  0  0  2  0  0  0  0  0  0
  1  5  1  6  0  0  0
  1 30  1  0  0  0  0
  1 32  1  0  0  0  0
  2  6  1  0  0  0  0
  4 37  1  6  0  0  0
  4 12  1  0  0  0  0
  6  7  1  6  0  0  0
  8  6  1  0  0  0  0
  9 15  1  0  0  0  0
 10 13  1  0  0  0  0
 10  4  1  0  0  0  0
 10 26  1  0  0  0  0
 11 20  1  0  0  0  0
 12 19  1  0  0  0  0
 12  9  1  0  0  0  0
 14 18  1  0  0  0  0
 15 27  1  0  0  0  0
 16  5  1  0  0  0  0
 16 24  1  0  0  0  0
 17 31  1  0  0  0  0
 17 18  1  0  0  0  0
 18  8  1  0  0  0  0
 19 23  1  0  0  0  0
 21 28  1  0  0  0  0
 22 11  1  0  0  0  0
 23 20  1  0  0  0  0
 23 29  1  0  0  0  0
 24 34  1  0  0  0  0
 24 30  1  0  0  0  0
 25 30  1  0  0  0  0
 25 13  1  0  0  0  0
 25  7  1  0  0  0  0
 26 32  1  0  0  0  0
 26 19  1  0  0  0  0
 27  3  1  0  0  0  0
 28  8  1  0  0  0  0
 28 13  1  0  0  0  0
 29 27  1  0  0  0  0
 29  3  1  0  0  0  0
 31  2  1  0  0  0  0
 32 22  1  0  0  0  0
 32 11  1  0  0  0  0
 33 21  1  0  0  0  0
 33 28  1  0  0  0  0
 35 34  1  0  0  0  0
 36 37  1  0  0  0  0
M  END
>  <MODEL>
9

>  <REMARK>
 VINA RESULT:      -4.2      2.199      3.166
  Name = 
  2 active torsions:
  status: ('A' for Active; 'I' for Inactive)
    1  A    between atoms: C_4  and  C_28
    2  A    between atoms: C_11  and  C_26
                            x       y       z     vdW  Elec       q    Type
                         _______ _______ _______ _____ _____    ______ ____

>  <TORSDO>
F 2

$$$$
