=
 OpenBabel10262420163D

 55 59  0  0  1  0  0  0  0  0999 V2000
  187.3240  179.0220  140.8950 C   0  0  0  0  0  2  0  0  0  0  0  0
  184.6690  175.8750  137.7680 C   0  0  0  0  0  2  0  0  0  0  0  0
  187.6580  175.2860  137.1950 C   0  0  0  0  0  1  0  0  0  0  0  0
  190.5740  176.9650  136.8750 C   0  0  0  0  0  2  0  0  0  0  0  0
  191.8130  176.2150  136.4010 C   0  0  0  0  0  2  0  0  0  0  0  0
  191.5260  176.7060  139.2100 C   0  0  0  0  0  0  0  0  0  0  0  0
  192.8640  176.3060  138.6520 C   0  0  0  0  0  2  0  0  0  0  0  0
  187.9620  177.4540  138.0600 C   0  0  0  0  0  2  0  0  0  0  0  0
  193.0240  176.6970  137.1860 C   0  0  0  0  0  2  0  0  0  0  0  0
  186.0080  179.1380  143.0390 C   0  0  0  0  0  2  0  0  0  0  0  0
  190.4080  176.9280  138.3780 C   0  0  0  0  0  0  0  0  0  0  0  0
  183.5080  178.7560  141.5210 C   0  0  1  0  0  3  0  0  0  0  0  0
  187.6770  177.5400  140.9760 C   0  0  0  0  0  2  0  0  0  0  0  0
  184.8720  178.4610  140.8990 C   0  0  0  0  0  2  0  0  0  0  0  0
  190.1540  177.0520  141.1890 C   0  0  0  0  0  0  0  0  0  0  0  0
  183.8510  176.5540  138.7660 N   0  0  0  0  0  0  0  0  0  0  0  0
  191.3820  176.7520  140.5920 C   0  0  0  0  0  3  0  0  0  0  0  0
  185.8520  176.7480  137.3720 C   0  0  0  0  0  2  0  0  0  0  0  0
  187.0620  176.3060  138.0490 N   0  0  0  0  0  0  0  0  0  0  0  0
  184.6460  179.4670  143.6430 C   0  0  0  0  0  2  0  0  0  0  0  0
  182.9610  177.4650  138.4880 C   0  0  0  0  0  0  0  0  0  0  0  0
  185.9670  179.3250  141.5230 C   0  0  2  0  0  3  0  0  0  0  0  0
  189.1540  177.2180  138.9560 C   0  0  0  0  0  0  0  0  0  0  0  0
  189.0230  177.2800  140.3640 C   0  0  0  0  0  0  0  0  0  0  0  0
  182.2190  178.0890  139.5410 N   0  0  0  0  0  2  0  0  0  0  0  0
  182.4550  177.8150  140.9540 C   0  0  0  0  0  2  0  0  0  0  0  0
  183.5710  178.5690  143.0360 C   0  0  0  0  0  2  0  0  0  0  0  0
  188.9150  176.7390  143.3380 C   0  0  0  0  0  3  0  0  0  0  0  0
  189.9820  177.1110  145.4880 C   0  0  0  0  0  0  0  0  0  0  0  0
  191.2270  177.4400  143.4300 C   0  0  0  0  0  3  0  0  0  0  0  0
  191.1690  177.4520  144.8260 C   0  0  0  0  0  3  0  0  0  0  0  0
  188.8570  176.7510  144.7350 C   0  0  0  0  0  3  0  0  0  0  0  0
  190.0970  177.0950  142.6720 C   0  0  0  0  0  0  0  0  0  0  0  0
  189.9250  177.1300  146.9580 C   0  0  0  0  0  0  0  0  0  0  0  0
  188.6980  177.1490  147.6110 O   0  0  0  0  0  0  0  0  0  0  0  0
  190.9850  177.1270  147.6380 O   0  0  0  0  0  1  0  0  0  0  0  0
  182.6700  177.8740  137.0760 C   0  0  0  0  0  2  0  0  0  0  0  0
  181.2000  178.2410  136.8890 C   0  0  0  0  0  2  0  0  0  0  0  0
  181.8290  178.1110  134.5940 F   0  0  0  0  0  0  0  0  0  0  0  0
  180.8560  178.6090  135.4450 C   0  0  0  0  0  0  0  0  0  0  0  0
  179.6360  178.0600  135.0910 F   0  0  0  0  0  0  0  0  0  0  0  0
  180.7910  180.1130  135.3180 C   0  0  0  0  0  0  0  0  0  0  0  0
  181.5960  180.6830  134.5940 O   0  0  0  0  0  0  0  0  0  0  0  0
  178.9310  179.9910  136.9240 C   0  0  0  0  0  1  0  0  0  0  0  0
  178.9310  181.6010  135.2130 F   0  0  0  0  0  0  0  0  0  0  0  0
  179.7760  180.9370  136.0860 C   0  0  2  0  0  0  0  0  0  0  0  0
  180.5070  181.9520  136.9970 C   0  0  2  0  0  3  0  0  0  0  0  0
  181.0010  181.4610  138.3670 C   0  0  1  0  0  3  0  0  0  0  0  0
  182.2340  182.0270  138.7060 O   0  0  0  0  0  1  0  0  0  0  0  0
  180.0160  181.7690  139.3910 N   0  0  0  0  0  2  0  0  0  0  0  0
  180.1760  180.7890  140.4530 C   0  0  0  0  0  1  0  0  0  0  0  0
  179.8510  183.2220  137.0770 O   0  0  0  0  0  0  0  0  0  0  0  0
  180.4200  184.4430  136.6960 C   0  0  0  0  0  0  0  0  0  0  0  0
  181.4630  184.8430  137.2740 O   0  0  0  0  0  1  0  0  0  0  0  0
  179.8530  185.2270  135.6990 O   0  0  0  0  0  0  0  0  0  0  0  0
  1 13  1  0  0  0  0
  2 16  1  0  0  0  0
  3 19  1  0  0  0  0
  4 11  1  0  0  0  0
  5  4  1  0  0  0  0
  5  9  1  0  0  0  0
  6 17  1  0  0  0  0
  7  6  1  0  0  0  0
  8 23  1  0  0  0  0
  9  7  1  0  0  0  0
 10 20  1  0  0  0  0
 11 23  1  0  0  0  0
 11  6  2  0  0  0  0
 12 14  1  6  0  0  0
 12 27  1  0  0  0  0
 14 22  1  0  0  0  0
 15 33  1  0  0  0  0
 17 15  2  0  0  0  0
 18  2  1  0  0  0  0
 18 19  1  0  0  0  0
 19  8  1  0  0  0  0
 21 16  2  0  0  0  0
 21 25  1  0  0  0  0
 22  1  1  6  0  0  0
 22 10  1  0  0  0  0
 23 24  2  0  0  0  0
 24 13  1  0  0  0  0
 24 15  1  0  0  0  0
 25 26  1  0  0  0  0
 26 12  1  0  0  0  0
 27 20  1  0  0  0  0
 28 32  1  0  0  0  0
 29 34  1  0  0  0  0
 30 31  2  0  0  0  0
 31 29  1  0  0  0  0
 32 29  2  0  0  0  0
 33 28  2  0  0  0  0
 33 30  1  0  0  0  0
 34 35  2  0  0  0  0
 34 36  1  0  0  0  0
 37 21  1  0  0  0  0
 38 37  1  0  0  0  0
 39 40  1  0  0  0  0
 40 38  1  0  0  0  0
 41 40  1  0  0  0  0
 42 40  1  0  0  0  0
 42 46  1  0  0  0  0
 43 42  2  0  0  0  0
 45 46  1  0  0  0  0
 46 44  1  1  0  0  0
 46 47  1  0  0  0  0
 47 52  1  1  0  0  0
 47 48  1  0  0  0  0
 48 49  1  1  0  0  0
 48 50  1  0  0  0  0
 50 51  1  0  0  0  0
 53 52  1  0  0  0  0
 53 54  1  0  0  0  0
 55 53  2  0  0  0  0
M  END
>  <MODEL>
1

>  <REMARK>
 VINA RESULT:      -7.2      0.000      0.000
  Name = 
  12 active torsions:
  status: ('A' for Active; 'I' for Inactive)
    1  A    between atoms: C_1  and  O_53
    2  A    between atoms: C_6  and  C_14
    3  A    between atoms: C_6  and  C_20
    4  A    between atoms: C_8  and  C_22
    5  A    between atoms: C_8  and  C_43
    6  A    between atoms: C_10  and  C_32
    7  A    between atoms: N_11  and  C_29
    8  A    between atoms: C_14  and  C_38
    9  A    between atoms: C_20  and  C_22
   10  A    between atoms: C_29  and  C_38
   11  A    between atoms: C_33  and  C_52
   12  A    between atoms: C_38  and  O_53
                            x       y       z     vdW  Elec       q    Type
                         _______ _______ _______ _____ _____    ______ ____

>  <TORSDO>
F 12

$$$$
=
 OpenBabel10262420163D

 55 59  0  0  1  0  0  0  0  0999 V2000
  187.3540  176.3690  142.5980 C   0  0  0  0  0  2  0  0  0  0  0  0
  187.7780  179.3180  138.3720 C   0  0  0  0  0  2  0  0  0  0  0  0
  184.9430  179.8790  139.4940 C   0  0  0  0  0  1  0  0  0  0  0  0
  182.3770  178.1900  140.9050 C   0  0  0  0  0  2  0  0  0  0  0  0
  181.0570  178.9140  141.1470 C   0  0  0  0  0  2  0  0  0  0  0  0
  182.8440  178.5900  143.3640 C   0  0  0  0  0  0  0  0  0  0  0  0
  181.4070  178.9600  143.6070 C   0  0  0  0  0  2  0  0  0  0  0  0
  185.2260  177.7670  140.4950 C   0  0  0  0  0  2  0  0  0  0  0  0
  180.4860  178.4820  142.4890 C   0  0  0  0  0  2  0  0  0  0  0  0
  189.6290  176.3790  143.6780 C   0  0  0  0  0  2  0  0  0  0  0  0
  183.3340  178.3170  142.0690 C   0  0  0  0  0  0  0  0  0  0  0  0
  190.8840  176.6630  141.0240 C   0  0  1  0  0  3  0  0  0  0  0  0
  187.0570  177.8550  142.7820 C   0  0  0  0  0  2  0  0  0  0  0  0
  189.3930  176.9240  141.2330 C   0  0  0  0  0  2  0  0  0  0  0  0
  185.0840  178.3600  144.2880 C   0  0  0  0  0  0  0  0  0  0  0  0
  189.0280  178.6980  138.7940 N   0  0  0  0  0  0  0  0  0  0  0  0
  183.7200  178.6270  144.4430 C   0  0  0  0  0  3  0  0  0  0  0  0
  186.5980  178.4250  138.7310 C   0  0  0  0  0  2  0  0  0  0  0  0
  185.9390  178.9100  139.9350 N   0  0  0  0  0  0  0  0  0  0  0  0
  191.1090  176.0830  143.4560 C   0  0  0  0  0  2  0  0  0  0  0  0
  189.6490  177.7690  138.1230 C   0  0  0  0  0  0  0  0  0  0  0  0
  188.8420  176.1020  142.3980 C   0  0  2  0  0  3  0  0  0  0  0  0
  184.7080  178.0590  141.8830 C   0  0  0  0  0  0  0  0  0  0  0  0
  185.5880  178.0810  142.9920 C   0  0  0  0  0  0  0  0  0  0  0  0
  190.8640  177.2070  138.6300 N   0  0  0  0  0  2  0  0  0  0  0  0
  191.4290  177.5660  139.9260 C   0  0  0  0  0  2  0  0  0  0  0  0
  191.6520  176.9410  142.3160 C   0  0  0  0  0  2  0  0  0  0  0  0
  185.5700  179.2060  146.5900 C   0  0  0  0  0  3  0  0  0  0  0  0
  187.5200  178.4640  147.8320 C   0  0  0  0  0  0  0  0  0  0  0  0
  187.0990  177.6190  145.5960 C   0  0  0  0  0  3  0  0  0  0  0  0
  187.8840  177.6510  146.7520 C   0  0  0  0  0  3  0  0  0  0  0  0
  186.3550  179.2390  147.7460 C   0  0  0  0  0  3  0  0  0  0  0  0
  185.9400  178.4060  145.4980 C   0  0  0  0  0  0  0  0  0  0  0  0
  188.3520  178.4980  149.0450 C   0  0  0  0  0  0  0  0  0  0  0  0
  189.7290  178.6650  148.9450 O   0  0  0  0  0  0  0  0  0  0  0  0
  187.8270  178.3760  150.1830 O   0  0  0  0  0  1  0  0  0  0  0  0
  189.1360  177.2760  136.8040 C   0  0  0  0  0  2  0  0  0  0  0  0
  189.1280  175.7510  136.7380 C   0  0  0  0  0  2  0  0  0  0  0  0
  189.6830  174.5320  134.7670 F   0  0  0  0  0  0  0  0  0  0  0  0
  190.2400  175.1860  135.8540 C   0  0  0  0  0  0  0  0  0  0  0  0
  191.0450  176.2120  135.3870 F   0  0  0  0  0  0  0  0  0  0  0  0
  191.0720  174.2170  136.6600 C   0  0  0  0  0  0  0  0  0  0  0  0
  190.7350  173.9560  137.8070 O   0  0  0  0  0  0  0  0  0  0  0  0
  192.4960  174.0490  134.6610 C   0  0  0  0  0  1  0  0  0  0  0  0
  192.2070  172.2010  136.0830 F   0  0  0  0  0  0  0  0  0  0  0  0
  192.3280  173.5800  136.0980 C   0  0  2  0  0  0  0  0  0  0  0  0
  193.5520  173.9990  136.9450 C   0  0  2  0  0  3  0  0  0  0  0  0
  193.9190  175.4910  136.9880 C   0  0  1  0  0  3  0  0  0  0  0  0
  194.0420  175.9570  138.3010 O   0  0  0  0  0  1  0  0  0  0  0  0
  195.1570  175.7210  136.2620 N   0  0  0  0  0  2  0  0  0  0  0  0
  194.9050  176.7840  135.3020 C   0  0  0  0  0  1  0  0  0  0  0  0
  194.6970  173.1620  136.7470 O   0  0  0  0  0  0  0  0  0  0  0  0
  195.3800  172.4860  137.7650 C   0  0  0  0  0  0  0  0  0  0  0  0
  196.1220  171.5160  137.4690 O   0  0  0  0  0  0  0  0  0  0  0  0
  195.2480  172.8590  139.0970 O   0  0  0  0  0  1  0  0  0  0  0  0
  1 13  1  0  0  0  0
  2 18  1  0  0  0  0
  2 16  1  0  0  0  0
  3 19  1  0  0  0  0
  4  5  1  0  0  0  0
  4 11  1  0  0  0  0
  5  9  1  0  0  0  0
  6  7  1  0  0  0  0
  6 17  1  0  0  0  0
  8 23  1  0  0  0  0
  9  7  1  0  0  0  0
 11  6  2  0  0  0  0
 12 26  1  6  0  0  0
 12 14  1  0  0  0  0
 12 27  1  0  0  0  0
 13 24  1  0  0  0  0
 15 17  2  0  0  0  0
 15 33  1  0  0  0  0
 18 19  1  0  0  0  0
 19  8  1  0  0  0  0
 20 10  1  0  0  0  0
 21 25  1  0  0  0  0
 21 16  2  0  0  0  0
 22 14  1  6  0  0  0
 22  1  1  0  0  0  0
 22 10  1  0  0  0  0
 23 11  1  0  0  0  0
 23 24  2  0  0  0  0
 24 15  1  0  0  0  0
 25 26  1  0  0  0  0
 27 20  1  0  0  0  0
 28 32  1  0  0  0  0
 29 34  1  0  0  0  0
 30 31  2  0  0  0  0
 31 29  1  0  0  0  0
 32 29  2  0  0  0  0
 33 30  1  0  0  0  0
 33 28  2  0  0  0  0
 34 36  1  0  0  0  0
 35 34  2  0  0  0  0
 37 21  1  0  0  0  0
 38 37  1  0  0  0  0
 39 40  1  0  0  0  0
 40 42  1  0  0  0  0
 40 38  1  0  0  0  0
 41 40  1  0  0  0  0
 42 43  2  0  0  0  0
 45 46  1  0  0  0  0
 46 44  1  6  0  0  0
 46 42  1  0  0  0  0
 46 47  1  0  0  0  0
 47 52  1  6  0  0  0
 47 48  1  0  0  0  0
 48 49  1  1  0  0  0
 50 48  1  0  0  0  0
 51 50  1  0  0  0  0
 52 53  1  0  0  0  0
 53 55  1  0  0  0  0
 54 53  2  0  0  0  0
M  END
>  <MODEL>
2

>  <REMARK>
 VINA RESULT:      -7.1      5.580     10.160
  Name = 
  12 active torsions:
  status: ('A' for Active; 'I' for Inactive)
    1  A    between atoms: C_1  and  O_53
    2  A    between atoms: C_6  and  C_14
    3  A    between atoms: C_6  and  C_20
    4  A    between atoms: C_8  and  C_22
    5  A    between atoms: C_8  and  C_43
    6  A    between atoms: C_10  and  C_32
    7  A    between atoms: N_11  and  C_29
    8  A    between atoms: C_14  and  C_38
    9  A    between atoms: C_20  and  C_22
   10  A    between atoms: C_29  and  C_38
   11  A    between atoms: C_33  and  C_52
   12  A    between atoms: C_38  and  O_53
                            x       y       z     vdW  Elec       q    Type
                         _______ _______ _______ _____ _____    ______ ____

>  <TORSDO>
F 12

$$$$
=
 OpenBabel10262420163D

 55 59  0  0  1  0  0  0  0  0999 V2000
  186.9680  179.3560  141.3820 C   0  0  0  0  0  2  0  0  0  0  0  0
  190.0730  175.5080  139.8700 C   0  0  0  0  0  2  0  0  0  0  0  0
  190.2500  175.5510  142.9640 C   0  0  0  0  0  1  0  0  0  0  0  0
  190.3930  177.8030  145.4810 C   0  0  0  0  0  2  0  0  0  0  0  0
  190.6550  177.3120  146.9010 C   0  0  0  0  0  2  0  0  0  0  0  0
  187.9530  177.9110  146.1560 C   0  0  0  0  0  0  0  0  0  0  0  0
  188.3180  177.7780  147.6090 C   0  0  0  0  0  2  0  0  0  0  0  0
  189.5590  177.7840  142.6940 C   0  0  0  0  0  2  0  0  0  0  0  0
  189.7860  178.0980  147.8720 C   0  0  0  0  0  2  0  0  0  0  0  0
  185.0050  179.3200  139.8040 C   0  0  0  0  0  2  0  0  0  0  0  0
  188.9220  177.8280  145.1340 C   0  0  0  0  0  0  0  0  0  0  0  0
  186.7520  178.3030  137.6570 C   0  0  1  0  0  3  0  0  0  0  0  0
  186.7130  177.9950  142.0230 C   0  0  0  0  0  2  0  0  0  0  0  0
  187.1880  178.2730  139.1220 C   0  0  0  0  0  2  0  0  0  0  0  0
  186.1800  178.0760  144.4980 C   0  0  0  0  0  0  0  0  0  0  0  0
  189.2390  176.0550  138.8060 N   0  0  0  0  0  0  0  0  0  0  0  0
  186.6050  178.0140  145.8290 C   0  0  0  0  0  3  0  0  0  0  0  0
  190.4110  176.5910  140.8850 C   0  0  0  0  0  2  0  0  0  0  0  0
  189.5660  176.4690  142.0630 N   0  0  0  0  0  0  0  0  0  0  0  0
  184.5910  179.3820  138.3370 C   0  0  0  0  0  2  0  0  0  0  0  0
  189.6970  176.7300  137.7890 C   0  0  0  0  0  0  0  0  0  0  0  0
  186.5270  179.3950  139.9220 C   0  0  2  0  0  3  0  0  0  0  0  0
  188.5170  177.8740  143.7830 C   0  0  0  0  0  0  0  0  0  0  0  0
  187.1430  177.9970  143.4610 C   0  0  0  0  0  0  0  0  0  0  0  0
  188.7960  177.2430  136.8030 N   0  0  0  0  0  2  0  0  0  0  0  0
  187.3460  177.1200  136.9060 C   0  0  0  0  0  2  0  0  0  0  0  0
  185.2290  178.2330  137.5620 C   0  0  0  0  0  2  0  0  0  0  0  0
  183.8540  178.5410  145.2910 C   0  0  0  0  0  3  0  0  0  0  0  0
  181.9610  178.5050  143.7710 C   0  0  0  0  0  0  0  0  0  0  0  0
  184.1970  178.0370  142.9520 C   0  0  0  0  0  3  0  0  0  0  0  0
  182.8270  178.1830  142.7190 C   0  0  0  0  0  3  0  0  0  0  0  0
  182.4830  178.6870  145.0580 C   0  0  0  0  0  3  0  0  0  0  0  0
  184.7230  178.2020  144.2430 C   0  0  0  0  0  0  0  0  0  0  0  0
  180.5190  178.6530  143.5210 C   0  0  0  0  0  0  0  0  0  0  0  0
  180.0560  179.6310  142.6480 O   0  0  0  0  0  0  0  0  0  0  0  0
  179.6910  177.8970  144.0930 O   0  0  0  0  0  1  0  0  0  0  0  0
  191.1650  176.9720  137.6040 C   0  0  0  0  0  2  0  0  0  0  0  0
  191.7740  175.9960  136.6000 C   0  0  0  0  0  2  0  0  0  0  0  0
  193.1510  175.4680  138.4710 F   0  0  0  0  0  0  0  0  0  0  0  0
  192.7130  174.9800  137.2510 C   0  0  0  0  0  0  0  0  0  0  0  0
  192.0470  173.7850  137.4660 F   0  0  0  0  0  0  0  0  0  0  0  0
  193.8960  174.7450  136.3430 C   0  0  0  0  0  0  0  0  0  0  0  0
  193.9240  175.2950  135.2500 O   0  0  0  0  0  0  0  0  0  0  0  0
  195.4610  173.0430  135.5000 C   0  0  0  0  0  1  0  0  0  0  0  0
  194.6150  172.9130  137.6890 F   0  0  0  0  0  0  0  0  0  0  0  0
  195.0350  173.8230  136.7340 C   0  0  2  0  0  0  0  0  0  0  0  0
  196.2200  174.6560  137.2770 C   0  0  2  0  0  3  0  0  0  0  0  0
  197.3220  175.0660  136.2870 C   0  0  1  0  0  3  0  0  0  0  0  0
  197.2750  176.4330  135.9960 O   0  0  0  0  0  1  0  0  0  0  0  0
  198.6280  174.7170  136.8230 N   0  0  0  0  0  2  0  0  0  0  0  0
  199.1720  173.6620  135.9820 C   0  0  0  0  0  1  0  0  0  0  0  0
  196.7520  174.1580  138.5090 O   0  0  0  0  0  0  0  0  0  0  0  0
  196.8750  174.9020  139.6880 C   0  0  0  0  0  0  0  0  0  0  0  0
  195.8400  175.3510  140.2430 O   0  0  0  0  0  0  0  0  0  0  0  0
  198.1180  175.1640  140.2520 O   0  0  0  0  0  1  0  0  0  0  0  0
  1 13  1  0  0  0  0
  2 18  1  0  0  0  0
  4  5  1  0  0  0  0
  5  9  1  0  0  0  0
  6  7  1  0  0  0  0
  7  9  1  0  0  0  0
  8 23  1  0  0  0  0
 10 22  1  0  0  0  0
 11  4  1  0  0  0  0
 11  6  2  0  0  0  0
 12 26  1  6  0  0  0
 12 14  1  0  0  0  0
 13 24  1  0  0  0  0
 15 17  2  0  0  0  0
 16  2  1  0  0  0  0
 17  6  1  0  0  0  0
 18 19  1  0  0  0  0
 19  8  1  0  0  0  0
 19  3  1  0  0  0  0
 20 10  1  0  0  0  0
 21 16  2  0  0  0  0
 22 14  1  6  0  0  0
 22  1  1  0  0  0  0
 23 11  1  0  0  0  0
 24 23  2  0  0  0  0
 24 15  1  0  0  0  0
 25 26  1  0  0  0  0
 25 21  1  0  0  0  0
 27 12  1  0  0  0  0
 27 20  1  0  0  0  0
 29 32  2  0  0  0  0
 30 33  1  0  0  0  0
 31 30  2  0  0  0  0
 31 29  1  0  0  0  0
 32 28  1  0  0  0  0
 33 15  1  0  0  0  0
 33 28  2  0  0  0  0
 34 29  1  0  0  0  0
 34 36  1  0  0  0  0
 35 34  2  0  0  0  0
 37 21  1  0  0  0  0
 38 40  1  0  0  0  0
 38 37  1  0  0  0  0
 40 41  1  0  0  0  0
 40 39  1  0  0  0  0
 42 46  1  0  0  0  0
 42 40  1  0  0  0  0
 43 42  2  0  0  0  0
 46 44  1  6  0  0  0
 46 47  1  0  0  0  0
 46 45  1  0  0  0  0
 47 52  1  1  0  0  0
 48 49  1  1  0  0  0
 48 50  1  0  0  0  0
 48 47  1  0  0  0  0
 51 50  1  0  0  0  0
 52 53  1  0  0  0  0
 53 54  2  0  0  0  0
 53 55  1  0  0  0  0
M  END
>  <MODEL>
3

>  <REMARK>
 VINA RESULT:      -7.0      5.426     11.232
  Name = 
  12 active torsions:
  status: ('A' for Active; 'I' for Inactive)
    1  A    between atoms: C_1  and  O_53
    2  A    between atoms: C_6  and  C_14
    3  A    between atoms: C_6  and  C_20
    4  A    between atoms: C_8  and  C_22
    5  A    between atoms: C_8  and  C_43
    6  A    between atoms: C_10  and  C_32
    7  A    between atoms: N_11  and  C_29
    8  A    between atoms: C_14  and  C_38
    9  A    between atoms: C_20  and  C_22
   10  A    between atoms: C_29  and  C_38
   11  A    between atoms: C_33  and  C_52
   12  A    between atoms: C_38  and  O_53
                            x       y       z     vdW  Elec       q    Type
                         _______ _______ _______ _____ _____    ______ ____

>  <TORSDO>
F 12

$$$$
=
 OpenBabel10262420163D

 55 59  0  0  1  0  0  0  0  0999 V2000
  187.2060  176.3690  142.6500 C   0  0  0  0  0  2  0  0  0  0  0  0
  187.6020  179.3120  138.4170 C   0  0  0  0  0  2  0  0  0  0  0  0
  184.7860  179.8960  139.5740 C   0  0  0  0  0  1  0  0  0  0  0  0
  182.2240  178.2290  141.0180 C   0  0  0  0  0  2  0  0  0  0  0  0
  180.9130  178.9640  141.2760 C   0  0  0  0  0  2  0  0  0  0  0  0
  182.7250  178.6270  143.4700 C   0  0  0  0  0  0  0  0  0  0  0  0
  181.2930  179.0080  143.7310 C   0  0  0  0  0  2  0  0  0  0  0  0
  185.0640  177.7830  140.5730 C   0  0  0  0  0  2  0  0  0  0  0  0
  180.3550  178.5370  142.6250 C   0  0  0  0  0  2  0  0  0  0  0  0
  189.4950  176.3610  143.7020 C   0  0  0  0  0  2  0  0  0  0  0  0
  183.1960  178.3490  142.1700 C   0  0  0  0  0  0  0  0  0  0  0  0
  190.7190  176.6340  141.0330 C   0  0  1  0  0  3  0  0  0  0  0  0
  186.9240  177.8570  142.8370 C   0  0  0  0  0  2  0  0  0  0  0  0
  189.2330  176.9060  141.2600 C   0  0  0  0  0  2  0  0  0  0  0  0
  184.9730  178.3790  144.3670 C   0  0  0  0  0  0  0  0  0  0  0  0
  188.8520  178.6820  138.8250 N   0  0  0  0  0  0  0  0  0  0  0  0
  183.6140  178.6560  144.5390 C   0  0  0  0  0  3  0  0  0  0  0  0
  186.4190  178.4290  138.7920 C   0  0  0  0  0  2  0  0  0  0  0  0
  185.7790  178.9200  140.0040 N   0  0  0  0  0  0  0  0  0  0  0  0
  190.9700  176.0530  143.4620 C   0  0  0  0  0  2  0  0  0  0  0  0
  189.4580  177.7480  138.1460 C   0  0  0  0  0  0  0  0  0  0  0  0
  188.6900  176.0890  142.4320 C   0  0  2  0  0  3  0  0  0  0  0  0
  184.5660  178.0790  141.9670 C   0  0  0  0  0  0  0  0  0  0  0  0
  185.4600  178.0950  143.0650 C   0  0  0  0  0  0  0  0  0  0  0  0
  190.6740  177.1770  138.6390 N   0  0  0  0  0  2  0  0  0  0  0  0
  191.2570  177.5310  139.9270 C   0  0  0  0  0  2  0  0  0  0  0  0
  191.5050  176.9060  142.3140 C   0  0  0  0  0  2  0  0  0  0  0  0
  186.8720  177.4730  145.7190 C   0  0  0  0  0  3  0  0  0  0  0  0
  187.5530  178.5080  147.8070 C   0  0  0  0  0  0  0  0  0  0  0  0
  185.6970  179.4200  146.5380 C   0  0  0  0  0  3  0  0  0  0  0  0
  186.5400  179.4620  147.6510 C   0  0  0  0  0  3  0  0  0  0  0  0
  187.7160  177.5150  146.8320 C   0  0  0  0  0  3  0  0  0  0  0  0
  185.8460  178.4180  145.5670 C   0  0  0  0  0  0  0  0  0  0  0  0
  188.4360  178.5540  148.9830 C   0  0  0  0  0  0  0  0  0  0  0  0
  187.9140  178.3740  150.2590 O   0  0  0  0  0  1  0  0  0  0  0  0
  189.6710  178.7560  148.8460 O   0  0  0  0  0  0  0  0  0  0  0  0
  188.9240  177.2580  136.8340 C   0  0  0  0  0  2  0  0  0  0  0  0
  188.0210  176.0410  137.0130 C   0  0  0  0  0  2  0  0  0  0  0  0
  189.1350  174.9540  135.2090 F   0  0  0  0  0  0  0  0  0  0  0  0
  188.6510  174.7490  136.4910 C   0  0  0  0  0  0  0  0  0  0  0  0
  189.7040  174.3690  137.3060 F   0  0  0  0  0  0  0  0  0  0  0  0
  187.6060  173.6590  136.4720 C   0  0  0  0  0  0  0  0  0  0  0  0
  187.6890  172.7430  137.2800 O   0  0  0  0  0  0  0  0  0  0  0  0
  186.6200  172.4130  134.5940 C   0  0  0  0  0  1  0  0  0  0  0  0
  186.5540  174.7620  134.6390 F   0  0  0  0  0  0  0  0  0  0  0  0
  186.4740  173.6530  135.4630 C   0  0  2  0  0  0  0  0  0  0  0  0
  185.1140  173.6330  136.2010 C   0  0  2  0  0  3  0  0  0  0  0  0
  184.2070  172.4080  136.0000 C   0  0  1  0  0  3  0  0  0  0  0  0
  183.8210  171.8450  137.2200 O   0  0  0  0  0  1  0  0  0  0  0  0
  183.0310  172.7800  135.2310 N   0  0  0  0  0  2  0  0  0  0  0  0
  181.8890  172.1140  135.8380 C   0  0  0  0  0  1  0  0  0  0  0  0
  184.3940  174.8660  136.1040 O   0  0  0  0  0  0  0  0  0  0  0  0
  183.9810  175.6400  137.1950 C   0  0  0  0  0  0  0  0  0  0  0  0
  183.7420  175.0770  138.2930 O   0  0  0  0  0  1  0  0  0  0  0  0
  183.8210  177.0160  137.0870 O   0  0  0  0  0  0  0  0  0  0  0  0
  1 13  1  0  0  0  0
  2 18  1  0  0  0  0
  2 16  1  0  0  0  0
  3 19  1  0  0  0  0
  4  5  1  0  0  0  0
  4 11  1  0  0  0  0
  5  9  1  0  0  0  0
  6  7  1  0  0  0  0
  6 17  1  0  0  0  0
  8 23  1  0  0  0  0
  9  7  1  0  0  0  0
 11  6  2  0  0  0  0
 12 26  1  6  0  0  0
 12 14  1  0  0  0  0
 12 27  1  0  0  0  0
 13 24  1  0  0  0  0
 15 17  2  0  0  0  0
 15 33  1  0  0  0  0
 18 19  1  0  0  0  0
 19  8  1  0  0  0  0
 20 10  1  0  0  0  0
 21 25  1  0  0  0  0
 21 16  2  0  0  0  0
 22 14  1  6  0  0  0
 22  1  1  0  0  0  0
 22 10  1  0  0  0  0
 23 11  1  0  0  0  0
 23 24  2  0  0  0  0
 24 15  1  0  0  0  0
 25 26  1  0  0  0  0
 27 20  1  0  0  0  0
 28 32  1  0  0  0  0
 29 34  1  0  0  0  0
 30 31  2  0  0  0  0
 31 29  1  0  0  0  0
 32 29  2  0  0  0  0
 33 28  2  0  0  0  0
 33 30  1  0  0  0  0
 34 35  1  0  0  0  0
 36 34  2  0  0  0  0
 37 38  1  0  0  0  0
 37 21  1  0  0  0  0
 39 40  1  0  0  0  0
 40 38  1  0  0  0  0
 40 41  1  0  0  0  0
 42 40  1  0  0  0  0
 42 43  2  0  0  0  0
 45 46  1  0  0  0  0
 46 44  1  6  0  0  0
 46 47  1  0  0  0  0
 46 42  1  0  0  0  0
 47 52  1  6  0  0  0
 48 47  1  0  0  0  0
 48 49  1  1  0  0  0
 50 51  1  0  0  0  0
 50 48  1  0  0  0  0
 52 53  1  0  0  0  0
 53 54  1  0  0  0  0
 55 53  2  0  0  0  0
M  END
>  <MODEL>
4

>  <REMARK>
 VINA RESULT:      -6.4      3.952      7.866
  Name = 
  12 active torsions:
  status: ('A' for Active; 'I' for Inactive)
    1  A    between atoms: C_1  and  O_53
    2  A    between atoms: C_6  and  C_14
    3  A    between atoms: C_6  and  C_20
    4  A    between atoms: C_8  and  C_22
    5  A    between atoms: C_8  and  C_43
    6  A    between atoms: C_10  and  C_32
    7  A    between atoms: N_11  and  C_29
    8  A    between atoms: C_14  and  C_38
    9  A    between atoms: C_20  and  C_22
   10  A    between atoms: C_29  and  C_38
   11  A    between atoms: C_33  and  C_52
   12  A    between atoms: C_38  and  O_53
                            x       y       z     vdW  Elec       q    Type
                         _______ _______ _______ _____ _____    ______ ____

>  <TORSDO>
F 12

$$$$
=
 OpenBabel10262420163D

 55 59  0  0  1  0  0  0  0  0999 V2000
  186.9620  179.3350  141.3000 C   0  0  0  0  0  2  0  0  0  0  0  0
  190.1210  175.4330  140.0620 C   0  0  0  0  0  2  0  0  0  0  0  0
  190.1030  175.5360  143.1610 C   0  0  0  0  0  1  0  0  0  0  0  0
  190.1070  177.8360  145.6370 C   0  0  0  0  0  2  0  0  0  0  0  0
  190.2740  177.3720  147.0800 C   0  0  0  0  0  2  0  0  0  0  0  0
  187.6300  177.9770  146.1550 C   0  0  0  0  0  0  0  0  0  0  0  0
  187.9010  177.8690  147.6300 C   0  0  0  0  0  2  0  0  0  0  0  0
  189.4500  177.7690  142.8040 C   0  0  0  0  0  2  0  0  0  0  0  0
  189.3530  178.1830  147.9790 C   0  0  0  0  0  2  0  0  0  0  0  0
  185.1020  179.2830  139.6030 C   0  0  0  0  0  2  0  0  0  0  0  0
  188.6600  177.8660  145.1980 C   0  0  0  0  0  0  0  0  0  0  0  0
  186.9720  178.2100  137.5910 C   0  0  1  0  0  3  0  0  0  0  0  0
  186.6550  177.9890  141.9510 C   0  0  0  0  0  2  0  0  0  0  0  0
  187.3140  178.2060  139.0800 C   0  0  0  0  0  2  0  0  0  0  0  0
  185.9660  178.1230  144.3850 C   0  0  0  0  0  0  0  0  0  0  0  0
  189.3610  175.9650  138.9380 N   0  0  0  0  0  0  0  0  0  0  0  0
  186.3070  178.0840  145.7400 C   0  0  0  0  0  3  0  0  0  0  0  0
  190.4040  176.5330  141.0760 C   0  0  0  0  0  2  0  0  0  0  0  0
  189.4850  176.4410  142.2010 N   0  0  0  0  0  0  0  0  0  0  0  0
  184.7810  179.3190  138.1120 C   0  0  0  0  0  2  0  0  0  0  0  0
  189.8880  176.6160  137.9390 C   0  0  0  0  0  0  0  0  0  0  0  0
  186.6140  179.3480  139.8150 C   0  0  2  0  0  3  0  0  0  0  0  0
  188.3420  177.8880  143.8230 C   0  0  0  0  0  0  0  0  0  0  0  0
  186.9930  178.0150  143.4130 C   0  0  0  0  0  0  0  0  0  0  0  0
  189.0550  177.1170  136.8880 N   0  0  0  0  0  2  0  0  0  0  0  0
  187.6020  177.0070  136.9020 C   0  0  0  0  0  2  0  0  0  0  0  0
  185.4580  178.1490  137.4000 C   0  0  0  0  0  2  0  0  0  0  0  0
  184.1030  178.0120  142.7210 C   0  0  0  0  0  3  0  0  0  0  0  0
  181.8000  178.4410  143.3590 C   0  0  0  0  0  0  0  0  0  0  0  0
  183.5730  178.5720  145.0110 C   0  0  0  0  0  3  0  0  0  0  0  0
  182.2200  178.6680  144.6760 C   0  0  0  0  0  3  0  0  0  0  0  0
  182.7500  178.1080  142.3840 C   0  0  0  0  0  3  0  0  0  0  0  0
  184.5300  178.2550  144.0350 C   0  0  0  0  0  0  0  0  0  0  0  0
  180.3750  178.5480  143.0100 C   0  0  0  0  0  0  0  0  0  0  0  0
  179.9930  179.0410  141.7680 O   0  0  0  0  0  0  0  0  0  0  0  0
  179.4880  178.1930  143.8310 O   0  0  0  0  0  1  0  0  0  0  0  0
  191.3670  176.8440  137.8420 C   0  0  0  0  0  2  0  0  0  0  0  0
  191.9650  176.1410  136.6260 C   0  0  0  0  0  2  0  0  0  0  0  0
  193.4480  175.3690  138.3240 F   0  0  0  0  0  0  0  0  0  0  0  0
  193.2380  175.3610  136.9550 C   0  0  0  0  0  0  0  0  0  0  0  0
  193.1140  174.0480  136.5340 F   0  0  0  0  0  0  0  0  0  0  0  0
  194.4110  176.0070  136.2570 C   0  0  0  0  0  0  0  0  0  0  0  0
  194.4390  177.2260  136.1480 O   0  0  0  0  0  0  0  0  0  0  0  0
  196.4830  176.1340  134.9360 C   0  0  0  0  0  1  0  0  0  0  0  0
  195.0460  174.2850  134.7350 F   0  0  0  0  0  0  0  0  0  0  0  0
  195.5390  175.1880  135.6620 C   0  0  2  0  0  0  0  0  0  0  0  0
  196.2930  174.4390  136.7870 C   0  0  2  0  0  3  0  0  0  0  0  0
  197.7720  174.7890  137.0160 C   0  0  1  0  0  3  0  0  0  0  0  0
  197.9860  175.3240  138.2910 O   0  0  0  0  0  1  0  0  0  0  0  0
  198.5980  173.6080  136.8290 N   0  0  0  0  0  2  0  0  0  0  0  0
  199.1800  173.6940  135.4990 C   0  0  0  0  0  1  0  0  0  0  0  0
  196.0610  173.0260  136.7870 O   0  0  0  0  0  0  0  0  0  0  0  0
  195.7690  172.2630  137.9240 C   0  0  0  0  0  0  0  0  0  0  0  0
  196.0060  171.0280  137.9140 O   0  0  0  0  0  0  0  0  0  0  0  0
  195.2140  172.8390  139.0600 O   0  0  0  0  0  1  0  0  0  0  0  0
  1 13  1  0  0  0  0
  2 18  1  0  0  0  0
  4  5  1  0  0  0  0
  5  9  1  0  0  0  0
  6  7  1  0  0  0  0
  7  9  1  0  0  0  0
  8 23  1  0  0  0  0
 10 22  1  0  0  0  0
 11  4  1  0  0  0  0
 11  6  2  0  0  0  0
 12 26  1  6  0  0  0
 12 14  1  0  0  0  0
 13 24  1  0  0  0  0
 15 17  2  0  0  0  0
 16  2  1  0  0  0  0
 17  6  1  0  0  0  0
 18 19  1  0  0  0  0
 19  8  1  0  0  0  0
 19  3  1  0  0  0  0
 20 10  1  0  0  0  0
 21 16  2  0  0  0  0
 22 14  1  6  0  0  0
 22  1  1  0  0  0  0
 23 11  1  0  0  0  0
 24 23  2  0  0  0  0
 24 15  1  0  0  0  0
 25 26  1  0  0  0  0
 25 21  1  0  0  0  0
 27 12  1  0  0  0  0
 27 20  1  0  0  0  0
 28 33  1  0  0  0  0
 29 31  2  0  0  0  0
 31 30  1  0  0  0  0
 32 28  2  0  0  0  0
 32 29  1  0  0  0  0
 33 15  1  0  0  0  0
 33 30  2  0  0  0  0
 34 29  1  0  0  0  0
 34 36  1  0  0  0  0
 35 34  2  0  0  0  0
 37 21  1  0  0  0  0
 38 40  1  0  0  0  0
 38 37  1  0  0  0  0
 40 39  1  0  0  0  0
 41 40  1  0  0  0  0
 42 40  1  0  0  0  0
 43 42  2  0  0  0  0
 45 46  1  0  0  0  0
 46 44  1  6  0  0  0
 46 42  1  0  0  0  0
 46 47  1  0  0  0  0
 47 52  1  6  0  0  0
 47 48  1  0  0  0  0
 48 49  1  1  0  0  0
 50 48  1  0  0  0  0
 51 50  1  0  0  0  0
 52 53  1  0  0  0  0
 53 55  1  0  0  0  0
 54 53  2  0  0  0  0
M  END
>  <MODEL>
5

>  <REMARK>
 VINA RESULT:      -6.4      5.542     11.429
  Name = 
  12 active torsions:
  status: ('A' for Active; 'I' for Inactive)
    1  A    between atoms: C_1  and  O_53
    2  A    between atoms: C_6  and  C_14
    3  A    between atoms: C_6  and  C_20
    4  A    between atoms: C_8  and  C_22
    5  A    between atoms: C_8  and  C_43
    6  A    between atoms: C_10  and  C_32
    7  A    between atoms: N_11  and  C_29
    8  A    between atoms: C_14  and  C_38
    9  A    between atoms: C_20  and  C_22
   10  A    between atoms: C_29  and  C_38
   11  A    between atoms: C_33  and  C_52
   12  A    between atoms: C_38  and  O_53
                            x       y       z     vdW  Elec       q    Type
                         _______ _______ _______ _____ _____    ______ ____

>  <TORSDO>
F 12

$$$$
=
 OpenBabel10262420163D

 55 59  0  0  1  0  0  0  0  0999 V2000
  187.2960  176.3790  142.5100 C   0  0  0  0  0  2  0  0  0  0  0  0
  187.6650  179.3760  138.3130 C   0  0  0  0  0  2  0  0  0  0  0  0
  184.8570  179.9470  139.4960 C   0  0  0  0  0  1  0  0  0  0  0  0
  182.3040  178.2620  140.9350 C   0  0  0  0  0  2  0  0  0  0  0  0
  180.9950  178.9940  141.2100 C   0  0  0  0  0  2  0  0  0  0  0  0
  182.8210  178.6280  143.3890 C   0  0  0  0  0  0  0  0  0  0  0  0
  181.3910  179.0060  143.6640 C   0  0  0  0  0  2  0  0  0  0  0  0
  185.1400  177.8200  140.4650 C   0  0  0  0  0  2  0  0  0  0  0  0
  180.4450  178.5500  142.5570 C   0  0  0  0  0  2  0  0  0  0  0  0
  189.5910  176.3570  143.5460 C   0  0  0  0  0  2  0  0  0  0  0  0
  183.2830  178.3660  142.0820 C   0  0  0  0  0  0  0  0  0  0  0  0
  190.7980  176.6640  140.8730 C   0  0  1  0  0  3  0  0  0  0  0  0
  187.0150  177.8650  142.7170 C   0  0  0  0  0  2  0  0  0  0  0  0
  189.3140  176.9340  141.1130 C   0  0  0  0  0  2  0  0  0  0  0  0
  185.0750  178.3680  144.2670 C   0  0  0  0  0  0  0  0  0  0  0  0
  188.9170  178.7410  138.7040 N   0  0  0  0  0  0  0  0  0  0  0  0
  183.7170  178.6440  144.4520 C   0  0  0  0  0  3  0  0  0  0  0  0
  186.4840  178.4890  138.6840 C   0  0  0  0  0  2  0  0  0  0  0  0
  185.8520  178.9650  139.9060 N   0  0  0  0  0  0  0  0  0  0  0  0
  191.0640  176.0510  143.2930 C   0  0  0  0  0  2  0  0  0  0  0  0
  189.5180  177.8150  138.0090 C   0  0  0  0  0  0  0  0  0  0  0  0
  188.7780  176.1020  142.2780 C   0  0  2  0  0  3  0  0  0  0  0  0
  184.6520  178.0990  141.8660 C   0  0  0  0  0  0  0  0  0  0  0  0
  185.5530  178.1010  142.9590 C   0  0  0  0  0  0  0  0  0  0  0  0
  190.7370  177.2370  138.4870 N   0  0  0  0  0  2  0  0  0  0  0  0
  191.3290  177.5750  139.7760 C   0  0  0  0  0  2  0  0  0  0  0  0
  191.5920  176.9190  142.1530 C   0  0  0  0  0  2  0  0  0  0  0  0
  185.6730  179.2650  146.5220 C   0  0  0  0  0  3  0  0  0  0  0  0
  187.5770  178.4130  147.7670 C   0  0  0  0  0  0  0  0  0  0  0  0
  187.0450  177.5150  145.5760 C   0  0  0  0  0  3  0  0  0  0  0  0
  187.8520  177.5280  146.7170 C   0  0  0  0  0  3  0  0  0  0  0  0
  186.4800  179.2790  147.6640 C   0  0  0  0  0  3  0  0  0  0  0  0
  185.9550  178.3910  145.4610 C   0  0  0  0  0  0  0  0  0  0  0  0
  188.4310  178.4270  148.9640 C   0  0  0  0  0  0  0  0  0  0  0  0
  189.8020  178.6290  148.8450 O   0  0  0  0  0  0  0  0  0  0  0  0
  187.9310  178.2560  150.1070 O   0  0  0  0  0  1  0  0  0  0  0  0
  188.9760  177.3430  136.6940 C   0  0  0  0  0  2  0  0  0  0  0  0
  188.2560  176.0040  136.8320 C   0  0  0  0  0  2  0  0  0  0  0  0
  186.6800  177.1230  135.4380 F   0  0  0  0  0  0  0  0  0  0  0  0
  187.0620  175.8690  135.8870 C   0  0  0  0  0  0  0  0  0  0  0  0
  187.4060  175.0940  134.7920 F   0  0  0  0  0  0  0  0  0  0  0  0
  185.9150  175.2220  136.6250 C   0  0  0  0  0  0  0  0  0  0  0  0
  186.1590  174.3910  137.4900 O   0  0  0  0  0  0  0  0  0  0  0  0
  184.3240  175.6250  134.7920 C   0  0  0  0  0  1  0  0  0  0  0  0
  184.1260  176.7850  136.8270 F   0  0  0  0  0  0  0  0  0  0  0  0
  184.4700  175.5500  136.3040 C   0  0  2  0  0  0  0  0  0  0  0  0
  183.5430  174.4510  136.8780 C   0  0  2  0  0  3  0  0  0  0  0  0
  183.6210  173.0490  136.2540 C   0  0  1  0  0  3  0  0  0  0  0  0
  183.8660  172.0660  137.2180 O   0  0  0  0  0  1  0  0  0  0  0  0
  182.3890  172.7500  135.5430 N   0  0  0  0  0  2  0  0  0  0  0  0
  182.5780  171.4770  134.8660 C   0  0  0  0  0  1  0  0  0  0  0  0
  182.1930  174.8870  137.0710 O   0  0  0  0  0  0  0  0  0  0  0  0
  181.7020  175.4750  138.2430 C   0  0  0  0  0  0  0  0  0  0  0  0
  180.6870  176.2150  138.1810 O   0  0  0  0  0  0  0  0  0  0  0  0
  182.3170  175.2660  139.4710 O   0  0  0  0  0  1  0  0  0  0  0  0
  1 13  1  0  0  0  0
  2 18  1  0  0  0  0
  2 16  1  0  0  0  0
  3 19  1  0  0  0  0
  4  5  1  0  0  0  0
  4 11  1  0  0  0  0
  5  9  1  0  0  0  0
  6  7  1  0  0  0  0
  6 17  1  0  0  0  0
  8 23  1  0  0  0  0
  9  7  1  0  0  0  0
 11  6  2  0  0  0  0
 12 26  1  6  0  0  0
 12 14  1  0  0  0  0
 12 27  1  0  0  0  0
 13 24  1  0  0  0  0
 15 17  2  0  0  0  0
 15 33  1  0  0  0  0
 18 19  1  0  0  0  0
 19  8  1  0  0  0  0
 20 10  1  0  0  0  0
 21 25  1  0  0  0  0
 21 16  2  0  0  0  0
 22 14  1  6  0  0  0
 22  1  1  0  0  0  0
 22 10  1  0  0  0  0
 23 11  1  0  0  0  0
 23 24  2  0  0  0  0
 24 15  1  0  0  0  0
 25 26  1  0  0  0  0
 27 20  1  0  0  0  0
 28 32  1  0  0  0  0
 29 34  1  0  0  0  0
 30 31  2  0  0  0  0
 31 29  1  0  0  0  0
 32 29  2  0  0  0  0
 33 30  1  0  0  0  0
 33 28  2  0  0  0  0
 34 36  1  0  0  0  0
 35 34  2  0  0  0  0
 37 38  1  0  0  0  0
 37 21  1  0  0  0  0
 39 40  1  0  0  0  0
 40 42  1  0  0  0  0
 40 38  1  0  0  0  0
 41 40  1  0  0  0  0
 42 43  2  0  0  0  0
 46 44  1  6  0  0  0
 46 42  1  0  0  0  0
 46 45  1  0  0  0  0
 46 47  1  0  0  0  0
 47 52  1  6  0  0  0
 48 47  1  0  0  0  0
 48 49  1  1  0  0  0
 50 48  1  0  0  0  0
 51 50  1  0  0  0  0
 52 53  1  0  0  0  0
 53 55  1  0  0  0  0
 54 53  2  0  0  0  0
M  END
>  <MODEL>
6

>  <REMARK>
 VINA RESULT:      -6.2      3.721      7.365
  Name = 
  12 active torsions:
  status: ('A' for Active; 'I' for Inactive)
    1  A    between atoms: C_1  and  O_53
    2  A    between atoms: C_6  and  C_14
    3  A    between atoms: C_6  and  C_20
    4  A    between atoms: C_8  and  C_22
    5  A    between atoms: C_8  and  C_43
    6  A    between atoms: C_10  and  C_32
    7  A    between atoms: N_11  and  C_29
    8  A    between atoms: C_14  and  C_38
    9  A    between atoms: C_20  and  C_22
   10  A    between atoms: C_29  and  C_38
   11  A    between atoms: C_33  and  C_52
   12  A    between atoms: C_38  and  O_53
                            x       y       z     vdW  Elec       q    Type
                         _______ _______ _______ _____ _____    ______ ____

>  <TORSDO>
F 12

$$$$
=
 OpenBabel10262420163D

 55 59  0  0  1  0  0  0  0  0999 V2000
  187.3420  179.1040  140.9970 C   0  0  0  0  0  2  0  0  0  0  0  0
  184.6050  176.1080  137.7940 C   0  0  0  0  0  2  0  0  0  0  0  0
  187.5780  175.4840  137.1760 C   0  0  0  0  0  1  0  0  0  0  0  0
  190.5210  177.1200  136.8860 C   0  0  0  0  0  2  0  0  0  0  0  0
  191.7430  176.3630  136.3770 C   0  0  0  0  0  2  0  0  0  0  0  0
  191.4870  176.7690  139.2020 C   0  0  0  0  0  0  0  0  0  0  0  0
  192.8130  176.3630  138.6200 C   0  0  0  0  0  2  0  0  0  0  0  0
  187.9290  177.6170  138.1070 C   0  0  0  0  0  2  0  0  0  0  0  0
  192.9680  176.7980  137.1670 C   0  0  0  0  0  2  0  0  0  0  0  0
  186.0450  179.1740  143.1550 C   0  0  0  0  0  2  0  0  0  0  0  0
  190.3670  177.0370  138.3870 C   0  0  0  0  0  0  0  0  0  0  0  0
  183.5270  178.8870  141.6470 C   0  0  1  0  0  3  0  0  0  0  0  0
  187.6690  177.6140  141.0270 C   0  0  0  0  0  2  0  0  0  0  0  0
  184.8800  178.5870  141.0040 C   0  0  0  0  0  2  0  0  0  0  0  0
  190.1370  177.0750  141.2040 C   0  0  0  0  0  0  0  0  0  0  0  0
  183.8070  176.7690  138.8200 N   0  0  0  0  0  0  0  0  0  0  0  0
  191.3550  176.7730  140.5870 C   0  0  0  0  0  3  0  0  0  0  0  0
  185.8000  176.9720  137.4160 C   0  0  0  0  0  2  0  0  0  0  0  0
  187.0080  176.4860  138.0680 N   0  0  0  0  0  0  0  0  0  0  0  0
  184.6940  179.5080  143.7800 C   0  0  0  0  0  2  0  0  0  0  0  0
  182.9320  177.7050  138.5790 C   0  0  0  0  0  0  0  0  0  0  0  0
  185.9960  179.4110  141.6460 C   0  0  2  0  0  3  0  0  0  0  0  0
  189.1230  177.3310  138.9850 C   0  0  0  0  0  0  0  0  0  0  0  0
  189.0040  177.3500  140.3960 C   0  0  0  0  0  0  0  0  0  0  0  0
  182.2100  178.3080  139.6580 N   0  0  0  0  0  2  0  0  0  0  0  0
  182.4520  177.9840  141.0590 C   0  0  0  0  0  2  0  0  0  0  0  0
  183.5980  178.6500  143.1540 C   0  0  0  0  0  2  0  0  0  0  0  0
  190.5290  175.9430  143.3980 C   0  0  0  0  0  3  0  0  0  0  0  0
  190.0750  177.0610  145.5050 C   0  0  0  0  0  0  0  0  0  0  0  0
  189.6680  178.2010  143.4020 C   0  0  0  0  0  3  0  0  0  0  0  0
  189.6550  178.1950  144.7990 C   0  0  0  0  0  3  0  0  0  0  0  0
  190.5160  175.9360  144.7960 C   0  0  0  0  0  3  0  0  0  0  0  0
  190.0930  177.0710  142.6870 C   0  0  0  0  0  0  0  0  0  0  0  0
  190.0560  177.0580  146.9760 C   0  0  0  0  0  0  0  0  0  0  0  0
  188.8470  177.1010  147.6610 O   0  0  0  0  0  1  0  0  0  0  0  0
  191.1320  177.0150  147.6290 O   0  0  0  0  0  0  0  0  0  0  0  0
  182.6370  178.1640  137.1830 C   0  0  0  0  0  2  0  0  0  0  0  0
  181.1590  178.5000  137.0020 C   0  0  0  0  0  2  0  0  0  0  0  0
  180.5980  176.5270  138.2150 F   0  0  0  0  0  0  0  0  0  0  0  0
  180.2520  177.2730  137.1000 C   0  0  0  0  0  0  0  0  0  0  0  0
  178.9310  177.6660  137.2230 F   0  0  0  0  0  0  0  0  0  0  0  0
  180.4170  176.4330  135.8550 C   0  0  0  0  0  0  0  0  0  0  0  0
  180.4740  176.9900  134.7670 O   0  0  0  0  0  0  0  0  0  0  0  0
  179.9690  174.3700  134.5940 C   0  0  0  0  0  1  0  0  0  0  0  0
  179.6710  174.4370  136.9240 F   0  0  0  0  0  0  0  0  0  0  0  0
  180.4860  174.9200  135.9140 C   0  0  2  0  0  0  0  0  0  0  0  0
  181.9480  174.4700  136.1460 C   0  0  2  0  0  3  0  0  0  0  0  0
  182.7940  174.1150  134.9130 C   0  0  1  0  0  3  0  0  0  0  0  0
  183.7220  175.1170  134.6160 O   0  0  0  0  0  1  0  0  0  0  0  0
  183.4800  172.8510  135.1270 N   0  0  0  0  0  2  0  0  0  0  0  0
  184.8280  172.9960  134.6010 C   0  0  0  0  0  1  0  0  0  0  0  0
  182.0890  173.5100  137.1990 O   0  0  0  0  0  0  0  0  0  0  0  0
  181.1370  172.5400  137.5310 C   0  0  0  0  0  0  0  0  0  0  0  0
  180.9100  171.6000  136.7270 O   0  0  0  0  0  0  0  0  0  0  0  0
  180.4300  172.5970  138.7260 O   0  0  0  0  0  1  0  0  0  0  0  0
  1 13  1  0  0  0  0
  2 16  1  0  0  0  0
  3 19  1  0  0  0  0
  4 11  1  0  0  0  0
  5  4  1  0  0  0  0
  5  9  1  0  0  0  0
  6 17  1  0  0  0  0
  7  6  1  0  0  0  0
  8 23  1  0  0  0  0
  9  7  1  0  0  0  0
 10 20  1  0  0  0  0
 11 23  1  0  0  0  0
 11  6  2  0  0  0  0
 12 14  1  6  0  0  0
 12 27  1  0  0  0  0
 14 22  1  0  0  0  0
 15 33  1  0  0  0  0
 17 15  2  0  0  0  0
 18  2  1  0  0  0  0
 18 19  1  0  0  0  0
 19  8  1  0  0  0  0
 21 16  2  0  0  0  0
 21 25  1  0  0  0  0
 22  1  1  6  0  0  0
 22 10  1  0  0  0  0
 23 24  2  0  0  0  0
 24 13  1  0  0  0  0
 24 15  1  0  0  0  0
 25 26  1  0  0  0  0
 26 12  1  0  0  0  0
 27 20  1  0  0  0  0
 28 32  1  0  0  0  0
 29 34  1  0  0  0  0
 30 31  2  0  0  0  0
 31 29  1  0  0  0  0
 32 29  2  0  0  0  0
 33 28  2  0  0  0  0
 33 30  1  0  0  0  0
 34 36  2  0  0  0  0
 34 35  1  0  0  0  0
 37 21  1  0  0  0  0
 38 40  1  0  0  0  0
 38 37  1  0  0  0  0
 40 41  1  0  0  0  0
 40 39  1  0  0  0  0
 42 46  1  0  0  0  0
 42 40  1  0  0  0  0
 43 42  2  0  0  0  0
 46 44  1  6  0  0  0
 46 47  1  0  0  0  0
 46 45  1  0  0  0  0
 47 52  1  1  0  0  0
 48 49  1  1  0  0  0
 48 50  1  0  0  0  0
 48 47  1  0  0  0  0
 51 50  1  0  0  0  0
 52 53  1  0  0  0  0
 53 55  1  0  0  0  0
 54 53  2  0  0  0  0
M  END
>  <MODEL>
7

>  <REMARK>
 VINA RESULT:      -6.0      2.887      4.685
  Name = 
  12 active torsions:
  status: ('A' for Active; 'I' for Inactive)
    1  A    between atoms: C_1  and  O_53
    2  A    between atoms: C_6  and  C_14
    3  A    between atoms: C_6  and  C_20
    4  A    between atoms: C_8  and  C_22
    5  A    between atoms: C_8  and  C_43
    6  A    between atoms: C_10  and  C_32
    7  A    between atoms: N_11  and  C_29
    8  A    between atoms: C_14  and  C_38
    9  A    between atoms: C_20  and  C_22
   10  A    between atoms: C_29  and  C_38
   11  A    between atoms: C_33  and  C_52
   12  A    between atoms: C_38  and  O_53
                            x       y       z     vdW  Elec       q    Type
                         _______ _______ _______ _____ _____    ______ ____

>  <TORSDO>
F 12

$$$$
=
 OpenBabel10262420163D

 55 59  0  0  1  0  0  0  0  0999 V2000
  187.3590  176.3710  142.5920 C   0  0  0  0  0  2  0  0  0  0  0  0
  187.7880  179.2760  138.3380 C   0  0  0  0  0  2  0  0  0  0  0  0
  184.9600  179.8640  139.4620 C   0  0  0  0  0  1  0  0  0  0  0  0
  182.3880  178.2030  140.8960 C   0  0  0  0  0  2  0  0  0  0  0  0
  181.0730  178.9360  141.1350 C   0  0  0  0  0  2  0  0  0  0  0  0
  182.8640  178.6230  143.3500 C   0  0  0  0  0  0  0  0  0  0  0  0
  181.4300  179.0030  143.5940 C   0  0  0  0  0  2  0  0  0  0  0  0
  185.2330  177.7600  140.4820 C   0  0  0  0  0  2  0  0  0  0  0  0
  180.5030  178.5200  142.4820 C   0  0  0  0  0  2  0  0  0  0  0  0
  189.6380  176.3780  143.6660 C   0  0  0  0  0  2  0  0  0  0  0  0
  183.3490  178.3350  142.0570 C   0  0  0  0  0  0  0  0  0  0  0  0
  190.8870  176.6300  141.0070 C   0  0  1  0  0  3  0  0  0  0  0  0
  187.0710  177.8600  142.7630 C   0  0  0  0  0  2  0  0  0  0  0  0
  189.3980  176.9010  141.2170 C   0  0  0  0  0  2  0  0  0  0  0  0
  185.1050  178.3900  144.2700 C   0  0  0  0  0  0  0  0  0  0  0  0
  189.0350  178.6540  138.7630 N   0  0  0  0  0  0  0  0  0  0  0  0
  183.7430  178.6650  144.4270 C   0  0  0  0  0  3  0  0  0  0  0  0
  186.6040  178.3940  138.7090 C   0  0  0  0  0  2  0  0  0  0  0  0
  185.9510  178.8940  139.9100 N   0  0  0  0  0  0  0  0  0  0  0  0
  191.1160  176.0720  143.4430 C   0  0  0  0  0  2  0  0  0  0  0  0
  189.6500  177.7150  138.0980 C   0  0  0  0  0  0  0  0  0  0  0  0
  188.8460  176.0930  142.3910 C   0  0  2  0  0  3  0  0  0  0  0  0
  184.7210  178.0680  141.8690 C   0  0  0  0  0  0  0  0  0  0  0  0
  185.6040  178.0960  142.9760 C   0  0  0  0  0  0  0  0  0  0  0  0
  190.8630  177.1520  138.6080 N   0  0  0  0  0  2  0  0  0  0  0  0
  191.4330  177.5200  139.8980 C   0  0  0  0  0  2  0  0  0  0  0  0
  191.6600  176.9160  142.2930 C   0  0  0  0  0  2  0  0  0  0  0  0
  185.6860  179.3640  146.4980 C   0  0  0  0  0  3  0  0  0  0  0  0
  187.5490  178.5220  147.8080 C   0  0  0  0  0  0  0  0  0  0  0  0
  187.0340  177.5470  145.6460 C   0  0  0  0  0  3  0  0  0  0  0  0
  187.8210  177.5890  146.7990 C   0  0  0  0  0  3  0  0  0  0  0  0
  186.4740  179.4060  147.6520 C   0  0  0  0  0  3  0  0  0  0  0  0
  185.9660  178.4420  145.4780 C   0  0  0  0  0  0  0  0  0  0  0  0
  188.3840  178.5650  149.0180 C   0  0  0  0  0  0  0  0  0  0  0  0
  189.7680  178.6290  148.9130 O   0  0  0  0  0  0  0  0  0  0  0  0
  187.8530  178.5450  150.1610 O   0  0  0  0  0  1  0  0  0  0  0  0
  189.1310  177.2120  136.7850 C   0  0  0  0  0  2  0  0  0  0  0  0
  188.4330  175.8630  136.9370 C   0  0  0  0  0  2  0  0  0  0  0  0
  188.0170  176.2950  134.6310 F   0  0  0  0  0  0  0  0  0  0  0  0
  187.8550  175.3400  135.6210 C   0  0  0  0  0  0  0  0  0  0  0  0
  188.5160  174.1860  135.2360 F   0  0  0  0  0  0  0  0  0  0  0  0
  186.3860  175.0440  135.8070 C   0  0  0  0  0  0  0  0  0  0  0  0
  185.5940  175.9760  135.8630 O   0  0  0  0  0  0  0  0  0  0  0  0
  186.3400  173.0870  137.2970 C   0  0  0  0  0  1  0  0  0  0  0  0
  186.3880  172.8140  134.9630 F   0  0  0  0  0  0  0  0  0  0  0  0
  185.8670  173.6270  135.9560 C   0  0  2  0  0  0  0  0  0  0  0  0
  184.3220  173.6250  135.8920 C   0  0  2  0  0  3  0  0  0  0  0  0
  183.5490  173.5650  137.2190 C   0  0  1  0  0  3  0  0  0  0  0  0
  183.7180  174.7330  137.9700 O   0  0  0  0  0  1  0  0  0  0  0  0
  182.1350  173.3410  136.9620 N   0  0  0  0  0  2  0  0  0  0  0  0
  181.4970  174.6460  136.8890 C   0  0  0  0  0  1  0  0  0  0  0  0
  183.7920  172.7260  134.9120 O   0  0  0  0  0  0  0  0  0  0  0  0
  183.5300  171.3680  135.1290 C   0  0  0  0  0  0  0  0  0  0  0  0
  184.4090  170.6520  135.6730 O   0  0  0  0  0  1  0  0  0  0  0  0
  182.3240  170.7930  134.7480 O   0  0  0  0  0  0  0  0  0  0  0  0
  1 13  1  0  0  0  0
  2 18  1  0  0  0  0
  2 16  1  0  0  0  0
  3 19  1  0  0  0  0
  4  5  1  0  0  0  0
  4 11  1  0  0  0  0
  5  9  1  0  0  0  0
  6  7  1  0  0  0  0
  6 17  1  0  0  0  0
  8 23  1  0  0  0  0
  9  7  1  0  0  0  0
 11  6  2  0  0  0  0
 12 26  1  6  0  0  0
 12 14  1  0  0  0  0
 12 27  1  0  0  0  0
 13 24  1  0  0  0  0
 15 17  2  0  0  0  0
 15 33  1  0  0  0  0
 18 19  1  0  0  0  0
 19  8  1  0  0  0  0
 20 10  1  0  0  0  0
 21 25  1  0  0  0  0
 21 16  2  0  0  0  0
 22 14  1  6  0  0  0
 22  1  1  0  0  0  0
 22 10  1  0  0  0  0
 23 11  1  0  0  0  0
 23 24  2  0  0  0  0
 24 15  1  0  0  0  0
 25 26  1  0  0  0  0
 27 20  1  0  0  0  0
 28 32  1  0  0  0  0
 29 34  1  0  0  0  0
 30 31  2  0  0  0  0
 31 29  1  0  0  0  0
 32 29  2  0  0  0  0
 33 30  1  0  0  0  0
 33 28  2  0  0  0  0
 34 36  1  0  0  0  0
 35 34  2  0  0  0  0
 37 38  1  0  0  0  0
 37 21  1  0  0  0  0
 39 40  1  0  0  0  0
 40 42  1  0  0  0  0
 40 38  1  0  0  0  0
 41 40  1  0  0  0  0
 42 43  2  0  0  0  0
 42 46  1  0  0  0  0
 45 46  1  0  0  0  0
 46 44  1  1  0  0  0
 47 52  1  6  0  0  0
 47 46  1  0  0  0  0
 47 48  1  0  0  0  0
 48 49  1  6  0  0  0
 50 48  1  0  0  0  0
 51 50  1  0  0  0  0
 52 53  1  0  0  0  0
 53 54  1  0  0  0  0
 55 53  2  0  0  0  0
M  END
>  <MODEL>
8

>  <REMARK>
 VINA RESULT:      -5.8      4.326      7.913
  Name = 
  12 active torsions:
  status: ('A' for Active; 'I' for Inactive)
    1  A    between atoms: C_1  and  O_53
    2  A    between atoms: C_6  and  C_14
    3  A    between atoms: C_6  and  C_20
    4  A    between atoms: C_8  and  C_22
    5  A    between atoms: C_8  and  C_43
    6  A    between atoms: C_10  and  C_32
    7  A    between atoms: N_11  and  C_29
    8  A    between atoms: C_14  and  C_38
    9  A    between atoms: C_20  and  C_22
   10  A    between atoms: C_29  and  C_38
   11  A    between atoms: C_33  and  C_52
   12  A    between atoms: C_38  and  O_53
                            x       y       z     vdW  Elec       q    Type
                         _______ _______ _______ _____ _____    ______ ____

>  <TORSDO>
F 12

$$$$
=
 OpenBabel10262420163D

 55 59  0  0  1  0  0  0  0  0999 V2000
  184.5560  178.5320  138.7100 C   0  0  0  0  0  2  0  0  0  0  0  0
  187.4360  177.3090  142.8260 C   0  0  0  0  0  2  0  0  0  0  0  0
  184.5580  177.6940  143.9120 C   0  0  0  0  0  1  0  0  0  0  0  0
  181.9100  179.7440  143.4500 C   0  0  0  0  0  2  0  0  0  0  0  0
  180.7130  179.6310  144.3880 C   0  0  0  0  0  2  0  0  0  0  0  0
  180.5340  178.3780  141.8170 C   0  0  0  0  0  0  0  0  0  0  0  0
  179.2880  178.6120  142.6250 C   0  0  0  0  0  2  0  0  0  0  0  0
  184.2990  178.9980  141.9690 C   0  0  0  0  0  2  0  0  0  0  0  0
  179.4300  179.7880  143.5870 C   0  0  0  0  0  2  0  0  0  0  0  0
  185.4710  177.1710  136.7980 C   0  0  0  0  0  2  0  0  0  0  0  0
  181.7990  178.8300  142.2510 C   0  0  0  0  0  0  0  0  0  0  0  0
  188.1580  177.2820  138.0090 C   0  0  1  0  0  3  0  0  0  0  0  0
  184.0630  177.3580  139.5510 C   0  0  0  0  0  2  0  0  0  0  0  0
  186.9070  177.6420  138.8090 C   0  0  0  0  0  2  0  0  0  0  0  0
  181.5540  177.2860  139.8970 C   0  0  0  0  0  0  0  0  0  0  0  0
  188.1190  177.1420  141.5500 N   0  0  0  0  0  0  0  0  0  0  0  0
  180.4310  177.6030  140.6670 C   0  0  0  0  0  3  0  0  0  0  0  0
  186.4270  178.4460  142.7400 C   0  0  0  0  0  2  0  0  0  0  0  0
  185.0800  177.9220  142.5700 N   0  0  0  0  0  0  0  0  0  0  0  0
  186.7270  176.8500  135.9930 C   0  0  0  0  0  2  0  0  0  0  0  0
  189.1230  177.8730  141.1530 C   0  0  0  0  0  0  0  0  0  0  0  0
  185.8000  178.1760  137.9010 C   0  0  2  0  0  3  0  0  0  0  0  0
  182.9500  178.5110  141.4990 C   0  0  0  0  0  0  0  0  0  0  0  0
  182.8310  177.7360  140.3200 C   0  0  0  0  0  0  0  0  0  0  0  0
  189.7170  177.6440  139.8710 N   0  0  0  0  0  2  0  0  0  0  0  0
  189.2080  176.6620  138.9210 C   0  0  0  0  0  2  0  0  0  0  0  0
  187.8080  176.2820  136.9090 C   0  0  0  0  0  2  0  0  0  0  0  0
  181.2630  175.0700  138.7750 C   0  0  0  0  0  3  0  0  0  0  0  0
  180.8960  174.8940  136.3810 C   0  0  0  0  0  0  0  0  0  0  0  0
  181.1840  177.0690  137.4190 C   0  0  0  0  0  3  0  0  0  0  0  0
  180.9640  176.2900  136.2810 C   0  0  0  0  0  3  0  0  0  0  0  0
  181.0430  174.2890  137.6370 C   0  0  0  0  0  3  0  0  0  0  0  0
  181.3480  176.4670  138.6760 C   0  0  0  0  0  0  0  0  0  0  0  0
  180.6690  174.0780  135.1790 C   0  0  0  0  0  0  0  0  0  0  0  0
  179.4090  174.0280  134.5940 O   0  0  0  0  0  0  0  0  0  0  0  0
  181.6120  173.4170  134.6690 O   0  0  0  0  0  1  0  0  0  0  0  0
  189.6980  178.9530  142.0190 C   0  0  0  0  0  2  0  0  0  0  0  0
  191.0240  178.5250  142.6440 C   0  0  0  0  0  2  0  0  0  0  0  0
  192.4700  178.7210  144.5280 F   0  0  0  0  0  0  0  0  0  0  0  0
  191.1940  179.0240  144.0790 C   0  0  0  0  0  0  0  0  0  0  0  0
  191.0220  180.3970  144.1300 F   0  0  0  0  0  0  0  0  0  0  0  0
  190.1710  178.3520  144.9640 C   0  0  0  0  0  0  0  0  0  0  0  0
  189.3280  179.0400  145.5240 O   0  0  0  0  0  0  0  0  0  0  0  0
  191.3840  176.2660  144.4860 C   0  0  0  0  0  1  0  0  0  0  0  0
  189.0410  176.2750  144.6630 F   0  0  0  0  0  0  0  0  0  0  0  0
  190.1780  176.8550  145.2000 C   0  0  2  0  0  0  0  0  0  0  0  0
  190.2590  176.5640  146.7170 C   0  0  2  0  0  3  0  0  0  0  0  0
  188.9830  176.7540  147.5540 C   0  0  1  0  0  3  0  0  0  0  0  0
  189.0270  177.9340  148.3030 O   0  0  0  0  0  1  0  0  0  0  0  0
  187.8160  176.7600  146.6870 N   0  0  0  0  0  2  0  0  0  0  0  0
  186.9820  177.8800  147.0930 C   0  0  0  0  0  1  0  0  0  0  0  0
  191.4130  177.1310  147.3470 O   0  0  0  0  0  0  0  0  0  0  0  0
  192.4370  176.3950  147.9530 C   0  0  0  0  0  0  0  0  0  0  0  0
  192.7110  175.2470  147.5180 O   0  0  0  0  0  0  0  0  0  0  0  0
  193.1530  176.9020  149.0310 O   0  0  0  0  0  1  0  0  0  0  0  0
  1 13  1  0  0  0  0
  4  5  1  0  0  0  0
  6 11  1  0  0  0  0
  6  7  1  0  0  0  0
  7  9  1  0  0  0  0
  8 19  1  0  0  0  0
  9  5  1  0  0  0  0
 11  4  1  0  0  0  0
 12 27  1  6  0  0  0
 12 14  1  0  0  0  0
 12 26  1  0  0  0  0
 13 24  1  0  0  0  0
 15 24  2  0  0  0  0
 15 17  1  0  0  0  0
 16  2  1  0  0  0  0
 17  6  2  0  0  0  0
 18  2  1  0  0  0  0
 19 18  1  0  0  0  0
 19  3  1  0  0  0  0
 20 10  1  0  0  0  0
 20 27  1  0  0  0  0
 21 16  2  0  0  0  0
 21 37  1  0  0  0  0
 22 10  1  6  0  0  0
 22  1  1  0  0  0  0
 22 14  1  0  0  0  0
 23  8  1  0  0  0  0
 23 11  2  0  0  0  0
 24 23  1  0  0  0  0
 25 21  1  0  0  0  0
 26 25  1  0  0  0  0
 29 32  1  0  0  0  0
 30 33  2  0  0  0  0
 31 29  2  0  0  0  0
 31 30  1  0  0  0  0
 32 28  2  0  0  0  0
 33 28  1  0  0  0  0
 33 15  1  0  0  0  0
 34 29  1  0  0  0  0
 35 34  2  0  0  0  0
 36 34  1  0  0  0  0
 37 38  1  0  0  0  0
 38 40  1  0  0  0  0
 40 41  1  0  0  0  0
 40 39  1  0  0  0  0
 40 42  1  0  0  0  0
 42 46  1  0  0  0  0
 42 43  2  0  0  0  0
 45 46  1  0  0  0  0
 46 44  1  6  0  0  0
 46 47  1  0  0  0  0
 47 52  1  1  0  0  0
 47 48  1  0  0  0  0
 48 49  1  6  0  0  0
 50 51  1  0  0  0  0
 50 48  1  0  0  0  0
 52 53  1  0  0  0  0
 53 55  1  0  0  0  0
 54 53  2  0  0  0  0
M  END
>  <MODEL>
9

>  <REMARK>
 VINA RESULT:      -5.6      5.068     11.616
  Name = 
  12 active torsions:
  status: ('A' for Active; 'I' for Inactive)
    1  A    between atoms: C_1  and  O_53
    2  A    between atoms: C_6  and  C_14
    3  A    between atoms: C_6  and  C_20
    4  A    between atoms: C_8  and  C_22
    5  A    between atoms: C_8  and  C_43
    6  A    between atoms: C_10  and  C_32
    7  A    between atoms: N_11  and  C_29
    8  A    between atoms: C_14  and  C_38
    9  A    between atoms: C_20  and  C_22
   10  A    between atoms: C_29  and  C_38
   11  A    between atoms: C_33  and  C_52
   12  A    between atoms: C_38  and  O_53
                            x       y       z     vdW  Elec       q    Type
                         _______ _______ _______ _____ _____    ______ ____

>  <TORSDO>
F 12

$$$$
