=
 OpenBabel10262421413D

 32 33  0  0  1  0  0  0  0  0999 V2000
  188.4630  177.2490  142.4460 C   0  0  2  0  0  3  0  0  0  0  0  0
  189.7370  177.3310  143.3100 C   0  0  1  0  0  3  0  0  0  0  0  0
  190.7530  178.1330  142.7430 O   0  0  0  0  0  0  0  0  0  0  0  0
  191.7950  177.3050  142.2980 C   0  0  0  0  0  1  0  0  0  0  0  0
  189.4620  177.6880  144.7730 C   0  0  0  0  0  2  0  0  0  0  0  0
  190.4200  176.9270  145.6710 C   0  0  0  0  0  2  0  0  0  0  0  0
  189.9490  176.9880  147.1120 C   0  0  0  0  0  2  0  0  0  0  0  0
  188.7570  177.9160  147.2390 C   0  0  0  0  0  2  0  0  0  0  0  0
  188.0770  177.6830  148.5710 C   0  0  0  0  0  1  0  0  0  0  0  0
  188.3580  178.4040  141.4370 C   0  0  0  0  0  2  0  0  0  0  0  0
  188.4010  177.9380  139.9750 C   0  0  1  0  0  3  0  0  0  0  0  0
  187.0170  177.8590  138.1520 C   0  0  0  0  0  1  0  0  0  0  0  0
  187.5460  178.6980  139.1480 O   0  0  0  0  0  0  0  0  0  0  0  0
  189.7120  177.9030  139.4780 O   0  0  0  0  0  0  0  0  0  0  0  0
  190.0180  176.6220  139.4120 O   0  0  0  0  0  0  0  0  0  0  0  0
  189.6610  175.3330  137.4320 C   0  0  0  0  0  3  0  0  0  0  0  0
  191.8420  175.8480  138.1480 C   0  0  0  0  0  0  0  0  0  0  0  0
  191.8970  174.5260  137.6620 N   0  0  0  0  0  0  0  0  0  0  0  0
  190.5560  174.0930  137.3230 C   0  0  0  0  0  3  0  0  0  0  0  0
  192.9310  176.5360  138.4570 C   0  0  0  0  0  1  0  0  0  0  0  0
  190.4840  176.4290  138.1070 C   0  0  2  0  0  3  0  0  0  0  0  0
  187.2190  177.1600  143.3220 C   0  0  0  0  0  2  0  0  0  0  0  0
  186.3390  178.3820  143.1240 C   0  0  0  0  0  2  0  0  0  0  0  0
  184.9240  178.0980  143.6030 C   0  0  0  0  0  2  0  0  0  0  0  0
  183.8940  178.8710  142.7880 C   0  0  2  0  0  3  0  0  0  0  0  0
  182.6190  179.0380  143.6060 C   0  0  0  0  0  1  0  0  0  0  0  0
  183.6630  178.2160  141.4160 C   0  0  1  0  0  3  0  0  0  0  0  0
  181.9240  178.2700  140.8750 S   0  0  0  0  0  0  0  0  0  0  0  0
  182.8350  179.2470  139.6340 C   0  0  1  0  0  3  0  0  0  0  0  0
  184.1940  179.0660  140.2800 C   0  0  0  0  0  2  0  0  0  0  0  0
  182.8130  178.5420  138.2900 C   0  0  0  0  0  2  0  0  0  0  0  0
  181.4500  179.1830  137.2730 S   0  0  0  0  0  1  0  0  0  0  0  0
  1 10  1  1  0  0  0
  1  2  1  0  0  0  0
  1 22  1  0  0  0  0
  2  5  1  1  0  0  0
  3  2  1  0  0  0  0
  4  3  1  0  0  0  0
  5  6  1  0  0  0  0
  6  7  1  0  0  0  0
  7  8  1  0  0  0  0
  8  9  1  0  0  0  0
 11 10  1  1  0  0  0
 12 13  1  0  0  0  0
 13 11  1  0  0  0  0
 14 11  1  0  0  0  0
 15 14  1  0  0  0  0
 16 21  1  0  0  0  0
 17 20  1  0  0  0  0
 18 17  2  0  0  0  0
 19 16  2  0  0  0  0
 19 18  1  0  0  0  0
 21 17  1  0  0  0  0
 21 15  1  1  0  0  0
 23 22  1  0  0  0  0
 23 24  1  0  0  0  0
 25 24  1  0  0  0  0
 25 26  1  1  0  0  0
 27 25  1  1  0  0  0
 28 27  1  0  0  0  0
 29 31  1  6  0  0  0
 29 30  1  0  0  0  0
 29 28  1  0  0  0  0
 30 27  1  0  0  0  0
 32 31  1  0  0  0  0
M  END
>  <MODEL>
1

>  <REMARK>
 VINA RESULT:      -6.2      0.000      0.000
  Name = 
  18 active torsions:
  status: ('A' for Active; 'I' for Inactive)
    1  A    between atoms: C_1  and  C_20
    2  A    between atoms: C_2  and  C_9
    3  A    between atoms: C_2  and  C_23
    4  A    between atoms: O_3  and  C_14
    5  A    between atoms: C_4  and  C_5
    6  A    between atoms: C_4  and  C_15
    7  A    between atoms: C_8  and  C_23
    8  A    between atoms: C_8  and  C_28
    9  A    between atoms: C_9  and  C_10
   10  A    between atoms: C_13  and  C_28
   11  A    between atoms: C_13  and  C_31
   12  A    between atoms: C_14  and  C_26
   13  A    between atoms: C_14  and  C_28
   14  A    between atoms: C_15  and  C_26
   15  A    between atoms: O_16  and  O_27
   16  A    between atoms: O_16  and  C_31
   17  A    between atoms: O_27  and  C_32
   18  A    between atoms: O_29  and  C_31
                            x       y       z     vdW  Elec       q    Type
                         _______ _______ _______ _____ _____    ______ ____

>  <TORSDO>
F 18

$$$$
=
 OpenBabel10262421413D

 32 33  0  0  1  0  0  0  0  0999 V2000
  187.1910  177.6770  142.5440 C   0  0  2  0  0  3  0  0  0  0  0  0
  186.1100  178.7500  142.7810 C   0  0  1  0  0  3  0  0  0  0  0  0
  185.8880  179.5860  141.6630 O   0  0  0  0  0  0  0  0  0  0  0  0
  184.9730  178.9620  140.8000 C   0  0  0  0  0  1  0  0  0  0  0  0
  184.8080  178.1900  143.3570 C   0  0  0  0  0  2  0  0  0  0  0  0
  184.2590  179.1460  144.4000 C   0  0  0  0  0  2  0  0  0  0  0  0
  182.8050  178.8280  144.6920 C   0  0  0  0  0  2  0  0  0  0  0  0
  181.9630  179.0170  143.4450 C   0  0  0  0  0  2  0  0  0  0  0  0
  180.5240  178.6600  143.7500 C   0  0  0  0  0  1  0  0  0  0  0  0
  187.5930  176.9480  143.8360 C   0  0  0  0  0  2  0  0  0  0  0  0
  188.0280  177.9000  144.9590 C   0  0  1  0  0  3  0  0  0  0  0  0
  186.7370  178.0820  146.8420 C   0  0  0  0  0  1  0  0  0  0  0  0
  187.7820  177.3600  146.2410 O   0  0  0  0  0  0  0  0  0  0  0  0
  189.3630  178.3050  144.8110 O   0  0  0  0  0  0  0  0  0  0  0  0
  190.0010  177.7540  145.8250 O   0  0  0  0  0  0  0  0  0  0  0  0
  191.3510  177.7030  143.8540 C   0  0  0  0  0  3  0  0  0  0  0  0
  191.7600  176.2080  145.6250 C   0  0  0  0  0  0  0  0  0  0  0  0
  191.9640  175.4700  144.4410 N   0  0  0  0  0  0  0  0  0  0  0  0
  191.6020  176.2930  143.3050 C   0  0  0  0  0  3  0  0  0  0  0  0
  192.0870  175.7370  146.8190 C   0  0  0  0  0  1  0  0  0  0  0  0
  191.3170  177.5960  145.3780 C   0  0  2  0  0  3  0  0  0  0  0  0
  188.4040  178.2770  141.8420 C   0  0  0  0  0  2  0  0  0  0  0  0
  188.7370  177.4900  140.5870 C   0  0  0  0  0  2  0  0  0  0  0  0
  189.3520  178.4020  139.5370 C   0  0  0  0  0  2  0  0  0  0  0  0
  189.1210  177.8670  138.1290 C   0  0  2  0  0  3  0  0  0  0  0  0
  188.9510  179.0320  137.1630 C   0  0  0  0  0  1  0  0  0  0  0  0
  187.9530  176.8660  138.0990 C   0  0  1  0  0  3  0  0  0  0  0  0
  186.4620  177.5230  137.2830 S   0  0  0  0  0  0  0  0  0  0  0  0
  186.9750  176.1050  136.2580 C   0  0  1  0  0  3  0  0  0  0  0  0
  188.1830  175.7490  137.1010 C   0  0  0  0  0  2  0  0  0  0  0  0
  185.9470  174.9920  136.3480 C   0  0  0  0  0  2  0  0  0  0  0  0
  184.9870  174.9040  134.8080 S   0  0  0  0  0  1  0  0  0  0  0  0
  1 22  1  1  0  0  0
  1  2  1  0  0  0  0
  1 10  1  0  0  0  0
  2  5  1  6  0  0  0
  3  2  1  0  0  0  0
  4  3  1  0  0  0  0
  5  6  1  0  0  0  0
  6  7  1  0  0  0  0
  8  9  1  0  0  0  0
  8  7  1  0  0  0  0
 11 10  1  6  0  0  0
 11 13  1  0  0  0  0
 13 12  1  0  0  0  0
 14 11  1  0  0  0  0
 14 15  1  0  0  0  0
 16 21  1  0  0  0  0
 17 20  1  0  0  0  0
 18 17  2  0  0  0  0
 19 16  2  0  0  0  0
 19 18  1  0  0  0  0
 21 17  1  0  0  0  0
 21 15  1  6  0  0  0
 23 22  1  0  0  0  0
 24 23  1  0  0  0  0
 25 26  1  6  0  0  0
 25 24  1  0  0  0  0
 27 25  1  6  0  0  0
 28 27  1  0  0  0  0
 29 31  1  1  0  0  0
 29 30  1  0  0  0  0
 29 28  1  0  0  0  0
 30 27  1  0  0  0  0
 32 31  1  0  0  0  0
M  END
>  <MODEL>
2

>  <REMARK>
 VINA RESULT:      -6.2      2.913      6.398
  Name = 
  18 active torsions:
  status: ('A' for Active; 'I' for Inactive)
    1  A    between atoms: C_1  and  C_20
    2  A    between atoms: C_2  and  C_9
    3  A    between atoms: C_2  and  C_23
    4  A    between atoms: O_3  and  C_14
    5  A    between atoms: C_4  and  C_5
    6  A    between atoms: C_4  and  C_15
    7  A    between atoms: C_8  and  C_23
    8  A    between atoms: C_8  and  C_28
    9  A    between atoms: C_9  and  C_10
   10  A    between atoms: C_13  and  C_28
   11  A    between atoms: C_13  and  C_31
   12  A    between atoms: C_14  and  C_26
   13  A    between atoms: C_14  and  C_28
   14  A    between atoms: C_15  and  C_26
   15  A    between atoms: O_16  and  O_27
   16  A    between atoms: O_16  and  C_31
   17  A    between atoms: O_27  and  C_32
   18  A    between atoms: O_29  and  C_31
                            x       y       z     vdW  Elec       q    Type
                         _______ _______ _______ _____ _____    ______ ____

>  <TORSDO>
F 18

$$$$
=
 OpenBabel10262421413D

 32 33  0  0  1  0  0  0  0  0999 V2000
  187.0550  177.7270  143.8300 C   0  0  2  0  0  3  0  0  0  0  0  0
  186.9930  178.1610  145.3080 C   0  0  1  0  0  3  0  0  0  0  0  0
  186.0590  177.4260  146.0730 O   0  0  0  0  0  0  0  0  0  0  0  0
  185.1300  178.3140  146.6380 C   0  0  0  0  0  1  0  0  0  0  0  0
  188.3650  178.2390  145.9810 C   0  0  0  0  0  2  0  0  0  0  0  0
  188.3920  177.3200  147.1880 C   0  0  0  0  0  2  0  0  0  0  0  0
  189.6700  176.5020  147.1970 C   0  0  0  0  0  2  0  0  0  0  0  0
  190.8100  177.2980  146.5910 C   0  0  0  0  0  2  0  0  0  0  0  0
  191.7470  176.3590  145.8610 C   0  0  0  0  0  1  0  0  0  0  0  0
  185.6930  177.8300  143.1260 C   0  0  0  0  0  2  0  0  0  0  0  0
  185.2170  179.2760  142.9330 C   0  0  1  0  0  3  0  0  0  0  0  0
  185.9070  178.7480  140.8150 C   0  0  0  0  0  1  0  0  0  0  0  0
  185.1120  179.6260  141.5700 O   0  0  0  0  0  0  0  0  0  0  0  0
  184.0250  179.5290  143.6300 O   0  0  0  0  0  0  0  0  0  0  0  0
  183.1930  178.5850  143.2390 O   0  0  0  0  0  0  0  0  0  0  0  0
  180.9490  178.8930  143.9980 C   0  0  0  0  0  2  0  0  0  0  0  0
  181.4210  178.7160  141.7000 C   0  0  0  0  0  0  0  0  0  0  0  0
  180.2140  178.0160  141.9020 N   0  0  0  0  0  0  0  0  0  0  0  0
  179.9270  177.9720  143.3210 C   0  0  0  0  0  3  0  0  0  0  0  0
  181.8900  178.9880  140.4920 C   0  0  0  0  0  2  0  0  0  0  0  0
  182.0000  179.2540  142.9490 C   0  0  2  0  0  3  0  0  0  0  0  0
  187.6450  176.3270  143.7020 C   0  0  0  0  0  2  0  0  0  0  0  0
  189.0860  176.3970  143.2280 C   0  0  0  0  0  2  0  0  0  0  0  0
  189.1620  177.0520  141.8580 C   0  0  0  0  0  2  0  0  0  0  0  0
  190.5280  176.8420  141.2150 C   0  0  2  0  0  3  0  0  0  0  0  0
  191.6190  177.2980  142.1740 C   0  0  0  0  0  1  0  0  0  0  0  0
  190.6020  177.5150  139.8340 C   0  0  1  0  0  3  0  0  0  0  0  0
  190.8340  176.3330  138.4670 S   0  0  0  0  0  0  0  0  0  0  0  0
  189.2190  177.1150  138.1450 C   0  0  1  0  0  3  0  0  0  0  0  0
  189.2490  178.0120  139.3660 C   0  0  0  0  0  2  0  0  0  0  0  0
  189.2880  177.9660  136.8890 C   0  0  0  0  0  2  0  0  0  0  0  0
  187.9310  177.5240  135.7630 S   0  0  0  0  0  1  0  0  0  0  0  0
  1 10  1  1  0  0  0
  1  2  1  0  0  0  0
  2  5  1  1  0  0  0
  2  3  1  0  0  0  0
  3  4  1  0  0  0  0
  5  6  1  0  0  0  0
  6  7  1  0  0  0  0
  8  7  1  0  0  0  0
  9  8  1  0  0  0  0
 11 10  1  6  0  0  0
 11 14  1  0  0  0  0
 12 13  1  0  0  0  0
 13 11  1  0  0  0  0
 15 14  1  0  0  0  0
 17 18  1  0  0  0  0
 17 21  1  0  0  0  0
 18 19  2  0  0  0  0
 19 16  1  0  0  0  0
 20 17  2  0  0  0  0
 21 15  1  1  0  0  0
 21 16  1  0  0  0  0
 22  1  1  0  0  0  0
 23 22  1  0  0  0  0
 24 23  1  0  0  0  0
 25 24  1  0  0  0  0
 25 26  1  1  0  0  0
 27 25  1  1  0  0  0
 28 27  1  0  0  0  0
 29 31  1  6  0  0  0
 29 28  1  0  0  0  0
 29 30  1  0  0  0  0
 30 27  1  0  0  0  0
 32 31  1  0  0  0  0
M  END
>  <MODEL>
3

>  <REMARK>
 VINA RESULT:      -6.2      3.883      7.130
  Name = 
  18 active torsions:
  status: ('A' for Active; 'I' for Inactive)
    1  A    between atoms: C_1  and  C_20
    2  A    between atoms: C_2  and  C_9
    3  A    between atoms: C_2  and  C_23
    4  A    between atoms: O_3  and  C_14
    5  A    between atoms: C_4  and  C_5
    6  A    between atoms: C_4  and  C_15
    7  A    between atoms: C_8  and  C_23
    8  A    between atoms: C_8  and  C_28
    9  A    between atoms: C_9  and  C_10
   10  A    between atoms: C_13  and  C_28
   11  A    between atoms: C_13  and  C_31
   12  A    between atoms: C_14  and  C_26
   13  A    between atoms: C_14  and  C_28
   14  A    between atoms: C_15  and  C_26
   15  A    between atoms: O_16  and  O_27
   16  A    between atoms: O_16  and  C_31
   17  A    between atoms: O_27  and  C_32
   18  A    between atoms: O_29  and  C_31
                            x       y       z     vdW  Elec       q    Type
                         _______ _______ _______ _____ _____    ______ ____

>  <TORSDO>
F 18

$$$$
=
 OpenBabel10262421413D

 32 33  0  0  1  0  0  0  0  0999 V2000
  184.4190  178.8410  141.8710 C   0  0  2  0  0  3  0  0  0  0  0  0
  182.9850  178.2860  141.7580 C   0  0  1  0  0  3  0  0  0  0  0  0
  182.0100  179.1130  142.3610 O   0  0  0  0  0  0  0  0  0  0  0  0
  182.0540  178.9330  143.7530 C   0  0  0  0  0  1  0  0  0  0  0  0
  182.5990  177.8720  140.3370 C   0  0  0  0  0  2  0  0  0  0  0  0
  181.1330  178.1850  140.0960 C   0  0  0  0  0  2  0  0  0  0  0  0
  180.9320  178.7030  138.6840 C   0  0  0  0  0  2  0  0  0  0  0  0
  182.0600  179.6410  138.3010 C   0  0  0  0  0  2  0  0  0  0  0  0
  181.6360  181.0710  138.5590 C   0  0  0  0  0  1  0  0  0  0  0  0
  184.9990  179.2580  140.5100 C   0  0  0  0  0  2  0  0  0  0  0  0
  186.2890  178.5110  140.1460 C   0  0  1  0  0  3  0  0  0  0  0  0
  185.4210  177.9810  138.0940 C   0  0  0  0  0  1  0  0  0  0  0  0
  186.5370  178.5200  138.7560 O   0  0  0  0  0  0  0  0  0  0  0  0
  187.3900  178.9850  140.8750 O   0  0  0  0  0  0  0  0  0  0  0  0
  188.4470  178.5810  140.2000 O   0  0  0  0  0  0  0  0  0  0  0  0
  189.2010  177.8730  142.3530 C   0  0  0  0  0  2  0  0  0  0  0  0
  190.2620  177.1020  140.4000 C   0  0  0  0  0  0  0  0  0  0  0  0
  191.2910  177.3180  141.3400 N   0  0  0  0  0  0  0  0  0  0  0  0
  190.7230  177.9190  142.5290 C   0  0  0  0  0  3  0  0  0  0  0  0
  190.4730  176.4850  139.2470 C   0  0  0  0  0  2  0  0  0  0  0  0
  188.9240  177.4720  140.9050 C   0  0  2  0  0  3  0  0  0  0  0  0
  185.3290  177.8470  142.5840 C   0  0  0  0  0  2  0  0  0  0  0  0
  185.7150  178.3680  143.9570 C   0  0  0  0  0  2  0  0  0  0  0  0
  186.5260  177.3250  144.7100 C   0  0  0  0  0  2  0  0  0  0  0  0
  186.5980  177.6440  146.1980 C   0  0  2  0  0  3  0  0  0  0  0  0
  185.5440  178.6850  146.5480 C   0  0  0  0  0  1  0  0  0  0  0  0
  188.0230  178.0480  146.6130 C   0  0  1  0  0  3  0  0  0  0  0  0
  188.4170  177.6310  148.3420 S   0  0  0  0  0  0  0  0  0  0  0  0
  189.5840  176.6490  147.3430 C   0  0  1  0  0  3  0  0  0  0  0  0
  189.0750  177.1430  146.0040 C   0  0  0  0  0  2  0  0  0  0  0  0
  191.0040  177.1400  147.5590 C   0  0  0  0  0  2  0  0  0  0  0  0
  192.1620  175.7410  147.5030 S   0  0  0  0  0  1  0  0  0  0  0  0
  1 10  1  6  0  0  0
  1 22  1  0  0  0  0
  2  5  1  6  0  0  0
  2  1  1  0  0  0  0
  2  3  1  0  0  0  0
  3  4  1  0  0  0  0
  6  5  1  0  0  0  0
  7  6  1  0  0  0  0
  8  9  1  0  0  0  0
  8  7  1  0  0  0  0
 11 10  1  6  0  0  0
 11 14  1  0  0  0  0
 12 13  1  0  0  0  0
 13 11  1  0  0  0  0
 15 14  1  0  0  0  0
 16 19  1  0  0  0  0
 17 21  1  0  0  0  0
 17 18  1  0  0  0  0
 18 19  2  0  0  0  0
 20 17  2  0  0  0  0
 21 15  1  6  0  0  0
 21 16  1  0  0  0  0
 22 23  1  0  0  0  0
 23 24  1  0  0  0  0
 24 25  1  0  0  0  0
 25 26  1  6  0  0  0
 27 25  1  6  0  0  0
 27 28  1  0  0  0  0
 29 31  1  1  0  0  0
 29 28  1  0  0  0  0
 30 27  1  0  0  0  0
 30 29  1  0  0  0  0
 32 31  1  0  0  0  0
M  END
>  <MODEL>
4

>  <REMARK>
 VINA RESULT:      -6.2      3.466      7.450
  Name = 
  18 active torsions:
  status: ('A' for Active; 'I' for Inactive)
    1  A    between atoms: C_1  and  C_20
    2  A    between atoms: C_2  and  C_9
    3  A    between atoms: C_2  and  C_23
    4  A    between atoms: O_3  and  C_14
    5  A    between atoms: C_4  and  C_5
    6  A    between atoms: C_4  and  C_15
    7  A    between atoms: C_8  and  C_23
    8  A    between atoms: C_8  and  C_28
    9  A    between atoms: C_9  and  C_10
   10  A    between atoms: C_13  and  C_28
   11  A    between atoms: C_13  and  C_31
   12  A    between atoms: C_14  and  C_26
   13  A    between atoms: C_14  and  C_28
   14  A    between atoms: C_15  and  C_26
   15  A    between atoms: O_16  and  O_27
   16  A    between atoms: O_16  and  C_31
   17  A    between atoms: O_27  and  C_32
   18  A    between atoms: O_29  and  C_31
                            x       y       z     vdW  Elec       q    Type
                         _______ _______ _______ _____ _____    ______ ____

>  <TORSDO>
F 18

$$$$
=
 OpenBabel10262421413D

 32 33  0  0  1  0  0  0  0  0999 V2000
  186.8580  177.1080  144.0090 C   0  0  2  0  0  3  0  0  0  0  0  0
  186.5360  177.4990  145.4650 C   0  0  1  0  0  3  0  0  0  0  0  0
  187.6430  177.3910  146.3370 O   0  0  0  0  0  0  0  0  0  0  0  0
  187.3420  178.0450  147.5420 C   0  0  0  0  0  1  0  0  0  0  0  0
  185.8220  178.8460  145.5930 C   0  0  0  0  0  2  0  0  0  0  0  0
  184.3400  178.6180  145.8230 C   0  0  0  0  0  2  0  0  0  0  0  0
  183.5250  179.3900  144.8030 C   0  0  0  0  0  2  0  0  0  0  0  0
  182.3420  178.5620  144.3380 C   0  0  0  0  0  2  0  0  0  0  0  0
  181.5950  179.3150  143.2580 C   0  0  0  0  0  1  0  0  0  0  0  0
  188.3170  176.6580  143.8280 C   0  0  0  0  0  2  0  0  0  0  0  0
  189.2460  177.7860  143.3600 C   0  0  1  0  0  3  0  0  0  0  0  0
  190.9620  179.2070  143.8880 C   0  0  0  0  0  1  0  0  0  0  0  0
  190.0030  178.3300  144.4200 O   0  0  0  0  0  0  0  0  0  0  0  0
  190.0610  177.3800  142.2920 O   0  0  0  0  0  0  0  0  0  0  0  0
  189.2260  176.9280  141.3770 O   0  0  0  0  0  0  0  0  0  0  0  0
  188.1640  178.3790  139.8050 C   0  0  0  0  0  3  0  0  0  0  0  0
  189.8050  176.8470  139.1010 C   0  0  0  0  0  0  0  0  0  0  0  0
  188.8240  176.8550  138.0880 N   0  0  0  0  0  0  0  0  0  0  0  0
  187.7140  177.6820  138.5150 C   0  0  0  0  0  3  0  0  0  0  0  0
  190.9730  176.2410  138.9520 C   0  0  0  0  0  1  0  0  0  0  0  0
  189.4670  177.7160  140.2480 C   0  0  2  0  0  3  0  0  0  0  0  0
  186.5020  178.2400  143.0530 C   0  0  0  0  0  2  0  0  0  0  0  0
  185.2840  177.8730  142.2220 C   0  0  0  0  0  2  0  0  0  0  0  0
  184.9080  179.0210  141.2990 C   0  0  0  0  0  2  0  0  0  0  0  0
  184.2290  178.5170  140.0310 C   0  0  2  0  0  3  0  0  0  0  0  0
  183.9990  179.6820  139.0780 C   0  0  0  0  0  1  0  0  0  0  0  0
  182.9490  177.7300  140.3600 C   0  0  1  0  0  3  0  0  0  0  0  0
  181.4510  178.4410  139.6030 S   0  0  0  0  0  0  0  0  0  0  0  0
  181.6140  176.7830  138.8610 C   0  0  1  0  0  3  0  0  0  0  0  0
  182.8780  176.4140  139.6120 C   0  0  0  0  0  2  0  0  0  0  0  0
  180.4740  175.8890  139.3160 C   0  0  0  0  0  2  0  0  0  0  0  0
  179.7390  175.0420  137.8860 S   0  0  0  0  0  1  0  0  0  0  0  0
  1 22  1  6  0  0  0
  1  2  1  0  0  0  0
  2  5  1  6  0  0  0
  2  3  1  0  0  0  0
  3  4  1  0  0  0  0
  5  6  1  0  0  0  0
  7  6  1  0  0  0  0
  8  7  1  0  0  0  0
  9  8  1  0  0  0  0
 10  1  1  0  0  0  0
 11 10  1  1  0  0  0
 11 13  1  0  0  0  0
 12 13  1  0  0  0  0
 14 11  1  0  0  0  0
 15 14  1  0  0  0  0
 16 21  1  0  0  0  0
 17 21  1  0  0  0  0
 18 19  1  0  0  0  0
 18 17  2  0  0  0  0
 19 16  2  0  0  0  0
 20 17  1  0  0  0  0
 21 15  1  1  0  0  0
 23 22  1  0  0  0  0
 24 23  1  0  0  0  0
 25 26  1  6  0  0  0
 25 24  1  0  0  0  0
 27 25  1  6  0  0  0
 28 27  1  0  0  0  0
 29 31  1  1  0  0  0
 29 28  1  0  0  0  0
 29 30  1  0  0  0  0
 30 27  1  0  0  0  0
 32 31  1  0  0  0  0
M  END
>  <MODEL>
5

>  <REMARK>
 VINA RESULT:      -6.2      2.072      4.357
  Name = 
  18 active torsions:
  status: ('A' for Active; 'I' for Inactive)
    1  A    between atoms: C_1  and  C_20
    2  A    between atoms: C_2  and  C_9
    3  A    between atoms: C_2  and  C_23
    4  A    between atoms: O_3  and  C_14
    5  A    between atoms: C_4  and  C_5
    6  A    between atoms: C_4  and  C_15
    7  A    between atoms: C_8  and  C_23
    8  A    between atoms: C_8  and  C_28
    9  A    between atoms: C_9  and  C_10
   10  A    between atoms: C_13  and  C_28
   11  A    between atoms: C_13  and  C_31
   12  A    between atoms: C_14  and  C_26
   13  A    between atoms: C_14  and  C_28
   14  A    between atoms: C_15  and  C_26
   15  A    between atoms: O_16  and  O_27
   16  A    between atoms: O_16  and  C_31
   17  A    between atoms: O_27  and  C_32
   18  A    between atoms: O_29  and  C_31
                            x       y       z     vdW  Elec       q    Type
                         _______ _______ _______ _____ _____    ______ ____

>  <TORSDO>
F 18

$$$$
=
 OpenBabel10262421413D

 32 33  0  0  1  0  0  0  0  0999 V2000
  184.8460  178.7450  143.9310 C   0  0  2  0  0  3  0  0  0  0  0  0
  186.0110  178.6920  144.9390 C   0  0  1  0  0  3  0  0  0  0  0  0
  185.7400  179.3680  146.1510 O   0  0  0  0  0  0  0  0  0  0  0  0
  185.9190  178.4780  147.2220 C   0  0  0  0  0  1  0  0  0  0  0  0
  186.5580  177.2820  145.1690 C   0  0  0  0  0  2  0  0  0  0  0  0
  187.8640  177.1130  144.4140 C   0  0  0  0  0  2  0  0  0  0  0  0
  188.9530  177.9530  145.0540 C   0  0  0  0  0  2  0  0  0  0  0  0
  189.8280  177.0910  145.9450 C   0  0  0  0  0  2  0  0  0  0  0  0
  191.1490  176.8310  145.2530 C   0  0  0  0  0  1  0  0  0  0  0  0
  185.2360  179.4300  142.6120 C   0  0  0  0  0  2  0  0  0  0  0  0
  185.3640  178.4530  141.4360 C   0  0  1  0  0  3  0  0  0  0  0  0
  184.1560  179.3380  139.7030 C   0  0  0  0  0  1  0  0  0  0  0  0
  184.1660  178.3450  140.6980 O   0  0  0  0  0  0  0  0  0  0  0  0
  186.4570  178.7690  140.6130 O   0  0  0  0  0  0  0  0  0  0  0  0
  187.4850  178.1500  141.1590 O   0  0  0  0  0  0  0  0  0  0  0  0
  188.1590  178.1520  138.8670 C   0  0  0  0  0  3  0  0  0  0  0  0
  189.6450  177.4510  140.5510 C   0  0  0  0  0  0  0  0  0  0  0  0
  189.8630  176.5860  139.4600 N   0  0  0  0  0  0  0  0  0  0  0  0
  188.8880  176.8760  138.4280 C   0  0  0  0  0  3  0  0  0  0  0  0
  190.4420  177.4720  141.6090 C   0  0  0  0  0  1  0  0  0  0  0  0
  188.5640  178.4300  140.3140 C   0  0  2  0  0  3  0  0  0  0  0  0
  183.6190  179.3990  144.5570 C   0  0  0  0  0  2  0  0  0  0  0  0
  182.3590  178.6390  144.1780 C   0  0  0  0  0  2  0  0  0  0  0  0
  181.7390  179.2340  142.9230 C   0  0  0  0  0  2  0  0  0  0  0  0
  180.2290  179.3780  143.0620 C   0  0  2  0  0  3  0  0  0  0  0  0
  179.7120  178.3670  144.0770 C   0  0  0  0  0  1  0  0  0  0  0  0
  179.5330  179.2860  141.6930 C   0  0  1  0  0  3  0  0  0  0  0  0
  179.3190  180.9050  140.8830 S   0  0  0  0  0  0  0  0  0  0  0  0
  180.4100  179.9600  139.7690 C   0  0  1  0  0  3  0  0  0  0  0  0
  180.4420  178.7110  140.6260 C   0  0  0  0  0  2  0  0  0  0  0  0
  179.6970  179.6620  138.4630 C   0  0  0  0  0  2  0  0  0  0  0  0
  180.4920  180.5620  137.0990 S   0  0  0  0  0  1  0  0  0  0  0  0
  1 10  1  6  0  0  0
  1 22  1  0  0  0  0
  1  2  1  0  0  0  0
  2  5  1  1  0  0  0
  2  3  1  0  0  0  0
  3  4  1  0  0  0  0
  6  7  1  0  0  0  0
  6  5  1  0  0  0  0
  7  8  1  0  0  0  0
  9  8  1  0  0  0  0
 11 10  1  1  0  0  0
 12 13  1  0  0  0  0
 13 11  1  0  0  0  0
 14 15  1  0  0  0  0
 14 11  1  0  0  0  0
 16 21  1  0  0  0  0
 17 20  1  0  0  0  0
 18 17  2  0  0  0  0
 19 16  2  0  0  0  0
 19 18  1  0  0  0  0
 21 17  1  0  0  0  0
 21 15  1  1  0  0  0
 23 22  1  0  0  0  0
 24 25  1  0  0  0  0
 24 23  1  0  0  0  0
 25 26  1  1  0  0  0
 27 25  1  1  0  0  0
 28 27  1  0  0  0  0
 29 31  1  6  0  0  0
 29 30  1  0  0  0  0
 29 28  1  0  0  0  0
 30 27  1  0  0  0  0
 32 31  1  0  0  0  0
M  END
>  <MODEL>
6

>  <REMARK>
 VINA RESULT:      -6.1      2.355      3.846
  Name = 
  18 active torsions:
  status: ('A' for Active; 'I' for Inactive)
    1  A    between atoms: C_1  and  C_20
    2  A    between atoms: C_2  and  C_9
    3  A    between atoms: C_2  and  C_23
    4  A    between atoms: O_3  and  C_14
    5  A    between atoms: C_4  and  C_5
    6  A    between atoms: C_4  and  C_15
    7  A    between atoms: C_8  and  C_23
    8  A    between atoms: C_8  and  C_28
    9  A    between atoms: C_9  and  C_10
   10  A    between atoms: C_13  and  C_28
   11  A    between atoms: C_13  and  C_31
   12  A    between atoms: C_14  and  C_26
   13  A    between atoms: C_14  and  C_28
   14  A    between atoms: C_15  and  C_26
   15  A    between atoms: O_16  and  O_27
   16  A    between atoms: O_16  and  C_31
   17  A    between atoms: O_27  and  C_32
   18  A    between atoms: O_29  and  C_31
                            x       y       z     vdW  Elec       q    Type
                         _______ _______ _______ _____ _____    ______ ____

>  <TORSDO>
F 18

$$$$
=
 OpenBabel10262421413D

 32 33  0  0  1  0  0  0  0  0999 V2000
  189.0160  176.8340  143.1630 C   0  0  2  0  0  3  0  0  0  0  0  0
  189.6830  176.8980  144.5510 C   0  0  1  0  0  3  0  0  0  0  0  0
  191.0840  177.0720  144.4970 O   0  0  0  0  0  0  0  0  0  0  0  0
  191.6820  175.8610  144.1150 C   0  0  0  0  0  1  0  0  0  0  0  0
  189.0100  177.8850  145.5080 C   0  0  0  0  0  2  0  0  0  0  0  0
  188.8520  177.2420  146.8740 C   0  0  0  0  0  2  0  0  0  0  0  0
  187.6660  177.8440  147.6040 C   0  0  0  0  0  2  0  0  0  0  0  0
  186.7950  178.6270  146.6400 C   0  0  0  0  0  2  0  0  0  0  0  0
  185.3380  178.3850  146.9680 C   0  0  0  0  0  1  0  0  0  0  0  0
  189.3350  178.0630  142.2970 C   0  0  0  0  0  2  0  0  0  0  0  0
  189.8670  177.7020  140.9030 C   0  0  1  0  0  3  0  0  0  0  0  0
  192.0480  177.5010  140.2360 C   0  0  0  0  0  1  0  0  0  0  0  0
  191.0170  176.8850  140.9650 O   0  0  0  0  0  0  0  0  0  0  0  0
  188.8680  177.1360  140.0950 O   0  0  0  0  0  0  0  0  0  0  0  0
  188.1490  178.1590  139.6750 O   0  0  0  0  0  0  0  0  0  0  0  0
  188.0230  176.3800  138.0850 C   0  0  0  0  0  3  0  0  0  0  0  0
  188.9440  178.4600  137.4840 C   0  0  0  0  0  0  0  0  0  0  0  0
  189.7390  177.4860  136.8460 N   0  0  0  0  0  0  0  0  0  0  0  0
  189.3090  176.1710  137.2770 C   0  0  0  0  0  3  0  0  0  0  0  0
  189.0550  179.7520  137.2160 C   0  0  0  0  0  1  0  0  0  0  0  0
  187.8800  177.8810  138.3310 C   0  0  2  0  0  3  0  0  0  0  0  0
  187.5130  176.6200  143.2940 C   0  0  0  0  0  2  0  0  0  0  0  0
  186.7560  177.8520  142.8300 C   0  0  0  0  0  2  0  0  0  0  0  0
  185.4200  177.9550  143.5490 C   0  0  0  0  0  2  0  0  0  0  0  0
  184.4420  178.8370  142.7830 C   0  0  2  0  0  3  0  0  0  0  0  0
  183.2520  179.1700  143.6740 C   0  0  0  0  0  1  0  0  0  0  0  0
  184.0450  178.1950  141.4430 C   0  0  1  0  0  3  0  0  0  0  0  0
  182.2670  178.3420  141.0710 S   0  0  0  0  0  0  0  0  0  0  0  0
  183.1050  179.2700  139.7440 C   0  0  1  0  0  3  0  0  0  0  0  0
  184.5080  179.0160  140.2560 C   0  0  0  0  0  2  0  0  0  0  0  0
  182.9170  178.5670  138.4110 C   0  0  0  0  0  2  0  0  0  0  0  0
  181.5590  179.3430  137.4850 S   0  0  0  0  0  1  0  0  0  0  0  0
  1 10  1  1  0  0  0
  1 22  1  0  0  0  0
  1  2  1  0  0  0  0
  2  5  1  1  0  0  0
  3  2  1  0  0  0  0
  4  3  1  0  0  0  0
  5  6  1  0  0  0  0
  6  7  1  0  0  0  0
  8  9  1  0  0  0  0
  8  7  1  0  0  0  0
 11 13  1  0  0  0  0
 11 10  1  1  0  0  0
 12 13  1  0  0  0  0
 14 11  1  0  0  0  0
 15 14  1  0  0  0  0
 16 21  1  0  0  0  0
 17 21  1  0  0  0  0
 18 19  1  0  0  0  0
 18 17  2  0  0  0  0
 19 16  2  0  0  0  0
 20 17  1  0  0  0  0
 21 15  1  1  0  0  0
 23 22  1  0  0  0  0
 23 24  1  0  0  0  0
 25 24  1  0  0  0  0
 25 26  1  1  0  0  0
 27 25  1  1  0  0  0
 28 27  1  0  0  0  0
 29 31  1  6  0  0  0
 29 30  1  0  0  0  0
 29 28  1  0  0  0  0
 30 27  1  0  0  0  0
 32 31  1  0  0  0  0
M  END
>  <MODEL>
7

>  <REMARK>
 VINA RESULT:      -6.0      1.564      2.357
  Name = 
  18 active torsions:
  status: ('A' for Active; 'I' for Inactive)
    1  A    between atoms: C_1  and  C_20
    2  A    between atoms: C_2  and  C_9
    3  A    between atoms: C_2  and  C_23
    4  A    between atoms: O_3  and  C_14
    5  A    between atoms: C_4  and  C_5
    6  A    between atoms: C_4  and  C_15
    7  A    between atoms: C_8  and  C_23
    8  A    between atoms: C_8  and  C_28
    9  A    between atoms: C_9  and  C_10
   10  A    between atoms: C_13  and  C_28
   11  A    between atoms: C_13  and  C_31
   12  A    between atoms: C_14  and  C_26
   13  A    between atoms: C_14  and  C_28
   14  A    between atoms: C_15  and  C_26
   15  A    between atoms: O_16  and  O_27
   16  A    between atoms: O_16  and  C_31
   17  A    between atoms: O_27  and  C_32
   18  A    between atoms: O_29  and  C_31
                            x       y       z     vdW  Elec       q    Type
                         _______ _______ _______ _____ _____    ______ ____

>  <TORSDO>
F 18

$$$$
=
 OpenBabel10262421413D

 32 33  0  0  1  0  0  0  0  0999 V2000
  187.0220  177.5090  144.0770 C   0  0  2  0  0  3  0  0  0  0  0  0
  187.0370  178.2710  145.4170 C   0  0  1  0  0  3  0  0  0  0  0  0
  185.8870  179.0650  145.6280 O   0  0  0  0  0  0  0  0  0  0  0  0
  185.1570  178.5380  146.7050 C   0  0  0  0  0  1  0  0  0  0  0  0
  187.3620  177.3850  146.6210 C   0  0  0  0  0  2  0  0  0  0  0  0
  188.6890  177.8090  147.2220 C   0  0  0  0  0  2  0  0  0  0  0  0
  189.6990  176.6810  147.1130 C   0  0  0  0  0  2  0  0  0  0  0  0
  191.0740  177.1630  147.5310 C   0  0  0  0  0  2  0  0  0  0  0  0
  192.0420  175.9990  147.5160 C   0  0  0  0  0  1  0  0  0  0  0  0
  188.4060  176.9620  143.6930 C   0  0  0  0  0  2  0  0  0  0  0  0
  189.3200  178.0170  143.0550 C   0  0  1  0  0  3  0  0  0  0  0  0
  191.4110  177.8560  143.9730 C   0  0  0  0  0  1  0  0  0  0  0  0
  190.2110  178.5870  143.9890 O   0  0  0  0  0  0  0  0  0  0  0  0
  189.9930  177.5120  141.9320 O   0  0  0  0  0  0  0  0  0  0  0  0
  189.0400  177.1020  141.1180 O   0  0  0  0  0  0  0  0  0  0  0  0
  187.8690  178.3120  139.4240 C   0  0  0  0  0  3  0  0  0  0  0  0
  189.7020  176.9450  138.8690 C   0  0  0  0  0  0  0  0  0  0  0  0
  188.7630  176.7710  137.8320 N   0  0  0  0  0  0  0  0  0  0  0  0
  187.5490  177.4850  138.1730 C   0  0  0  0  0  3  0  0  0  0  0  0
  190.9380  176.4750  138.7920 C   0  0  0  0  0  1  0  0  0  0  0  0
  189.2260  177.8390  139.9450 C   0  0  2  0  0  3  0  0  0  0  0  0
  186.4380  178.3760  142.9680 C   0  0  0  0  0  2  0  0  0  0  0  0
  185.0430  177.9020  142.5990 C   0  0  0  0  0  2  0  0  0  0  0  0
  184.3750  178.9000  141.6650 C   0  0  0  0  0  2  0  0  0  0  0  0
  184.1420  178.3010  140.2840 C   0  0  2  0  0  3  0  0  0  0  0  0
  184.4750  179.3360  139.2170 C   0  0  0  0  0  1  0  0  0  0  0  0
  182.7220  177.7230  140.1590 C   0  0  1  0  0  3  0  0  0  0  0  0
  181.8370  178.3000  138.6740 S   0  0  0  0  0  0  0  0  0  0  0  0
  181.9900  176.4950  138.4620 C   0  0  1  0  0  3  0  0  0  0  0  0
  182.7310  176.2610  139.7620 C   0  0  0  0  0  2  0  0  0  0  0  0
  180.6220  175.8400  138.5320 C   0  0  0  0  0  2  0  0  0  0  0  0
  180.4620  174.5890  137.2240 S   0  0  0  0  0  1  0  0  0  0  0  0
  1 22  1  6  0  0  0
  1  2  1  0  0  0  0
  2  3  1  0  0  0  0
  2  5  1  1  0  0  0
  3  4  1  0  0  0  0
  5  6  1  0  0  0  0
  7  6  1  0  0  0  0
  7  8  1  0  0  0  0
  9  8  1  0  0  0  0
 10  1  1  0  0  0  0
 11 10  1  1  0  0  0
 11 13  1  0  0  0  0
 12 13  1  0  0  0  0
 14 11  1  0  0  0  0
 15 14  1  0  0  0  0
 16 21  1  0  0  0  0
 17 21  1  0  0  0  0
 18 19  1  0  0  0  0
 18 17  2  0  0  0  0
 19 16  2  0  0  0  0
 20 17  1  0  0  0  0
 21 15  1  1  0  0  0
 23 22  1  0  0  0  0
 24 23  1  0  0  0  0
 25 26  1  6  0  0  0
 25 24  1  0  0  0  0
 27 25  1  6  0  0  0
 28 27  1  0  0  0  0
 29 31  1  1  0  0  0
 29 28  1  0  0  0  0
 29 30  1  0  0  0  0
 30 27  1  0  0  0  0
 32 31  1  0  0  0  0
M  END
>  <MODEL>
8

>  <REMARK>
 VINA RESULT:      -6.0      2.142      3.694
  Name = 
  18 active torsions:
  status: ('A' for Active; 'I' for Inactive)
    1  A    between atoms: C_1  and  C_20
    2  A    between atoms: C_2  and  C_9
    3  A    between atoms: C_2  and  C_23
    4  A    between atoms: O_3  and  C_14
    5  A    between atoms: C_4  and  C_5
    6  A    between atoms: C_4  and  C_15
    7  A    between atoms: C_8  and  C_23
    8  A    between atoms: C_8  and  C_28
    9  A    between atoms: C_9  and  C_10
   10  A    between atoms: C_13  and  C_28
   11  A    between atoms: C_13  and  C_31
   12  A    between atoms: C_14  and  C_26
   13  A    between atoms: C_14  and  C_28
   14  A    between atoms: C_15  and  C_26
   15  A    between atoms: O_16  and  O_27
   16  A    between atoms: O_16  and  C_31
   17  A    between atoms: O_27  and  C_32
   18  A    between atoms: O_29  and  C_31
                            x       y       z     vdW  Elec       q    Type
                         _______ _______ _______ _____ _____    ______ ____

>  <TORSDO>
F 18

$$$$
=
 OpenBabel10262421413D

 32 33  0  0  1  0  0  0  0  0999 V2000
  187.4820  178.0700  141.5350 C   0  0  2  0  0  3  0  0  0  0  0  0
  186.2150  178.9180  141.7650 C   0  0  1  0  0  3  0  0  0  0  0  0
  185.6650  179.4450  140.5740 O   0  0  0  0  0  0  0  0  0  0  0  0
  184.7110  178.5450  140.0720 C   0  0  0  0  0  1  0  0  0  0  0  0
  185.1640  178.2250  142.6340 C   0  0  0  0  0  2  0  0  0  0  0  0
  184.3420  179.2680  143.3680 C   0  0  0  0  0  2  0  0  0  0  0  0
  184.1900  178.8860  144.8280 C   0  0  0  0  0  2  0  0  0  0  0  0
  185.5260  178.9780  145.5390 C   0  0  0  0  0  2  0  0  0  0  0  0
  185.3890  178.4300  146.9430 C   0  0  0  0  0  1  0  0  0  0  0  0
  188.3890  178.0160  142.7750 C   0  0  0  0  0  2  0  0  0  0  0  0
  188.3960  176.6450  143.4630 C   0  0  1  0  0  3  0  0  0  0  0  0
  190.3540  176.2640  142.3390 C   0  0  0  0  0  1  0  0  0  0  0  0
  189.1370  175.6870  142.7380 O   0  0  0  0  0  0  0  0  0  0  0  0
  188.8220  176.7340  144.7970 O   0  0  0  0  0  0  0  0  0  0  0  0
  188.7900  178.0210  145.0810 O   0  0  0  0  0  0  0  0  0  0  0  0
  191.1410  177.7230  145.3800 C   0  0  0  0  0  3  0  0  0  0  0  0
  189.6470  177.3140  147.1510 C   0  0  0  0  0  0  0  0  0  0  0  0
  190.6340  176.3110  147.2390 N   0  0  0  0  0  0  0  0  0  0  0  0
  191.5200  176.4220  146.0980 C   0  0  0  0  0  3  0  0  0  0  0  0
  188.7480  177.5090  148.1040 C   0  0  0  0  0  1  0  0  0  0  0  0
  189.8310  178.2140  145.9940 C   0  0  2  0  0  3  0  0  0  0  0  0
  188.2430  178.5570  140.3080 C   0  0  0  0  0  2  0  0  0  0  0  0
  188.4750  177.4140  139.3360 C   0  0  0  0  0  2  0  0  0  0  0  0
  189.7020  177.6870  138.4800 C   0  0  0  0  0  2  0  0  0  0  0  0
  190.0390  176.4950  137.5920 C   0  0  2  0  0  3  0  0  0  0  0  0
  188.7840  175.6660  137.3550 C   0  0  0  0  0  1  0  0  0  0  0  0
  191.2120  175.6840  138.1710 C   0  0  1  0  0  3  0  0  0  0  0  0
  191.7360  174.3080  137.0970 S   0  0  0  0  0  0  0  0  0  0  0  0
  193.1820  175.4140  137.1870 C   0  0  1  0  0  3  0  0  0  0  0  0
  192.5240  176.4380  138.0890 C   0  0  0  0  0  2  0  0  0  0  0  0
  194.3180  174.7360  137.9330 C   0  0  0  0  0  2  0  0  0  0  0  0
  195.7560  174.5460  136.8390 S   0  0  0  0  0  1  0  0  0  0  0  0
  1 22  1  6  0  0  0
  1  2  1  0  0  0  0
  1 10  1  0  0  0  0
  2  5  1  6  0  0  0
  3  2  1  0  0  0  0
  4  3  1  0  0  0  0
  5  6  1  0  0  0  0
  6  7  1  0  0  0  0
  7  8  1  0  0  0  0
  8  9  1  0  0  0  0
 11 10  1  6  0  0  0
 11 14  1  0  0  0  0
 12 13  1  0  0  0  0
 13 11  1  0  0  0  0
 14 15  1  0  0  0  0
 16 21  1  0  0  0  0
 16 19  2  0  0  0  0
 17 18  2  0  0  0  0
 17 20  1  0  0  0  0
 19 18  1  0  0  0  0
 21 15  1  6  0  0  0
 21 17  1  0  0  0  0
 23 22  1  0  0  0  0
 24 23  1  0  0  0  0
 25 26  1  1  0  0  0
 25 24  1  0  0  0  0
 27 25  1  6  0  0  0
 28 29  1  0  0  0  0
 28 27  1  0  0  0  0
 29 31  1  1  0  0  0
 29 30  1  0  0  0  0
 30 27  1  0  0  0  0
 32 31  1  0  0  0  0
M  END
>  <MODEL>
9

>  <REMARK>
 VINA RESULT:      -6.0      4.053      7.752
  Name = 
  18 active torsions:
  status: ('A' for Active; 'I' for Inactive)
    1  A    between atoms: C_1  and  C_20
    2  A    between atoms: C_2  and  C_9
    3  A    between atoms: C_2  and  C_23
    4  A    between atoms: O_3  and  C_14
    5  A    between atoms: C_4  and  C_5
    6  A    between atoms: C_4  and  C_15
    7  A    between atoms: C_8  and  C_23
    8  A    between atoms: C_8  and  C_28
    9  A    between atoms: C_9  and  C_10
   10  A    between atoms: C_13  and  C_28
   11  A    between atoms: C_13  and  C_31
   12  A    between atoms: C_14  and  C_26
   13  A    between atoms: C_14  and  C_28
   14  A    between atoms: C_15  and  C_26
   15  A    between atoms: O_16  and  O_27
   16  A    between atoms: O_16  and  C_31
   17  A    between atoms: O_27  and  C_32
   18  A    between atoms: O_29  and  C_31
                            x       y       z     vdW  Elec       q    Type
                         _______ _______ _______ _____ _____    ______ ____

>  <TORSDO>
F 18

$$$$
