=
 OpenBabel10262421423D

 32 36  0  0  1  0  0  0  0  0999 V2000
  180.0720  178.3810  141.8960 C   0  0  1  0  0  3  0  0  0  0  0  0
  184.9970  178.5750  143.2450 C   0  0  0  0  0  0  0  0  0  0  0  0
  185.3100  179.1060  138.8940 C   0  0  0  0  0  1  0  0  0  0  0  0
  186.2090  178.2770  145.4830 C   0  0  1  0  0  3  0  0  0  0  0  0
  187.4980  177.8000  146.1160 C   0  0  0  0  0  0  0  0  0  0  0  0
  182.5620  178.6310  143.2810 C   0  0  0  0  0  0  0  0  0  0  0  0
  183.7350  178.4660  141.1710 C   0  0  0  0  0  3  0  0  0  0  0  0
  189.8880  176.9410  147.3110 C   0  0  0  0  0  3  0  0  0  0  0  0
  181.3170  178.4920  141.2020 O   0  0  0  0  0  0  0  0  0  0  0  0
  186.3760  178.7080  139.8000 N   0  0  0  0  0  0  0  0  0  0  0  0
  184.9750  178.5130  141.8300 C   0  0  0  0  0  0  0  0  0  0  0  0
  186.2660  178.4330  141.0710 C   0  0  0  0  0  0  0  0  0  0  0  0
  187.3120  177.6780  143.2570 C   0  0  1  0  0  3  0  0  0  0  0  0
  188.7590  177.1800  148.1000 C   0  0  0  0  0  3  0  0  0  0  0  0
  180.1220  179.1720  143.2000 C   0  0  0  0  0  2  0  0  0  0  0  0
  182.5380  178.5180  141.8840 C   0  0  0  0  0  0  0  0  0  0  0  0
  187.5690  177.6050  147.5050 C   0  0  0  0  0  3  0  0  0  0  0  0
  181.2800  178.6660  144.0600 C   0  0  0  0  0  2  0  0  0  0  0  0
  187.5460  178.1370  141.8170 C   0  0  1  0  0  3  0  0  0  0  0  0
  188.5600  177.6350  143.9410 O   0  0  0  0  0  0  0  0  0  0  0  0
  183.7840  178.6460  143.9510 C   0  0  0  0  0  3  0  0  0  0  0  0
  185.6990  179.5100  146.2200 C   0  0  0  0  0  1  0  0  0  0  0  0
  189.8200  177.1070  145.9260 C   0  0  0  0  0  3  0  0  0  0  0  0
  186.3280  178.6100  143.9740 C   0  0  1  0  0  3  0  0  0  0  0  0
  188.6250  177.5160  145.3260 C   0  0  0  0  0  0  0  0  0  0  0  0
  189.4490  177.8220  140.7220 C   0  0  0  0  0  1  0  0  0  0  0  0
  188.2860  177.1670  141.1330 O   0  0  0  0  0  0  0  0  0  0  0  0
  178.9430  178.8970  141.0260 C   0  0  0  0  0  2  0  0  0  0  0  0
  179.5040  179.6130  139.8100 C   0  0  0  0  0  2  0  0  0  0  0  0
  179.8210  181.8650  139.1060 O   0  0  0  0  0  0  0  0  0  0  0  0
  178.9310  181.5970  141.2020 O   0  0  0  0  0  1  0  0  0  0  0  0
  179.4200  181.0840  140.0080 C   0  0  0  0  0  0  0  0  0  0  0  0
  1 28  1  6  0  0  0
  1 15  1  0  0  0  0
  2 21  1  0  0  0  0
  3 10  1  0  0  0  0
  4  5  1  0  0  0  0
  4 22  1  1  0  0  0
  5 17  1  0  0  0  0
  6 21  2  0  0  0  0
  6 18  1  0  0  0  0
  7 11  1  0  0  0  0
  7 16  2  0  0  0  0
  8 14  1  0  0  0  0
  9 16  1  0  0  0  0
  9  1  1  0  0  0  0
 10 12  2  0  0  0  0
 11  2  2  0  0  0  0
 12 19  1  0  0  0  0
 12 11  1  0  0  0  0
 13 20  1  1  0  0  0
 13 24  1  0  0  0  0
 15 18  1  0  0  0  0
 16  6  1  0  0  0  0
 17 14  2  0  0  0  0
 19 27  1  6  0  0  0
 19 13  1  0  0  0  0
 20 25  1  0  0  0  0
 23  8  2  0  0  0  0
 24  2  1  6  0  0  0
 24  4  1  0  0  0  0
 25 23  1  0  0  0  0
 25  5  2  0  0  0  0
 26 27  1  0  0  0  0
 29 32  1  0  0  0  0
 29 28  1  0  0  0  0
 30 32  2  0  0  0  0
 32 31  1  0  0  0  0
M  END
>  <MODEL>
1

>  <REMARK>
 VINA RESULT:      -9.6      0.000      0.000
  Name = 
  4 active torsions:
  status: ('A' for Active; 'I' for Inactive)
    1  A    between atoms: C_2  and  C_24
    2  A    between atoms: C_10  and  C_20
    3  A    between atoms: C_10  and  C_24
    4  A    between atoms: O_25  and  C_26
                            x       y       z     vdW  Elec       q    Type
                         _______ _______ _______ _____ _____    ______ ____

>  <TORSDO>
F 4

$$$$
=
 OpenBabel10262421423D

 32 36  0  0  1  0  0  0  0  0999 V2000
  189.0200  178.6150  137.3870 C   0  0  1  0  0  3  0  0  0  0  0  0
  187.3480  177.8130  142.1490 C   0  0  0  0  0  0  0  0  0  0  0  0
  183.5430  178.3220  140.0110 C   0  0  0  0  0  1  0  0  0  0  0  0
  188.5470  177.4940  144.3910 C   0  0  1  0  0  3  0  0  0  0  0  0
  188.4250  177.7280  145.8810 C   0  0  0  0  0  0  0  0  0  0  0  0
  188.7220  177.8930  140.1390 C   0  0  0  0  0  0  0  0  0  0  0  0
  186.3800  178.4900  140.0250 C   0  0  0  0  0  3  0  0  0  0  0  0
  188.2130  178.1330  148.6510 C   0  0  0  0  0  3  0  0  0  0  0  0
  187.7450  178.6000  138.0320 O   0  0  0  0  0  0  0  0  0  0  0  0
  183.7550  178.4280  141.4460 N   0  0  0  0  0  0  0  0  0  0  0  0
  186.2190  178.2130  141.3930 C   0  0  0  0  0  0  0  0  0  0  0  0
  184.8970  178.3960  142.0770 C   0  0  0  0  0  0  0  0  0  0  0  0
  186.2210  178.5420  144.2370 C   0  0  1  0  0  3  0  0  0  0  0  0
  189.4430  177.7790  148.0880 C   0  0  0  0  0  3  0  0  0  0  0  0
  189.9220  177.5320  137.9750 C   0  0  0  0  0  2  0  0  0  0  0  0
  187.6170  178.3390  139.4000 C   0  0  0  0  0  0  0  0  0  0  0  0
  189.5490  177.5800  146.7100 C   0  0  0  0  0  3  0  0  0  0  0  0
  190.0630  177.7480  139.4820 C   0  0  0  0  0  2  0  0  0  0  0  0
  184.8410  178.4290  143.5860 C   0  0  1  0  0  3  0  0  0  0  0  0
  186.0920  178.3470  145.6410 O   0  0  0  0  0  0  0  0  0  0  0  0
  188.5850  177.6460  141.5040 C   0  0  0  0  0  3  0  0  0  0  0  0
  189.2230  176.1520  144.1350 C   0  0  0  0  0  1  0  0  0  0  0  0
  187.0960  178.3080  147.8310 C   0  0  0  0  0  3  0  0  0  0  0  0
  187.1960  177.5250  143.6320 C   0  0  1  0  0  3  0  0  0  0  0  0
  187.2030  178.1270  146.4490 C   0  0  0  0  0  0  0  0  0  0  0  0
  182.9570  178.8850  144.6610 C   0  0  0  0  0  1  0  0  0  0  0  0
  184.0360  179.4900  144.0140 O   0  0  0  0  0  0  0  0  0  0  0  0
  188.8530  178.3890  135.8970 C   0  0  0  0  0  2  0  0  0  0  0  0
  187.4700  177.8350  135.6030 C   0  0  0  0  0  2  0  0  0  0  0  0
  186.5470  175.6470  135.4320 O   0  0  0  0  0  1  0  0  0  0  0  0
  188.7790  175.8230  134.9340 O   0  0  0  0  0  0  0  0  0  0  0  0
  187.5640  176.3790  135.3100 C   0  0  0  0  0  0  0  0  0  0  0  0
  1 28  1  6  0  0  0
  1 15  1  0  0  0  0
  1  9  1  0  0  0  0
  3 10  1  0  0  0  0
  4 22  1  1  0  0  0
  4  5  1  0  0  0  0
  5 25  2  0  0  0  0
  5 17  1  0  0  0  0
  6 21  2  0  0  0  0
  7 11  1  0  0  0  0
  9 16  1  0  0  0  0
 10 12  2  0  0  0  0
 11 12  1  0  0  0  0
 11  2  2  0  0  0  0
 12 19  1  0  0  0  0
 13 20  1  1  0  0  0
 14  8  1  0  0  0  0
 15 18  1  0  0  0  0
 16  7  2  0  0  0  0
 16  6  1  0  0  0  0
 17 14  2  0  0  0  0
 18  6  1  0  0  0  0
 19 27  1  6  0  0  0
 19 13  1  0  0  0  0
 20 25  1  0  0  0  0
 21  2  1  0  0  0  0
 23  8  2  0  0  0  0
 24  2  1  6  0  0  0
 24 13  1  0  0  0  0
 24  4  1  0  0  0  0
 25 23  1  0  0  0  0
 27 26  1  0  0  0  0
 29 28  1  0  0  0  0
 31 32  2  0  0  0  0
 32 30  1  0  0  0  0
 32 29  1  0  0  0  0
M  END
>  <MODEL>
2

>  <REMARK>
 VINA RESULT:      -9.3      2.803      6.345
  Name = 
  4 active torsions:
  status: ('A' for Active; 'I' for Inactive)
    1  A    between atoms: C_2  and  C_24
    2  A    between atoms: C_10  and  C_20
    3  A    between atoms: C_10  and  C_24
    4  A    between atoms: O_25  and  C_26
                            x       y       z     vdW  Elec       q    Type
                         _______ _______ _______ _____ _____    ______ ____

>  <TORSDO>
F 4

$$$$
=
 OpenBabel10262421423D

 32 36  0  0  1  0  0  0  0  0999 V2000
  188.4730  177.2100  145.7700 C   0  0  1  0  0  3  0  0  0  0  0  0
  189.6750  177.4980  140.8110 C   0  0  0  0  0  0  0  0  0  0  0  0
  185.6080  179.1610  140.7740 C   0  0  0  0  0  1  0  0  0  0  0  0
  191.7200  176.7440  139.4620 C   0  0  1  0  0  3  0  0  0  0  0  0
  192.1660  176.2400  138.1080 C   0  0  0  0  0  0  0  0  0  0  0  0
  189.7990  177.3200  143.2370 C   0  0  0  0  0  0  0  0  0  0  0  0
  187.6850  177.8140  142.1690 C   0  0  0  0  0  3  0  0  0  0  0  0
  193.0210  175.3230  135.5950 C   0  0  0  0  0  3  0  0  0  0  0  0
  187.7950  177.6100  144.5770 O   0  0  0  0  0  0  0  0  0  0  0  0
  186.3460  178.6410  139.6330 N   0  0  0  0  0  0  0  0  0  0  0  0
  188.2950  177.8020  140.9040 C   0  0  0  0  0  0  0  0  0  0  0  0
  187.5030  178.0390  139.6530 C   0  0  0  0  0  0  0  0  0  0  0  0
  189.3820  176.8440  138.4340 C   0  0  1  0  0  3  0  0  0  0  0  0
  193.8790  175.2470  136.6960 C   0  0  0  0  0  3  0  0  0  0  0  0
  189.9370  177.6390  145.7140 C   0  0  0  0  0  2  0  0  0  0  0  0
  188.4230  177.5710  143.3270 C   0  0  0  0  0  0  0  0  0  0  0  0
  193.4520  175.7000  137.9470 C   0  0  0  0  0  3  0  0  0  0  0  0
  190.5990  177.0360  144.4750 C   0  0  0  0  0  2  0  0  0  0  0  0
  188.1060  177.6790  138.3150 C   0  0  1  0  0  3  0  0  0  0  0  0
  189.9920  176.7390  137.1530 O   0  0  0  0  0  0  0  0  0  0  0  0
  190.4120  177.2730  141.9870 C   0  0  0  0  0  3  0  0  0  0  0  0
  192.7690  177.6930  140.0290 C   0  0  0  0  0  1  0  0  0  0  0  0
  191.7310  175.8340  135.7510 C   0  0  0  0  0  3  0  0  0  0  0  0
  190.3480  177.4650  139.4510 C   0  0  1  0  0  3  0  0  0  0  0  0
  191.2950  176.2730  137.0040 C   0  0  0  0  0  0  0  0  0  0  0  0
  186.9460  177.8100  136.4290 C   0  0  0  0  0  1  0  0  0  0  0  0
  187.1700  176.9890  137.5370 O   0  0  0  0  0  0  0  0  0  0  0  0
  187.8030  177.8280  146.9810 C   0  0  0  0  0  2  0  0  0  0  0  0
  186.3060  177.5840  146.9330 C   0  0  0  0  0  2  0  0  0  0  0  0
  185.9740  179.8670  147.5210 O   0  0  0  0  0  1  0  0  0  0  0  0
  184.4680  179.0000  146.0250 O   0  0  0  0  0  0  0  0  0  0  0  0
  185.5870  178.8830  146.8390 C   0  0  0  0  0  0  0  0  0  0  0  0
  1 28  1  1  0  0  0
  2 11  2  0  0  0  0
  2 21  1  0  0  0  0
  4 22  1  6  0  0  0
  5  4  1  0  0  0  0
  6 16  1  0  0  0  0
  6 18  1  0  0  0  0
  7 16  2  0  0  0  0
  8 23  2  0  0  0  0
  8 14  1  0  0  0  0
  9  1  1  0  0  0  0
 10 12  2  0  0  0  0
 10  3  1  0  0  0  0
 11  7  1  0  0  0  0
 12 11  1  0  0  0  0
 13 20  1  6  0  0  0
 13 24  1  0  0  0  0
 14 17  2  0  0  0  0
 15  1  1  0  0  0  0
 16  9  1  0  0  0  0
 17  5  1  0  0  0  0
 18 15  1  0  0  0  0
 19 27  1  6  0  0  0
 19 13  1  0  0  0  0
 19 12  1  0  0  0  0
 21  6  2  0  0  0  0
 23 25  1  0  0  0  0
 24  4  1  0  0  0  0
 24  2  1  1  0  0  0
 25 20  1  0  0  0  0
 25  5  2  0  0  0  0
 26 27  1  0  0  0  0
 29 28  1  0  0  0  0
 31 32  2  0  0  0  0
 32 29  1  0  0  0  0
 32 30  1  0  0  0  0
M  END
>  <MODEL>
3

>  <REMARK>
 VINA RESULT:      -9.1      3.873      8.031
  Name = 
  4 active torsions:
  status: ('A' for Active; 'I' for Inactive)
    1  A    between atoms: C_2  and  C_24
    2  A    between atoms: C_10  and  C_20
    3  A    between atoms: C_10  and  C_24
    4  A    between atoms: O_25  and  C_26
                            x       y       z     vdW  Elec       q    Type
                         _______ _______ _______ _____ _____    ______ ____

>  <TORSDO>
F 4

$$$$
=
 OpenBabel10262421423D

 32 36  0  0  1  0  0  0  0  0999 V2000
  181.0640  178.2910  139.8430 C   0  0  1  0  0  3  0  0  0  0  0  0
  185.4850  178.4850  142.3990 C   0  0  0  0  0  0  0  0  0  0  0  0
  186.9200  178.6720  138.2500 C   0  0  0  0  0  1  0  0  0  0  0  0
  186.0720  178.3360  144.8890 C   0  0  1  0  0  3  0  0  0  0  0  0
  187.1360  177.8830  145.8640 C   0  0  0  0  0  0  0  0  0  0  0  0
  183.1260  178.5950  141.8030 C   0  0  0  0  0  0  0  0  0  0  0  0
  184.7910  178.2430  140.0830 C   0  0  0  0  0  3  0  0  0  0  0  0
  189.1060  177.0690  147.6910 C   0  0  0  0  0  3  0  0  0  0  0  0
  182.4490  178.3220  139.4870 O   0  0  0  0  0  0  0  0  0  0  0  0
  187.7020  178.3230  139.4250 N   0  0  0  0  0  0  0  0  0  0  0  0
  185.8230  178.3150  141.0340 C   0  0  0  0  0  0  0  0  0  0  0  0
  187.2600  178.1500  140.6410 C   0  0  0  0  0  0  0  0  0  0  0  0
  187.6820  177.5440  143.0690 C   0  0  1  0  0  3  0  0  0  0  0  0
  187.8230  177.3920  148.1440 C   0  0  0  0  0  3  0  0  0  0  0  0
  180.8110  179.1790  141.0580 C   0  0  0  0  0  2  0  0  0  0  0  0
  183.4550  178.3760  140.4570 C   0  0  0  0  0  0  0  0  0  0  0  0
  186.8420  177.7940  147.2340 C   0  0  0  0  0  3  0  0  0  0  0  0
  181.6900  178.7170  142.2200 C   0  0  0  0  0  2  0  0  0  0  0  0
  188.2950  177.8860  141.7100 C   0  0  1  0  0  3  0  0  0  0  0  0
  188.7110  177.5270  144.0530 O   0  0  0  0  0  0  0  0  0  0  0  0
  184.1360  178.6370  142.7620 C   0  0  0  0  0  3  0  0  0  0  0  0
  185.4410  179.6330  145.3820 C   0  0  0  0  0  1  0  0  0  0  0  0
  189.4000  177.1290  146.3280 C   0  0  0  0  0  3  0  0  0  0  0  0
  186.5860  178.5490  143.4420 C   0  0  1  0  0  3  0  0  0  0  0  0
  188.4150  177.5140  145.4130 C   0  0  0  0  0  0  0  0  0  0  0  0
  190.4100  177.4350  141.2190 C   0  0  0  0  0  1  0  0  0  0  0  0
  189.1450  176.8490  141.3090 O   0  0  0  0  0  0  0  0  0  0  0  0
  180.2170  178.7620  138.6770 C   0  0  0  0  0  2  0  0  0  0  0  0
  181.1060  179.2290  137.5380 C   0  0  0  0  0  2  0  0  0  0  0  0
  181.4030  181.4790  138.2550 O   0  0  0  0  0  1  0  0  0  0  0  0
  180.3430  181.2130  136.2390 O   0  0  0  0  0  0  0  0  0  0  0  0
  180.9720  180.7000  137.3650 C   0  0  0  0  0  0  0  0  0  0  0  0
  1 28  1  6  0  0  0
  1 15  1  0  0  0  0
  2 21  1  0  0  0  0
  3 10  1  0  0  0  0
  4 22  1  1  0  0  0
  4  5  1  0  0  0  0
  5 17  1  0  0  0  0
  6 18  1  0  0  0  0
  6 21  2  0  0  0  0
  7 16  2  0  0  0  0
  7 11  1  0  0  0  0
  8 14  1  0  0  0  0
  9  1  1  0  0  0  0
  9 16  1  0  0  0  0
 10 12  2  0  0  0  0
 11  2  2  0  0  0  0
 12 11  1  0  0  0  0
 12 19  1  0  0  0  0
 13 24  1  0  0  0  0
 13 20  1  1  0  0  0
 15 18  1  0  0  0  0
 16  6  1  0  0  0  0
 17 14  2  0  0  0  0
 19 27  1  6  0  0  0
 19 13  1  0  0  0  0
 20 25  1  0  0  0  0
 23  8  2  0  0  0  0
 24  2  1  6  0  0  0
 24  4  1  0  0  0  0
 25  5  2  0  0  0  0
 25 23  1  0  0  0  0
 26 27  1  0  0  0  0
 29 28  1  0  0  0  0
 31 32  2  0  0  0  0
 32 29  1  0  0  0  0
 32 30  1  0  0  0  0
M  END
>  <MODEL>
4

>  <REMARK>
 VINA RESULT:      -8.4      1.388      1.754
  Name = 
  4 active torsions:
  status: ('A' for Active; 'I' for Inactive)
    1  A    between atoms: C_2  and  C_24
    2  A    between atoms: C_10  and  C_20
    3  A    between atoms: C_10  and  C_24
    4  A    between atoms: O_25  and  C_26
                            x       y       z     vdW  Elec       q    Type
                         _______ _______ _______ _____ _____    ______ ____

>  <TORSDO>
F 4

$$$$
=
 OpenBabel10262421423D

 32 36  0  0  1  0  0  0  0  0999 V2000
  180.5600  178.3240  140.5200 C   0  0  1  0  0  3  0  0  0  0  0  0
  185.1990  178.5260  142.6550 C   0  0  0  0  0  0  0  0  0  0  0  0
  186.2340  178.8310  138.3950 C   0  0  0  0  0  1  0  0  0  0  0  0
  186.0190  178.3280  145.0740 C   0  0  1  0  0  3  0  0  0  0  0  0
  187.1760  177.8680  145.9340 C   0  0  0  0  0  0  0  0  0  0  0  0
  182.7930  178.6140  142.2850 C   0  0  0  0  0  0  0  0  0  0  0  0
  184.2930  178.3270  140.4090 C   0  0  0  0  0  3  0  0  0  0  0  0
  189.3190  177.0420  147.5480 C   0  0  0  0  0  3  0  0  0  0  0  0
  181.9040  178.3840  140.0370 O   0  0  0  0  0  0  0  0  0  0  0  0
  187.1280  178.4660  139.4830 N   0  0  0  0  0  0  0  0  0  0  0  0
  185.4080  178.3930  141.2600 C   0  0  0  0  0  0  0  0  0  0  0  0
  186.8050  178.2580  140.7300 C   0  0  0  0  0  0  0  0  0  0  0  0
  187.4610  177.6030  143.0930 C   0  0  1  0  0  3  0  0  0  0  0  0
  188.0810  177.3350  148.1260 C   0  0  0  0  0  3  0  0  0  0  0  0
  180.4110  179.1800  141.7750 C   0  0  0  0  0  2  0  0  0  0  0  0
  182.9960  178.4300  140.9100 C   0  0  0  0  0  0  0  0  0  0  0  0
  187.0140  177.7440  147.3230 C   0  0  0  0  0  3  0  0  0  0  0  0
  181.4010  178.7040  142.8390 C   0  0  0  0  0  2  0  0  0  0  0  0
  187.9390  177.9850  141.6900 C   0  0  1  0  0  3  0  0  0  0  0  0
  188.5780  177.5790  143.9750 O   0  0  0  0  0  0  0  0  0  0  0  0
  183.8880  178.6480  143.1460 C   0  0  0  0  0  3  0  0  0  0  0  0
  185.4210  179.6030  145.6560 C   0  0  0  0  0  1  0  0  0  0  0  0
  189.4830  177.1380  146.1640 C   0  0  0  0  0  3  0  0  0  0  0  0
  186.3920  178.5820  143.5920 C   0  0  1  0  0  3  0  0  0  0  0  0
  188.4120  177.5300  145.3560 C   0  0  0  0  0  0  0  0  0  0  0  0
  190.0100  177.5720  141.0150 C   0  0  0  0  0  1  0  0  0  0  0  0
  188.7610  176.9720  141.1870 O   0  0  0  0  0  0  0  0  0  0  0  0
  179.6000  178.8090  139.4520 C   0  0  0  0  0  2  0  0  0  0  0  0
  180.2100  178.6160  138.0740 C   0  0  0  0  0  2  0  0  0  0  0  0
  178.9310  177.0910  136.7670 O   0  0  0  0  0  0  0  0  0  0  0  0
  180.6230  176.1610  138.0050 O   0  0  0  0  0  1  0  0  0  0  0  0
  179.8890  177.2550  137.5680 C   0  0  0  0  0  0  0  0  0  0  0  0
  1 28  1  6  0  0  0
  1 15  1  0  0  0  0
  2 21  1  0  0  0  0
  3 10  1  0  0  0  0
  4 22  1  1  0  0  0
  4  5  1  0  0  0  0
  5 17  1  0  0  0  0
  6 18  1  0  0  0  0
  6 21  2  0  0  0  0
  7 16  2  0  0  0  0
  7 11  1  0  0  0  0
  8 14  1  0  0  0  0
  9  1  1  0  0  0  0
  9 16  1  0  0  0  0
 10 12  2  0  0  0  0
 11  2  2  0  0  0  0
 12 11  1  0  0  0  0
 12 19  1  0  0  0  0
 13 24  1  0  0  0  0
 13 20  1  1  0  0  0
 15 18  1  0  0  0  0
 16  6  1  0  0  0  0
 17 14  2  0  0  0  0
 19 27  1  6  0  0  0
 19 13  1  0  0  0  0
 20 25  1  0  0  0  0
 23  8  2  0  0  0  0
 24  2  1  6  0  0  0
 24  4  1  0  0  0  0
 25  5  2  0  0  0  0
 25 23  1  0  0  0  0
 26 27  1  0  0  0  0
 29 28  1  0  0  0  0
 30 32  2  0  0  0  0
 32 31  1  0  0  0  0
 32 29  1  0  0  0  0
M  END
>  <MODEL>
5

>  <REMARK>
 VINA RESULT:      -8.3      1.527      1.919
  Name = 
  4 active torsions:
  status: ('A' for Active; 'I' for Inactive)
    1  A    between atoms: C_2  and  C_24
    2  A    between atoms: C_10  and  C_20
    3  A    between atoms: C_10  and  C_24
    4  A    between atoms: O_25  and  C_26
                            x       y       z     vdW  Elec       q    Type
                         _______ _______ _______ _____ _____    ______ ____

>  <TORSDO>
F 4

$$$$
=
 OpenBabel10262421423D

 32 36  0  0  1  0  0  0  0  0999 V2000
  191.1880  175.9300  138.2530 C   0  0  1  0  0  3  0  0  0  0  0  0
  187.9860  177.8840  141.7240 C   0  0  0  0  0  0  0  0  0  0  0  0
  191.6780  177.5750  144.0860 C   0  0  0  0  0  1  0  0  0  0  0  0
  185.4840  178.4360  141.6780 C   0  0  1  0  0  3  0  0  0  0  0  0
  184.2390  178.5140  142.5330 C   0  0  0  0  0  0  0  0  0  0  0  0
  189.0280  177.2050  139.6300 C   0  0  0  0  0  0  0  0  0  0  0  0
  190.2380  176.9720  141.7120 C   0  0  0  0  0  3  0  0  0  0  0  0
  181.9190  178.6880  144.1040 C   0  0  0  0  0  3  0  0  0  0  0  0
  191.2680  176.2680  139.6400 O   0  0  0  0  0  0  0  0  0  0  0  0
  190.3250  177.7150  144.6020 N   0  0  0  0  0  0  0  0  0  0  0  0
  189.1640  177.5280  142.4260 C   0  0  0  0  0  0  0  0  0  0  0  0
  189.2160  177.6880  143.9160 C   0  0  0  0  0  0  0  0  0  0  0  0
  186.6800  177.7550  143.8310 C   0  0  1  0  0  3  0  0  0  0  0  0
  181.8230  178.7310  142.7100 C   0  0  0  0  0  3  0  0  0  0  0  0
  190.3300  176.9510  137.5100 C   0  0  0  0  0  2  0  0  0  0  0  0
  190.1750  176.8040  140.3300 C   0  0  0  0  0  0  0  0  0  0  0  0
  182.9780  178.6420  141.9280 C   0  0  0  0  0  3  0  0  0  0  0  0
  188.9410  177.0090  138.1450 C   0  0  0  0  0  2  0  0  0  0  0  0
  187.9390  177.9550  144.6770 C   0  0  1  0  0  3  0  0  0  0  0  0
  185.5510  178.2340  144.5540 O   0  0  0  0  0  0  0  0  0  0  0  0
  187.9420  177.7280  140.3280 C   0  0  0  0  0  3  0  0  0  0  0  0
  185.4900  179.5810  140.6720 C   0  0  0  0  0  1  0  0  0  0  0  0
  183.1660  178.5360  144.7140 C   0  0  0  0  0  3  0  0  0  0  0  0
  186.8090  178.4710  142.4820 C   0  0  1  0  0  3  0  0  0  0  0  0
  184.3210  178.4290  143.9340 C   0  0  0  0  0  0  0  0  0  0  0  0
  187.7570  178.0170  146.8860 C   0  0  0  0  0  1  0  0  0  0  0  0
  187.8740  177.1360  145.8090 O   0  0  0  0  0  0  0  0  0  0  0  0
  192.5770  175.8890  137.6460 C   0  0  0  0  0  2  0  0  0  0  0  0
  193.0820  174.4580  137.5930 C   0  0  0  0  0  2  0  0  0  0  0  0
  195.0140  173.6400  138.7190 O   0  0  0  0  0  1  0  0  0  0  0  0
  195.3900  175.3000  137.1820 O   0  0  0  0  0  0  0  0  0  0  0  0
  194.5450  174.4300  137.8590 C   0  0  0  0  0  0  0  0  0  0  0  0
  1 28  1  6  0  0  0
  1  9  1  0  0  0  0
  2 11  1  0  0  0  0
  3 10  1  0  0  0  0
  4 22  1  6  0  0  0
  4 24  1  0  0  0  0
  4  5  1  0  0  0  0
  5 25  1  0  0  0  0
  6 21  1  0  0  0  0
  6 16  2  0  0  0  0
  7 11  2  0  0  0  0
  8 23  1  0  0  0  0
  9 16  1  0  0  0  0
 11 12  1  0  0  0  0
 12 10  2  0  0  0  0
 12 19  1  0  0  0  0
 13 20  1  1  0  0  0
 13 19  1  0  0  0  0
 14  8  2  0  0  0  0
 15 18  1  0  0  0  0
 15  1  1  0  0  0  0
 16  7  1  0  0  0  0
 17  5  2  0  0  0  0
 17 14  1  0  0  0  0
 18  6  1  0  0  0  0
 19 27  1  1  0  0  0
 21  2  2  0  0  0  0
 24  2  1  6  0  0  0
 24 13  1  0  0  0  0
 25 20  1  0  0  0  0
 25 23  2  0  0  0  0
 27 26  1  0  0  0  0
 29 28  1  0  0  0  0
 29 32  1  0  0  0  0
 31 32  2  0  0  0  0
 32 30  1  0  0  0  0
M  END
>  <MODEL>
6

>  <REMARK>
 VINA RESULT:      -8.3      3.375      9.013
  Name = 
  4 active torsions:
  status: ('A' for Active; 'I' for Inactive)
    1  A    between atoms: C_2  and  C_24
    2  A    between atoms: C_10  and  C_20
    3  A    between atoms: C_10  and  C_24
    4  A    between atoms: O_25  and  C_26
                            x       y       z     vdW  Elec       q    Type
                         _______ _______ _______ _____ _____    ______ ____

>  <TORSDO>
F 4

$$$$
=
 OpenBabel10262421423D

 32 36  0  0  1  0  0  0  0  0999 V2000
  182.0590  178.5790  143.0460 C   0  0  1  0  0  3  0  0  0  0  0  0
  187.1140  178.0480  143.5760 C   0  0  0  0  0  0  0  0  0  0  0  0
  186.8000  178.6970  139.2410 C   0  0  0  0  0  1  0  0  0  0  0  0
  188.6140  177.5030  145.5810 C   0  0  1  0  0  3  0  0  0  0  0  0
  189.9060  176.8310  145.9880 C   0  0  0  0  0  0  0  0  0  0  0  0
  184.7490  178.4350  144.0110 C   0  0  0  0  0  0  0  0  0  0  0  0
  185.5340  178.1920  141.7350 C   0  0  0  0  0  3  0  0  0  0  0  0
  192.3120  175.6090  146.7630 C   0  0  0  0  0  3  0  0  0  0  0  0
  183.1800  178.5460  142.1600 O   0  0  0  0  0  0  0  0  0  0  0  0
  187.9300  178.1230  139.9550 N   0  0  0  0  0  0  0  0  0  0  0  0
  186.8580  178.0440  142.1830 C   0  0  0  0  0  0  0  0  0  0  0  0
  187.9870  177.8180  141.2220 C   0  0  0  0  0  0  0  0  0  0  0  0
  189.2520  176.8450  143.1960 C   0  0  1  0  0  3  0  0  0  0  0  0
  191.3690  175.9700  147.7290 C   0  0  0  0  0  3  0  0  0  0  0  0
  182.4280  179.3060  144.3370 C   0  0  0  0  0  2  0  0  0  0  0  0
  184.4860  178.3800  142.6340 C   0  0  0  0  0  0  0  0  0  0  0  0
  190.1700  176.5750  147.3430 C   0  0  0  0  0  3  0  0  0  0  0  0
  183.6250  178.6140  144.9890 C   0  0  0  0  0  2  0  0  0  0  0  0
  189.3150  177.3220  141.7440 C   0  0  1  0  0  3  0  0  0  0  0  0
  190.5740  176.6050  143.6660 O   0  0  0  0  0  0  0  0  0  0  0  0
  186.0520  178.2570  144.4720 C   0  0  0  0  0  3  0  0  0  0  0  0
  188.4070  178.7650  146.4110 C   0  0  0  0  0  1  0  0  0  0  0  0
  192.0480  175.8350  145.4100 C   0  0  0  0  0  3  0  0  0  0  0  0
  188.5360  177.8740  144.0790 C   0  0  1  0  0  3  0  0  0  0  0  0
  190.8420  176.4250  145.0200 C   0  0  0  0  0  0  0  0  0  0  0  0
  190.9370  176.8040  140.3230 C   0  0  0  0  0  1  0  0  0  0  0  0
  189.7930  176.2860  140.9340 O   0  0  0  0  0  0  0  0  0  0  0  0
  180.8900  179.2780  142.3810 C   0  0  0  0  0  2  0  0  0  0  0  0
  181.0160  179.1850  140.8700 C   0  0  0  0  0  2  0  0  0  0  0  0
  180.5100  180.5700  139.0010 O   0  0  0  0  0  0  0  0  0  0  0  0
  179.6910  181.2900  141.0190 O   0  0  0  0  0  1  0  0  0  0  0  0
  180.3860  180.3750  140.2390 C   0  0  0  0  0  0  0  0  0  0  0  0
  1 28  1  6  0  0  0
  1 15  1  0  0  0  0
  2 21  1  0  0  0  0
  3 10  1  0  0  0  0
  4  5  1  0  0  0  0
  4 22  1  1  0  0  0
  5 17  1  0  0  0  0
  6 21  2  0  0  0  0
  6 18  1  0  0  0  0
  7 11  1  0  0  0  0
  7 16  2  0  0  0  0
  8 14  1  0  0  0  0
  9 16  1  0  0  0  0
  9  1  1  0  0  0  0
 10 12  2  0  0  0  0
 11  2  2  0  0  0  0
 12 19  1  0  0  0  0
 12 11  1  0  0  0  0
 13 20  1  1  0  0  0
 13 24  1  0  0  0  0
 15 18  1  0  0  0  0
 16  6  1  0  0  0  0
 17 14  2  0  0  0  0
 19 27  1  6  0  0  0
 19 13  1  0  0  0  0
 20 25  1  0  0  0  0
 23  8  2  0  0  0  0
 24  2  1  6  0  0  0
 24  4  1  0  0  0  0
 25 23  1  0  0  0  0
 25  5  2  0  0  0  0
 26 27  1  0  0  0  0
 29 28  1  0  0  0  0
 30 32  2  0  0  0  0
 32 29  1  0  0  0  0
 32 31  1  0  0  0  0
M  END
>  <MODEL>
7

>  <REMARK>
 VINA RESULT:      -8.3      1.441      2.211
  Name = 
  4 active torsions:
  status: ('A' for Active; 'I' for Inactive)
    1  A    between atoms: C_2  and  C_24
    2  A    between atoms: C_10  and  C_20
    3  A    between atoms: C_10  and  C_24
    4  A    between atoms: O_25  and  C_26
                            x       y       z     vdW  Elec       q    Type
                         _______ _______ _______ _____ _____    ______ ____

>  <TORSDO>
F 4

$$$$
=
 OpenBabel10262421423D

 32 36  0  0  1  0  0  0  0  0999 V2000
  190.1240  176.4100  143.5440 C   0  0  1  0  0  3  0  0  0  0  0  0
  185.5700  178.3710  142.3090 C   0  0  0  0  0  0  0  0  0  0  0  0
  185.5890  178.9990  146.6580 C   0  0  0  0  0  1  0  0  0  0  0  0
  184.2720  178.5230  140.1040 C   0  0  1  0  0  3  0  0  0  0  0  0
  182.8820  178.5440  139.5090 C   0  0  0  0  0  0  0  0  0  0  0  0
  187.8570  177.5400  142.2140 C   0  0  0  0  0  0  0  0  0  0  0  0
  186.7630  177.8210  144.3530 C   0  0  0  0  0  3  0  0  0  0  0  0
  180.3110  178.6050  138.3830 C   0  0  0  0  0  3  0  0  0  0  0  0
  189.0240  176.9680  144.2650 O   0  0  0  0  0  0  0  0  0  0  0  0
  184.4270  179.0110  145.7830 N   0  0  0  0  0  0  0  0  0  0  0  0
  185.6070  178.3120  143.7240 C   0  0  0  0  0  0  0  0  0  0  0  0
  184.3950  178.7090  144.5130 C   0  0  0  0  0  0  0  0  0  0  0  0
  183.0880  178.3760  142.3640 C   0  0  1  0  0  3  0  0  0  0  0  0
  181.4280  178.4150  137.5640 C   0  0  0  0  0  3  0  0  0  0  0  0
  190.3290  177.1590  142.2300 C   0  0  0  0  0  2  0  0  0  0  0  0
  187.8770  177.4330  143.6120 C   0  0  0  0  0  0  0  0  0  0  0  0
  182.7070  178.3820  138.1250 C   0  0  0  0  0  3  0  0  0  0  0  0
  189.0430  177.1040  141.4050 C   0  0  0  0  0  2  0  0  0  0  0  0
  183.0750  178.8950  143.8030 C   0  0  1  0  0  3  0  0  0  0  0  0
  181.8910  178.7850  141.7110 O   0  0  0  0  0  0  0  0  0  0  0  0
  186.7060  177.9950  141.5730 C   0  0  0  0  0  3  0  0  0  0  0  0
  185.1740  179.4840  139.3380 C   0  0  0  0  0  1  0  0  0  0  0  0
  180.4720  178.7410  139.7630 C   0  0  0  0  0  3  0  0  0  0  0  0
  184.3230  178.8840  141.6110 C   0  0  1  0  0  3  0  0  0  0  0  0
  181.7500  178.6910  140.3290 C   0  0  0  0  0  0  0  0  0  0  0  0
  180.9050  179.0090  144.2430 C   0  0  0  0  0  1  0  0  0  0  0  0
  182.0520  178.2620  144.5170 O   0  0  0  0  0  0  0  0  0  0  0  0
  191.3870  176.4850  144.3800 C   0  0  0  0  0  2  0  0  0  0  0  0
  191.0760  177.0690  145.7470 C   0  0  0  0  0  2  0  0  0  0  0  0
  192.4000  175.2530  146.5330 O   0  0  0  0  0  0  0  0  0  0  0  0
  192.0270  176.9370  148.0450 O   0  0  0  0  0  1  0  0  0  0  0  0
  191.8790  176.3710  146.7860 C   0  0  0  0  0  0  0  0  0  0  0  0
  1  9  1  0  0  0  0
  1 28  1  1  0  0  0
  2 11  1  0  0  0  0
  4 22  1  6  0  0  0
  4 24  1  0  0  0  0
  5  4  1  0  0  0  0
  5 25  1  0  0  0  0
  6 16  2  0  0  0  0
  8 23  1  0  0  0  0
 10  3  1  0  0  0  0
 11  7  2  0  0  0  0
 11 12  1  0  0  0  0
 12 10  2  0  0  0  0
 13 20  1  6  0  0  0
 13 19  1  0  0  0  0
 14 17  1  0  0  0  0
 14  8  2  0  0  0  0
 15  1  1  0  0  0  0
 16  9  1  0  0  0  0
 16  7  1  0  0  0  0
 17  5  2  0  0  0  0
 18  6  1  0  0  0  0
 18 15  1  0  0  0  0
 19 12  1  0  0  0  0
 19 27  1  1  0  0  0
 21  6  1  0  0  0  0
 21  2  2  0  0  0  0
 23 25  2  0  0  0  0
 24  2  1  1  0  0  0
 24 13  1  0  0  0  0
 25 20  1  0  0  0  0
 26 27  1  0  0  0  0
 28 29  1  0  0  0  0
 29 32  1  0  0  0  0
 30 32  2  0  0  0  0
 32 31  1  0  0  0  0
M  END
>  <MODEL>
8

>  <REMARK>
 VINA RESULT:      -8.2      2.308      9.163
  Name = 
  4 active torsions:
  status: ('A' for Active; 'I' for Inactive)
    1  A    between atoms: C_2  and  C_24
    2  A    between atoms: C_10  and  C_20
    3  A    between atoms: C_10  and  C_24
    4  A    between atoms: O_25  and  C_26
                            x       y       z     vdW  Elec       q    Type
                         _______ _______ _______ _____ _____    ______ ____

>  <TORSDO>
F 4

$$$$
=
 OpenBabel10262421423D

 32 36  0  0  1  0  0  0  0  0999 V2000
  188.8160  176.1230  136.1460 C   0  0  1  0  0  3  0  0  0  0  0  0
  188.4290  177.7520  140.9740 C   0  0  0  0  0  0  0  0  0  0  0  0
  192.7870  177.3450  140.5850 C   0  0  0  0  0  1  0  0  0  0  0  0
  186.4280  178.2560  142.4930 C   0  0  1  0  0  3  0  0  0  0  0  0
  185.9580  178.2460  143.9310 C   0  0  0  0  0  0  0  0  0  0  0  0
  187.9690  177.2500  138.6350 C   0  0  0  0  0  0  0  0  0  0  0  0
  190.1860  176.8890  139.5340 C   0  0  0  0  0  3  0  0  0  0  0  0
  185.0710  178.2570  146.5940 C   0  0  0  0  0  3  0  0  0  0  0  0
  189.7300  176.3600  137.2190 O   0  0  0  0  0  0  0  0  0  0  0  0
  192.0280  177.4200  141.8230 N   0  0  0  0  0  0  0  0  0  0  0  0
  189.7800  177.3690  140.7910 C   0  0  0  0  0  0  0  0  0  0  0  0
  190.7290  177.4210  141.9510 C   0  0  0  0  0  0  0  0  0  0  0  0
  188.6640  177.4430  143.4260 C   0  0  1  0  0  3  0  0  0  0  0  0
  184.1520  178.4000  145.5510 C   0  0  0  0  0  3  0  0  0  0  0  0
  187.7130  177.1780  136.1490 C   0  0  0  0  0  2  0  0  0  0  0  0
  189.2940  176.8220  138.4660 C   0  0  0  0  0  0  0  0  0  0  0  0
  184.5930  178.3920  144.2260 C   0  0  0  0  0  3  0  0  0  0  0  0
  186.9940  177.1610  137.4980 C   0  0  0  0  0  2  0  0  0  0  0  0
  190.1830  177.6060  143.3470 C   0  0  1  0  0  3  0  0  0  0  0  0
  188.2180  177.8450  144.7170 O   0  0  0  0  0  0  0  0  0  0  0  0
  187.5430  177.6980  139.8840 C   0  0  0  0  0  3  0  0  0  0  0  0
  185.8550  179.4710  141.7730 C   0  0  0  0  0  1  0  0  0  0  0  0
  186.4270  178.0850  146.3110 C   0  0  0  0  0  3  0  0  0  0  0  0
  187.9690  178.2590  142.3290 C   0  0  1  0  0  3  0  0  0  0  0  0
  186.8690  178.0600  144.9850 C   0  0  0  0  0  0  0  0  0  0  0  0
  191.3760  177.5010  145.2130 C   0  0  0  0  0  1  0  0  0  0  0  0
  190.7940  176.7050  144.2250 O   0  0  0  0  0  0  0  0  0  0  0  0
  189.5510  176.1540  134.8200 C   0  0  0  0  0  2  0  0  0  0  0  0
  190.2770  174.8400  134.5940 C   0  0  0  0  0  2  0  0  0  0  0  0
  192.1580  174.0050  135.7900 O   0  0  0  0  0  1  0  0  0  0  0  0
  192.4220  176.0810  134.8520 O   0  0  0  0  0  0  0  0  0  0  0  0
  191.6710  174.9410  135.1040 C   0  0  0  0  0  0  0  0  0  0  0  0
  1 28  1  6  0  0  0
  1 15  1  0  0  0  0
  1  9  1  0  0  0  0
  3 10  1  0  0  0  0
  4 22  1  1  0  0  0
  4  5  1  0  0  0  0
  5 17  2  0  0  0  0
  5 25  1  0  0  0  0
  6 21  1  0  0  0  0
  7 11  2  0  0  0  0
  9 16  1  0  0  0  0
 10 12  2  0  0  0  0
 11  2  1  0  0  0  0
 11 12  1  0  0  0  0
 12 19  1  0  0  0  0
 13 20  1  1  0  0  0
 14  8  2  0  0  0  0
 15 18  1  0  0  0  0
 16  6  2  0  0  0  0
 16  7  1  0  0  0  0
 17 14  1  0  0  0  0
 18  6  1  0  0  0  0
 19 13  1  0  0  0  0
 19 27  1  1  0  0  0
 20 25  1  0  0  0  0
 21  2  2  0  0  0  0
 23  8  1  0  0  0  0
 24  2  1  6  0  0  0
 24  4  1  0  0  0  0
 24 13  1  0  0  0  0
 25 23  2  0  0  0  0
 27 26  1  0  0  0  0
 29 28  1  0  0  0  0
 29 32  1  0  0  0  0
 31 32  2  0  0  0  0
 32 30  1  0  0  0  0
M  END
>  <MODEL>
9

>  <REMARK>
 VINA RESULT:      -8.1      4.336      7.806
  Name = 
  4 active torsions:
  status: ('A' for Active; 'I' for Inactive)
    1  A    between atoms: C_2  and  C_24
    2  A    between atoms: C_10  and  C_20
    3  A    between atoms: C_10  and  C_24
    4  A    between atoms: O_25  and  C_26
                            x       y       z     vdW  Elec       q    Type
                         _______ _______ _______ _____ _____    ______ ____

>  <TORSDO>
F 4

$$$$
