=
 OpenBabel10262423223D

 34 38  0  0  0  0  0  0  0  0999 V2000
  188.2720  177.6560  145.2120 C   0  0  0  0  0  0  0  0  0  0  0  0
  191.6180  177.4410  143.5280 C   0  0  0  0  0  3  0  0  0  0  0  0
  190.9960  176.5900  145.7010 C   0  0  0  0  0  2  0  0  0  0  0  0
  186.0730  178.3560  146.0230 C   0  0  0  0  0  0  0  0  0  0  0  0
  186.9490  178.0630  144.9710 C   0  0  0  0  0  3  0  0  0  0  0  0
  187.8450  177.8600  147.6070 C   0  0  0  0  0  0  0  0  0  0  0  0
  188.2560  177.8000  148.9350 O   0  0  0  0  0  1  0  0  0  0  0  0
  186.5320  178.2530  147.3340 C   0  0  0  0  0  3  0  0  0  0  0  0
  190.1380  177.1320  146.8060 C   0  0  0  0  0  0  0  0  0  0  0  0
  188.7350  177.5620  146.5460 C   0  0  0  0  0  0  0  0  0  0  0  0
  190.6130  177.1520  147.9700 O   0  0  0  0  0  0  0  0  0  0  0  0
  191.4140  178.0640  142.1880 C   0  0  0  0  0  2  0  0  0  0  0  0
  190.6190  177.1630  141.2970 C   0  0  0  0  0  0  0  0  0  0  0  0
  189.3540  176.8340  141.5930 C   0  0  0  0  0  3  0  0  0  0  0  0
  190.6230  177.1570  144.3740 C   0  0  0  0  0  0  0  0  0  0  0  0
  188.6470  177.1750  142.8470 C   0  0  0  0  0  3  0  0  0  0  0  0
  189.1820  177.3740  144.0690 C   0  0  0  0  0  0  0  0  0  0  0  0
  191.2140  176.7170  140.0220 C   0  0  0  0  0  0  0  0  0  0  0  0
  192.4980  177.1280  139.6710 O   0  0  0  0  0  1  0  0  0  0  0  0
  190.5550  176.0010  139.2190 O   0  0  0  0  0  0  0  0  0  0  0  0
  184.7660  178.8140  145.8110 O   0  0  0  0  0  0  0  0  0  0  0  0
  184.2450  178.7820  142.1150 C   0  0  0  0  0  2  0  0  0  0  0  0
  182.7790  178.9990  144.5670 C   0  0  0  0  0  3  0  0  0  0  0  0
  180.7370  177.8700  141.1120 N   0  0  0  0  0  0  0  0  0  0  0  0
  180.0870  177.2370  140.0000 C   0  0  0  0  0  0  0  0  0  0  0  0
  182.1540  178.0940  141.0670 C   0  0  0  0  0  3  0  0  0  0  0  0
  178.9310  176.7560  140.1340 O   0  0  0  0  0  1  0  0  0  0  0  0
  182.7820  178.6480  142.1060 C   0  0  0  0  0  0  0  0  0  0  0  0
  180.7150  177.1710  138.7620 O   0  0  0  0  0  0  0  0  0  0  0  0
  180.6160  178.6320  143.3980 C   0  0  0  0  0  3  0  0  0  0  0  0
  182.0090  179.1820  143.2890 C   0  0  0  0  0  0  0  0  0  0  0  0
  180.0260  178.0530  142.3480 C   0  0  0  0  0  3  0  0  0  0  0  0
  184.1190  178.9430  144.5730 C   0  0  0  0  0  0  0  0  0  0  0  0
  184.8720  178.9390  143.2870 C   0  0  0  0  0  3  0  0  0  0  0  0
  1 10  1  0  0  0  0
  2 15  2  0  0  0  0
  3  9  1  0  0  0  0
  4  8  2  0  0  0  0
  5  1  2  0  0  0  0
  5  4  1  0  0  0  0
  6  7  1  0  0  0  0
  8  6  1  0  0  0  0
  9 11  2  0  0  0  0
 10  9  1  0  0  0  0
 10  6  2  0  0  0  0
 12  2  1  0  0  0  0
 13 14  2  0  0  0  0
 13 12  1  0  0  0  0
 14 16  1  0  0  0  0
 15  3  1  0  0  0  0
 16 17  2  0  0  0  0
 17 15  1  0  0  0  0
 17  1  1  0  0  0  0
 18 13  1  0  0  0  0
 19 18  1  0  0  0  0
 20 18  2  0  0  0  0
 21  4  1  0  0  0  0
 22 34  1  0  0  0  0
 23 33  1  0  0  0  0
 24 32  1  0  0  0  0
 25 27  1  0  0  0  0
 25 24  1  0  0  0  0
 26 24  1  0  0  0  0
 26 28  2  0  0  0  0
 28 22  1  0  0  0  0
 28 31  1  0  0  0  0
 29 25  2  0  0  0  0
 31 30  1  0  0  0  0
 31 23  2  0  0  0  0
 32 30  2  0  0  0  0
 33 21  1  0  0  0  0
 34 33  2  0  0  0  0
M  END
>  <MODEL>
1

>  <REMARK>
 VINA RESULT:     -11.8      0.000      0.000
  Name = 
  3 active torsions:
  status: ('A' for Active; 'I' for Inactive)
    1  A    between atoms: C_3  and  C_25
    2  A    between atoms: C_8  and  O_18
    3  A    between atoms: O_18  and  C_30
                            x       y       z     vdW  Elec       q    Type
                         _______ _______ _______ _____ _____    ______ ____

>  <TORSDO>
F 3

$$$$
=
 OpenBabel10262423223D

 34 38  0  0  0  0  0  0  0  0999 V2000
  187.0430  178.0840  143.7450 C   0  0  0  0  0  0  0  0  0  0  0  0
  188.4940  177.9540  147.2030 C   0  0  0  0  0  3  0  0  0  0  0  0
  186.1930  177.6250  146.5490 C   0  0  0  0  0  2  0  0  0  0  0  0
  186.5280  178.6210  141.4150 C   0  0  0  0  0  0  0  0  0  0  0  0
  187.4300  178.2000  142.3990 C   0  0  0  0  0  3  0  0  0  0  0  0
  184.8120  178.8480  143.1180 C   0  0  0  0  0  0  0  0  0  0  0  0
  183.5050  179.2070  143.4340 O   0  0  0  0  0  1  0  0  0  0  0  0
  185.2240  178.9440  141.7860 C   0  0  0  0  0  3  0  0  0  0  0  0
  185.3070  178.3000  145.5440 C   0  0  0  0  0  0  0  0  0  0  0  0
  185.7200  178.4210  144.1170 C   0  0  0  0  0  0  0  0  0  0  0  0
  184.1780  178.7020  145.9240 O   0  0  0  0  0  0  0  0  0  0  0  0
  189.9590  178.1590  147.0130 C   0  0  0  0  0  2  0  0  0  0  0  0
  190.5950  176.9420  146.4220 C   0  0  0  0  0  0  0  0  0  0  0  0
  190.2620  176.5100  145.1970 C   0  0  0  0  0  3  0  0  0  0  0  0
  187.6360  177.7540  146.1980 C   0  0  0  0  0  0  0  0  0  0  0  0
  189.1740  177.0570  144.3590 C   0  0  0  0  0  3  0  0  0  0  0  0
  188.0350  177.6540  144.7680 C   0  0  0  0  0  0  0  0  0  0  0  0
  191.6790  176.2710  147.1660 C   0  0  0  0  0  0  0  0  0  0  0  0
  192.2730  176.9070  148.2530 O   0  0  0  0  0  1  0  0  0  0  0  0
  192.1090  175.1420  146.8020 O   0  0  0  0  0  0  0  0  0  0  0  0
  186.9000  178.7970  140.0760 O   0  0  0  0  0  0  0  0  0  0  0  0
  188.2740  176.9510  137.1380 C   0  0  0  0  0  2  0  0  0  0  0  0
  188.9070  177.5910  139.8580 C   0  0  0  0  0  3  0  0  0  0  0  0
  191.9960  176.4380  137.3060 N   0  0  0  0  0  0  0  0  0  0  0  0
  193.0850  176.2980  136.3820 C   0  0  0  0  0  0  0  0  0  0  0  0
  190.6560  176.5530  136.8040 C   0  0  0  0  0  3  0  0  0  0  0  0
  194.2680  176.5030  136.7650 O   0  0  0  0  0  1  0  0  0  0  0  0
  189.6330  176.7210  137.6450 C   0  0  0  0  0  0  0  0  0  0  0  0
  192.8500  175.9110  135.0690 O   0  0  0  0  0  0  0  0  0  0  0  0
  191.2610  176.8480  139.5670 C   0  0  0  0  0  3  0  0  0  0  0  0
  189.8350  176.6510  139.1400 C   0  0  0  0  0  0  0  0  0  0  0  0
  192.2620  176.7050  138.6930 C   0  0  0  0  0  3  0  0  0  0  0  0
  187.7290  177.9510  139.3250 C   0  0  0  0  0  0  0  0  0  0  0  0
  187.3700  177.5180  137.9460 C   0  0  0  0  0  3  0  0  0  0  0  0
  1 10  1  0  0  0  0
  1 17  1  0  0  0  0
  4  8  2  0  0  0  0
  4  5  1  0  0  0  0
  5  1  2  0  0  0  0
  6  7  1  0  0  0  0
  6 10  2  0  0  0  0
  8  6  1  0  0  0  0
  9 11  2  0  0  0  0
  9  3  1  0  0  0  0
 10  9  1  0  0  0  0
 12  2  1  0  0  0  0
 13 12  1  0  0  0  0
 13 18  1  0  0  0  0
 14 13  2  0  0  0  0
 15  3  1  0  0  0  0
 15  2  2  0  0  0  0
 16 17  2  0  0  0  0
 16 14  1  0  0  0  0
 17 15  1  0  0  0  0
 18 19  1  0  0  0  0
 20 18  2  0  0  0  0
 21  4  1  0  0  0  0
 22 28  1  0  0  0  0
 22 34  1  0  0  0  0
 24 32  1  0  0  0  0
 25 27  1  0  0  0  0
 25 24  1  0  0  0  0
 26 24  1  0  0  0  0
 26 28  2  0  0  0  0
 28 31  1  0  0  0  0
 29 25  2  0  0  0  0
 31 30  1  0  0  0  0
 31 23  2  0  0  0  0
 32 30  2  0  0  0  0
 33 23  1  0  0  0  0
 33 21  1  0  0  0  0
 34 33  2  0  0  0  0
M  END
>  <MODEL>
2

>  <REMARK>
 VINA RESULT:     -11.5      3.460      7.782
  Name = 
  3 active torsions:
  status: ('A' for Active; 'I' for Inactive)
    1  A    between atoms: C_3  and  C_25
    2  A    between atoms: C_8  and  O_18
    3  A    between atoms: O_18  and  C_30
                            x       y       z     vdW  Elec       q    Type
                         _______ _______ _______ _____ _____    ______ ____

>  <TORSDO>
F 3

$$$$
=
 OpenBabel10262423223D

 34 38  0  0  1  0  0  0  0  0999 V2000
  186.9170  178.0240  143.8430 C   0  0  0  0  0  0  0  0  0  0  0  0
  188.6040  177.8950  147.1920 C   0  0  0  0  0  3  0  0  0  0  0  0
  186.2640  177.5580  146.6980 C   0  0  0  0  0  2  0  0  0  0  0  0
  186.2400  178.5640  141.5560 C   0  0  0  0  0  0  0  0  0  0  0  0
  187.2100  178.1440  142.4740 C   0  0  0  0  0  3  0  0  0  0  0  0
  184.6450  178.7800  143.3740 C   0  0  0  0  0  0  0  0  0  0  0  0
  183.3620  179.1340  143.7790 O   0  0  0  0  0  1  0  0  0  0  0  0
  184.9640  178.8810  142.0160 C   0  0  0  0  0  3  0  0  0  0  0  0
  185.3090  178.2300  145.7580 C   0  0  0  0  0  0  0  0  0  0  0  0
  185.6220  178.3560  144.3070 C   0  0  0  0  0  0  0  0  0  0  0  0
  184.2070  178.6280  146.2160 O   0  0  0  0  0  0  0  0  0  0  0  0
  190.0520  178.1060  146.9010 C   0  0  0  0  0  2  0  0  0  0  0  0
  190.6500  176.8920  146.2650 C   0  0  0  0  0  0  0  0  0  0  0  0
  190.2340  176.4610  145.0660 C   0  0  0  0  0  3  0  0  0  0  0  0
  187.6790  177.6930  146.2490 C   0  0  0  0  0  0  0  0  0  0  0  0
  189.0890  177.0050  144.3060 C   0  0  0  0  0  3  0  0  0  0  0  0
  187.9790  177.5970  144.7940 C   0  0  0  0  0  0  0  0  0  0  0  0
  191.7850  176.2250  146.9320 C   0  0  0  0  0  0  0  0  0  0  0  0
  192.2930  176.7390  148.1230 O   0  0  0  0  0  1  0  0  0  0  0  0
  192.3360  175.2150  146.4120 O   0  0  0  0  0  0  0  0  0  0  0  0
  186.5180  178.7430  140.1940 O   0  0  0  0  0  0  0  0  0  0  0  0
  189.9970  177.5510  139.5600 C   0  0  0  0  0  3  0  0  0  0  0  0
  187.4320  177.7020  138.2940 C   0  0  0  0  0  3  0  0  0  0  0  0
  190.2120  174.9500  136.8520 N   0  0  0  0  0  0  0  0  0  0  0  0
  191.0540  173.8350  136.5230 C   0  0  0  0  0  0  0  0  0  0  0  0
  190.5320  175.7630  137.9910 C   0  0  0  0  0  3  0  0  0  0  0  0
  190.6390  172.9400  135.7390 O   0  0  0  0  0  0  0  0  0  0  0  0
  189.7410  176.7810  138.3360 C   0  0  0  0  0  0  0  0  0  0  0  0
  192.3400  173.7470  137.0420 O   0  0  0  0  0  1  0  0  0  0  0  0
  188.1340  176.1260  136.5040 C   0  0  0  0  0  3  0  0  0  0  0  0
  188.5770  177.1920  137.4650 C   0  0  1  0  0  3  0  0  0  0  0  0
  188.9380  175.1010  136.2040 C   0  0  0  0  0  3  0  0  0  0  0  0
  187.6340  178.2530  139.5010 C   0  0  0  0  0  0  0  0  0  0  0  0
  188.9980  178.2610  140.0990 C   0  0  0  0  0  3  0  0  0  0  0  0
  1 10  1  0  0  0  0
  1 17  1  0  0  0  0
  4  8  2  0  0  0  0
  4  5  1  0  0  0  0
  5  1  2  0  0  0  0
  6  7  1  0  0  0  0
  6 10  2  0  0  0  0
  8  6  1  0  0  0  0
  9 11  2  0  0  0  0
  9  3  1  0  0  0  0
 10  9  1  0  0  0  0
 12  2  1  0  0  0  0
 13 12  1  0  0  0  0
 13 18  1  0  0  0  0
 14 13  2  0  0  0  0
 15  3  1  0  0  0  0
 15  2  2  0  0  0  0
 16 17  2  0  0  0  0
 16 14  1  0  0  0  0
 17 15  1  0  0  0  0
 18 19  1  0  0  0  0
 20 18  2  0  0  0  0
 21  4  1  0  0  0  0
 22 34  2  0  0  0  0
 23 33  2  0  0  0  0
 24 26  1  0  0  0  0
 25 24  1  0  0  0  0
 25 29  1  0  0  0  0
 26 28  2  0  0  0  0
 27 25  2  0  0  0  0
 28 22  1  0  0  0  0
 31 30  1  1  0  0  0
 31 23  1  0  0  0  0
 31 28  1  0  0  0  0
 32 30  2  0  0  0  0
 32 24  1  0  0  0  0
 33 34  1  0  0  0  0
 33 21  1  0  0  0  0
M  END
>  <MODEL>
3

>  <REMARK>
 VINA RESULT:     -11.3      3.328      7.246
  Name = 
  3 active torsions:
  status: ('A' for Active; 'I' for Inactive)
    1  A    between atoms: C_3  and  C_25
    2  A    between atoms: C_8  and  O_18
    3  A    between atoms: O_18  and  C_30
                            x       y       z     vdW  Elec       q    Type
                         _______ _______ _______ _____ _____    ______ ____

>  <TORSDO>
F 3

$$$$
=
 OpenBabel10262423223D

 34 38  0  0  0  0  0  0  0  0999 V2000
  186.1810  178.2460  143.2110 C   0  0  0  0  0  0  0  0  0  0  0  0
  188.5920  177.7790  146.0480 C   0  0  0  0  0  3  0  0  0  0  0  0
  186.1880  177.5610  146.0970 C   0  0  0  0  0  2  0  0  0  0  0  0
  185.0190  178.9990  141.1960 C   0  0  0  0  0  0  0  0  0  0  0  0
  186.1520  178.4730  141.8250 C   0  0  0  0  0  3  0  0  0  0  0  0
  183.9030  179.1120  143.3500 C   0  0  0  0  0  0  0  0  0  0  0  0
  182.7700  179.4720  144.0720 O   0  0  0  0  0  1  0  0  0  0  0  0
  183.9020  179.3170  141.9670 C   0  0  0  0  0  3  0  0  0  0  0  0
  185.0750  178.3410  145.4620 C   0  0  0  0  0  0  0  0  0  0  0  0
  185.0480  178.5790  143.9910 C   0  0  0  0  0  0  0  0  0  0  0  0
  184.1320  178.7340  146.1950 O   0  0  0  0  0  0  0  0  0  0  0  0
  189.9410  177.9680  145.4400 C   0  0  0  0  0  2  0  0  0  0  0  0
  190.3120  176.7930  144.5920 C   0  0  0  0  0  0  0  0  0  0  0  0
  189.6070  176.4790  143.4960 C   0  0  0  0  0  3  0  0  0  0  0  0
  187.4640  177.6880  145.3380 C   0  0  0  0  0  0  0  0  0  0  0  0
  188.3460  177.1220  143.0710 C   0  0  0  0  0  3  0  0  0  0  0  0
  187.4120  177.7070  143.8510 C   0  0  0  0  0  0  0  0  0  0  0  0
  191.5360  176.0360  144.9200 C   0  0  0  0  0  0  0  0  0  0  0  0
  192.1280  176.1790  146.1720 O   0  0  0  0  0  1  0  0  0  0  0  0
  192.0820  175.2910  144.0610 O   0  0  0  0  0  0  0  0  0  0  0  0
  184.9810  179.2840  139.8240 O   0  0  0  0  0  0  0  0  0  0  0  0
  186.4130  177.1560  137.1140 C   0  0  0  0  0  2  0  0  0  0  0  0
  184.0000  177.5230  138.6140 C   0  0  0  0  0  3  0  0  0  0  0  0
  184.6190  173.8780  136.6860 N   0  0  0  0  0  0  0  0  0  0  0  0
  184.9380  172.5490  136.2500 C   0  0  0  0  0  0  0  0  0  0  0  0
  185.6260  174.9000  136.6290 C   0  0  0  0  0  3  0  0  0  0  0  0
  184.1940  171.5840  136.5700 O   0  0  0  0  0  1  0  0  0  0  0  0
  185.3600  176.1330  137.0640 C   0  0  0  0  0  0  0  0  0  0  0  0
  186.0520  172.3180  135.4520 O   0  0  0  0  0  0  0  0  0  0  0  0
  183.0820  175.3540  137.8180 C   0  0  0  0  0  3  0  0  0  0  0  0
  183.9640  176.5250  137.4910 C   0  0  0  0  0  0  0  0  0  0  0  0
  183.3930  174.1250  137.3950 C   0  0  0  0  0  3  0  0  0  0  0  0
  185.0420  178.3520  138.7790 C   0  0  0  0  0  0  0  0  0  0  0  0
  186.2490  178.2150  137.9150 C   0  0  0  0  0  3  0  0  0  0  0  0
  1 17  1  0  0  0  0
  1 10  1  0  0  0  0
  4  5  1  0  0  0  0
  4  8  2  0  0  0  0
  5  1  2  0  0  0  0
  6 10  2  0  0  0  0
  6  7  1  0  0  0  0
  8  6  1  0  0  0  0
  9  3  1  0  0  0  0
  9 11  2  0  0  0  0
 10  9  1  0  0  0  0
 12  2  1  0  0  0  0
 13 18  1  0  0  0  0
 13 12  1  0  0  0  0
 14 13  2  0  0  0  0
 15  2  2  0  0  0  0
 15  3  1  0  0  0  0
 16 14  1  0  0  0  0
 16 17  2  0  0  0  0
 17 15  1  0  0  0  0
 18 19  1  0  0  0  0
 20 18  2  0  0  0  0
 21  4  1  0  0  0  0
 22 34  1  0  0  0  0
 23 33  1  0  0  0  0
 24 32  1  0  0  0  0
 25 27  1  0  0  0  0
 25 24  1  0  0  0  0
 26 24  1  0  0  0  0
 26 28  2  0  0  0  0
 28 22  1  0  0  0  0
 28 31  1  0  0  0  0
 29 25  2  0  0  0  0
 31 30  1  0  0  0  0
 31 23  2  0  0  0  0
 32 30  2  0  0  0  0
 33 21  1  0  0  0  0
 34 33  2  0  0  0  0
M  END
>  <MODEL>
4

>  <REMARK>
 VINA RESULT:     -11.3      3.806      5.649
  Name = 
  3 active torsions:
  status: ('A' for Active; 'I' for Inactive)
    1  A    between atoms: C_3  and  C_25
    2  A    between atoms: C_8  and  O_18
    3  A    between atoms: O_18  and  C_30
                            x       y       z     vdW  Elec       q    Type
                         _______ _______ _______ _____ _____    ______ ____

>  <TORSDO>
F 3

$$$$
=
 OpenBabel10262423223D

 34 38  0  0  1  0  0  0  0  0999 V2000
  184.9290  178.6600  141.9670 C   0  0  0  0  0  0  0  0  0  0  0  0
  185.7450  178.0730  138.3520 C   0  0  0  0  0  3  0  0  0  0  0  0
  183.9330  179.3800  139.2680 C   0  0  0  0  0  2  0  0  0  0  0  0
  184.6010  178.4500  144.3820 C   0  0  0  0  0  0  0  0  0  0  0  0
  185.4330  178.4180  143.2560 C   0  0  0  0  0  3  0  0  0  0  0  0
  182.7110  178.9520  142.9410 C   0  0  0  0  0  0  0  0  0  0  0  0
  181.3440  179.1860  142.8300 O   0  0  0  0  0  1  0  0  0  0  0  0
  183.2430  178.7160  144.2120 C   0  0  0  0  0  3  0  0  0  0  0  0
  183.0120  179.1770  140.4340 C   0  0  0  0  0  0  0  0  0  0  0  0
  183.5480  178.9210  141.8000 C   0  0  0  0  0  0  0  0  0  0  0  0
  181.7740  179.2950  140.2400 O   0  0  0  0  0  0  0  0  0  0  0  0
  186.9950  177.2580  138.3680 C   0  0  0  0  0  2  0  0  0  0  0  0
  188.1700  178.0930  138.7640 C   0  0  0  0  0  0  0  0  0  0  0  0
  188.2450  178.6540  139.9800 C   0  0  0  0  0  3  0  0  0  0  0  0
  185.2200  178.6470  139.4380 C   0  0  0  0  0  0  0  0  0  0  0  0
  187.1710  178.6500  140.9960 C   0  0  0  0  0  3  0  0  0  0  0  0
  185.8390  178.5950  140.7910 C   0  0  0  0  0  0  0  0  0  0  0  0
  189.3070  178.2110  137.8310 C   0  0  0  0  0  0  0  0  0  0  0  0
  190.3290  177.2650  137.8550 O   0  0  0  0  0  1  0  0  0  0  0  0
  189.3900  179.1880  137.0360 O   0  0  0  0  0  0  0  0  0  0  0  0
  185.0650  178.1600  145.6720 O   0  0  0  0  0  0  0  0  0  0  0  0
  187.9950  178.2080  147.9810 C   0  0  0  0  0  3  0  0  0  0  0  0
  187.3550  177.9030  145.2060 C   0  0  0  0  0  3  0  0  0  0  0  0
  191.0310  176.4910  146.5750 N   0  0  0  0  0  0  0  0  0  0  0  0
  192.1700  175.7770  147.0790 C   0  0  0  0  0  0  0  0  0  0  0  0
  190.0980  177.0710  147.4970 C   0  0  0  0  0  3  0  0  0  0  0  0
  192.8210  175.0100  146.3210 O   0  0  0  0  0  0  0  0  0  0  0  0
  189.0130  177.7070  147.0480 C   0  0  0  0  0  0  0  0  0  0  0  0
  192.5790  175.9450  148.3960 O   0  0  0  0  0  1  0  0  0  0  0  0
  189.6370  177.0630  144.6900 C   0  0  0  0  0  3  0  0  0  0  0  0
  188.8120  177.9560  145.5720 C   0  0  1  0  0  3  0  0  0  0  0  0
  190.6990  176.4150  145.1780 C   0  0  0  0  0  3  0  0  0  0  0  0
  186.3990  178.1900  146.1020 C   0  0  0  0  0  0  0  0  0  0  0  0
  186.7620  178.4530  147.5230 C   0  0  0  0  0  3  0  0  0  0  0  0
  1  5  1  0  0  0  0
  2 12  1  0  0  0  0
  2 15  2  0  0  0  0
  3 15  1  0  0  0  0
  3  9  1  0  0  0  0
  4 21  1  0  0  0  0
  5  4  2  0  0  0  0
  6  8  2  0  0  0  0
  7  6  1  0  0  0  0
  8  4  1  0  0  0  0
  9 10  1  0  0  0  0
 10  1  2  0  0  0  0
 10  6  1  0  0  0  0
 11  9  2  0  0  0  0
 12 13  1  0  0  0  0
 13 14  2  0  0  0  0
 14 16  1  0  0  0  0
 15 17  1  0  0  0  0
 17 16  2  0  0  0  0
 17  1  1  0  0  0  0
 18 19  1  0  0  0  0
 18 13  1  0  0  0  0
 20 18  2  0  0  0  0
 21 33  1  0  0  0  0
 23 31  1  0  0  0  0
 23 33  2  0  0  0  0
 24 25  1  0  0  0  0
 24 26  1  0  0  0  0
 25 29  1  0  0  0  0
 27 25  2  0  0  0  0
 28 26  2  0  0  0  0
 28 22  1  0  0  0  0
 30 32  2  0  0  0  0
 31 30  1  6  0  0  0
 31 28  1  0  0  0  0
 32 24  1  0  0  0  0
 33 34  1  0  0  0  0
 34 22  2  0  0  0  0
M  END
>  <MODEL>
5

>  <REMARK>
 VINA RESULT:     -11.2      2.997      7.965
  Name = 
  3 active torsions:
  status: ('A' for Active; 'I' for Inactive)
    1  A    between atoms: C_3  and  C_25
    2  A    between atoms: C_8  and  O_18
    3  A    between atoms: O_18  and  C_30
                            x       y       z     vdW  Elec       q    Type
                         _______ _______ _______ _____ _____    ______ ____

>  <TORSDO>
F 3

$$$$
=
 OpenBabel10262423223D

 34 38  0  0  1  0  0  0  0  0999 V2000
  186.2100  178.0380  143.5050 C   0  0  0  0  0  0  0  0  0  0  0  0
  182.6400  178.7090  142.5640 C   0  0  0  0  0  3  0  0  0  0  0  0
  183.7870  179.3630  144.5860 C   0  0  0  0  0  2  0  0  0  0  0  0
  188.4300  177.0590  143.8150 C   0  0  0  0  0  0  0  0  0  0  0  0
  187.3990  177.5040  142.9790 C   0  0  0  0  0  3  0  0  0  0  0  0
  187.0880  177.6530  145.7500 C   0  0  0  0  0  0  0  0  0  0  0  0
  186.9670  177.6820  147.1350 O   0  0  0  0  0  1  0  0  0  0  0  0
  188.2630  177.1370  145.1960 C   0  0  0  0  0  3  0  0  0  0  0  0
  184.7820  178.6700  145.4690 C   0  0  0  0  0  0  0  0  0  0  0  0
  186.0420  178.1060  144.9090 C   0  0  0  0  0  0  0  0  0  0  0  0
  184.5550  178.6360  146.7060 O   0  0  0  0  0  0  0  0  0  0  0  0
  182.4920  178.1440  141.1920 C   0  0  0  0  0  2  0  0  0  0  0  0
  183.1890  179.0020  140.1840 C   0  0  0  0  0  0  0  0  0  0  0  0
  184.5180  179.1750  140.2210 C   0  0  0  0  0  3  0  0  0  0  0  0
  183.8130  178.8350  143.1930 C   0  0  0  0  0  0  0  0  0  0  0  0
  185.4200  178.6890  141.2870 C   0  0  0  0  0  3  0  0  0  0  0  0
  185.1250  178.4810  142.5870 C   0  0  0  0  0  0  0  0  0  0  0  0
  182.4040  179.5820  139.0770 C   0  0  0  0  0  0  0  0  0  0  0  0
  182.5850  180.9150  138.7190 O   0  0  0  0  0  1  0  0  0  0  0  0
  181.5330  178.8950  138.4750 O   0  0  0  0  0  0  0  0  0  0  0  0
  189.6030  176.4750  143.3200 O   0  0  0  0  0  0  0  0  0  0  0  0
  192.4680  177.5030  141.1610 C   0  0  0  0  0  3  0  0  0  0  0  0
  189.7230  176.7030  140.9820 C   0  0  0  0  0  3  0  0  0  0  0  0
  192.1230  176.3780  137.5880 N   0  0  0  0  0  0  0  0  0  0  0  0
  192.9930  176.0220  136.5040 C   0  0  0  0  0  0  0  0  0  0  0  0
  192.6880  176.8370  138.8250 C   0  0  0  0  0  3  0  0  0  0  0  0
  192.5550  175.3380  135.5420 O   0  0  0  0  0  0  0  0  0  0  0  0
  191.8970  177.1380  139.8570 C   0  0  0  0  0  0  0  0  0  0  0  0
  194.3150  176.4490  136.4940 O   0  0  0  0  0  1  0  0  0  0  0  0
  189.8990  176.3620  138.5260 C   0  0  0  0  0  3  0  0  0  0  0  0
  190.3930  177.1420  139.7110 C   0  0  1  0  0  3  0  0  0  0  0  0
  190.7250  176.0480  137.5230 C   0  0  0  0  0  3  0  0  0  0  0  0
  190.3120  176.8710  142.1760 C   0  0  0  0  0  0  0  0  0  0  0  0
  191.7060  177.3910  142.2550 C   0  0  0  0  0  3  0  0  0  0  0  0
  1 10  1  0  0  0  0
  2 15  2  0  0  0  0
  3  9  1  0  0  0  0
  4  8  2  0  0  0  0
  5  1  2  0  0  0  0
  5  4  1  0  0  0  0
  6  7  1  0  0  0  0
  8  6  1  0  0  0  0
  9 11  2  0  0  0  0
 10  9  1  0  0  0  0
 10  6  2  0  0  0  0
 12  2  1  0  0  0  0
 13 14  2  0  0  0  0
 13 12  1  0  0  0  0
 14 16  1  0  0  0  0
 15  3  1  0  0  0  0
 16 17  2  0  0  0  0
 17 15  1  0  0  0  0
 17  1  1  0  0  0  0
 18 13  1  0  0  0  0
 19 18  1  0  0  0  0
 20 18  2  0  0  0  0
 21  4  1  0  0  0  0
 22 34  2  0  0  0  0
 23 33  2  0  0  0  0
 24 26  1  0  0  0  0
 25 24  1  0  0  0  0
 26 28  2  0  0  0  0
 27 25  2  0  0  0  0
 28 22  1  0  0  0  0
 29 25  1  0  0  0  0
 31 30  1  6  0  0  0
 31 28  1  0  0  0  0
 31 23  1  0  0  0  0
 32 24  1  0  0  0  0
 32 30  2  0  0  0  0
 33 34  1  0  0  0  0
 33 21  1  0  0  0  0
M  END
>  <MODEL>
6

>  <REMARK>
 VINA RESULT:     -11.2      2.888      8.336
  Name = 
  3 active torsions:
  status: ('A' for Active; 'I' for Inactive)
    1  A    between atoms: C_3  and  C_25
    2  A    between atoms: C_8  and  O_18
    3  A    between atoms: O_18  and  C_30
                            x       y       z     vdW  Elec       q    Type
                         _______ _______ _______ _____ _____    ______ ____

>  <TORSDO>
F 3

$$$$
=
 OpenBabel10262423223D

 34 38  0  0  0  0  0  0  0  0999 V2000
  182.5550  178.5160  141.6890 C   0  0  0  0  0  0  0  0  0  0  0  0
  181.5670  176.7540  138.5260 C   0  0  0  0  0  3  0  0  0  0  0  0
  180.1610  178.0500  140.0010 C   0  0  0  0  0  2  0  0  0  0  0  0
  183.5800  179.1670  143.8110 C   0  0  0  0  0  0  0  0  0  0  0  0
  183.6870  178.8350  142.4560 C   0  0  0  0  0  3  0  0  0  0  0  0
  181.1770  178.8440  143.6760 C   0  0  0  0  0  0  0  0  0  0  0  0
  179.9500  178.8350  144.3340 O   0  0  0  0  0  1  0  0  0  0  0  0
  182.3220  179.1670  144.4110 C   0  0  0  0  0  3  0  0  0  0  0  0
  180.0770  178.1690  141.4940 C   0  0  0  0  0  0  0  0  0  0  0  0
  181.2800  178.5080  142.3040 C   0  0  0  0  0  0  0  0  0  0  0  0
  178.9500  178.0390  142.0370 O   0  0  0  0  0  0  0  0  0  0  0  0
  182.8370  176.1790  137.9950 C   0  0  0  0  0  2  0  0  0  0  0  0
  183.7120  177.2510  137.4290 C   0  0  0  0  0  0  0  0  0  0  0  0
  184.2080  178.2240  138.2070 C   0  0  0  0  0  3  0  0  0  0  0  0
  181.5120  177.6110  139.5500 C   0  0  0  0  0  0  0  0  0  0  0  0
  183.8630  178.4510  139.6260 C   0  0  0  0  0  3  0  0  0  0  0  0
  182.7090  178.1450  140.2560 C   0  0  0  0  0  0  0  0  0  0  0  0
  184.1130  177.1690  136.0110 C   0  0  0  0  0  0  0  0  0  0  0  0
  183.1440  177.0180  135.0220 O   0  0  0  0  0  0  0  0  0  0  0  0
  185.3310  177.1880  135.6830 O   0  0  0  0  0  1  0  0  0  0  0  0
  184.6970  179.4380  144.6130 O   0  0  0  0  0  0  0  0  0  0  0  0
  187.5660  177.0950  144.1670 C   0  0  0  0  0  2  0  0  0  0  0  0
  186.1240  178.4820  146.2180 C   0  0  0  0  0  3  0  0  0  0  0  0
  189.9750  177.1190  147.0560 N   0  0  0  0  0  0  0  0  0  0  0  0
  191.3760  176.8890  147.2650 C   0  0  0  0  0  0  0  0  0  0  0  0
  189.4170  176.9320  145.7470 C   0  0  0  0  0  3  0  0  0  0  0  0
  191.9410  177.3330  148.2990 O   0  0  0  0  0  1  0  0  0  0  0  0
  188.1240  177.1770  145.5240 C   0  0  0  0  0  0  0  0  0  0  0  0
  192.1130  176.1530  146.3450 O   0  0  0  0  0  0  0  0  0  0  0  0
  187.8900  177.9950  147.8990 C   0  0  0  0  0  3  0  0  0  0  0  0
  187.1880  177.5160  146.6600 C   0  0  0  0  0  0  0  0  0  0  0  0
  189.1940  177.7620  148.0780 C   0  0  0  0  0  3  0  0  0  0  0  0
  185.7250  178.5420  144.9380 C   0  0  0  0  0  0  0  0  0  0  0  0
  186.4190  177.7300  143.9000 C   0  0  0  0  0  3  0  0  0  0  0  0
  1 10  2  0  0  0  0
  1  5  1  0  0  0  0
  2 15  2  0  0  0  0
  3  9  1  0  0  0  0
  4  8  1  0  0  0  0
  4 21  1  0  0  0  0
  5  4  2  0  0  0  0
  6  7  1  0  0  0  0
  6  8  2  0  0  0  0
  9 11  2  0  0  0  0
  9 10  1  0  0  0  0
 10  6  1  0  0  0  0
 12  2  1  0  0  0  0
 13 12  1  0  0  0  0
 13 14  2  0  0  0  0
 14 16  1  0  0  0  0
 15  3  1  0  0  0  0
 15 17  1  0  0  0  0
 16 17  2  0  0  0  0
 17  1  1  0  0  0  0
 18 13  1  0  0  0  0
 19 18  2  0  0  0  0
 20 18  1  0  0  0  0
 21 33  1  0  0  0  0
 22 28  1  0  0  0  0
 23 31  2  0  0  0  0
 24 25  1  0  0  0  0
 24 32  1  0  0  0  0
 25 27  1  0  0  0  0
 26 24  1  0  0  0  0
 28 26  2  0  0  0  0
 28 31  1  0  0  0  0
 29 25  2  0  0  0  0
 30 32  2  0  0  0  0
 31 30  1  0  0  0  0
 33 23  1  0  0  0  0
 34 22  1  0  0  0  0
 34 33  2  0  0  0  0
M  END
>  <MODEL>
7

>  <REMARK>
 VINA RESULT:     -10.9      3.243      8.812
  Name = 
  3 active torsions:
  status: ('A' for Active; 'I' for Inactive)
    1  A    between atoms: C_3  and  C_25
    2  A    between atoms: C_8  and  O_18
    3  A    between atoms: O_18  and  C_30
                            x       y       z     vdW  Elec       q    Type
                         _______ _______ _______ _____ _____    ______ ____

>  <TORSDO>
F 3

$$$$
=
 OpenBabel10262423223D

 34 38  0  0  0  0  0  0  0  0999 V2000
  185.4750  178.4310  142.5470 C   0  0  0  0  0  0  0  0  0  0  0  0
  185.3380  178.8430  146.2740 C   0  0  0  0  0  3  0  0  0  0  0  0
  183.5270  178.2850  144.7790 C   0  0  0  0  0  2  0  0  0  0  0  0
  185.9840  178.6290  140.1630 C   0  0  0  0  0  0  0  0  0  0  0  0
  186.3900  178.3970  141.4820 C   0  0  0  0  0  3  0  0  0  0  0  0
  183.7100  178.9630  140.9480 C   0  0  0  0  0  0  0  0  0  0  0  0
  182.3900  179.2750  140.6360 O   0  0  0  0  0  1  0  0  0  0  0  0
  184.6430  178.9120  139.9080 C   0  0  0  0  0  3  0  0  0  0  0  0
  183.1430  178.7660  143.4110 C   0  0  0  0  0  0  0  0  0  0  0  0
  184.1160  178.7280  142.2840 C   0  0  0  0  0  0  0  0  0  0  0  0
  181.9560  179.1410  143.2250 O   0  0  0  0  0  0  0  0  0  0  0  0
  186.7470  179.1150  146.6820 C   0  0  0  0  0  2  0  0  0  0  0  0
  187.5780  177.8750  146.5910 C   0  0  0  0  0  0  0  0  0  0  0  0
  187.7910  177.2680  145.4150 C   0  0  0  0  0  3  0  0  0  0  0  0
  184.9830  178.4600  145.0450 C   0  0  0  0  0  0  0  0  0  0  0  0
  187.1540  177.6310  144.1310 C   0  0  0  0  0  3  0  0  0  0  0  0
  185.9460  178.2020  143.9400 C   0  0  0  0  0  0  0  0  0  0  0  0
  188.2510  177.3780  147.8060 C   0  0  0  0  0  0  0  0  0  0  0  0
  189.4680  176.7060  147.7030 O   0  0  0  0  0  0  0  0  0  0  0  0
  187.7160  177.5130  148.9410 O   0  0  0  0  0  1  0  0  0  0  0  0
  186.8830  178.6540  139.0900 O   0  0  0  0  0  0  0  0  0  0  0  0
  188.6000  175.9280  137.2050 C   0  0  0  0  0  2  0  0  0  0  0  0
  188.9950  177.6800  139.4370 C   0  0  0  0  0  3  0  0  0  0  0  0
  192.3330  175.9200  137.6630 N   0  0  0  0  0  0  0  0  0  0  0  0
  193.4890  175.5320  136.9060 C   0  0  0  0  0  0  0  0  0  0  0  0
  191.0240  175.6810  137.1240 C   0  0  0  0  0  3  0  0  0  0  0  0
  194.6210  175.9970  137.2010 O   0  0  0  0  0  1  0  0  0  0  0  0
  189.9370  176.0680  137.7950 C   0  0  0  0  0  0  0  0  0  0  0  0
  193.3740  174.6230  135.8620 O   0  0  0  0  0  0  0  0  0  0  0  0
  191.4180  177.1340  139.5370 C   0  0  0  0  0  3  0  0  0  0  0  0
  190.0450  176.6330  139.1920 C   0  0  0  0  0  0  0  0  0  0  0  0
  192.4830  176.7530  138.8240 C   0  0  0  0  0  3  0  0  0  0  0  0
  187.8290  177.6680  138.7730 C   0  0  0  0  0  0  0  0  0  0  0  0
  187.6000  176.6770  137.6850 C   0  0  0  0  0  3  0  0  0  0  0  0
  1 17  1  0  0  0  0
  2 12  1  0  0  0  0
  3 15  1  0  0  0  0
  4  5  1  0  0  0  0
  5  1  2  0  0  0  0
  6 10  2  0  0  0  0
  7  6  1  0  0  0  0
  8  4  2  0  0  0  0
  8  6  1  0  0  0  0
  9  3  1  0  0  0  0
 10  1  1  0  0  0  0
 10  9  1  0  0  0  0
 11  9  2  0  0  0  0
 13 12  1  0  0  0  0
 13 18  1  0  0  0  0
 14 13  2  0  0  0  0
 15  2  2  0  0  0  0
 16 14  1  0  0  0  0
 17 16  2  0  0  0  0
 17 15  1  0  0  0  0
 18 20  1  0  0  0  0
 19 18  2  0  0  0  0
 21  4  1  0  0  0  0
 22 34  1  0  0  0  0
 22 28  1  0  0  0  0
 24 32  1  0  0  0  0
 25 27  1  0  0  0  0
 25 24  1  0  0  0  0
 26 24  1  0  0  0  0
 26 28  2  0  0  0  0
 28 31  1  0  0  0  0
 29 25  2  0  0  0  0
 31 23  2  0  0  0  0
 31 30  1  0  0  0  0
 32 30  2  0  0  0  0
 33 21  1  0  0  0  0
 33 23  1  0  0  0  0
 34 33  2  0  0  0  0
M  END
>  <MODEL>
8

>  <REMARK>
 VINA RESULT:     -10.8      3.209      8.745
  Name = 
  3 active torsions:
  status: ('A' for Active; 'I' for Inactive)
    1  A    between atoms: C_3  and  C_25
    2  A    between atoms: C_8  and  O_18
    3  A    between atoms: O_18  and  C_30
                            x       y       z     vdW  Elec       q    Type
                         _______ _______ _______ _____ _____    ______ ____

>  <TORSDO>
F 3

$$$$
=
 OpenBabel10262423223D

 34 38  0  0  0  0  0  0  0  0999 V2000
  186.3060  178.1960  144.0430 C   0  0  0  0  0  0  0  0  0  0  0  0
  190.0530  178.0100  144.0150 C   0  0  0  0  0  3  0  0  0  0  0  0
  188.5470  177.2790  145.7550 C   0  0  0  0  0  2  0  0  0  0  0  0
  183.9680  178.8550  143.7520 C   0  0  0  0  0  0  0  0  0  0  0  0
  185.2200  178.5300  143.2160 C   0  0  0  0  0  3  0  0  0  0  0  0
  184.8680  178.5390  145.9850 C   0  0  0  0  0  0  0  0  0  0  0  0
  184.6540  178.5830  147.3600 O   0  0  0  0  0  1  0  0  0  0  0  0
  183.8050  178.8580  145.1360 C   0  0  0  0  0  3  0  0  0  0  0  0
  187.2860  177.8560  146.3270 C   0  0  0  0  0  0  0  0  0  0  0  0
  186.1360  178.2090  145.4480 C   0  0  0  0  0  0  0  0  0  0  0  0
  187.2010  177.9720  147.5770 O   0  0  0  0  0  0  0  0  0  0  0  0
  190.4530  178.5350  142.6770 C   0  0  0  0  0  2  0  0  0  0  0  0
  190.1400  177.5460  141.6010 C   0  0  0  0  0  0  0  0  0  0  0  0
  188.8760  177.1840  141.3380 C   0  0  0  0  0  3  0  0  0  0  0  0
  188.7900  177.7420  144.3590 C   0  0  0  0  0  0  0  0  0  0  0  0
  187.6870  177.5770  142.1250 C   0  0  0  0  0  3  0  0  0  0  0  0
  187.6280  177.8780  143.4390 C   0  0  0  0  0  0  0  0  0  0  0  0
  191.2380  177.0420  140.7540 C   0  0  0  0  0  0  0  0  0  0  0  0
  190.9970  176.0240  139.8340 O   0  0  0  0  0  0  0  0  0  0  0  0
  192.4100  177.4920  140.8820 O   0  0  0  0  0  1  0  0  0  0  0  0
  182.8840  179.2430  142.9550 O   0  0  0  0  0  0  0  0  0  0  0  0
  183.0690  177.5030  139.6580 C   0  0  0  0  0  2  0  0  0  0  0  0
  181.1780  178.2480  141.6780 C   0  0  0  0  0  3  0  0  0  0  0  0
  180.1700  175.1920  139.0270 N   0  0  0  0  0  0  0  0  0  0  0  0
  179.9240  173.9810  138.2970 C   0  0  0  0  0  0  0  0  0  0  0  0
  181.4610  175.8150  138.9460 C   0  0  0  0  0  3  0  0  0  0  0  0
  178.9320  173.2610  138.5850 O   0  0  0  0  0  1  0  0  0  0  0  0
  181.7200  176.9210  139.6470 C   0  0  0  0  0  0  0  0  0  0  0  0
  180.7600  173.6070  137.2520 O   0  0  0  0  0  0  0  0  0  0  0  0
  179.4390  176.7580  140.7110 C   0  0  0  0  0  3  0  0  0  0  0  0
  180.6330  177.6230  140.4240 C   0  0  0  0  0  0  0  0  0  0  0  0
  179.2240  175.6390  140.0130 C   0  0  0  0  0  3  0  0  0  0  0  0
  182.4620  178.6290  141.7670 C   0  0  0  0  0  0  0  0  0  0  0  0
  183.4090  178.3270  140.6570 C   0  0  0  0  0  3  0  0  0  0  0  0
  1 10  1  0  0  0  0
  2 15  2  0  0  0  0
  3  9  1  0  0  0  0
  4  8  2  0  0  0  0
  5  4  1  0  0  0  0
  5  1  2  0  0  0  0
  6  7  1  0  0  0  0
  8  6  1  0  0  0  0
  9 11  2  0  0  0  0
 10  6  2  0  0  0  0
 10  9  1  0  0  0  0
 12  2  1  0  0  0  0
 13 12  1  0  0  0  0
 14 13  2  0  0  0  0
 14 16  1  0  0  0  0
 15  3  1  0  0  0  0
 16 17  2  0  0  0  0
 17  1  1  0  0  0  0
 17 15  1  0  0  0  0
 18 20  1  0  0  0  0
 18 13  1  0  0  0  0
 19 18  2  0  0  0  0
 21  4  1  0  0  0  0
 22 34  1  0  0  0  0
 23 33  1  0  0  0  0
 24 32  1  0  0  0  0
 25 27  1  0  0  0  0
 25 24  1  0  0  0  0
 26 24  1  0  0  0  0
 26 28  2  0  0  0  0
 28 22  1  0  0  0  0
 28 31  1  0  0  0  0
 29 25  2  0  0  0  0
 31 30  1  0  0  0  0
 31 23  2  0  0  0  0
 32 30  2  0  0  0  0
 33 21  1  0  0  0  0
 34 33  2  0  0  0  0
M  END
>  <MODEL>
9

>  <REMARK>
 VINA RESULT:     -10.5      1.789      2.916
  Name = 
  3 active torsions:
  status: ('A' for Active; 'I' for Inactive)
    1  A    between atoms: C_3  and  C_25
    2  A    between atoms: C_8  and  O_18
    3  A    between atoms: O_18  and  C_30
                            x       y       z     vdW  Elec       q    Type
                         _______ _______ _______ _____ _____    ______ ____

>  <TORSDO>
F 3

$$$$
