=
 OpenBabel10262421293D

 32 36  0  0  1  0  0  0  0  0999 V2000
  187.0040  178.2050  142.0180 C   0  0  0  0  0  0  0  0  0  0  0  0
  186.2110  178.0030  146.8120 C   0  0  0  0  0  3  0  0  0  0  0  0
  184.8550  178.2640  146.6100 C   0  0  0  0  0  3  0  0  0  0  0  0
  185.1130  178.6620  140.4570 C   0  0  0  0  0  0  0  0  0  0  0  0
  183.7530  178.9260  140.2840 C   0  0  0  0  0  0  0  0  0  0  0  0
  189.1300  177.2510  141.2400 N   0  0  0  0  0  0  0  0  0  0  0  0
  188.8280  177.7500  143.5430 O   0  0  0  0  0  0  0  0  0  0  0  0
  181.5820  179.2690  141.0440 C   0  0  0  0  0  0  0  0  0  0  0  0
  187.0770  177.9270  145.7200 C   0  0  0  0  0  3  0  0  0  0  0  0
  187.4730  178.0310  143.3300 C   0  0  0  0  0  0  0  0  0  0  0  0
  186.5970  178.1100  144.4160 C   0  0  0  0  0  0  0  0  0  0  0  0
  184.7380  178.5560  142.8900 C   0  0  0  0  0  0  0  0  0  0  0  0
  181.5660  179.3910  139.3830 S   0  0  0  0  0  0  0  0  0  0  0  0
  189.7770  177.7180  142.4770 C   0  0  1  0  0  3  0  0  0  0  0  0
  183.1810  179.1180  139.0630 N   0  0  0  0  0  2  0  0  0  0  0  0
  184.3650  178.4480  145.3150 C   0  0  0  0  0  3  0  0  0  0  0  0
  185.2240  178.3730  144.2020 C   0  0  0  0  0  0  0  0  0  0  0  0
  183.3710  178.8220  142.6830 C   0  0  0  0  0  3  0  0  0  0  0  0
  188.0390  178.1770  140.9270 C   0  0  0  0  0  2  0  0  0  0  0  0
  185.9200  178.5850  139.3270 O   0  0  0  0  0  1  0  0  0  0  0  0
  180.5970  179.3940  141.8180 O   0  0  0  0  0  0  0  0  0  0  0  0
  185.6310  178.4750  141.7730 C   0  0  0  0  0  0  0  0  0  0  0  0
  182.8920  179.0040  141.3950 C   0  0  0  0  0  0  0  0  0  0  0  0
  191.4500  176.8360  144.0470 N   0  0  0  0  0  0  0  0  0  0  0  0
  190.9010  176.8010  142.8810 C   0  0  0  0  0  3  0  0  0  0  0  0
  191.0310  177.7480  145.0810 C   0  0  0  0  0  2  0  0  0  0  0  0
  190.4980  176.9630  146.2630 C   0  0  0  0  0  2  0  0  0  0  0  0
  191.6130  176.5930  147.1830 C   0  0  0  0  0  0  0  0  0  0  0  0
  192.3390  175.3070  146.9860 C   0  0  0  0  0  1  0  0  0  0  0  0
  191.9200  177.3270  148.1090 O   0  0  0  0  0  0  0  0  0  0  0  0
  189.4270  178.1270  138.9900 C   0  0  0  0  0  1  0  0  0  0  0  0
  190.0760  177.3800  140.1390 C   0  0  0  0  0  2  0  0  0  0  0  0
  1 10  1  0  0  0  0
  3  2  1  0  0  0  0
  4 22  1  0  0  0  0
  5  4  2  0  0  0  0
  5 23  1  0  0  0  0
  6 14  1  0  0  0  0
  8 23  1  0  0  0  0
  8 21  2  0  0  0  0
  9  2  2  0  0  0  0
 10  7  1  0  0  0  0
 10 11  2  0  0  0  0
 11  9  1  0  0  0  0
 12 17  2  0  0  0  0
 13  8  1  0  0  0  0
 14 25  1  1  0  0  0
 14  7  1  0  0  0  0
 15 13  1  0  0  0  0
 15  5  1  0  0  0  0
 16  3  2  0  0  0  0
 17 11  1  0  0  0  0
 17 16  1  0  0  0  0
 18 12  1  0  0  0  0
 19  6  1  0  0  0  0
 19  1  1  0  0  0  0
 20  4  1  0  0  0  0
 22  1  2  0  0  0  0
 22 12  1  0  0  0  0
 23 18  2  0  0  0  0
 24 26  1  0  0  0  0
 25 24  2  0  0  0  0
 26 27  1  0  0  0  0
 27 28  1  0  0  0  0
 28 30  2  0  0  0  0
 29 28  1  0  0  0  0
 31 32  1  0  0  0  0
 32  6  1  0  0  0  0
M  END
>  <MODEL>
1

>  <REMARK>
 VINA RESULT:     -10.2      0.000      0.000
  Name = 
  5 active torsions:
  status: ('A' for Active; 'I' for Inactive)
    1  A    between atoms: C_1  and  C_10
    2  A    between atoms: N_2  and  C_24
    3  A    between atoms: N_8  and  C_23
    4  A    between atoms: C_10  and  C_24
    5  A    between atoms: C_12  and  C_21
                            x       y       z     vdW  Elec       q    Type
                         _______ _______ _______ _____ _____    ______ ____

>  <TORSDO>
F 5

$$$$
=
 OpenBabel10262421293D

 32 36  0  0  1  0  0  0  0  0999 V2000
  188.2620  177.6730  141.9850 C   0  0  0  0  0  0  0  0  0  0  0  0
  183.6770  178.9290  143.0120 C   0  0  0  0  0  3  0  0  0  0  0  0
  183.9450  178.8290  144.3780 C   0  0  0  0  0  3  0  0  0  0  0  0
  189.8690  177.1900  143.8320 C   0  0  0  0  0  0  0  0  0  0  0  0
  190.1070  177.0930  145.2040 C   0  0  0  0  0  0  0  0  0  0  0  0
  189.0170  178.1410  139.6950 N   0  0  0  0  0  0  0  0  0  0  0  0
  186.6960  178.1560  140.2030 O   0  0  0  0  0  0  0  0  0  0  0  0
  189.4870  177.2200  147.4420 C   0  0  0  0  0  0  0  0  0  0  0  0
  184.6850  178.6630  142.0830 C   0  0  0  0  0  3  0  0  0  0  0  0
  186.9700  178.0330  141.5710 C   0  0  0  0  0  0  0  0  0  0  0  0
  185.9690  178.2960  142.5100 C   0  0  0  0  0  0  0  0  0  0  0  0
  187.5400  177.8270  144.3250 C   0  0  0  0  0  0  0  0  0  0  0  0
  191.0910  176.7760  147.3810 S   0  0  0  0  0  0  0  0  0  0  0  0
  187.6640  177.8410  139.2010 C   0  0  1  0  0  3  0  0  0  0  0  0
  191.3150  176.7470  145.7280 N   0  0  0  0  0  2  0  0  0  0  0  0
  185.2190  178.4650  144.8150 C   0  0  0  0  0  3  0  0  0  0  0  0
  186.2480  178.1940  143.8920 C   0  0  0  0  0  0  0  0  0  0  0  0
  187.8110  177.7230  145.7020 C   0  0  0  0  0  3  0  0  0  0  0  0
  189.2450  177.3360  140.8970 C   0  0  0  0  0  2  0  0  0  0  0  0
  190.9180  176.9260  142.9580 O   0  0  0  0  0  1  0  0  0  0  0  0
  188.7920  177.3920  148.4770 O   0  0  0  0  0  0  0  0  0  0  0  0
  188.5710  177.5580  143.3670 C   0  0  0  0  0  0  0  0  0  0  0  0
  189.0800  177.3600  146.1280 C   0  0  0  0  0  0  0  0  0  0  0  0
  186.4790  178.2740  137.0920 N   0  0  0  0  0  0  0  0  0  0  0  0
  187.3420  178.6500  137.9730 C   0  0  0  0  0  3  0  0  0  0  0  0
  185.7280  177.0490  137.2050 C   0  0  0  0  0  2  0  0  0  0  0  0
  184.2490  177.3460  137.0600 C   0  0  0  0  0  2  0  0  0  0  0  0
  183.6770  177.7750  138.3700 C   0  0  0  0  0  0  0  0  0  0  0  0
  183.0860  176.7620  139.2870 C   0  0  0  0  0  1  0  0  0  0  0  0
  183.6710  178.9550  138.6830 O   0  0  0  0  0  0  0  0  0  0  0  0
  190.9620  176.7120  139.3870 C   0  0  0  0  0  1  0  0  0  0  0  0
  189.9890  177.6630  138.7190 C   0  0  0  0  0  2  0  0  0  0  0  0
  1 22  1  0  0  0  0
  2  3  1  0  0  0  0
  3 16  2  0  0  0  0
  4  5  1  0  0  0  0
  5 15  1  0  0  0  0
  5 23  2  0  0  0  0
  6 19  1  0  0  0  0
  7 10  1  0  0  0  0
  8 21  2  0  0  0  0
  9 11  1  0  0  0  0
  9  2  2  0  0  0  0
 10  1  2  0  0  0  0
 10 11  1  0  0  0  0
 11 17  2  0  0  0  0
 12 18  2  0  0  0  0
 13  8  1  0  0  0  0
 14 25  1  6  0  0  0
 14  6  1  0  0  0  0
 14  7  1  0  0  0  0
 15 13  1  0  0  0  0
 17 12  1  0  0  0  0
 17 16  1  0  0  0  0
 18 23  1  0  0  0  0
 19  1  1  0  0  0  0
 20  4  1  0  0  0  0
 22  4  2  0  0  0  0
 22 12  1  0  0  0  0
 23  8  1  0  0  0  0
 24 26  1  0  0  0  0
 24 25  2  0  0  0  0
 27 26  1  0  0  0  0
 27 28  1  0  0  0  0
 28 30  2  0  0  0  0
 28 29  1  0  0  0  0
 32 31  1  0  0  0  0
 32  6  1  0  0  0  0
M  END
>  <MODEL>
2

>  <REMARK>
 VINA RESULT:     -10.2      2.942      7.163
  Name = 
  5 active torsions:
  status: ('A' for Active; 'I' for Inactive)
    1  A    between atoms: C_1  and  C_10
    2  A    between atoms: N_2  and  C_24
    3  A    between atoms: N_8  and  C_23
    4  A    between atoms: C_10  and  C_24
    5  A    between atoms: C_12  and  C_21
                            x       y       z     vdW  Elec       q    Type
                         _______ _______ _______ _____ _____    ______ ____

>  <TORSDO>
F 5

$$$$
=
 OpenBabel10262421293D

 32 36  0  0  1  0  0  0  0  0999 V2000
  188.3250  177.6810  141.9170 C   0  0  0  0  0  0  0  0  0  0  0  0
  183.7160  178.8970  142.8840 C   0  0  0  0  0  3  0  0  0  0  0  0
  183.9620  178.7830  144.2520 C   0  0  0  0  0  3  0  0  0  0  0  0
  189.9050  177.1880  143.7840 C   0  0  0  0  0  0  0  0  0  0  0  0
  190.1210  177.0770  145.1590 C   0  0  0  0  0  0  0  0  0  0  0  0
  189.1140  178.1790  139.6450 N   0  0  0  0  0  0  0  0  0  0  0  0
  186.7850  178.1740  140.1160 O   0  0  0  0  0  0  0  0  0  0  0  0
  189.4640  177.1740  147.3880 C   0  0  0  0  0  0  0  0  0  0  0  0
  184.7400  178.6480  141.9690 C   0  0  0  0  0  3  0  0  0  0  0  0
  187.0380  178.0380  141.4860 C   0  0  0  0  0  0  0  0  0  0  0  0
  186.0200  178.2840  142.4120 C   0  0  0  0  0  0  0  0  0  0  0  0
  187.5640  177.8040  144.2460 C   0  0  0  0  0  0  0  0  0  0  0  0
  191.0720  176.7410  147.3480 S   0  0  0  0  0  0  0  0  0  0  0  0
  187.7710  177.8770  139.1260 C   0  0  1  0  0  3  0  0  0  0  0  0
  191.3230  176.7320  145.6990 N   0  0  0  0  0  2  0  0  0  0  0  0
  185.2320  178.4220  144.7060 C   0  0  0  0  0  3  0  0  0  0  0  0
  186.2770  178.1680  143.7970 C   0  0  0  0  0  0  0  0  0  0  0  0
  187.8140  177.6870  145.6270 C   0  0  0  0  0  3  0  0  0  0  0  0
  189.3280  177.3630  140.8420 C   0  0  0  0  0  2  0  0  0  0  0  0
  190.9700  176.9400  142.9250 O   0  0  0  0  0  1  0  0  0  0  0  0
  188.7520  177.3300  148.4140 O   0  0  0  0  0  0  0  0  0  0  0  0
  188.6120  177.5520  143.3020 C   0  0  0  0  0  0  0  0  0  0  0  0
  189.0780  177.3260  146.0700 C   0  0  0  0  0  0  0  0  0  0  0  0
  186.8120  178.2330  136.8910 N   0  0  0  0  0  0  0  0  0  0  0  0
  187.4630  178.6970  137.9020 C   0  0  0  0  0  3  0  0  0  0  0  0
  186.3030  176.8850  136.8410 C   0  0  0  0  0  2  0  0  0  0  0  0
  186.9360  176.1480  135.6780 C   0  0  0  0  0  2  0  0  0  0  0  0
  188.2920  175.6510  136.0570 C   0  0  0  0  0  0  0  0  0  0  0  0
  189.4940  176.1640  135.3420 C   0  0  0  0  0  1  0  0  0  0  0  0
  188.4190  174.8120  136.9340 O   0  0  0  0  0  0  0  0  0  0  0  0
  190.6940  176.4000  139.1390 C   0  0  0  0  0  1  0  0  0  0  0  0
  190.1040  177.7190  138.6800 C   0  0  0  0  0  2  0  0  0  0  0  0
  1 22  1  0  0  0  0
  2  3  1  0  0  0  0
  3 16  2  0  0  0  0
  4  5  1  0  0  0  0
  5 15  1  0  0  0  0
  5 23  2  0  0  0  0
  6 19  1  0  0  0  0
  7 10  1  0  0  0  0
  8 21  2  0  0  0  0
  9 11  1  0  0  0  0
  9  2  2  0  0  0  0
 10  1  2  0  0  0  0
 10 11  1  0  0  0  0
 11 17  2  0  0  0  0
 12 18  2  0  0  0  0
 13  8  1  0  0  0  0
 14 25  1  6  0  0  0
 14  6  1  0  0  0  0
 14  7  1  0  0  0  0
 15 13  1  0  0  0  0
 17 12  1  0  0  0  0
 17 16  1  0  0  0  0
 18 23  1  0  0  0  0
 19  1  1  0  0  0  0
 20  4  1  0  0  0  0
 22  4  2  0  0  0  0
 22 12  1  0  0  0  0
 23  8  1  0  0  0  0
 24 25  2  0  0  0  0
 26 24  1  0  0  0  0
 27 28  1  0  0  0  0
 27 26  1  0  0  0  0
 28 30  2  0  0  0  0
 29 28  1  0  0  0  0
 32 31  1  0  0  0  0
 32  6  1  0  0  0  0
M  END
>  <MODEL>
3

>  <REMARK>
 VINA RESULT:     -10.1      3.201      7.112
  Name = 
  5 active torsions:
  status: ('A' for Active; 'I' for Inactive)
    1  A    between atoms: C_1  and  C_10
    2  A    between atoms: N_2  and  C_24
    3  A    between atoms: N_8  and  C_23
    4  A    between atoms: C_10  and  C_24
    5  A    between atoms: C_12  and  C_21
                            x       y       z     vdW  Elec       q    Type
                         _______ _______ _______ _____ _____    ______ ____

>  <TORSDO>
F 5

$$$$
=
 OpenBabel10262421293D

 32 36  0  0  1  0  0  0  0  0999 V2000
  187.1900  177.9080  142.1560 C   0  0  0  0  0  0  0  0  0  0  0  0
  183.3350  178.9910  144.9160 C   0  0  0  0  0  3  0  0  0  0  0  0
  184.0850  178.7670  146.0700 C   0  0  0  0  0  3  0  0  0  0  0  0
  189.3550  177.2780  143.2260 C   0  0  0  0  0  0  0  0  0  0  0  0
  190.0800  177.0560  144.3980 C   0  0  0  0  0  0  0  0  0  0  0  0
  187.0570  178.6010  139.8040 N   0  0  0  0  0  0  0  0  0  0  0  0
  185.0880  178.5320  141.1320 O   0  0  0  0  0  0  0  0  0  0  0  0
  190.3320  176.9610  146.7080 C   0  0  0  0  0  0  0  0  0  0  0  0
  183.9230  178.8290  143.6600 C   0  0  0  0  0  3  0  0  0  0  0  0
  185.8450  178.2860  142.2840 C   0  0  0  0  0  0  0  0  0  0  0  0
  185.2660  178.4440  143.5460 C   0  0  0  0  0  0  0  0  0  0  0  0
  187.3860  177.8290  144.6010 C   0  0  0  0  0  0  0  0  0  0  0  0
  191.7910  176.5490  146.0180 S   0  0  0  0  0  0  0  0  0  0  0  0
  185.6110  178.3280  139.8190 C   0  0  1  0  0  3  0  0  0  0  0  0
  191.3890  176.6800  144.4040 N   0  0  0  0  0  2  0  0  0  0  0  0
  185.4230  178.3830  145.9710 C   0  0  0  0  0  3  0  0  0  0  0  0
  186.0330  178.2160  144.7120 C   0  0  0  0  0  0  0  0  0  0  0  0
  188.1440  177.6000  145.7640 C   0  0  0  0  0  3  0  0  0  0  0  0
  187.6960  177.6900  140.7560 C   0  0  0  0  0  2  0  0  0  0  0  0
  190.0030  177.1130  142.0060 O   0  0  0  0  0  1  0  0  0  0  0  0
  190.0720  177.0240  147.9380 O   0  0  0  0  0  0  0  0  0  0  0  0
  187.9850  177.6680  143.3090 C   0  0  0  0  0  0  0  0  0  0  0  0
  189.4720  177.2180  145.6570 C   0  0  0  0  0  0  0  0  0  0  0  0
  183.8590  178.8660  138.1820 N   0  0  0  0  0  0  0  0  0  0  0  0
  184.8750  179.2440  138.8770 C   0  0  0  0  0  3  0  0  0  0  0  0
  183.3190  177.5310  138.2480 C   0  0  0  0  0  2  0  0  0  0  0  0
  181.8110  177.6000  138.3910 C   0  0  0  0  0  2  0  0  0  0  0  0
  181.4020  177.1780  139.7620 C   0  0  0  0  0  0  0  0  0  0  0  0
  181.5150  178.1370  140.8970 C   0  0  0  0  0  1  0  0  0  0  0  0
  180.9970  176.0440  139.9640 O   0  0  0  0  0  0  0  0  0  0  0  0
  188.5560  177.0740  138.6470 C   0  0  0  0  0  1  0  0  0  0  0  0
  187.5900  178.2320  138.4980 C   0  0  0  0  0  2  0  0  0  0  0  0
  1 10  2  0  0  0  0
  1 22  1  0  0  0  0
  2  3  1  0  0  0  0
  4 22  2  0  0  0  0
  4  5  1  0  0  0  0
  5 15  1  0  0  0  0
  5 23  2  0  0  0  0
  6 14  1  0  0  0  0
  6 19  1  0  0  0  0
  7 10  1  0  0  0  0
  8 21  2  0  0  0  0
  9  2  2  0  0  0  0
 10 11  1  0  0  0  0
 11  9  1  0  0  0  0
 11 17  2  0  0  0  0
 12 17  1  0  0  0  0
 12 18  2  0  0  0  0
 13  8  1  0  0  0  0
 14 25  1  6  0  0  0
 14  7  1  0  0  0  0
 15 13  1  0  0  0  0
 16  3  2  0  0  0  0
 17 16  1  0  0  0  0
 19  1  1  0  0  0  0
 20  4  1  0  0  0  0
 22 12  1  0  0  0  0
 23 18  1  0  0  0  0
 23  8  1  0  0  0  0
 24 26  1  0  0  0  0
 24 25  2  0  0  0  0
 26 27  1  0  0  0  0
 27 28  1  0  0  0  0
 28 30  2  0  0  0  0
 28 29  1  0  0  0  0
 32 31  1  0  0  0  0
 32  6  1  0  0  0  0
M  END
>  <MODEL>
4

>  <REMARK>
 VINA RESULT:      -9.9      2.725      7.391
  Name = 
  5 active torsions:
  status: ('A' for Active; 'I' for Inactive)
    1  A    between atoms: C_1  and  C_10
    2  A    between atoms: N_2  and  C_24
    3  A    between atoms: N_8  and  C_23
    4  A    between atoms: C_10  and  C_24
    5  A    between atoms: C_12  and  C_21
                            x       y       z     vdW  Elec       q    Type
                         _______ _______ _______ _____ _____    ______ ____

>  <TORSDO>
F 5

$$$$
=
 OpenBabel10262421293D

 32 36  0  0  1  0  0  0  0  0999 V2000
  186.0120  178.3540  142.7400 C   0  0  0  0  0  0  0  0  0  0  0  0
  189.7460  177.6710  139.6990 C   0  0  0  0  0  3  0  0  0  0  0  0
  190.5950  177.4300  140.7790 C   0  0  0  0  0  3  0  0  0  0  0  0
  186.3570  178.1610  145.2040 C   0  0  0  0  0  0  0  0  0  0  0  0
  187.2310  177.9220  146.2660 C   0  0  0  0  0  0  0  0  0  0  0  0
  183.7750  178.2720  141.7310 N   0  0  0  0  0  0  0  0  0  0  0  0
  185.6900  178.5260  140.3480 O   0  0  0  0  0  0  0  0  0  0  0  0
  189.3070  177.4210  147.1850 C   0  0  0  0  0  0  0  0  0  0  0  0
  188.3990  177.9620  139.9230 C   0  0  0  0  0  3  0  0  0  0  0  0
  186.5380  178.3060  141.4400 C   0  0  0  0  0  0  0  0  0  0  0  0
  187.8880  178.0140  141.2280 C   0  0  0  0  0  0  0  0  0  0  0  0
  188.2320  177.8220  143.6410 C   0  0  0  0  0  0  0  0  0  0  0  0
  188.2250  177.6000  148.4380 S   0  0  0  0  0  0  0  0  0  0  0  0
  184.3180  178.8870  140.5090 C   0  0  1  0  0  3  0  0  0  0  0  0
  186.8420  177.9460  147.5710 N   0  0  0  0  0  2  0  0  0  0  0  0
  190.0990  177.4800  142.0830 C   0  0  0  0  0  3  0  0  0  0  0  0
  188.7430  177.7710  142.3270 C   0  0  0  0  0  0  0  0  0  0  0  0
  189.0870  177.5820  144.7330 C   0  0  0  0  0  3  0  0  0  0  0  0
  184.5670  178.7510  142.8660 C   0  0  0  0  0  2  0  0  0  0  0  0
  185.0240  178.4320  145.4930 O   0  0  0  0  0  1  0  0  0  0  0  0
  190.5320  177.1460  147.2820 O   0  0  0  0  0  0  0  0  0  0  0  0
  186.8480  178.1180  143.8650 C   0  0  0  0  0  0  0  0  0  0  0  0
  188.5870  177.6340  146.0250 C   0  0  0  0  0  0  0  0  0  0  0  0
  182.8800  179.2190  138.5440 N   0  0  0  0  0  0  0  0  0  0  0  0
  183.5680  178.4230  139.2880 C   0  0  0  0  0  3  0  0  0  0  0  0
  182.7730  180.6330  138.8000 C   0  0  0  0  0  2  0  0  0  0  0  0
  181.3130  181.0410  138.7900 C   0  0  0  0  0  2  0  0  0  0  0  0
  181.0260  181.9070  137.6090 C   0  0  0  0  0  0  0  0  0  0  0  0
  180.6280  181.2870  136.3150 C   0  0  0  0  0  1  0  0  0  0  0  0
  181.1390  183.1200  137.6920 O   0  0  0  0  0  0  0  0  0  0  0  0
  182.2160  179.0390  143.4340 C   0  0  0  0  0  1  0  0  0  0  0  0
  182.4280  178.7820  141.9550 C   0  0  0  0  0  2  0  0  0  0  0  0
  1 19  1  0  0  0  0
  1 22  1  0  0  0  0
  2  9  2  0  0  0  0
  2  3  1  0  0  0  0
  3 16  2  0  0  0  0
  4 20  1  0  0  0  0
  4  5  1  0  0  0  0
  5 15  1  0  0  0  0
  6 32  1  0  0  0  0
  6 19  1  0  0  0  0
  7 14  1  0  0  0  0
  7 10  1  0  0  0  0
  8 21  2  0  0  0  0
  8 13  1  0  0  0  0
  9 11  1  0  0  0  0
 10  1  2  0  0  0  0
 11 10  1  0  0  0  0
 11 17  2  0  0  0  0
 12 22  1  0  0  0  0
 12 18  2  0  0  0  0
 14 25  1  6  0  0  0
 14  6  1  0  0  0  0
 15 13  1  0  0  0  0
 16 17  1  0  0  0  0
 17 12  1  0  0  0  0
 18 23  1  0  0  0  0
 22  4  2  0  0  0  0
 23  5  2  0  0  0  0
 23  8  1  0  0  0  0
 24 26  1  0  0  0  0
 24 25  2  0  0  0  0
 27 26  1  0  0  0  0
 28 30  2  0  0  0  0
 28 27  1  0  0  0  0
 29 28  1  0  0  0  0
 32 31  1  0  0  0  0
M  END
>  <MODEL>
5

>  <REMARK>
 VINA RESULT:      -9.6      3.103      8.639
  Name = 
  5 active torsions:
  status: ('A' for Active; 'I' for Inactive)
    1  A    between atoms: C_1  and  C_10
    2  A    between atoms: N_2  and  C_24
    3  A    between atoms: N_8  and  C_23
    4  A    between atoms: C_10  and  C_24
    5  A    between atoms: C_12  and  C_21
                            x       y       z     vdW  Elec       q    Type
                         _______ _______ _______ _____ _____    ______ ____

>  <TORSDO>
F 5

$$$$
=
 OpenBabel10262421293D

 32 36  0  0  1  0  0  0  0  0999 V2000
  187.2510  177.8930  142.2230 C   0  0  0  0  0  0  0  0  0  0  0  0
  183.3690  178.9760  144.9460 C   0  0  0  0  0  3  0  0  0  0  0  0
  184.1090  178.7540  146.1080 C   0  0  0  0  0  3  0  0  0  0  0  0
  189.4060  177.2660  143.3130 C   0  0  0  0  0  0  0  0  0  0  0  0
  190.1210  177.0460  144.4920 C   0  0  0  0  0  0  0  0  0  0  0  0
  187.1380  178.5830  139.8690 N   0  0  0  0  0  0  0  0  0  0  0  0
  185.1580  178.5140  141.1790 O   0  0  0  0  0  0  0  0  0  0  0  0
  190.3520  176.9540  146.8040 C   0  0  0  0  0  0  0  0  0  0  0  0
  183.9690  178.8140  143.6960 C   0  0  0  0  0  3  0  0  0  0  0  0
  185.9040  178.2700  142.3380 C   0  0  0  0  0  0  0  0  0  0  0  0
  185.3140  178.4290  143.5950 C   0  0  0  0  0  0  0  0  0  0  0  0
  187.4240  177.8180  144.6690 C   0  0  0  0  0  0  0  0  0  0  0  0
  191.8180  176.5430  146.1290 S   0  0  0  0  0  0  0  0  0  0  0  0
  185.6930  178.3090  139.8710 C   0  0  1  0  0  3  0  0  0  0  0  0
  191.4300  176.6710  144.5100 N   0  0  0  0  0  2  0  0  0  0  0  0
  185.4490  178.3710  146.0210 C   0  0  0  0  0  3  0  0  0  0  0  0
  186.0700  178.2030  144.7680 C   0  0  0  0  0  0  0  0  0  0  0  0
  188.1720  177.5910  145.8400 C   0  0  0  0  0  3  0  0  0  0  0  0
  187.7700  177.6740  140.8280 C   0  0  0  0  0  2  0  0  0  0  0  0
  190.0650  177.1000  142.1000 O   0  0  0  0  0  1  0  0  0  0  0  0
  190.0810  177.0190  148.0320 O   0  0  0  0  0  0  0  0  0  0  0  0
  188.0350  177.6550  143.3840 C   0  0  0  0  0  0  0  0  0  0  0  0
  189.5020  177.2090  145.7450 C   0  0  0  0  0  0  0  0  0  0  0  0
  183.9430  178.8480  138.2310 N   0  0  0  0  0  0  0  0  0  0  0  0
  184.9650  179.2230  138.9220 C   0  0  0  0  0  3  0  0  0  0  0  0
  183.3900  177.5200  138.3120 C   0  0  0  0  0  2  0  0  0  0  0  0
  183.0400  177.0320  136.9200 C   0  0  0  0  0  2  0  0  0  0  0  0
  183.8650  175.8390  136.5680 C   0  0  0  0  0  0  0  0  0  0  0  0
  185.3250  175.8360  136.8640 C   0  0  0  0  0  1  0  0  0  0  0  0
  183.3540  174.8760  136.0190 O   0  0  0  0  0  0  0  0  0  0  0  0
  189.1980  178.2800  138.6090 C   0  0  0  0  0  1  0  0  0  0  0  0
  187.6840  178.2130  138.5680 C   0  0  0  0  0  2  0  0  0  0  0  0
  1 10  2  0  0  0  0
  1 22  1  0  0  0  0
  2  3  1  0  0  0  0
  4 22  2  0  0  0  0
  4  5  1  0  0  0  0
  5 15  1  0  0  0  0
  5 23  2  0  0  0  0
  6 14  1  0  0  0  0
  6 19  1  0  0  0  0
  7 10  1  0  0  0  0
  8 21  2  0  0  0  0
  9  2  2  0  0  0  0
 10 11  1  0  0  0  0
 11  9  1  0  0  0  0
 11 17  2  0  0  0  0
 12 17  1  0  0  0  0
 12 18  2  0  0  0  0
 13  8  1  0  0  0  0
 14 25  1  6  0  0  0
 14  7  1  0  0  0  0
 15 13  1  0  0  0  0
 16  3  2  0  0  0  0
 17 16  1  0  0  0  0
 19  1  1  0  0  0  0
 20  4  1  0  0  0  0
 22 12  1  0  0  0  0
 23 18  1  0  0  0  0
 23  8  1  0  0  0  0
 24 26  1  0  0  0  0
 24 25  2  0  0  0  0
 27 26  1  0  0  0  0
 28 29  1  0  0  0  0
 28 27  1  0  0  0  0
 30 28  2  0  0  0  0
 32 31  1  0  0  0  0
 32  6  1  0  0  0  0
M  END
>  <MODEL>
6

>  <REMARK>
 VINA RESULT:      -9.5      3.043      7.492
  Name = 
  5 active torsions:
  status: ('A' for Active; 'I' for Inactive)
    1  A    between atoms: C_1  and  C_10
    2  A    between atoms: N_2  and  C_24
    3  A    between atoms: N_8  and  C_23
    4  A    between atoms: C_10  and  C_24
    5  A    between atoms: C_12  and  C_21
                            x       y       z     vdW  Elec       q    Type
                         _______ _______ _______ _____ _____    ______ ____

>  <TORSDO>
F 5

$$$$
=
 OpenBabel10262421293D

 32 36  0  0  1  0  0  0  0  0999 V2000
  186.5090  178.3180  142.7400 C   0  0  0  0  0  0  0  0  0  0  0  0
  190.4140  177.5030  139.9570 C   0  0  0  0  0  3  0  0  0  0  0  0
  191.1800  177.2360  141.0920 C   0  0  0  0  0  3  0  0  0  0  0  0
  186.6800  178.1190  145.2210 C   0  0  0  0  0  0  0  0  0  0  0  0
  187.4720  177.8520  146.3390 C   0  0  0  0  0  0  0  0  0  0  0  0
  184.3430  178.3100  141.5810 N   0  0  0  0  0  0  0  0  0  0  0  0
  186.3550  178.4960  140.3310 O   0  0  0  0  0  0  0  0  0  0  0  0
  189.4630  177.2840  147.3960 C   0  0  0  0  0  0  0  0  0  0  0  0
  189.0650  177.8390  140.0890 C   0  0  0  0  0  3  0  0  0  0  0  0
  187.1190  178.2500  141.4780 C   0  0  0  0  0  0  0  0  0  0  0  0
  188.4700  177.9120  141.3570 C   0  0  0  0  0  0  0  0  0  0  0  0
  188.6430  177.7130  143.7880 C   0  0  0  0  0  0  0  0  0  0  0  0
  188.3050  177.5020  148.5730 S   0  0  0  0  0  0  0  0  0  0  0  0
  184.9880  178.9030  140.3990 C   0  0  1  0  0  3  0  0  0  0  0  0
  186.9960  177.8930  147.6150 N   0  0  0  0  0  2  0  0  0  0  0  0
  190.5990  177.3050  142.3590 C   0  0  0  0  0  3  0  0  0  0  0  0
  189.2400  177.6420  142.5110 C   0  0  0  0  0  0  0  0  0  0  0  0
  189.4150  177.4470  144.9350 C   0  0  0  0  0  3  0  0  0  0  0  0
  185.0720  178.7640  142.7670 C   0  0  0  0  0  2  0  0  0  0  0  0
  185.3400  178.4360  145.4200 O   0  0  0  0  0  1  0  0  0  0  0  0
  190.6690  176.9680  147.5750 O   0  0  0  0  0  0  0  0  0  0  0  0
  187.2580  178.0570  143.9180 C   0  0  0  0  0  0  0  0  0  0  0  0
  188.8300  177.5190  146.1900 C   0  0  0  0  0  0  0  0  0  0  0  0
  184.9520  178.0470  138.0960 N   0  0  0  0  0  0  0  0  0  0  0  0
  184.3070  178.4630  139.1300 C   0  0  0  0  0  3  0  0  0  0  0  0
  186.3900  177.9510  138.0570 C   0  0  0  0  0  2  0  0  0  0  0  0
  186.8900  178.3730  136.6900 C   0  0  0  0  0  2  0  0  0  0  0  0
  188.3540  178.6590  136.7410 C   0  0  0  0  0  0  0  0  0  0  0  0
  189.3240  177.6500  136.2310 C   0  0  0  0  0  1  0  0  0  0  0  0
  188.7620  179.7060  137.2180 O   0  0  0  0  0  0  0  0  0  0  0  0
  182.6460  179.0030  143.1810 C   0  0  0  0  0  1  0  0  0  0  0  0
  183.0020  178.8660  141.7140 C   0  0  0  0  0  2  0  0  0  0  0  0
  1 19  1  0  0  0  0
  1 22  1  0  0  0  0
  2  9  2  0  0  0  0
  2  3  1  0  0  0  0
  3 16  2  0  0  0  0
  4 20  1  0  0  0  0
  4  5  1  0  0  0  0
  5 15  1  0  0  0  0
  6 32  1  0  0  0  0
  6 19  1  0  0  0  0
  7 14  1  0  0  0  0
  7 10  1  0  0  0  0
  8 21  2  0  0  0  0
  8 13  1  0  0  0  0
  9 11  1  0  0  0  0
 10  1  2  0  0  0  0
 11 10  1  0  0  0  0
 11 17  2  0  0  0  0
 12 22  1  0  0  0  0
 12 18  2  0  0  0  0
 14 25  1  6  0  0  0
 14  6  1  0  0  0  0
 15 13  1  0  0  0  0
 16 17  1  0  0  0  0
 17 12  1  0  0  0  0
 18 23  1  0  0  0  0
 22  4  2  0  0  0  0
 23  5  2  0  0  0  0
 23  8  1  0  0  0  0
 24 25  2  0  0  0  0
 26 24  1  0  0  0  0
 27 28  1  0  0  0  0
 27 26  1  0  0  0  0
 28 30  2  0  0  0  0
 29 28  1  0  0  0  0
 32 31  1  0  0  0  0
M  END
>  <MODEL>
7

>  <REMARK>
 VINA RESULT:      -9.2      3.067      7.658
  Name = 
  5 active torsions:
  status: ('A' for Active; 'I' for Inactive)
    1  A    between atoms: C_1  and  C_10
    2  A    between atoms: N_2  and  C_24
    3  A    between atoms: N_8  and  C_23
    4  A    between atoms: C_10  and  C_24
    5  A    between atoms: C_12  and  C_21
                            x       y       z     vdW  Elec       q    Type
                         _______ _______ _______ _____ _____    ______ ____

>  <TORSDO>
F 5

$$$$
=
 OpenBabel10262421293D

 32 36  0  0  1  0  0  0  0  0999 V2000
  186.1520  178.2550  141.4950 C   0  0  0  0  0  0  0  0  0  0  0  0
  183.3780  178.9770  145.4240 C   0  0  0  0  0  3  0  0  0  0  0  0
  184.4440  178.6290  146.2530 C   0  0  0  0  0  3  0  0  0  0  0  0
  188.5240  177.5270  141.7570 C   0  0  0  0  0  0  0  0  0  0  0  0
  189.5720  177.1780  142.6110 C   0  0  0  0  0  0  0  0  0  0  0  0
  185.3110  179.2130  139.3950 N   0  0  0  0  0  0  0  0  0  0  0  0
  183.8530  178.9740  141.2550 O   0  0  0  0  0  0  0  0  0  0  0  0
  190.5280  176.8210  144.7010 C   0  0  0  0  0  0  0  0  0  0  0  0
  183.5410  178.9670  144.0370 C   0  0  0  0  0  3  0  0  0  0  0  0
  184.9240  178.6030  142.0780 C   0  0  0  0  0  0  0  0  0  0  0  0
  184.7710  178.6100  143.4670 C   0  0  0  0  0  0  0  0  0  0  0  0
  187.0960  177.8980  143.7310 C   0  0  0  0  0  0  0  0  0  0  0  0
  191.6880  176.5050  143.5480 S   0  0  0  0  0  0  0  0  0  0  0  0
  183.9360  178.9270  139.8300 C   0  0  1  0  0  3  0  0  0  0  0  0
  190.8070  176.8170  142.1660 N   0  0  0  0  0  2  0  0  0  0  0  0
  185.6730  178.2720  145.6980 C   0  0  0  0  0  3  0  0  0  0  0  0
  185.8560  178.2570  144.3020 C   0  0  0  0  0  0  0  0  0  0  0  0
  188.1730  177.5440  144.5660 C   0  0  0  0  0  3  0  0  0  0  0  0
  186.1910  178.2050  139.9920 C   0  0  0  0  0  2  0  0  0  0  0  0
  188.7550  177.5090  140.3860 O   0  0  0  0  0  1  0  0  0  0  0  0
  190.6650  176.7400  145.9500 O   0  0  0  0  0  0  0  0  0  0  0  0
  187.2590  177.8920  142.3080 C   0  0  0  0  0  0  0  0  0  0  0  0
  189.3910  177.1890  144.0070 C   0  0  0  0  0  0  0  0  0  0  0  0
  181.6930  179.8570  139.4460 N   0  0  0  0  0  0  0  0  0  0  0  0
  182.9680  179.9380  139.2750 C   0  0  0  0  0  3  0  0  0  0  0  0
  181.0710  178.7960  140.1970 C   0  0  0  0  0  2  0  0  0  0  0  0
  179.8110  179.3170  140.8600 C   0  0  0  0  0  2  0  0  0  0  0  0
  180.0230  179.4630  142.3300 C   0  0  0  0  0  0  0  0  0  0  0  0
  180.0440  178.2530  143.1990 C   0  0  0  0  0  1  0  0  0  0  0  0
  180.1580  180.5700  142.8270 O   0  0  0  0  0  0  0  0  0  0  0  0
  185.4550  177.5170  137.6570 C   0  0  0  0  0  1  0  0  0  0  0  0
  185.4010  179.0020  137.9550 C   0  0  0  0  0  2  0  0  0  0  0  0
  1 10  2  0  0  0  0
  1 22  1  0  0  0  0
  2  3  1  0  0  0  0
  4 22  2  0  0  0  0
  4  5  1  0  0  0  0
  5 23  2  0  0  0  0
  6 14  1  0  0  0  0
  6 19  1  0  0  0  0
  7 10  1  0  0  0  0
  8 21  2  0  0  0  0
  9  2  2  0  0  0  0
 10 11  1  0  0  0  0
 11  9  1  0  0  0  0
 11 17  2  0  0  0  0
 12 17  1  0  0  0  0
 12 18  2  0  0  0  0
 13  8  1  0  0  0  0
 14 25  1  6  0  0  0
 14  7  1  0  0  0  0
 15  5  1  0  0  0  0
 15 13  1  0  0  0  0
 16  3  2  0  0  0  0
 17 16  1  0  0  0  0
 19  1  1  0  0  0  0
 20  4  1  0  0  0  0
 22 12  1  0  0  0  0
 23 18  1  0  0  0  0
 23  8  1  0  0  0  0
 24 26  1  0  0  0  0
 25 24  2  0  0  0  0
 26 27  1  0  0  0  0
 27 28  1  0  0  0  0
 28 30  2  0  0  0  0
 28 29  1  0  0  0  0
 31 32  1  0  0  0  0
 32  6  1  0  0  0  0
M  END
>  <MODEL>
8

>  <REMARK>
 VINA RESULT:      -9.2      2.631      7.451
  Name = 
  5 active torsions:
  status: ('A' for Active; 'I' for Inactive)
    1  A    between atoms: C_1  and  C_10
    2  A    between atoms: N_2  and  C_24
    3  A    between atoms: N_8  and  C_23
    4  A    between atoms: C_10  and  C_24
    5  A    between atoms: C_12  and  C_21
                            x       y       z     vdW  Elec       q    Type
                         _______ _______ _______ _____ _____    ______ ____

>  <TORSDO>
F 5

$$$$
=
 OpenBabel10262421293D

 32 36  0  0  1  0  0  0  0  0999 V2000
  188.3260  177.7730  140.3110 C   0  0  0  0  0  0  0  0  0  0  0  0
  190.5530  178.0080  144.6290 C   0  0  0  0  0  3  0  0  0  0  0  0
  191.7550  177.6130  144.0420 C   0  0  0  0  0  3  0  0  0  0  0  0
  189.6080  177.0990  138.2800 C   0  0  0  0  0  0  0  0  0  0  0  0
  190.8230  176.7000  137.7200 C   0  0  0  0  0  0  0  0  0  0  0  0
  186.1530  178.9090  140.1600 N   0  0  0  0  0  0  0  0  0  0  0  0
  187.0980  178.4380  142.2880 O   0  0  0  0  0  0  0  0  0  0  0  0
  193.0840  176.1660  137.8100 C   0  0  0  0  0  0  0  0  0  0  0  0
  189.4060  178.1420  143.8450 C   0  0  0  0  0  3  0  0  0  0  0  0
  188.2940  178.0210  141.6920 C   0  0  0  0  0  0  0  0  0  0  0  0
  189.4490  177.8840  142.4670 C   0  0  0  0  0  0  0  0  0  0  0  0
  190.7110  177.2240  140.4790 C   0  0  0  0  0  0  0  0  0  0  0  0
  192.5850  176.0050  136.2290 S   0  0  0  0  0  0  0  0  0  0  0  0
  185.8760  178.5370  141.5550 C   0  0  1  0  0  3  0  0  0  0  0  0
  190.9780  176.4250  136.3950 N   0  0  0  0  0  2  0  0  0  0  0  0
  191.8110  177.3530  142.6720 C   0  0  0  0  0  3  0  0  0  0  0  0
  190.6640  177.4840  141.8660 C   0  0  0  0  0  0  0  0  0  0  0  0
  191.9230  176.8230  139.8850 C   0  0  0  0  0  3  0  0  0  0  0  0
  187.0140  177.8750  139.5810 C   0  0  0  0  0  2  0  0  0  0  0  0
  188.5040  177.2270  137.4420 O   0  0  0  0  0  1  0  0  0  0  0  0
  194.2440  175.9650  138.2570 O   0  0  0  0  0  0  0  0  0  0  0  0
  189.5310  177.3660  139.6790 C   0  0  0  0  0  0  0  0  0  0  0  0
  191.9700  176.5650  138.5240 C   0  0  0  0  0  0  0  0  0  0  0  0
  184.5910  179.4450  143.4440 N   0  0  0  0  0  0  0  0  0  0  0  0
  185.0100  179.5670  142.2310 C   0  0  0  0  0  3  0  0  0  0  0  0
  184.9210  178.3150  144.2750 C   0  0  0  0  0  2  0  0  0  0  0  0
  184.5090  178.6010  145.7060 C   0  0  0  0  0  2  0  0  0  0  0  0
  185.7160  178.7460  146.5720 C   0  0  0  0  0  0  0  0  0  0  0  0
  186.8410  177.7790  146.4410 C   0  0  0  0  0  1  0  0  0  0  0  0
  185.7760  179.6390  147.4020 O   0  0  0  0  0  0  0  0  0  0  0  0
  185.1520  178.1530  138.0750 C   0  0  0  0  0  1  0  0  0  0  0  0
  184.9100  178.8470  139.4010 C   0  0  0  0  0  2  0  0  0  0  0  0
  1 10  1  0  0  0  0
  3  2  1  0  0  0  0
  4 22  1  0  0  0  0
  5  4  2  0  0  0  0
  5 23  1  0  0  0  0
  6 14  1  0  0  0  0
  8 21  2  0  0  0  0
  8 23  1  0  0  0  0
  9  2  2  0  0  0  0
 10  7  1  0  0  0  0
 10 11  2  0  0  0  0
 11  9  1  0  0  0  0
 12 17  2  0  0  0  0
 13 15  1  0  0  0  0
 13  8  1  0  0  0  0
 14 25  1  1  0  0  0
 14  7  1  0  0  0  0
 15  5  1  0  0  0  0
 16  3  2  0  0  0  0
 17 11  1  0  0  0  0
 17 16  1  0  0  0  0
 18 12  1  0  0  0  0
 19  6  1  0  0  0  0
 19  1  1  0  0  0  0
 20  4  1  0  0  0  0
 22  1  2  0  0  0  0
 22 12  1  0  0  0  0
 23 18  2  0  0  0  0
 24 26  1  0  0  0  0
 25 24  2  0  0  0  0
 26 27  1  0  0  0  0
 27 28  1  0  0  0  0
 28 30  2  0  0  0  0
 29 28  1  0  0  0  0
 31 32  1  0  0  0  0
 32  6  1  0  0  0  0
M  END
>  <MODEL>
9

>  <REMARK>
 VINA RESULT:      -9.2      3.467      6.880
  Name = 
  5 active torsions:
  status: ('A' for Active; 'I' for Inactive)
    1  A    between atoms: C_1  and  C_10
    2  A    between atoms: N_2  and  C_24
    3  A    between atoms: N_8  and  C_23
    4  A    between atoms: C_10  and  C_24
    5  A    between atoms: C_12  and  C_21
                            x       y       z     vdW  Elec       q    Type
                         _______ _______ _______ _____ _____    ______ ____

>  <TORSDO>
F 5

$$$$
