=
 OpenBabel10262419573D

 25 28  0  0  1  0  0  0  0  0999 V2000
  187.2330  177.3460  145.1250 C   0  0  2  0  0  3  0  0  0  0  0  0
  188.6050  177.9710  144.8190 C   0  0  1  0  0  3  0  0  0  0  0  0
  187.8370  177.4310  147.4950 N   0  0  0  0  0  0  0  0  0  0  0  0
  186.0580  178.0620  144.5540 C   0  0  0  0  0  0  0  0  0  0  0  0
  183.6280  179.2580  143.9320 C   0  0  0  0  0  3  0  0  0  0  0  0
  189.2210  177.3080  147.1280 C   0  0  0  0  0  3  0  0  0  0  0  0
  185.1500  178.3540  145.5550 C   0  0  0  0  0  0  0  0  0  0  0  0
  183.9280  178.9620  145.2720 C   0  0  0  0  0  3  0  0  0  0  0  0
  184.5420  178.9390  142.9090 C   0  0  0  0  0  3  0  0  0  0  0  0
  186.9160  177.4790  146.5840 C   0  0  0  0  0  0  0  0  0  0  0  0
  185.6130  177.9940  146.8480 N   0  0  0  0  0  2  0  0  0  0  0  0
  185.7660  178.3260  143.2150 C   0  0  0  0  0  3  0  0  0  0  0  0
  189.6340  177.5330  145.8670 C   0  0  0  0  0  0  0  0  0  0  0  0
  189.0050  177.6350  143.4090 C   0  0  0  0  0  0  0  0  0  0  0  0
  189.7880  176.0540  141.7440 C   0  0  0  0  0  3  0  0  0  0  0  0
  188.9370  178.6280  142.4270 C   0  0  0  0  0  3  0  0  0  0  0  0
  189.2950  178.3370  141.1080 C   0  0  0  0  0  3  0  0  0  0  0  0
  189.4300  176.3440  143.0630 C   0  0  0  0  0  3  0  0  0  0  0  0
  189.7250  177.0480  140.7580 C   0  0  0  0  0  0  0  0  0  0  0  0
  190.1030  176.7360  139.3710 C   0  0  0  0  0  0  0  0  0  0  0  0
  189.7500  177.5970  138.3380 O   0  0  0  0  0  0  0  0  0  0  0  0
  190.7500  175.6880  139.1060 O   0  0  0  0  0  1  0  0  0  0  0  0
  191.0930  177.5260  145.6010 C   0  0  0  0  0  0  0  0  0  0  0  0
  191.6100  178.3700  144.8230 O   0  0  0  0  0  0  0  0  0  0  0  0
  191.9370  176.5750  146.2440 N   0  0  0  0  0  1  0  0  0  0  0  0
  1  4  1  6  0  0  0
  1 10  1  0  0  0  0
  2 14  1  6  0  0  0
  2  1  1  0  0  0  0
  2 13  1  0  0  0  0
  4  7  1  0  0  0  0
  5  8  1  0  0  0  0
  6  3  1  0  0  0  0
  7 11  1  0  0  0  0
  8  7  2  0  0  0  0
  9 12  1  0  0  0  0
  9  5  2  0  0  0  0
 10 11  1  0  0  0  0
 10  3  2  0  0  0  0
 12  4  2  0  0  0  0
 13  6  2  0  0  0  0
 15 18  2  0  0  0  0
 16 14  2  0  0  0  0
 17 16  1  0  0  0  0
 18 14  1  0  0  0  0
 19 17  2  0  0  0  0
 19 15  1  0  0  0  0
 20 19  1  0  0  0  0
 21 20  2  0  0  0  0
 22 20  1  0  0  0  0
 23 13  1  0  0  0  0
 23 25  1  0  0  0  0
 24 23  2  0  0  0  0
M  END
>  <MODEL>
1

>  <REMARK>
 VINA RESULT:      -9.2      0.000      0.000
  Name = 
  3 active torsions:
  status: ('A' for Active; 'I' for Inactive)
    1  A    between atoms: C_2  and  C_25
    2  A    between atoms: C_3  and  C_6
    3  A    between atoms: C_13  and  C_24
                            x       y       z     vdW  Elec       q    Type
                         _______ _______ _______ _____ _____    ______ ____

>  <TORSDO>
F 3

$$$$
=
 OpenBabel10262419573D

 25 28  0  0  1  0  0  0  0  0999 V2000
  187.2840  178.5240  141.9320 C   0  0  2  0  0  3  0  0  0  0  0  0
  188.0250  177.3000  142.4980 C   0  0  1  0  0  3  0  0  0  0  0  0
  188.3040  178.0120  139.7670 N   0  0  0  0  0  0  0  0  0  0  0  0
  185.8110  178.5450  142.1580 C   0  0  0  0  0  0  0  0  0  0  0  0
  183.0450  178.8020  142.1060 C   0  0  0  0  0  3  0  0  0  0  0  0
  189.4230  177.4270  140.4520 C   0  0  0  0  0  3  0  0  0  0  0  0
  185.1510  178.7060  140.9550 C   0  0  0  0  0  0  0  0  0  0  0  0
  183.7640  178.8290  140.9000 C   0  0  0  0  0  3  0  0  0  0  0  0
  183.7190  178.6620  143.3340 C   0  0  0  0  0  3  0  0  0  0  0  0
  187.3010  178.4930  140.4330 C   0  0  0  0  0  0  0  0  0  0  0  0
  186.0240  178.7070  139.8360 N   0  0  0  0  0  2  0  0  0  0  0  0
  185.1170  178.5420  143.3690 C   0  0  0  0  0  3  0  0  0  0  0  0
  189.3490  177.0900  141.7540 C   0  0  0  0  0  0  0  0  0  0  0  0
  188.1920  177.4600  143.9840 C   0  0  0  0  0  0  0  0  0  0  0  0
  189.4280  178.2730  145.9070 C   0  0  0  0  0  3  0  0  0  0  0  0
  187.2150  176.9400  144.8380 C   0  0  0  0  0  3  0  0  0  0  0  0
  187.3440  177.0830  146.2220 C   0  0  0  0  0  3  0  0  0  0  0  0
  189.3000  178.1300  144.5220 C   0  0  0  0  0  3  0  0  0  0  0  0
  188.4520  177.7500  146.7650 C   0  0  0  0  0  0  0  0  0  0  0  0
  188.5920  177.9030  148.2230 C   0  0  0  0  0  0  0  0  0  0  0  0
  189.7890  178.3550  148.7680 O   0  0  0  0  0  0  0  0  0  0  0  0
  187.6300  177.6280  148.9890 O   0  0  0  0  0  1  0  0  0  0  0  0
  190.4940  176.3610  142.3500 C   0  0  0  0  0  0  0  0  0  0  0  0
  190.3530  175.1920  142.7950 O   0  0  0  0  0  0  0  0  0  0  0  0
  191.7820  176.9690  142.4070 N   0  0  0  0  0  1  0  0  0  0  0  0
  1 10  1  6  0  0  0
  1  4  1  0  0  0  0
  1  2  1  0  0  0  0
  2 14  1  1  0  0  0
  3 10  2  0  0  0  0
  3  6  1  0  0  0  0
  4 12  1  0  0  0  0
  5  9  1  0  0  0  0
  6 13  2  0  0  0  0
  7  4  2  0  0  0  0
  8  7  1  0  0  0  0
  8  5  2  0  0  0  0
  9 12  2  0  0  0  0
 11 10  1  0  0  0  0
 11  7  1  0  0  0  0
 13 23  1  0  0  0  0
 13  2  1  0  0  0  0
 14 18  2  0  0  0  0
 14 16  1  0  0  0  0
 15 19  2  0  0  0  0
 16 17  2  0  0  0  0
 17 19  1  0  0  0  0
 18 15  1  0  0  0  0
 19 20  1  0  0  0  0
 20 21  2  0  0  0  0
 20 22  1  0  0  0  0
 23 25  1  0  0  0  0
 23 24  2  0  0  0  0
M  END
>  <MODEL>
2

>  <REMARK>
 VINA RESULT:      -9.0      2.969      5.426
  Name = 
  3 active torsions:
  status: ('A' for Active; 'I' for Inactive)
    1  A    between atoms: C_2  and  C_25
    2  A    between atoms: C_3  and  C_6
    3  A    between atoms: C_13  and  C_24
                            x       y       z     vdW  Elec       q    Type
                         _______ _______ _______ _____ _____    ______ ____

>  <TORSDO>
F 3

$$$$
=
 OpenBabel10262419573D

 25 28  0  0  1  0  0  0  0  0999 V2000
  186.8950  178.7800  142.1730 C   0  0  2  0  0  3  0  0  0  0  0  0
  187.8080  177.5550  142.3490 C   0  0  1  0  0  3  0  0  0  0  0  0
  187.1780  178.5160  139.7570 N   0  0  0  0  0  0  0  0  0  0  0  0
  185.5730  178.7010  142.8560 C   0  0  0  0  0  0  0  0  0  0  0  0
  182.9310  178.8080  143.7100 C   0  0  0  0  0  3  0  0  0  0  0  0
  188.4720  177.9360  139.9900 C   0  0  0  0  0  3  0  0  0  0  0  0
  184.5570  178.9290  141.9470 C   0  0  0  0  0  0  0  0  0  0  0  0
  183.2230  178.9800  142.3470 C   0  0  0  0  0  3  0  0  0  0  0  0
  183.9670  178.5990  144.6400 C   0  0  0  0  0  3  0  0  0  0  0  0
  186.4310  178.8810  140.7510 C   0  0  0  0  0  0  0  0  0  0  0  0
  185.0250  179.0750  140.6140 N   0  0  0  0  0  2  0  0  0  0  0  0
  185.3040  178.5540  144.2180 C   0  0  0  0  0  3  0  0  0  0  0  0
  188.8280  177.4840  141.2060 C   0  0  0  0  0  0  0  0  0  0  0  0
  188.4390  177.5930  143.7130 C   0  0  0  0  0  0  0  0  0  0  0  0
  190.1320  178.4100  145.2480 C   0  0  0  0  0  3  0  0  0  0  0  0
  187.8780  176.8350  144.7450 C   0  0  0  0  0  3  0  0  0  0  0  0
  188.4410  176.8620  146.0240 C   0  0  0  0  0  3  0  0  0  0  0  0
  189.5690  178.3850  143.9690 C   0  0  0  0  0  3  0  0  0  0  0  0
  189.5730  177.6480  146.2830 C   0  0  0  0  0  0  0  0  0  0  0  0
  190.1710  177.6790  147.6280 C   0  0  0  0  0  0  0  0  0  0  0  0
  191.4390  177.1510  147.8440 O   0  0  0  0  0  0  0  0  0  0  0  0
  189.5400  178.1850  148.5950 O   0  0  0  0  0  1  0  0  0  0  0  0
  190.1220  176.7700  141.3330 C   0  0  0  0  0  0  0  0  0  0  0  0
  190.2140  175.7230  142.0250 O   0  0  0  0  0  0  0  0  0  0  0  0
  191.2760  177.2490  140.6490 N   0  0  0  0  0  1  0  0  0  0  0  0
  1 10  1  6  0  0  0
  1  2  1  0  0  0  0
  1  4  1  0  0  0  0
  2 14  1  1  0  0  0
  3  6  1  0  0  0  0
  3 10  2  0  0  0  0
  4 12  1  0  0  0  0
  5  9  1  0  0  0  0
  6 13  2  0  0  0  0
  7  8  1  0  0  0  0
  7  4  2  0  0  0  0
  8  5  2  0  0  0  0
 11 10  1  0  0  0  0
 11  7  1  0  0  0  0
 12  9  2  0  0  0  0
 13 23  1  0  0  0  0
 13  2  1  0  0  0  0
 14 18  2  0  0  0  0
 14 16  1  0  0  0  0
 15 19  2  0  0  0  0
 16 17  2  0  0  0  0
 17 19  1  0  0  0  0
 18 15  1  0  0  0  0
 19 20  1  0  0  0  0
 20 21  2  0  0  0  0
 20 22  1  0  0  0  0
 23 24  2  0  0  0  0
 25 23  1  0  0  0  0
M  END
>  <MODEL>
3

>  <REMARK>
 VINA RESULT:      -8.8      2.777      5.223
  Name = 
  3 active torsions:
  status: ('A' for Active; 'I' for Inactive)
    1  A    between atoms: C_2  and  C_25
    2  A    between atoms: C_3  and  C_6
    3  A    between atoms: C_13  and  C_24
                            x       y       z     vdW  Elec       q    Type
                         _______ _______ _______ _____ _____    ______ ____

>  <TORSDO>
F 3

$$$$
=
 OpenBabel10262419573D

 25 28  0  0  1  0  0  0  0  0999 V2000
  186.4220  178.8210  144.8450 C   0  0  2  0  0  3  0  0  0  0  0  0
  185.9780  177.9790  143.6360 C   0  0  1  0  0  3  0  0  0  0  0  0
  184.0610  179.3510  145.2120 N   0  0  0  0  0  0  0  0  0  0  0  0
  187.2670  178.1130  145.8460 C   0  0  0  0  0  0  0  0  0  0  0  0
  188.5840  177.0800  148.0640 C   0  0  0  0  0  3  0  0  0  0  0  0
  183.8260  179.2020  143.8030 C   0  0  0  0  0  3  0  0  0  0  0  0
  186.7060  178.2280  147.1040 C   0  0  0  0  0  0  0  0  0  0  0  0
  187.3410  177.7110  148.2320 C   0  0  0  0  0  3  0  0  0  0  0  0
  189.1680  176.9830  146.7870 C   0  0  0  0  0  3  0  0  0  0  0  0
  185.2420  179.1500  145.7090 C   0  0  0  0  0  0  0  0  0  0  0  0
  185.4490  178.8880  147.0950 N   0  0  0  0  0  2  0  0  0  0  0  0
  188.5130  177.5120  145.6630 C   0  0  0  0  0  3  0  0  0  0  0  0
  184.7140  178.5770  143.0070 C   0  0  0  0  0  0  0  0  0  0  0  0
  187.1230  177.8480  142.6700 C   0  0  0  0  0  0  0  0  0  0  0  0
  188.4520  178.6930  140.8250 C   0  0  0  0  0  3  0  0  0  0  0  0
  187.9550  176.7270  142.7490 C   0  0  0  0  0  3  0  0  0  0  0  0
  189.0310  176.5870  141.8680 C   0  0  0  0  0  3  0  0  0  0  0  0
  187.3760  178.8340  141.7050 C   0  0  0  0  0  3  0  0  0  0  0  0
  189.2850  177.5690  140.8990 C   0  0  0  0  0  0  0  0  0  0  0  0
  190.4170  177.4260  139.9690 C   0  0  0  0  0  0  0  0  0  0  0  0
  191.7230  177.4960  140.4390 O   0  0  0  0  0  1  0  0  0  0  0  0
  190.2130  177.2380  138.7400 O   0  0  0  0  0  0  0  0  0  0  0  0
  184.3340  178.3380  141.5940 C   0  0  0  0  0  0  0  0  0  0  0  0
  183.7920  177.2560  141.2470 O   0  0  0  0  0  0  0  0  0  0  0  0
  184.5570  179.3440  140.6090 N   0  0  0  0  0  1  0  0  0  0  0  0
  1 10  1  1  0  0  0
  1  4  1  0  0  0  0
  2 14  1  6  0  0  0
  2  1  1  0  0  0  0
  3 10  2  0  0  0  0
  4  7  1  0  0  0  0
  5  8  1  0  0  0  0
  6  3  1  0  0  0  0
  7  8  2  0  0  0  0
  9  5  2  0  0  0  0
 10 11  1  0  0  0  0
 11  7  1  0  0  0  0
 12  4  2  0  0  0  0
 12  9  1  0  0  0  0
 13  2  1  0  0  0  0
 13  6  2  0  0  0  0
 14 16  1  0  0  0  0
 15 19  2  0  0  0  0
 15 18  1  0  0  0  0
 17 16  2  0  0  0  0
 18 14  2  0  0  0  0
 19 17  1  0  0  0  0
 20 21  1  0  0  0  0
 20 19  1  0  0  0  0
 22 20  2  0  0  0  0
 23 13  1  0  0  0  0
 24 23  2  0  0  0  0
 25 23  1  0  0  0  0
M  END
>  <MODEL>
4

>  <REMARK>
 VINA RESULT:      -8.7      2.216      4.596
  Name = 
  3 active torsions:
  status: ('A' for Active; 'I' for Inactive)
    1  A    between atoms: C_2  and  C_25
    2  A    between atoms: C_3  and  C_6
    3  A    between atoms: C_13  and  C_24
                            x       y       z     vdW  Elec       q    Type
                         _______ _______ _______ _____ _____    ______ ____

>  <TORSDO>
F 3

$$$$
=
 OpenBabel10262419573D

 25 28  0  0  1  0  0  0  0  0999 V2000
  187.3580  178.6690  141.1000 C   0  0  2  0  0  3  0  0  0  0  0  0
  188.3000  177.4530  141.1400 C   0  0  1  0  0  3  0  0  0  0  0  0
  187.5490  178.6070  138.6610 N   0  0  0  0  0  0  0  0  0  0  0  0
  186.0670  178.5060  141.8250 C   0  0  0  0  0  0  0  0  0  0  0  0
  183.4600  178.4890  142.7870 C   0  0  0  0  0  3  0  0  0  0  0  0
  188.8610  178.0380  138.7950 C   0  0  0  0  0  3  0  0  0  0  0  0
  185.0110  178.7860  140.9770 C   0  0  0  0  0  0  0  0  0  0  0  0
  183.6940  178.7760  141.4320 C   0  0  0  0  0  3  0  0  0  0  0  0
  184.5360  178.2270  143.6550 C   0  0  0  0  0  3  0  0  0  0  0  0
  186.8360  178.8750  139.7100 C   0  0  0  0  0  0  0  0  0  0  0  0
  185.4220  179.0490  139.6440 N   0  0  0  0  0  2  0  0  0  0  0  0
  185.8560  178.2440  143.1790 C   0  0  0  0  0  3  0  0  0  0  0  0
  189.2740  177.4960  139.9560 C   0  0  0  0  0  0  0  0  0  0  0  0
  188.9850  177.3940  142.4770 C   0  0  0  0  0  0  0  0  0  0  0  0
  190.2330  178.4460  144.2720 C   0  0  0  0  0  3  0  0  0  0  0  0
  188.9830  176.1920  143.1910 C   0  0  0  0  0  3  0  0  0  0  0  0
  189.6050  176.1150  144.4400 C   0  0  0  0  0  3  0  0  0  0  0  0
  189.6110  178.5240  143.0230 C   0  0  0  0  0  3  0  0  0  0  0  0
  190.2350  177.2420  144.9880 C   0  0  0  0  0  0  0  0  0  0  0  0
  190.8920  177.1660  146.3030 C   0  0  0  0  0  0  0  0  0  0  0  0
  190.1660  177.4040  147.4640 O   0  0  0  0  0  1  0  0  0  0  0  0
  192.1170  176.8830  146.3890 O   0  0  0  0  0  0  0  0  0  0  0  0
  190.5840  176.8020  139.9740 C   0  0  0  0  0  0  0  0  0  0  0  0
  190.7160  175.6620  139.4550 O   0  0  0  0  0  0  0  0  0  0  0  0
  191.7220  177.4290  140.5590 N   0  0  0  0  0  1  0  0  0  0  0  0
  1 10  1  6  0  0  0
  1  2  1  0  0  0  0
  1  4  1  0  0  0  0
  2 14  1  1  0  0  0
  3  6  1  0  0  0  0
  3 10  2  0  0  0  0
  4 12  1  0  0  0  0
  5  9  1  0  0  0  0
  6 13  2  0  0  0  0
  7  8  1  0  0  0  0
  7  4  2  0  0  0  0
  8  5  2  0  0  0  0
 11 10  1  0  0  0  0
 11  7  1  0  0  0  0
 12  9  2  0  0  0  0
 13 23  1  0  0  0  0
 13  2  1  0  0  0  0
 14 18  2  0  0  0  0
 14 16  1  0  0  0  0
 15 19  2  0  0  0  0
 16 17  2  0  0  0  0
 17 19  1  0  0  0  0
 18 15  1  0  0  0  0
 19 20  1  0  0  0  0
 20 22  2  0  0  0  0
 20 21  1  0  0  0  0
 23 25  1  0  0  0  0
 24 23  2  0  0  0  0
M  END
>  <MODEL>
5

>  <REMARK>
 VINA RESULT:      -8.3      2.909      5.350
  Name = 
  3 active torsions:
  status: ('A' for Active; 'I' for Inactive)
    1  A    between atoms: C_2  and  C_25
    2  A    between atoms: C_3  and  C_6
    3  A    between atoms: C_13  and  C_24
                            x       y       z     vdW  Elec       q    Type
                         _______ _______ _______ _____ _____    ______ ____

>  <TORSDO>
F 3

$$$$
=
 OpenBabel10262419573D

 25 28  0  0  1  0  0  0  0  0999 V2000
  188.6610  178.0780  145.6740 C   0  0  2  0  0  3  0  0  0  0  0  0
  187.5870  177.5120  144.7290 C   0  0  1  0  0  3  0  0  0  0  0  0
  186.8930  178.3750  147.3390 N   0  0  0  0  0  0  0  0  0  0  0  0
  189.8510  177.2080  145.8900 C   0  0  0  0  0  0  0  0  0  0  0  0
  192.0550  175.7710  146.7810 C   0  0  0  0  0  3  0  0  0  0  0  0
  185.9420  178.5400  146.2760 C   0  0  0  0  0  3  0  0  0  0  0  0
  190.0450  177.0010  147.2430 C   0  0  0  0  0  0  0  0  0  0  0  0
  191.1370  176.2760  147.7160 C   0  0  0  0  0  3  0  0  0  0  0  0
  191.8710  176.0020  145.4050 C   0  0  0  0  0  3  0  0  0  0  0  0
  188.1390  178.1330  147.0780 C   0  0  0  0  0  0  0  0  0  0  0  0
  189.0240  177.5720  148.0460 N   0  0  0  0  0  2  0  0  0  0  0  0
  190.7660  176.7360  144.9480 C   0  0  0  0  0  3  0  0  0  0  0  0
  186.2290  178.1660  145.0150 C   0  0  0  0  0  0  0  0  0  0  0  0
  188.0400  177.6700  143.3050 C   0  0  0  0  0  0  0  0  0  0  0  0
  188.3410  179.0170  141.3090 C   0  0  0  0  0  3  0  0  0  0  0  0
  188.6190  176.5800  142.6490 C   0  0  0  0  0  3  0  0  0  0  0  0
  189.0560  176.7050  141.3270 C   0  0  0  0  0  3  0  0  0  0  0  0
  187.9040  178.8930  142.6300 C   0  0  0  0  0  3  0  0  0  0  0  0
  188.9180  177.9240  140.6480 C   0  0  0  0  0  0  0  0  0  0  0  0
  189.3770  178.0610  139.2570 C   0  0  0  0  0  0  0  0  0  0  0  0
  190.2840  177.1520  138.7240 O   0  0  0  0  0  1  0  0  0  0  0  0
  188.9520  179.0030  138.5350 O   0  0  0  0  0  0  0  0  0  0  0  0
  185.1470  178.2350  144.0040 C   0  0  0  0  0  0  0  0  0  0  0  0
  185.1740  177.5030  142.9800 O   0  0  0  0  0  0  0  0  0  0  0  0
  184.0450  179.1190  144.1900 N   0  0  0  0  0  1  0  0  0  0  0  0
  1  4  1  1  0  0  0
  1 10  1  0  0  0  0
  2 14  1  6  0  0  0
  2 13  1  0  0  0  0
  2  1  1  0  0  0  0
  4  7  1  0  0  0  0
  5  8  1  0  0  0  0
  6  3  1  0  0  0  0
  7  8  2  0  0  0  0
  7 11  1  0  0  0  0
  9  5  2  0  0  0  0
 10  3  2  0  0  0  0
 10 11  1  0  0  0  0
 12  9  1  0  0  0  0
 12  4  2  0  0  0  0
 13  6  2  0  0  0  0
 15 18  1  0  0  0  0
 16 14  1  0  0  0  0
 17 16  2  0  0  0  0
 18 14  2  0  0  0  0
 19 15  2  0  0  0  0
 19 17  1  0  0  0  0
 20 19  1  0  0  0  0
 21 20  1  0  0  0  0
 22 20  2  0  0  0  0
 23 25  1  0  0  0  0
 23 13  1  0  0  0  0
 24 23  2  0  0  0  0
M  END
>  <MODEL>
6

>  <REMARK>
 VINA RESULT:      -7.9      1.888      4.700
  Name = 
  3 active torsions:
  status: ('A' for Active; 'I' for Inactive)
    1  A    between atoms: C_2  and  C_25
    2  A    between atoms: C_3  and  C_6
    3  A    between atoms: C_13  and  C_24
                            x       y       z     vdW  Elec       q    Type
                         _______ _______ _______ _____ _____    ______ ____

>  <TORSDO>
F 3

$$$$
=
 OpenBabel10262419573D

 25 28  0  0  1  0  0  0  0  0999 V2000
  187.3070  177.2890  144.0050 C   0  0  2  0  0  3  0  0  0  0  0  0
  186.8500  178.4380  143.0890 C   0  0  1  0  0  3  0  0  0  0  0  0
  189.2280  177.0030  142.5160 N   0  0  0  0  0  0  0  0  0  0  0  0
  187.4350  177.6310  145.4500 C   0  0  0  0  0  0  0  0  0  0  0  0
  188.0820  177.9420  148.1330 C   0  0  0  0  0  3  0  0  0  0  0  0
  188.4360  177.5030  141.4270 C   0  0  0  0  0  3  0  0  0  0  0  0
  188.6990  177.3030  145.9020 C   0  0  0  0  0  0  0  0  0  0  0  0
  189.0530  177.4580  147.2420 C   0  0  0  0  0  3  0  0  0  0  0  0
  186.7880  178.2540  147.6780 C   0  0  0  0  0  3  0  0  0  0  0  0
  188.7320  176.9280  143.7120 C   0  0  0  0  0  0  0  0  0  0  0  0
  189.5550  176.8340  144.8720 N   0  0  0  0  0  2  0  0  0  0  0  0
  186.4500  178.0890  146.3260 C   0  0  0  0  0  3  0  0  0  0  0  0
  187.2890  178.1730  141.6440 C   0  0  0  0  0  0  0  0  0  0  0  0
  185.3680  178.6380  143.2380 C   0  0  0  0  0  0  0  0  0  0  0  0
  183.4660  179.7530  144.2530 C   0  0  0  0  0  3  0  0  0  0  0  0
  184.4960  177.8780  142.4530 C   0  0  0  0  0  3  0  0  0  0  0  0
  183.1140  178.0520  142.5670 C   0  0  0  0  0  3  0  0  0  0  0  0
  184.8480  179.5800  144.1390 C   0  0  0  0  0  3  0  0  0  0  0  0
  182.5900  178.9900  143.4690 C   0  0  0  0  0  0  0  0  0  0  0  0
  181.1360  179.1770  143.5940 C   0  0  0  0  0  0  0  0  0  0  0  0
  180.5030  180.2170  142.9230 O   0  0  0  0  0  0  0  0  0  0  0  0
  180.4510  178.3960  144.3070 O   0  0  0  0  0  1  0  0  0  0  0  0
  186.6050  178.7790  140.4770 C   0  0  0  0  0  0  0  0  0  0  0  0
  185.7710  179.7110  140.6310 O   0  0  0  0  0  0  0  0  0  0  0  0
  186.9010  178.3310  139.1570 N   0  0  0  0  0  1  0  0  0  0  0  0
  1 10  1  6  0  0  0
  1  4  1  0  0  0  0
  2 14  1  6  0  0  0
  2  1  1  0  0  0  0
  3 10  2  0  0  0  0
  4  7  2  0  0  0  0
  4 12  1  0  0  0  0
  6 13  2  0  0  0  0
  6  3  1  0  0  0  0
  7  8  1  0  0  0  0
  8  5  2  0  0  0  0
  9  5  1  0  0  0  0
 10 11  1  0  0  0  0
 11  7  1  0  0  0  0
 12  9  2  0  0  0  0
 13  2  1  0  0  0  0
 14 18  1  0  0  0  0
 16 17  1  0  0  0  0
 16 14  2  0  0  0  0
 17 19  2  0  0  0  0
 18 15  2  0  0  0  0
 19 20  1  0  0  0  0
 19 15  1  0  0  0  0
 20 22  1  0  0  0  0
 21 20  2  0  0  0  0
 23 24  2  0  0  0  0
 23 13  1  0  0  0  0
 25 23  1  0  0  0  0
M  END
>  <MODEL>
7

>  <REMARK>
 VINA RESULT:      -7.9      3.941      6.383
  Name = 
  3 active torsions:
  status: ('A' for Active; 'I' for Inactive)
    1  A    between atoms: C_2  and  C_25
    2  A    between atoms: C_3  and  C_6
    3  A    between atoms: C_13  and  C_24
                            x       y       z     vdW  Elec       q    Type
                         _______ _______ _______ _____ _____    ______ ____

>  <TORSDO>
F 3

$$$$
=
 OpenBabel10262419573D

 25 28  0  0  1  0  0  0  0  0999 V2000
  189.3050  176.7760  145.1070 C   0  0  2  0  0  3  0  0  0  0  0  0
  189.6650  177.6060  143.8630 C   0  0  1  0  0  3  0  0  0  0  0  0
  191.6190  175.9810  145.1210 N   0  0  0  0  0  0  0  0  0  0  0  0
  188.6940  177.5370  146.2330 C   0  0  0  0  0  0  0  0  0  0  0  0
  187.8270  178.6300  148.6350 C   0  0  0  0  0  3  0  0  0  0  0  0
  191.6680  176.1520  143.6960 C   0  0  0  0  0  3  0  0  0  0  0  0
  189.4100  177.3190  147.3940 C   0  0  0  0  0  0  0  0  0  0  0  0
  189.0020  177.8620  148.6110 C   0  0  0  0  0  3  0  0  0  0  0  0
  187.0840  178.8330  147.4570 C   0  0  0  0  0  3  0  0  0  0  0  0
  190.5500  176.2910  145.7860 C   0  0  0  0  0  0  0  0  0  0  0  0
  190.5710  176.5270  147.1920 N   0  0  0  0  0  2  0  0  0  0  0  0
  187.5090  178.2760  146.2420 C   0  0  0  0  0  3  0  0  0  0  0  0
  190.7530  176.8960  143.0470 C   0  0  0  0  0  0  0  0  0  0  0  0
  188.4180  177.8930  143.0750 C   0  0  0  0  0  0  0  0  0  0  0  0
  187.2830  178.9350  141.2000 C   0  0  0  0  0  3  0  0  0  0  0  0
  187.2030  177.3440  143.4970 C   0  0  0  0  0  3  0  0  0  0  0  0
  186.0320  177.5900  142.7750 C   0  0  0  0  0  3  0  0  0  0  0  0
  188.4550  178.6900  141.9200 C   0  0  0  0  0  3  0  0  0  0  0  0
  186.0640  178.3880  141.6230 C   0  0  0  0  0  0  0  0  0  0  0  0
  184.8330  178.6510  140.8600 C   0  0  0  0  0  0  0  0  0  0  0  0
  184.7780  179.7100  139.9610 O   0  0  0  0  0  0  0  0  0  0  0  0
  183.8190  177.9180  141.0130 O   0  0  0  0  0  1  0  0  0  0  0  0
  190.9540  177.1410  141.5990 C   0  0  0  0  0  0  0  0  0  0  0  0
  191.7300  178.0490  141.2010 O   0  0  0  0  0  0  0  0  0  0  0  0
  190.2870  176.3320  140.6340 N   0  0  0  0  0  1  0  0  0  0  0  0
  1 10  1  1  0  0  0
  1  4  1  0  0  0  0
  2 14  1  6  0  0  0
  2  1  1  0  0  0  0
  3 10  2  0  0  0  0
  4 12  2  0  0  0  0
  4  7  1  0  0  0  0
  6  3  1  0  0  0  0
  7  8  2  0  0  0  0
  8  5  1  0  0  0  0
  9  5  2  0  0  0  0
 10 11  1  0  0  0  0
 11  7  1  0  0  0  0
 12  9  1  0  0  0  0
 13  6  2  0  0  0  0
 13  2  1  0  0  0  0
 14 16  1  0  0  0  0
 15 19  2  0  0  0  0
 15 18  1  0  0  0  0
 17 16  2  0  0  0  0
 18 14  2  0  0  0  0
 19 17  1  0  0  0  0
 20 22  1  0  0  0  0
 20 19  1  0  0  0  0
 21 20  2  0  0  0  0
 23 13  1  0  0  0  0
 24 23  2  0  0  0  0
 25 23  1  0  0  0  0
M  END
>  <MODEL>
8

>  <REMARK>
 VINA RESULT:      -7.2      2.581      4.448
  Name = 
  3 active torsions:
  status: ('A' for Active; 'I' for Inactive)
    1  A    between atoms: C_2  and  C_25
    2  A    between atoms: C_3  and  C_6
    3  A    between atoms: C_13  and  C_24
                            x       y       z     vdW  Elec       q    Type
                         _______ _______ _______ _____ _____    ______ ____

>  <TORSDO>
F 3

$$$$
=
 OpenBabel10262419573D

 25 28  0  0  1  0  0  0  0  0999 V2000
  189.2120  177.7030  139.6940 C   0  0  2  0  0  3  0  0  0  0  0  0
  189.1830  176.6780  138.5470 C   0  0  1  0  0  3  0  0  0  0  0  0
  187.1050  178.5880  138.8190 N   0  0  0  0  0  0  0  0  0  0  0  0
  189.3540  177.1310  141.0630 C   0  0  0  0  0  0  0  0  0  0  0  0
  189.2990  176.4530  143.7570 C   0  0  0  0  0  3  0  0  0  0  0  0
  187.4940  178.1650  137.5030 C   0  0  0  0  0  3  0  0  0  0  0  0
  188.3320  177.5880  141.8740 C   0  0  0  0  0  0  0  0  0  0  0  0
  188.2760  177.2550  143.2260 C   0  0  0  0  0  3  0  0  0  0  0  0
  190.3530  176.0080  142.9370 C   0  0  0  0  0  3  0  0  0  0  0  0
  187.8710  178.3560  139.8400 C   0  0  0  0  0  0  0  0  0  0  0  0
  187.3810  178.3800  141.1780 N   0  0  0  0  0  2  0  0  0  0  0  0
  190.3930  176.3550  141.5780 C   0  0  0  0  0  3  0  0  0  0  0  0
  188.4880  177.2760  137.3180 C   0  0  0  0  0  0  0  0  0  0  0  0
  190.5800  176.1980  138.2700 C   0  0  0  0  0  0  0  0  0  0  0  0
  192.9770  176.5700  138.1880 C   0  0  0  0  0  3  0  0  0  0  0  0
  190.7760  174.8810  137.8430 C   0  0  0  0  0  3  0  0  0  0  0  0
  192.0660  174.4090  137.5880 C   0  0  0  0  0  3  0  0  0  0  0  0
  191.6870  177.0430  138.4450 C   0  0  0  0  0  3  0  0  0  0  0  0
  193.1750  175.2510  137.7580 C   0  0  0  0  0  0  0  0  0  0  0  0
  194.5360  174.7590  137.4900 C   0  0  0  0  0  0  0  0  0  0  0  0
  194.9220  173.4950  137.9210 O   0  0  0  0  0  1  0  0  0  0  0  0
  195.3630  175.4770  136.8680 O   0  0  0  0  0  0  0  0  0  0  0  0
  188.7330  176.7830  135.9410 C   0  0  0  0  0  0  0  0  0  0  0  0
  189.5120  177.3970  135.1660 O   0  0  0  0  0  0  0  0  0  0  0  0
  188.1060  175.5870  135.4840 N   0  0  0  0  0  1  0  0  0  0  0  0
  1 10  1  1  0  0  0
  1  4  1  0  0  0  0
  2 14  1  6  0  0  0
  2  1  1  0  0  0  0
  3 10  2  0  0  0  0
  4 12  2  0  0  0  0
  4  7  1  0  0  0  0
  6  3  1  0  0  0  0
  7  8  2  0  0  0  0
  8  5  1  0  0  0  0
  9  5  2  0  0  0  0
 10 11  1  0  0  0  0
 11  7  1  0  0  0  0
 12  9  1  0  0  0  0
 13  6  2  0  0  0  0
 13  2  1  0  0  0  0
 14 18  1  0  0  0  0
 15 18  2  0  0  0  0
 16 14  2  0  0  0  0
 17 19  2  0  0  0  0
 17 16  1  0  0  0  0
 19 15  1  0  0  0  0
 20 19  1  0  0  0  0
 20 21  1  0  0  0  0
 22 20  2  0  0  0  0
 23 13  1  0  0  0  0
 24 23  2  0  0  0  0
 25 23  1  0  0  0  0
M  END
>  <MODEL>
9

>  <REMARK>
 VINA RESULT:      -7.2      4.068      6.916
  Name = 
  3 active torsions:
  status: ('A' for Active; 'I' for Inactive)
    1  A    between atoms: C_2  and  C_25
    2  A    between atoms: C_3  and  C_6
    3  A    between atoms: C_13  and  C_24
                            x       y       z     vdW  Elec       q    Type
                         _______ _______ _______ _____ _____    ______ ____

>  <TORSDO>
F 3

$$$$
