=
 OpenBabel10262421233D

 32 36  0  0  1  0  0  0  0  0999 V2000
  190.6750  176.8430  146.8350 C   0  0  0  0  0  0  0  0  0  0  0  0
  187.4280  177.3360  142.9480 C   0  0  1  0  0  3  0  0  0  0  0  0
  189.9070  177.0660  138.7790 C   0  0  0  0  0  3  0  0  0  0  0  0
  188.8400  177.6400  138.0810 C   0  0  0  0  0  3  0  0  0  0  0  0
  185.0820  178.5340  142.9100 C   0  0  2  0  0  3  0  0  0  0  0  0
  183.9540  178.9110  141.9370 C   0  0  2  0  0  3  0  0  0  0  0  0
  188.4690  177.3510  145.1710 C   0  0  0  0  0  0  0  0  0  0  0  0
  189.8750  176.8750  143.1160 C   0  0  0  0  0  2  0  0  0  0  0  0
  190.8060  176.7430  145.4430 C   0  0  0  0  0  3  0  0  0  0  0  0
  189.9140  177.0680  140.1770 C   0  0  0  0  0  3  0  0  0  0  0  0
  188.8150  177.7100  142.3940 C   0  0  1  0  0  3  0  0  0  0  0  0
  188.8440  177.6370  140.8840 C   0  0  0  0  0  0  0  0  0  0  0  0
  186.6710  178.8540  140.9790 C   0  0  1  0  0  3  0  0  0  0  0  0
  189.4370  177.2050  147.3860 C   0  0  0  0  0  3  0  0  0  0  0  0
  189.7170  177.0050  144.6080 C   0  0  0  0  0  0  0  0  0  0  0  0
  182.7950  178.0790  142.2100 N   0  0  0  0  0  1  0  0  0  0  0  0
  188.3390  177.4580  146.5580 C   0  0  0  0  0  3  0  0  0  0  0  0
  187.7780  178.2220  138.7770 C   0  0  0  0  0  3  0  0  0  0  0  0
  187.7770  178.2230  140.1780 C   0  0  0  0  0  0  0  0  0  0  0  0
  185.6150  179.3910  140.1900 O   0  0  0  0  0  0  0  0  0  0  0  0
  187.3680  177.6130  144.3470 O   0  0  0  0  0  0  0  0  0  0  0  0
  185.4950  179.6750  143.6000 O   0  0  0  0  0  1  0  0  0  0  0  0
  186.2500  177.9270  142.1390 C   0  0  1  0  0  3  0  0  0  0  0  0
  184.3770  178.7580  140.4570 C   0  0  2  0  0  3  0  0  0  0  0  0
  192.5000  175.5110  147.5570 O   0  0  0  0  0  0  0  0  0  0  0  0
  192.1890  177.5040  148.7330 N   0  0  0  0  0  2  0  0  0  0  0  0
  191.8290  176.5700  147.7110 C   0  0  0  0  0  0  0  0  0  0  0  0
  193.2750  177.2870  149.5930 C   0  0  0  0  0  0  0  0  0  0  0  0
  194.1720  177.1080  150.3030 N   0  0  0  0  0  0  0  0  0  0  0  0
  183.3310  179.3040  139.5420 C   0  0  0  0  0  0  0  0  0  0  0  0
  183.4010  180.4990  139.1550 O   0  0  0  0  0  0  0  0  0  0  0  0
  182.2590  178.4780  139.0970 N   0  0  0  0  0  1  0  0  0  0  0  0
  1 14  1  0  0  0  0
  1 27  1  0  0  0  0
  2 21  1  1  0  0  0
  3 10  1  0  0  0  0
  4 18  1  0  0  0  0
  4  3  2  0  0  0  0
  5 22  1  6  0  0  0
  6 16  1  1  0  0  0
  6  5  1  0  0  0  0
  7 17  1  0  0  0  0
  8 15  1  0  0  0  0
  9  1  2  0  0  0  0
 10 12  2  0  0  0  0
 11  2  1  0  0  0  0
 11  8  1  1  0  0  0
 12 11  1  0  0  0  0
 13 19  1  6  0  0  0
 13 23  1  0  0  0  0
 15  7  2  0  0  0  0
 15  9  1  0  0  0  0
 17 14  2  0  0  0  0
 18 19  2  0  0  0  0
 19 12  1  0  0  0  0
 20 24  1  0  0  0  0
 20 13  1  0  0  0  0
 21  7  1  0  0  0  0
 23  5  1  0  0  0  0
 23  2  1  0  0  0  0
 24  6  1  0  0  0  0
 25 27  2  0  0  0  0
 26 28  1  0  0  0  0
 27 26  1  0  0  0  0
 28 29  3  0  0  0  0
 30 24  1  0  0  0  0
 31 30  2  0  0  0  0
 32 30  1  0  0  0  0
M  END
>  <MODEL>
1

>  <REMARK>
 VINA RESULT:      -9.6      0.000      0.000
  Name = 
  3 active torsions:
  status: ('A' for Active; 'I' for Inactive)
    1  A    between atoms: C_1  and  N_20
    2  A    between atoms: C_2  and  C_24
    3  A    between atoms: C_11  and  C_32
                            x       y       z     vdW  Elec       q    Type
                         _______ _______ _______ _____ _____    ______ ____

>  <TORSDO>
F 3

$$$$
=
 OpenBabel10262421233D

 32 36  0  0  1  0  0  0  0  0999 V2000
  190.4250  177.3270  139.2670 C   0  0  0  0  0  0  0  0  0  0  0  0
  185.8300  178.9930  140.6840 C   0  0  1  0  0  3  0  0  0  0  0  0
  185.4640  178.6850  145.5180 C   0  0  0  0  0  3  0  0  0  0  0  0
  184.0710  178.7890  145.4420 C   0  0  0  0  0  3  0  0  0  0  0  0
  183.6010  179.0540  139.2820 C   0  0  2  0  0  3  0  0  0  0  0  0
  182.1110  179.3970  139.4310 C   0  0  2  0  0  3  0  0  0  0  0  0
  187.7460  178.1630  139.3920 C   0  0  0  0  0  0  0  0  0  0  0  0
  187.8550  178.2250  141.9250 C   0  0  0  0  0  2  0  0  0  0  0  0
  189.8180  177.5590  140.5090 C   0  0  0  0  0  3  0  0  0  0  0  0
  186.2170  178.4730  144.3600 C   0  0  0  0  0  3  0  0  0  0  0  0
  186.3330  178.1010  141.8330 C   0  0  1  0  0  3  0  0  0  0  0  0
  185.5780  178.3740  143.1150 C   0  0  0  0  0  0  0  0  0  0  0  0
  183.5330  178.3170  141.6920 C   0  0  1  0  0  3  0  0  0  0  0  0
  189.6810  177.5100  138.0920 C   0  0  0  0  0  3  0  0  0  0  0  0
  188.4820  177.9640  140.5810 C   0  0  0  0  0  0  0  0  0  0  0  0
  181.8320  180.6240  138.7030 N   0  0  0  0  0  1  0  0  0  0  0  0
  188.3480  177.9260  138.1540 C   0  0  0  0  0  3  0  0  0  0  0  0
  183.4260  178.6760  144.2080 C   0  0  0  0  0  3  0  0  0  0  0  0
  184.1750  178.4680  143.0430 C   0  0  0  0  0  0  0  0  0  0  0  0
  182.1150  178.4600  141.7030 O   0  0  0  0  0  0  0  0  0  0  0  0
  186.4080  178.5730  139.4490 O   0  0  0  0  0  0  0  0  0  0  0  0
  183.7260  177.7640  138.7630 O   0  0  0  0  0  1  0  0  0  0  0  0
  184.2920  179.1490  140.6380 C   0  0  1  0  0  3  0  0  0  0  0  0
  181.6860  179.5520  140.9100 C   0  0  2  0  0  3  0  0  0  0  0  0
  192.6490  177.2630  140.0880 O   0  0  0  0  0  0  0  0  0  0  0  0
  192.2730  176.0580  138.1250 N   0  0  0  0  0  2  0  0  0  0  0  0
  191.8330  176.8950  139.1980 C   0  0  0  0  0  0  0  0  0  0  0  0
  193.6010  175.6250  138.0130 C   0  0  0  0  0  0  0  0  0  0  0  0
  194.6980  175.2660  137.9210 N   0  0  0  0  0  0  0  0  0  0  0  0
  180.2050  179.7010  141.0290 C   0  0  0  0  0  0  0  0  0  0  0  0
  179.4470  178.8150  140.5570 O   0  0  0  0  0  0  0  0  0  0  0  0
  179.6450  180.8370  141.6820 N   0  0  0  0  0  1  0  0  0  0  0  0
  1  9  1  0  0  0  0
  2 21  1  6  0  0  0
  2 11  1  0  0  0  0
  4  3  1  0  0  0  0
  5 22  1  1  0  0  0
  5  6  1  0  0  0  0
  5 23  1  0  0  0  0
  6 16  1  6  0  0  0
  6 24  1  0  0  0  0
  7 21  1  0  0  0  0
  7 15  1  0  0  0  0
  9 15  2  0  0  0  0
 10  3  2  0  0  0  0
 11  8  1  1  0  0  0
 11 12  1  0  0  0  0
 12 10  1  0  0  0  0
 13 20  1  1  0  0  0
 13 19  1  0  0  0  0
 14 17  1  0  0  0  0
 14  1  2  0  0  0  0
 15  8  1  0  0  0  0
 17  7  2  0  0  0  0
 18  4  2  0  0  0  0
 19 12  2  0  0  0  0
 19 18  1  0  0  0  0
 23  2  1  0  0  0  0
 23 13  1  0  0  0  0
 24 30  1  0  0  0  0
 24 20  1  0  0  0  0
 26 27  1  0  0  0  0
 27  1  1  0  0  0  0
 27 25  2  0  0  0  0
 28 26  1  0  0  0  0
 29 28  3  0  0  0  0
 30 32  1  0  0  0  0
 31 30  2  0  0  0  0
M  END
>  <MODEL>
2

>  <REMARK>
 VINA RESULT:      -9.6      4.487      6.419
  Name = 
  3 active torsions:
  status: ('A' for Active; 'I' for Inactive)
    1  A    between atoms: C_1  and  N_20
    2  A    between atoms: C_2  and  C_24
    3  A    between atoms: C_11  and  C_32
                            x       y       z     vdW  Elec       q    Type
                         _______ _______ _______ _____ _____    ______ ____

>  <TORSDO>
F 3

$$$$
=
 OpenBabel10262421233D

 32 36  0  0  1  0  0  0  0  0999 V2000
  182.3700  178.8670  142.5720 C   0  0  0  0  0  0  0  0  0  0  0  0
  187.1170  178.3770  144.3390 C   0  0  1  0  0  3  0  0  0  0  0  0
  190.0990  177.4640  140.6140 C   0  0  0  0  0  3  0  0  0  0  0  0
  191.0870  177.0010  141.4890 C   0  0  0  0  0  3  0  0  0  0  0  0
  187.9060  177.6700  146.7510 C   0  0  2  0  0  3  0  0  0  0  0  0
  189.1880  177.3630  147.5400 C   0  0  2  0  0  3  0  0  0  0  0  0
  184.6740  178.5290  144.1430 C   0  0  0  0  0  0  0  0  0  0  0  0
  186.1070  178.3750  142.0560 C   0  0  0  0  0  2  0  0  0  0  0  0
  183.6210  178.7080  141.9600 C   0  0  0  0  0  3  0  0  0  0  0  0
  188.8000  177.6930  141.0790 C   0  0  0  0  0  3  0  0  0  0  0  0
  187.0910  177.6550  142.9800 C   0  0  1  0  0  3  0  0  0  0  0  0
  188.4870  177.4680  142.4280 C   0  0  0  0  0  0  0  0  0  0  0  0
  189.0880  176.7310  144.7310 C   0  0  1  0  0  3  0  0  0  0  0  0
  182.2810  178.8500  143.9710 C   0  0  0  0  0  3  0  0  0  0  0  0
  184.7710  178.5280  142.7340 C   0  0  0  0  0  0  0  0  0  0  0  0
  189.4290  178.4380  148.4880 N   0  0  0  0  0  1  0  0  0  0  0  0
  183.4270  178.6810  144.7530 C   0  0  0  0  0  3  0  0  0  0  0  0
  190.7790  176.7610  142.8310 C   0  0  0  0  0  3  0  0  0  0  0  0
  189.4820  176.9930  143.3030 C   0  0  0  0  0  0  0  0  0  0  0  0
  190.1600  176.2860  145.5570 O   0  0  0  0  0  0  0  0  0  0  0  0
  185.8180  178.3530  144.9300 O   0  0  0  0  0  0  0  0  0  0  0  0
  187.0190  176.6000  146.8810 O   0  0  0  0  0  1  0  0  0  0  0  0
  188.2460  177.9010  145.2820 C   0  0  1  0  0  3  0  0  0  0  0  0
  190.4190  177.1830  146.6210 C   0  0  2  0  0  3  0  0  0  0  0  0
  180.2610  179.8570  142.1240 O   0  0  0  0  0  0  0  0  0  0  0  0
  181.0040  178.3210  140.5310 N   0  0  0  0  0  2  0  0  0  0  0  0
  181.1600  179.0520  141.7500 C   0  0  0  0  0  0  0  0  0  0  0  0
  179.8700  178.4590  139.7180 C   0  0  0  0  0  0  0  0  0  0  0  0
  178.9330  178.5730  139.0480 N   0  0  0  0  0  0  0  0  0  0  0  0
  191.6020  176.7070  147.3970 C   0  0  0  0  0  0  0  0  0  0  0  0
  192.0240  177.3820  148.3710 O   0  0  0  0  0  0  0  0  0  0  0  0
  192.2500  175.4870  147.0490 N   0  0  0  0  0  1  0  0  0  0  0  0
  1 14  1  0  0  0  0
  2 21  1  1  0  0  0
  2 23  1  0  0  0  0
  3 10  2  0  0  0  0
  3  4  1  0  0  0  0
  4 18  2  0  0  0  0
  5 22  1  6  0  0  0
  5  6  1  0  0  0  0
  6 16  1  1  0  0  0
  7 17  1  0  0  0  0
  7 21  1  0  0  0  0
  8 15  1  0  0  0  0
  9  1  2  0  0  0  0
  9 15  1  0  0  0  0
 10 12  1  0  0  0  0
 11  8  1  6  0  0  0
 11  2  1  0  0  0  0
 12 11  1  0  0  0  0
 12 19  2  0  0  0  0
 13 19  1  6  0  0  0
 13 23  1  0  0  0  0
 13 20  1  0  0  0  0
 14 17  2  0  0  0  0
 15  7  2  0  0  0  0
 18 19  1  0  0  0  0
 20 24  1  0  0  0  0
 23  5  1  0  0  0  0
 24 30  1  0  0  0  0
 24  6  1  0  0  0  0
 26 27  1  0  0  0  0
 27 25  2  0  0  0  0
 27  1  1  0  0  0  0
 28 26  1  0  0  0  0
 29 28  3  0  0  0  0
 30 31  2  0  0  0  0
 32 30  1  0  0  0  0
M  END
>  <MODEL>
3

>  <REMARK>
 VINA RESULT:      -9.5      2.028      8.704
  Name = 
  3 active torsions:
  status: ('A' for Active; 'I' for Inactive)
    1  A    between atoms: C_1  and  N_20
    2  A    between atoms: C_2  and  C_24
    3  A    between atoms: C_11  and  C_32
                            x       y       z     vdW  Elec       q    Type
                         _______ _______ _______ _____ _____    ______ ____

>  <TORSDO>
F 3

$$$$
=
 OpenBabel10262421233D

 32 36  0  0  1  0  0  0  0  0999 V2000
  188.6820  177.4520  146.4790 C   0  0  0  0  0  0  0  0  0  0  0  0
  185.3840  177.7520  142.6150 C   0  0  1  0  0  3  0  0  0  0  0  0
  187.8580  177.8530  138.4360 C   0  0  0  0  0  3  0  0  0  0  0  0
  186.7380  178.3430  137.7580 C   0  0  0  0  0  3  0  0  0  0  0  0
  182.9340  178.7200  142.6190 C   0  0  2  0  0  3  0  0  0  0  0  0
  181.7710  179.0180  141.6600 C   0  0  2  0  0  3  0  0  0  0  0  0
  186.4290  177.7980  144.8360 C   0  0  0  0  0  0  0  0  0  0  0  0
  187.8650  177.5230  142.7640 C   0  0  0  0  0  2  0  0  0  0  0  0
  188.8150  177.4080  145.0840 C   0  0  0  0  0  3  0  0  0  0  0  0
  187.8710  177.8120  139.8330 C   0  0  0  0  0  3  0  0  0  0  0  0
  186.7260  178.2750  142.0710 C   0  0  1  0  0  3  0  0  0  0  0  0
  186.7550  178.2530  140.5600 C   0  0  0  0  0  0  0  0  0  0  0  0
  184.4760  179.2520  140.6970 C   0  0  1  0  0  3  0  0  0  0  0  0
  187.4170  177.6750  147.0430 C   0  0  0  0  0  3  0  0  0  0  0  0
  187.7020  177.5900  144.2590 C   0  0  0  0  0  0  0  0  0  0  0  0
  180.6970  178.0710  141.9090 N   0  0  0  0  0  1  0  0  0  0  0  0
  186.2960  177.8470  146.2250 C   0  0  0  0  0  3  0  0  0  0  0  0
  185.6280  178.7990  138.4740 C   0  0  0  0  0  3  0  0  0  0  0  0
  185.6330  178.7550  139.8740 C   0  0  0  0  0  0  0  0  0  0  0  0
  183.3690  179.7100  139.9260 O   0  0  0  0  0  0  0  0  0  0  0  0
  185.3050  177.9780  144.0220 O   0  0  0  0  0  0  0  0  0  0  0  0
  183.2390  179.8740  143.3440 O   0  0  0  0  0  1  0  0  0  0  0  0
  184.1510  178.2530  141.8270 C   0  0  1  0  0  3  0  0  0  0  0  0
  182.1990  178.9530  140.1750 C   0  0  2  0  0  3  0  0  0  0  0  0
  189.9390  177.8780  148.4440 O   0  0  0  0  0  0  0  0  0  0  0  0
  190.9130  176.3840  146.9380 N   0  0  0  0  0  2  0  0  0  0  0  0
  189.8610  177.2630  147.3440 C   0  0  0  0  0  0  0  0  0  0  0  0
  192.0550  176.1750  147.7240 C   0  0  0  0  0  0  0  0  0  0  0  0
  192.9980  176.0030  148.3730 N   0  0  0  0  0  0  0  0  0  0  0  0
  181.1010  179.4250  139.2800 C   0  0  0  0  0  0  0  0  0  0  0  0
  180.6850  178.6810  138.3550 O   0  0  0  0  0  0  0  0  0  0  0  0
  180.5140  180.7090  139.4730 N   0  0  0  0  0  1  0  0  0  0  0  0
  1 14  1  0  0  0  0
  1 27  1  0  0  0  0
  2 21  1  1  0  0  0
  3 10  1  0  0  0  0
  4  3  2  0  0  0  0
  4 18  1  0  0  0  0
  5 22  1  6  0  0  0
  6 16  1  6  0  0  0
  6  5  1  0  0  0  0
  7 17  1  0  0  0  0
  8 15  1  0  0  0  0
  9  1  2  0  0  0  0
 10 12  2  0  0  0  0
 11  2  1  0  0  0  0
 11  8  1  1  0  0  0
 12 11  1  0  0  0  0
 13 19  1  6  0  0  0
 13 23  1  0  0  0  0
 15  7  2  0  0  0  0
 15  9  1  0  0  0  0
 17 14  2  0  0  0  0
 18 19  2  0  0  0  0
 19 12  1  0  0  0  0
 20 24  1  0  0  0  0
 20 13  1  0  0  0  0
 21  7  1  0  0  0  0
 23  2  1  0  0  0  0
 23  5  1  0  0  0  0
 24  6  1  0  0  0  0
 26 27  1  0  0  0  0
 26 28  1  0  0  0  0
 27 25  2  0  0  0  0
 28 29  3  0  0  0  0
 30 32  1  0  0  0  0
 30 24  1  0  0  0  0
 31 30  2  0  0  0  0
M  END
>  <MODEL>
4

>  <REMARK>
 VINA RESULT:      -9.3      1.708      2.335
  Name = 
  3 active torsions:
  status: ('A' for Active; 'I' for Inactive)
    1  A    between atoms: C_1  and  N_20
    2  A    between atoms: C_2  and  C_24
    3  A    between atoms: C_11  and  C_32
                            x       y       z     vdW  Elec       q    Type
                         _______ _______ _______ _____ _____    ______ ____

>  <TORSDO>
F 3

$$$$
=
 OpenBabel10262421233D

 32 36  0  0  1  0  0  0  0  0999 V2000
  191.0900  176.7630  137.8900 C   0  0  0  0  0  0  0  0  0  0  0  0
  188.8470  178.1040  142.2560 C   0  0  1  0  0  3  0  0  0  0  0  0
  191.6800  176.7530  145.9630 C   0  0  0  0  0  3  0  0  0  0  0  0
  190.6110  176.8770  146.8560 C   0  0  0  0  0  3  0  0  0  0  0  0
  186.2840  178.4790  142.7380 C   0  0  2  0  0  3  0  0  0  0  0  0
  185.3250  178.7890  143.8970 C   0  0  2  0  0  3  0  0  0  0  0  0
  189.3050  177.5650  139.9050 C   0  0  0  0  0  0  0  0  0  0  0  0
  191.0470  177.0740  141.6810 C   0  0  0  0  0  2  0  0  0  0  0  0
  191.4830  176.7230  139.2340 C   0  0  0  0  0  3  0  0  0  0  0  0
  191.4530  176.7940  144.5840 C   0  0  0  0  0  3  0  0  0  0  0  0
  189.8370  176.9800  142.6130 C   0  0  1  0  0  3  0  0  0  0  0  0
  190.1520  176.9710  144.0920 C   0  0  0  0  0  0  0  0  0  0  0  0
  187.6950  177.2350  144.4170 C   0  0  1  0  0  3  0  0  0  0  0  0
  189.7990  177.2010  137.5630 C   0  0  0  0  0  3  0  0  0  0  0  0
  190.5980  177.1090  140.2440 C   0  0  0  0  0  0  0  0  0  0  0  0
  184.8260  180.1460  143.7500 N   0  0  0  0  0  1  0  0  0  0  0  0
  188.9100  177.6000  138.5660 C   0  0  0  0  0  3  0  0  0  0  0  0
  189.3100  177.0380  146.3740 C   0  0  0  0  0  3  0  0  0  0  0  0
  189.0760  177.0860  144.9930 C   0  0  0  0  0  0  0  0  0  0  0  0
  186.6700  177.3800  145.3960 O   0  0  0  0  0  0  0  0  0  0  0  0
  188.4090  177.9590  140.9060 O   0  0  0  0  0  0  0  0  0  0  0  0
  185.8470  177.3320  142.0730 O   0  0  0  0  0  1  0  0  0  0  0  0
  187.6970  178.2730  143.2760 C   0  0  1  0  0  3  0  0  0  0  0  0
  185.9960  178.6190  145.2800 C   0  0  2  0  0  3  0  0  0  0  0  0
  191.5840  175.9730  135.7080 O   0  0  0  0  0  0  0  0  0  0  0  0
  193.4370  176.3770  137.0690 N   0  0  0  0  0  2  0  0  0  0  0  0
  192.0270  176.3500  136.8290 C   0  0  0  0  0  0  0  0  0  0  0  0
  194.3670  175.9890  136.0940 C   0  0  0  0  0  0  0  0  0  0  0  0
  195.1350  175.6690  135.2890 N   0  0  0  0  0  0  0  0  0  0  0  0
  184.9950  178.7470  146.3810 C   0  0  0  0  0  0  0  0  0  0  0  0
  183.7690  178.6280  146.1270 O   0  0  0  0  0  0  0  0  0  0  0  0
  185.4210  178.9920  147.7180 N   0  0  0  0  0  1  0  0  0  0  0  0
  1  9  1  0  0  0  0
  2 21  1  6  0  0  0
  2 11  1  0  0  0  0
  2 23  1  0  0  0  0
  3  4  1  0  0  0  0
  5 22  1  1  0  0  0
  5 23  1  0  0  0  0
  5  6  1  0  0  0  0
  6 16  1  6  0  0  0
  6 24  1  0  0  0  0
  7 15  1  0  0  0  0
  7 21  1  0  0  0  0
  9 15  2  0  0  0  0
 10  3  2  0  0  0  0
 11  8  1  6  0  0  0
 11 12  1  0  0  0  0
 12 10  1  0  0  0  0
 12 19  2  0  0  0  0
 13 19  1  1  0  0  0
 13 20  1  0  0  0  0
 14  1  2  0  0  0  0
 14 17  1  0  0  0  0
 15  8  1  0  0  0  0
 17  7  2  0  0  0  0
 18  4  2  0  0  0  0
 19 18  1  0  0  0  0
 23 13  1  0  0  0  0
 24 20  1  0  0  0  0
 24 30  1  0  0  0  0
 25 27  2  0  0  0  0
 27 26  1  0  0  0  0
 27  1  1  0  0  0  0
 28 26  1  0  0  0  0
 29 28  3  0  0  0  0
 30 32  1  0  0  0  0
 31 30  2  0  0  0  0
M  END
>  <MODEL>
5

>  <REMARK>
 VINA RESULT:      -9.1      4.121      7.308
  Name = 
  3 active torsions:
  status: ('A' for Active; 'I' for Inactive)
    1  A    between atoms: C_1  and  N_20
    2  A    between atoms: C_2  and  C_24
    3  A    between atoms: C_11  and  C_32
                            x       y       z     vdW  Elec       q    Type
                         _______ _______ _______ _____ _____    ______ ____

>  <TORSDO>
F 3

$$$$
=
 OpenBabel10262421233D

 32 36  0  0  1  0  0  0  0  0999 V2000
  182.7030  179.5780  139.5340 C   0  0  0  0  0  0  0  0  0  0  0  0
  186.2770  177.6690  142.6130 C   0  0  1  0  0  3  0  0  0  0  0  0
  184.8600  178.2530  147.2230 C   0  0  0  0  0  3  0  0  0  0  0  0
  186.1670  178.0430  147.6750 C   0  0  0  0  0  3  0  0  0  0  0  0
  188.8510  177.3570  142.1460 C   0  0  2  0  0  3  0  0  0  0  0  0
  190.1430  176.9150  142.8510 C   0  0  2  0  0  3  0  0  0  0  0  0
  185.0580  178.5560  140.6750 C   0  0  0  0  0  0  0  0  0  0  0  0
  184.0170  178.6610  142.9850 C   0  0  0  0  0  2  0  0  0  0  0  0
  182.7850  179.3790  140.9190 C   0  0  0  0  0  3  0  0  0  0  0  0
  184.6110  178.4470  145.8610 C   0  0  0  0  0  3  0  0  0  0  0  0
  185.4700  178.6670  143.4640 C   0  0  1  0  0  3  0  0  0  0  0  0
  185.6700  178.4200  144.9420 C   0  0  0  0  0  0  0  0  0  0  0  0
  188.0920  178.2370  144.3840 C   0  0  1  0  0  3  0  0  0  0  0  0
  183.8080  179.2660  138.7280 C   0  0  0  0  0  3  0  0  0  0  0  0
  183.9570  178.8820  141.4960 C   0  0  0  0  0  0  0  0  0  0  0  0
  190.5560  175.6280  142.3180 N   0  0  0  0  0  1  0  0  0  0  0  0
  184.9800  178.7580  139.2950 C   0  0  0  0  0  3  0  0  0  0  0  0
  187.2300  178.0300  146.7690 C   0  0  0  0  0  3  0  0  0  0  0  0
  186.9860  178.2190  145.4020 C   0  0  0  0  0  0  0  0  0  0  0  0
  189.3860  177.9910  144.9270 O   0  0  0  0  0  0  0  0  0  0  0  0
  186.2370  178.0530  141.2390 O   0  0  0  0  0  0  0  0  0  0  0  0
  189.0450  178.6180  141.5780 O   0  0  0  0  0  1  0  0  0  0  0  0
  187.7020  177.3980  143.1490 C   0  0  1  0  0  3  0  0  0  0  0  0
  189.9760  176.8230  144.3860 C   0  0  2  0  0  3  0  0  0  0  0  0
  180.4170  179.4040  138.9260 O   0  0  0  0  0  0  0  0  0  0  0  0
  181.4540  181.4150  138.3540 N   0  0  0  0  0  2  0  0  0  0  0  0
  181.4670  180.1070  138.9310 C   0  0  0  0  0  0  0  0  0  0  0  0
  180.3050  181.9600  137.7650 C   0  0  0  0  0  0  0  0  0  0  0  0
  179.3560  182.4120  137.2790 N   0  0  0  0  0  0  0  0  0  0  0  0
  191.2880  176.5730  145.0530 C   0  0  0  0  0  0  0  0  0  0  0  0
  192.0550  175.6810  144.6080 O   0  0  0  0  0  0  0  0  0  0  0  0
  191.6800  177.3440  146.1850 N   0  0  0  0  0  1  0  0  0  0  0  0
  1  9  1  0  0  0  0
  2 21  1  6  0  0  0
  2 23  1  0  0  0  0
  2 11  1  0  0  0  0
  3  4  1  0  0  0  0
  5 22  1  1  0  0  0
  5  6  1  0  0  0  0
  5 23  1  0  0  0  0
  6 16  1  6  0  0  0
  6 24  1  0  0  0  0
  7 21  1  0  0  0  0
  7 15  1  0  0  0  0
  9 15  2  0  0  0  0
 10  3  2  0  0  0  0
 11  8  1  1  0  0  0
 11 12  1  0  0  0  0
 12 19  2  0  0  0  0
 12 10  1  0  0  0  0
 13 20  1  1  0  0  0
 13 19  1  0  0  0  0
 14 17  1  0  0  0  0
 14  1  2  0  0  0  0
 15  8  1  0  0  0  0
 17  7  2  0  0  0  0
 18  4  2  0  0  0  0
 19 18  1  0  0  0  0
 23 13  1  0  0  0  0
 24 20  1  0  0  0  0
 24 30  1  0  0  0  0
 25 27  2  0  0  0  0
 26 27  1  0  0  0  0
 27  1  1  0  0  0  0
 28 26  1  0  0  0  0
 29 28  3  0  0  0  0
 30 32  1  0  0  0  0
 31 30  2  0  0  0  0
M  END
>  <MODEL>
6

>  <REMARK>
 VINA RESULT:      -8.1      2.526      9.605
  Name = 
  3 active torsions:
  status: ('A' for Active; 'I' for Inactive)
    1  A    between atoms: C_1  and  N_20
    2  A    between atoms: C_2  and  C_24
    3  A    between atoms: C_11  and  C_32
                            x       y       z     vdW  Elec       q    Type
                         _______ _______ _______ _____ _____    ______ ____

>  <TORSDO>
F 3

$$$$
=
 OpenBabel10262421233D

 32 36  0  0  1  0  0  0  0  0999 V2000
  185.1140  179.0420  139.9880 C   0  0  0  0  0  0  0  0  0  0  0  0
  187.9550  177.1650  143.7690 C   0  0  1  0  0  3  0  0  0  0  0  0
  185.8440  178.2400  148.0100 C   0  0  0  0  0  3  0  0  0  0  0  0
  187.0350  177.9810  148.6950 C   0  0  0  0  0  3  0  0  0  0  0  0
  190.5370  176.6380  143.7780 C   0  0  2  0  0  3  0  0  0  0  0  0
  191.6520  176.1700  144.7250 C   0  0  2  0  0  3  0  0  0  0  0  0
  187.1530  177.9630  141.5900 C   0  0  0  0  0  0  0  0  0  0  0  0
  185.7540  178.3390  143.6710 C   0  0  0  0  0  2  0  0  0  0  0  0
  184.9470  178.9580  141.3770 C   0  0  0  0  0  3  0  0  0  0  0  0
  185.8410  178.3330  146.6150 C   0  0  0  0  0  3  0  0  0  0  0  0
  187.1030  178.2860  144.3920 C   0  0  1  0  0  3  0  0  0  0  0  0
  187.0330  178.1540  145.8970 C   0  0  0  0  0  0  0  0  0  0  0  0
  189.4910  177.7570  145.7800 C   0  0  1  0  0  3  0  0  0  0  0  0
  186.3080  178.5870  139.4090 C   0  0  0  0  0  3  0  0  0  0  0  0
  185.9610  178.4340  142.1830 C   0  0  0  0  0  0  0  0  0  0  0  0
  192.0410  174.8170  144.3680 N   0  0  0  0  0  1  0  0  0  0  0  0
  187.3230  178.0500  140.2060 C   0  0  0  0  0  3  0  0  0  0  0  0
  188.2290  177.8170  147.9890 C   0  0  0  0  0  3  0  0  0  0  0  0
  188.2320  177.9030  146.5910 C   0  0  0  0  0  0  0  0  0  0  0  0
  190.6510  177.4710  146.5550 O   0  0  0  0  0  0  0  0  0  0  0  0
  188.1760  177.4310  142.3850 O   0  0  0  0  0  0  0  0  0  0  0  0
  190.9250  177.8280  143.1610 O   0  0  0  0  0  1  0  0  0  0  0  0
  189.2440  176.8440  144.5610 C   0  0  1  0  0  3  0  0  0  0  0  0
  191.2240  176.2230  146.2110 C   0  0  2  0  0  3  0  0  0  0  0  0
  184.1290  180.7870  138.7190 O   0  0  0  0  0  0  0  0  0  0  0  0
  182.9070  178.8000  138.8040 N   0  0  0  0  0  2  0  0  0  0  0  0
  184.0420  179.6010  139.1430 C   0  0  0  0  0  0  0  0  0  0  0  0
  181.8610  179.2880  138.0080 C   0  0  0  0  0  0  0  0  0  0  0  0
  180.9960  179.6900  137.3520 N   0  0  0  0  0  0  0  0  0  0  0  0
  192.3820  175.9410  147.1110 C   0  0  0  0  0  0  0  0  0  0  0  0
  193.1920  175.0240  146.8200 O   0  0  0  0  0  0  0  0  0  0  0  0
  192.5810  176.7120  148.2930 N   0  0  0  0  0  1  0  0  0  0  0  0
  1  9  1  0  0  0  0
  2 21  1  6  0  0  0
  2 11  1  0  0  0  0
  2 23  1  0  0  0  0
  3  4  1  0  0  0  0
  5 22  1  1  0  0  0
  5 23  1  0  0  0  0
  5  6  1  0  0  0  0
  6 16  1  6  0  0  0
  6 24  1  0  0  0  0
  7 15  1  0  0  0  0
  7 21  1  0  0  0  0
  9 15  2  0  0  0  0
 10  3  2  0  0  0  0
 11  8  1  6  0  0  0
 11 12  1  0  0  0  0
 12 19  2  0  0  0  0
 12 10  1  0  0  0  0
 13 20  1  1  0  0  0
 13 19  1  0  0  0  0
 14  1  2  0  0  0  0
 14 17  1  0  0  0  0
 15  8  1  0  0  0  0
 17  7  2  0  0  0  0
 18  4  2  0  0  0  0
 19 18  1  0  0  0  0
 23 13  1  0  0  0  0
 24 20  1  0  0  0  0
 24 30  1  0  0  0  0
 25 27  2  0  0  0  0
 26 27  1  0  0  0  0
 27  1  1  0  0  0  0
 28 26  1  0  0  0  0
 29 28  3  0  0  0  0
 30 32  1  0  0  0  0
 31 30  2  0  0  0  0
M  END
>  <MODEL>
7

>  <REMARK>
 VINA RESULT:      -7.9      1.885      9.449
  Name = 
  3 active torsions:
  status: ('A' for Active; 'I' for Inactive)
    1  A    between atoms: C_1  and  N_20
    2  A    between atoms: C_2  and  C_24
    3  A    between atoms: C_11  and  C_32
                            x       y       z     vdW  Elec       q    Type
                         _______ _______ _______ _____ _____    ______ ____

>  <TORSDO>
F 3

$$$$
=
 OpenBabel10262421233D

 32 36  0  0  1  0  0  0  0  0999 V2000
  183.1610  178.7970  142.2480 C   0  0  0  0  0  0  0  0  0  0  0  0
  187.9780  177.3360  141.4950 C   0  0  1  0  0  3  0  0  0  0  0  0
  190.1980  176.9490  145.7980 C   0  0  0  0  0  3  0  0  0  0  0  0
  191.4520  176.9770  145.1790 C   0  0  0  0  0  3  0  0  0  0  0  0
  189.4820  177.6760  139.3590 C   0  0  2  0  0  3  0  0  0  0  0  0
  190.9180  177.4430  138.8670 C   0  0  2  0  0  3  0  0  0  0  0  0
  185.6930  178.1830  141.1950 C   0  0  0  0  0  0  0  0  0  0  0  0
  186.5840  177.7350  143.5270 C   0  0  0  0  0  2  0  0  0  0  0  0
  184.2100  178.4340  143.1040 C   0  0  0  0  0  3  0  0  0  0  0  0
  189.0480  177.2670  145.0700 C   0  0  0  0  0  3  0  0  0  0  0  0
  187.9460  178.0010  142.8830 C   0  0  1  0  0  3  0  0  0  0  0  0
  189.1470  177.6050  143.7120 C   0  0  0  0  0  0  0  0  0  0  0  0
  190.4720  178.0480  141.6480 C   0  0  1  0  0  3  0  0  0  0  0  0
  183.3910  178.8550  140.8650 C   0  0  0  0  0  3  0  0  0  0  0  0
  185.4760  178.1380  142.5900 C   0  0  0  0  0  0  0  0  0  0  0  0
  190.9160  176.3670  137.8900 N   0  0  0  0  0  1  0  0  0  0  0  0
  184.6500  178.5500  140.3410 C   0  0  0  0  0  3  0  0  0  0  0  0
  191.5610  177.3280  143.8310 C   0  0  0  0  0  3  0  0  0  0  0  0
  190.4120  177.6430  143.0950 C   0  0  0  0  0  0  0  0  0  0  0  0
  191.7830  178.0260  141.0920 O   0  0  0  0  0  0  0  0  0  0  0  0
  186.9540  177.8850  140.6660 O   0  0  0  0  0  0  0  0  0  0  0  0
  189.1380  179.0140  139.1560 O   0  0  0  0  0  1  0  0  0  0  0  0
  189.3780  177.3210  140.8380 C   0  0  1  0  0  3  0  0  0  0  0  0
  191.8910  177.1060  140.0220 C   0  0  2  0  0  3  0  0  0  0  0  0
  181.2160  180.1460  142.4060 O   0  0  0  0  0  0  0  0  0  0  0  0
  181.2330  178.2500  143.7680 N   0  0  0  0  0  2  0  0  0  0  0  0
  181.8300  179.1130  142.7960 C   0  0  0  0  0  0  0  0  0  0  0  0
  179.9720  178.5100  144.3220 C   0  0  0  0  0  0  0  0  0  0  0  0
  178.9310  178.7240  144.7810 N   0  0  0  0  0  0  0  0  0  0  0  0
  193.3030  177.0680  139.5380 C   0  0  0  0  0  0  0  0  0  0  0  0
  194.2140  177.5970  140.2260 O   0  0  0  0  0  0  0  0  0  0  0  0
  193.6270  176.4260  138.3080 N   0  0  0  0  0  1  0  0  0  0  0  0
  1 27  1  0  0  0  0
  1  9  1  0  0  0  0
  2 21  1  6  0  0  0
  2 11  1  0  0  0  0
  4  3  1  0  0  0  0
  5 22  1  1  0  0  0
  5 23  1  0  0  0  0
  6 16  1  6  0  0  0
  6  5  1  0  0  0  0
  6 24  1  0  0  0  0
  7 15  1  0  0  0  0
 10  3  2  0  0  0  0
 11  8  1  1  0  0  0
 11 12  1  0  0  0  0
 12 10  1  0  0  0  0
 13 20  1  6  0  0  0
 13 19  1  0  0  0  0
 14  1  2  0  0  0  0
 15  9  2  0  0  0  0
 15  8  1  0  0  0  0
 17 14  1  0  0  0  0
 17  7  2  0  0  0  0
 18  4  2  0  0  0  0
 19 12  2  0  0  0  0
 19 18  1  0  0  0  0
 21  7  1  0  0  0  0
 23  2  1  0  0  0  0
 23 13  1  0  0  0  0
 24 20  1  0  0  0  0
 25 27  2  0  0  0  0
 26 28  1  0  0  0  0
 27 26  1  0  0  0  0
 28 29  3  0  0  0  0
 30 24  1  0  0  0  0
 30 31  2  0  0  0  0
 32 30  1  0  0  0  0
M  END
>  <MODEL>
8

>  <REMARK>
 VINA RESULT:      -7.9      3.696      8.235
  Name = 
  3 active torsions:
  status: ('A' for Active; 'I' for Inactive)
    1  A    between atoms: C_1  and  N_20
    2  A    between atoms: C_2  and  C_24
    3  A    between atoms: C_11  and  C_32
                            x       y       z     vdW  Elec       q    Type
                         _______ _______ _______ _____ _____    ______ ____

>  <TORSDO>
F 3

$$$$
=
 OpenBabel10262421233D

 32 36  0  0  1  0  0  0  0  0999 V2000
  187.7500  177.8440  138.5780 C   0  0  0  0  0  0  0  0  0  0  0  0
  189.0830  176.7000  143.3550 C   0  0  1  0  0  3  0  0  0  0  0  0
  185.6380  178.3070  146.3790 C   0  0  0  0  0  3  0  0  0  0  0  0
  186.5140  178.2110  147.4650 C   0  0  0  0  0  3  0  0  0  0  0  0
  191.4950  176.3020  144.3360 C   0  0  2  0  0  3  0  0  0  0  0  0
  192.2070  176.0370  145.6710 C   0  0  2  0  0  3  0  0  0  0  0  0
  189.0960  177.1180  140.9350 C   0  0  0  0  0  0  0  0  0  0  0  0
  187.0640  177.7400  142.3190 C   0  0  0  0  0  2  0  0  0  0  0  0
  187.1100  177.9650  139.8190 C   0  0  0  0  0  3  0  0  0  0  0  0
  186.1220  178.1860  145.0730 C   0  0  0  0  0  3  0  0  0  0  0  0
  188.0770  177.8610  143.4590 C   0  0  1  0  0  3  0  0  0  0  0  0
  187.4870  177.9570  144.8480 C   0  0  0  0  0  0  0  0  0  0  0  0
  189.8280  177.6630  145.6500 C   0  0  1  0  0  3  0  0  0  0  0  0
  189.0670  177.3630  138.5270 C   0  0  0  0  0  3  0  0  0  0  0  0
  187.7760  177.6170  140.9980 C   0  0  0  0  0  0  0  0  0  0  0  0
  192.6840  174.6650  145.6900 N   0  0  0  0  0  1  0  0  0  0  0  0
  189.7370  177.0030  139.7000 C   0  0  0  0  0  3  0  0  0  0  0  0
  187.8780  177.9980  147.2490 C   0  0  0  0  0  3  0  0  0  0  0  0
  188.3680  177.8710  145.9430 C   0  0  0  0  0  0  0  0  0  0  0  0
  190.6440  177.5520  146.8120 O   0  0  0  0  0  0  0  0  0  0  0  0
  189.7740  176.7620  142.1080 O   0  0  0  0  0  0  0  0  0  0  0  0
  192.0850  177.4020  143.7100 O   0  0  0  0  0  1  0  0  0  0  0  0
  190.0130  176.5640  144.5820 C   0  0  1  0  0  3  0  0  0  0  0  0
  191.2900  176.2950  146.8900 C   0  0  2  0  0  3  0  0  0  0  0  0
  187.2580  179.3420  136.8070 O   0  0  0  0  0  0  0  0  0  0  0  0
  186.1200  177.3050  136.7400 N   0  0  0  0  0  2  0  0  0  0  0  0
  187.0440  178.2170  137.3390 C   0  0  0  0  0  0  0  0  0  0  0  0
  185.4210  177.6160  135.5640 C   0  0  0  0  0  0  0  0  0  0  0  0
  184.8450  177.8710  134.5940 N   0  0  0  0  0  0  0  0  0  0  0  0
  192.0600  176.2090  148.1670 C   0  0  0  0  0  0  0  0  0  0  0  0
  192.4510  175.0890  148.5860 O   0  0  0  0  0  0  0  0  0  0  0  0
  192.3640  177.3880  148.9070 N   0  0  0  0  0  1  0  0  0  0  0  0
  1  9  1  0  0  0  0
  2 21  1  6  0  0  0
  2 11  1  0  0  0  0
  2 23  1  0  0  0  0
  3  4  1  0  0  0  0
  5 22  1  1  0  0  0
  5 23  1  0  0  0  0
  5  6  1  0  0  0  0
  6 16  1  6  0  0  0
  6 24  1  0  0  0  0
  7 15  1  0  0  0  0
  7 21  1  0  0  0  0
  9 15  2  0  0  0  0
 10  3  2  0  0  0  0
 11  8  1  6  0  0  0
 11 12  1  0  0  0  0
 12 10  1  0  0  0  0
 12 19  2  0  0  0  0
 13 19  1  1  0  0  0
 13 20  1  0  0  0  0
 14  1  2  0  0  0  0
 14 17  1  0  0  0  0
 15  8  1  0  0  0  0
 17  7  2  0  0  0  0
 18  4  2  0  0  0  0
 19 18  1  0  0  0  0
 20 24  1  0  0  0  0
 23 13  1  0  0  0  0
 24 30  1  0  0  0  0
 25 27  2  0  0  0  0
 26 27  1  0  0  0  0
 27  1  1  0  0  0  0
 28 26  1  0  0  0  0
 29 28  3  0  0  0  0
 30 31  2  0  0  0  0
 30 32  1  0  0  0  0
M  END
>  <MODEL>
9

>  <REMARK>
 VINA RESULT:      -7.8      2.549      9.361
  Name = 
  3 active torsions:
  status: ('A' for Active; 'I' for Inactive)
    1  A    between atoms: C_1  and  N_20
    2  A    between atoms: C_2  and  C_24
    3  A    between atoms: C_11  and  C_32
                            x       y       z     vdW  Elec       q    Type
                         _______ _______ _______ _____ _____    ______ ____

>  <TORSDO>
F 3

$$$$
