=
 OpenBabel10262421363D

 32 38  0  0  0  0  0  0  0  0999 V2000
  180.1830  179.0770  141.9110 N   0  0  0  0  0  0  0  0  0  0  0  0
  185.2380  178.4320  142.4780 C   0  0  0  0  0  0  0  0  0  0  0  0
  185.8250  178.2480  147.3280 C   0  0  0  0  0  3  0  0  0  0  0  0
  187.1840  177.9910  147.1580 C   0  0  0  0  0  3  0  0  0  0  0  0
  187.2140  178.0690  140.9990 C   0  0  0  0  0  0  0  0  0  0  0  0
  188.5800  177.8040  140.8860 C   0  0  0  0  0  0  0  0  0  0  0  0
  183.0170  178.8860  141.5610 C   0  0  0  0  0  0  0  0  0  0  0  0
  183.3250  178.7730  143.9540 C   0  0  0  0  0  3  0  0  0  0  0  0
  190.7270  177.3760  141.7050 N   0  0  0  0  0  0  0  0  0  0  0  0
  181.0360  179.2860  143.0890 C   0  0  0  0  0  2  0  0  0  0  0  0
  185.0040  178.4200  146.2150 C   0  0  0  0  0  3  0  0  0  0  0  0
  184.6970  178.5130  143.7880 C   0  0  0  0  0  0  0  0  0  0  0  0
  185.5270  178.3380  144.9110 C   0  0  0  0  0  0  0  0  0  0  0  0
  187.4530  177.9890  143.4400 C   0  0  0  0  0  0  0  0  0  0  0  0
  191.0290  177.3320  140.2820 C   0  0  0  0  0  2  0  0  0  0  0  0
  180.7930  179.6580  140.7070 C   0  0  0  0  0  2  0  0  0  0  0  0
  182.4830  178.9430  142.8550 C   0  0  0  0  0  0  0  0  0  0  0  0
  189.4730  177.6520  139.3470 S   0  0  0  0  0  0  0  0  0  0  0  0
  182.1360  179.0090  140.3580 C   0  0  0  0  0  2  0  0  0  0  0  0
  187.7200  177.9060  145.8730 C   0  0  0  0  0  3  0  0  0  0  0  0
  186.9080  178.0760  144.7370 C   0  0  0  0  0  0  0  0  0  0  0  0
  188.8270  177.7250  143.2730 C   0  0  0  0  0  3  0  0  0  0  0  0
  184.3730  178.6170  141.3830 C   0  0  0  0  0  3  0  0  0  0  0  0
  186.4960  178.2250  139.8580 F   0  0  0  0  0  0  0  0  0  0  0  0
  191.7470  177.1630  142.7190 C   0  0  0  0  0  1  0  0  0  0  0  0
  186.6210  178.1660  142.2920 C   0  0  0  0  0  0  0  0  0  0  0  0
  189.3650  177.6370  141.9930 C   0  0  0  0  0  0  0  0  0  0  0  0
  179.9340  177.6490  141.7340 C   0  0  0  0  0  2  0  0  0  0  0  0
  179.0010  177.4310  140.5570 C   0  0  0  0  0  2  0  0  0  0  0  0
  179.1690  176.0210  140.0310 C   0  0  0  0  0  3  0  0  0  0  0  0
  180.6460  175.7290  139.8630 C   0  0  0  0  0  2  0  0  0  0  0  0
  179.8000  176.0730  138.6550 C   0  0  0  0  0  2  0  0  0  0  0  0
  1 10  1  0  0  0  0
  2 12  1  0  0  0  0
  4  3  1  0  0  0  0
  5 26  1  0  0  0  0
  6  5  2  0  0  0  0
  6 27  1  0  0  0  0
  7 17  1  0  0  0  0
  9 27  1  0  0  0  0
  9 25  1  0  0  0  0
 11  3  2  0  0  0  0
 12  8  1  0  0  0  0
 12 13  2  0  0  0  0
 13 11  1  0  0  0  0
 14 21  2  0  0  0  0
 15  9  1  0  0  0  0
 16  1  1  0  0  0  0
 17 10  1  0  0  0  0
 17  8  2  0  0  0  0
 18 15  1  0  0  0  0
 18  6  1  0  0  0  0
 19 16  1  0  0  0  0
 19  7  1  0  0  0  0
 20  4  2  0  0  0  0
 21 13  1  0  0  0  0
 21 20  1  0  0  0  0
 22 14  1  0  0  0  0
 23  7  2  0  0  0  0
 23  2  1  0  0  0  0
 24  5  1  0  0  0  0
 26  2  2  0  0  0  0
 26 14  1  0  0  0  0
 27 22  2  0  0  0  0
 28  1  1  0  0  0  0
 29 28  1  0  0  0  0
 30 29  1  0  0  0  0
 31 30  1  0  0  0  0
 32 31  1  0  0  0  0
 32 30  1  0  0  0  0
M  END
>  <MODEL>
1

>  <REMARK>
 VINA RESULT:     -10.4      0.000      0.000
  Name = 
  3 active torsions:
  status: ('A' for Active; 'I' for Inactive)
    1  A    between atoms: C_1  and  C_10
    2  A    between atoms: N_2  and  C_24
    3  A    between atoms: C_10  and  C_24
                            x       y       z     vdW  Elec       q    Type
                         _______ _______ _______ _____ _____    ______ ____

>  <TORSDO>
F 3

$$$$
=
 OpenBabel10262421363D

 32 38  0  0  0  0  0  0  0  0999 V2000
  187.5450  177.9090  136.9610 N   0  0  0  0  0  0  0  0  0  0  0  0
  187.6700  177.9730  142.0870 C   0  0  0  0  0  0  0  0  0  0  0  0
  183.0530  178.9970  143.3260 C   0  0  0  0  0  3  0  0  0  0  0  0
  183.3790  178.8570  144.6730 C   0  0  0  0  0  3  0  0  0  0  0  0
  189.3330  177.4930  143.8840 C   0  0  0  0  0  0  0  0  0  0  0  0
  189.6050  177.3600  145.2460 C   0  0  0  0  0  0  0  0  0  0  0  0
  188.2950  177.9540  139.7230 C   0  0  0  0  0  0  0  0  0  0  0  0
  186.0150  178.4390  140.3550 C   0  0  0  0  0  3  0  0  0  0  0  0
  189.0680  177.3740  147.5220 N   0  0  0  0  0  0  0  0  0  0  0  0
  186.5920  178.4800  137.9230 C   0  0  0  0  0  2  0  0  0  0  0  0
  184.0310  178.8120  142.3500 C   0  0  0  0  0  3  0  0  0  0  0  0
  186.3390  178.2990  141.7170 C   0  0  0  0  0  0  0  0  0  0  0  0
  185.3530  178.4840  142.7040 C   0  0  0  0  0  0  0  0  0  0  0  0
  187.0030  178.0140  144.4500 C   0  0  0  0  0  0  0  0  0  0  0  0
  190.4770  177.0310  147.6370 C   0  0  0  0  0  2  0  0  0  0  0  0
  188.9280  178.2550  137.3190 C   0  0  0  0  0  2  0  0  0  0  0  0
  186.9760  178.2540  139.3610 C   0  0  0  0  0  0  0  0  0  0  0  0
  191.1970  176.9500  145.9430 S   0  0  0  0  0  0  0  0  0  0  0  0
  189.3400  177.6930  138.6840 C   0  0  0  0  0  2  0  0  0  0  0  0
  184.6840  178.5330  145.0430 C   0  0  0  0  0  3  0  0  0  0  0  0
  185.6860  178.3420  144.0730 C   0  0  0  0  0  0  0  0  0  0  0  0
  187.3280  177.8700  145.8140 C   0  0  0  0  0  3  0  0  0  0  0  0
  188.6260  177.8010  141.0690 C   0  0  0  0  0  3  0  0  0  0  0  0
  190.3510  177.2960  143.0070 F   0  0  0  0  0  0  0  0  0  0  0  0
  188.2080  177.5170  148.6860 C   0  0  0  0  0  1  0  0  0  0  0  0
  188.0140  177.8240  143.4580 C   0  0  0  0  0  0  0  0  0  0  0  0
  188.6270  177.5440  146.1860 C   0  0  0  0  0  0  0  0  0  0  0  0
  187.3680  176.4610  136.8980 C   0  0  0  0  0  2  0  0  0  0  0  0
  188.3170  175.8700  135.8740 C   0  0  0  0  0  2  0  0  0  0  0  0
  188.6310  174.4350  136.2410 C   0  0  0  0  0  3  0  0  0  0  0  0
  189.8600  174.4090  137.1260 C   0  0  0  0  0  2  0  0  0  0  0  0
  189.9770  174.0540  135.6590 C   0  0  0  0  0  2  0  0  0  0  0  0
  1 16  1  0  0  0  0
  1 10  1  0  0  0  0
  2 26  1  0  0  0  0
  3  4  1  0  0  0  0
  4 20  2  0  0  0  0
  5  6  1  0  0  0  0
  6 18  1  0  0  0  0
  6 27  2  0  0  0  0
  7 23  1  0  0  0  0
  8 12  2  0  0  0  0
  9 15  1  0  0  0  0
  9 25  1  0  0  0  0
 10 17  1  0  0  0  0
 11 13  1  0  0  0  0
 11  3  2  0  0  0  0
 12  2  1  0  0  0  0
 12 13  1  0  0  0  0
 13 21  2  0  0  0  0
 14 22  2  0  0  0  0
 16 19  1  0  0  0  0
 17  7  2  0  0  0  0
 17  8  1  0  0  0  0
 18 15  1  0  0  0  0
 19  7  1  0  0  0  0
 21 14  1  0  0  0  0
 21 20  1  0  0  0  0
 22 27  1  0  0  0  0
 23  2  2  0  0  0  0
 24  5  1  0  0  0  0
 26  5  2  0  0  0  0
 26 14  1  0  0  0  0
 27  9  1  0  0  0  0
 28  1  1  0  0  0  0
 29 30  1  0  0  0  0
 29 28  1  0  0  0  0
 30 31  1  0  0  0  0
 32 30  1  0  0  0  0
 32 31  1  0  0  0  0
M  END
>  <MODEL>
2

>  <REMARK>
 VINA RESULT:     -10.3      3.457      6.265
  Name = 
  3 active torsions:
  status: ('A' for Active; 'I' for Inactive)
    1  A    between atoms: C_1  and  C_10
    2  A    between atoms: N_2  and  C_24
    3  A    between atoms: C_10  and  C_24
                            x       y       z     vdW  Elec       q    Type
                         _______ _______ _______ _____ _____    ______ ____

>  <TORSDO>
F 3

$$$$
=
 OpenBabel10262421363D

 32 38  0  0  0  0  0  0  0  0999 V2000
  187.6150  177.9380  136.7560 N   0  0  0  0  0  0  0  0  0  0  0  0
  187.7520  177.9430  141.8820 C   0  0  0  0  0  0  0  0  0  0  0  0
  183.1450  178.9890  143.1430 C   0  0  0  0  0  3  0  0  0  0  0  0
  183.4740  178.8320  144.4880 C   0  0  0  0  0  3  0  0  0  0  0  0
  189.4150  177.4300  143.6690 C   0  0  0  0  0  0  0  0  0  0  0  0
  189.6880  177.2800  145.0300 C   0  0  0  0  0  0  0  0  0  0  0  0
  188.3720  177.9460  139.5170 C   0  0  0  0  0  0  0  0  0  0  0  0
  186.0970  178.4420  140.1590 C   0  0  0  0  0  3  0  0  0  0  0  0
  189.1570  177.2720  147.3070 N   0  0  0  0  0  0  0  0  0  0  0  0
  186.6690  178.5060  137.7270 C   0  0  0  0  0  2  0  0  0  0  0  0
  184.1200  178.8080  142.1620 C   0  0  0  0  0  3  0  0  0  0  0  0
  186.4230  178.2840  141.5190 C   0  0  0  0  0  0  0  0  0  0  0  0
  185.4400  178.4660  142.5100 C   0  0  0  0  0  0  0  0  0  0  0  0
  187.0900  177.9630  144.2470 C   0  0  0  0  0  0  0  0  0  0  0  0
  190.5640  176.9170  147.4150 C   0  0  0  0  0  2  0  0  0  0  0  0
  189.0020  178.2690  137.1140 C   0  0  0  0  0  2  0  0  0  0  0  0
  187.0540  178.2600  139.1610 C   0  0  0  0  0  0  0  0  0  0  0  0
  191.2800  176.8500  145.7180 S   0  0  0  0  0  0  0  0  0  0  0  0
  189.4120  177.6890  138.4720 C   0  0  0  0  0  2  0  0  0  0  0  0
  184.7770  178.4930  144.8510 C   0  0  0  0  0  3  0  0  0  0  0  0
  185.7750  178.3060  143.8770 C   0  0  0  0  0  0  0  0  0  0  0  0
  187.4170  177.8010  145.6080 C   0  0  0  0  0  3  0  0  0  0  0  0
  188.7040  177.7750  140.8600 C   0  0  0  0  0  3  0  0  0  0  0  0
  190.4300  177.2360  142.7880 F   0  0  0  0  0  0  0  0  0  0  0  0
  188.3010  177.4090  148.4740 C   0  0  0  0  0  1  0  0  0  0  0  0
  188.0970  177.7760  143.2500 C   0  0  0  0  0  0  0  0  0  0  0  0
  188.7150  177.4610  145.9730 C   0  0  0  0  0  0  0  0  0  0  0  0
  187.4260  176.4920  136.6780 C   0  0  0  0  0  2  0  0  0  0  0  0
  186.0100  176.1800  136.2340 C   0  0  0  0  0  2  0  0  0  0  0  0
  185.4290  175.0950  137.1170 C   0  0  0  0  0  3  0  0  0  0  0  0
  184.2060  174.5100  136.4410 C   0  0  0  0  0  2  0  0  0  0  0  0
  184.0430  175.5080  137.5680 C   0  0  0  0  0  2  0  0  0  0  0  0
  1 16  1  0  0  0  0
  1 10  1  0  0  0  0
  2 26  1  0  0  0  0
  3  4  1  0  0  0  0
  4 20  2  0  0  0  0
  5  6  1  0  0  0  0
  6 18  1  0  0  0  0
  6 27  2  0  0  0  0
  7 23  1  0  0  0  0
  8 12  2  0  0  0  0
  9 15  1  0  0  0  0
  9 25  1  0  0  0  0
 10 17  1  0  0  0  0
 11 13  1  0  0  0  0
 11  3  2  0  0  0  0
 12  2  1  0  0  0  0
 12 13  1  0  0  0  0
 13 21  2  0  0  0  0
 14 22  2  0  0  0  0
 16 19  1  0  0  0  0
 17  7  2  0  0  0  0
 17  8  1  0  0  0  0
 18 15  1  0  0  0  0
 19  7  1  0  0  0  0
 21 14  1  0  0  0  0
 21 20  1  0  0  0  0
 22 27  1  0  0  0  0
 23  2  2  0  0  0  0
 24  5  1  0  0  0  0
 26  5  2  0  0  0  0
 26 14  1  0  0  0  0
 27  9  1  0  0  0  0
 28  1  1  0  0  0  0
 29 28  1  0  0  0  0
 29 30  1  0  0  0  0
 30 32  1  0  0  0  0
 31 30  1  0  0  0  0
 31 32  1  0  0  0  0
M  END
>  <MODEL>
3

>  <REMARK>
 VINA RESULT:     -10.3      3.303      5.583
  Name = 
  3 active torsions:
  status: ('A' for Active; 'I' for Inactive)
    1  A    between atoms: C_1  and  C_10
    2  A    between atoms: N_2  and  C_24
    3  A    between atoms: C_10  and  C_24
                            x       y       z     vdW  Elec       q    Type
                         _______ _______ _______ _____ _____    ______ ____

>  <TORSDO>
F 3

$$$$
=
 OpenBabel10262421363D

 32 38  0  0  0  0  0  0  0  0999 V2000
  181.2390  178.9090  139.6090 N   0  0  0  0  0  0  0  0  0  0  0  0
  185.7250  178.3440  142.0290 C   0  0  0  0  0  0  0  0  0  0  0  0
  184.4960  178.5240  146.7580 C   0  0  0  0  0  3  0  0  0  0  0  0
  185.8170  178.2650  147.1150 C   0  0  0  0  0  3  0  0  0  0  0  0
  188.0960  177.8890  141.4050 C   0  0  0  0  0  0  0  0  0  0  0  0
  189.4040  177.6260  141.8180 C   0  0  0  0  0  0  0  0  0  0  0  0
  184.0010  178.7140  140.3340 C   0  0  0  0  0  0  0  0  0  0  0  0
  183.4110  178.7800  142.6750 C   0  0  0  0  0  3  0  0  0  0  0  0
  191.0940  177.2760  143.3940 N   0  0  0  0  0  0  0  0  0  0  0  0
  181.6070  179.2100  140.9990 C   0  0  0  0  0  2  0  0  0  0  0  0
  184.1420  178.6070  145.4120 C   0  0  0  0  0  3  0  0  0  0  0  0
  184.7440  178.5180  143.0410 C   0  0  0  0  0  0  0  0  0  0  0  0
  185.1040  178.4330  144.4000 C   0  0  0  0  0  0  0  0  0  0  0  0
  187.4260  177.9910  143.7640 C   0  0  0  0  0  0  0  0  0  0  0  0
  191.8940  177.1290  142.1870 C   0  0  0  0  0  2  0  0  0  0  0  0
  182.2590  179.4040  138.6730 C   0  0  0  0  0  2  0  0  0  0  0  0
  183.0330  178.8620  141.3350 C   0  0  0  0  0  0  0  0  0  0  0  0
  190.7940  177.3670  140.7280 S   0  0  0  0  0  0  0  0  0  0  0  0
  183.6230  178.7400  138.8860 C   0  0  0  0  0  2  0  0  0  0  0  0
  186.7840  178.0900  146.1250 C   0  0  0  0  0  3  0  0  0  0  0  0
  186.4470  178.1690  144.7610 C   0  0  0  0  0  0  0  0  0  0  0  0
  188.7600  177.7250  144.1300 C   0  0  0  0  0  3  0  0  0  0  0  0
  185.3230  178.4430  140.6840 C   0  0  0  0  0  3  0  0  0  0  0  0
  187.8480  177.9540  140.0720 F   0  0  0  0  0  0  0  0  0  0  0  0
  191.6690  177.1450  144.7230 C   0  0  0  0  0  1  0  0  0  0  0  0
  187.0740  178.0760  142.3810 C   0  0  0  0  0  0  0  0  0  0  0  0
  189.7260  177.5470  143.1450 C   0  0  0  0  0  0  0  0  0  0  0  0
  181.0440  177.4690  139.4550 C   0  0  0  0  0  2  0  0  0  0  0  0
  180.3600  177.1810  138.1320 C   0  0  0  0  0  2  0  0  0  0  0  0
  180.6830  175.7690  137.6920 C   0  0  0  0  0  3  0  0  0  0  0  0
  182.1860  175.5810  137.6960 C   0  0  0  0  0  2  0  0  0  0  0  0
  181.4570  175.8160  136.3900 C   0  0  0  0  0  2  0  0  0  0  0  0
  1 10  1  0  0  0  0
  2 26  2  0  0  0  0
  2 12  1  0  0  0  0
  3  4  1  0  0  0  0
  5  6  2  0  0  0  0
  5 26  1  0  0  0  0
  6 27  1  0  0  0  0
  7 23  2  0  0  0  0
  7 17  1  0  0  0  0
  8 12  1  0  0  0  0
  9 25  1  0  0  0  0
 10 17  1  0  0  0  0
 11  3  2  0  0  0  0
 12 13  2  0  0  0  0
 13 21  1  0  0  0  0
 13 11  1  0  0  0  0
 14 22  1  0  0  0  0
 14 21  2  0  0  0  0
 15  9  1  0  0  0  0
 16 19  1  0  0  0  0
 16  1  1  0  0  0  0
 17  8  2  0  0  0  0
 18  6  1  0  0  0  0
 18 15  1  0  0  0  0
 19  7  1  0  0  0  0
 20  4  2  0  0  0  0
 21 20  1  0  0  0  0
 23  2  1  0  0  0  0
 24  5  1  0  0  0  0
 26 14  1  0  0  0  0
 27  9  1  0  0  0  0
 27 22  2  0  0  0  0
 28  1  1  0  0  0  0
 29 28  1  0  0  0  0
 30 31  1  0  0  0  0
 30 29  1  0  0  0  0
 32 30  1  0  0  0  0
 32 31  1  0  0  0  0
M  END
>  <MODEL>
4

>  <REMARK>
 VINA RESULT:      -9.3      1.372      1.747
  Name = 
  3 active torsions:
  status: ('A' for Active; 'I' for Inactive)
    1  A    between atoms: C_1  and  C_10
    2  A    between atoms: N_2  and  C_24
    3  A    between atoms: C_10  and  C_24
                            x       y       z     vdW  Elec       q    Type
                         _______ _______ _______ _____ _____    ______ ____

>  <TORSDO>
F 3

$$$$
=
 OpenBabel10262421363D

 32 38  0  0  0  0  0  0  0  0999 V2000
  190.3330  176.4540  136.5800 N   0  0  0  0  0  0  0  0  0  0  0  0
  189.4010  177.2390  141.5610 C   0  0  0  0  0  0  0  0  0  0  0  0
  184.8770  179.0930  141.5930 C   0  0  0  0  0  3  0  0  0  0  0  0
  184.8870  179.1040  142.9860 C   0  0  0  0  0  3  0  0  0  0  0  0
  190.5450  176.7860  143.7310 C   0  0  0  0  0  0  0  0  0  0  0  0
  190.5000  176.8140  145.1260 C   0  0  0  0  0  0  0  0  0  0  0  0
  190.4900  176.7870  139.4190 C   0  0  0  0  0  0  0  0  0  0  0  0
  188.2480  177.6860  139.4560 C   0  0  0  0  0  3  0  0  0  0  0  0
  189.5130  177.2350  147.2030 N   0  0  0  0  0  0  0  0  0  0  0  0
  189.3160  177.2900  137.2310 C   0  0  0  0  0  2  0  0  0  0  0  0
  185.9890  178.6280  140.8920 C   0  0  0  0  0  3  0  0  0  0  0  0
  188.2530  177.6990  140.8630 C   0  0  0  0  0  0  0  0  0  0  0  0
  187.1310  178.1660  141.5730 C   0  0  0  0  0  0  0  0  0  0  0  0
  188.2750  177.7180  143.6900 C   0  0  0  0  0  0  0  0  0  0  0  0
  190.7860  176.7100  147.6740 C   0  0  0  0  0  2  0  0  0  0  0  0
  191.6510  176.6420  137.2040 C   0  0  0  0  0  2  0  0  0  0  0  0
  189.3470  177.2210  138.7340 C   0  0  0  0  0  0  0  0  0  0  0  0
  191.8170  176.2810  146.2080 S   0  0  0  0  0  0  0  0  0  0  0  0
  191.6660  176.2300  138.6800 C   0  0  0  0  0  2  0  0  0  0  0  0
  186.0100  178.6500  143.6780 C   0  0  0  0  0  3  0  0  0  0  0  0
  187.1420  178.1770  142.9880 C   0  0  0  0  0  0  0  0  0  0  0  0
  188.2790  177.7270  145.0990 C   0  0  0  0  0  3  0  0  0  0  0  0
  190.5020  176.7840  140.8130 C   0  0  0  0  0  3  0  0  0  0  0  0
  191.6730  176.3190  143.1360 F   0  0  0  0  0  0  0  0  0  0  0  0
  188.4690  177.6680  148.1170 C   0  0  0  0  0  1  0  0  0  0  0  0
  189.4210  177.2410  142.9810 C   0  0  0  0  0  0  0  0  0  0  0  0
  189.3960  177.2720  145.7910 C   0  0  0  0  0  0  0  0  0  0  0  0
  189.9240  175.0530  136.6360 C   0  0  0  0  0  2  0  0  0  0  0  0
  188.4610  174.9270  136.2550 C   0  0  0  0  0  2  0  0  0  0  0  0
  187.9270  173.5910  136.7250 C   0  0  0  0  0  3  0  0  0  0  0  0
  186.8230  173.1430  135.7890 C   0  0  0  0  0  2  0  0  0  0  0  0
  186.4760  173.7490  137.1330 C   0  0  0  0  0  2  0  0  0  0  0  0
  1 28  1  0  0  0  0
  1 16  1  0  0  0  0
  1 10  1  0  0  0  0
  2 26  1  0  0  0  0
  3  4  1  0  0  0  0
  4 20  2  0  0  0  0
  5  6  1  0  0  0  0
  6 27  2  0  0  0  0
  6 18  1  0  0  0  0
  7 23  1  0  0  0  0
  8 12  2  0  0  0  0
  9 15  1  0  0  0  0
  9 25  1  0  0  0  0
 10 17  1  0  0  0  0
 11 13  1  0  0  0  0
 11  3  2  0  0  0  0
 12  2  1  0  0  0  0
 12 13  1  0  0  0  0
 13 21  2  0  0  0  0
 14 22  2  0  0  0  0
 16 19  1  0  0  0  0
 17  7  2  0  0  0  0
 17  8  1  0  0  0  0
 18 15  1  0  0  0  0
 19  7  1  0  0  0  0
 21 20  1  0  0  0  0
 21 14  1  0  0  0  0
 22 27  1  0  0  0  0
 23  2  2  0  0  0  0
 24  5  1  0  0  0  0
 26 14  1  0  0  0  0
 26  5  2  0  0  0  0
 27  9  1  0  0  0  0
 29 28  1  0  0  0  0
 29 30  1  0  0  0  0
 30 32  1  0  0  0  0
 31 30  1  0  0  0  0
 31 32  1  0  0  0  0
M  END
>  <MODEL>
5

>  <REMARK>
 VINA RESULT:      -9.3      4.001      7.086
  Name = 
  3 active torsions:
  status: ('A' for Active; 'I' for Inactive)
    1  A    between atoms: C_1  and  C_10
    2  A    between atoms: N_2  and  C_24
    3  A    between atoms: C_10  and  C_24
                            x       y       z     vdW  Elec       q    Type
                         _______ _______ _______ _____ _____    ______ ____

>  <TORSDO>
F 3

$$$$
=
 OpenBabel10262421363D

 32 38  0  0  0  0  0  0  0  0999 V2000
  180.9590  179.7400  138.8570 N   0  0  0  0  0  0  0  0  0  0  0  0
  185.0240  178.4880  141.7230 C   0  0  0  0  0  0  0  0  0  0  0  0
  188.6450  178.1140  138.4590 C   0  0  0  0  0  3  0  0  0  0  0  0
  189.5540  177.8780  139.4890 C   0  0  0  0  0  3  0  0  0  0  0  0
  185.5400  178.2190  144.1480 C   0  0  0  0  0  0  0  0  0  0  0  0
  186.4930  177.9840  145.1410 C   0  0  0  0  0  0  0  0  0  0  0  0
  182.7490  178.9250  140.9370 C   0  0  0  0  0  0  0  0  0  0  0  0
  184.5550  178.7550  139.3420 C   0  0  0  0  0  3  0  0  0  0  0  0
  188.6440  177.5560  145.9500 N   0  0  0  0  0  0  0  0  0  0  0  0
  182.2500  179.1580  138.4640 C   0  0  0  0  0  2  0  0  0  0  0  0
  187.2980  178.3250  138.7530 C   0  0  0  0  0  3  0  0  0  0  0  0
  185.4770  178.5160  140.3780 C   0  0  0  0  0  0  0  0  0  0  0  0
  186.8370  178.3040  140.0830 C   0  0  0  0  0  0  0  0  0  0  0  0
  187.3200  178.0390  142.4680 C   0  0  0  0  0  0  0  0  0  0  0  0
  187.9400  177.5870  147.2230 C   0  0  0  0  0  2  0  0  0  0  0  0
  180.4140  179.0630  140.0430 C   0  0  0  0  0  2  0  0  0  0  0  0
  183.2050  178.9740  139.6130 C   0  0  0  0  0  0  0  0  0  0  0  0
  186.1560  177.9110  146.8940 S   0  0  0  0  0  0  0  0  0  0  0  0
  181.3190  179.2100  141.2710 C   0  0  0  0  0  2  0  0  0  0  0  0
  189.1140  177.8530  140.8120 C   0  0  0  0  0  3  0  0  0  0  0  0
  187.7600  178.0640  141.1300 C   0  0  0  0  0  0  0  0  0  0  0  0
  188.2430  177.8040  143.5070 C   0  0  0  0  0  3  0  0  0  0  0  0
  183.6550  178.7010  141.9730 C   0  0  0  0  0  3  0  0  0  0  0  0
  184.2520  178.4110  144.5320 F   0  0  0  0  0  0  0  0  0  0  0  0
  190.0760  177.3190  145.8630 C   0  0  0  0  0  1  0  0  0  0  0  0
  185.9420  178.2530  142.7810 C   0  0  0  0  0  0  0  0  0  0  0  0
  187.8090  177.7810  144.8280 C   0  0  0  0  0  0  0  0  0  0  0  0
  181.1210  181.1710  139.1010 C   0  0  0  0  0  2  0  0  0  0  0  0
  181.5500  181.8660  137.8220 C   0  0  0  0  0  2  0  0  0  0  0  0
  180.6790  183.0810  137.5880 C   0  0  0  0  0  3  0  0  0  0  0  0
  180.8050  183.5080  136.1400 C   0  0  0  0  0  2  0  0  0  0  0  0
  181.5550  184.2600  137.2190 C   0  0  0  0  0  2  0  0  0  0  0  0
  1 28  1  0  0  0  0
  1 16  1  0  0  0  0
  2 23  1  0  0  0  0
  2 26  1  0  0  0  0
  3 11  2  0  0  0  0
  3  4  1  0  0  0  0
  4 20  2  0  0  0  0
  5 24  1  0  0  0  0
  5  6  1  0  0  0  0
  6 18  1  0  0  0  0
  7 19  1  0  0  0  0
  7 23  2  0  0  0  0
  8 17  2  0  0  0  0
  8 12  1  0  0  0  0
  9 15  1  0  0  0  0
 10  1  1  0  0  0  0
 10 17  1  0  0  0  0
 11 13  1  0  0  0  0
 12  2  2  0  0  0  0
 13 12  1  0  0  0  0
 13 21  2  0  0  0  0
 14 26  1  0  0  0  0
 14 22  2  0  0  0  0
 16 19  1  0  0  0  0
 17  7  1  0  0  0  0
 18 15  1  0  0  0  0
 20 21  1  0  0  0  0
 21 14  1  0  0  0  0
 22 27  1  0  0  0  0
 25  9  1  0  0  0  0
 26  5  2  0  0  0  0
 27  6  2  0  0  0  0
 27  9  1  0  0  0  0
 29 28  1  0  0  0  0
 30 29  1  0  0  0  0
 31 32  1  0  0  0  0
 31 30  1  0  0  0  0
 32 30  1  0  0  0  0
M  END
>  <MODEL>
6

>  <REMARK>
 VINA RESULT:      -9.0      2.949      5.174
  Name = 
  3 active torsions:
  status: ('A' for Active; 'I' for Inactive)
    1  A    between atoms: C_1  and  C_10
    2  A    between atoms: N_2  and  C_24
    3  A    between atoms: C_10  and  C_24
                            x       y       z     vdW  Elec       q    Type
                         _______ _______ _______ _____ _____    ______ ____

>  <TORSDO>
F 3

$$$$
=
 OpenBabel10262421363D

 32 38  0  0  0  0  0  0  0  0999 V2000
  189.0430  177.8110  147.1910 N   0  0  0  0  0  0  0  0  0  0  0  0
  185.2350  178.5050  143.8290 C   0  0  0  0  0  0  0  0  0  0  0  0
  187.4840  178.2530  139.4950 C   0  0  0  0  0  3  0  0  0  0  0  0
  186.2560  178.3740  138.8460 C   0  0  0  0  0  3  0  0  0  0  0  0
  182.7530  178.7510  143.8990 C   0  0  0  0  0  0  0  0  0  0  0  0
  181.5510  178.8640  143.1990 C   0  0  0  0  0  0  0  0  0  0  0  0
  186.5700  178.3970  145.8740 C   0  0  0  0  0  0  0  0  0  0  0  0
  187.6600  178.2550  143.7230 C   0  0  0  0  0  3  0  0  0  0  0  0
  180.2240  178.9830  141.2770 N   0  0  0  0  0  0  0  0  0  0  0  0
  189.0930  178.1820  145.7710 C   0  0  0  0  0  2  0  0  0  0  0  0
  187.5390  178.2540  140.8880 C   0  0  0  0  0  3  0  0  0  0  0  0
  186.4240  178.3770  143.0640 C   0  0  0  0  0  0  0  0  0  0  0  0
  186.3660  178.3760  141.6570 C   0  0  0  0  0  0  0  0  0  0  0  0
  183.9320  178.6210  141.7500 C   0  0  0  0  0  0  0  0  0  0  0  0
  179.1680  179.0890  142.2730 C   0  0  0  0  0  2  0  0  0  0  0  0
  188.0220  178.5900  147.9060 C   0  0  0  0  0  2  0  0  0  0  0  0
  187.7390  178.2480  145.1150 C   0  0  0  0  0  0  0  0  0  0  0  0
  179.9370  179.0280  143.9470 S   0  0  0  0  0  0  0  0  0  0  0  0
  186.6090  178.3380  147.3690 C   0  0  0  0  0  2  0  0  0  0  0  0
  185.0840  178.4960  139.5920 C   0  0  0  0  0  3  0  0  0  0  0  0
  185.1180  178.4990  140.9990 C   0  0  0  0  0  0  0  0  0  0  0  0
  182.6930  178.7400  141.0900 C   0  0  0  0  0  3  0  0  0  0  0  0
  185.3380  178.5060  145.2320 C   0  0  0  0  0  3  0  0  0  0  0  0
  182.7070  178.7650  145.2550 F   0  0  0  0  0  0  0  0  0  0  0  0
  179.9460  179.0010  139.8500 C   0  0  0  0  0  1  0  0  0  0  0  0
  183.9770  178.6250  143.1780 C   0  0  0  0  0  0  0  0  0  0  0  0
  181.5220  178.8590  141.8310 C   0  0  0  0  0  0  0  0  0  0  0  0
  188.7880  176.3780  147.3140 C   0  0  0  0  0  2  0  0  0  0  0  0
  190.0620  175.6600  147.7180 C   0  0  0  0  0  2  0  0  0  0  0  0
  191.2580  176.5380  147.4130 C   0  0  0  0  0  3  0  0  0  0  0  0
  192.0550  175.9110  146.2880 C   0  0  0  0  0  2  0  0  0  0  0  0
  192.5290  175.7730  147.7190 C   0  0  0  0  0  2  0  0  0  0  0  0
  1 28  1  0  0  0  0
  1 16  1  0  0  0  0
  2 23  1  0  0  0  0
  3 11  1  0  0  0  0
  4  3  2  0  0  0  0
  4 20  1  0  0  0  0
  5 24  1  0  0  0  0
  6  5  1  0  0  0  0
  6 18  1  0  0  0  0
  7 19  1  0  0  0  0
  8 17  2  0  0  0  0
  9 27  1  0  0  0  0
  9 15  1  0  0  0  0
 10  1  1  0  0  0  0
 11 13  2  0  0  0  0
 12  8  1  0  0  0  0
 12  2  2  0  0  0  0
 13 12  1  0  0  0  0
 14 26  1  0  0  0  0
 15 18  1  0  0  0  0
 17 10  1  0  0  0  0
 17  7  1  0  0  0  0
 19 16  1  0  0  0  0
 20 21  2  0  0  0  0
 21 13  1  0  0  0  0
 21 14  1  0  0  0  0
 22 14  2  0  0  0  0
 22 27  1  0  0  0  0
 23  7  2  0  0  0  0
 25  9  1  0  0  0  0
 26  2  1  0  0  0  0
 26  5  2  0  0  0  0
 27  6  2  0  0  0  0
 28 29  1  0  0  0  0
 30 29  1  0  0  0  0
 30 32  1  0  0  0  0
 31 30  1  0  0  0  0
 31 32  1  0  0  0  0
M  END
>  <MODEL>
7

>  <REMARK>
 VINA RESULT:      -8.8      3.057      8.650
  Name = 
  3 active torsions:
  status: ('A' for Active; 'I' for Inactive)
    1  A    between atoms: C_1  and  C_10
    2  A    between atoms: N_2  and  C_24
    3  A    between atoms: C_10  and  C_24
                            x       y       z     vdW  Elec       q    Type
                         _______ _______ _______ _____ _____    ______ ____

>  <TORSDO>
F 3

$$$$
=
 OpenBabel10262421363D

 32 38  0  0  0  0  0  0  0  0999 V2000
  191.4220  176.4960  136.6880 N   0  0  0  0  0  0  0  0  0  0  0  0
  189.7780  177.3280  141.4730 C   0  0  0  0  0  0  0  0  0  0  0  0
  185.2290  179.0050  140.8380 C   0  0  0  0  0  3  0  0  0  0  0  0
  185.0450  179.0390  142.2190 C   0  0  0  0  0  3  0  0  0  0  0  0
  190.6260  176.9580  143.7900 C   0  0  0  0  0  0  0  0  0  0  0  0
  190.3860  177.0070  145.1640 C   0  0  0  0  0  0  0  0  0  0  0  0
  191.1700  176.8830  139.5130 C   0  0  0  0  0  0  0  0  0  0  0  0
  188.9140  177.6940  139.2200 C   0  0  0  0  0  3  0  0  0  0  0  0
  189.1050  177.4240  147.0750 N   0  0  0  0  0  0  0  0  0  0  0  0
  190.2940  177.3030  137.1730 C   0  0  0  0  0  2  0  0  0  0  0  0
  186.4440  178.5720  140.3080 C   0  0  0  0  0  3  0  0  0  0  0  0
  188.7230  177.7310  140.6130 C   0  0  0  0  0  0  0  0  0  0  0  0
  187.4970  178.1670  141.1500 C   0  0  0  0  0  0  0  0  0  0  0  0
  188.3510  177.7990  143.4150 C   0  0  0  0  0  0  0  0  0  0  0  0
  190.3190  176.9580  147.7290 C   0  0  0  0  0  2  0  0  0  0  0  0
  192.6320  176.7460  137.4840 C   0  0  0  0  0  2  0  0  0  0  0  0
  190.1180  177.2600  138.6670 C   0  0  0  0  0  0  0  0  0  0  0  0
  191.5590  176.5450  146.4300 S   0  0  0  0  0  0  0  0  0  0  0  0
  192.4570  176.3600  138.9560 C   0  0  0  0  0  2  0  0  0  0  0  0
  186.0770  178.6420  143.0690 C   0  0  0  0  0  3  0  0  0  0  0  0
  187.3110  178.2010  142.5540 C   0  0  0  0  0  0  0  0  0  0  0  0
  188.1590  177.8320  144.8100 C   0  0  0  0  0  3  0  0  0  0  0  0
  190.9890  176.9040  140.8950 C   0  0  0  0  0  3  0  0  0  0  0  0
  191.8410  176.5250  143.3680 F   0  0  0  0  0  0  0  0  0  0  0  0
  187.9290  177.8320  147.8270 C   0  0  0  0  0  1  0  0  0  0  0  0
  189.6010  177.3560  142.8830 C   0  0  0  0  0  0  0  0  0  0  0  0
  189.1850  177.4340  145.6600 C   0  0  0  0  0  0  0  0  0  0  0  0
  191.0600  175.0810  136.7180 C   0  0  0  0  0  2  0  0  0  0  0  0
  192.0460  174.2790  135.8900 C   0  0  0  0  0  2  0  0  0  0  0  0
  192.5310  173.0890  136.6910 C   0  0  0  0  0  3  0  0  0  0  0  0
  193.9660  173.3300  137.1120 C   0  0  0  0  0  2  0  0  0  0  0  0
  193.6640  172.4140  135.9440 C   0  0  0  0  0  2  0  0  0  0  0  0
  1 28  1  0  0  0  0
  1 10  1  0  0  0  0
  1 16  1  0  0  0  0
  2 26  1  0  0  0  0
  3  4  1  0  0  0  0
  4 20  2  0  0  0  0
  5  6  1  0  0  0  0
  6 27  2  0  0  0  0
  6 18  1  0  0  0  0
  7 23  2  0  0  0  0
  8 12  1  0  0  0  0
  9 15  1  0  0  0  0
  9 25  1  0  0  0  0
 10 17  1  0  0  0  0
 11  3  2  0  0  0  0
 11 13  1  0  0  0  0
 12 13  1  0  0  0  0
 12  2  2  0  0  0  0
 13 21  2  0  0  0  0
 14 22  2  0  0  0  0
 16 19  1  0  0  0  0
 17  8  2  0  0  0  0
 17  7  1  0  0  0  0
 18 15  1  0  0  0  0
 19  7  1  0  0  0  0
 21 20  1  0  0  0  0
 21 14  1  0  0  0  0
 22 27  1  0  0  0  0
 23  2  1  0  0  0  0
 24  5  1  0  0  0  0
 26 14  1  0  0  0  0
 26  5  2  0  0  0  0
 27  9  1  0  0  0  0
 29 30  1  0  0  0  0
 29 28  1  0  0  0  0
 30 31  1  0  0  0  0
 32 30  1  0  0  0  0
 32 31  1  0  0  0  0
M  END
>  <MODEL>
8

>  <REMARK>
 VINA RESULT:      -8.7      4.047      8.415
  Name = 
  3 active torsions:
  status: ('A' for Active; 'I' for Inactive)
    1  A    between atoms: C_1  and  C_10
    2  A    between atoms: N_2  and  C_24
    3  A    between atoms: C_10  and  C_24
                            x       y       z     vdW  Elec       q    Type
                         _______ _______ _______ _____ _____    ______ ____

>  <TORSDO>
F 3

$$$$
=
 OpenBabel10262421363D

 32 38  0  0  0  0  0  0  0  0999 V2000
  191.5800  177.3560  143.8750 N   0  0  0  0  0  0  0  0  0  0  0  0
  187.3750  178.2390  141.0760 C   0  0  0  0  0  0  0  0  0  0  0  0
  188.9850  177.9060  136.4710 C   0  0  0  0  0  3  0  0  0  0  0  0
  187.6860  178.0870  136.0000 C   0  0  0  0  0  3  0  0  0  0  0  0
  184.9420  178.5980  141.4910 C   0  0  0  0  0  0  0  0  0  0  0  0
  183.6600  178.7690  140.9650 C   0  0  0  0  0  0  0  0  0  0  0  0
  188.9770  178.0600  142.9150 C   0  0  0  0  0  0  0  0  0  0  0  0
  189.7490  177.8800  140.6340 C   0  0  0  0  0  3  0  0  0  0  0  0
  182.0850  178.9580  139.2480 N   0  0  0  0  0  0  0  0  0  0  0  0
  191.4480  177.7310  142.4610 C   0  0  0  0  0  2  0  0  0  0  0  0
  189.2330  177.8980  137.8430 C   0  0  0  0  0  3  0  0  0  0  0  0
  188.4390  178.0610  140.1530 C   0  0  0  0  0  0  0  0  0  0  0  0
  188.1860  178.0690  138.7680 C   0  0  0  0  0  0  0  0  0  0  0  0
  185.8030  178.4250  139.1990 C   0  0  0  0  0  0  0  0  0  0  0  0
  181.1840  179.1070  140.3810 C   0  0  0  0  0  2  0  0  0  0  0  0
  190.7050  178.1770  144.7250 C   0  0  0  0  0  2  0  0  0  0  0  0
  190.0200  177.8620  142.0010 C   0  0  0  0  0  0  0  0  0  0  0  0
  182.1760  179.0030  141.9310 S   0  0  0  0  0  0  0  0  0  0  0  0
  189.2210  177.9920  144.3900 C   0  0  0  0  0  2  0  0  0  0  0  0
  186.6360  178.2590  136.9020 C   0  0  0  0  0  3  0  0  0  0  0  0
  186.8660  178.2520  138.2910 C   0  0  0  0  0  0  0  0  0  0  0  0
  184.4910  178.6030  138.7190 C   0  0  0  0  0  3  0  0  0  0  0  0
  187.6730  178.2290  142.4510 C   0  0  0  0  0  3  0  0  0  0  0  0
  185.0860  178.6070  142.8410 F   0  0  0  0  0  0  0  0  0  0  0  0
  181.6120  178.9950  137.8740 C   0  0  0  0  0  1  0  0  0  0  0  0
  186.0470  178.4200  140.6070 C   0  0  0  0  0  0  0  0  0  0  0  0
  183.4410  178.7720  139.6150 C   0  0  0  0  0  0  0  0  0  0  0  0
  191.2790  175.9350  144.0350 C   0  0  0  0  0  2  0  0  0  0  0  0
  192.0560  175.3730  145.2110 C   0  0  0  0  0  2  0  0  0  0  0  0
  191.9850  176.3390  146.3740 C   0  0  0  0  0  3  0  0  0  0  0  0
  192.4310  175.6280  147.6350 C   0  0  0  0  0  2  0  0  0  0  0  0
  190.9560  175.8460  147.3710 C   0  0  0  0  0  2  0  0  0  0  0  0
  1 28  1  0  0  0  0
  1 16  1  0  0  0  0
  2 23  1  0  0  0  0
  3 11  1  0  0  0  0
  4  3  2  0  0  0  0
  4 20  1  0  0  0  0
  5 24  1  0  0  0  0
  6  5  1  0  0  0  0
  6 18  1  0  0  0  0
  7 19  1  0  0  0  0
  8 17  2  0  0  0  0
  9 27  1  0  0  0  0
  9 15  1  0  0  0  0
 10  1  1  0  0  0  0
 11 13  2  0  0  0  0
 12  8  1  0  0  0  0
 12  2  2  0  0  0  0
 13 12  1  0  0  0  0
 14 26  1  0  0  0  0
 15 18  1  0  0  0  0
 17 10  1  0  0  0  0
 17  7  1  0  0  0  0
 19 16  1  0  0  0  0
 20 21  2  0  0  0  0
 21 13  1  0  0  0  0
 21 14  1  0  0  0  0
 22 14  2  0  0  0  0
 22 27  1  0  0  0  0
 23  7  2  0  0  0  0
 25  9  1  0  0  0  0
 26  2  1  0  0  0  0
 26  5  2  0  0  0  0
 27  6  2  0  0  0  0
 28 29  1  0  0  0  0
 29 30  1  0  0  0  0
 30 32  1  0  0  0  0
 30 31  1  0  0  0  0
 32 31  1  0  0  0  0
M  END
>  <MODEL>
9

>  <REMARK>
 VINA RESULT:      -7.6      2.952      9.010
  Name = 
  3 active torsions:
  status: ('A' for Active; 'I' for Inactive)
    1  A    between atoms: C_1  and  C_10
    2  A    between atoms: N_2  and  C_24
    3  A    between atoms: C_10  and  C_24
                            x       y       z     vdW  Elec       q    Type
                         _______ _______ _______ _____ _____    ______ ____

>  <TORSDO>
F 3

$$$$
