=
 OpenBabel10262419103D

 34 40  0  0  1  0  0  0  0  0999 V2000
  189.0000  177.1660  146.3920 C   0  0  0  0  0  0  0  0  0  0  0  0
  190.8090  176.8850  144.7470 C   0  0  0  0  0  0  0  0  0  0  0  0
  188.5690  177.4780  144.0280 C   0  0  0  0  0  0  0  0  0  0  0  0
  188.3860  177.7720  141.6780 C   0  0  0  0  0  0  0  0  0  0  0  0
  191.2400  176.5690  147.1130 C   0  0  0  0  0  3  0  0  0  0  0  0
  191.6950  176.5830  145.7850 C   0  0  0  0  0  3  0  0  0  0  0  0
  190.3210  177.2150  142.4750 C   0  0  0  0  0  0  0  0  0  0  0  0
  189.4550  177.1740  145.0660 C   0  0  2  0  0  3  0  0  0  0  0  0
  189.2370  177.7070  140.5740 C   0  0  0  0  0  3  0  0  0  0  0  0
  189.8990  176.8610  147.4170 C   0  0  0  0  0  3  0  0  0  0  0  0
  187.2150  177.7810  144.2590 C   0  0  0  0  0  0  0  0  0  0  0  0
  187.6580  177.4690  146.6560 C   0  0  0  0  0  3  0  0  0  0  0  0
  191.2320  176.9120  143.4410 N   0  0  0  0  0  0  0  0  0  0  0  0
  186.9360  178.1510  141.7570 C   0  0  0  0  0  3  0  0  0  0  0  0
  186.3950  178.0840  143.1990 C   0  0  0  0  0  0  0  0  0  0  0  0
  190.4850  177.3310  141.1080 C   0  0  0  0  0  0  0  0  0  0  0  0
  189.0570  177.4800  142.7820 N   0  0  0  0  0  0  0  0  0  0  0  0
  186.7760  177.7750  145.6020 C   0  0  0  0  0  3  0  0  0  0  0  0
  182.7200  178.7180  142.4440 C   0  0  0  0  0  0  0  0  0  0  0  0
  182.2350  179.0350  143.7150 C   0  0  0  0  0  3  0  0  0  0  0  0
  184.9490  178.3850  143.3660 C   0  0  0  0  0  0  0  0  0  0  0  0
  183.1010  179.0370  144.8120 C   0  0  0  0  0  3  0  0  0  0  0  0
  184.0700  178.4010  142.2700 C   0  0  0  0  0  3  0  0  0  0  0  0
  184.4510  178.7180  144.6370 C   0  0  0  0  0  3  0  0  0  0  0  0
  181.8620  178.7220  141.3540 O   0  0  0  0  0  1  0  0  0  0  0  0
  191.7560  177.1770  140.3490 C   0  0  0  0  0  2  0  0  0  0  0  0
  191.4930  177.3400  138.8630 C   0  0  0  0  0  2  0  0  0  0  0  0
  189.5290  175.4810  137.9330 F   0  0  0  0  0  0  0  0  0  0  0  0
  191.8420  176.0840  138.1400 C   0  0  0  0  0  0  0  0  0  0  0  0
  190.8370  175.2000  137.7110 C   0  0  0  0  0  0  0  0  0  0  0  0
  192.5290  173.7130  136.8180 C   0  0  0  0  0  3  0  0  0  0  0  0
  193.5290  174.5900  137.2480 C   0  0  0  0  0  3  0  0  0  0  0  0
  193.1860  175.7720  137.9100 C   0  0  0  0  0  3  0  0  0  0  0  0
  191.1850  174.0180  137.0500 C   0  0  0  0  0  3  0  0  0  0  0  0
  1 12  1  0  0  0  0
  1 10  2  0  0  0  0
  2  8  1  0  0  0  0
  2  6  1  0  0  0  0
  3 11  2  0  0  0  0
  4 14  1  0  0  0  0
  4 17  1  0  0  0  0
  5 10  1  0  0  0  0
  6  5  2  0  0  0  0
  7 17  1  0  0  0  0
  7 13  1  0  0  0  0
  8  3  1  1  0  0  0
  8  1  1  0  0  0  0
  9 16  1  0  0  0  0
  9  4  2  0  0  0  0
 11 18  1  0  0  0  0
 13  2  2  0  0  0  0
 14 15  2  0  0  0  0
 15 21  1  0  0  0  0
 15 11  1  0  0  0  0
 16  7  2  0  0  0  0
 17  3  1  0  0  0  0
 18 12  2  0  0  0  0
 19 20  1  0  0  0  0
 20 22  2  0  0  0  0
 21 24  2  0  0  0  0
 23 19  2  0  0  0  0
 23 21  1  0  0  0  0
 24 22  1  0  0  0  0
 25 19  1  0  0  0  0
 26 16  1  0  0  0  0
 27 26  1  0  0  0  0
 29 27  1  0  0  0  0
 30 28  1  0  0  0  0
 30 29  2  0  0  0  0
 31 34  2  0  0  0  0
 31 32  1  0  0  0  0
 32 33  2  0  0  0  0
 33 29  1  0  0  0  0
 34 30  1  0  0  0  0
M  END
>  <MODEL>
1

>  <REMARK>
 VINA RESULT:     -11.9      0.000      0.000
  Name = 
  4 active torsions:
  status: ('A' for Active; 'I' for Inactive)
    1  A    between atoms: C_3  and  C_13
    2  A    between atoms: C_3  and  C_17
    3  A    between atoms: C_12  and  C_28
    4  A    between atoms: C_17  and  C_29
                            x       y       z     vdW  Elec       q    Type
                         _______ _______ _______ _____ _____    ______ ____

>  <TORSDO>
F 4

$$$$
=
 OpenBabel10262419103D

 34 40  0  0  1  0  0  0  0  0999 V2000
  186.8880  178.2420  147.2710 C   0  0  0  0  0  0  0  0  0  0  0  0
  189.0170  177.5750  146.2330 C   0  0  0  0  0  0  0  0  0  0  0  0
  187.0330  177.9070  144.8760 C   0  0  0  0  0  0  0  0  0  0  0  0
  187.4150  177.5640  142.5570 C   0  0  0  0  0  0  0  0  0  0  0  0
  188.8700  177.9070  148.6310 C   0  0  0  0  0  3  0  0  0  0  0  0
  189.6230  177.5770  147.4920 C   0  0  0  0  0  3  0  0  0  0  0  0
  189.0870  177.2800  143.9050 C   0  0  0  0  0  0  0  0  0  0  0  0
  187.6390  177.9090  146.1360 C   0  0  2  0  0  3  0  0  0  0  0  0
  188.4980  177.2270  141.7420 C   0  0  0  0  0  3  0  0  0  0  0  0
  187.5100  178.2390  148.5230 C   0  0  0  0  0  3  0  0  0  0  0  0
  185.6770  178.2310  144.6930 C   0  0  0  0  0  0  0  0  0  0  0  0
  185.5350  178.5750  147.1220 C   0  0  0  0  0  3  0  0  0  0  0  0
  189.7340  177.2640  145.1040 N   0  0  0  0  0  0  0  0  0  0  0  0
  186.0050  177.9190  142.1890 C   0  0  0  0  0  3  0  0  0  0  0  0
  185.1400  178.2250  143.4280 C   0  0  0  0  0  0  0  0  0  0  0  0
  189.5690  177.0330  142.6350 C   0  0  0  0  0  0  0  0  0  0  0  0
  187.7980  177.5890  143.8250 N   0  0  0  0  0  0  0  0  0  0  0  0
  184.9380  178.5720  145.8470 C   0  0  0  0  0  3  0  0  0  0  0  0
  181.8630  178.9300  141.6290 C   0  0  0  0  0  0  0  0  0  0  0  0
  181.0120  179.1790  142.7080 C   0  0  0  0  0  3  0  0  0  0  0  0
  183.7090  178.5280  143.1650 C   0  0  0  0  0  0  0  0  0  0  0  0
  181.5040  179.1140  144.0140 C   0  0  0  0  0  3  0  0  0  0  0  0
  183.2050  178.6120  141.8560 C   0  0  0  0  0  3  0  0  0  0  0  0
  182.8460  178.7940  144.2410 C   0  0  0  0  0  3  0  0  0  0  0  0
  181.3770  179.0010  140.3310 O   0  0  0  0  0  1  0  0  0  0  0  0
  190.9750  176.7110  142.2650 C   0  0  0  0  0  2  0  0  0  0  0  0
  191.5330  177.7970  141.3630 C   0  0  0  0  0  2  0  0  0  0  0  0
  194.0890  177.0130  140.3490 F   0  0  0  0  0  0  0  0  0  0  0  0
  191.7320  177.2650  139.9840 C   0  0  0  0  0  0  0  0  0  0  0  0
  193.0120  176.9020  139.5330 C   0  0  0  0  0  0  0  0  0  0  0  0
  192.0810  176.3060  137.3760 C   0  0  0  0  0  3  0  0  0  0  0  0
  190.8080  176.6720  137.8230 C   0  0  0  0  0  3  0  0  0  0  0  0
  190.6340  177.1520  139.1240 C   0  0  0  0  0  3  0  0  0  0  0  0
  193.1810  176.4220  138.2310 C   0  0  0  0  0  3  0  0  0  0  0  0
  1 10  2  0  0  0  0
  2  6  1  0  0  0  0
  4 17  1  0  0  0  0
  6  5  2  0  0  0  0
  7 13  1  0  0  0  0
  8  3  1  6  0  0  0
  8  2  1  0  0  0  0
  8  1  1  0  0  0  0
  9  4  2  0  0  0  0
  9 16  1  0  0  0  0
 10  5  1  0  0  0  0
 11  3  2  0  0  0  0
 11 18  1  0  0  0  0
 12  1  1  0  0  0  0
 13  2  2  0  0  0  0
 14  4  1  0  0  0  0
 14 15  2  0  0  0  0
 15 11  1  0  0  0  0
 16  7  2  0  0  0  0
 17  7  1  0  0  0  0
 17  3  1  0  0  0  0
 18 12  2  0  0  0  0
 19 23  2  0  0  0  0
 19 20  1  0  0  0  0
 20 22  2  0  0  0  0
 21 15  1  0  0  0  0
 21 24  2  0  0  0  0
 22 24  1  0  0  0  0
 23 21  1  0  0  0  0
 25 19  1  0  0  0  0
 26 16  1  0  0  0  0
 27 26  1  0  0  0  0
 29 27  1  0  0  0  0
 30 29  1  0  0  0  0
 30 28  1  0  0  0  0
 31 32  2  0  0  0  0
 31 34  1  0  0  0  0
 32 33  1  0  0  0  0
 33 29  2  0  0  0  0
 34 30  2  0  0  0  0
M  END
>  <MODEL>
2

>  <REMARK>
 VINA RESULT:     -11.4      1.640      2.372
  Name = 
  4 active torsions:
  status: ('A' for Active; 'I' for Inactive)
    1  A    between atoms: C_3  and  C_13
    2  A    between atoms: C_3  and  C_17
    3  A    between atoms: C_12  and  C_28
    4  A    between atoms: C_17  and  C_29
                            x       y       z     vdW  Elec       q    Type
                         _______ _______ _______ _____ _____    ______ ____

>  <TORSDO>
F 4

$$$$
=
 OpenBabel10262419103D

 34 40  0  0  1  0  0  0  0  0999 V2000
  190.4200  177.0930  145.8250 C   0  0  0  0  0  0  0  0  0  0  0  0
  188.0970  177.6920  146.3740 C   0  0  0  0  0  0  0  0  0  0  0  0
  188.8070  177.4940  144.0620 C   0  0  0  0  0  0  0  0  0  0  0  0
  187.0570  177.8890  142.5070 C   0  0  0  0  0  0  0  0  0  0  0  0
  189.7120  177.2940  148.1390 C   0  0  0  0  0  3  0  0  0  0  0  0
  188.4080  177.6230  147.7340 C   0  0  0  0  0  3  0  0  0  0  0  0
  186.5860  178.0540  144.6140 C   0  0  0  0  0  0  0  0  0  0  0  0
  189.1190  177.4260  145.4240 C   0  0  2  0  0  3  0  0  0  0  0  0
  185.6960  178.2010  142.5610 C   0  0  0  0  0  3  0  0  0  0  0  0
  190.7140  177.0290  147.1910 C   0  0  0  0  0  3  0  0  0  0  0  0
  189.7590  177.2390  143.0590 C   0  0  0  0  0  0  0  0  0  0  0  0
  191.3900  176.8280  144.8500 C   0  0  0  0  0  3  0  0  0  0  0  0
  186.8270  178.0040  145.9540 N   0  0  0  0  0  0  0  0  0  0  0  0
  187.9360  177.6120  141.3230 C   0  0  0  0  0  3  0  0  0  0  0  0
  189.3890  177.3090  141.7370 C   0  0  0  0  0  0  0  0  0  0  0  0
  185.4130  178.3170  143.9350 C   0  0  0  0  0  0  0  0  0  0  0  0
  187.5480  177.8080  143.7340 N   0  0  0  0  0  0  0  0  0  0  0  0
  191.0620  176.8970  143.4830 C   0  0  0  0  0  3  0  0  0  0  0  0
  192.5950  177.1940  139.6900 C   0  0  0  0  0  0  0  0  0  0  0  0
  192.1180  176.7070  138.4720 C   0  0  0  0  0  3  0  0  0  0  0  0
  190.3490  177.0800  140.6250 C   0  0  0  0  0  0  0  0  0  0  0  0
  190.7610  176.4130  138.3200 C   0  0  0  0  0  3  0  0  0  0  0  0
  191.7140  177.3860  140.7590 C   0  0  0  0  0  3  0  0  0  0  0  0
  189.8810  176.6030  139.3900 C   0  0  0  0  0  3  0  0  0  0  0  0
  193.9420  177.4930  139.8400 O   0  0  0  0  0  1  0  0  0  0  0  0
  184.0770  178.5850  144.5370 C   0  0  0  0  0  2  0  0  0  0  0  0
  183.3350  179.6180  143.7090 C   0  0  0  0  0  2  0  0  0  0  0  0
  183.0080  179.1030  140.9150 F   0  0  0  0  0  0  0  0  0  0  0  0
  182.0970  179.0180  143.1320 C   0  0  0  0  0  0  0  0  0  0  0  0
  181.9850  178.7940  141.7500 C   0  0  0  0  0  0  0  0  0  0  0  0
  179.7450  177.9280  142.0740 C   0  0  0  0  0  3  0  0  0  0  0  0
  179.8540  178.1560  143.4490 C   0  0  0  0  0  3  0  0  0  0  0  0
  181.0270  178.7020  143.9770 C   0  0  0  0  0  3  0  0  0  0  0  0
  180.8100  178.2470  141.2270 C   0  0  0  0  0  3  0  0  0  0  0  0
  1 10  2  0  0  0  0
  2  6  1  0  0  0  0
  4  9  2  0  0  0  0
  4 17  1  0  0  0  0
  6  5  2  0  0  0  0
  7 13  1  0  0  0  0
  8  3  1  1  0  0  0
  8  1  1  0  0  0  0
  8  2  1  0  0  0  0
  9 16  1  0  0  0  0
 10  5  1  0  0  0  0
 11 18  1  0  0  0  0
 11  3  2  0  0  0  0
 12  1  1  0  0  0  0
 13  2  2  0  0  0  0
 14 15  2  0  0  0  0
 14  4  1  0  0  0  0
 15 11  1  0  0  0  0
 16 26  1  0  0  0  0
 16  7  2  0  0  0  0
 17  3  1  0  0  0  0
 17  7  1  0  0  0  0
 18 12  2  0  0  0  0
 19 25  1  0  0  0  0
 19 23  1  0  0  0  0
 20 19  2  0  0  0  0
 21 23  2  0  0  0  0
 21 15  1  0  0  0  0
 22 20  1  0  0  0  0
 22 24  2  0  0  0  0
 24 21  1  0  0  0  0
 27 26  1  0  0  0  0
 28 30  1  0  0  0  0
 29 27  1  0  0  0  0
 29 33  1  0  0  0  0
 30 29  2  0  0  0  0
 31 32  1  0  0  0  0
 32 33  2  0  0  0  0
 34 30  1  0  0  0  0
 34 31  2  0  0  0  0
M  END
>  <MODEL>
3

>  <REMARK>
 VINA RESULT:     -11.4      2.879      7.886
  Name = 
  4 active torsions:
  status: ('A' for Active; 'I' for Inactive)
    1  A    between atoms: C_3  and  C_13
    2  A    between atoms: C_3  and  C_17
    3  A    between atoms: C_12  and  C_28
    4  A    between atoms: C_17  and  C_29
                            x       y       z     vdW  Elec       q    Type
                         _______ _______ _______ _____ _____    ______ ____

>  <TORSDO>
F 4

$$$$
=
 OpenBabel10262419103D

 34 40  0  0  0  0  0  0  0  0999 V2000
  186.0010  178.0390  143.7080 C   0  0  0  0  0  0  0  0  0  0  0  0
  186.0800  178.6160  141.3170 C   0  0  0  0  0  0  0  0  0  0  0  0
  188.0470  177.7480  142.4420 C   0  0  0  0  0  0  0  0  0  0  0  0
  189.9210  177.5080  141.0030 C   0  0  0  0  0  0  0  0  0  0  0  0
  184.0330  178.9110  142.5850 C   0  0  0  0  0  3  0  0  0  0  0  0
  184.7390  179.0030  141.3740 C   0  0  0  0  0  3  0  0  0  0  0  0
  188.0930  178.2970  140.1510 C   0  0  0  0  0  0  0  0  0  0  0  0
  186.7040  178.1360  142.4990 C   0  0  0  0  0  0  0  0  0  0  0  0
  190.2030  177.7250  139.6530 C   0  0  0  0  0  3  0  0  0  0  0  0
  184.6590  178.4300  143.7470 C   0  0  0  0  0  3  0  0  0  0  0  0
  188.7360  177.2560  143.5650 C   0  0  0  0  0  0  0  0  0  0  0  0
  186.6570  177.5470  144.8440 C   0  0  0  0  0  3  0  0  0  0  0  0
  186.7880  178.6900  140.1420 N   0  0  0  0  0  0  0  0  0  0  0  0
  190.7830  176.9330  142.0890 C   0  0  0  0  0  2  0  0  0  0  0  0
  190.0520  176.8790  143.4440 C   0  0  0  0  0  0  0  0  0  0  0  0
  189.0100  178.2500  139.1200 C   0  0  0  0  0  0  0  0  0  0  0  0
  188.6680  177.8530  141.2620 N   0  0  0  0  0  0  0  0  0  0  0  0
  188.0090  177.1580  144.7720 C   0  0  0  0  0  3  0  0  0  0  0  0
  191.6530  176.5900  146.8840 C   0  0  0  0  0  0  0  0  0  0  0  0
  192.4320  175.4420  146.7220 C   0  0  0  0  0  3  0  0  0  0  0  0
  190.8490  176.3790  144.5950 C   0  0  0  0  0  0  0  0  0  0  0  0
  192.4310  174.7640  145.5000 C   0  0  0  0  0  3  0  0  0  0  0  0
  190.8710  177.0590  145.8240 C   0  0  0  0  0  3  0  0  0  0  0  0
  191.6470  175.2330  144.4410 C   0  0  0  0  0  3  0  0  0  0  0  0
  191.6580  177.2670  148.0950 O   0  0  0  0  0  1  0  0  0  0  0  0
  188.7640  178.6000  137.6940 C   0  0  0  0  0  2  0  0  0  0  0  0
  188.8070  177.3460  136.8400 C   0  0  0  0  0  2  0  0  0  0  0  0
  188.5500  174.5160  137.1630 F   0  0  0  0  0  0  0  0  0  0  0  0
  187.4890  176.6490  136.8850 C   0  0  0  0  0  0  0  0  0  0  0  0
  187.4200  175.2550  137.0370 C   0  0  0  0  0  0  0  0  0  0  0  0
  185.0010  175.3650  136.9270 C   0  0  0  0  0  3  0  0  0  0  0  0
  185.0700  176.7530  136.7700 C   0  0  0  0  0  3  0  0  0  0  0  0
  186.3120  177.3930  136.7470 C   0  0  0  0  0  3  0  0  0  0  0  0
  186.1750  174.6180  137.0590 C   0  0  0  0  0  3  0  0  0  0  0  0
  1 10  2  0  0  0  0
  1 12  1  0  0  0  0
  2  6  1  0  0  0  0
  2  8  1  0  0  0  0
  3  8  2  0  0  0  0
  3 11  1  0  0  0  0
  4 17  1  0  0  0  0
  4 14  1  0  0  0  0
  5 10  1  0  0  0  0
  6  5  2  0  0  0  0
  7 17  1  0  0  0  0
  8  1  1  0  0  0  0
  9  4  2  0  0  0  0
 11 18  1  0  0  0  0
 13  7  1  0  0  0  0
 13  2  2  0  0  0  0
 14 15  1  0  0  0  0
 15 11  2  0  0  0  0
 15 21  1  0  0  0  0
 16  9  1  0  0  0  0
 16  7  2  0  0  0  0
 17  3  1  0  0  0  0
 18 12  2  0  0  0  0
 19 25  1  0  0  0  0
 20 19  1  0  0  0  0
 21 23  1  0  0  0  0
 22 20  2  0  0  0  0
 23 19  2  0  0  0  0
 24 21  2  0  0  0  0
 24 22  1  0  0  0  0
 26 16  1  0  0  0  0
 27 29  1  0  0  0  0
 27 26  1  0  0  0  0
 29 30  1  0  0  0  0
 30 34  2  0  0  0  0
 30 28  1  0  0  0  0
 31 34  1  0  0  0  0
 32 31  2  0  0  0  0
 33 32  1  0  0  0  0
 33 29  2  0  0  0  0
M  END
>  <MODEL>
4

>  <REMARK>
 VINA RESULT:     -11.2      3.183      6.158
  Name = 
  4 active torsions:
  status: ('A' for Active; 'I' for Inactive)
    1  A    between atoms: C_3  and  C_13
    2  A    between atoms: C_3  and  C_17
    3  A    between atoms: C_12  and  C_28
    4  A    between atoms: C_17  and  C_29
                            x       y       z     vdW  Elec       q    Type
                         _______ _______ _______ _____ _____    ______ ____

>  <TORSDO>
F 4

$$$$
=
 OpenBabel10262419103D

 34 40  0  0  0  0  0  0  0  0999 V2000
  185.0440  178.3690  143.3870 C   0  0  0  0  0  0  0  0  0  0  0  0
  185.4490  178.6270  140.9740 C   0  0  0  0  0  0  0  0  0  0  0  0
  187.2730  178.0880  142.4810 C   0  0  0  0  0  0  0  0  0  0  0  0
  189.3570  177.8210  141.3730 C   0  0  0  0  0  0  0  0  0  0  0  0
  183.2180  178.9110  141.8810 C   0  0  0  0  0  3  0  0  0  0  0  0
  184.0930  178.9010  140.7830 C   0  0  0  0  0  3  0  0  0  0  0  0
  187.6330  178.3290  140.1640 C   0  0  0  0  0  0  0  0  0  0  0  0
  185.9150  178.3640  142.2900 C   0  0  0  0  0  0  0  0  0  0  0  0
  189.8270  177.8790  140.0590 C   0  0  0  0  0  3  0  0  0  0  0  0
  183.6890  178.6450  143.1780 C   0  0  0  0  0  3  0  0  0  0  0  0
  187.8130  177.8120  143.7500 C   0  0  0  0  0  0  0  0  0  0  0  0
  185.5490  178.0910  144.6640 C   0  0  0  0  0  3  0  0  0  0  0  0
  186.3220  178.6040  139.9140 N   0  0  0  0  0  0  0  0  0  0  0  0
  190.0780  177.4720  142.6410 C   0  0  0  0  0  2  0  0  0  0  0  0
  189.1540  177.5360  143.8730 C   0  0  0  0  0  0  0  0  0  0  0  0
  188.6980  178.2240  139.2920 C   0  0  0  0  0  0  0  0  0  0  0  0
  188.0600  178.0880  141.3980 N   0  0  0  0  0  0  0  0  0  0  0  0
  186.9180  177.8140  144.8420 C   0  0  0  0  0  3  0  0  0  0  0  0
  189.8540  177.4560  147.6120 C   0  0  0  0  0  0  0  0  0  0  0  0
  191.0850  176.7970  147.6410 C   0  0  0  0  0  3  0  0  0  0  0  0
  189.7970  177.2640  145.1850 C   0  0  0  0  0  0  0  0  0  0  0  0
  191.6800  176.3780  146.4490 C   0  0  0  0  0  3  0  0  0  0  0  0
  189.2160  177.6940  146.3900 C   0  0  0  0  0  3  0  0  0  0  0  0
  191.0410  176.6140  145.2270 C   0  0  0  0  0  3  0  0  0  0  0  0
  189.2650  177.8790  148.7950 O   0  0  0  0  0  1  0  0  0  0  0  0
  188.6500  178.3580  137.8100 C   0  0  0  0  0  2  0  0  0  0  0  0
  189.8050  177.5970  137.1850 C   0  0  0  0  0  2  0  0  0  0  0  0
  191.3030  175.3810  138.1980 F   0  0  0  0  0  0  0  0  0  0  0  0
  189.4150  176.1770  136.9500 C   0  0  0  0  0  0  0  0  0  0  0  0
  190.1910  175.1250  137.4640 C   0  0  0  0  0  0  0  0  0  0  0  0
  188.6790  173.5200  136.4600 C   0  0  0  0  0  3  0  0  0  0  0  0
  187.9090  174.5660  135.9440 C   0  0  0  0  0  3  0  0  0  0  0  0
  188.2770  175.8920  136.1870 C   0  0  0  0  0  3  0  0  0  0  0  0
  189.8190  173.8000  137.2180 C   0  0  0  0  0  3  0  0  0  0  0  0
  1 12  1  0  0  0  0
  2  8  1  0  0  0  0
  3 11  1  0  0  0  0
  4 17  1  0  0  0  0
  4 14  1  0  0  0  0
  5 10  1  0  0  0  0
  6  2  1  0  0  0  0
  6  5  2  0  0  0  0
  7 17  1  0  0  0  0
  8  3  2  0  0  0  0
  8  1  1  0  0  0  0
  9  4  2  0  0  0  0
 10  1  2  0  0  0  0
 11 15  2  0  0  0  0
 11 18  1  0  0  0  0
 12 18  2  0  0  0  0
 13  7  1  0  0  0  0
 13  2  2  0  0  0  0
 14 15  1  0  0  0  0
 15 21  1  0  0  0  0
 16  9  1  0  0  0  0
 16  7  2  0  0  0  0
 17  3  1  0  0  0  0
 19 20  1  0  0  0  0
 19 25  1  0  0  0  0
 21 24  2  0  0  0  0
 21 23  1  0  0  0  0
 22 20  2  0  0  0  0
 23 19  2  0  0  0  0
 24 22  1  0  0  0  0
 26 16  1  0  0  0  0
 27 26  1  0  0  0  0
 29 27  1  0  0  0  0
 29 30  1  0  0  0  0
 30 28  1  0  0  0  0
 31 34  1  0  0  0  0
 32 33  1  0  0  0  0
 32 31  2  0  0  0  0
 33 29  2  0  0  0  0
 34 30  2  0  0  0  0
M  END
>  <MODEL>
5

>  <REMARK>
 VINA RESULT:     -11.1      2.447      5.537
  Name = 
  4 active torsions:
  status: ('A' for Active; 'I' for Inactive)
    1  A    between atoms: C_3  and  C_13
    2  A    between atoms: C_3  and  C_17
    3  A    between atoms: C_12  and  C_28
    4  A    between atoms: C_17  and  C_29
                            x       y       z     vdW  Elec       q    Type
                         _______ _______ _______ _____ _____    ______ ____

>  <TORSDO>
F 4

$$$$
=
 OpenBabel10262419103D

 34 40  0  0  0  0  0  0  0  0999 V2000
  185.1560  178.3450  142.8950 C   0  0  0  0  0  0  0  0  0  0  0  0
  185.6720  178.6340  140.5070 C   0  0  0  0  0  0  0  0  0  0  0  0
  187.4230  178.0660  142.0880 C   0  0  0  0  0  0  0  0  0  0  0  0
  189.5540  177.8040  141.0730 C   0  0  0  0  0  0  0  0  0  0  0  0
  183.4030  178.9170  141.3150 C   0  0  0  0  0  3  0  0  0  0  0  0
  184.3270  178.9180  140.2580 C   0  0  0  0  0  3  0  0  0  0  0  0
  187.8900  178.3370  139.7940 C   0  0  0  0  0  0  0  0  0  0  0  0
  186.0770  178.3510  141.8390 C   0  0  0  0  0  0  0  0  0  0  0  0
  190.0850  177.8780  139.7830 C   0  0  0  0  0  3  0  0  0  0  0  0
  183.8130  178.6310  142.6280 C   0  0  0  0  0  3  0  0  0  0  0  0
  187.9030  177.7700  143.3760 C   0  0  0  0  0  0  0  0  0  0  0  0
  185.6010  178.0480  144.1900 C   0  0  0  0  0  3  0  0  0  0  0  0
  186.5930  178.6210  139.4870 N   0  0  0  0  0  0  0  0  0  0  0  0
  190.2150  177.4340  142.3680 C   0  0  0  0  0  2  0  0  0  0  0  0
  189.2360  177.4860  143.5570 C   0  0  0  0  0  0  0  0  0  0  0  0
  188.9930  178.2380  138.9700 C   0  0  0  0  0  0  0  0  0  0  0  0
  188.2580  178.0780  141.0420 N   0  0  0  0  0  0  0  0  0  0  0  0
  186.9590  177.7610  144.4260 C   0  0  0  0  0  3  0  0  0  0  0  0
  189.7140  177.2650  147.3250 C   0  0  0  0  0  0  0  0  0  0  0  0
  190.9850  176.6930  147.4010 C   0  0  0  0  0  3  0  0  0  0  0  0
  189.8170  177.1930  144.8930 C   0  0  0  0  0  0  0  0  0  0  0  0
  191.6800  176.3770  146.2310 C   0  0  0  0  0  3  0  0  0  0  0  0
  189.1350  177.5190  146.0780 C   0  0  0  0  0  3  0  0  0  0  0  0
  191.1010  176.6310  144.9840 C   0  0  0  0  0  3  0  0  0  0  0  0
  189.0250  177.5840  148.4870 O   0  0  0  0  0  1  0  0  0  0  0  0
  189.0140  178.3940  137.4890 C   0  0  0  0  0  2  0  0  0  0  0  0
  189.0280  177.0280  136.8280 C   0  0  0  0  0  2  0  0  0  0  0  0
  187.1810  178.4260  135.1510 F   0  0  0  0  0  0  0  0  0  0  0  0
  187.6320  176.5600  136.5890 C   0  0  0  0  0  0  0  0  0  0  0  0
  186.7620  177.2900  135.7620 C   0  0  0  0  0  0  0  0  0  0  0  0
  185.0050  175.6770  136.1900 C   0  0  0  0  0  3  0  0  0  0  0  0
  185.8680  174.9530  137.0170 C   0  0  0  0  0  3  0  0  0  0  0  0
  187.1790  175.3950  137.2180 C   0  0  0  0  0  3  0  0  0  0  0  0
  185.4520  176.8440  135.5640 C   0  0  0  0  0  3  0  0  0  0  0  0
  1 12  1  0  0  0  0
  2  8  1  0  0  0  0
  3 11  1  0  0  0  0
  4 14  1  0  0  0  0
  5 10  1  0  0  0  0
  6  2  1  0  0  0  0
  6  5  2  0  0  0  0
  7 17  1  0  0  0  0
  8  3  2  0  0  0  0
  8  1  1  0  0  0  0
  9  4  2  0  0  0  0
 10  1  2  0  0  0  0
 11 15  2  0  0  0  0
 11 18  1  0  0  0  0
 12 18  2  0  0  0  0
 13  7  1  0  0  0  0
 13  2  2  0  0  0  0
 14 15  1  0  0  0  0
 15 21  1  0  0  0  0
 16  9  1  0  0  0  0
 16  7  2  0  0  0  0
 17  4  1  0  0  0  0
 17  3  1  0  0  0  0
 19 20  1  0  0  0  0
 19 25  1  0  0  0  0
 21 24  2  0  0  0  0
 21 23  1  0  0  0  0
 22 20  2  0  0  0  0
 23 19  2  0  0  0  0
 24 22  1  0  0  0  0
 26 16  1  0  0  0  0
 27 26  1  0  0  0  0
 28 30  1  0  0  0  0
 29 27  1  0  0  0  0
 29 33  1  0  0  0  0
 30 29  2  0  0  0  0
 31 32  1  0  0  0  0
 32 33  2  0  0  0  0
 34 30  1  0  0  0  0
 34 31  2  0  0  0  0
M  END
>  <MODEL>
6

>  <REMARK>
 VINA RESULT:     -11.0      3.148      6.012
  Name = 
  4 active torsions:
  status: ('A' for Active; 'I' for Inactive)
    1  A    between atoms: C_3  and  C_13
    2  A    between atoms: C_3  and  C_17
    3  A    between atoms: C_12  and  C_28
    4  A    between atoms: C_17  and  C_29
                            x       y       z     vdW  Elec       q    Type
                         _______ _______ _______ _____ _____    ______ ____

>  <TORSDO>
F 4

$$$$
=
 OpenBabel10262419103D

 34 40  0  0  1  0  0  0  0  0999 V2000
  189.0610  177.1970  145.9350 C   0  0  0  0  0  0  0  0  0  0  0  0
  190.6960  176.9500  144.1130 C   0  0  0  0  0  0  0  0  0  0  0  0
  188.3940  177.5480  143.6320 C   0  0  0  0  0  0  0  0  0  0  0  0
  187.9750  177.8810  141.3180 C   0  0  0  0  0  0  0  0  0  0  0  0
  191.3630  176.5960  146.4170 C   0  0  0  0  0  3  0  0  0  0  0  0
  191.6820  176.6330  145.0500 C   0  0  0  0  0  3  0  0  0  0  0  0
  189.9810  177.3160  141.9060 C   0  0  0  0  0  0  0  0  0  0  0  0
  189.3800  177.2290  144.5710 C   0  0  2  0  0  3  0  0  0  0  0  0
  188.7110  177.8360  140.1330 C   0  0  0  0  0  3  0  0  0  0  0  0
  190.0600  176.8780  146.8600 C   0  0  0  0  0  3  0  0  0  0  0  0
  187.0700  177.8420  144.0040 C   0  0  0  0  0  0  0  0  0  0  0  0
  187.7520  177.4920  146.3380 C   0  0  0  0  0  3  0  0  0  0  0  0
  190.9850  177.0000  142.7710 N   0  0  0  0  0  0  0  0  0  0  0  0
  186.5400  178.2530  141.5490 C   0  0  0  0  0  3  0  0  0  0  0  0
  186.1470  178.1610  143.0360 C   0  0  0  0  0  0  0  0  0  0  0  0
  190.0060  177.4550  140.5330 C   0  0  0  0  0  0  0  0  0  0  0  0
  188.7540  177.5720  142.3440 N   0  0  0  0  0  0  0  0  0  0  0  0
  186.7690  177.8130  145.3830 C   0  0  0  0  0  3  0  0  0  0  0  0
  182.4270  178.8670  142.6610 C   0  0  0  0  0  0  0  0  0  0  0  0
  182.0600  179.0880  143.9900 C   0  0  0  0  0  3  0  0  0  0  0  0
  184.7240  178.4550  143.3540 C   0  0  0  0  0  0  0  0  0  0  0  0
  183.0180  179.0030  145.0020 C   0  0  0  0  0  3  0  0  0  0  0  0
  183.7530  178.5580  142.3440 C   0  0  0  0  0  3  0  0  0  0  0  0
  184.3450  178.6920  144.6850 C   0  0  0  0  0  3  0  0  0  0  0  0
  181.4770  178.9570  141.6540 O   0  0  0  0  0  1  0  0  0  0  0  0
  191.1950  177.3170  139.6470 C   0  0  0  0  0  2  0  0  0  0  0  0
  191.0680  176.0620  138.8040 C   0  0  0  0  0  2  0  0  0  0  0  0
  189.5140  173.9860  137.5970 F   0  0  0  0  0  0  0  0  0  0  0  0
  190.1350  176.3020  137.6650 C   0  0  0  0  0  0  0  0  0  0  0  0
  189.4010  175.2440  137.1030 C   0  0  0  0  0  0  0  0  0  0  0  0
  188.4220  176.7760  135.5020 C   0  0  0  0  0  3  0  0  0  0  0  0
  189.1560  177.8280  136.0570 C   0  0  0  0  0  3  0  0  0  0  0  0
  190.0130  177.5910  137.1350 C   0  0  0  0  0  3  0  0  0  0  0  0
  188.5450  175.4860  136.0250 C   0  0  0  0  0  3  0  0  0  0  0  0
  1 12  1  0  0  0  0
  1 10  2  0  0  0  0
  2  8  1  0  0  0  0
  2  6  1  0  0  0  0
  3 11  2  0  0  0  0
  4 14  1  0  0  0  0
  4 17  1  0  0  0  0
  5 10  1  0  0  0  0
  6  5  2  0  0  0  0
  7 17  1  0  0  0  0
  7 13  1  0  0  0  0
  8  3  1  1  0  0  0
  8  1  1  0  0  0  0
  9 16  1  0  0  0  0
  9  4  2  0  0  0  0
 11 18  1  0  0  0  0
 13  2  2  0  0  0  0
 14 15  2  0  0  0  0
 15 21  1  0  0  0  0
 15 11  1  0  0  0  0
 16  7  2  0  0  0  0
 17  3  1  0  0  0  0
 18 12  2  0  0  0  0
 19 20  1  0  0  0  0
 20 22  2  0  0  0  0
 21 24  2  0  0  0  0
 23 19  2  0  0  0  0
 23 21  1  0  0  0  0
 24 22  1  0  0  0  0
 25 19  1  0  0  0  0
 26 16  1  0  0  0  0
 27 26  1  0  0  0  0
 29 27  1  0  0  0  0
 30 28  1  0  0  0  0
 30 29  2  0  0  0  0
 31 34  2  0  0  0  0
 31 32  1  0  0  0  0
 32 33  2  0  0  0  0
 33 29  1  0  0  0  0
 34 30  1  0  0  0  0
M  END
>  <MODEL>
7

>  <REMARK>
 VINA RESULT:     -10.9      1.258      1.717
  Name = 
  4 active torsions:
  status: ('A' for Active; 'I' for Inactive)
    1  A    between atoms: C_3  and  C_13
    2  A    between atoms: C_3  and  C_17
    3  A    between atoms: C_12  and  C_28
    4  A    between atoms: C_17  and  C_29
                            x       y       z     vdW  Elec       q    Type
                         _______ _______ _______ _____ _____    ______ ____

>  <TORSDO>
F 4

$$$$
=
 OpenBabel10262419103D

 34 40  0  0  0  0  0  0  0  0999 V2000
  184.4430  178.5460  144.1690 C   0  0  0  0  0  0  0  0  0  0  0  0
  184.6640  178.6820  141.7220 C   0  0  0  0  0  0  0  0  0  0  0  0
  186.6000  178.2290  143.1130 C   0  0  0  0  0  0  0  0  0  0  0  0
  188.5970  177.9140  141.8670 C   0  0  0  0  0  0  0  0  0  0  0  0
  182.5050  179.0030  142.7800 C   0  0  0  0  0  3  0  0  0  0  0  0
  183.2950  178.9410  141.6200 C   0  0  0  0  0  3  0  0  0  0  0  0
  186.7840  178.3530  140.7670 C   0  0  0  0  0  0  0  0  0  0  0  0
  185.2300  178.4890  143.0110 C   0  0  0  0  0  0  0  0  0  0  0  0
  188.9680  177.9080  140.5200 C   0  0  0  0  0  3  0  0  0  0  0  0
  183.0740  178.8050  144.0490 C   0  0  0  0  0  3  0  0  0  0  0  0
  187.2360  178.0200  144.3500 C   0  0  0  0  0  0  0  0  0  0  0  0
  185.0450  178.3360  145.4170 C   0  0  0  0  0  3  0  0  0  0  0  0
  185.4560  178.6090  140.6020 N   0  0  0  0  0  0  0  0  0  0  0  0
  189.4150  177.6340  143.0930 C   0  0  0  0  0  2  0  0  0  0  0  0
  188.5840  177.7560  144.3860 C   0  0  0  0  0  0  0  0  0  0  0  0
  187.7820  178.2080  139.8240 C   0  0  0  0  0  0  0  0  0  0  0  0
  187.3040  178.1780  141.9760 N   0  0  0  0  0  0  0  0  0  0  0  0
  186.4250  178.0730  145.5050 C   0  0  0  0  0  3  0  0  0  0  0  0
  191.2170  176.6600  146.9040 C   0  0  0  0  0  0  0  0  0  0  0  0
  190.6590  177.1260  148.0970 C   0  0  0  0  0  3  0  0  0  0  0  0
  189.3260  177.5540  145.6580 C   0  0  0  0  0  0  0  0  0  0  0  0
  189.4350  177.7980  148.0790 C   0  0  0  0  0  3  0  0  0  0  0  0
  190.5510  176.8670  145.6930 C   0  0  0  0  0  3  0  0  0  0  0  0
  188.7700  178.0070  146.8660 C   0  0  0  0  0  3  0  0  0  0  0  0
  192.4300  175.9870  146.9220 O   0  0  0  0  0  1  0  0  0  0  0  0
  187.6220  178.2670  138.3440 C   0  0  0  0  0  2  0  0  0  0  0  0
  188.9340  178.6750  137.7000 C   0  0  0  0  0  2  0  0  0  0  0  0
  187.8280  178.1130  135.1220 F   0  0  0  0  0  0  0  0  0  0  0  0
  189.4350  177.5780  136.8210 C   0  0  0  0  0  0  0  0  0  0  0  0
  188.8500  177.3400  135.5660 C   0  0  0  0  0  0  0  0  0  0  0  0
  190.3720  175.4880  135.2110 C   0  0  0  0  0  3  0  0  0  0  0  0
  190.9510  175.7220  136.4610 C   0  0  0  0  0  3  0  0  0  0  0  0
  190.4820  176.7640  137.2660 C   0  0  0  0  0  3  0  0  0  0  0  0
  189.3230  176.2970  134.7650 C   0  0  0  0  0  3  0  0  0  0  0  0
  1 12  1  0  0  0  0
  2  8  1  0  0  0  0
  3 11  1  0  0  0  0
  4 17  1  0  0  0  0
  4 14  1  0  0  0  0
  5 10  1  0  0  0  0
  6  2  1  0  0  0  0
  6  5  2  0  0  0  0
  7 17  1  0  0  0  0
  8  3  2  0  0  0  0
  8  1  1  0  0  0  0
  9  4  2  0  0  0  0
 10  1  2  0  0  0  0
 11 15  2  0  0  0  0
 11 18  1  0  0  0  0
 12 18  2  0  0  0  0
 13  7  1  0  0  0  0
 13  2  2  0  0  0  0
 14 15  1  0  0  0  0
 15 21  1  0  0  0  0
 16  9  1  0  0  0  0
 16  7  2  0  0  0  0
 17  3  1  0  0  0  0
 19 25  1  0  0  0  0
 19 20  1  0  0  0  0
 21 23  1  0  0  0  0
 21 24  2  0  0  0  0
 22 20  2  0  0  0  0
 23 19  2  0  0  0  0
 24 22  1  0  0  0  0
 26 16  1  0  0  0  0
 27 26  1  0  0  0  0
 28 30  1  0  0  0  0
 29 33  1  0  0  0  0
 29 27  1  0  0  0  0
 30 29  2  0  0  0  0
 31 32  1  0  0  0  0
 32 33  2  0  0  0  0
 34 31  2  0  0  0  0
 34 30  1  0  0  0  0
M  END
>  <MODEL>
8

>  <REMARK>
 VINA RESULT:     -10.7      2.809      5.621
  Name = 
  4 active torsions:
  status: ('A' for Active; 'I' for Inactive)
    1  A    between atoms: C_3  and  C_13
    2  A    between atoms: C_3  and  C_17
    3  A    between atoms: C_12  and  C_28
    4  A    between atoms: C_17  and  C_29
                            x       y       z     vdW  Elec       q    Type
                         _______ _______ _______ _____ _____    ______ ____

>  <TORSDO>
F 4

$$$$
=
 OpenBabel10262419103D

 34 40  0  0  1  0  0  0  0  0999 V2000
  183.9810  178.6540  144.4560 C   0  0  0  0  0  0  0  0  0  0  0  0
  186.3800  178.2020  144.7710 C   0  0  0  0  0  0  0  0  0  0  0  0
  185.4540  178.4620  142.5430 C   0  0  0  0  0  0  0  0  0  0  0  0
  187.0830  178.2750  140.8240 C   0  0  0  0  0  0  0  0  0  0  0  0
  184.9040  178.3910  146.6870 C   0  0  0  0  0  3  0  0  0  0  0  0
  186.1870  178.1800  146.1540 C   0  0  0  0  0  3  0  0  0  0  0  0
  187.7500  178.0410  142.8710 C   0  0  0  0  0  0  0  0  0  0  0  0
  185.2610  178.4390  143.9270 C   0  0  2  0  0  3  0  0  0  0  0  0
  188.4600  178.0630  140.7440 C   0  0  0  0  0  3  0  0  0  0  0  0
  183.8060  178.6280  145.8430 C   0  0  0  0  0  3  0  0  0  0  0  0
  184.4010  178.6950  141.6400 C   0  0  0  0  0  0  0  0  0  0  0  0
  182.9120  178.8950  143.5840 C   0  0  0  0  0  3  0  0  0  0  0  0
  187.6260  178.0070  144.2270 N   0  0  0  0  0  0  0  0  0  0  0  0
  186.0840  178.5450  139.7370 C   0  0  0  0  0  3  0  0  0  0  0  0
  184.6560  178.7190  140.2900 C   0  0  0  0  0  0  0  0  0  0  0  0
  188.8730  177.8990  142.0800 C   0  0  0  0  0  0  0  0  0  0  0  0
  186.6980  178.2590  142.0910 N   0  0  0  0  0  0  0  0  0  0  0  0
  183.1210  178.9170  142.1920 C   0  0  0  0  0  3  0  0  0  0  0  0
  181.9660  180.3590  138.1560 C   0  0  0  0  0  0  0  0  0  0  0  0
  181.5150  179.2700  137.4080 C   0  0  0  0  0  3  0  0  0  0  0  0
  183.5870  178.9300  139.2780 C   0  0  0  0  0  0  0  0  0  0  0  0
  182.0870  178.0090  137.5950 C   0  0  0  0  0  3  0  0  0  0  0  0
  182.9920  180.1890  139.0910 C   0  0  0  0  0  3  0  0  0  0  0  0
  183.1150  177.8400  138.5290 C   0  0  0  0  0  3  0  0  0  0  0  0
  181.3940  181.6100  137.9760 O   0  0  0  0  0  1  0  0  0  0  0  0
  190.2720  177.7020  142.5510 C   0  0  0  0  0  2  0  0  0  0  0  0
  190.4310  176.3060  143.1260 C   0  0  0  0  0  2  0  0  0  0  0  0
  192.4310  174.6640  144.3440 F   0  0  0  0  0  0  0  0  0  0  0  0
  190.7760  176.3850  144.5750 C   0  0  0  0  0  0  0  0  0  0  0  0
  191.7620  175.5490  145.1240 C   0  0  0  0  0  0  0  0  0  0  0  0
  191.3740  176.5300  147.3060 C   0  0  0  0  0  3  0  0  0  0  0  0
  190.3900  177.3590  146.7610 C   0  0  0  0  0  3  0  0  0  0  0  0
  190.0900  177.2850  145.3980 C   0  0  0  0  0  3  0  0  0  0  0  0
  192.0580  175.6260  146.4880 C   0  0  0  0  0  3  0  0  0  0  0  0
  1 10  2  0  0  0  0
  2  6  1  0  0  0  0
  4 17  1  0  0  0  0
  6  5  2  0  0  0  0
  7 13  1  0  0  0  0
  8  3  1  1  0  0  0
  8  1  1  0  0  0  0
  8  2  1  0  0  0  0
  9  4  2  0  0  0  0
  9 16  1  0  0  0  0
 10  5  1  0  0  0  0
 11 18  1  0  0  0  0
 11  3  2  0  0  0  0
 12  1  1  0  0  0  0
 13  2  2  0  0  0  0
 14 15  2  0  0  0  0
 14  4  1  0  0  0  0
 15 11  1  0  0  0  0
 16 26  1  0  0  0  0
 16  7  2  0  0  0  0
 17  3  1  0  0  0  0
 17  7  1  0  0  0  0
 18 12  2  0  0  0  0
 19 23  1  0  0  0  0
 20 22  1  0  0  0  0
 20 19  2  0  0  0  0
 21 15  1  0  0  0  0
 22 24  2  0  0  0  0
 23 21  2  0  0  0  0
 24 21  1  0  0  0  0
 25 19  1  0  0  0  0
 26 27  1  0  0  0  0
 27 29  1  0  0  0  0
 28 30  1  0  0  0  0
 29 30  2  0  0  0  0
 29 33  1  0  0  0  0
 30 34  1  0  0  0  0
 32 31  1  0  0  0  0
 33 32  2  0  0  0  0
 34 31  2  0  0  0  0
M  END
>  <MODEL>
9

>  <REMARK>
 VINA RESULT:     -10.7      3.190      5.708
  Name = 
  4 active torsions:
  status: ('A' for Active; 'I' for Inactive)
    1  A    between atoms: C_3  and  C_13
    2  A    between atoms: C_3  and  C_17
    3  A    between atoms: C_12  and  C_28
    4  A    between atoms: C_17  and  C_29
                            x       y       z     vdW  Elec       q    Type
                         _______ _______ _______ _____ _____    ______ ____

>  <TORSDO>
F 4

$$$$
