=
 OpenBabel10262423063D

 37 42  0  0  1  0  0  0  0  0999 V2000
  192.1760  178.8970  144.2140 F   0  0  0  0  0  0  0  0  0  0  0  0
  189.6960  176.4210  140.6970 C   0  0  2  0  0  3  0  0  0  0  0  0
  187.3490  178.2090  138.6530 O   0  0  0  0  0  1  0  0  0  0  0  0
  190.9240  177.7560  142.3680 C   0  0  2  0  0  3  0  0  0  0  0  0
  188.8600  177.5440  140.3090 N   0  0  1  0  0  0  0  0  0  0  0  0
  189.9480  176.5990  142.1680 C   0  0  1  0  0  3  0  0  0  0  0  0
  188.2730  177.2240  139.0080 C   0  0  2  0  0  3  0  0  0  0  0  0
  192.1910  177.5280  141.5540 C   0  0  0  0  0  2  0  0  0  0  0  0
  188.5750  177.0300  142.6490 C   0  0  1  0  0  3  0  0  0  0  0  0
  189.8950  178.2330  144.6620 C   0  0  2  0  0  3  0  0  0  0  0  0
  193.1190  177.2850  139.4340 C   0  0  0  0  0  1  0  0  0  0  0  0
  191.8570  177.5110  140.1250 N   0  0  0  0  0  0  0  0  0  0  0  0
  188.5580  177.9040  143.9350 C   0  0  2  0  0  3  0  0  0  0  0  0
  190.9750  176.3610  139.8550 C   0  0  2  0  0  3  0  0  0  0  0  0
  187.8800  177.6220  141.3970 C   0  0  1  0  0  3  0  0  0  0  0  0
  191.1670  178.0260  143.8490 C   0  0  2  0  0  0  0  0  0  0  0  0
  189.4160  177.1850  137.9570 C   0  0  1  0  0  3  0  0  0  0  0  0
  190.7620  176.9970  144.8930 C   0  0  0  0  0  2  0  0  0  0  0  0
  190.5710  176.2510  138.3720 C   0  0  0  0  0  2  0  0  0  0  0  0
  188.9850  176.8510  136.5890 N   0  0  0  0  0  0  0  0  0  0  0  0
  189.8230  177.4460  135.5320 C   0  0  0  0  0  2  0  0  0  0  0  0
  190.4580  176.4230  134.5940 C   0  0  0  0  0  1  0  0  0  0  0  0
  188.7950  175.4110  136.4270 C   0  0  0  0  0  2  0  0  0  0  0  0
  186.8870  175.1910  134.8390 O   0  0  0  0  0  0  0  0  0  0  0  0
  186.5780  174.8340  137.0820 O   0  0  0  0  0  1  0  0  0  0  0  0
  187.3640  175.1160  136.1400 C   0  0  0  0  0  0  0  0  0  0  0  0
  187.5170  177.3720  144.9100 C   0  0  0  0  0  2  0  0  0  0  0  0
  187.4500  178.2210  146.0920 N   0  0  0  0  0  0  0  0  0  0  0  0
  187.5140  177.3440  147.2560 C   0  0  0  0  0  1  0  0  0  0  0  0
  186.1750  178.9500  146.0630 C   0  0  2  0  0  3  0  0  0  0  0  0
  184.2730  179.1970  144.9300 C   0  0  0  0  0  2  0  0  0  0  0  0
  185.1420  178.2780  146.9410 C   0  0  0  0  0  2  0  0  0  0  0  0
  185.6590  179.0700  144.7590 O   0  0  0  0  0  0  0  0  0  0  0  0
  183.8670  178.4270  146.1670 C   0  0  0  0  0  2  0  0  0  0  0  0
  187.4300  179.0710  141.5860 C   0  0  0  0  0  2  0  0  0  0  0  0
  185.3790  179.4870  140.4350 O   0  0  0  0  0  1  0  0  0  0  0  0
  185.9170  179.1530  141.6780 C   0  0  0  0  0  2  0  0  0  0  0  0
  2  6  1  0  0  0  0
  3  7  1  0  0  0  0
  4 16  1  0  0  0  0
  5  2  1  0  0  0  0
  5 15  1  0  0  0  0
  6  4  1  0  0  0  0
  6  9  1  0  0  0  0
  7  5  1  0  0  0  0
  8  4  1  0  0  0  0
  9 13  1  0  0  0  0
 10 18  1  0  0  0  0
 11 12  1  0  0  0  0
 12  8  1  0  0  0  0
 13 10  1  0  0  0  0
 13 27  1  0  0  0  0
 14 12  1  0  0  0  0
 14  2  1  0  0  0  0
 15 35  1  0  0  0  0
 15  9  1  0  0  0  0
 16  1  1  0  0  0  0
 16 10  1  0  0  0  0
 16 18  1  0  0  0  0
 17 19  1  0  0  0  0
 17  7  1  0  0  0  0
 19 14  1  0  0  0  0
 20 17  1  0  0  0  0
 21 20  1  0  0  0  0
 22 21  1  0  0  0  0
 23 20  1  0  0  0  0
 24 26  2  0  0  0  0
 26 23  1  0  0  0  0
 26 25  1  0  0  0  0
 27 28  1  0  0  0  0
 28 29  1  0  0  0  0
 30 28  1  0  0  0  0
 30 32  1  0  0  0  0
 31 34  1  0  0  0  0
 33 31  1  0  0  0  0
 33 30  1  0  0  0  0
 34 32  1  0  0  0  0
 35 37  1  0  0  0  0
 36 37  1  0  0  0  0
M  END
>  <MODEL>
1

>  <REMARK>
 VINA RESULT:      -7.4      0.000      0.000
  Name = 
  9 active torsions:
  status: ('A' for Active; 'I' for Inactive)
    1  A    between atoms: N_1  and  C_5
    2  A    between atoms: N_1  and  C_23
    3  A    between atoms: C_2  and  N_6
    4  A    between atoms: N_6  and  C_8
    5  A    between atoms: N_6  and  C_31
    6  A    between atoms: C_8  and  C_19
    7  A    between atoms: C_23  and  C_25
    8  A    between atoms: C_29  and  C_33
    9  A    between atoms: C_33  and  C_36
                            x       y       z     vdW  Elec       q    Type
                         _______ _______ _______ _____ _____    ______ ____

>  <TORSDO>
F 9

$$$$
=
 OpenBabel10262423063D

 37 42  0  0  1  0  0  0  0  0999 V2000
  183.6840  177.7190  141.8520 F   0  0  0  0  0  0  0  0  0  0  0  0
  188.3190  178.6270  140.3220 C   0  0  2  0  0  3  0  0  0  0  0  0
  190.6990  175.9390  140.3270 O   0  0  0  0  0  1  0  0  0  0  0  0
  186.0300  178.0550  141.0360 C   0  0  2  0  0  3  0  0  0  0  0  0
  188.8270  177.3040  140.6440 N   0  0  1  0  0  0  0  0  0  0  0  0
  187.2570  178.9070  141.3470 C   0  0  1  0  0  3  0  0  0  0  0  0
  190.0990  177.1400  139.9410 C   0  0  2  0  0  3  0  0  0  0  0  0
  185.5720  178.2870  139.6010 C   0  0  0  0  0  2  0  0  0  0  0  0
  187.9150  178.3740  142.6050 C   0  0  1  0  0  3  0  0  0  0  0  0
  185.4070  178.0380  143.5190 C   0  0  2  0  0  3  0  0  0  0  0  0
  186.1020  178.1120  137.3430 C   0  0  0  0  0  1  0  0  0  0  0  0
  186.6240  177.8500  138.6770 N   0  0  0  0  0  0  0  0  0  0  0  0
  186.9440  177.8980  143.7220 C   0  0  2  0  0  3  0  0  0  0  0  0
  187.8160  178.6940  138.8760 C   0  0  2  0  0  3  0  0  0  0  0  0
  188.9580  177.3430  142.1040 C   0  0  1  0  0  3  0  0  0  0  0  0
  184.9390  178.2510  142.0830 C   0  0  2  0  0  0  0  0  0  0  0  0
  189.8090  177.1050  138.4160 C   0  0  1  0  0  3  0  0  0  0  0  0
  184.9990  179.4310  143.0420 C   0  0  0  0  0  2  0  0  0  0  0  0
  188.9810  178.3160  137.9420 C   0  0  0  0  0  2  0  0  0  0  0  0
  191.0020  176.9650  137.5640 N   0  0  0  0  0  0  0  0  0  0  0  0
  192.2400  176.6670  138.3080 C   0  0  0  0  0  2  0  0  0  0  0  0
  193.4030  176.2220  137.4240 C   0  0  0  0  0  1  0  0  0  0  0  0
  190.7620  176.0420  136.4570 C   0  0  0  0  0  2  0  0  0  0  0  0
  190.5410  173.8540  137.6300 O   0  0  0  0  0  1  0  0  0  0  0  0
  188.7170  174.8360  136.6490 O   0  0  0  0  0  0  0  0  0  0  0  0
  189.9440  174.8890  136.9240 C   0  0  0  0  0  0  0  0  0  0  0  0
  187.3760  178.4690  145.0650 C   0  0  0  0  0  2  0  0  0  0  0  0
  186.6910  177.7840  146.1520 N   0  0  0  0  0  0  0  0  0  0  0  0
  185.8570  178.7720  146.8260 C   0  0  0  0  0  1  0  0  0  0  0  0
  187.7050  177.2490  147.0700 C   0  0  2  0  0  3  0  0  0  0  0  0
  189.8970  177.1190  147.4470 C   0  0  0  0  0  2  0  0  0  0  0  0
  187.9260  178.1810  148.2420 C   0  0  0  0  0  2  0  0  0  0  0  0
  188.9370  177.0200  146.4290 O   0  0  0  0  0  0  0  0  0  0  0  0
  189.4040  178.1080  148.4790 C   0  0  0  0  0  2  0  0  0  0  0  0
  188.7450  175.9430  142.6800 C   0  0  0  0  0  2  0  0  0  0  0  0
  190.8650  176.5270  143.6150 O   0  0  0  0  0  1  0  0  0  0  0  0
  190.0030  175.4560  143.3780 C   0  0  0  0  0  2  0  0  0  0  0  0
  1 16  1  0  0  0  0
  2  5  1  0  0  0  0
  2  6  1  0  0  0  0
  4  6  1  0  0  0  0
  4 16  1  0  0  0  0
  5 15  1  0  0  0  0
  6  9  1  0  0  0  0
  7  3  1  0  0  0  0
  7  5  1  0  0  0  0
  8  4  1  0  0  0  0
  9 13  1  0  0  0  0
 10 13  1  0  0  0  0
 11 12  1  0  0  0  0
 12 14  1  0  0  0  0
 12  8  1  0  0  0  0
 13 27  1  0  0  0  0
 14  2  1  0  0  0  0
 15  9  1  0  0  0  0
 15 35  1  0  0  0  0
 16 18  1  0  0  0  0
 16 10  1  0  0  0  0
 17  7  1  0  0  0  0
 18 10  1  0  0  0  0
 19 17  1  0  0  0  0
 19 14  1  0  0  0  0
 20 21  1  0  0  0  0
 20 17  1  0  0  0  0
 22 21  1  0  0  0  0
 23 26  1  0  0  0  0
 23 20  1  0  0  0  0
 25 26  2  0  0  0  0
 26 24  1  0  0  0  0
 27 28  1  0  0  0  0
 28 29  1  0  0  0  0
 28 30  1  0  0  0  0
 30 32  1  0  0  0  0
 31 34  1  0  0  0  0
 32 34  1  0  0  0  0
 33 30  1  0  0  0  0
 33 31  1  0  0  0  0
 35 37  1  0  0  0  0
 37 36  1  0  0  0  0
M  END
>  <MODEL>
2

>  <REMARK>
 VINA RESULT:      -6.8      2.633      4.368
  Name = 
  9 active torsions:
  status: ('A' for Active; 'I' for Inactive)
    1  A    between atoms: N_1  and  C_5
    2  A    between atoms: N_1  and  C_23
    3  A    between atoms: C_2  and  N_6
    4  A    between atoms: N_6  and  C_8
    5  A    between atoms: N_6  and  C_31
    6  A    between atoms: C_8  and  C_19
    7  A    between atoms: C_23  and  C_25
    8  A    between atoms: C_29  and  C_33
    9  A    between atoms: C_33  and  C_36
                            x       y       z     vdW  Elec       q    Type
                         _______ _______ _______ _____ _____    ______ ____

>  <TORSDO>
F 9

$$$$
=
 OpenBabel10262423063D

 37 42  0  0  1  0  0  0  0  0999 V2000
  185.9210  179.6540  146.9900 F   0  0  0  0  0  0  0  0  0  0  0  0
  187.6410  177.0100  143.1560 C   0  0  2  0  0  3  0  0  0  0  0  0
  188.1900  178.6690  140.0200 O   0  0  0  0  0  1  0  0  0  0  0  0
  186.8500  178.4260  145.0130 C   0  0  2  0  0  3  0  0  0  0  0  0
  187.5480  178.0950  142.1940 N   0  0  1  0  0  0  0  0  0  0  0  0
  186.5120  177.2340  144.1210 C   0  0  1  0  0  3  0  0  0  0  0  0
  188.3570  177.7230  141.0340 C   0  0  2  0  0  3  0  0  0  0  0  0
  188.2000  178.2180  145.6870 C   0  0  0  0  0  2  0  0  0  0  0  0
  185.3930  177.6320  143.1780 C   0  0  1  0  0  3  0  0  0  0  0  0
  184.3560  178.9280  145.2950 C   0  0  2  0  0  3  0  0  0  0  0  0
  190.4930  177.9520  145.3990 C   0  0  0  0  0  1  0  0  0  0  0  0
  189.2520  178.1540  144.6660 N   0  0  0  0  0  0  0  0  0  0  0  0
  184.2880  178.5370  143.7900 C   0  0  2  0  0  3  0  0  0  0  0  0
  189.0220  176.9700  143.8180 C   0  0  2  0  0  3  0  0  0  0  0  0
  186.1100  178.1690  141.9120 C   0  0  1  0  0  3  0  0  0  0  0  0
  185.7090  178.7410  145.9740 C   0  0  2  0  0  0  0  0  0  0  0  0
  189.8470  177.6940  141.4720 C   0  0  1  0  0  3  0  0  0  0  0  0
  184.5990  177.7270  146.2070 C   0  0  0  0  0  2  0  0  0  0  0  0
  190.0830  176.8100  142.7130 C   0  0  0  0  0  2  0  0  0  0  0  0
  190.7950  177.3120  140.4120 N   0  0  0  0  0  0  0  0  0  0  0  0
  192.1690  177.0720  140.8910 C   0  0  0  0  0  2  0  0  0  0  0  0
  193.2520  177.4830  139.8980 C   0  0  0  0  0  1  0  0  0  0  0  0
  190.2710  176.2160  139.5990 C   0  0  0  0  0  2  0  0  0  0  0  0
  189.9460  177.5430  137.5150 O   0  0  0  0  0  0  0  0  0  0  0  0
  191.3050  175.6970  137.5170 O   0  0  0  0  0  1  0  0  0  0  0  0
  190.5500  176.4720  138.1590 C   0  0  0  0  0  0  0  0  0  0  0  0
  182.9120  177.9980  143.4230 C   0  0  0  0  0  2  0  0  0  0  0  0
  181.9910  179.0950  143.1600 N   0  0  0  0  0  0  0  0  0  0  0  0
  180.8410  178.9110  144.0380 C   0  0  0  0  0  1  0  0  0  0  0  0
  181.5820  179.0250  141.7510 C   0  0  2  0  0  3  0  0  0  0  0  0
  181.2260  177.6290  140.0520 C   0  0  0  0  0  2  0  0  0  0  0  0
  180.0760  178.9930  141.6190 C   0  0  0  0  0  2  0  0  0  0  0  0
  182.1220  177.9020  141.0940 O   0  0  0  0  0  0  0  0  0  0  0  0
  179.8370  178.0370  140.4900 C   0  0  0  0  0  2  0  0  0  0  0  0
  185.7240  179.6070  141.5660 C   0  0  0  0  0  2  0  0  0  0  0  0
  184.9840  178.4590  139.6060 O   0  0  0  0  0  1  0  0  0  0  0  0
  184.8370  179.6400  140.3340 C   0  0  0  0  0  2  0  0  0  0  0  0
  2 14  1  0  0  0  0
  2  6  1  0  0  0  0
  3  7  1  0  0  0  0
  4  8  1  0  0  0  0
  4 16  1  0  0  0  0
  5  2  1  0  0  0  0
  6  4  1  0  0  0  0
  7 17  1  0  0  0  0
  7  5  1  0  0  0  0
  9 13  1  0  0  0  0
  9  6  1  0  0  0  0
 10 16  1  0  0  0  0
 10 18  1  0  0  0  0
 12 11  1  0  0  0  0
 12  8  1  0  0  0  0
 13 10  1  0  0  0  0
 14 12  1  0  0  0  0
 15  5  1  0  0  0  0
 15  9  1  0  0  0  0
 16 18  1  0  0  0  0
 16  1  1  0  0  0  0
 17 19  1  0  0  0  0
 19 14  1  0  0  0  0
 20 21  1  0  0  0  0
 20 17  1  0  0  0  0
 22 21  1  0  0  0  0
 23 20  1  0  0  0  0
 24 26  2  0  0  0  0
 25 26  1  0  0  0  0
 26 23  1  0  0  0  0
 27 13  1  0  0  0  0
 28 27  1  0  0  0  0
 28 29  1  0  0  0  0
 30 28  1  0  0  0  0
 31 34  1  0  0  0  0
 31 33  1  0  0  0  0
 32 30  1  0  0  0  0
 33 30  1  0  0  0  0
 34 32  1  0  0  0  0
 35 15  1  0  0  0  0
 36 37  1  0  0  0  0
 37 35  1  0  0  0  0
M  END
>  <MODEL>
3

>  <REMARK>
 VINA RESULT:      -6.2      2.868      4.946
  Name = 
  9 active torsions:
  status: ('A' for Active; 'I' for Inactive)
    1  A    between atoms: N_1  and  C_5
    2  A    between atoms: N_1  and  C_23
    3  A    between atoms: C_2  and  N_6
    4  A    between atoms: N_6  and  C_8
    5  A    between atoms: N_6  and  C_31
    6  A    between atoms: C_8  and  C_19
    7  A    between atoms: C_23  and  C_25
    8  A    between atoms: C_29  and  C_33
    9  A    between atoms: C_33  and  C_36
                            x       y       z     vdW  Elec       q    Type
                         _______ _______ _______ _____ _____    ______ ____

>  <TORSDO>
F 9

$$$$
=
 OpenBabel10262423063D

 37 42  0  0  1  0  0  0  0  0999 V2000
  188.8560  179.5470  140.7740 F   0  0  0  0  0  0  0  0  0  0  0  0
  184.4590  177.7050  142.1620 C   0  0  2  0  0  3  0  0  0  0  0  0
  182.5440  179.4750  144.6290 O   0  0  0  0  0  1  0  0  0  0  0  0
  186.5950  178.7390  141.4940 C   0  0  2  0  0  3  0  0  0  0  0  0
  184.2210  178.6960  143.1980 N   0  0  1  0  0  0  0  0  0  0  0  0
  185.9480  177.5110  142.1290 C   0  0  1  0  0  3  0  0  0  0  0  0
  182.8000  178.6400  143.5380 C   0  0  2  0  0  3  0  0  0  0  0  0
  185.9840  179.0130  140.1260 C   0  0  0  0  0  2  0  0  0  0  0  0
  186.2750  177.4980  143.6100 C   0  0  1  0  0  3  0  0  0  0  0  0
  188.7210  178.3310  142.8600 C   0  0  2  0  0  3  0  0  0  0  0  0
  184.0650  179.5710  138.9340 C   0  0  0  0  0  1  0  0  0  0  0  0
  184.5590  179.3300  140.2820 N   0  0  0  0  0  0  0  0  0  0  0  0
  187.7140  177.9530  143.9850 C   0  0  2  0  0  3  0  0  0  0  0  0
  183.8640  178.1480  140.8210 C   0  0  2  0  0  3  0  0  0  0  0  0
  185.1070  178.2620  144.2840 C   0  0  1  0  0  3  0  0  0  0  0  0
  188.1160  178.6260  141.4920 C   0  0  2  0  0  0  0  0  0  0  0  0
  181.9870  179.1330  142.3100 C   0  0  1  0  0  3  0  0  0  0  0  0
  188.7860  177.2850  141.7490 C   0  0  0  0  0  2  0  0  0  0  0  0
  182.3530  178.3780  141.0160 C   0  0  0  0  0  2  0  0  0  0  0  0
  180.5260  179.1160  142.4900 N   0  0  0  0  0  0  0  0  0  0  0  0
  180.0120  180.2040  143.3420 C   0  0  0  0  0  2  0  0  0  0  0  0
  178.9310  179.7630  144.3260 C   0  0  0  0  0  1  0  0  0  0  0  0
  179.8320  179.0160  141.2080 C   0  0  0  0  0  2  0  0  0  0  0  0
  179.2840  176.7480  142.0820 O   0  0  0  0  0  1  0  0  0  0  0  0
  178.9530  177.2520  139.8700 O   0  0  0  0  0  0  0  0  0  0  0  0
  179.3200  177.6320  141.0120 C   0  0  0  0  0  0  0  0  0  0  0  0
  188.3310  176.9670  144.9680 C   0  0  0  0  0  2  0  0  0  0  0  0
  189.5520  177.5180  145.5380 N   0  0  0  0  0  0  0  0  0  0  0  0
  190.6660  176.7460  144.9970 C   0  0  0  0  0  1  0  0  0  0  0  0
  189.4840  177.3740  146.9980 C   0  0  2  0  0  3  0  0  0  0  0  0
  188.8400  178.3880  148.8750 C   0  0  0  0  0  2  0  0  0  0  0  0
  188.2460  176.6100  147.4150 C   0  0  0  0  0  2  0  0  0  0  0  0
  189.4980  178.6170  147.6580 O   0  0  0  0  0  0  0  0  0  0  0  0
  187.8030  177.3080  148.6650 C   0  0  0  0  0  2  0  0  0  0  0  0
  185.5670  179.4750  145.0910 C   0  0  0  0  0  2  0  0  0  0  0  0
  184.5530  178.3430  146.9340 O   0  0  0  0  0  1  0  0  0  0  0  0
  185.6410  179.1360  146.5700 C   0  0  0  0  0  2  0  0  0  0  0  0
  1 16  1  0  0  0  0
  2  5  1  0  0  0  0
  4  6  1  0  0  0  0
  5  7  1  0  0  0  0
  5 15  1  0  0  0  0
  6  2  1  0  0  0  0
  6  9  1  0  0  0  0
  7  3  1  0  0  0  0
  8 12  1  0  0  0  0
  8  4  1  0  0  0  0
  9 13  1  0  0  0  0
  9 15  1  0  0  0  0
 10 13  1  0  0  0  0
 11 12  1  0  0  0  0
 12 14  1  0  0  0  0
 13 27  1  0  0  0  0
 14 19  1  0  0  0  0
 14  2  1  0  0  0  0
 15 35  1  0  0  0  0
 16  4  1  0  0  0  0
 16 18  1  0  0  0  0
 16 10  1  0  0  0  0
 17 20  1  0  0  0  0
 17  7  1  0  0  0  0
 18 10  1  0  0  0  0
 19 17  1  0  0  0  0
 20 21  1  0  0  0  0
 21 22  1  0  0  0  0
 23 20  1  0  0  0  0
 25 26  2  0  0  0  0
 26 23  1  0  0  0  0
 26 24  1  0  0  0  0
 27 28  1  0  0  0  0
 28 30  1  0  0  0  0
 29 28  1  0  0  0  0
 30 32  1  0  0  0  0
 30 33  1  0  0  0  0
 32 34  1  0  0  0  0
 33 31  1  0  0  0  0
 34 31  1  0  0  0  0
 35 37  1  0  0  0  0
 37 36  1  0  0  0  0
M  END
>  <MODEL>
4

>  <REMARK>
 VINA RESULT:      -6.1      4.196      7.010
  Name = 
  9 active torsions:
  status: ('A' for Active; 'I' for Inactive)
    1  A    between atoms: N_1  and  C_5
    2  A    between atoms: N_1  and  C_23
    3  A    between atoms: C_2  and  N_6
    4  A    between atoms: N_6  and  C_8
    5  A    between atoms: N_6  and  C_31
    6  A    between atoms: C_8  and  C_19
    7  A    between atoms: C_23  and  C_25
    8  A    between atoms: C_29  and  C_33
    9  A    between atoms: C_33  and  C_36
                            x       y       z     vdW  Elec       q    Type
                         _______ _______ _______ _____ _____    ______ ____

>  <TORSDO>
F 9

$$$$
=
 OpenBabel10262423063D

 37 42  0  0  1  0  0  0  0  0999 V2000
  183.9990  177.4180  145.6160 F   0  0  0  0  0  0  0  0  0  0  0  0
  186.6600  179.0210  141.7420 C   0  0  2  0  0  3  0  0  0  0  0  0
  188.6390  176.6530  139.9080 O   0  0  0  0  0  1  0  0  0  0  0  0
  185.3240  178.1110  143.6050 C   0  0  2  0  0  3  0  0  0  0  0  0
  187.3100  177.7450  141.4910 N   0  0  1  0  0  0  0  0  0  0  0  0
  186.4470  179.0750  143.2290 C   0  0  1  0  0  3  0  0  0  0  0  0
  187.8810  177.8030  140.1460 C   0  0  2  0  0  3  0  0  0  0  0  0
  184.0700  178.4160  142.7960 C   0  0  0  0  0  2  0  0  0  0  0  0
  187.7620  178.5130  143.7340 C   0  0  1  0  0  3  0  0  0  0  0  0
  186.3690  177.7910  145.9200 C   0  0  2  0  0  3  0  0  0  0  0  0
  183.0990  178.5140  140.6840 C   0  0  0  0  0  1  0  0  0  0  0  0
  184.3430  178.1960  141.3710 N   0  0  0  0  0  0  0  0  0  0  0  0
  187.7070  177.8210  145.1250 C   0  0  2  0  0  3  0  0  0  0  0  0
  185.3690  179.1580  140.9280 C   0  0  2  0  0  3  0  0  0  0  0  0
  188.3130  177.6660  142.5580 C   0  0  1  0  0  3  0  0  0  0  0  0
  185.1060  178.0760  145.1140 C   0  0  2  0  0  0  0  0  0  0  0  0
  186.7140  177.8720  139.1250 C   0  0  1  0  0  3  0  0  0  0  0  0
  185.6990  179.1610  146.0000 C   0  0  0  0  0  2  0  0  0  0  0  0
  185.7230  179.0120  139.4360 C   0  0  0  0  0  2  0  0  0  0  0  0
  187.1310  177.9570  137.7150 N   0  0  0  0  0  0  0  0  0  0  0  0
  188.4310  178.6230  137.5120 C   0  0  0  0  0  2  0  0  0  0  0  0
  189.3830  177.8590  136.5960 C   0  0  0  0  0  1  0  0  0  0  0  0
  187.0440  176.6570  137.0540 C   0  0  0  0  0  2  0  0  0  0  0  0
  185.1290  175.0620  137.0940 O   0  0  0  0  0  1  0  0  0  0  0  0
  184.8700  177.1670  136.2250 O   0  0  0  0  0  0  0  0  0  0  0  0
  185.6200  176.3220  136.7780 C   0  0  0  0  0  0  0  0  0  0  0  0
  188.8530  178.3160  145.9970 C   0  0  0  0  0  2  0  0  0  0  0  0
  189.0700  177.4070  147.1130 N   0  0  0  0  0  0  0  0  0  0  0  0
  188.6220  178.0920  148.3200 C   0  0  0  0  0  1  0  0  0  0  0  0
  190.5060  177.1080  147.1910 C   0  0  2  0  0  3  0  0  0  0  0  0
  191.9950  175.4520  147.2530 C   0  0  0  0  0  2  0  0  0  0  0  0
  191.1480  177.1480  145.8220 C   0  0  0  0  0  2  0  0  0  0  0  0
  190.7590  175.8530  147.7780 O   0  0  0  0  0  0  0  0  0  0  0  0
  192.1340  176.0200  145.8580 C   0  0  0  0  0  2  0  0  0  0  0  0
  188.5570  176.2040  142.9310 C   0  0  0  0  0  2  0  0  0  0  0  0
  190.7520  176.9820  142.4000 O   0  0  0  0  0  1  0  0  0  0  0  0
  190.0300  175.8590  142.8020 C   0  0  0  0  0  2  0  0  0  0  0  0
  2  6  1  0  0  0  0
  3  7  1  0  0  0  0
  4 16  1  0  0  0  0
  5  2  1  0  0  0  0
  5 15  1  0  0  0  0
  6  4  1  0  0  0  0
  6  9  1  0  0  0  0
  7  5  1  0  0  0  0
  8  4  1  0  0  0  0
  9 13  1  0  0  0  0
 10 18  1  0  0  0  0
 11 12  1  0  0  0  0
 12  8  1  0  0  0  0
 13 10  1  0  0  0  0
 13 27  1  0  0  0  0
 14 12  1  0  0  0  0
 14  2  1  0  0  0  0
 15 35  1  0  0  0  0
 15  9  1  0  0  0  0
 16  1  1  0  0  0  0
 16 10  1  0  0  0  0
 16 18  1  0  0  0  0
 17 19  1  0  0  0  0
 17  7  1  0  0  0  0
 19 14  1  0  0  0  0
 20 17  1  0  0  0  0
 21 20  1  0  0  0  0
 22 21  1  0  0  0  0
 23 20  1  0  0  0  0
 25 26  2  0  0  0  0
 26 23  1  0  0  0  0
 26 24  1  0  0  0  0
 27 28  1  0  0  0  0
 28 30  1  0  0  0  0
 28 29  1  0  0  0  0
 30 33  1  0  0  0  0
 31 33  1  0  0  0  0
 32 34  1  0  0  0  0
 32 30  1  0  0  0  0
 34 31  1  0  0  0  0
 36 37  1  0  0  0  0
 37 35  1  0  0  0  0
M  END
>  <MODEL>
5

>  <REMARK>
 VINA RESULT:      -6.1      2.758      5.079
  Name = 
  9 active torsions:
  status: ('A' for Active; 'I' for Inactive)
    1  A    between atoms: N_1  and  C_5
    2  A    between atoms: N_1  and  C_23
    3  A    between atoms: C_2  and  N_6
    4  A    between atoms: N_6  and  C_8
    5  A    between atoms: N_6  and  C_31
    6  A    between atoms: C_8  and  C_19
    7  A    between atoms: C_23  and  C_25
    8  A    between atoms: C_29  and  C_33
    9  A    between atoms: C_33  and  C_36
                            x       y       z     vdW  Elec       q    Type
                         _______ _______ _______ _____ _____    ______ ____

>  <TORSDO>
F 9

$$$$
=
 OpenBabel10262423063D

 37 42  0  0  1  0  0  0  0  0999 V2000
  183.4720  180.7740  144.4680 F   0  0  0  0  0  0  0  0  0  0  0  0
  186.7960  177.0880  144.6210 C   0  0  2  0  0  3  0  0  0  0  0  0
  190.0580  177.6440  143.2280 O   0  0  0  0  0  1  0  0  0  0  0  0
  185.2440  179.0030  144.5550 C   0  0  2  0  0  3  0  0  0  0  0  0
  187.8100  177.7920  143.8530 N   0  0  1  0  0  0  0  0  0  0  0  0
  185.4790  177.5710  144.0820 C   0  0  1  0  0  3  0  0  0  0  0  0
  189.0780  177.0930  144.0570 C   0  0  2  0  0  3  0  0  0  0  0  0
  185.3510  179.0850  146.0720 C   0  0  0  0  0  2  0  0  0  0  0  0
  185.7620  177.5900  142.5920 C   0  0  1  0  0  3  0  0  0  0  0  0
  183.8380  179.4660  142.4670 C   0  0  2  0  0  3  0  0  0  0  0  0
  186.7170  178.8340  147.9380 C   0  0  0  0  0  1  0  0  0  0  0  0
  186.7140  178.7320  146.4860 N   0  0  0  0  0  0  0  0  0  0  0  0
  184.9210  178.5990  141.7610 C   0  0  2  0  0  3  0  0  0  0  0  0
  186.9730  177.3260  146.1250 C   0  0  2  0  0  3  0  0  0  0  0  0
  187.3030  177.7090  142.4780 C   0  0  1  0  0  3  0  0  0  0  0  0
  183.9480  179.5690  143.9840 C   0  0  2  0  0  0  0  0  0  0  0  0
  189.4960  177.2710  145.5420 C   0  0  1  0  0  3  0  0  0  0  0  0
  182.9140  178.6430  143.3630 C   0  0  0  0  0  2  0  0  0  0  0  0
  188.3840  176.8550  146.5250 C   0  0  0  0  0  2  0  0  0  0  0  0
  190.7540  176.6010  145.9130 N   0  0  0  0  0  0  0  0  0  0  0  0
  191.7540  176.5550  144.8300 C   0  0  0  0  0  2  0  0  0  0  0  0
  192.0560  175.1470  144.3250 C   0  0  0  0  0  1  0  0  0  0  0  0
  191.2890  177.1280  147.1660 C   0  0  0  0  0  2  0  0  0  0  0  0
  193.2260  176.3850  148.5460 O   0  0  0  0  0  1  0  0  0  0  0  0
  191.6470  174.8760  147.8520 O   0  0  0  0  0  0  0  0  0  0  0  0
  192.0500  176.0670  147.8810 C   0  0  0  0  0  0  0  0  0  0  0  0
  184.3570  177.9130  140.5250 C   0  0  0  0  0  2  0  0  0  0  0  0
  183.9370  178.9020  139.5420 N   0  0  0  0  0  0  0  0  0  0  0  0
  182.4950  178.7590  139.3770 C   0  0  0  0  0  1  0  0  0  0  0  0
  184.6330  178.6210  138.2800 C   0  0  2  0  0  3  0  0  0  0  0  0
  186.5560  177.9100  137.4100 C   0  0  0  0  0  2  0  0  0  0  0  0
  184.3090  177.2330  137.7740 C   0  0  0  0  0  2  0  0  0  0  0  0
  186.0300  178.7490  138.4010 O   0  0  0  0  0  0  0  0  0  0  0  0
  185.6100  176.7480  137.2080 C   0  0  0  0  0  2  0  0  0  0  0  0
  187.7550  178.9360  141.6860 C   0  0  0  0  0  2  0  0  0  0  0  0
  188.6030  177.1310  140.3710 O   0  0  0  0  0  1  0  0  0  0  0  0
  188.6000  178.5210  140.4950 C   0  0  0  0  0  2  0  0  0  0  0  0
  2 14  1  0  0  0  0
  3  7  1  0  0  0  0
  4  8  1  0  0  0  0
  5  7  1  0  0  0  0
  5  2  1  0  0  0  0
  6  4  1  0  0  0  0
  6  2  1  0  0  0  0
  7 17  1  0  0  0  0
  8 12  1  0  0  0  0
  9  6  1  0  0  0  0
 10 18  1  0  0  0  0
 10 16  1  0  0  0  0
 12 11  1  0  0  0  0
 13 10  1  0  0  0  0
 13  9  1  0  0  0  0
 14 12  1  0  0  0  0
 14 19  1  0  0  0  0
 15  9  1  0  0  0  0
 15  5  1  0  0  0  0
 16  1  1  0  0  0  0
 16  4  1  0  0  0  0
 17 20  1  0  0  0  0
 17 19  1  0  0  0  0
 18 16  1  0  0  0  0
 20 23  1  0  0  0  0
 21 20  1  0  0  0  0
 22 21  1  0  0  0  0
 23 26  1  0  0  0  0
 25 26  2  0  0  0  0
 26 24  1  0  0  0  0
 27 13  1  0  0  0  0
 28 27  1  0  0  0  0
 29 28  1  0  0  0  0
 30 33  1  0  0  0  0
 30 28  1  0  0  0  0
 31 33  1  0  0  0  0
 32 30  1  0  0  0  0
 34 31  1  0  0  0  0
 34 32  1  0  0  0  0
 35 15  1  0  0  0  0
 36 37  1  0  0  0  0
 37 35  1  0  0  0  0
M  END
>  <MODEL>
6

>  <REMARK>
 VINA RESULT:      -6.0      3.384      7.956
  Name = 
  9 active torsions:
  status: ('A' for Active; 'I' for Inactive)
    1  A    between atoms: N_1  and  C_5
    2  A    between atoms: N_1  and  C_23
    3  A    between atoms: C_2  and  N_6
    4  A    between atoms: N_6  and  C_8
    5  A    between atoms: N_6  and  C_31
    6  A    between atoms: C_8  and  C_19
    7  A    between atoms: C_23  and  C_25
    8  A    between atoms: C_29  and  C_33
    9  A    between atoms: C_33  and  C_36
                            x       y       z     vdW  Elec       q    Type
                         _______ _______ _______ _____ _____    ______ ____

>  <TORSDO>
F 9

$$$$
=
 OpenBabel10262423063D

 37 42  0  0  1  0  0  0  0  0999 V2000
  183.1210  180.7770  144.4200 F   0  0  0  0  0  0  0  0  0  0  0  0
  186.6050  177.2400  144.4180 C   0  0  2  0  0  3  0  0  0  0  0  0
  189.6520  177.8170  142.6100 O   0  0  0  0  0  1  0  0  0  0  0  0
  184.9700  179.0850  144.4110 C   0  0  2  0  0  3  0  0  0  0  0  0
  187.4880  177.9240  143.4880 N   0  0  1  0  0  0  0  0  0  0  0  0
  185.2140  177.6330  144.0100 C   0  0  1  0  0  3  0  0  0  0  0  0
  188.8020  177.2900  143.5850 C   0  0  2  0  0  3  0  0  0  0  0  0
  185.2500  179.2800  145.8960 C   0  0  0  0  0  2  0  0  0  0  0  0
  185.3180  177.5550  142.4990 C   0  0  1  0  0  3  0  0  0  0  0  0
  183.3090  179.3440  142.4810 C   0  0  2  0  0  3  0  0  0  0  0  0
  186.8360  179.2150  147.5970 C   0  0  0  0  0  1  0  0  0  0  0  0
  186.6660  179.0090  146.1650 N   0  0  0  0  0  0  0  0  0  0  0  0
  184.3400  178.4710  141.7090 C   0  0  2  0  0  3  0  0  0  0  0  0
  186.9450  177.5920  145.8700 C   0  0  2  0  0  3  0  0  0  0  0  0
  186.8290  177.7250  142.1930 C   0  0  1  0  0  3  0  0  0  0  0  0
  183.5910  179.5600  143.9640 C   0  0  2  0  0  0  0  0  0  0  0  0
  189.3830  177.5900  144.9930 C   0  0  1  0  0  3  0  0  0  0  0  0
  182.5350  178.5530  143.5340 C   0  0  0  0  0  2  0  0  0  0  0  0
  188.4140  177.2040  146.1290 C   0  0  0  0  0  2  0  0  0  0  0  0
  190.7050  176.9960  145.2550 N   0  0  0  0  0  0  0  0  0  0  0  0
  191.8130  177.6530  144.5380 C   0  0  0  0  0  2  0  0  0  0  0  0
  191.7200  179.1770  144.5160 C   0  0  0  0  0  1  0  0  0  0  0  0
  190.9520  176.8570  146.6890 C   0  0  0  0  0  2  0  0  0  0  0  0
  192.2950  174.8560  146.0530 O   0  0  0  0  0  0  0  0  0  0  0  0
  192.8300  176.0680  147.9230 O   0  0  0  0  0  1  0  0  0  0  0  0
  192.0850  175.9190  146.9210 C   0  0  0  0  0  0  0  0  0  0  0  0
  183.6670  177.6760  140.5990 C   0  0  0  0  0  2  0  0  0  0  0  0
  182.3940  178.2850  140.2400 N   0  0  0  0  0  0  0  0  0  0  0  0
  181.3870  177.2310  140.2780 C   0  0  0  0  0  1  0  0  0  0  0  0
  182.5140  178.8380  138.8840 C   0  0  2  0  0  3  0  0  0  0  0  0
  181.4550  179.0670  136.9380 C   0  0  0  0  0  2  0  0  0  0  0  0
  182.1270  180.3000  138.8530 C   0  0  0  0  0  2  0  0  0  0  0  0
  181.7270  178.1370  137.9510 O   0  0  0  0  0  0  0  0  0  0  0  0
  181.3960  180.4470  137.5530 C   0  0  0  0  0  2  0  0  0  0  0  0
  187.1280  178.9070  141.2720 C   0  0  0  0  0  2  0  0  0  0  0  0
  186.6940  178.5980  138.9440 O   0  0  0  0  0  1  0  0  0  0  0  0
  187.6590  178.4220  139.9350 C   0  0  0  0  0  2  0  0  0  0  0  0
  2 14  1  0  0  0  0
  3  7  1  0  0  0  0
  4  8  1  0  0  0  0
  5  7  1  0  0  0  0
  5  2  1  0  0  0  0
  6  4  1  0  0  0  0
  6  2  1  0  0  0  0
  7 17  1  0  0  0  0
  8 12  1  0  0  0  0
  9  6  1  0  0  0  0
 10 18  1  0  0  0  0
 10 16  1  0  0  0  0
 12 11  1  0  0  0  0
 13 10  1  0  0  0  0
 13  9  1  0  0  0  0
 14 19  1  0  0  0  0
 14 12  1  0  0  0  0
 15  9  1  0  0  0  0
 15  5  1  0  0  0  0
 16  4  1  0  0  0  0
 16  1  1  0  0  0  0
 17 20  1  0  0  0  0
 17 19  1  0  0  0  0
 18 16  1  0  0  0  0
 20 23  1  0  0  0  0
 21 20  1  0  0  0  0
 22 21  1  0  0  0  0
 23 26  1  0  0  0  0
 24 26  2  0  0  0  0
 26 25  1  0  0  0  0
 27 13  1  0  0  0  0
 28 29  1  0  0  0  0
 28 27  1  0  0  0  0
 30 28  1  0  0  0  0
 31 34  1  0  0  0  0
 31 33  1  0  0  0  0
 32 30  1  0  0  0  0
 33 30  1  0  0  0  0
 34 32  1  0  0  0  0
 35 15  1  0  0  0  0
 36 37  1  0  0  0  0
 37 35  1  0  0  0  0
M  END
>  <MODEL>
7

>  <REMARK>
 VINA RESULT:      -5.9      3.814      7.803
  Name = 
  9 active torsions:
  status: ('A' for Active; 'I' for Inactive)
    1  A    between atoms: N_1  and  C_5
    2  A    between atoms: N_1  and  C_23
    3  A    between atoms: C_2  and  N_6
    4  A    between atoms: N_6  and  C_8
    5  A    between atoms: N_6  and  C_31
    6  A    between atoms: C_8  and  C_19
    7  A    between atoms: C_23  and  C_25
    8  A    between atoms: C_29  and  C_33
    9  A    between atoms: C_33  and  C_36
                            x       y       z     vdW  Elec       q    Type
                         _______ _______ _______ _____ _____    ______ ____

>  <TORSDO>
F 9

$$$$
=
 OpenBabel10262423063D

 37 42  0  0  1  0  0  0  0  0999 V2000
  187.6730  179.1610  147.3610 F   0  0  0  0  0  0  0  0  0  0  0  0
  188.3940  176.4580  143.2590 C   0  0  2  0  0  3  0  0  0  0  0  0
  188.5440  178.1340  140.0880 O   0  0  0  0  0  1  0  0  0  0  0  0
  188.1010  177.8970  145.2390 C   0  0  2  0  0  3  0  0  0  0  0  0
  188.2450  177.5720  142.3380 N   0  0  1  0  0  0  0  0  0  0  0  0
  187.4860  176.7700  144.4140 C   0  0  1  0  0  3  0  0  0  0  0  0
  188.7910  177.1500  141.0490 C   0  0  2  0  0  3  0  0  0  0  0  0
  189.5200  177.5360  145.6570 C   0  0  0  0  0  2  0  0  0  0  0  0
  186.2650  177.3040  143.6910 C   0  0  1  0  0  3  0  0  0  0  0  0
  185.7640  178.6430  145.9710 C   0  0  2  0  0  3  0  0  0  0  0  0
  191.6840  177.0460  144.9580 C   0  0  0  0  0  1  0  0  0  0  0  0
  190.3600  177.3920  144.4620 N   0  0  0  0  0  0  0  0  0  0  0  0
  185.3870  178.3010  144.4990 C   0  0  2  0  0  3  0  0  0  0  0  0
  189.8600  176.2610  143.6610 C   0  0  2  0  0  3  0  0  0  0  0  0
  186.7960  177.7990  142.3210 C   0  0  1  0  0  3  0  0  0  0  0  0
  187.1890  178.3020  146.3930 C   0  0  2  0  0  0  0  0  0  0  0  0
  190.3240  176.9590  141.2100 C   0  0  1  0  0  3  0  0  0  0  0  0
  186.0390  177.3990  146.8140 C   0  0  0  0  0  2  0  0  0  0  0  0
  190.6830  176.0220  142.3810 C   0  0  0  0  0  2  0  0  0  0  0  0
  191.0210  176.5100  139.9930 N   0  0  0  0  0  0  0  0  0  0  0  0
  190.1230  176.0080  138.9360 C   0  0  0  0  0  2  0  0  0  0  0  0
  190.1370  176.8470  137.6610 C   0  0  0  0  0  1  0  0  0  0  0  0
  191.9610  177.5210  139.5140 C   0  0  0  0  0  2  0  0  0  0  0  0
  194.2240  176.7520  140.2180 O   0  0  0  0  0  1  0  0  0  0  0  0
  193.5420  176.5170  138.0420 O   0  0  0  0  0  0  0  0  0  0  0  0
  193.2760  176.8910  139.2140 C   0  0  0  0  0  0  0  0  0  0  0  0
  183.9190  177.9130  144.3830 C   0  0  0  0  0  2  0  0  0  0  0  0
  183.2350  178.7950  143.4470 N   0  0  0  0  0  0  0  0  0  0  0  0
  183.2200  180.1260  144.0430 C   0  0  0  0  0  1  0  0  0  0  0  0
  181.8660  178.2960  143.2620 C   0  0  2  0  0  3  0  0  0  0  0  0
  179.7350  178.6540  143.8060 C   0  0  0  0  0  2  0  0  0  0  0  0
  181.2540  178.8370  141.9890 C   0  0  0  0  0  2  0  0  0  0  0  0
  181.0280  178.6220  144.3460 O   0  0  0  0  0  0  0  0  0  0  0  0
  179.8270  179.0970  142.3630 C   0  0  0  0  0  2  0  0  0  0  0  0
  186.5070  179.2770  142.0610 C   0  0  0  0  0  2  0  0  0  0  0  0
  185.6920  178.9650  139.8380 O   0  0  0  0  0  1  0  0  0  0  0  0
  185.3390  179.4320  141.1030 C   0  0  0  0  0  2  0  0  0  0  0  0
  2 14  1  0  0  0  0
  2  6  1  0  0  0  0
  3  7  1  0  0  0  0
  4  8  1  0  0  0  0
  4 16  1  0  0  0  0
  5  2  1  0  0  0  0
  6  4  1  0  0  0  0
  7 17  1  0  0  0  0
  7  5  1  0  0  0  0
  9  6  1  0  0  0  0
  9 13  1  0  0  0  0
 10 16  1  0  0  0  0
 10 18  1  0  0  0  0
 12 11  1  0  0  0  0
 12  8  1  0  0  0  0
 13 10  1  0  0  0  0
 14 12  1  0  0  0  0
 15  5  1  0  0  0  0
 15  9  1  0  0  0  0
 16 18  1  0  0  0  0
 16  1  1  0  0  0  0
 17 19  1  0  0  0  0
 19 14  1  0  0  0  0
 20 17  1  0  0  0  0
 21 20  1  0  0  0  0
 22 21  1  0  0  0  0
 23 20  1  0  0  0  0
 25 26  2  0  0  0  0
 26 23  1  0  0  0  0
 26 24  1  0  0  0  0
 27 13  1  0  0  0  0
 28 29  1  0  0  0  0
 28 27  1  0  0  0  0
 30 28  1  0  0  0  0
 30 33  1  0  0  0  0
 31 33  1  0  0  0  0
 32 34  1  0  0  0  0
 32 30  1  0  0  0  0
 34 31  1  0  0  0  0
 35 15  1  0  0  0  0
 36 37  1  0  0  0  0
 37 35  1  0  0  0  0
M  END
>  <MODEL>
8

>  <REMARK>
 VINA RESULT:      -5.8      2.840      4.514
  Name = 
  9 active torsions:
  status: ('A' for Active; 'I' for Inactive)
    1  A    between atoms: N_1  and  C_5
    2  A    between atoms: N_1  and  C_23
    3  A    between atoms: C_2  and  N_6
    4  A    between atoms: N_6  and  C_8
    5  A    between atoms: N_6  and  C_31
    6  A    between atoms: C_8  and  C_19
    7  A    between atoms: C_23  and  C_25
    8  A    between atoms: C_29  and  C_33
    9  A    between atoms: C_33  and  C_36
                            x       y       z     vdW  Elec       q    Type
                         _______ _______ _______ _____ _____    ______ ____

>  <TORSDO>
F 9

$$$$
=
 OpenBabel10262423063D

 37 42  0  0  1  0  0  0  0  0999 V2000
  184.4870  177.2850  145.8130 F   0  0  0  0  0  0  0  0  0  0  0  0
  187.0090  178.8610  141.8370 C   0  0  2  0  0  3  0  0  0  0  0  0
  188.9700  176.4930  139.9840 O   0  0  0  0  0  1  0  0  0  0  0  0
  185.7430  177.9630  143.7520 C   0  0  2  0  0  3  0  0  0  0  0  0
  187.6710  177.5910  141.5870 N   0  0  1  0  0  0  0  0  0  0  0  0
  186.8390  178.9370  143.3280 C   0  0  1  0  0  3  0  0  0  0  0  0
  188.2020  177.6340  140.2260 C   0  0  2  0  0  3  0  0  0  0  0  0
  184.4610  178.2360  142.9760 C   0  0  0  0  0  2  0  0  0  0  0  0
  188.1770  178.4030  143.8030 C   0  0  1  0  0  3  0  0  0  0  0  0
  186.8590  177.6970  146.0400 C   0  0  2  0  0  3  0  0  0  0  0  0
  183.4270  178.2840  140.8920 C   0  0  0  0  0  1  0  0  0  0  0  0
  184.6950  177.9960  141.5470 N   0  0  0  0  0  0  0  0  0  0  0  0
  188.1730  177.7340  145.2070 C   0  0  2  0  0  3  0  0  0  0  0  0
  185.6930  178.9650  141.0590 C   0  0  2  0  0  3  0  0  0  0  0  0
  188.7060  177.5450  142.6250 C   0  0  1  0  0  3  0  0  0  0  0  0
  185.5700  177.9500  145.2680 C   0  0  2  0  0  0  0  0  0  0  0  0
  187.0040  177.6700  139.2380 C   0  0  1  0  0  3  0  0  0  0  0  0
  186.1710  179.0590  146.1180 C   0  0  0  0  0  2  0  0  0  0  0  0
  186.0050  178.8000  139.5590 C   0  0  0  0  0  2  0  0  0  0  0  0
  187.3790  177.7370  137.8160 N   0  0  0  0  0  0  0  0  0  0  0  0
  186.2790  178.1510  136.9240 C   0  0  0  0  0  2  0  0  0  0  0  0
  185.8670  177.0840  135.9120 C   0  0  0  0  0  1  0  0  0  0  0  0
  188.5980  178.5180  137.6220 C   0  0  0  0  0  2  0  0  0  0  0  0
  189.3200  177.8200  135.3420 O   0  0  0  0  0  0  0  0  0  0  0  0
  190.4810  177.1240  137.1920 O   0  0  0  0  0  1  0  0  0  0  0  0
  189.5280  177.7920  136.7140 C   0  0  0  0  0  0  0  0  0  0  0  0
  189.3370  178.2600  146.0350 C   0  0  0  0  0  2  0  0  0  0  0  0
  189.6460  177.3370  147.1180 N   0  0  0  0  0  0  0  0  0  0  0  0
  189.2510  177.9850  148.3630 C   0  0  0  0  0  1  0  0  0  0  0  0
  191.0930  177.0800  147.1050 C   0  0  2  0  0  3  0  0  0  0  0  0
  192.7920  176.3120  148.3240 C   0  0  0  0  0  2  0  0  0  0  0  0
  191.4030  175.7350  146.4860 C   0  0  0  0  0  2  0  0  0  0  0  0
  191.6550  177.1310  148.3940 O   0  0  0  0  0  0  0  0  0  0  0  0
  192.5320  175.2120  147.3210 C   0  0  0  0  0  2  0  0  0  0  0  0
  188.9830  176.0930  143.0150 C   0  0  0  0  0  2  0  0  0  0  0  0
  191.2220  176.9130  143.1550 O   0  0  0  0  0  1  0  0  0  0  0  0
  190.4620  175.7770  142.8800 C   0  0  0  0  0  2  0  0  0  0  0  0
  2  6  1  0  0  0  0
  3  7  1  0  0  0  0
  4 16  1  0  0  0  0
  5  2  1  0  0  0  0
  5 15  1  0  0  0  0
  6  4  1  0  0  0  0
  6  9  1  0  0  0  0
  7  5  1  0  0  0  0
  8  4  1  0  0  0  0
  9 13  1  0  0  0  0
 10 18  1  0  0  0  0
 11 12  1  0  0  0  0
 12  8  1  0  0  0  0
 13 27  1  0  0  0  0
 13 10  1  0  0  0  0
 14 12  1  0  0  0  0
 14  2  1  0  0  0  0
 15 35  1  0  0  0  0
 15  9  1  0  0  0  0
 16  1  1  0  0  0  0
 16 10  1  0  0  0  0
 16 18  1  0  0  0  0
 17 19  1  0  0  0  0
 17  7  1  0  0  0  0
 19 14  1  0  0  0  0
 20 17  1  0  0  0  0
 21 20  1  0  0  0  0
 22 21  1  0  0  0  0
 23 20  1  0  0  0  0
 24 26  2  0  0  0  0
 26 25  1  0  0  0  0
 26 23  1  0  0  0  0
 27 28  1  0  0  0  0
 28 29  1  0  0  0  0
 30 28  1  0  0  0  0
 30 33  1  0  0  0  0
 31 33  1  0  0  0  0
 32 30  1  0  0  0  0
 32 34  1  0  0  0  0
 34 31  1  0  0  0  0
 37 35  1  0  0  0  0
 37 36  1  0  0  0  0
M  END
>  <MODEL>
9

>  <REMARK>
 VINA RESULT:      -5.8      2.954      5.248
  Name = 
  9 active torsions:
  status: ('A' for Active; 'I' for Inactive)
    1  A    between atoms: N_1  and  C_5
    2  A    between atoms: N_1  and  C_23
    3  A    between atoms: C_2  and  N_6
    4  A    between atoms: N_6  and  C_8
    5  A    between atoms: N_6  and  C_31
    6  A    between atoms: C_8  and  C_19
    7  A    between atoms: C_23  and  C_25
    8  A    between atoms: C_29  and  C_33
    9  A    between atoms: C_33  and  C_36
                            x       y       z     vdW  Elec       q    Type
                         _______ _______ _______ _____ _____    ______ ____

>  <TORSDO>
F 9

$$$$
