=
 OpenBabel10262421053D

 32 34  0  0  1  0  0  0  0  0999 V2000
  188.4080  177.4200  144.6170 N   0  0  0  0  0  0  0  0  0  0  0  0
  190.1760  179.3800  143.6810 C   0  0  0  0  0  2  0  0  0  0  0  0
  188.3540  177.5070  143.1600 C   0  0  2  0  0  3  0  0  0  0  0  0
  191.9660  177.9670  142.8070 C   0  0  0  0  0  2  0  0  0  0  0  0
  190.6490  177.2210  142.6440 C   0  0  1  0  0  0  0  0  0  0  0  0
  189.5930  176.6140  145.0250 C   0  0  1  0  0  3  0  0  0  0  0  0
  191.7040  175.3040  144.1230 C   0  0  0  0  0  1  0  0  0  0  0  0
  190.4950  176.1800  143.8140 C   0  0  2  0  0  3  0  0  0  0  0  0
  189.5920  178.3540  142.7180 C   0  0  2  0  0  0  0  0  0  0  0  0
  191.6830  179.2230  143.6130 C   0  0  0  0  0  2  0  0  0  0  0  0
  188.1220  178.8220  142.5260 C   0  0  1  0  0  3  0  0  0  0  0  0
  190.3790  177.3580  146.1230 C   0  0  2  0  0  3  0  0  0  0  0  0
  191.7380  177.0420  146.0720 O   0  0  0  0  0  1  0  0  0  0  0  0
  189.8450  177.0550  147.5210 C   0  0  0  0  0  2  0  0  0  0  0  0
  189.3040  178.2060  148.0990 O   0  0  0  0  0  1  0  0  0  0  0  0
  187.9600  177.4740  140.5590 C   0  0  0  0  0  1  0  0  0  0  0  0
  187.6610  178.7840  141.1170 N   0  0  0  0  0  0  0  0  0  0  0  0
  186.2420  179.0530  140.8990 C   0  0  0  0  0  2  0  0  0  0  0  0
  185.4730  178.9020  142.2000 C   0  0  0  0  0  2  0  0  0  0  0  0
  184.0410  178.4780  141.9230 C   0  0  0  0  0  2  0  0  0  0  0  0
  183.2590  178.7210  143.0520 O   0  0  0  0  0  1  0  0  0  0  0  0
  187.2300  176.6720  145.0340 C   0  0  0  0  0  2  0  0  0  0  0  0
  186.5410  177.3930  146.1770 C   0  0  0  0  0  2  0  0  0  0  0  0
  185.8480  178.6330  145.6460 C   0  0  0  0  0  1  0  0  0  0  0  0
  190.6710  176.5250  141.2820 C   0  0  0  0  0  2  0  0  0  0  0  0
  191.3580  177.2910  140.3330 O   0  0  0  0  0  0  0  0  0  0  0  0
  191.6590  176.4030  139.2980 C   0  0  1  0  0  3  0  0  0  0  0  0
  190.1310  177.4720  137.7880 O   0  0  0  0  0  0  0  0  0  0  0  0
  189.9680  175.1560  137.8960 N   0  0  0  0  0  1  0  0  0  0  0  0
  190.5490  176.3940  138.2910 C   0  0  0  0  0  0  0  0  0  0  0  0
  192.9540  176.8030  138.6620 C   0  0  0  0  0  3  0  0  0  0  0  0
  193.3970  176.1940  137.5640 C   0  0  0  0  0  2  0  0  0  0  0  0
  1  6  1  0  0  0  0
  1 22  1  0  0  0  0
  3  1  1  1  0  0  0
  4 10  1  0  0  0  0
  5 25  1  6  0  0  0
  5  9  1  0  0  0  0
  5  4  1  0  0  0  0
  5  8  1  0  0  0  0
  6 12  1  1  0  0  0
  8  7  1  1  0  0  0
  8  6  1  0  0  0  0
  9  3  1  0  0  0  0
  9  2  1  1  0  0  0
 10  2  1  0  0  0  0
 11 17  1  6  0  0  0
 11  9  1  0  0  0  0
 11  3  1  0  0  0  0
 12 13  1  1  0  0  0
 12 14  1  0  0  0  0
 14 15  1  0  0  0  0
 16 17  1  0  0  0  0
 18 17  1  0  0  0  0
 18 19  1  0  0  0  0
 20 19  1  0  0  0  0
 20 21  1  0  0  0  0
 22 23  1  0  0  0  0
 24 23  1  0  0  0  0
 26 25  1  0  0  0  0
 27 31  1  6  0  0  0
 27 26  1  0  0  0  0
 28 30  2  0  0  0  0
 29 30  1  0  0  0  0
 30 27  1  0  0  0  0
 32 31  2  0  0  0  0
M  END
>  <MODEL>
1

>  <REMARK>
 VINA RESULT:      -5.4      0.000      0.000
  Name = 
  13 active torsions:
  status: ('A' for Active; 'I' for Inactive)
    1  A    between atoms: C_1  and  C_4
    2  A    between atoms: C_1  and  C_27
    3  A    between atoms: C_2  and  N_5
    4  A    between atoms: C_2  and  C_14
    5  A    between atoms: O_3  and  C_19
    6  A    between atoms: O_3  and  C_22
    7  A    between atoms: C_6  and  C_13
    8  A    between atoms: C_6  and  C_18
    9  A    between atoms: C_12  and  C_22
   10  A    between atoms: C_15  and  C_19
   11  A    between atoms: C_19  and  C_26
   12  A    between atoms: N_24  and  C_27
   13  A    between atoms: N_24  and  C_32
                            x       y       z     vdW  Elec       q    Type
                         _______ _______ _______ _____ _____    ______ ____

>  <TORSDO>
F 13

$$$$
=
 OpenBabel10262421053D

 32 34  0  0  1  0  0  0  0  0999 V2000
  181.1600  176.7530  139.3740 N   0  0  0  0  0  0  0  0  0  0  0  0
  181.5810  179.1730  138.0280 C   0  0  0  0  0  2  0  0  0  0  0  0
  182.1220  176.5770  138.2880 C   0  0  2  0  0  3  0  0  0  0  0  0
  183.7770  179.7800  138.9050 C   0  0  0  0  0  2  0  0  0  0  0  0
  183.6910  178.2620  138.8500 C   0  0  1  0  0  0  0  0  0  0  0  0
  181.8460  177.3470  140.5560 C   0  0  1  0  0  3  0  0  0  0  0  0
  184.1540  178.2740  141.4500 C   0  0  0  0  0  1  0  0  0  0  0  0
  183.3500  177.7100  140.2840 C   0  0  2  0  0  3  0  0  0  0  0  0
  182.5470  178.0120  137.8320 C   0  0  2  0  0  0  0  0  0  0  0  0
  182.4030  180.3290  138.5650 C   0  0  0  0  0  2  0  0  0  0  0  0
  181.7590  177.0240  136.9270 C   0  0  1  0  0  3  0  0  0  0  0  0
  181.0270  178.5380  141.0910 C   0  0  2  0  0  3  0  0  0  0  0  0
  181.2260  178.7120  142.4620 O   0  0  0  0  0  1  0  0  0  0  0  0
  179.5330  178.3820  140.8170 C   0  0  0  0  0  2  0  0  0  0  0  0
  178.9310  177.6080  141.8110 O   0  0  0  0  0  1  0  0  0  0  0  0
  183.2560  177.5280  135.1310 C   0  0  0  0  0  1  0  0  0  0  0  0
  182.5680  176.4480  135.8250 N   0  0  0  0  0  0  0  0  0  0  0  0
  183.5670  175.4550  136.2120 C   0  0  0  0  0  2  0  0  0  0  0  0
  184.8200  175.6140  135.3670 C   0  0  0  0  0  2  0  0  0  0  0  0
  185.8360  174.5410  135.7190 C   0  0  0  0  0  2  0  0  0  0  0  0
  186.2990  174.7500  137.0180 O   0  0  0  0  0  1  0  0  0  0  0  0
  180.7280  175.4190  139.7670 C   0  0  0  0  0  2  0  0  0  0  0  0
  179.4200  175.0790  139.0770 C   0  0  0  0  0  2  0  0  0  0  0  0
  179.5820  173.7850  138.3030 C   0  0  0  0  0  1  0  0  0  0  0  0
  185.0400  177.7340  138.3590 C   0  0  0  0  0  2  0  0  0  0  0  0
  186.0730  178.6300  138.6580 O   0  0  0  0  0  0  0  0  0  0  0  0
  187.2520  177.9190  138.4220 C   0  0  1  0  0  3  0  0  0  0  0  0
  188.4210  179.6180  137.1960 O   0  0  0  0  0  0  0  0  0  0  0  0
  188.0500  177.6350  136.0430 N   0  0  0  0  0  1  0  0  0  0  0  0
  187.9380  178.4530  137.2020 C   0  0  0  0  0  0  0  0  0  0  0  0
  188.1410  178.0190  139.6220 C   0  0  0  0  0  3  0  0  0  0  0  0
  187.6920  178.5300  140.7670 C   0  0  0  0  0  2  0  0  0  0  0  0
  1 22  1  0  0  0  0
  1  6  1  0  0  0  0
  2 10  1  0  0  0  0
  3  1  1  1  0  0  0
  5 25  1  6  0  0  0
  5  4  1  0  0  0  0
  5  8  1  0  0  0  0
  6 12  1  6  0  0  0
  8  6  1  0  0  0  0
  8  7  1  1  0  0  0
  9  2  1  1  0  0  0
  9  3  1  0  0  0  0
  9  5  1  0  0  0  0
 10  4  1  0  0  0  0
 11 17  1  6  0  0  0
 11  9  1  0  0  0  0
 11  3  1  0  0  0  0
 12 13  1  1  0  0  0
 14 12  1  0  0  0  0
 14 15  1  0  0  0  0
 16 17  1  0  0  0  0
 17 18  1  0  0  0  0
 19 20  1  0  0  0  0
 19 18  1  0  0  0  0
 20 21  1  0  0  0  0
 23 22  1  0  0  0  0
 24 23  1  0  0  0  0
 25 26  1  0  0  0  0
 27 26  1  0  0  0  0
 27 31  1  1  0  0  0
 28 30  2  0  0  0  0
 29 30  1  0  0  0  0
 30 27  1  0  0  0  0
 31 32  2  0  0  0  0
M  END
>  <MODEL>
2

>  <REMARK>
 VINA RESULT:      -5.3      4.945      8.384
  Name = 
  13 active torsions:
  status: ('A' for Active; 'I' for Inactive)
    1  A    between atoms: C_1  and  C_4
    2  A    between atoms: C_1  and  C_27
    3  A    between atoms: C_2  and  N_5
    4  A    between atoms: C_2  and  C_14
    5  A    between atoms: O_3  and  C_19
    6  A    between atoms: O_3  and  C_22
    7  A    between atoms: C_6  and  C_13
    8  A    between atoms: C_6  and  C_18
    9  A    between atoms: C_12  and  C_22
   10  A    between atoms: C_15  and  C_19
   11  A    between atoms: C_19  and  C_26
   12  A    between atoms: N_24  and  C_27
   13  A    between atoms: N_24  and  C_32
                            x       y       z     vdW  Elec       q    Type
                         _______ _______ _______ _____ _____    ______ ____

>  <TORSDO>
F 13

$$$$
=
 OpenBabel10262421053D

 32 34  0  0  1  0  0  0  0  0999 V2000
  185.9830  174.8830  136.6730 N   0  0  0  0  0  0  0  0  0  0  0  0
  187.2190  176.5640  134.8040 C   0  0  0  0  0  2  0  0  0  0  0  0
  187.3840  175.1050  137.0270 C   0  0  2  0  0  3  0  0  0  0  0  0
  187.3190  178.6390  136.0870 C   0  0  0  0  0  2  0  0  0  0  0  0
  187.4320  177.4740  137.0590 C   0  0  1  0  0  0  0  0  0  0  0  0
  185.1680  176.0510  137.1120 C   0  0  1  0  0  3  0  0  0  0  0  0
  185.2800  178.4330  138.2520 C   0  0  0  0  0  1  0  0  0  0  0  0
  186.0290  177.2160  137.7230 C   0  0  2  0  0  3  0  0  0  0  0  0
  187.8820  176.3000  136.1500 C   0  0  2  0  0  0  0  0  0  0  0  0
  187.0070  178.0630  134.7180 C   0  0  0  0  0  2  0  0  0  0  0  0
  188.4300  174.8520  136.0140 C   0  0  1  0  0  3  0  0  0  0  0  0
  184.2590  176.5180  135.9580 C   0  0  2  0  0  3  0  0  0  0  0  0
  183.0120  176.9290  136.4320 O   0  0  0  0  0  1  0  0  0  0  0  0
  184.0620  175.4310  134.9030 C   0  0  0  0  0  2  0  0  0  0  0  0
  182.8100  174.8280  135.0490 O   0  0  0  0  0  1  0  0  0  0  0  0
  190.2070  173.2920  136.3700 C   0  0  0  0  0  1  0  0  0  0  0  0
  189.8060  174.6810  136.5400 N   0  0  0  0  0  0  0  0  0  0  0  0
  190.8340  175.5230  135.9330 C   0  0  0  0  0  2  0  0  0  0  0  0
  191.5350  176.3470  137.0000 C   0  0  0  0  0  2  0  0  0  0  0  0
  193.0240  176.0510  137.0050 C   0  0  0  0  0  2  0  0  0  0  0  0
  193.2460  174.8010  137.5820 O   0  0  0  0  0  1  0  0  0  0  0  0
  185.5320  173.7410  137.4540 C   0  0  0  0  0  2  0  0  0  0  0  0
  185.5860  172.4850  136.6060 C   0  0  0  0  0  2  0  0  0  0  0  0
  184.1970  171.8830  136.5090 C   0  0  0  0  0  1  0  0  0  0  0  0
  188.4820  177.8400  138.1090 C   0  0  0  0  0  2  0  0  0  0  0  0
  188.3730  177.0210  139.2400 O   0  0  0  0  0  0  0  0  0  0  0  0
  189.0410  177.7110  140.2550 C   0  0  1  0  0  3  0  0  0  0  0  0
  187.1760  178.8240  141.2740 O   0  0  0  0  0  0  0  0  0  0  0  0
  188.2640  177.2710  142.6170 N   0  0  0  0  0  1  0  0  0  0  0  0
  188.1050  177.9810  141.3930 C   0  0  0  0  0  0  0  0  0  0  0  0
  190.2190  176.9070  140.7100 C   0  0  0  0  0  3  0  0  0  0  0  0
  191.4560  177.3890  140.6170 C   0  0  0  0  0  2  0  0  0  0  0  0
  1  6  1  0  0  0  0
  1 22  1  0  0  0  0
  3  1  1  6  0  0  0
  4  5  1  0  0  0  0
  5  8  1  0  0  0  0
  5 25  1  1  0  0  0
  6 12  1  6  0  0  0
  6  8  1  0  0  0  0
  8  7  1  6  0  0  0
  9  2  1  6  0  0  0
  9  3  1  0  0  0  0
  9  5  1  0  0  0  0
 10  2  1  0  0  0  0
 10  4  1  0  0  0  0
 11  9  1  0  0  0  0
 11 17  1  1  0  0  0
 11  3  1  0  0  0  0
 12 13  1  1  0  0  0
 14 15  1  0  0  0  0
 14 12  1  0  0  0  0
 16 17  1  0  0  0  0
 18 17  1  0  0  0  0
 18 19  1  0  0  0  0
 19 20  1  0  0  0  0
 20 21  1  0  0  0  0
 23 22  1  0  0  0  0
 24 23  1  0  0  0  0
 25 26  1  0  0  0  0
 26 27  1  0  0  0  0
 27 31  1  1  0  0  0
 27 30  1  0  0  0  0
 28 30  2  0  0  0  0
 30 29  1  0  0  0  0
 32 31  2  0  0  0  0
M  END
>  <MODEL>
3

>  <REMARK>
 VINA RESULT:      -5.3      4.319      8.674
  Name = 
  13 active torsions:
  status: ('A' for Active; 'I' for Inactive)
    1  A    between atoms: C_1  and  C_4
    2  A    between atoms: C_1  and  C_27
    3  A    between atoms: C_2  and  N_5
    4  A    between atoms: C_2  and  C_14
    5  A    between atoms: O_3  and  C_19
    6  A    between atoms: O_3  and  C_22
    7  A    between atoms: C_6  and  C_13
    8  A    between atoms: C_6  and  C_18
    9  A    between atoms: C_12  and  C_22
   10  A    between atoms: C_15  and  C_19
   11  A    between atoms: C_19  and  C_26
   12  A    between atoms: N_24  and  C_27
   13  A    between atoms: N_24  and  C_32
                            x       y       z     vdW  Elec       q    Type
                         _______ _______ _______ _____ _____    ______ ____

>  <TORSDO>
F 13

$$$$
=
 OpenBabel10262421053D

 32 34  0  0  1  0  0  0  0  0999 V2000
  187.8670  178.0360  141.8570 N   0  0  0  0  0  0  0  0  0  0  0  0
  188.6760  175.6280  143.0370 C   0  0  0  0  0  2  0  0  0  0  0  0
  187.6110  178.0570  143.2960 C   0  0  2  0  0  3  0  0  0  0  0  0
  190.7380  176.3500  144.1250 C   0  0  0  0  0  2  0  0  0  0  0  0
  189.7750  177.5270  144.1060 C   0  0  1  0  0  0  0  0  0  0  0  0
  189.3040  178.3370  141.6010 C   0  0  1  0  0  3  0  0  0  0  0  0
  191.6230  178.8490  142.7610 C   0  0  0  0  0  1  0  0  0  0  0  0
  190.1510  178.4860  142.9160 C   0  0  2  0  0  3  0  0  0  0  0  0
  188.3940  176.8480  143.9050 C   0  0  2  0  0  0  0  0  0  0  0  0
  190.1160  175.2370  143.3020 C   0  0  0  0  0  2  0  0  0  0  0  0
  186.8430  176.9520  143.9050 C   0  0  1  0  0  3  0  0  0  0  0  0
  189.8900  177.2990  140.6240 C   0  0  2  0  0  3  0  0  0  0  0  0
  191.2580  177.5020  140.4330 O   0  0  0  0  0  1  0  0  0  0  0  0
  189.1860  177.3200  139.2690 C   0  0  0  0  0  2  0  0  0  0  0  0
  189.3590  178.5580  138.6460 O   0  0  0  0  0  1  0  0  0  0  0  0
  187.1260  176.6540  146.2610 C   0  0  0  0  0  1  0  0  0  0  0  0
  186.2630  177.2330  145.2410 N   0  0  0  0  0  0  0  0  0  0  0  0
  186.0620  178.6430  145.5700 C   0  0  0  0  0  2  0  0  0  0  0  0
  184.5790  178.9430  145.7070 C   0  0  0  0  0  2  0  0  0  0  0  0
  183.9600  179.1820  144.3400 C   0  0  0  0  0  2  0  0  0  0  0  0
  182.6800  178.6280  144.3080 O   0  0  0  0  0  1  0  0  0  0  0  0
  187.1010  179.1330  141.2820 C   0  0  0  0  0  2  0  0  0  0  0  0
  185.6500  178.7180  141.1230 C   0  0  0  0  0  2  0  0  0  0  0  0
  185.3110  178.6290  139.6470 C   0  0  0  0  0  1  0  0  0  0  0  0
  189.8850  178.2450  145.4520 C   0  0  0  0  0  2  0  0  0  0  0  0
  191.0580  177.8810  146.1250 O   0  0  0  0  0  0  0  0  0  0  0  0
  190.6280  177.1500  147.2360 C   0  0  1  0  0  3  0  0  0  0  0  0
  191.8370  175.0780  147.2800 O   0  0  0  0  0  0  0  0  0  0  0  0
  192.6630  176.7430  148.6750 N   0  0  0  0  0  1  0  0  0  0  0  0
  191.7290  176.2550  147.7180 C   0  0  0  0  0  0  0  0  0  0  0  0
  190.1950  178.0950  148.3140 C   0  0  0  0  0  3  0  0  0  0  0  0
  188.9080  178.2510  148.6130 C   0  0  0  0  0  2  0  0  0  0  0  0
  2 10  1  0  0  0  0
  3  1  1  6  0  0  0
  3 11  1  0  0  0  0
  3  9  1  0  0  0  0
  5  4  1  0  0  0  0
  5 25  1  1  0  0  0
  6 12  1  6  0  0  0
  6  1  1  0  0  0  0
  6  8  1  0  0  0  0
  8  7  1  6  0  0  0
  8  5  1  0  0  0  0
  9  2  1  6  0  0  0
  9  5  1  0  0  0  0
 10  4  1  0  0  0  0
 11  9  1  0  0  0  0
 11 17  1  1  0  0  0
 12 13  1  6  0  0  0
 14 12  1  0  0  0  0
 15 14  1  0  0  0  0
 17 18  1  0  0  0  0
 17 16  1  0  0  0  0
 18 19  1  0  0  0  0
 20 19  1  0  0  0  0
 21 20  1  0  0  0  0
 22  1  1  0  0  0  0
 23 22  1  0  0  0  0
 24 23  1  0  0  0  0
 25 26  1  0  0  0  0
 26 27  1  0  0  0  0
 27 30  1  0  0  0  0
 27 31  1  1  0  0  0
 28 30  2  0  0  0  0
 30 29  1  0  0  0  0
 31 32  2  0  0  0  0
M  END
>  <MODEL>
4

>  <REMARK>
 VINA RESULT:      -5.2      1.921      6.094
  Name = 
  13 active torsions:
  status: ('A' for Active; 'I' for Inactive)
    1  A    between atoms: C_1  and  C_4
    2  A    between atoms: C_1  and  C_27
    3  A    between atoms: C_2  and  N_5
    4  A    between atoms: C_2  and  C_14
    5  A    between atoms: O_3  and  C_19
    6  A    between atoms: O_3  and  C_22
    7  A    between atoms: C_6  and  C_13
    8  A    between atoms: C_6  and  C_18
    9  A    between atoms: C_12  and  C_22
   10  A    between atoms: C_15  and  C_19
   11  A    between atoms: C_19  and  C_26
   12  A    between atoms: N_24  and  C_27
   13  A    between atoms: N_24  and  C_32
                            x       y       z     vdW  Elec       q    Type
                         _______ _______ _______ _____ _____    ______ ____

>  <TORSDO>
F 13

$$$$
=
 OpenBabel10262421053D

 32 34  0  0  1  0  0  0  0  0999 V2000
  190.7840  176.9090  138.3900 N   0  0  0  0  0  0  0  0  0  0  0  0
  190.3110  177.4210  135.6770 C   0  0  0  0  0  2  0  0  0  0  0  0
  189.3750  177.2280  138.1640 C   0  0  2  0  0  3  0  0  0  0  0  0
  189.1980  175.3460  135.0310 C   0  0  0  0  0  2  0  0  0  0  0  0
  188.8570  175.6360  136.4860 C   0  0  1  0  0  0  0  0  0  0  0  0
  191.0380  175.4870  138.0270 C   0  0  1  0  0  3  0  0  0  0  0  0
  189.9250  173.2910  137.0650 C   0  0  0  0  0  1  0  0  0  0  0  0
  189.7810  174.7660  137.4180 C   0  0  2  0  0  3  0  0  0  0  0  0
  189.1440  177.1550  136.6190 C   0  0  2  0  0  0  0  0  0  0  0  0
  190.2410  176.3600  134.5960 C   0  0  0  0  0  2  0  0  0  0  0  0
  189.0260  178.4680  137.4420 C   0  0  1  0  0  3  0  0  0  0  0  0
  192.2820  175.3920  137.1210 C   0  0  2  0  0  3  0  0  0  0  0  0
  192.9580  174.1860  137.3180 O   0  0  0  0  0  1  0  0  0  0  0  0
  193.2490  176.5520  137.3460 C   0  0  0  0  0  2  0  0  0  0  0  0
  194.3160  176.4820  136.4470 O   0  0  0  0  0  1  0  0  0  0  0  0
  186.9360  178.8390  136.3400 C   0  0  0  0  0  1  0  0  0  0  0  0
  187.6310  178.9410  137.6150 N   0  0  0  0  0  0  0  0  0  0  0  0
  186.8340  178.2370  138.6180 C   0  0  0  0  0  2  0  0  0  0  0  0
  185.4070  178.0620  138.1250 C   0  0  0  0  0  2  0  0  0  0  0  0
  184.4290  178.6870  139.1050 C   0  0  0  0  0  2  0  0  0  0  0  0
  184.6220  180.0680  139.1340 O   0  0  0  0  0  1  0  0  0  0  0  0
  191.0120  177.0230  139.8230 C   0  0  0  0  0  2  0  0  0  0  0  0
  189.6900  176.9290  140.5620 C   0  0  0  0  0  2  0  0  0  0  0  0
  189.9480  176.5420  142.0060 C   0  0  0  0  0  1  0  0  0  0  0  0
  187.3810  175.2960  136.6980 C   0  0  0  0  0  2  0  0  0  0  0  0
  186.7620  174.9530  135.4900 O   0  0  0  0  0  0  0  0  0  0  0  0
  186.0080  173.8120  135.7780 C   0  0  1  0  0  3  0  0  0  0  0  0
  183.7050  173.1540  135.6370 O   0  0  0  0  0  0  0  0  0  0  0  0
  184.1880  175.2710  134.8110 N   0  0  0  0  0  1  0  0  0  0  0  0
  184.5730  174.0400  135.4120 C   0  0  0  0  0  0  0  0  0  0  0  0
  186.5720  172.6430  135.0320 C   0  0  0  0  0  3  0  0  0  0  0  0
  186.9350  171.5330  135.6690 C   0  0  0  0  0  2  0  0  0  0  0  0
  1 22  1  0  0  0  0
  3  1  1  6  0  0  0
  4  5  1  0  0  0  0
  5  9  1  0  0  0  0
  5 25  1  1  0  0  0
  5  8  1  0  0  0  0
  6 12  1  6  0  0  0
  6  1  1  0  0  0  0
  8  7  1  6  0  0  0
  8  6  1  0  0  0  0
  9  2  1  6  0  0  0
  9 11  1  0  0  0  0
  9  3  1  0  0  0  0
 10  4  1  0  0  0  0
 10  2  1  0  0  0  0
 11 17  1  1  0  0  0
 11  3  1  0  0  0  0
 12 13  1  1  0  0  0
 12 14  1  0  0  0  0
 15 14  1  0  0  0  0
 16 17  1  0  0  0  0
 17 18  1  0  0  0  0
 19 18  1  0  0  0  0
 19 20  1  0  0  0  0
 20 21  1  0  0  0  0
 22 23  1  0  0  0  0
 23 24  1  0  0  0  0
 26 27  1  0  0  0  0
 26 25  1  0  0  0  0
 27 31  1  6  0  0  0
 29 30  1  0  0  0  0
 30 28  2  0  0  0  0
 30 27  1  0  0  0  0
 31 32  2  0  0  0  0
M  END
>  <MODEL>
5

>  <REMARK>
 VINA RESULT:      -5.2      4.133      7.186
  Name = 
  13 active torsions:
  status: ('A' for Active; 'I' for Inactive)
    1  A    between atoms: C_1  and  C_4
    2  A    between atoms: C_1  and  C_27
    3  A    between atoms: C_2  and  N_5
    4  A    between atoms: C_2  and  C_14
    5  A    between atoms: O_3  and  C_19
    6  A    between atoms: O_3  and  C_22
    7  A    between atoms: C_6  and  C_13
    8  A    between atoms: C_6  and  C_18
    9  A    between atoms: C_12  and  C_22
   10  A    between atoms: C_15  and  C_19
   11  A    between atoms: C_19  and  C_26
   12  A    between atoms: N_24  and  C_27
   13  A    between atoms: N_24  and  C_32
                            x       y       z     vdW  Elec       q    Type
                         _______ _______ _______ _____ _____    ______ ____

>  <TORSDO>
F 13

$$$$
=
 OpenBabel10262421053D

 32 34  0  0  1  0  0  0  0  0999 V2000
  180.2350  177.6730  139.8110 N   0  0  0  0  0  0  0  0  0  0  0  0
  181.1190  179.8420  138.2750 C   0  0  0  0  0  2  0  0  0  0  0  0
  181.0490  177.2110  138.6890 C   0  0  2  0  0  3  0  0  0  0  0  0
  183.4530  179.9530  138.9850 C   0  0  0  0  0  2  0  0  0  0  0  0
  183.0070  178.4990  139.0430 C   0  0  1  0  0  0  0  0  0  0  0  0
  181.1230  178.1500  140.9090 C   0  0  1  0  0  3  0  0  0  0  0  0
  183.6410  178.5450  141.6060 C   0  0  0  0  0  1  0  0  0  0  0  0
  182.6480  178.1260  140.5290 C   0  0  2  0  0  3  0  0  0  0  0  0
  181.7680  178.4740  138.1100 C   0  0  2  0  0  0  0  0  0  0  0  0
  182.2260  180.7950  138.6820 C   0  0  0  0  0  2  0  0  0  0  0  0
  180.7070  177.6540  137.3220 C   0  0  1  0  0  3  0  0  0  0  0  0
  180.6480  179.5320  141.4010 C   0  0  2  0  0  3  0  0  0  0  0  0
  180.7650  179.6410  142.7880 O   0  0  0  0  0  1  0  0  0  0  0  0
  179.2060  179.8260  140.9950 C   0  0  0  0  0  2  0  0  0  0  0  0
  178.9990  181.2030  140.8830 O   0  0  0  0  0  1  0  0  0  0  0  0
  182.2080  177.6620  135.4610 C   0  0  0  0  0  1  0  0  0  0  0  0
  181.2780  176.8400  136.2210 N   0  0  0  0  0  0  0  0  0  0  0  0
  181.9780  175.6210  136.6200 C   0  0  0  0  0  2  0  0  0  0  0  0
  181.1410  174.4000  136.2760 C   0  0  0  0  0  2  0  0  0  0  0  0
  181.5690  173.2120  137.1200 C   0  0  0  0  0  2  0  0  0  0  0  0
  180.4550  172.4220  137.4060 O   0  0  0  0  0  1  0  0  0  0  0  0
  179.5290  176.5070  140.3220 C   0  0  0  0  0  2  0  0  0  0  0  0
  180.3230  175.2510  140.0160 C   0  0  0  0  0  2  0  0  0  0  0  0
  179.5150  174.0330  140.4210 C   0  0  0  0  0  1  0  0  0  0  0  0
  184.1560  177.6350  138.5180 C   0  0  0  0  0  2  0  0  0  0  0  0
  185.3730  178.3250  138.5720 O   0  0  0  0  0  0  0  0  0  0  0  0
  186.0490  177.9620  137.4040 C   0  0  1  0  0  3  0  0  0  0  0  0
  188.1700  179.0810  137.3240 O   0  0  0  0  0  0  0  0  0  0  0  0
  188.2140  176.9230  138.1850 N   0  0  0  0  0  1  0  0  0  0  0  0
  187.5290  178.0380  137.6250 C   0  0  0  0  0  0  0  0  0  0  0  0
  185.6380  176.5800  137.0030 C   0  0  0  0  0  3  0  0  0  0  0  0
  185.6900  176.1910  135.7300 C   0  0  0  0  0  2  0  0  0  0  0  0
  1 22  1  0  0  0  0
  1  6  1  0  0  0  0
  2 10  1  0  0  0  0
  3  1  1  1  0  0  0
  4  5  1  0  0  0  0
  5 25  1  6  0  0  0
  5  8  1  0  0  0  0
  6 12  1  6  0  0  0
  8  6  1  0  0  0  0
  8  7  1  1  0  0  0
  9  2  1  1  0  0  0
  9  3  1  0  0  0  0
  9  5  1  0  0  0  0
 10  4  1  0  0  0  0
 11 17  1  6  0  0  0
 11  9  1  0  0  0  0
 11  3  1  0  0  0  0
 12 13  1  1  0  0  0
 14 12  1  0  0  0  0
 15 14  1  0  0  0  0
 16 17  1  0  0  0  0
 17 18  1  0  0  0  0
 19 18  1  0  0  0  0
 19 20  1  0  0  0  0
 20 21  1  0  0  0  0
 23 22  1  0  0  0  0
 23 24  1  0  0  0  0
 25 26  1  0  0  0  0
 27 31  1  1  0  0  0
 27 30  1  0  0  0  0
 27 26  1  0  0  0  0
 28 30  2  0  0  0  0
 30 29  1  0  0  0  0
 32 31  2  0  0  0  0
M  END
>  <MODEL>
6

>  <REMARK>
 VINA RESULT:      -5.1      5.849      8.788
  Name = 
  13 active torsions:
  status: ('A' for Active; 'I' for Inactive)
    1  A    between atoms: C_1  and  C_4
    2  A    between atoms: C_1  and  C_27
    3  A    between atoms: C_2  and  N_5
    4  A    between atoms: C_2  and  C_14
    5  A    between atoms: O_3  and  C_19
    6  A    between atoms: O_3  and  C_22
    7  A    between atoms: C_6  and  C_13
    8  A    between atoms: C_6  and  C_18
    9  A    between atoms: C_12  and  C_22
   10  A    between atoms: C_15  and  C_19
   11  A    between atoms: C_19  and  C_26
   12  A    between atoms: N_24  and  C_27
   13  A    between atoms: N_24  and  C_32
                            x       y       z     vdW  Elec       q    Type
                         _______ _______ _______ _____ _____    ______ ____

>  <TORSDO>
F 13

$$$$
=
 OpenBabel10262421053D

 32 34  0  0  1  0  0  0  0  0999 V2000
  190.5580  176.8910  138.4290 N   0  0  0  0  0  0  0  0  0  0  0  0
  190.1720  177.4400  135.7090 C   0  0  0  0  0  2  0  0  0  0  0  0
  189.1580  177.2170  138.1630 C   0  0  2  0  0  3  0  0  0  0  0  0
  189.0750  175.3770  135.0020 C   0  0  0  0  0  2  0  0  0  0  0  0
  188.6890  175.6490  136.4480 C   0  0  1  0  0  0  0  0  0  0  0  0
  190.8200  175.4730  138.0560 C   0  0  1  0  0  3  0  0  0  0  0  0
  189.7320  173.2930  137.0300 C   0  0  0  0  0  1  0  0  0  0  0  0
  189.5810  174.7640  137.3970 C   0  0  2  0  0  3  0  0  0  0  0  0
  188.9760  177.1640  136.6100 C   0  0  2  0  0  0  0  0  0  0  0  0
  190.1340  176.3930  134.6130 C   0  0  0  0  0  2  0  0  0  0  0  0
  188.8350  178.4670  137.4460 C   0  0  1  0  0  3  0  0  0  0  0  0
  192.0910  175.3860  137.1880 C   0  0  2  0  0  3  0  0  0  0  0  0
  192.6960  174.1330  137.3040 O   0  0  0  0  0  1  0  0  0  0  0  0
  193.1080  176.4680  137.5450 C   0  0  0  0  0  2  0  0  0  0  0  0
  194.4080  176.0210  137.2950 O   0  0  0  0  0  1  0  0  0  0  0  0
  186.8050  178.9310  136.2700 C   0  0  0  0  0  1  0  0  0  0  0  0
  187.4360  178.9420  137.5820 N   0  0  0  0  0  0  0  0  0  0  0  0
  186.5860  178.1830  138.4960 C   0  0  0  0  0  2  0  0  0  0  0  0
  185.1440  178.6470  138.3790 C   0  0  0  0  0  2  0  0  0  0  0  0
  184.5390  178.8490  139.7570 C   0  0  0  0  0  2  0  0  0  0  0  0
  185.5100  179.3620  140.6180 O   0  0  0  0  0  1  0  0  0  0  0  0
  190.7410  176.9850  139.8700 C   0  0  0  0  0  2  0  0  0  0  0  0
  189.4240  177.3450  140.5320 C   0  0  0  0  0  2  0  0  0  0  0  0
  189.4140  176.8140  141.9530 C   0  0  0  0  0  1  0  0  0  0  0  0
  187.2060  175.3110  136.6090 C   0  0  0  0  0  2  0  0  0  0  0  0
  186.7260  174.5980  135.5030 O   0  0  0  0  0  0  0  0  0  0  0  0
  185.3880  174.3270  135.7980 C   0  0  1  0  0  3  0  0  0  0  0  0
  185.2110  171.9340  135.8260 O   0  0  0  0  0  0  0  0  0  0  0  0
  185.2420  172.9550  137.9130 N   0  0  0  0  0  1  0  0  0  0  0  0
  185.2740  173.0030  136.4910 C   0  0  0  0  0  0  0  0  0  0  0  0
  184.8340  175.4260  136.6500 C   0  0  0  0  0  3  0  0  0  0  0  0
  183.5740  175.8310  136.5130 C   0  0  0  0  0  2  0  0  0  0  0  0
  1 22  1  0  0  0  0
  3  1  1  6  0  0  0
  4  5  1  0  0  0  0
  5 25  1  1  0  0  0
  5  9  1  0  0  0  0
  5  8  1  0  0  0  0
  6 12  1  6  0  0  0
  6  1  1  0  0  0  0
  8  7  1  6  0  0  0
  8  6  1  0  0  0  0
  9  2  1  6  0  0  0
  9 11  1  0  0  0  0
  9  3  1  0  0  0  0
 10  4  1  0  0  0  0
 10  2  1  0  0  0  0
 11 17  1  1  0  0  0
 11  3  1  0  0  0  0
 12 13  1  1  0  0  0
 12 14  1  0  0  0  0
 15 14  1  0  0  0  0
 16 17  1  0  0  0  0
 17 18  1  0  0  0  0
 19 18  1  0  0  0  0
 19 20  1  0  0  0  0
 20 21  1  0  0  0  0
 22 23  1  0  0  0  0
 23 24  1  0  0  0  0
 26 27  1  0  0  0  0
 26 25  1  0  0  0  0
 27 30  1  0  0  0  0
 27 31  1  1  0  0  0
 28 30  2  0  0  0  0
 30 29  1  0  0  0  0
 32 31  2  0  0  0  0
M  END
>  <MODEL>
7

>  <REMARK>
 VINA RESULT:      -5.1      3.843      7.118
  Name = 
  13 active torsions:
  status: ('A' for Active; 'I' for Inactive)
    1  A    between atoms: C_1  and  C_4
    2  A    between atoms: C_1  and  C_27
    3  A    between atoms: C_2  and  N_5
    4  A    between atoms: C_2  and  C_14
    5  A    between atoms: O_3  and  C_19
    6  A    between atoms: O_3  and  C_22
    7  A    between atoms: C_6  and  C_13
    8  A    between atoms: C_6  and  C_18
    9  A    between atoms: C_12  and  C_22
   10  A    between atoms: C_15  and  C_19
   11  A    between atoms: C_19  and  C_26
   12  A    between atoms: N_24  and  C_27
   13  A    between atoms: N_24  and  C_32
                            x       y       z     vdW  Elec       q    Type
                         _______ _______ _______ _____ _____    ______ ____

>  <TORSDO>
F 13

$$$$
=
 OpenBabel10262421053D

 32 34  0  0  1  0  0  0  0  0999 V2000
  188.2600  177.3390  144.3650 N   0  0  0  0  0  0  0  0  0  0  0  0
  189.8300  179.2690  143.0780 C   0  0  0  0  0  2  0  0  0  0  0  0
  188.0940  177.2550  142.9150 C   0  0  2  0  0  3  0  0  0  0  0  0
  191.6350  177.8630  142.2260 C   0  0  0  0  0  2  0  0  0  0  0  0
  190.3590  177.0350  142.2520 C   0  0  1  0  0  0  0  0  0  0  0  0
  189.5200  176.6500  144.7630 C   0  0  1  0  0  3  0  0  0  0  0  0
  191.6360  175.3590  143.8450 C   0  0  0  0  0  1  0  0  0  0  0  0
  190.3560  176.1270  143.5390 C   0  0  2  0  0  3  0  0  0  0  0  0
  189.2420  178.1100  142.2850 C   0  0  2  0  0  0  0  0  0  0  0  0
  191.3350  179.1860  142.9080 C   0  0  0  0  0  2  0  0  0  0  0  0
  187.7350  178.4740  142.1610 C   0  0  1  0  0  3  0  0  0  0  0  0
  190.3370  177.5560  145.7050 C   0  0  2  0  0  3  0  0  0  0  0  0
  191.7060  177.3230  145.5680 O   0  0  0  0  0  1  0  0  0  0  0  0
  189.9410  177.3730  147.1680 C   0  0  0  0  0  2  0  0  0  0  0  0
  191.0440  176.9770  147.9290 O   0  0  0  0  0  1  0  0  0  0  0  0
  185.9440  179.0150  140.6730 C   0  0  0  0  0  1  0  0  0  0  0  0
  187.1750  178.2500  140.8060 N   0  0  0  0  0  0  0  0  0  0  0  0
  188.0460  178.6000  139.6850 C   0  0  0  0  0  2  0  0  0  0  0  0
  187.5360  177.9580  138.4060 C   0  0  0  0  0  2  0  0  0  0  0  0
  188.0050  178.7470  137.1950 C   0  0  0  0  0  2  0  0  0  0  0  0
  188.9730  179.6700  137.5910 O   0  0  0  0  0  1  0  0  0  0  0  0
  187.1650  176.5820  144.9540 C   0  0  0  0  0  2  0  0  0  0  0  0
  186.0410  177.5240  145.3440 C   0  0  0  0  0  2  0  0  0  0  0  0
  186.4130  178.2490  146.6230 C   0  0  0  0  0  1  0  0  0  0  0  0
  190.3230  176.1880  140.9790 C   0  0  0  0  0  2  0  0  0  0  0  0
  190.6940  176.9430  139.8590 O   0  0  0  0  0  0  0  0  0  0  0  0
  191.4140  176.0620  139.0480 C   0  0  1  0  0  3  0  0  0  0  0  0
  190.5100  176.6750  136.9110 O   0  0  0  0  0  0  0  0  0  0  0  0
  190.0790  174.4930  137.5860 N   0  0  0  0  0  1  0  0  0  0  0  0
  190.6480  175.7820  137.7910 C   0  0  0  0  0  0  0  0  0  0  0  0
  192.7530  176.6550  138.7380 C   0  0  0  0  0  3  0  0  0  0  0  0
  193.6430  175.9910  138.0040 C   0  0  0  0  0  2  0  0  0  0  0  0
  1  6  1  0  0  0  0
  1 22  1  0  0  0  0
  3  1  1  1  0  0  0
  4  5  1  0  0  0  0
  4 10  1  0  0  0  0
  5 25  1  6  0  0  0
  5  9  1  0  0  0  0
  5  8  1  0  0  0  0
  6 12  1  6  0  0  0
  8  7  1  1  0  0  0
  8  6  1  0  0  0  0
  9  3  1  0  0  0  0
  9  2  1  1  0  0  0
 10  2  1  0  0  0  0
 11 17  1  6  0  0  0
 11  9  1  0  0  0  0
 11  3  1  0  0  0  0
 12 13  1  1  0  0  0
 12 14  1  0  0  0  0
 14 15  1  0  0  0  0
 16 17  1  0  0  0  0
 18 17  1  0  0  0  0
 19 18  1  0  0  0  0
 20 21  1  0  0  0  0
 20 19  1  0  0  0  0
 22 23  1  0  0  0  0
 23 24  1  0  0  0  0
 26 25  1  0  0  0  0
 27 31  1  6  0  0  0
 27 26  1  0  0  0  0
 28 30  2  0  0  0  0
 29 30  1  0  0  0  0
 30 27  1  0  0  0  0
 32 31  2  0  0  0  0
M  END
>  <MODEL>
8

>  <REMARK>
 VINA RESULT:      -5.0      1.672      2.154
  Name = 
  13 active torsions:
  status: ('A' for Active; 'I' for Inactive)
    1  A    between atoms: C_1  and  C_4
    2  A    between atoms: C_1  and  C_27
    3  A    between atoms: C_2  and  N_5
    4  A    between atoms: C_2  and  C_14
    5  A    between atoms: O_3  and  C_19
    6  A    between atoms: O_3  and  C_22
    7  A    between atoms: C_6  and  C_13
    8  A    between atoms: C_6  and  C_18
    9  A    between atoms: C_12  and  C_22
   10  A    between atoms: C_15  and  C_19
   11  A    between atoms: C_19  and  C_26
   12  A    between atoms: N_24  and  C_27
   13  A    between atoms: N_24  and  C_32
                            x       y       z     vdW  Elec       q    Type
                         _______ _______ _______ _____ _____    ______ ____

>  <TORSDO>
F 13

$$$$
=
 OpenBabel10262421053D

 32 34  0  0  1  0  0  0  0  0999 V2000
  180.9480  176.8870  139.5890 N   0  0  0  0  0  0  0  0  0  0  0  0
  183.2140  178.3140  140.4090 C   0  0  0  0  0  2  0  0  0  0  0  0
  180.5620  178.1430  140.2290 C   0  0  2  0  0  3  0  0  0  0  0  0
  183.2800  180.0480  138.6920 C   0  0  0  0  0  2  0  0  0  0  0  0
  181.8250  179.6720  138.9320 C   0  0  1  0  0  0  0  0  0  0  0  0
  181.3520  177.1490  138.1790 C   0  0  1  0  0  3  0  0  0  0  0  0
  181.7020  179.0440  136.3700 C   0  0  0  0  0  1  0  0  0  0  0  0
  181.3550  178.6760  137.8070 C   0  0  2  0  0  3  0  0  0  0  0  0
  181.8610  179.0080  140.3330 C   0  0  2  0  0  0  0  0  0  0  0  0
  184.1390  179.0750  139.4800 C   0  0  0  0  0  2  0  0  0  0  0  0
  181.0940  178.4600  141.5700 C   0  0  1  0  0  3  0  0  0  0  0  0
  182.6980  176.4570  137.8840 C   0  0  2  0  0  3  0  0  0  0  0  0
  183.3800  177.1010  136.8490 O   0  0  0  0  0  1  0  0  0  0  0  0
  182.5230  174.9830  137.5280 C   0  0  0  0  0  2  0  0  0  0  0  0
  181.4250  174.8090  136.6830 O   0  0  0  0  0  1  0  0  0  0  0  0
  178.9310  179.2060  142.2640 C   0  0  0  0  0  1  0  0  0  0  0  0
  180.3560  179.5010  142.3250 N   0  0  0  0  0  0  0  0  0  0  0  0
  180.7220  179.6550  143.7320 C   0  0  0  0  0  2  0  0  0  0  0  0
  181.7920  178.6450  144.1090 C   0  0  0  0  0  2  0  0  0  0  0  0
  183.1290  179.3380  144.3040 C   0  0  0  0  0  2  0  0  0  0  0  0
  183.6420  179.0110  145.5590 O   0  0  0  0  0  1  0  0  0  0  0  0
  179.7500  176.0620  139.5340 C   0  0  0  0  0  2  0  0  0  0  0  0
  180.0270  174.7100  140.1650 C   0  0  0  0  0  2  0  0  0  0  0  0
  179.3610  173.6240  139.3420 C   0  0  0  0  0  1  0  0  0  0  0  0
  180.9990  180.9590  138.9130 C   0  0  0  0  0  2  0  0  0  0  0  0
  181.6750  181.9840  138.2400 O   0  0  0  0  0  0  0  0  0  0  0  0
  180.6720  182.7460  137.6350 C   0  0  1  0  0  3  0  0  0  0  0  0
  182.2960  184.5120  137.5930 O   0  0  0  0  0  0  0  0  0  0  0  0
  180.0770  185.1990  137.5540 N   0  0  0  0  0  1  0  0  0  0  0  0
  181.0780  184.1880  137.5960 C   0  0  0  0  0  0  0  0  0  0  0  0
  180.4170  182.2240  136.2550 C   0  0  0  0  0  3  0  0  0  0  0  0
  179.1990  181.8340  135.8840 C   0  0  0  0  0  2  0  0  0  0  0  0
  3  1  1  6  0  0  0
  3  9  1  0  0  0  0
  3 11  1  0  0  0  0
  4  5  1  0  0  0  0
  4 10  1  0  0  0  0
  5 25  1  1  0  0  0
  5  9  1  0  0  0  0
  6 12  1  1  0  0  0
  6  1  1  0  0  0  0
  8  7  1  6  0  0  0
  8  6  1  0  0  0  0
  8  5  1  0  0  0  0
  9  2  1  6  0  0  0
  9 11  1  0  0  0  0
 10  2  1  0  0  0  0
 11 17  1  1  0  0  0
 12 13  1  6  0  0  0
 14 12  1  0  0  0  0
 15 14  1  0  0  0  0
 16 17  1  0  0  0  0
 17 18  1  0  0  0  0
 18 19  1  0  0  0  0
 19 20  1  0  0  0  0
 20 21  1  0  0  0  0
 22  1  1  0  0  0  0
 22 23  1  0  0  0  0
 24 23  1  0  0  0  0
 26 25  1  0  0  0  0
 27 31  1  6  0  0  0
 27 26  1  0  0  0  0
 28 30  2  0  0  0  0
 29 30  1  0  0  0  0
 30 27  1  0  0  0  0
 32 31  2  0  0  0  0
M  END
>  <MODEL>
9

>  <REMARK>
 VINA RESULT:      -5.0      6.988     10.367
  Name = 
  13 active torsions:
  status: ('A' for Active; 'I' for Inactive)
    1  A    between atoms: C_1  and  C_4
    2  A    between atoms: C_1  and  C_27
    3  A    between atoms: C_2  and  N_5
    4  A    between atoms: C_2  and  C_14
    5  A    between atoms: O_3  and  C_19
    6  A    between atoms: O_3  and  C_22
    7  A    between atoms: C_6  and  C_13
    8  A    between atoms: C_6  and  C_18
    9  A    between atoms: C_12  and  C_22
   10  A    between atoms: C_15  and  C_19
   11  A    between atoms: C_19  and  C_26
   12  A    between atoms: N_24  and  C_27
   13  A    between atoms: N_24  and  C_32
                            x       y       z     vdW  Elec       q    Type
                         _______ _______ _______ _____ _____    ______ ____

>  <TORSDO>
F 13

$$$$
