=
 OpenBabel10262419283D

 31 35  0  0  1  0  0  0  0  0999 V2000
  185.0140  178.6280  144.3630 C   0  0  0  0  0  0  0  0  0  0  0  0
  188.7510  178.0840  143.7420 C   0  0  2  0  0  3  0  0  0  0  0  0
  189.2880  177.6960  145.1000 C   0  0  0  0  0  0  0  0  0  0  0  0
  188.0800  177.4950  138.5000 O   0  0  0  0  0  0  0  0  0  0  0  0
  189.2450  177.1050  138.7850 C   0  0  0  0  0  0  0  0  0  0  0  0
  189.1130  176.6020  147.2620 C   0  0  0  0  0  0  0  0  0  0  0  0
  187.2490  178.1070  143.5600 C   0  0  0  0  0  0  0  0  0  0  0  0
  184.4940  178.3810  143.0900 C   0  0  0  0  0  3  0  0  0  0  0  0
  188.5140  177.0640  146.0850 C   0  0  0  0  0  3  0  0  0  0  0  0
  188.8630  177.3560  141.3040 C   0  0  0  0  0  0  0  0  0  0  0  0
  184.1090  179.0280  145.4710 C   0  0  0  0  0  1  0  0  0  0  0  0
  191.6710  178.5110  143.9650 S   0  0  0  0  0  0  0  0  0  0  0  0
  188.3580  176.0110  148.2180 F   0  0  0  0  0  0  0  0  0  0  0  0
  187.5930  177.6080  141.1680 N   0  0  0  0  0  0  0  0  0  0  0  0
  189.4650  177.2210  142.6820 C   0  0  1  0  0  3  0  0  0  0  0  0
  189.6650  177.0420  140.1560 N   0  0  0  0  0  2  0  0  0  0  0  0
  186.3880  178.5110  144.5910 C   0  0  0  0  0  3  0  0  0  0  0  0
  190.4950  176.7270  147.4390 C   0  0  0  0  0  3  0  0  0  0  0  0
  186.7230  177.8990  142.2690 C   0  0  0  0  0  0  0  0  0  0  0  0
  185.3500  178.0280  142.0430 C   0  0  0  0  0  3  0  0  0  0  0  0
  191.0050  177.3710  142.6840 C   0  0  0  0  0  2  0  0  0  0  0  0
  190.6730  177.8120  145.2840 C   0  0  0  0  0  0  0  0  0  0  0  0
  191.2770  177.3230  146.4450 C   0  0  0  0  0  3  0  0  0  0  0  0
  192.1090  175.9530  135.7900 C   0  0  0  0  0  0  0  0  0  0  0  0
  191.4930  176.3280  138.0940 C   0  0  0  0  0  3  0  0  0  0  0  0
  188.5240  177.1050  135.8180 C   0  0  0  0  0  1  0  0  0  0  0  0
  193.2960  175.4790  134.5950 Cl  0  0  0  0  0  0  0  0  0  0  0  0
  192.4410  175.9500  137.1440 C   0  0  0  0  0  3  0  0  0  0  0  0
  189.8680  176.7140  136.3330 C   0  0  0  0  0  0  0  0  0  0  0  0
  190.1980  176.7150  137.7130 C   0  0  0  0  0  0  0  0  0  0  0  0
  190.8280  176.3330  135.3880 C   0  0  0  0  0  3  0  0  0  0  0  0
  1 17  1  0  0  0  0
  1 11  1  0  0  0  0
  2  7  1  1  0  0  0
  2  3  1  0  0  0  0
  3 22  2  0  0  0  0
  3  9  1  0  0  0  0
  4  5  2  0  0  0  0
  5 16  1  0  0  0  0
  6 18  1  0  0  0  0
  6 13  1  0  0  0  0
  7 17  2  0  0  0  0
  8  1  2  0  0  0  0
  9  6  2  0  0  0  0
 10 15  1  0  0  0  0
 12 22  1  0  0  0  0
 14 10  2  0  0  0  0
 14 19  1  0  0  0  0
 15 21  1  6  0  0  0
 15  2  1  0  0  0  0
 16 10  1  0  0  0  0
 19  7  1  0  0  0  0
 20 19  2  0  0  0  0
 20  8  1  0  0  0  0
 21 12  1  0  0  0  0
 22 23  1  0  0  0  0
 23 18  2  0  0  0  0
 24 28  1  0  0  0  0
 26 29  1  0  0  0  0
 27 24  1  0  0  0  0
 28 25  2  0  0  0  0
 29 30  2  0  0  0  0
 30 25  1  0  0  0  0
 30  5  1  0  0  0  0
 31 24  2  0  0  0  0
 31 29  1  0  0  0  0
M  END
>  <MODEL>
1

>  <REMARK>
 VINA RESULT:     -10.0      0.000      0.000
  Name = 
  1 active torsions:
  status: ('A' for Active; 'I' for Inactive)
    1  A    between atoms: C_9  and  C_22
                            x       y       z     vdW  Elec       q    Type
                         _______ _______ _______ _____ _____    ______ ____

>  <TORSDO>
F 1

$$$$
=
 OpenBabel10262419283D

 31 35  0  0  1  0  0  0  0  0999 V2000
  191.2580  176.9120  139.0830 C   0  0  0  0  0  0  0  0  0  0  0  0
  188.5010  177.4980  141.6710 C   0  0  2  0  0  3  0  0  0  0  0  0
  189.2550  177.6640  142.9690 C   0  0  0  0  0  0  0  0  0  0  0  0
  184.9420  178.8980  137.9750 O   0  0  0  0  0  0  0  0  0  0  0  0
  184.4770  179.2250  139.1010 C   0  0  0  0  0  0  0  0  0  0  0  0
  191.1560  178.4120  144.2840 C   0  0  0  0  0  0  0  0  0  0  0  0
  189.2980  177.5220  140.3860 C   0  0  0  0  0  0  0  0  0  0  0  0
  190.6290  177.3590  137.9190 C   0  0  0  0  0  3  0  0  0  0  0  0
  190.5710  178.1460  143.0420 C   0  0  0  0  0  3  0  0  0  0  0  0
  186.6310  178.5920  140.3310 C   0  0  0  0  0  0  0  0  0  0  0  0
  192.6350  176.3570  139.0190 C   0  0  0  0  0  1  0  0  0  0  0  0
  186.7950  177.0040  144.0400 S   0  0  0  0  0  0  0  0  0  0  0  0
  192.4330  178.8590  144.3490 F   0  0  0  0  0  0  0  0  0  0  0  0
  187.2940  178.3810  139.2300 N   0  0  0  0  0  0  0  0  0  0  0  0
  187.3330  178.5050  141.6650 C   0  0  1  0  0  3  0  0  0  0  0  0
  185.2790  179.0690  140.2810 N   0  0  0  0  0  2  0  0  0  0  0  0
  190.5870  176.9740  140.3080 C   0  0  0  0  0  3  0  0  0  0  0  0
  190.4140  178.2440  145.4570 C   0  0  0  0  0  3  0  0  0  0  0  0
  188.6550  177.9340  139.2010 C   0  0  0  0  0  0  0  0  0  0  0  0
  189.3260  177.8590  137.9770 C   0  0  0  0  0  3  0  0  0  0  0  0
  186.3530  178.3370  142.8520 C   0  0  0  0  0  2  0  0  0  0  0  0
  188.5170  177.5030  144.1500 C   0  0  0  0  0  0  0  0  0  0  0  0
  189.0900  177.7990  145.3900 C   0  0  0  0  0  3  0  0  0  0  0  0
  180.5280  180.9060  139.3820 C   0  0  0  0  0  0  0  0  0  0  0  0
  182.8240  181.0130  138.6440 C   0  0  0  0  0  3  0  0  0  0  0  0
  182.2270  177.7520  140.5450 C   0  0  0  0  0  1  0  0  0  0  0  0
  178.9320  181.6160  139.4800 Cl  0  0  0  0  0  0  0  0  0  0  0  0
  181.5530  181.5810  138.7210 C   0  0  0  0  0  3  0  0  0  0  0  0
  182.0480  179.0830  139.8950 C   0  0  0  0  0  0  0  0  0  0  0  0
  183.0980  179.7630  139.2240 C   0  0  0  0  0  0  0  0  0  0  0  0
  180.7760  179.6630  139.9660 C   0  0  0  0  0  3  0  0  0  0  0  0
  1 17  1  0  0  0  0
  2  7  1  6  0  0  0
  2  3  1  0  0  0  0
  3  9  2  0  0  0  0
  3 22  1  0  0  0  0
  4  5  2  0  0  0  0
  5 30  1  0  0  0  0
  5 16  1  0  0  0  0
  6 13  1  0  0  0  0
  6 18  2  0  0  0  0
  8 20  1  0  0  0  0
  8  1  2  0  0  0  0
  9  6  1  0  0  0  0
 10 15  1  0  0  0  0
 11  1  1  0  0  0  0
 12 22  1  0  0  0  0
 14 10  2  0  0  0  0
 15  2  1  0  0  0  0
 15 21  1  1  0  0  0
 16 10  1  0  0  0  0
 17  7  2  0  0  0  0
 19 14  1  0  0  0  0
 19  7  1  0  0  0  0
 20 19  2  0  0  0  0
 21 12  1  0  0  0  0
 22 23  2  0  0  0  0
 23 18  1  0  0  0  0
 24 27  1  0  0  0  0
 24 31  1  0  0  0  0
 25 28  1  0  0  0  0
 25 30  2  0  0  0  0
 28 24  2  0  0  0  0
 29 31  2  0  0  0  0
 29 26  1  0  0  0  0
 30 29  1  0  0  0  0
M  END
>  <MODEL>
2

>  <REMARK>
 VINA RESULT:      -9.6      4.257      7.208
  Name = 
  1 active torsions:
  status: ('A' for Active; 'I' for Inactive)
    1  A    between atoms: C_9  and  C_22
                            x       y       z     vdW  Elec       q    Type
                         _______ _______ _______ _____ _____    ______ ____

>  <TORSDO>
F 1

$$$$
=
 OpenBabel10262419283D

 31 35  0  0  1  0  0  0  0  0999 V2000
  188.8030  178.2070  147.8660 C   0  0  0  0  0  0  0  0  0  0  0  0
  188.2330  178.2430  144.0830 C   0  0  2  0  0  3  0  0  0  0  0  0
  189.4740  177.5880  143.5260 C   0  0  0  0  0  0  0  0  0  0  0  0
  182.9830  178.9180  144.5990 O   0  0  0  0  0  0  0  0  0  0  0  0
  183.2130  178.5970  143.4020 C   0  0  0  0  0  0  0  0  0  0  0  0
  191.2900  175.9760  143.6070 C   0  0  0  0  0  0  0  0  0  0  0  0
  187.9960  178.1490  145.5740 C   0  0  0  0  0  0  0  0  0  0  0  0
  187.4870  178.2320  148.3340 C   0  0  0  0  0  3  0  0  0  0  0  0
  190.2380  176.6500  144.2360 C   0  0  0  0  0  3  0  0  0  0  0  0
  185.6970  178.1660  143.8490 C   0  0  0  0  0  0  0  0  0  0  0  0
  189.9350  178.2160  148.8300 C   0  0  0  0  0  1  0  0  0  0  0  0
  188.6820  178.9150  141.2350 S   0  0  0  0  0  0  0  0  0  0  0  0
  192.0350  175.0860  144.3020 F   0  0  0  0  0  0  0  0  0  0  0  0
  185.5720  178.3050  145.1380 N   0  0  0  0  0  0  0  0  0  0  0  0
  187.0250  177.7560  143.2570 C   0  0  1  0  0  3  0  0  0  0  0  0
  184.5440  178.2390  142.9980 N   0  0  0  0  0  2  0  0  0  0  0  0
  189.0560  178.1860  146.4920 C   0  0  0  0  0  3  0  0  0  0  0  0
  191.5530  176.2010  142.2510 C   0  0  0  0  0  3  0  0  0  0  0  0
  186.6720  178.2150  146.0530 C   0  0  0  0  0  0  0  0  0  0  0  0
  186.4240  178.2470  147.4270 C   0  0  0  0  0  3  0  0  0  0  0  0
  187.1310  178.0660  141.7450 C   0  0  0  0  0  2  0  0  0  0  0  0
  189.7420  177.8040  142.1660 C   0  0  0  0  0  0  0  0  0  0  0  0
  190.7720  177.1070  141.5280 C   0  0  0  0  0  3  0  0  0  0  0  0
  180.1590  178.5870  140.3730 C   0  0  0  0  0  0  0  0  0  0  0  0
  182.4810  178.5880  141.0350 C   0  0  0  0  0  3  0  0  0  0  0  0
  180.2510  178.6000  144.1380 C   0  0  0  0  0  1  0  0  0  0  0  0
  178.9400  178.5840  139.1180 Cl  0  0  0  0  0  0  0  0  0  0  0  0
  181.5110  178.5850  140.0330 C   0  0  0  0  0  3  0  0  0  0  0  0
  180.7430  178.5950  142.7300 C   0  0  0  0  0  0  0  0  0  0  0  0
  182.1220  178.5930  142.3930 C   0  0  0  0  0  0  0  0  0  0  0  0
  179.7790  178.5920  141.7150 C   0  0  0  0  0  3  0  0  0  0  0  0
  1  8  1  0  0  0  0
  1 11  1  0  0  0  0
  2  3  1  1  0  0  0
  2  7  1  0  0  0  0
  3  9  1  0  0  0  0
  5  4  2  0  0  0  0
  6  9  2  0  0  0  0
  6 13  1  0  0  0  0
  7 19  2  0  0  0  0
  7 17  1  0  0  0  0
 10 14  2  0  0  0  0
 12 21  1  0  0  0  0
 12 22  1  0  0  0  0
 14 19  1  0  0  0  0
 15 21  1  6  0  0  0
 15 10  1  0  0  0  0
 15  2  1  0  0  0  0
 16  5  1  0  0  0  0
 16 10  1  0  0  0  0
 17  1  2  0  0  0  0
 18  6  1  0  0  0  0
 19 20  1  0  0  0  0
 20  8  2  0  0  0  0
 22  3  2  0  0  0  0
 23 22  1  0  0  0  0
 23 18  2  0  0  0  0
 24 31  1  0  0  0  0
 25 30  2  0  0  0  0
 27 24  1  0  0  0  0
 28 24  2  0  0  0  0
 28 25  1  0  0  0  0
 29 26  1  0  0  0  0
 30 29  1  0  0  0  0
 30  5  1  0  0  0  0
 31 29  2  0  0  0  0
M  END
>  <MODEL>
3

>  <REMARK>
 VINA RESULT:      -9.6      4.525      7.384
  Name = 
  1 active torsions:
  status: ('A' for Active; 'I' for Inactive)
    1  A    between atoms: C_9  and  C_22
                            x       y       z     vdW  Elec       q    Type
                         _______ _______ _______ _____ _____    ______ ____

>  <TORSDO>
F 1

$$$$
=
 OpenBabel10262419283D

 31 35  0  0  1  0  0  0  0  0999 V2000
  188.0620  178.2380  147.5170 C   0  0  0  0  0  0  0  0  0  0  0  0
  187.9780  178.2970  143.6920 C   0  0  2  0  0  3  0  0  0  0  0  0
  189.2850  177.6530  143.2940 C   0  0  0  0  0  0  0  0  0  0  0  0
  182.7010  178.9390  143.5400 O   0  0  0  0  0  0  0  0  0  0  0  0
  183.0840  178.6280  142.3800 C   0  0  0  0  0  0  0  0  0  0  0  0
  191.0850  176.0490  143.5960 C   0  0  0  0  0  0  0  0  0  0  0  0
  187.5540  178.1910  145.1410 C   0  0  0  0  0  0  0  0  0  0  0  0
  186.6980  178.2530  147.8140 C   0  0  0  0  0  3  0  0  0  0  0  0
  189.9580  176.7130  144.0900 C   0  0  0  0  0  3  0  0  0  0  0  0
  185.4930  178.2070  143.1380 C   0  0  0  0  0  0  0  0  0  0  0  0
  189.0620  178.2470  148.6170 C   0  0  0  0  0  1  0  0  0  0  0  0
  188.7820  178.9900  140.9290 S   0  0  0  0  0  0  0  0  0  0  0  0
  191.7420  175.1580  144.3750 F   0  0  0  0  0  0  0  0  0  0  0  0
  185.2050  178.3370  144.4000 N   0  0  0  0  0  0  0  0  0  0  0  0
  186.8880  177.8090  142.7170 C   0  0  1  0  0  3  0  0  0  0  0  0
  184.4570  178.2790  142.1470 N   0  0  0  0  0  2  0  0  0  0  0  0
  188.4880  178.2280  146.1870 C   0  0  0  0  0  3  0  0  0  0  0  0
  191.5170  176.2850  142.2870 C   0  0  0  0  0  3  0  0  0  0  0  0
  186.1790  178.2470  145.4470 C   0  0  0  0  0  0  0  0  0  0  0  0
  185.7580  178.2680  146.7790 C   0  0  0  0  0  3  0  0  0  0  0  0
  187.1840  178.1290  141.2320 C   0  0  0  0  0  2  0  0  0  0  0  0
  189.7220  177.8780  141.9810 C   0  0  0  0  0  0  0  0  0  0  0  0
  190.8290  177.1920  141.4750 C   0  0  0  0  0  3  0  0  0  0  0  0
  180.2150  178.5740  139.1760 C   0  0  0  0  0  0  0  0  0  0  0  0
  180.7990  178.2590  141.4980 C   0  0  0  0  0  3  0  0  0  0  0  0
  183.8780  179.3760  139.5290 C   0  0  0  0  0  1  0  0  0  0  0  0
  179.0250  178.5430  137.8940 Cl  0  0  0  0  0  0  0  0  0  0  0  0
  179.8490  178.2330  140.4770 C   0  0  0  0  0  3  0  0  0  0  0  0
  182.4940  178.9720  139.9130 C   0  0  0  0  0  0  0  0  0  0  0  0
  182.1300  178.6250  141.2400 C   0  0  0  0  0  0  0  0  0  0  0  0
  181.5310  178.9420  138.8970 C   0  0  0  0  0  3  0  0  0  0  0  0
  1  8  1  0  0  0  0
  1 11  1  0  0  0  0
  2  3  1  1  0  0  0
  2  7  1  0  0  0  0
  3  9  1  0  0  0  0
  5  4  2  0  0  0  0
  6  9  2  0  0  0  0
  6 13  1  0  0  0  0
  7 19  2  0  0  0  0
  7 17  1  0  0  0  0
 10 14  2  0  0  0  0
 12 21  1  0  0  0  0
 12 22  1  0  0  0  0
 14 19  1  0  0  0  0
 15 21  1  6  0  0  0
 15 10  1  0  0  0  0
 15  2  1  0  0  0  0
 16  5  1  0  0  0  0
 16 10  1  0  0  0  0
 17  1  2  0  0  0  0
 18  6  1  0  0  0  0
 19 20  1  0  0  0  0
 20  8  2  0  0  0  0
 22  3  2  0  0  0  0
 23 22  1  0  0  0  0
 23 18  2  0  0  0  0
 24 28  1  0  0  0  0
 26 29  1  0  0  0  0
 27 24  1  0  0  0  0
 28 25  2  0  0  0  0
 29 30  2  0  0  0  0
 30 25  1  0  0  0  0
 30  5  1  0  0  0  0
 31 24  2  0  0  0  0
 31 29  1  0  0  0  0
M  END
>  <MODEL>
4

>  <REMARK>
 VINA RESULT:      -9.1      4.403      6.834
  Name = 
  1 active torsions:
  status: ('A' for Active; 'I' for Inactive)
    1  A    between atoms: C_9  and  C_22
                            x       y       z     vdW  Elec       q    Type
                         _______ _______ _______ _____ _____    ______ ____

>  <TORSDO>
F 1

$$$$
=
 OpenBabel10262419283D

 31 35  0  0  1  0  0  0  0  0999 V2000
  185.3900  178.7920  139.7410 C   0  0  0  0  0  0  0  0  0  0  0  0
  188.9080  177.9640  140.9970 C   0  0  2  0  0  3  0  0  0  0  0  0
  188.7290  177.8020  142.4880 C   0  0  0  0  0  0  0  0  0  0  0  0
  190.5820  176.4730  136.1750 O   0  0  0  0  0  0  0  0  0  0  0  0
  191.4370  176.0840  137.0160 C   0  0  0  0  0  0  0  0  0  0  0  0
  187.4700  177.1270  144.4530 C   0  0  0  0  0  0  0  0  0  0  0  0
  187.6630  178.0270  140.1410 C   0  0  0  0  0  0  0  0  0  0  0  0
  185.4670  178.3460  138.4200 C   0  0  0  0  0  3  0  0  0  0  0  0
  187.5240  177.3970  143.0820 C   0  0  0  0  0  3  0  0  0  0  0  0
  190.0050  176.8040  139.0120 C   0  0  0  0  0  0  0  0  0  0  0  0
  184.1430  179.4290  140.2390 C   0  0  0  0  0  1  0  0  0  0  0  0
  191.4500  178.2830  142.4810 S   0  0  0  0  0  0  0  0  0  0  0  0
  186.3010  176.7540  145.0240 F   0  0  0  0  0  0  0  0  0  0  0  0
  188.9720  177.0880  138.2730 N   0  0  0  0  0  0  0  0  0  0  0  0
  189.9060  176.8910  140.5170 C   0  0  1  0  0  3  0  0  0  0  0  0
  191.1890  176.2500  138.4200 N   0  0  0  0  0  2  0  0  0  0  0  0
  186.4900  178.6520  140.5910 C   0  0  0  0  0  3  0  0  0  0  0  0
  188.6310  177.2140  145.2290 C   0  0  0  0  0  3  0  0  0  0  0  0
  187.7470  177.6160  138.7960 C   0  0  0  0  0  0  0  0  0  0  0  0
  186.6480  177.7680  137.9460 C   0  0  0  0  0  3  0  0  0  0  0  0
  191.2880  176.9630  141.2090 C   0  0  0  0  0  2  0  0  0  0  0  0
  189.8880  177.8820  143.2730 C   0  0  0  0  0  0  0  0  0  0  0  0
  189.8420  177.5820  144.6370 C   0  0  0  0  0  3  0  0  0  0  0  0
  195.1910  174.4170  135.7390 C   0  0  0  0  0  0  0  0  0  0  0  0
  193.8440  176.2850  136.4640 C   0  0  0  0  0  3  0  0  0  0  0  0
  191.7050  173.1220  136.3300 C   0  0  0  0  0  1  0  0  0  0  0  0
  196.7320  173.7680  135.2220 Cl  0  0  0  0  0  0  0  0  0  0  0  0
  195.0730  175.7700  136.0520 C   0  0  0  0  0  3  0  0  0  0  0  0
  192.8410  174.0850  136.2510 C   0  0  0  0  0  0  0  0  0  0  0  0
  192.7110  175.4620  136.5710 C   0  0  0  0  0  0  0  0  0  0  0  0
  194.0790  173.5800  135.8380 C   0  0  0  0  0  3  0  0  0  0  0  0
  1 11  1  0  0  0  0
  1 17  1  0  0  0  0
  2  7  1  6  0  0  0
  2  3  1  0  0  0  0
  3  9  2  0  0  0  0
  3 22  1  0  0  0  0
  4  5  2  0  0  0  0
  5 16  1  0  0  0  0
  6 13  1  0  0  0  0
  6 18  2  0  0  0  0
  7 17  2  0  0  0  0
  8  1  2  0  0  0  0
  9  6  1  0  0  0  0
 10 15  1  0  0  0  0
 12 22  1  0  0  0  0
 14 19  1  0  0  0  0
 14 10  2  0  0  0  0
 15  2  1  0  0  0  0
 15 21  1  1  0  0  0
 16 10  1  0  0  0  0
 19  7  1  0  0  0  0
 20  8  1  0  0  0  0
 20 19  2  0  0  0  0
 21 12  1  0  0  0  0
 22 23  2  0  0  0  0
 23 18  1  0  0  0  0
 24 31  2  0  0  0  0
 24 28  1  0  0  0  0
 25 30  1  0  0  0  0
 27 24  1  0  0  0  0
 28 25  2  0  0  0  0
 29 26  1  0  0  0  0
 29 30  2  0  0  0  0
 30  5  1  0  0  0  0
 31 29  1  0  0  0  0
M  END
>  <MODEL>
5

>  <REMARK>
 VINA RESULT:      -8.8      2.241      3.448
  Name = 
  1 active torsions:
  status: ('A' for Active; 'I' for Inactive)
    1  A    between atoms: C_9  and  C_22
                            x       y       z     vdW  Elec       q    Type
                         _______ _______ _______ _____ _____    ______ ____

>  <TORSDO>
F 1

$$$$
=
 OpenBabel10262419283D

 31 35  0  0  1  0  0  0  0  0999 V2000
  180.7470  178.9260  143.5900 C   0  0  0  0  0  0  0  0  0  0  0  0
  182.8690  178.5050  140.4330 C   0  0  2  0  0  3  0  0  0  0  0  0
  182.0350  179.1500  139.3510 C   0  0  0  0  0  0  0  0  0  0  0  0
  187.3330  177.6850  143.2050 O   0  0  0  0  0  0  0  0  0  0  0  0
  187.6580  177.8980  142.0060 C   0  0  0  0  0  0  0  0  0  0  0  0
  180.4860  180.8300  138.5290 C   0  0  0  0  0  0  0  0  0  0  0  0
  182.4550  178.7330  141.8700 C   0  0  0  0  0  0  0  0  0  0  0  0
  181.7320  178.8960  144.5790 C   0  0  0  0  0  3  0  0  0  0  0  0
  181.1150  180.1800  139.5950 C   0  0  0  0  0  3  0  0  0  0  0  0
  185.2600  178.4640  141.3090 C   0  0  0  0  0  0  0  0  0  0  0  0
  179.3160  179.0520  143.9700 C   0  0  0  0  0  1  0  0  0  0  0  0
  183.6250  177.5810  137.7240 S   0  0  0  0  0  0  0  0  0  0  0  0
  179.5840  181.8110  138.7710 F   0  0  0  0  0  0  0  0  0  0  0  0
  184.8140  178.4440  142.5320 N   0  0  0  0  0  0  0  0  0  0  0  0
  184.3460  178.8650  140.1760 C   0  0  1  0  0  3  0  0  0  0  0  0
  186.6570  178.2660  141.0450 N   0  0  0  0  0  2  0  0  0  0  0  0
  181.1050  178.8240  142.2430 C   0  0  0  0  0  3  0  0  0  0  0  0
  180.8080  180.4860  137.2120 C   0  0  0  0  0  3  0  0  0  0  0  0
  183.4400  178.6630  142.8760 C   0  0  0  0  0  0  0  0  0  0  0  0
  183.0760  178.7540  144.2210 C   0  0  0  0  0  3  0  0  0  0  0  0
  184.8700  178.4150  138.7910 C   0  0  0  0  0  2  0  0  0  0  0  0
  182.3560  178.8150  138.0280 C   0  0  0  0  0  0  0  0  0  0  0  0
  181.7510  179.4860  136.9610 C   0  0  0  0  0  3  0  0  0  0  0  0
  191.7010  177.4870  140.5970 C   0  0  0  0  0  0  0  0  0  0  0  0
  189.3190  177.5310  140.2050 C   0  0  0  0  0  3  0  0  0  0  0  0
  190.0310  178.1040  143.9160 C   0  0  0  0  0  1  0  0  0  0  0  0
  193.3350  177.3150  139.9940 Cl  0  0  0  0  0  0  0  0  0  0  0  0
  190.6200  177.3930  139.7220 C   0  0  0  0  0  3  0  0  0  0  0  0
  190.1790  177.8580  142.4520 C   0  0  0  0  0  0  0  0  0  0  0  0
  189.0720  177.7640  141.5680 C   0  0  0  0  0  0  0  0  0  0  0  0
  191.4800  177.7180  141.9550 C   0  0  0  0  0  3  0  0  0  0  0  0
  1 11  1  0  0  0  0
  1  8  1  0  0  0  0
  2  3  1  6  0  0  0
  2  7  1  0  0  0  0
  3  9  1  0  0  0  0
  5  4  2  0  0  0  0
  6 13  1  0  0  0  0
  6  9  2  0  0  0  0
  7 17  1  0  0  0  0
  7 19  2  0  0  0  0
 10 14  2  0  0  0  0
 12 22  1  0  0  0  0
 12 21  1  0  0  0  0
 14 19  1  0  0  0  0
 15 21  1  6  0  0  0
 15  2  1  0  0  0  0
 15 10  1  0  0  0  0
 16 10  1  0  0  0  0
 16  5  1  0  0  0  0
 17  1  2  0  0  0  0
 18  6  1  0  0  0  0
 19 20  1  0  0  0  0
 20  8  2  0  0  0  0
 22  3  2  0  0  0  0
 23 18  2  0  0  0  0
 23 22  1  0  0  0  0
 24 31  1  0  0  0  0
 25 30  2  0  0  0  0
 27 24  1  0  0  0  0
 28 25  1  0  0  0  0
 28 24  2  0  0  0  0
 29 26  1  0  0  0  0
 30  5  1  0  0  0  0
 30 29  1  0  0  0  0
 31 29  2  0  0  0  0
M  END
>  <MODEL>
6

>  <REMARK>
 VINA RESULT:      -8.8      4.702      7.582
  Name = 
  1 active torsions:
  status: ('A' for Active; 'I' for Inactive)
    1  A    between atoms: C_9  and  C_22
                            x       y       z     vdW  Elec       q    Type
                         _______ _______ _______ _____ _____    ______ ____

>  <TORSDO>
F 1

$$$$
=
 OpenBabel10262419283D

 31 35  0  0  1  0  0  0  0  0999 V2000
  191.6820  176.8000  139.0190 C   0  0  0  0  0  0  0  0  0  0  0  0
  188.7430  177.3780  141.4000 C   0  0  2  0  0  3  0  0  0  0  0  0
  189.4070  177.7190  142.7140 C   0  0  0  0  0  0  0  0  0  0  0  0
  185.3040  178.1480  137.4180 O   0  0  0  0  0  0  0  0  0  0  0  0
  184.7500  178.5310  138.4840 C   0  0  0  0  0  0  0  0  0  0  0  0
  191.1640  178.7360  144.0480 C   0  0  0  0  0  0  0  0  0  0  0  0
  189.6080  177.3560  140.1590 C   0  0  0  0  0  0  0  0  0  0  0  0
  191.0880  177.0890  137.7880 C   0  0  0  0  0  3  0  0  0  0  0  0
  190.6740  178.3140  142.8080 C   0  0  0  0  0  3  0  0  0  0  0  0
  186.8740  178.1910  139.8730 C   0  0  0  0  0  0  0  0  0  0  0  0
  193.1000  176.3580  139.0740 C   0  0  0  0  0  1  0  0  0  0  0  0
  186.9490  176.9520  143.7160 S   0  0  0  0  0  0  0  0  0  0  0  0
  192.3960  179.2910  144.1350 F   0  0  0  0  0  0  0  0  0  0  0  0
  187.6130  177.9400  138.8310 N   0  0  0  0  0  0  0  0  0  0  0  0
  187.5020  178.2790  141.2440 C   0  0  1  0  0  3  0  0  0  0  0  0
  185.4930  178.5470  139.7120 N   0  0  0  0  0  2  0  0  0  0  0  0
  190.9390  176.9130  140.1970 C   0  0  0  0  0  3  0  0  0  0  0  0
  190.3710  178.6090  145.1930 C   0  0  0  0  0  3  0  0  0  0  0  0
  189.0040  177.6070  138.9110 C   0  0  0  0  0  0  0  0  0  0  0  0
  189.7480  177.4820  137.7350 C   0  0  0  0  0  3  0  0  0  0  0  0
  186.4720  178.1350  142.3900 C   0  0  0  0  0  2  0  0  0  0  0  0
  188.6160  177.6010  143.8660 C   0  0  0  0  0  0  0  0  0  0  0  0
  189.0920  178.0520  145.1000 C   0  0  0  0  0  3  0  0  0  0  0  0
  180.6740  179.9020  138.5700 C   0  0  0  0  0  0  0  0  0  0  0  0
  183.0140  180.1910  139.0900 C   0  0  0  0  0  3  0  0  0  0  0  0
  182.4970  176.8810  137.2530 C   0  0  0  0  0  1  0  0  0  0  0  0
  179.0250  180.4860  138.6220 Cl  0  0  0  0  0  0  0  0  0  0  0  0
  181.7010  180.6590  139.1330 C   0  0  0  0  0  3  0  0  0  0  0  0
  182.2760  178.1980  137.9180 C   0  0  0  0  0  0  0  0  0  0  0  0
  183.3280  178.9620  138.4880 C   0  0  0  0  0  0  0  0  0  0  0  0
  180.9620  178.6780  137.9660 C   0  0  0  0  0  3  0  0  0  0  0  0
  1 11  1  0  0  0  0
  1 17  1  0  0  0  0
  2  7  1  6  0  0  0
  2  3  1  0  0  0  0
  3  9  2  0  0  0  0
  3 22  1  0  0  0  0
  4  5  2  0  0  0  0
  5 30  1  0  0  0  0
  5 16  1  0  0  0  0
  6 13  1  0  0  0  0
  6 18  2  0  0  0  0
  7 17  2  0  0  0  0
  8  1  2  0  0  0  0
  9  6  1  0  0  0  0
 10 15  1  0  0  0  0
 12 22  1  0  0  0  0
 14 19  1  0  0  0  0
 14 10  2  0  0  0  0
 15  2  1  0  0  0  0
 15 21  1  1  0  0  0
 16 10  1  0  0  0  0
 19  7  1  0  0  0  0
 20  8  1  0  0  0  0
 20 19  2  0  0  0  0
 21 12  1  0  0  0  0
 22 23  2  0  0  0  0
 23 18  1  0  0  0  0
 24 27  1  0  0  0  0
 24 28  1  0  0  0  0
 25 28  2  0  0  0  0
 26 29  1  0  0  0  0
 29 31  1  0  0  0  0
 29 30  2  0  0  0  0
 30 25  1  0  0  0  0
 31 24  2  0  0  0  0
M  END
>  <MODEL>
7

>  <REMARK>
 VINA RESULT:      -8.3      4.299      6.991
  Name = 
  1 active torsions:
  status: ('A' for Active; 'I' for Inactive)
    1  A    between atoms: C_9  and  C_22
                            x       y       z     vdW  Elec       q    Type
                         _______ _______ _______ _____ _____    ______ ____

>  <TORSDO>
F 1

$$$$
=
 OpenBabel10262419283D

 31 35  0  0  1  0  0  0  0  0999 V2000
  186.8940  178.3520  137.5960 C   0  0  0  0  0  0  0  0  0  0  0  0
  186.0870  178.6070  141.3270 C   0  0  2  0  0  3  0  0  0  0  0  0
  184.5770  178.5770  141.3710 C   0  0  0  0  0  0  0  0  0  0  0  0
  190.9620  177.0520  142.7740 O   0  0  0  0  0  0  0  0  0  0  0  0
  190.2220  176.9960  143.7930 C   0  0  0  0  0  0  0  0  0  0  0  0
  182.4060  177.8310  140.5770 C   0  0  0  0  0  0  0  0  0  0  0  0
  186.7600  178.2490  140.0210 C   0  0  0  0  0  0  0  0  0  0  0  0
  188.1730  177.7920  137.6380 C   0  0  0  0  0  3  0  0  0  0  0  0
  183.7880  177.9470  140.3970 C   0  0  0  0  0  3  0  0  0  0  0  0
  188.1070  177.5480  142.4600 C   0  0  0  0  0  0  0  0  0  0  0  0
  186.2780  178.7000  136.2890 C   0  0  0  0  0  1  0  0  0  0  0  0
  185.0080  179.7370  143.8420 S   0  0  0  0  0  0  0  0  0  0  0  0
  181.6470  177.2390  139.6250 F   0  0  0  0  0  0  0  0  0  0  0  0
  188.7140  177.4700  141.3110 N   0  0  0  0  0  0  0  0  0  0  0  0
  186.6160  177.7780  142.5150 C   0  0  1  0  0  3  0  0  0  0  0  0
  188.8150  177.2520  143.6730 N   0  0  0  0  0  2  0  0  0  0  0  0
  186.2000  178.5990  138.7830 C   0  0  0  0  0  3  0  0  0  0  0  0
  181.8120  178.3030  141.7520 C   0  0  0  0  0  3  0  0  0  0  0  0
  188.0660  177.7210  140.0570 C   0  0  0  0  0  0  0  0  0  0  0  0
  188.7610  177.4860  138.8680 C   0  0  0  0  0  3  0  0  0  0  0  0
  186.1340  178.2830  143.8970 C   0  0  0  0  0  2  0  0  0  0  0  0
  183.9740  179.0420  142.5480 C   0  0  0  0  0  0  0  0  0  0  0  0
  182.5970  178.8990  142.7430 C   0  0  0  0  0  3  0  0  0  0  0  0
  191.9720  175.9790  147.5890 C   0  0  0  0  0  0  0  0  0  0  0  0
  191.9000  175.8140  145.1810 C   0  0  0  0  0  3  0  0  0  0  0  0
  189.1040  178.1130  146.4050 C   0  0  0  0  0  1  0  0  0  0  0  0
  192.7060  175.5470  149.1180 Cl  0  0  0  0  0  0  0  0  0  0  0  0
  192.4860  175.4680  146.3990 C   0  0  0  0  0  3  0  0  0  0  0  0
  190.2750  177.1920  146.3460 C   0  0  0  0  0  0  0  0  0  0  0  0
  190.7910  176.6750  145.1280 C   0  0  0  0  0  0  0  0  0  0  0  0
  190.8720  176.8370  147.5610 C   0  0  0  0  0  3  0  0  0  0  0  0
  1  8  2  0  0  0  0
  1 17  1  0  0  0  0
  2  7  1  6  0  0  0
  2  3  1  0  0  0  0
  2 15  1  0  0  0  0
  3 22  1  0  0  0  0
  4  5  2  0  0  0  0
  5 30  1  0  0  0  0
  6 18  2  0  0  0  0
  7 19  1  0  0  0  0
  8 20  1  0  0  0  0
  9  6  1  0  0  0  0
  9  3  2  0  0  0  0
 10 15  1  0  0  0  0
 10 16  1  0  0  0  0
 11  1  1  0  0  0  0
 12 21  1  0  0  0  0
 13  6  1  0  0  0  0
 14 10  2  0  0  0  0
 15 21  1  1  0  0  0
 16  5  1  0  0  0  0
 17  7  2  0  0  0  0
 18 23  1  0  0  0  0
 19 14  1  0  0  0  0
 20 19  2  0  0  0  0
 22 23  2  0  0  0  0
 22 12  1  0  0  0  0
 24 27  1  0  0  0  0
 25 28  1  0  0  0  0
 28 24  2  0  0  0  0
 29 26  1  0  0  0  0
 29 31  2  0  0  0  0
 30 25  2  0  0  0  0
 30 29  1  0  0  0  0
 31 24  1  0  0  0  0
M  END
>  <MODEL>
8

>  <REMARK>
 VINA RESULT:      -8.2      4.083      7.797
  Name = 
  1 active torsions:
  status: ('A' for Active; 'I' for Inactive)
    1  A    between atoms: C_9  and  C_22
                            x       y       z     vdW  Elec       q    Type
                         _______ _______ _______ _____ _____    ______ ____

>  <TORSDO>
F 1

$$$$
=
 OpenBabel10262419283D

 31 35  0  0  1  0  0  0  0  0999 V2000
  189.4170  177.4820  136.0720 C   0  0  0  0  0  0  0  0  0  0  0  0
  186.7560  178.2500  138.7110 C   0  0  2  0  0  3  0  0  0  0  0  0
  185.4520  178.0100  137.9870 C   0  0  0  0  0  0  0  0  0  0  0  0
  190.1850  177.6870  142.7370 O   0  0  0  0  0  0  0  0  0  0  0  0
  189.0210  177.6990  143.2220 C   0  0  0  0  0  0  0  0  0  0  0  0
  184.0520  176.8340  136.3880 C   0  0  0  0  0  0  0  0  0  0  0  0
  188.0280  177.7760  138.0450 C   0  0  0  0  0  0  0  0  0  0  0  0
  190.5000  177.1280  136.8800 C   0  0  0  0  0  3  0  0  0  0  0  0
  185.3160  177.1150  136.9150 C   0  0  0  0  0  3  0  0  0  0  0  0
  187.9100  177.7030  140.9150 C   0  0  0  0  0  0  0  0  0  0  0  0
  189.5710  177.5090  134.5940 C   0  0  0  0  0  1  0  0  0  0  0  0
  184.4760  179.6250  140.0060 S   0  0  0  0  0  0  0  0  0  0  0  0
  183.9290  175.9840  135.3410 F   0  0  0  0  0  0  0  0  0  0  0  0
  189.0330  177.5190  140.2840 N   0  0  0  0  0  0  0  0  0  0  0  0
  186.6060  177.7220  140.1520 C   0  0  1  0  0  3  0  0  0  0  0  0
  187.8810  177.7250  142.3500 N   0  0  0  0  0  2  0  0  0  0  0  0
  188.1930  177.8240  136.6530 C   0  0  0  0  0  3  0  0  0  0  0  0
  182.9120  177.4080  136.9600 C   0  0  0  0  0  3  0  0  0  0  0  0
  189.1360  177.4560  138.8560 C   0  0  0  0  0  0  0  0  0  0  0  0
  190.3610  177.1260  138.2710 C   0  0  0  0  0  3  0  0  0  0  0  0
  185.4520  178.3800  140.9460 C   0  0  0  0  0  2  0  0  0  0  0  0
  184.3030  178.5770  138.5580 C   0  0  0  0  0  0  0  0  0  0  0  0
  183.0370  178.2720  138.0520 C   0  0  0  0  0  3  0  0  0  0  0  0
  188.2680  177.7150  147.4560 C   0  0  0  0  0  0  0  0  0  0  0  0
  187.5040  177.8800  145.1720 C   0  0  0  0  0  3  0  0  0  0  0  0
  191.2830  177.3150  145.2350 C   0  0  0  0  0  1  0  0  0  0  0  0
  187.9300  177.7270  149.1730 Cl  0  0  0  0  0  0  0  0  0  0  0  0
  187.2320  177.8900  146.5400 C   0  0  0  0  0  3  0  0  0  0  0  0
  189.8600  177.5190  145.6340 C   0  0  0  0  0  0  0  0  0  0  0  0
  188.8120  177.6960  144.6930 C   0  0  0  0  0  0  0  0  0  0  0  0
  189.5740  177.5310  147.0040 C   0  0  0  0  0  3  0  0  0  0  0  0
  1 17  2  0  0  0  0
  1  8  1  0  0  0  0
  2  3  1  6  0  0  0
  2 15  1  0  0  0  0
  3 22  1  0  0  0  0
  4  5  2  0  0  0  0
  5 30  1  0  0  0  0
  6  9  1  0  0  0  0
  6 18  2  0  0  0  0
  7  2  1  0  0  0  0
  7 19  2  0  0  0  0
  8 20  2  0  0  0  0
  9  3  2  0  0  0  0
 10 16  1  0  0  0  0
 11  1  1  0  0  0  0
 12 21  1  0  0  0  0
 13  6  1  0  0  0  0
 14 10  2  0  0  0  0
 15 10  1  0  0  0  0
 15 21  1  1  0  0  0
 16  5  1  0  0  0  0
 17  7  1  0  0  0  0
 18 23  1  0  0  0  0
 19 14  1  0  0  0  0
 20 19  1  0  0  0  0
 22 12  1  0  0  0  0
 23 22  2  0  0  0  0
 24 27  1  0  0  0  0
 25 28  1  0  0  0  0
 26 29  1  0  0  0  0
 28 24  2  0  0  0  0
 29 31  2  0  0  0  0
 30 25  2  0  0  0  0
 30 29  1  0  0  0  0
 31 24  1  0  0  0  0
M  END
>  <MODEL>
9

>  <REMARK>
 VINA RESULT:      -8.1      4.657      9.012
  Name = 
  1 active torsions:
  status: ('A' for Active; 'I' for Inactive)
    1  A    between atoms: C_9  and  C_22
                            x       y       z     vdW  Elec       q    Type
                         _______ _______ _______ _____ _____    ______ ____

>  <TORSDO>
F 1

$$$$
