=
 OpenBabel10262419363D

 31 34  0  0  1  0  0  0  0  0999 V2000
  183.4310  178.9980  141.4480 C   0  0  0  0  0  0  0  0  0  0  0  0
  186.6320  178.2820  139.6240 C   0  0  0  0  0  0  0  0  0  0  0  0
  186.2080  178.2810  138.1480 C   0  0  2  0  0  3  0  0  0  0  0  0
  185.0960  176.9550  136.5400 C   0  0  0  0  0  2  0  0  0  0  0  0
  185.6840  178.4750  140.6710 C   0  0  0  0  0  0  0  0  0  0  0  0
  183.8330  178.8200  142.7720 C   0  0  0  0  0  3  0  0  0  0  0  0
  184.9150  177.5450  137.9070 C   0  0  0  0  0  2  0  0  0  0  0  0
  188.3620  177.9340  141.3300 C   0  0  0  0  0  0  0  0  0  0  0  0
  182.1470  179.3310  141.1700 F   0  0  0  0  0  0  0  0  0  0  0  0
  189.0090  179.1150  137.9400 C   0  0  0  0  0  2  0  0  0  0  0  0
  186.5020  177.0850  136.1840 N   0  0  0  0  0  0  0  0  0  0  0  0
  187.4040  178.0320  142.3340 C   0  0  0  0  0  3  0  0  0  0  0  0
  188.0060  178.1360  139.9850 C   0  0  0  0  0  0  0  0  0  0  0  0
  184.3480  178.8290  140.4080 C   0  0  0  0  0  3  0  0  0  0  0  0
  187.0010  175.7390  135.9570 C   0  0  0  0  0  1  0  0  0  0  0  0
  186.0830  178.3240  142.0210 C   0  0  0  0  0  0  0  0  0  0  0  0
  185.1580  178.4850  143.0570 C   0  0  0  0  0  3  0  0  0  0  0  0
  189.0420  178.2140  139.0430 O   0  0  0  0  0  0  0  0  0  0  0  0
  188.1410  178.5790  136.8110 C   0  0  0  0  0  2  0  0  0  0  0  0
  187.1860  177.5950  137.3060 N   0  0  1  0  0  0  0  0  0  0  0  0
  189.7870  177.7040  141.7270 C   0  0  0  0  0  2  0  0  0  0  0  0
  190.7570  179.0810  144.1390 C   0  0  0  0  0  1  0  0  0  0  0  0
  189.4650  175.8100  143.1330 O   0  0  0  0  0  0  0  0  0  0  0  0
  189.8750  176.9990  143.0470 C   0  0  0  0  0  0  0  0  0  0  0  0
  190.4180  177.6640  144.2030 N   0  0  0  0  0  0  0  0  0  0  0  0
  191.7640  176.4730  145.7860 C   0  0  0  0  0  2  0  0  0  0  0  0
  190.5800  176.9710  145.4520 C   0  0  0  0  0  0  0  0  0  0  0  0
  189.5080  176.7990  146.3360 O   0  0  0  0  0  0  0  0  0  0  0  0
  188.5920  177.8390  146.6550 C   0  0  0  0  0  3  0  0  0  0  0  0
  188.4320  177.9250  148.1580 C   0  0  0  0  0  1  0  0  0  0  0  0
  187.2420  177.5560  146.0260 C   0  0  0  0  0  1  0  0  0  0  0  0
  1  6  1  0  0  0  0
  2 13  2  0  0  0  0
  2  5  1  0  0  0  0
  3  7  1  1  0  0  0
  3  2  1  0  0  0  0
  4  7  1  0  0  0  0
  5 16  2  0  0  0  0
  6 17  2  0  0  0  0
  8 21  1  0  0  0  0
  8 12  2  0  0  0  0
  9  1  1  0  0  0  0
 10 18  1  0  0  0  0
 11  4  1  0  0  0  0
 11 20  1  0  0  0  0
 13  8  1  0  0  0  0
 14  5  1  0  0  0  0
 14  1  2  0  0  0  0
 15 11  1  0  0  0  0
 16 12  1  0  0  0  0
 16 17  1  0  0  0  0
 18 13  1  0  0  0  0
 19 10  1  0  0  0  0
 20 19  1  6  0  0  0
 20  3  1  0  0  0  0
 21 24  1  0  0  0  0
 22 25  1  0  0  0  0
 24 23  2  0  0  0  0
 24 25  1  0  0  0  0
 25 27  1  0  0  0  0
 27 26  2  0  0  0  0
 27 28  1  0  0  0  0
 28 29  1  0  0  0  0
 29 30  1  0  0  0  0
 31 29  1  0  0  0  0
M  END
>  <MODEL>
1

>  <REMARK>
 VINA RESULT:      -8.5      0.000      0.000
  Name = 
  5 active torsions:
  status: ('A' for Active; 'I' for Inactive)
    1  A    between atoms: C_1  and  O_24
    2  A    between atoms: C_9  and  C_23
    3  A    between atoms: C_15  and  C_23
    4  A    between atoms: C_19  and  N_22
    5  A    between atoms: C_19  and  O_24
                            x       y       z     vdW  Elec       q    Type
                         _______ _______ _______ _____ _____    ______ ____

>  <TORSDO>
F 5

$$$$
=
 OpenBabel10262419363D

 31 34  0  0  1  0  0  0  0  0999 V2000
  184.9280  178.8860  139.3090 C   0  0  0  0  0  0  0  0  0  0  0  0
  188.2150  177.1760  138.7150 C   0  0  0  0  0  0  0  0  0  0  0  0
  188.0490  176.5600  137.3190 C   0  0  2  0  0  3  0  0  0  0  0  0
  187.0080  174.7590  136.1990 C   0  0  0  0  0  2  0  0  0  0  0  0
  187.1550  177.8890  139.3460 C   0  0  0  0  0  0  0  0  0  0  0  0
  185.0670  179.2760  140.6400 C   0  0  0  0  0  3  0  0  0  0  0  0
  186.7080  175.9040  137.1200 C   0  0  0  0  0  2  0  0  0  0  0  0
  189.5510  177.4720  140.7530 C   0  0  0  0  0  0  0  0  0  0  0  0
  183.7850  179.1680  138.6370 F   0  0  0  0  0  0  0  0  0  0  0  0
  190.9470  176.9800  137.4190 C   0  0  0  0  0  2  0  0  0  0  0  0
  188.4560  174.6010  136.1470 N   0  0  0  0  0  0  0  0  0  0  0  0
  188.4710  178.0820  141.3830 C   0  0  0  0  0  3  0  0  0  0  0  0
  189.4640  177.0890  139.4030 C   0  0  0  0  0  0  0  0  0  0  0  0
  185.9620  178.2000  138.6680 C   0  0  0  0  0  3  0  0  0  0  0  0
  188.7450  173.2560  136.6160 C   0  0  0  0  0  1  0  0  0  0  0  0
  187.2910  178.3150  140.6890 C   0  0  0  0  0  0  0  0  0  0  0  0
  186.2480  178.9930  141.3290 C   0  0  0  0  0  3  0  0  0  0  0  0
  190.6400  176.6580  138.7730 O   0  0  0  0  0  0  0  0  0  0  0  0
  190.2000  176.0760  136.4500 C   0  0  0  0  0  2  0  0  0  0  0  0
  189.0210  175.4940  137.0800 N   0  0  1  0  0  0  0  0  0  0  0  0
  190.8290  177.3230  141.5180 C   0  0  0  0  0  2  0  0  0  0  0  0
  191.0850  178.9710  143.9420 C   0  0  0  0  0  1  0  0  0  0  0  0
  190.1930  175.5560  142.9830 O   0  0  0  0  0  0  0  0  0  0  0  0
  190.5800  176.7520  142.8830 C   0  0  0  0  0  0  0  0  0  0  0  0
  190.7780  177.5510  144.0640 N   0  0  0  0  0  0  0  0  0  0  0  0
  191.6870  176.6560  146.0910 C   0  0  0  0  0  2  0  0  0  0  0  0
  190.6190  176.9890  145.3770 C   0  0  0  0  0  0  0  0  0  0  0  0
  189.3510  176.7750  145.9310 O   0  0  0  0  0  0  0  0  0  0  0  0
  188.3170  177.7500  145.9020 C   0  0  0  0  0  3  0  0  0  0  0  0
  187.6390  177.8040  147.2550 C   0  0  0  0  0  1  0  0  0  0  0  0
  187.2910  177.3920  144.8450 C   0  0  0  0  0  1  0  0  0  0  0  0
  1  6  1  0  0  0  0
  2  5  2  0  0  0  0
  2 13  1  0  0  0  0
  3  7  1  1  0  0  0
  3  2  1  0  0  0  0
  4  7  1  0  0  0  0
  5 16  1  0  0  0  0
  6 17  2  0  0  0  0
  8 12  1  0  0  0  0
  8 21  1  0  0  0  0
  9  1  1  0  0  0  0
 10 18  1  0  0  0  0
 11  4  1  0  0  0  0
 11 15  1  0  0  0  0
 11 20  1  0  0  0  0
 13  8  2  0  0  0  0
 14  1  2  0  0  0  0
 14  5  1  0  0  0  0
 16 17  1  0  0  0  0
 16 12  2  0  0  0  0
 18 13  1  0  0  0  0
 19 10  1  0  0  0  0
 20 19  1  6  0  0  0
 20  3  1  0  0  0  0
 21 24  1  0  0  0  0
 22 25  1  0  0  0  0
 24 23  2  0  0  0  0
 24 25  1  0  0  0  0
 25 27  1  0  0  0  0
 27 28  1  0  0  0  0
 27 26  2  0  0  0  0
 29 28  1  0  0  0  0
 29 30  1  0  0  0  0
 31 29  1  0  0  0  0
M  END
>  <MODEL>
2

>  <REMARK>
 VINA RESULT:      -8.2      1.663      2.070
  Name = 
  5 active torsions:
  status: ('A' for Active; 'I' for Inactive)
    1  A    between atoms: C_1  and  O_24
    2  A    between atoms: C_9  and  C_23
    3  A    between atoms: C_15  and  C_23
    4  A    between atoms: C_19  and  N_22
    5  A    between atoms: C_19  and  O_24
                            x       y       z     vdW  Elec       q    Type
                         _______ _______ _______ _____ _____    ______ ____

>  <TORSDO>
F 5

$$$$
=
 OpenBabel10262419363D

 31 34  0  0  1  0  0  0  0  0999 V2000
  186.9460  177.8550  137.1530 C   0  0  0  0  0  0  0  0  0  0  0  0
  190.4240  176.6650  137.9090 C   0  0  0  0  0  0  0  0  0  0  0  0
  190.8790  176.0320  136.5860 C   0  0  2  0  0  3  0  0  0  0  0  0
  190.5960  174.0950  135.2630 C   0  0  0  0  0  2  0  0  0  0  0  0
  189.1150  177.2070  138.0640 C   0  0  0  0  0  0  0  0  0  0  0  0
  186.5220  178.2610  138.4180 C   0  0  0  0  0  3  0  0  0  0  0  0
  189.8150  175.1800  135.9430 C   0  0  0  0  0  2  0  0  0  0  0  0
  190.8470  177.1570  140.2760 C   0  0  0  0  0  0  0  0  0  0  0  0
  186.1090  177.9620  136.0930 F   0  0  0  0  0  0  0  0  0  0  0  0
  193.4390  176.8870  137.7250 C   0  0  0  0  0  2  0  0  0  0  0  0
  191.9650  174.1590  135.7570 N   0  0  0  0  0  0  0  0  0  0  0  0
  189.5350  177.5950  140.4290 C   0  0  0  0  0  3  0  0  0  0  0  0
  191.3240  176.7670  139.0120 C   0  0  0  0  0  0  0  0  0  0  0  0
  188.2300  177.3350  136.9770 C   0  0  0  0  0  3  0  0  0  0  0  0
  192.2460  172.8730  136.3740 C   0  0  0  0  0  1  0  0  0  0  0  0
  188.6790  177.6480  139.3370 C   0  0  0  0  0  0  0  0  0  0  0  0
  187.3890  178.1590  139.5080 C   0  0  0  0  0  3  0  0  0  0  0  0
  192.6990  176.5200  138.8850 O   0  0  0  0  0  0  0  0  0  0  0  0
  193.2440  175.8810  136.6000 C   0  0  0  0  0  2  0  0  0  0  0  0
  192.0100  175.1260  136.7820 N   0  0  1  0  0  0  0  0  0  0  0  0
  191.7550  177.2020  141.4660 C   0  0  0  0  0  2  0  0  0  0  0  0
  191.2570  178.9510  143.7790 C   0  0  0  0  0  1  0  0  0  0  0  0
  190.6320  175.5090  142.7080 O   0  0  0  0  0  0  0  0  0  0  0  0
  191.0620  176.6940  142.6950 C   0  0  0  0  0  0  0  0  0  0  0  0
  190.8890  177.5410  143.8460 N   0  0  0  0  0  0  0  0  0  0  0  0
  191.0580  176.8050  146.1190 C   0  0  0  0  0  2  0  0  0  0  0  0
  190.2980  177.0390  145.0570 C   0  0  0  0  0  0  0  0  0  0  0  0
  188.9250  176.7800  145.1470 O   0  0  0  0  0  0  0  0  0  0  0  0
  187.9320  177.7010  144.7130 C   0  0  0  0  0  3  0  0  0  0  0  0
  186.8330  177.7810  145.7510 C   0  0  0  0  0  1  0  0  0  0  0  0
  187.3390  177.2450  143.3930 C   0  0  0  0  0  1  0  0  0  0  0  0
  1  6  1  0  0  0  0
  2  5  2  0  0  0  0
  2 13  1  0  0  0  0
  3  7  1  1  0  0  0
  3 20  1  0  0  0  0
  3  2  1  0  0  0  0
  4 11  1  0  0  0  0
  4  7  1  0  0  0  0
  5 16  1  0  0  0  0
  6 17  2  0  0  0  0
  8 12  1  0  0  0  0
  8 21  1  0  0  0  0
  9  1  1  0  0  0  0
 10 18  1  0  0  0  0
 11 15  1  0  0  0  0
 11 20  1  0  0  0  0
 13  8  2  0  0  0  0
 14  1  2  0  0  0  0
 14  5  1  0  0  0  0
 16 17  1  0  0  0  0
 16 12  2  0  0  0  0
 18 13  1  0  0  0  0
 19 10  1  0  0  0  0
 20 19  1  6  0  0  0
 21 24  1  0  0  0  0
 22 25  1  0  0  0  0
 24 23  2  0  0  0  0
 24 25  1  0  0  0  0
 25 27  1  0  0  0  0
 27 28  1  0  0  0  0
 27 26  2  0  0  0  0
 29 28  1  0  0  0  0
 29 30  1  0  0  0  0
 31 29  1  0  0  0  0
M  END
>  <MODEL>
3

>  <REMARK>
 VINA RESULT:      -7.6      3.128      4.193
  Name = 
  5 active torsions:
  status: ('A' for Active; 'I' for Inactive)
    1  A    between atoms: C_1  and  O_24
    2  A    between atoms: C_9  and  C_23
    3  A    between atoms: C_15  and  C_23
    4  A    between atoms: C_19  and  N_22
    5  A    between atoms: C_19  and  O_24
                            x       y       z     vdW  Elec       q    Type
                         _______ _______ _______ _____ _____    ______ ____

>  <TORSDO>
F 5

$$$$
=
 OpenBabel10262419363D

 31 34  0  0  1  0  0  0  0  0999 V2000
  184.5260  178.3560  143.2630 C   0  0  0  0  0  0  0  0  0  0  0  0
  188.1620  177.5030  142.8970 C   0  0  0  0  0  0  0  0  0  0  0  0
  188.5560  177.0140  144.2980 C   0  0  2  0  0  3  0  0  0  0  0  0
  189.0500  177.8080  146.4680 C   0  0  0  0  0  2  0  0  0  0  0  0
  186.8470  177.9750  142.6150 C   0  0  0  0  0  0  0  0  0  0  0  0
  184.2660  178.9470  142.0270 C   0  0  0  0  0  3  0  0  0  0  0  0
  187.9970  177.8750  145.4010 C   0  0  0  0  0  2  0  0  0  0  0  0
  188.8030  178.0840  140.6000 C   0  0  0  0  0  0  0  0  0  0  0  0
  183.5390  178.2530  144.1850 F   0  0  0  0  0  0  0  0  0  0  0  0
  190.4450  175.5300  142.6200 C   0  0  0  0  0  2  0  0  0  0  0  0
  190.2430  177.2180  145.8750 N   0  0  0  0  0  0  0  0  0  0  0  0
  187.5410  178.6260  140.3750 C   0  0  0  0  0  3  0  0  0  0  0  0
  189.0990  177.4520  141.8200 C   0  0  0  0  0  0  0  0  0  0  0  0
  185.8040  177.8730  143.5530 C   0  0  0  0  0  3  0  0  0  0  0  0
  191.3050  178.2020  146.0100 C   0  0  0  0  0  1  0  0  0  0  0  0
  186.5600  178.5540  141.3550 C   0  0  0  0  0  0  0  0  0  0  0  0
  185.2810  179.0450  141.0740 C   0  0  0  0  0  3  0  0  0  0  0  0
  190.3160  176.7610  141.9150 O   0  0  0  0  0  0  0  0  0  0  0  0
  190.5580  175.7580  144.1200 C   0  0  0  0  0  2  0  0  0  0  0  0
  190.0040  177.0540  144.4960 N   0  0  1  0  0  0  0  0  0  0  0  0
  189.7970  178.1100  139.4800 C   0  0  0  0  0  2  0  0  0  0  0  0
  188.9460  175.9340  137.6920 C   0  0  0  0  0  1  0  0  0  0  0  0
  188.8710  179.5870  137.8580 O   0  0  0  0  0  0  0  0  0  0  0  0
  189.1280  178.3920  138.1680 C   0  0  0  0  0  0  0  0  0  0  0  0
  188.7810  177.3200  137.2720 N   0  0  0  0  0  0  0  0  0  0  0  0
  188.9650  177.4900  134.8900 C   0  0  0  0  0  2  0  0  0  0  0  0
  188.2130  177.5870  135.9790 C   0  0  0  0  0  0  0  0  0  0  0  0
  186.8700  177.9560  135.8330 O   0  0  0  0  0  0  0  0  0  0  0  0
  185.7920  177.1700  136.3250 C   0  0  0  0  0  3  0  0  0  0  0  0
  184.6920  177.1210  135.2860 C   0  0  0  0  0  1  0  0  0  0  0  0
  185.2440  177.7770  137.6020 C   0  0  0  0  0  1  0  0  0  0  0  0
  1 14  1  0  0  0  0
  1  9  1  0  0  0  0
  2  3  1  0  0  0  0
  3 20  1  0  0  0  0
  3  7  1  1  0  0  0
  5  2  1  0  0  0  0
  5 14  2  0  0  0  0
  6  1  2  0  0  0  0
  7  4  1  0  0  0  0
  8 13  1  0  0  0  0
 10 19  1  0  0  0  0
 11 15  1  0  0  0  0
 11  4  1  0  0  0  0
 12  8  2  0  0  0  0
 12 16  1  0  0  0  0
 13 18  1  0  0  0  0
 13  2  2  0  0  0  0
 16  5  1  0  0  0  0
 17 16  2  0  0  0  0
 17  6  1  0  0  0  0
 18 10  1  0  0  0  0
 20 19  1  1  0  0  0
 20 11  1  0  0  0  0
 21  8  1  0  0  0  0
 23 24  2  0  0  0  0
 24 21  1  0  0  0  0
 25 22  1  0  0  0  0
 25 24  1  0  0  0  0
 26 27  2  0  0  0  0
 27 25  1  0  0  0  0
 28 27  1  0  0  0  0
 28 29  1  0  0  0  0
 29 31  1  0  0  0  0
 30 29  1  0  0  0  0
M  END
>  <MODEL>
4

>  <REMARK>
 VINA RESULT:      -7.3      1.632      7.166
  Name = 
  5 active torsions:
  status: ('A' for Active; 'I' for Inactive)
    1  A    between atoms: C_1  and  O_24
    2  A    between atoms: C_9  and  C_23
    3  A    between atoms: C_15  and  C_23
    4  A    between atoms: C_19  and  N_22
    5  A    between atoms: C_19  and  O_24
                            x       y       z     vdW  Elec       q    Type
                         _______ _______ _______ _____ _____    ______ ____

>  <TORSDO>
F 5

$$$$
=
 OpenBabel10262419363D

 31 34  0  0  1  0  0  0  0  0999 V2000
  184.4670  178.4380  144.9550 C   0  0  0  0  0  0  0  0  0  0  0  0
  187.7860  177.6250  143.4040 C   0  0  0  0  0  0  0  0  0  0  0  0
  188.5670  176.9730  144.5540 C   0  0  2  0  0  3  0  0  0  0  0  0
  189.7250  177.5030  146.5440 C   0  0  0  0  0  2  0  0  0  0  0  0
  186.4670  178.1300  143.5910 C   0  0  0  0  0  0  0  0  0  0  0  0
  183.8680  179.1720  143.9330 C   0  0  0  0  0  3  0  0  0  0  0  0
  188.4020  177.6980  145.8640 C   0  0  0  0  0  2  0  0  0  0  0  0
  187.7240  178.4720  141.1010 C   0  0  0  0  0  0  0  0  0  0  0  0
  183.8030  178.2290  146.1180 F   0  0  0  0  0  0  0  0  0  0  0  0
  189.8000  175.6930  142.2250 C   0  0  0  0  0  2  0  0  0  0  0  0
  190.6590  176.9840  145.5540 N   0  0  0  0  0  0  0  0  0  0  0  0
  186.4750  179.0400  141.3350 C   0  0  0  0  0  3  0  0  0  0  0  0
  188.3510  177.6990  142.0940 C   0  0  0  0  0  0  0  0  0  0  0  0
  185.7540  177.9200  144.7860 C   0  0  0  0  0  3  0  0  0  0  0  0
  191.7480  177.9420  145.4670 C   0  0  0  0  0  1  0  0  0  0  0  0
  185.8340  178.8550  142.5530 C   0  0  0  0  0  0  0  0  0  0  0  0
  184.5500  179.3790  142.7330 C   0  0  0  0  0  3  0  0  0  0  0  0
  189.5120  176.9990  141.7360 O   0  0  0  0  0  0  0  0  0  0  0  0
  190.3710  175.7410  143.6350 C   0  0  0  0  0  2  0  0  0  0  0  0
  190.0070  176.9850  144.3040 N   0  0  1  0  0  0  0  0  0  0  0  0
  188.3320  178.6270  139.7420 C   0  0  0  0  0  2  0  0  0  0  0  0
  189.5750  176.3650  138.3300 C   0  0  0  0  0  1  0  0  0  0  0  0
  186.3640  178.1100  138.5040 O   0  0  0  0  0  0  0  0  0  0  0  0
  187.5760  177.8350  138.7170 C   0  0  0  0  0  0  0  0  0  0  0  0
  188.2190  176.7760  137.9830 N   0  0  0  0  0  0  0  0  0  0  0  0
  187.5880  176.4980  135.6900 C   0  0  0  0  0  2  0  0  0  0  0  0
  187.5260  176.0660  136.9430 C   0  0  0  0  0  0  0  0  0  0  0  0
  186.7740  174.9180  137.2190 O   0  0  0  0  0  0  0  0  0  0  0  0
  186.9500  173.6900  136.5230 C   0  0  0  0  0  3  0  0  0  0  0  0
  185.8720  172.7150  136.9460 C   0  0  0  0  0  1  0  0  0  0  0  0
  188.3090  173.0990  136.8430 C   0  0  0  0  0  1  0  0  0  0  0  0
  1  9  1  0  0  0  0
  2  5  1  0  0  0  0
  2  3  1  0  0  0  0
  3  7  1  1  0  0  0
  5 14  2  0  0  0  0
  6  1  2  0  0  0  0
  7  4  1  0  0  0  0
  8 12  2  0  0  0  0
  8 13  1  0  0  0  0
 10 19  1  0  0  0  0
 11  4  1  0  0  0  0
 12 16  1  0  0  0  0
 13  2  2  0  0  0  0
 14  1  1  0  0  0  0
 15 11  1  0  0  0  0
 16 17  2  0  0  0  0
 16  5  1  0  0  0  0
 17  6  1  0  0  0  0
 18 13  1  0  0  0  0
 18 10  1  0  0  0  0
 20 19  1  6  0  0  0
 20  3  1  0  0  0  0
 20 11  1  0  0  0  0
 21  8  1  0  0  0  0
 23 24  2  0  0  0  0
 24 21  1  0  0  0  0
 25 22  1  0  0  0  0
 25 24  1  0  0  0  0
 26 27  2  0  0  0  0
 27 28  1  0  0  0  0
 27 25  1  0  0  0  0
 29 31  1  0  0  0  0
 29 30  1  0  0  0  0
 29 28  1  0  0  0  0
M  END
>  <MODEL>
5

>  <REMARK>
 VINA RESULT:      -7.3      2.061      7.104
  Name = 
  5 active torsions:
  status: ('A' for Active; 'I' for Inactive)
    1  A    between atoms: C_1  and  O_24
    2  A    between atoms: C_9  and  C_23
    3  A    between atoms: C_15  and  C_23
    4  A    between atoms: C_19  and  N_22
    5  A    between atoms: C_19  and  O_24
                            x       y       z     vdW  Elec       q    Type
                         _______ _______ _______ _____ _____    ______ ____

>  <TORSDO>
F 5

$$$$
=
 OpenBabel10262419363D

 31 34  0  0  1  0  0  0  0  0999 V2000
  182.0330  178.9800  143.4390 C   0  0  0  0  0  0  0  0  0  0  0  0
  184.5520  178.2200  140.7620 C   0  0  0  0  0  0  0  0  0  0  0  0
  183.6840  177.9080  139.5350 C   0  0  2  0  0  3  0  0  0  0  0  0
  182.3200  176.2150  138.6100 C   0  0  0  0  0  2  0  0  0  0  0  0
  183.9710  178.5210  142.0280 C   0  0  0  0  0  0  0  0  0  0  0  0
  182.8580  179.0860  144.5580 C   0  0  0  0  0  3  0  0  0  0  0  0
  182.5020  177.0310  139.8560 C   0  0  0  0  0  2  0  0  0  0  0  0
  186.7670  178.3460  141.8120 C   0  0  0  0  0  0  0  0  0  0  0  0
  180.6940  179.1430  143.5670 F   0  0  0  0  0  0  0  0  0  0  0  0
  186.1210  178.9300  138.2700 C   0  0  0  0  0  2  0  0  0  0  0  0
  183.5050  176.3990  137.7840 N   0  0  0  0  0  0  0  0  0  0  0  0
  186.1760  178.5440  143.0560 C   0  0  0  0  0  3  0  0  0  0  0  0
  185.9750  178.2630  140.6530 C   0  0  0  0  0  0  0  0  0  0  0  0
  182.5840  178.7020  142.1860 C   0  0  0  0  0  3  0  0  0  0  0  0
  184.0930  175.0830  137.6000 C   0  0  0  0  0  1  0  0  0  0  0  0
  184.7970  178.6580  143.1700 C   0  0  0  0  0  0  0  0  0  0  0  0
  184.2380  178.9270  144.4230 C   0  0  0  0  0  3  0  0  0  0  0  0
  186.6340  178.2550  139.4150 O   0  0  0  0  0  0  0  0  0  0  0  0
  185.0250  178.1210  137.5930 C   0  0  0  0  0  2  0  0  0  0  0  0
  184.4310  177.1660  138.5210 N   0  0  1  0  0  0  0  0  0  0  0  0
  188.2620  178.3190  141.7310 C   0  0  0  0  0  2  0  0  0  0  0  0
  190.5240  179.0340  143.4700 C   0  0  0  0  0  1  0  0  0  0  0  0
  188.3000  176.2030  142.8230 O   0  0  0  0  0  0  0  0  0  0  0  0
  188.8390  177.3370  142.7060 C   0  0  0  0  0  0  0  0  0  0  0  0
  189.9910  177.6770  143.5000 N   0  0  0  0  0  0  0  0  0  0  0  0
  191.6450  176.0090  143.9670 C   0  0  0  0  0  2  0  0  0  0  0  0
  190.5990  176.7150  144.3780 C   0  0  0  0  0  0  0  0  0  0  0  0
  190.1100  176.4950  145.6710 O   0  0  0  0  0  0  0  0  0  0  0  0
  190.6440  177.1380  146.8220 C   0  0  0  0  0  3  0  0  0  0  0  0
  191.6360  176.2150  147.4990 C   0  0  0  0  0  1  0  0  0  0  0  0
  189.5310  177.4730  147.7960 C   0  0  0  0  0  1  0  0  0  0  0  0
  1  9  1  0  0  0  0
  1  6  1  0  0  0  0
  2  5  1  0  0  0  0
  3  7  1  1  0  0  0
  3  2  1  0  0  0  0
  4  7  1  0  0  0  0
  5 14  1  0  0  0  0
  5 16  2  0  0  0  0
  8 12  2  0  0  0  0
 10 18  1  0  0  0  0
 11 20  1  0  0  0  0
 11  4  1  0  0  0  0
 12 16  1  0  0  0  0
 13  2  2  0  0  0  0
 13  8  1  0  0  0  0
 14  1  2  0  0  0  0
 15 11  1  0  0  0  0
 16 17  1  0  0  0  0
 17  6  2  0  0  0  0
 18 13  1  0  0  0  0
 19 10  1  0  0  0  0
 20 19  1  6  0  0  0
 20  3  1  0  0  0  0
 21  8  1  0  0  0  0
 21 24  1  0  0  0  0
 22 25  1  0  0  0  0
 24 23  2  0  0  0  0
 24 25  1  0  0  0  0
 25 27  1  0  0  0  0
 26 27  2  0  0  0  0
 27 28  1  0  0  0  0
 28 29  1  0  0  0  0
 29 30  1  0  0  0  0
 29 31  1  0  0  0  0
M  END
>  <MODEL>
6

>  <REMARK>
 VINA RESULT:      -7.2      1.745      2.399
  Name = 
  5 active torsions:
  status: ('A' for Active; 'I' for Inactive)
    1  A    between atoms: C_1  and  O_24
    2  A    between atoms: C_9  and  C_23
    3  A    between atoms: C_15  and  C_23
    4  A    between atoms: C_19  and  N_22
    5  A    between atoms: C_19  and  O_24
                            x       y       z     vdW  Elec       q    Type
                         _______ _______ _______ _____ _____    ______ ____

>  <TORSDO>
F 5

$$$$
=
 OpenBabel10262419363D

 31 34  0  0  1  0  0  0  0  0999 V2000
  184.7450  178.2940  145.3440 C   0  0  0  0  0  0  0  0  0  0  0  0
  187.8380  177.7210  143.2970 C   0  0  0  0  0  0  0  0  0  0  0  0
  188.8360  177.1470  144.3130 C   0  0  2  0  0  3  0  0  0  0  0  0
  190.2420  177.7940  146.0980 C   0  0  0  0  0  2  0  0  0  0  0  0
  186.5280  178.1240  143.6860 C   0  0  0  0  0  0  0  0  0  0  0  0
  183.9390  178.9650  144.4260 C   0  0  0  0  0  3  0  0  0  0  0  0
  188.8190  177.8760  145.6320 C   0  0  0  0  0  2  0  0  0  0  0  0
  187.3530  178.5290  141.0310 C   0  0  0  0  0  0  0  0  0  0  0  0
  184.2870  178.0500  146.5960 F   0  0  0  0  0  0  0  0  0  0  0  0
  189.7910  175.9360  141.8220 C   0  0  0  0  0  2  0  0  0  0  0  0
  191.0500  177.3360  144.9760 N   0  0  0  0  0  0  0  0  0  0  0  0
  186.1140  179.0010  141.4550 C   0  0  0  0  0  3  0  0  0  0  0  0
  188.1850  177.8210  141.9150 C   0  0  0  0  0  0  0  0  0  0  0  0
  186.0260  177.8760  144.9770 C   0  0  0  0  0  3  0  0  0  0  0  0
  192.0340  178.3750  144.7190 C   0  0  0  0  0  1  0  0  0  0  0  0
  185.6860  178.7840  142.7580 C   0  0  0  0  0  0  0  0  0  0  0  0
  184.4080  179.2080  143.1340 C   0  0  0  0  0  3  0  0  0  0  0  0
  189.3280  177.2090  141.3820 O   0  0  0  0  0  0  0  0  0  0  0  0
  190.5680  176.0480  143.1260 C   0  0  0  0  0  2  0  0  0  0  0  0
  190.2150  177.2680  143.8420 N   0  0  1  0  0  0  0  0  0  0  0  0
  187.7290  178.7130  139.5940 C   0  0  0  0  0  2  0  0  0  0  0  0
  188.2360  176.3730  137.8830 C   0  0  0  0  0  1  0  0  0  0  0  0
  185.5220  178.6860  138.6990 O   0  0  0  0  0  0  0  0  0  0  0  0
  186.6710  178.1660  138.6820 C   0  0  0  0  0  0  0  0  0  0  0  0
  186.9550  177.0650  137.7990 N   0  0  0  0  0  0  0  0  0  0  0  0
  186.0020  176.9930  135.6030 C   0  0  0  0  0  2  0  0  0  0  0  0
  185.9710  176.5870  136.8670 C   0  0  0  0  0  0  0  0  0  0  0  0
  184.9650  175.6960  137.2580 O   0  0  0  0  0  0  0  0  0  0  0  0
  183.5860  176.0440  137.2780 C   0  0  0  0  0  3  0  0  0  0  0  0
  183.0590  175.9290  138.6920 C   0  0  0  0  0  1  0  0  0  0  0  0
  182.8000  175.1120  136.3760 C   0  0  0  0  0  1  0  0  0  0  0  0
  1  9  1  0  0  0  0
  2  5  1  0  0  0  0
  2  3  1  0  0  0  0
  3  7  1  1  0  0  0
  5 14  2  0  0  0  0
  6  1  2  0  0  0  0
  7  4  1  0  0  0  0
  8 12  2  0  0  0  0
  8 13  1  0  0  0  0
 10 19  1  0  0  0  0
 11  4  1  0  0  0  0
 12 16  1  0  0  0  0
 13  2  2  0  0  0  0
 14  1  1  0  0  0  0
 15 11  1  0  0  0  0
 16 17  2  0  0  0  0
 16  5  1  0  0  0  0
 17  6  1  0  0  0  0
 18 10  1  0  0  0  0
 18 13  1  0  0  0  0
 20 19  1  6  0  0  0
 20  3  1  0  0  0  0
 20 11  1  0  0  0  0
 21  8  1  0  0  0  0
 24 23  2  0  0  0  0
 24 21  1  0  0  0  0
 25 22  1  0  0  0  0
 25 24  1  0  0  0  0
 26 27  2  0  0  0  0
 27 28  1  0  0  0  0
 27 25  1  0  0  0  0
 28 29  1  0  0  0  0
 29 30  1  0  0  0  0
 31 29  1  0  0  0  0
M  END
>  <MODEL>
7

>  <REMARK>
 VINA RESULT:      -7.1      2.123      7.148
  Name = 
  5 active torsions:
  status: ('A' for Active; 'I' for Inactive)
    1  A    between atoms: C_1  and  O_24
    2  A    between atoms: C_9  and  C_23
    3  A    between atoms: C_15  and  C_23
    4  A    between atoms: C_19  and  N_22
    5  A    between atoms: C_19  and  O_24
                            x       y       z     vdW  Elec       q    Type
                         _______ _______ _______ _____ _____    ______ ____

>  <TORSDO>
F 5

$$$$
=
 OpenBabel10262419363D

 31 34  0  0  1  0  0  0  0  0999 V2000
  184.4870  178.6210  144.7970 C   0  0  0  0  0  0  0  0  0  0  0  0
  183.5620  178.9100  141.1710 C   0  0  0  0  0  0  0  0  0  0  0  0
  182.0440  179.1360  141.2080 C   0  0  2  0  0  3  0  0  0  0  0  0
  180.0060  177.9890  141.5470 C   0  0  0  0  0  2  0  0  0  0  0  0
  184.3130  178.7010  142.3640 C   0  0  0  0  0  0  0  0  0  0  0  0
  185.8280  178.2500  144.7010 C   0  0  0  0  0  3  0  0  0  0  0  0
  181.3380  178.2380  142.1910 C   0  0  0  0  0  2  0  0  0  0  0  0
  185.6170  178.5430  139.8800 C   0  0  0  0  0  0  0  0  0  0  0  0
  183.9090  178.7600  146.0150 F   0  0  0  0  0  0  0  0  0  0  0  0
  182.7680  180.5020  138.7200 C   0  0  0  0  0  2  0  0  0  0  0  0
  180.0890  178.4500  140.1680 N   0  0  0  0  0  0  0  0  0  0  0  0
  186.3110  178.2500  141.0510 C   0  0  0  0  0  3  0  0  0  0  0  0
  184.2730  178.9500  139.9330 C   0  0  0  0  0  0  0  0  0  0  0  0
  183.7380  178.8460  143.6400 C   0  0  0  0  0  3  0  0  0  0  0  0
  179.8140  177.2970  139.3260 C   0  0  0  0  0  1  0  0  0  0  0  0
  185.6830  178.3500  142.2850 C   0  0  0  0  0  0  0  0  0  0  0  0
  186.4250  178.1170  143.4470 C   0  0  0  0  0  3  0  0  0  0  0  0
  183.6870  179.4130  138.7460 O   0  0  0  0  0  0  0  0  0  0  0  0
  181.3720  180.0600  139.1320 C   0  0  0  0  0  2  0  0  0  0  0  0
  181.4220  178.8340  139.9200 N   0  0  1  0  0  0  0  0  0  0  0  0
  186.3640  178.5060  138.5830 C   0  0  0  0  0  2  0  0  0  0  0  0
  187.6070  176.0310  137.5910 C   0  0  0  0  0  1  0  0  0  0  0  0
  188.5340  179.0880  139.3730 O   0  0  0  0  0  0  0  0  0  0  0  0
  187.8190  178.2190  138.8040 C   0  0  0  0  0  0  0  0  0  0  0  0
  188.3980  176.9720  138.3750 N   0  0  0  0  0  0  0  0  0  0  0  0
  190.6880  176.7780  137.7000 C   0  0  0  0  0  2  0  0  0  0  0  0
  189.7720  176.6560  138.6530 C   0  0  0  0  0  0  0  0  0  0  0  0
  190.1790  176.2130  139.9170 O   0  0  0  0  0  0  0  0  0  0  0  0
  190.3430  177.0850  141.0290 C   0  0  0  0  0  3  0  0  0  0  0  0
  191.7950  177.5050  141.1280 C   0  0  0  0  0  1  0  0  0  0  0  0
  189.9410  176.3800  142.3090 C   0  0  0  0  0  1  0  0  0  0  0  0
  1  9  1  0  0  0  0
  2  3  1  0  0  0  0
  2  5  1  0  0  0  0
  3  7  1  1  0  0  0
  4  7  1  0  0  0  0
  5 14  1  0  0  0  0
  6  1  1  0  0  0  0
  8 13  1  0  0  0  0
  8 12  2  0  0  0  0
 10 18  1  0  0  0  0
 10 19  1  0  0  0  0
 11  4  1  0  0  0  0
 12 16  1  0  0  0  0
 13  2  2  0  0  0  0
 14  1  2  0  0  0  0
 15 11  1  0  0  0  0
 16  5  2  0  0  0  0
 16 17  1  0  0  0  0
 17  6  2  0  0  0  0
 18 13  1  0  0  0  0
 20 19  1  6  0  0  0
 20 11  1  0  0  0  0
 20  3  1  0  0  0  0
 21 24  1  0  0  0  0
 21  8  1  0  0  0  0
 22 25  1  0  0  0  0
 24 23  2  0  0  0  0
 25 27  1  0  0  0  0
 25 24  1  0  0  0  0
 26 27  2  0  0  0  0
 27 28  1  0  0  0  0
 28 29  1  0  0  0  0
 29 30  1  0  0  0  0
 29 31  1  0  0  0  0
M  END
>  <MODEL>
8

>  <REMARK>
 VINA RESULT:      -6.9      2.928      5.546
  Name = 
  5 active torsions:
  status: ('A' for Active; 'I' for Inactive)
    1  A    between atoms: C_1  and  O_24
    2  A    between atoms: C_9  and  C_23
    3  A    between atoms: C_15  and  C_23
    4  A    between atoms: C_19  and  N_22
    5  A    between atoms: C_19  and  O_24
                            x       y       z     vdW  Elec       q    Type
                         _______ _______ _______ _____ _____    ______ ____

>  <TORSDO>
F 5

$$$$
=
 OpenBabel10262419363D

 31 34  0  0  1  0  0  0  0  0999 V2000
  184.1740  178.6320  144.5790 C   0  0  0  0  0  0  0  0  0  0  0  0
  182.8310  179.0120  141.0950 C   0  0  0  0  0  0  0  0  0  0  0  0
  181.3190  179.1690  141.3120 C   0  0  2  0  0  3  0  0  0  0  0  0
  179.3810  177.9210  141.8300 C   0  0  0  0  0  2  0  0  0  0  0  0
  183.7210  178.7930  142.1870 C   0  0  0  0  0  0  0  0  0  0  0  0
  185.5090  178.3250  144.3180 C   0  0  0  0  0  3  0  0  0  0  0  0
  180.7660  178.2060  142.3300 C   0  0  0  0  0  2  0  0  0  0  0  0
  184.7390  178.7850  139.5670 C   0  0  0  0  0  0  0  0  0  0  0  0
  183.7330  178.7000  145.8590 F   0  0  0  0  0  0  0  0  0  0  0  0
  181.7000  180.6560  138.8160 C   0  0  0  0  0  2  0  0  0  0  0  0
  179.2870  178.4360  140.4700 N   0  0  0  0  0  0  0  0  0  0  0  0
  185.5720  178.4800  140.6390 C   0  0  0  0  0  3  0  0  0  0  0  0
  183.3940  179.1290  139.7880 C   0  0  0  0  0  0  0  0  0  0  0  0
  183.2890  178.8660  143.5240 C   0  0  0  0  0  3  0  0  0  0  0  0
  178.9640  177.3030  139.6180 C   0  0  0  0  0  1  0  0  0  0  0  0
  185.0850  178.5060  141.9390 C   0  0  0  0  0  0  0  0  0  0  0  0
  185.9640  178.2640  143.0000 C   0  0  0  0  0  3  0  0  0  0  0  0
  182.6580  179.6090  138.6950 O   0  0  0  0  0  0  0  0  0  0  0  0
  180.3780  180.1380  139.3650 C   0  0  0  0  0  2  0  0  0  0  0  0
  180.5670  178.8870  140.0900 N   0  0  1  0  0  0  0  0  0  0  0  0
  185.3330  178.8280  138.1940 C   0  0  0  0  0  2  0  0  0  0  0  0
  187.9530  177.8710  137.2580 C   0  0  0  0  0  1  0  0  0  0  0  0
  184.5200  176.6630  137.6260 O   0  0  0  0  0  0  0  0  0  0  0  0
  185.5070  177.4470  137.6350 C   0  0  0  0  0  0  0  0  0  0  0  0
  186.7800  177.0170  137.1160 N   0  0  0  0  0  0  0  0  0  0  0  0
  186.9090  175.6070  135.1840 C   0  0  0  0  0  2  0  0  0  0  0  0
  186.9350  175.7250  136.5060 C   0  0  0  0  0  0  0  0  0  0  0  0
  187.1110  174.5700  137.2770 O   0  0  0  0  0  0  0  0  0  0  0  0
  186.6170  173.2940  136.8860 C   0  0  0  0  0  3  0  0  0  0  0  0
  185.3830  172.9640  137.6990 C   0  0  0  0  0  1  0  0  0  0  0  0
  187.6710  172.2310  137.1260 C   0  0  0  0  0  1  0  0  0  0  0  0
  1  9  1  0  0  0  0
  2  3  1  0  0  0  0
  2  5  1  0  0  0  0
  3  7  1  1  0  0  0
  4  7  1  0  0  0  0
  5 14  1  0  0  0  0
  6  1  1  0  0  0  0
  8 13  1  0  0  0  0
  8 12  2  0  0  0  0
 10 19  1  0  0  0  0
 11  4  1  0  0  0  0
 12 16  1  0  0  0  0
 13  2  2  0  0  0  0
 14  1  2  0  0  0  0
 15 11  1  0  0  0  0
 16  5  2  0  0  0  0
 16 17  1  0  0  0  0
 17  6  2  0  0  0  0
 18 10  1  0  0  0  0
 18 13  1  0  0  0  0
 20 19  1  6  0  0  0
 20 11  1  0  0  0  0
 20  3  1  0  0  0  0
 21  8  1  0  0  0  0
 23 24  2  0  0  0  0
 24 21  1  0  0  0  0
 25 22  1  0  0  0  0
 25 24  1  0  0  0  0
 26 27  2  0  0  0  0
 27 25  1  0  0  0  0
 27 28  1  0  0  0  0
 29 31  1  0  0  0  0
 29 28  1  0  0  0  0
 29 30  1  0  0  0  0
M  END
>  <MODEL>
9

>  <REMARK>
 VINA RESULT:      -6.6      3.819      7.148
  Name = 
  5 active torsions:
  status: ('A' for Active; 'I' for Inactive)
    1  A    between atoms: C_1  and  O_24
    2  A    between atoms: C_9  and  C_23
    3  A    between atoms: C_15  and  C_23
    4  A    between atoms: C_19  and  N_22
    5  A    between atoms: C_19  and  O_24
                            x       y       z     vdW  Elec       q    Type
                         _______ _______ _______ _____ _____    ______ ____

>  <TORSDO>
F 5

$$$$
