=
 OpenBabel10262421163D

 32 37  0  0  1  0  0  0  0  0999 V2000
  189.3650  178.5160  142.2780 C   0  0  2  0  0  3  0  0  0  0  0  0
  186.9430  178.5260  142.8720 C   0  0  2  0  0  3  0  0  0  0  0  0
  188.2840  177.8320  143.1410 C   0  0  2  0  0  3  0  0  0  0  0  0
  185.8100  177.6440  143.3910 C   0  0  2  0  0  3  0  0  0  0  0  0
  183.6040  179.2920  139.1850 C   0  0  0  0  0  2  0  0  0  0  0  0
  186.7540  178.9730  141.3940 C   0  0  1  0  0  3  0  0  0  0  0  0
  183.2030  177.7220  141.2000 C   0  0  0  0  0  2  0  0  0  0  0  0
  184.1370  178.7530  141.8430 C   0  0  1  0  0  3  0  0  0  0  0  0
  185.7800  177.9820  147.1680 C   0  0  0  0  0  1  0  0  0  0  0  0
  188.5310  177.8570  144.6560 C   0  0  1  0  0  3  0  0  0  0  0  0
  184.4920  178.3940  143.2810 C   0  0  0  0  0  2  0  0  0  0  0  0
  187.3910  177.2110  145.4580 C   0  0  1  0  0  3  0  0  0  0  0  0
  189.7940  177.1000  145.0290 C   0  0  0  0  0  1  0  0  0  0  0  0
  187.6100  178.1360  140.4380 C   0  0  0  0  0  2  0  0  0  0  0  0
  186.3640  178.2780  145.8030 C   0  0  1  0  0  3  0  0  0  0  0  0
  189.1050  178.2360  140.7730 C   0  0  2  0  0  3  0  0  0  0  0  0
  185.3120  179.0530  140.9350 C   0  0  0  0  0  0  0  0  0  0  0  0
  185.9820  177.1630  144.8460 C   0  0  1  0  0  3  0  0  0  0  0  0
  182.9030  178.0290  139.7150 C   0  0  0  0  0  2  0  0  0  0  0  0
  185.0330  179.3240  139.6500 C   0  0  0  0  0  3  0  0  0  0  0  0
  190.3110  175.6620  138.0940 C   0  0  0  0  0  0  0  0  0  0  0  0
  193.8210  175.9480  138.4920 O   0  0  0  0  0  0  0  0  0  0  0  0
  189.4350  174.6710  137.4030 C   0  0  0  0  0  1  0  0  0  0  0  0
  192.3210  177.3110  139.7160 C   0  0  0  0  0  2  0  0  0  0  0  0
  189.8340  177.0150  140.1790 C   0  0  2  0  0  3  0  0  0  0  0  0
  191.5900  175.4200  138.1260 N   0  0  0  0  0  0  0  0  0  0  0  0
  191.2660  176.8630  140.7180 C   0  0  0  0  0  2  0  0  0  0  0  0
  189.7150  176.9350  138.6480 C   0  0  2  0  0  3  0  0  0  0  0  0
  188.3760  177.0680  138.2630 O   0  0  0  0  0  1  0  0  0  0  0  0
  192.6180  176.2070  138.7490 C   0  0  0  0  0  0  0  0  0  0  0  0
  190.6720  178.1890  142.6530 O   0  0  0  0  0  0  0  0  0  0  0  0
  191.1520  179.3280  143.3020 C   0  0  0  0  0  1  0  0  0  0  0  0
  1 31  1  1  0  0  0
  1  3  1  0  0  0  0
  2  3  1  0  0  0  0
  2  4  1  0  0  0  0
  3 10  1  0  0  0  0
  4 18  1  0  0  0  0
  5 20  1  0  0  0  0
  5 19  1  0  0  0  0
  6  2  1  0  0  0  0
  7  8  1  0  0  0  0
  8 11  1  0  0  0  0
 10 13  1  0  0  0  0
 10 12  1  0  0  0  0
 11  4  1  0  0  0  0
 12 15  1  0  0  0  0
 14 16  1  0  0  0  0
 14  6  1  0  0  0  0
 15  9  1  0  0  0  0
 16  1  1  0  0  0  0
 17  6  1  0  0  0  0
 17  8  1  0  0  0  0
 18 12  1  0  0  0  0
 18 15  1  0  0  0  0
 19  7  1  0  0  0  0
 20 17  2  0  0  0  0
 21 26  2  0  0  0  0
 21 28  1  0  0  0  0
 22 30  2  0  0  0  0
 23 21  1  0  0  0  0
 24 27  1  0  0  0  0
 25 27  1  0  0  0  0
 25 16  1  0  0  0  0
 26 30  1  0  0  0  0
 28 25  1  0  0  0  0
 29 28  1  0  0  0  0
 30 24  1  0  0  0  0
 31 32  1  0  0  0  0
M  END
>  <MODEL>
1

>  <REMARK>
 VINA RESULT:      -8.7      0.000      0.000
  Name = 
  2 active torsions:
  status: ('A' for Active; 'I' for Inactive)
    1  A    between atoms: C_1  and  O_4
    2  A    between atoms: C_16  and  C_27
                            x       y       z     vdW  Elec       q    Type
                         _______ _______ _______ _____ _____    ______ ____

>  <TORSDO>
F 2

$$$$
=
 OpenBabel10262421163D

 32 37  0  0  1  0  0  0  0  0999 V2000
  189.9930  177.4700  140.6220 C   0  0  2  0  0  3  0  0  0  0  0  0
  187.9560  177.9890  141.9640 C   0  0  2  0  0  3  0  0  0  0  0  0
  189.1400  177.0230  141.8280 C   0  0  2  0  0  3  0  0  0  0  0  0
  186.9020  177.3640  142.8740 C   0  0  2  0  0  3  0  0  0  0  0  0
  183.8230  179.4870  139.5140 C   0  0  0  0  0  2  0  0  0  0  0  0
  187.3890  178.4820  140.6020 C   0  0  1  0  0  3  0  0  0  0  0  0
  183.7950  178.0170  141.6420 C   0  0  0  0  0  2  0  0  0  0  0  0
  185.0780  178.8190  141.8850 C   0  0  1  0  0  3  0  0  0  0  0  0
  188.1830  177.6620  146.4300 C   0  0  0  0  0  1  0  0  0  0  0  0
  189.8700  176.9790  143.1770 C   0  0  1  0  0  3  0  0  0  0  0  0
  185.8030  178.3780  143.1500 C   0  0  0  0  0  2  0  0  0  0  0  0
  188.9500  176.5830  144.3420 C   0  0  1  0  0  3  0  0  0  0  0  0
  191.0020  175.9670  143.1670 C   0  0  0  0  0  1  0  0  0  0  0  0
  187.6920  177.4910  139.4730 C   0  0  0  0  0  2  0  0  0  0  0  0
  188.3340  177.8410  144.9350 C   0  0  1  0  0  3  0  0  0  0  0  0
  189.2010  177.2670  139.3020 C   0  0  2  0  0  3  0  0  0  0  0  0
  185.9250  178.8720  140.6300 C   0  0  0  0  0  0  0  0  0  0  0  0
  187.4400  176.8420  144.2210 C   0  0  1  0  0  3  0  0  0  0  0  0
  183.0930  178.3970  140.3170 C   0  0  0  0  0  2  0  0  0  0  0  0
  185.3000  179.2090  139.4900 C   0  0  0  0  0  3  0  0  0  0  0  0
  188.6680  174.3820  136.7230 C   0  0  0  0  0  0  0  0  0  0  0  0
  191.8960  174.2430  135.2660 O   0  0  0  0  0  0  0  0  0  0  0  0
  187.4900  173.4660  136.6950 C   0  0  0  0  0  1  0  0  0  0  0  0
  191.3420  175.8680  136.8970 C   0  0  0  0  0  2  0  0  0  0  0  0
  189.4300  175.9250  138.5790 C   0  0  2  0  0  3  0  0  0  0  0  0
  189.7600  173.9810  136.1390 N   0  0  0  0  0  0  0  0  0  0  0  0
  190.9200  175.6290  138.3400 C   0  0  0  0  0  2  0  0  0  0  0  0
  188.5370  175.7550  137.3380 C   0  0  2  0  0  3  0  0  0  0  0  0
  187.2050  176.0320  137.6640 O   0  0  0  0  0  1  0  0  0  0  0  0
  191.0180  174.6720  136.0580 C   0  0  0  0  0  0  0  0  0  0  0  0
  191.2540  176.8680  140.5740 O   0  0  0  0  0  0  0  0  0  0  0  0
  192.1560  177.9330  140.5520 C   0  0  0  0  0  1  0  0  0  0  0  0
  1 31  1  6  0  0  0
  1  3  1  0  0  0  0
  2  4  1  0  0  0  0
  3  2  1  0  0  0  0
  3 10  1  0  0  0  0
  4 11  1  0  0  0  0
  4 18  1  0  0  0  0
  5 19  1  0  0  0  0
  6 17  1  0  0  0  0
  6  2  1  0  0  0  0
  7  8  1  0  0  0  0
  8 11  1  0  0  0  0
 10 12  1  0  0  0  0
 12 15  1  0  0  0  0
 13 10  1  0  0  0  0
 14  6  1  0  0  0  0
 15  9  1  0  0  0  0
 16 14  1  0  0  0  0
 16  1  1  0  0  0  0
 17  8  1  0  0  0  0
 18 12  1  0  0  0  0
 18 15  1  0  0  0  0
 19  7  1  0  0  0  0
 20  5  1  0  0  0  0
 20 17  2  0  0  0  0
 21 28  1  0  0  0  0
 22 30  2  0  0  0  0
 23 21  1  0  0  0  0
 24 27  1  0  0  0  0
 25 16  1  0  0  0  0
 26 21  2  0  0  0  0
 27 25  1  0  0  0  0
 28 29  1  0  0  0  0
 28 25  1  0  0  0  0
 30 26  1  0  0  0  0
 30 24  1  0  0  0  0
 32 31  1  0  0  0  0
M  END
>  <MODEL>
2

>  <REMARK>
 VINA RESULT:      -8.7      1.581      2.145
  Name = 
  2 active torsions:
  status: ('A' for Active; 'I' for Inactive)
    1  A    between atoms: C_1  and  O_4
    2  A    between atoms: C_16  and  C_27
                            x       y       z     vdW  Elec       q    Type
                         _______ _______ _______ _____ _____    ______ ____

>  <TORSDO>
F 2

$$$$
=
 OpenBabel10262421163D

 32 37  0  0  1  0  0  0  0  0999 V2000
  183.3070  178.3990  140.0100 C   0  0  2  0  0  3  0  0  0  0  0  0
  184.2140  177.4400  137.8940 C   0  0  2  0  0  3  0  0  0  0  0  0
  183.3520  177.1350  139.1260 C   0  0  2  0  0  3  0  0  0  0  0  0
  184.5990  176.1290  137.2150 C   0  0  2  0  0  3  0  0  0  0  0  0
  188.9460  178.5830  136.6140 C   0  0  0  0  0  2  0  0  0  0  0  0
  185.4280  178.3650  138.1930 C   0  0  1  0  0  3  0  0  0  0  0  0
  187.8330  176.2940  136.1580 C   0  0  0  0  0  2  0  0  0  0  0  0
  186.6040  177.2070  136.1000 C   0  0  1  0  0  3  0  0  0  0  0  0
  181.5300  174.8920  135.3630 C   0  0  0  0  0  1  0  0  0  0  0  0
  181.9920  176.6210  138.6330 C   0  0  1  0  0  3  0  0  0  0  0  0
  185.3110  176.4250  135.9050 C   0  0  0  0  0  2  0  0  0  0  0  0
  182.1140  175.3970  137.7120 C   0  0  1  0  0  3  0  0  0  0  0  0
  181.1030  176.1960  139.7880 C   0  0  0  0  0  1  0  0  0  0  0  0
  185.8520  178.2830  139.6630 C   0  0  0  0  0  2  0  0  0  0  0  0
  182.2390  175.8730  136.2730 C   0  0  1  0  0  3  0  0  0  0  0  0
  184.7100  178.6840  140.6090 C   0  0  2  0  0  3  0  0  0  0  0  0
  186.6070  178.1860  137.2580 C   0  0  0  0  0  0  0  0  0  0  0  0
  183.4190  175.1790  136.9300 C   0  0  1  0  0  3  0  0  0  0  0  0
  189.1420  177.0670  136.4400 C   0  0  0  0  0  2  0  0  0  0  0  0
  187.7500  178.8530  137.4850 C   0  0  0  0  0  3  0  0  0  0  0  0
  186.6950  177.7000  143.8260 C   0  0  0  0  0  0  0  0  0  0  0  0
  184.6810  179.2480  146.2980 O   0  0  0  0  0  0  0  0  0  0  0  0
  187.7860  176.6840  143.8820 C   0  0  0  0  0  1  0  0  0  0  0  0
  184.2050  179.4780  143.9900 C   0  0  0  0  0  2  0  0  0  0  0  0
  184.9820  178.0870  142.0030 C   0  0  2  0  0  3  0  0  0  0  0  0
  186.0860  177.9950  144.9390 N   0  0  0  0  0  0  0  0  0  0  0  0
  183.8480  178.3770  143.0010 C   0  0  0  0  0  2  0  0  0  0  0  0
  186.3920  178.4080  142.5260 C   0  0  2  0  0  3  0  0  0  0  0  0
  187.3480  178.0950  141.5530 O   0  0  0  0  0  1  0  0  0  0  0  0
  184.9980  178.9150  145.1270 C   0  0  0  0  0  0  0  0  0  0  0  0
  182.3160  178.3580  140.9960 O   0  0  0  0  0  0  0  0  0  0  0  0
  181.4840  179.4420  140.7110 C   0  0  0  0  0  1  0  0  0  0  0  0
  1 16  1  0  0  0  0
  1 31  1  1  0  0  0
  2  6  1  0  0  0  0
  2  3  1  0  0  0  0
  3  1  1  0  0  0  0
  4  2  1  0  0  0  0
  5 20  1  0  0  0  0
  6 14  1  0  0  0  0
  7 19  1  0  0  0  0
  8  7  1  0  0  0  0
  8 17  1  0  0  0  0
  9 15  1  0  0  0  0
 10  3  1  0  0  0  0
 10 13  1  0  0  0  0
 11  8  1  0  0  0  0
 11  4  1  0  0  0  0
 12 10  1  0  0  0  0
 14 16  1  0  0  0  0
 15 18  1  0  0  0  0
 15 12  1  0  0  0  0
 16 25  1  0  0  0  0
 17 20  2  0  0  0  0
 17  6  1  0  0  0  0
 18  4  1  0  0  0  0
 18 12  1  0  0  0  0
 19  5  1  0  0  0  0
 21 23  1  0  0  0  0
 21 26  2  0  0  0  0
 24 30  1  0  0  0  0
 25 28  1  0  0  0  0
 25 27  1  0  0  0  0
 26 30  1  0  0  0  0
 27 24  1  0  0  0  0
 28 21  1  0  0  0  0
 29 28  1  0  0  0  0
 30 22  2  0  0  0  0
 32 31  1  0  0  0  0
M  END
>  <MODEL>
3

>  <REMARK>
 VINA RESULT:      -8.2      3.507      7.754
  Name = 
  2 active torsions:
  status: ('A' for Active; 'I' for Inactive)
    1  A    between atoms: C_1  and  O_4
    2  A    between atoms: C_16  and  C_27
                            x       y       z     vdW  Elec       q    Type
                         _______ _______ _______ _____ _____    ______ ____

>  <TORSDO>
F 2

$$$$
=
 OpenBabel10262421163D

 32 37  0  0  1  0  0  0  0  0999 V2000
  184.7020  179.1490  140.1980 C   0  0  2  0  0  3  0  0  0  0  0  0
  186.6240  178.6370  141.7020 C   0  0  2  0  0  3  0  0  0  0  0  0
  185.9430  178.2510  140.3830 C   0  0  2  0  0  3  0  0  0  0  0  0
  187.5990  177.5330  142.1030 C   0  0  2  0  0  3  0  0  0  0  0  0
  185.8150  178.6490  146.6690 C   0  0  0  0  0  2  0  0  0  0  0  0
  185.6280  179.0270  142.8310 C   0  0  1  0  0  3  0  0  0  0  0  0
  187.4430  177.0370  145.4690 C   0  0  0  0  0  2  0  0  0  0  0  0
  187.5240  178.2480  144.5340 C   0  0  1  0  0  3  0  0  0  0  0  0
  190.6430  177.8710  139.8680 C   0  0  0  0  0  1  0  0  0  0  0  0
  186.9940  178.3340  139.2670 C   0  0  1  0  0  3  0  0  0  0  0  0
  188.4000  177.9790  143.3160 C   0  0  0  0  0  2  0  0  0  0  0  0
  188.2270  177.4600  139.5420 C   0  0  1  0  0  3  0  0  0  0  0  0
  186.4330  177.8700  137.9350 C   0  0  0  0  0  1  0  0  0  0  0  0
  184.2520  178.3910  142.6140 C   0  0  0  0  0  2  0  0  0  0  0  0
  189.2540  178.2810  140.3060 C   0  0  1  0  0  3  0  0  0  0  0  0
  183.6330  178.8130  141.2740 C   0  0  2  0  0  3  0  0  0  0  0  0
  186.1410  178.7920  144.2370 C   0  0  0  0  0  0  0  0  0  0  0  0
  188.5830  177.1060  140.9950 C   0  0  1  0  0  3  0  0  0  0  0  0
  186.4900  177.2660  146.6650 C   0  0  0  0  0  2  0  0  0  0  0  0
  185.3290  178.9900  145.2880 C   0  0  0  0  0  3  0  0  0  0  0  0
  180.1820  177.4030  140.1080 C   0  0  0  0  0  0  0  0  0  0  0  0
  181.1870  175.5990  137.2270 O   0  0  0  0  0  0  0  0  0  0  0  0
  178.9310  177.4220  140.9210 C   0  0  0  0  0  1  0  0  0  0  0  0
  182.7290  176.8810  138.4860 C   0  0  0  0  0  2  0  0  0  0  0  0
  182.5680  177.7770  140.8650 C   0  0  2  0  0  3  0  0  0  0  0  0
  180.2600  176.5370  139.1380 N   0  0  0  0  0  0  0  0  0  0  0  0
  183.1310  176.6840  139.9410 C   0  0  0  0  0  2  0  0  0  0  0  0
  181.2640  178.4240  140.3700 C   0  0  2  0  0  3  0  0  0  0  0  0
  180.8290  179.3890  141.2850 O   0  0  0  0  0  1  0  0  0  0  0  0
  181.3640  176.3160  138.2450 C   0  0  0  0  0  0  0  0  0  0  0  0
  184.1710  179.1140  138.9050 O   0  0  0  0  0  0  0  0  0  0  0  0
  183.6070  180.3770  138.7160 C   0  0  0  0  0  1  0  0  0  0  0  0
  1 31  1  6  0  0  0
  1  3  1  0  0  0  0
  1 16  1  0  0  0  0
  2  4  1  0  0  0  0
  2  6  1  0  0  0  0
  3  2  1  0  0  0  0
  4 11  1  0  0  0  0
  6 17  1  0  0  0  0
  7 19  1  0  0  0  0
  8  7  1  0  0  0  0
  9 15  1  0  0  0  0
 10 12  1  0  0  0  0
 10  3  1  0  0  0  0
 11  8  1  0  0  0  0
 12 15  1  0  0  0  0
 12 18  1  0  0  0  0
 13 10  1  0  0  0  0
 14  6  1  0  0  0  0
 15 18  1  0  0  0  0
 16 14  1  0  0  0  0
 17  8  1  0  0  0  0
 17 20  2  0  0  0  0
 18  4  1  0  0  0  0
 19  5  1  0  0  0  0
 20  5  1  0  0  0  0
 21 28  1  0  0  0  0
 21 23  1  0  0  0  0
 22 30  2  0  0  0  0
 24 27  1  0  0  0  0
 25 16  1  0  0  0  0
 26 21  2  0  0  0  0
 27 25  1  0  0  0  0
 28 25  1  0  0  0  0
 28 29  1  0  0  0  0
 30 24  1  0  0  0  0
 30 26  1  0  0  0  0
 32 31  1  0  0  0  0
M  END
>  <MODEL>
4

>  <REMARK>
 VINA RESULT:      -8.2      3.482      7.412
  Name = 
  2 active torsions:
  status: ('A' for Active; 'I' for Inactive)
    1  A    between atoms: C_1  and  O_4
    2  A    between atoms: C_16  and  C_27
                            x       y       z     vdW  Elec       q    Type
                         _______ _______ _______ _____ _____    ______ ____

>  <TORSDO>
F 2

$$$$
=
 OpenBabel10262421163D

 32 37  0  0  1  0  0  0  0  0999 V2000
  188.0560  177.6290  136.3010 C   0  0  2  0  0  3  0  0  0  0  0  0
  189.6750  177.2370  138.1560 C   0  0  2  0  0  3  0  0  0  0  0  0
  189.1460  176.6750  136.8310 C   0  0  2  0  0  3  0  0  0  0  0  0
  190.4500  176.1450  138.8890 C   0  0  2  0  0  3  0  0  0  0  0  0
  188.1850  178.2470  142.8560 C   0  0  0  0  0  2  0  0  0  0  0  0
  188.5830  177.9180  139.0290 C   0  0  1  0  0  3  0  0  0  0  0  0
  189.7660  176.3010  142.2220 C   0  0  0  0  0  2  0  0  0  0  0  0
  190.1180  177.3040  141.1190 C   0  0  1  0  0  3  0  0  0  0  0  0
  193.7950  175.7880  137.1420 C   0  0  0  0  0  1  0  0  0  0  0  0
  190.3450  176.4540  135.8990 C   0  0  1  0  0  3  0  0  0  0  0  0
  191.1180  176.7370  140.1200 C   0  0  0  0  0  2  0  0  0  0  0  0
  191.4180  175.5410  136.5110 C   0  0  1  0  0  3  0  0  0  0  0  0
  189.9260  175.8020  134.5940 C   0  0  0  0  0  1  0  0  0  0  0  0
  187.1860  177.3790  138.7080 C   0  0  0  0  0  2  0  0  0  0  0  0
  192.4160  176.3950  137.2770 C   0  0  1  0  0  3  0  0  0  0  0  0
  186.8150  177.5970  137.2340 C   0  0  2  0  0  3  0  0  0  0  0  0
  188.8630  177.9040  140.5180 C   0  0  0  0  0  0  0  0  0  0  0  0
  191.5220  175.4330  138.0410 C   0  0  1  0  0  3  0  0  0  0  0  0
  188.6880  176.8330  143.1950 C   0  0  0  0  0  2  0  0  0  0  0  0
  187.9410  178.3670  141.3770 C   0  0  0  0  0  3  0  0  0  0  0  0
  184.8830  174.2120  136.9770 C   0  0  0  0  0  0  0  0  0  0  0  0
  181.7620  175.1690  138.3570 O   0  0  0  0  0  0  0  0  0  0  0  0
  185.3390  173.0230  136.1980 C   0  0  0  0  0  1  0  0  0  0  0  0
  183.5860  176.6750  138.2560 C   0  0  0  0  0  2  0  0  0  0  0  0
  185.7050  176.6020  136.8440 C   0  0  2  0  0  3  0  0  0  0  0  0
  183.6150  174.2980  137.2630 N   0  0  0  0  0  0  0  0  0  0  0  0
  184.2950  177.1940  137.0130 C   0  0  0  0  0  2  0  0  0  0  0  0
  185.8960  175.2150  137.4780 C   0  0  2  0  0  3  0  0  0  0  0  0
  187.2010  174.7610  137.2560 O   0  0  0  0  0  1  0  0  0  0  0  0
  182.9460  175.3530  137.9730 C   0  0  0  0  0  0  0  0  0  0  0  0
  187.7110  177.4020  134.9650 O   0  0  0  0  0  0  0  0  0  0  0  0
  186.9640  178.5200  134.5940 C   0  0  0  0  0  1  0  0  0  0  0  0
  1 31  1  6  0  0  0
  1  3  1  0  0  0  0
  1 16  1  0  0  0  0
  2  4  1  0  0  0  0
  2  6  1  0  0  0  0
  3  2  1  0  0  0  0
  4 11  1  0  0  0  0
  5 19  1  0  0  0  0
  6 17  1  0  0  0  0
  7 19  1  0  0  0  0
  8  7  1  0  0  0  0
  9 15  1  0  0  0  0
 10 12  1  0  0  0  0
 10  3  1  0  0  0  0
 11  8  1  0  0  0  0
 12 15  1  0  0  0  0
 12 18  1  0  0  0  0
 13 10  1  0  0  0  0
 14  6  1  0  0  0  0
 15 18  1  0  0  0  0
 16 14  1  0  0  0  0
 17  8  1  0  0  0  0
 17 20  2  0  0  0  0
 18  4  1  0  0  0  0
 20  5  1  0  0  0  0
 21 26  2  0  0  0  0
 21 28  1  0  0  0  0
 23 21  1  0  0  0  0
 25 27  1  0  0  0  0
 25 16  1  0  0  0  0
 25 28  1  0  0  0  0
 26 30  1  0  0  0  0
 27 24  1  0  0  0  0
 29 28  1  0  0  0  0
 30 24  1  0  0  0  0
 30 22  2  0  0  0  0
 32 31  1  0  0  0  0
M  END
>  <MODEL>
5

>  <REMARK>
 VINA RESULT:      -8.0      3.241      7.522
  Name = 
  2 active torsions:
  status: ('A' for Active; 'I' for Inactive)
    1  A    between atoms: C_1  and  O_4
    2  A    between atoms: C_16  and  C_27
                            x       y       z     vdW  Elec       q    Type
                         _______ _______ _______ _____ _____    ______ ____

>  <TORSDO>
F 2

$$$$
=
 OpenBabel10262421163D

 32 37  0  0  1  0  0  0  0  0999 V2000
  183.5080  178.2750  138.7260 C   0  0  2  0  0  3  0  0  0  0  0  0
  185.7740  178.4910  139.7430 C   0  0  2  0  0  3  0  0  0  0  0  0
  184.9780  177.8230  138.6140 C   0  0  2  0  0  3  0  0  0  0  0  0
  187.1130  177.7770  139.9020 C   0  0  2  0  0  3  0  0  0  0  0  0
  186.1200  178.5920  144.7630 C   0  0  0  0  0  2  0  0  0  0  0  0
  184.9810  178.6290  141.0730 C   0  0  1  0  0  3  0  0  0  0  0  0
  187.8700  177.4890  143.2100 C   0  0  0  0  0  2  0  0  0  0  0  0
  187.3520  178.5980  142.2880 C   0  0  1  0  0  3  0  0  0  0  0  0
  189.3190  178.8920  137.0260 C   0  0  0  0  0  1  0  0  0  0  0  0
  185.6750  178.1520  137.2870 C   0  0  1  0  0  3  0  0  0  0  0  0
  187.9770  178.5320  140.9000 C   0  0  0  0  0  2  0  0  0  0  0  0
  187.1510  177.7270  137.2650 C   0  0  1  0  0  3  0  0  0  0  0  0
  185.0120  177.4460  136.1180 C   0  0  0  0  0  1  0  0  0  0  0  0
  183.8670  177.5820  141.1770 C   0  0  0  0  0  2  0  0  0  0  0  0
  188.0040  178.8780  137.7760 C   0  0  1  0  0  3  0  0  0  0  0  0
  182.8670  177.6980  140.0180 C   0  0  2  0  0  3  0  0  0  0  0  0
  185.8390  178.6620  142.3220 C   0  0  0  0  0  0  0  0  0  0  0  0
  187.9120  177.6020  138.5940 C   0  0  1  0  0  3  0  0  0  0  0  0
  187.1820  177.4920  144.5950 C   0  0  0  0  0  2  0  0  0  0  0  0
  185.2590  178.6700  143.5330 C   0  0  0  0  0  3  0  0  0  0  0  0
  179.8780  175.2000  139.7200 C   0  0  0  0  0  0  0  0  0  0  0  0
  180.6590  173.6590  136.6260 O   0  0  0  0  0  0  0  0  0  0  0  0
  178.9310  174.8630  140.8240 C   0  0  0  0  0  1  0  0  0  0  0  0
  181.9680  175.4310  137.4920 C   0  0  0  0  0  2  0  0  0  0  0  0
  182.1250  176.3560  139.8600 C   0  0  2  0  0  3  0  0  0  0  0  0
  179.9860  174.3540  138.7370 N   0  0  0  0  0  0  0  0  0  0  0  0
  182.7610  175.4510  138.7920 C   0  0  0  0  0  2  0  0  0  0  0  0
  180.6030  176.5260  139.7310 C   0  0  2  0  0  3  0  0  0  0  0  0
  180.1230  177.3490  140.7550 O   0  0  0  0  0  1  0  0  0  0  0  0
  180.8430  174.4490  137.5870 C   0  0  0  0  0  0  0  0  0  0  0  0
  182.7440  177.9870  137.5900 O   0  0  0  0  0  0  0  0  0  0  0  0
  181.9040  179.0900  137.4370 C   0  0  0  0  0  1  0  0  0  0  0  0
  1 31  1  6  0  0  0
  1 16  1  0  0  0  0
  2  4  1  0  0  0  0
  2  6  1  0  0  0  0
  3  1  1  0  0  0  0
  3  2  1  0  0  0  0
  4 11  1  0  0  0  0
  6 14  1  0  0  0  0
  6 17  1  0  0  0  0
  7 19  1  0  0  0  0
  8 17  1  0  0  0  0
  8  7  1  0  0  0  0
  9 15  1  0  0  0  0
 10  3  1  0  0  0  0
 11  8  1  0  0  0  0
 12 10  1  0  0  0  0
 12 15  1  0  0  0  0
 12 18  1  0  0  0  0
 13 10  1  0  0  0  0
 15 18  1  0  0  0  0
 16 14  1  0  0  0  0
 17 20  2  0  0  0  0
 18  4  1  0  0  0  0
 19  5  1  0  0  0  0
 20  5  1  0  0  0  0
 21 28  1  0  0  0  0
 21 23  1  0  0  0  0
 22 30  2  0  0  0  0
 24 30  1  0  0  0  0
 24 27  1  0  0  0  0
 25 16  1  0  0  0  0
 26 21  2  0  0  0  0
 27 25  1  0  0  0  0
 28 25  1  0  0  0  0
 28 29  1  0  0  0  0
 30 26  1  0  0  0  0
 32 31  1  0  0  0  0
M  END
>  <MODEL>
6

>  <REMARK>
 VINA RESULT:      -8.0      4.027      8.080
  Name = 
  2 active torsions:
  status: ('A' for Active; 'I' for Inactive)
    1  A    between atoms: C_1  and  O_4
    2  A    between atoms: C_16  and  C_27
                            x       y       z     vdW  Elec       q    Type
                         _______ _______ _______ _____ _____    ______ ____

>  <TORSDO>
F 2

$$$$
=
 OpenBabel10262421163D

 32 37  0  0  1  0  0  0  0  0999 V2000
  187.7650  177.7900  136.6990 C   0  0  2  0  0  3  0  0  0  0  0  0
  188.5860  177.8980  139.0510 C   0  0  2  0  0  3  0  0  0  0  0  0
  188.6870  177.1150  137.7350 C   0  0  2  0  0  3  0  0  0  0  0  0
  189.1600  177.0500  140.1830 C   0  0  2  0  0  3  0  0  0  0  0  0
  185.2850  179.0810  142.6610 C   0  0  0  0  0  2  0  0  0  0  0  0
  187.1620  178.4470  139.3460 C   0  0  1  0  0  3  0  0  0  0  0  0
  187.2360  177.4110  142.9700 C   0  0  0  0  0  2  0  0  0  0  0  0
  187.8450  178.3460  141.9200 C   0  0  1  0  0  3  0  0  0  0  0  0
  192.9350  177.1500  139.8460 C   0  0  0  0  0  1  0  0  0  0  0  0
  190.1700  177.0300  137.3490 C   0  0  1  0  0  3  0  0  0  0  0  0
  189.2190  177.8770  141.4570 C   0  0  0  0  0  2  0  0  0  0  0  0
  191.0380  176.4000  138.4490 C   0  0  1  0  0  3  0  0  0  0  0  0
  190.3760  176.1820  136.1070 C   0  0  0  0  0  1  0  0  0  0  0  0
  186.0820  177.6260  138.6360 C   0  0  0  0  0  2  0  0  0  0  0  0
  191.5410  177.4980  139.3720 C   0  0  1  0  0  3  0  0  0  0  0  0
  186.2780  177.6210  137.1130 C   0  0  2  0  0  3  0  0  0  0  0  0
  186.8480  178.6370  140.8170 C   0  0  0  0  0  0  0  0  0  0  0  0
  190.5620  176.4690  139.9080 C   0  0  1  0  0  3  0  0  0  0  0  0
  185.8060  177.8280  143.3860 C   0  0  0  0  0  2  0  0  0  0  0  0
  185.6130  179.0030  141.1960 C   0  0  0  0  0  3  0  0  0  0  0  0
  185.1820  173.9000  136.6480 C   0  0  0  0  0  0  0  0  0  0  0  0
  181.6670  174.2460  136.9360 O   0  0  0  0  0  0  0  0  0  0  0  0
  186.0690  172.8010  136.1660 C   0  0  0  0  0  1  0  0  0  0  0  0
  183.1200  176.0920  137.2240 C   0  0  0  0  0  2  0  0  0  0  0  0
  185.5480  176.4010  136.5170 C   0  0  2  0  0  3  0  0  0  0  0  0
  183.8960  173.7340  136.5350 N   0  0  0  0  0  0  0  0  0  0  0  0
  184.0720  176.6940  136.1990 C   0  0  0  0  0  2  0  0  0  0  0  0
  185.7860  175.1120  137.3200 C   0  0  2  0  0  3  0  0  0  0  0  0
  187.1550  174.9300  137.5410 O   0  0  0  0  0  1  0  0  0  0  0  0
  182.8560  174.6550  136.9030 C   0  0  0  0  0  0  0  0  0  0  0  0
  187.9940  177.3680  135.3850 O   0  0  0  0  0  0  0  0  0  0  0  0
  187.2610  178.2530  134.5940 C   0  0  0  0  0  1  0  0  0  0  0  0
  1 31  1  6  0  0  0
  1 16  1  0  0  0  0
  1  3  1  0  0  0  0
  2  6  1  0  0  0  0
  2  4  1  0  0  0  0
  3  2  1  0  0  0  0
  4 11  1  0  0  0  0
  5 19  1  0  0  0  0
  6 17  1  0  0  0  0
  7 19  1  0  0  0  0
  8  7  1  0  0  0  0
 10  3  1  0  0  0  0
 10 12  1  0  0  0  0
 11  8  1  0  0  0  0
 12 15  1  0  0  0  0
 12 18  1  0  0  0  0
 13 10  1  0  0  0  0
 14  6  1  0  0  0  0
 15  9  1  0  0  0  0
 15 18  1  0  0  0  0
 16 14  1  0  0  0  0
 17 20  2  0  0  0  0
 17  8  1  0  0  0  0
 18  4  1  0  0  0  0
 20  5  1  0  0  0  0
 21 28  1  0  0  0  0
 23 21  1  0  0  0  0
 25 16  1  0  0  0  0
 25 28  1  0  0  0  0
 26 21  2  0  0  0  0
 26 30  1  0  0  0  0
 27 25  1  0  0  0  0
 27 24  1  0  0  0  0
 28 29  1  0  0  0  0
 30 22  2  0  0  0  0
 30 24  1  0  0  0  0
 32 31  1  0  0  0  0
M  END
>  <MODEL>
7

>  <REMARK>
 VINA RESULT:      -7.8      3.147      6.618
  Name = 
  2 active torsions:
  status: ('A' for Active; 'I' for Inactive)
    1  A    between atoms: C_1  and  O_4
    2  A    between atoms: C_16  and  C_27
                            x       y       z     vdW  Elec       q    Type
                         _______ _______ _______ _____ _____    ______ ____

>  <TORSDO>
F 2

$$$$
=
 OpenBabel10262421163D

 32 37  0  0  1  0  0  0  0  0999 V2000
  184.9600  179.3810  142.7390 C   0  0  2  0  0  3  0  0  0  0  0  0
  183.7360  178.7580  140.6580 C   0  0  2  0  0  3  0  0  0  0  0  0
  183.7850  178.5540  142.1780 C   0  0  2  0  0  3  0  0  0  0  0  0
  182.8610  177.6740  140.0350 C   0  0  2  0  0  3  0  0  0  0  0  0
  186.4310  177.8760  136.5000 C   0  0  0  0  0  2  0  0  0  0  0  0
  185.1380  178.8820  139.9970 C   0  0  1  0  0  3  0  0  0  0  0  0
  184.2640  176.6070  137.1200 C   0  0  0  0  0  2  0  0  0  0  0  0
  183.9820  177.9620  137.7800 C   0  0  1  0  0  3  0  0  0  0  0  0
  179.2570  178.5960  140.7650 C   0  0  0  0  0  1  0  0  0  0  0  0
  182.4010  178.8970  142.7440 C   0  0  1  0  0  3  0  0  0  0  0  0
  182.6700  177.9640  138.5550 C   0  0  0  0  0  2  0  0  0  0  0  0
  181.2710  178.0780  142.1010 C   0  0  1  0  0  3  0  0  0  0  0  0
  182.3250  178.6260  144.2360 C   0  0  0  0  0  1  0  0  0  0  0  0
  186.2210  178.1970  140.8360 C   0  0  0  0  0  2  0  0  0  0  0  0
  180.7470  178.8280  140.8860 C   0  0  1  0  0  3  0  0  0  0  0  0
  186.3110  178.7950  142.2480 C   0  0  2  0  0  3  0  0  0  0  0  0
  185.1940  178.4490  138.5450 C   0  0  0  0  0  0  0  0  0  0  0  0
  181.4740  177.5100  140.6870 C   0  0  1  0  0  3  0  0  0  0  0  0
  185.6320  176.5640  136.4010 C   0  0  0  0  0  2  0  0  0  0  0  0
  186.3730  178.4110  137.9040 C   0  0  0  0  0  3  0  0  0  0  0  0
  189.1550  176.9500  144.1900 C   0  0  0  0  0  0  0  0  0  0  0  0
  187.9470  177.2620  147.5070 O   0  0  0  0  0  0  0  0  0  0  0  0
  190.2180  176.1140  143.5600 C   0  0  0  0  0  1  0  0  0  0  0  0
  186.8150  178.2530  145.6790 C   0  0  0  0  0  2  0  0  0  0  0  0
  186.9820  177.7700  143.1840 C   0  0  2  0  0  3  0  0  0  0  0  0
  188.8970  176.7530  145.4510 N   0  0  0  0  0  0  0  0  0  0  0  0
  186.1890  177.5490  144.4830 C   0  0  0  0  0  2  0  0  0  0  0  0
  188.4810  178.0390  143.3880 C   0  0  2  0  0  3  0  0  0  0  0  0
  189.1110  178.2100  142.1500 O   0  0  0  0  0  1  0  0  0  0  0  0
  187.9090  177.4120  146.2600 C   0  0  0  0  0  0  0  0  0  0  0  0
  184.9280  179.5270  144.1300 O   0  0  0  0  0  0  0  0  0  0  0  0
  184.9310  180.9060  144.3430 C   0  0  0  0  0  1  0  0  0  0  0  0
  1 31  1  1  0  0  0
  2  3  1  0  0  0  0
  3  1  1  0  0  0  0
  3 10  1  0  0  0  0
  4  2  1  0  0  0  0
  4 18  1  0  0  0  0
  5 20  1  0  0  0  0
  6  2  1  0  0  0  0
  6 14  1  0  0  0  0
  7  8  1  0  0  0  0
  8 17  1  0  0  0  0
  8 11  1  0  0  0  0
  9 15  1  0  0  0  0
 10 13  1  0  0  0  0
 11  4  1  0  0  0  0
 12 10  1  0  0  0  0
 14 16  1  0  0  0  0
 15 12  1  0  0  0  0
 16  1  1  0  0  0  0
 16 25  1  0  0  0  0
 17  6  1  0  0  0  0
 18 15  1  0  0  0  0
 18 12  1  0  0  0  0
 19  5  1  0  0  0  0
 19  7  1  0  0  0  0
 20 17  2  0  0  0  0
 21 26  2  0  0  0  0
 23 21  1  0  0  0  0
 24 30  1  0  0  0  0
 25 28  1  0  0  0  0
 25 27  1  0  0  0  0
 26 30  1  0  0  0  0
 27 24  1  0  0  0  0
 28 21  1  0  0  0  0
 29 28  1  0  0  0  0
 30 22  2  0  0  0  0
 31 32  1  0  0  0  0
M  END
>  <MODEL>
8

>  <REMARK>
 VINA RESULT:      -7.8      3.001      5.920
  Name = 
  2 active torsions:
  status: ('A' for Active; 'I' for Inactive)
    1  A    between atoms: C_1  and  O_4
    2  A    between atoms: C_16  and  C_27
                            x       y       z     vdW  Elec       q    Type
                         _______ _______ _______ _____ _____    ______ ____

>  <TORSDO>
F 2

$$$$
=
 OpenBabel10262421163D

 32 37  0  0  1  0  0  0  0  0999 V2000
  182.5900  177.8880  139.6850 C   0  0  2  0  0  3  0  0  0  0  0  0
  185.0070  177.9890  140.2900 C   0  0  2  0  0  3  0  0  0  0  0  0
  183.6200  178.5590  140.6160 C   0  0  2  0  0  3  0  0  0  0  0  0
  186.0760  178.8930  140.8970 C   0  0  2  0  0  3  0  0  0  0  0  0
  188.3890  177.8080  136.5670 C   0  0  0  0  0  2  0  0  0  0  0  0
  185.2250  177.6980  138.7770 C   0  0  1  0  0  3  0  0  0  0  0  0
  188.6800  179.2040  138.7250 C   0  0  0  0  0  2  0  0  0  0  0  0
  187.8210  178.0550  139.2620 C   0  0  1  0  0  3  0  0  0  0  0  0
  186.1310  178.2010  144.6250 C   0  0  0  0  0  1  0  0  0  0  0  0
  183.3760  178.3740  142.1200 C   0  0  1  0  0  3  0  0  0  0  0  0
  187.4420  178.2500  140.7240 C   0  0  0  0  0  2  0  0  0  0  0  0
  184.4700  179.0180  142.9860 C   0  0  1  0  0  3  0  0  0  0  0  0
  182.0650  179.0030  142.5540 C   0  0  0  0  0  1  0  0  0  0  0  0
  184.3130  178.5610  137.8990 C   0  0  0  0  0  2  0  0  0  0  0  0
  185.5680  177.9960  143.2350 C   0  0  1  0  0  3  0  0  0  0  0  0
  182.8290  178.3270  138.2150 C   0  0  2  0  0  3  0  0  0  0  0  0
  186.6690  177.7620  138.3220 C   0  0  0  0  0  0  0  0  0  0  0  0
  185.8710  179.2210  142.3900 C   0  0  1  0  0  3  0  0  0  0  0  0
  189.0010  179.0610  137.2190 C   0  0  0  0  0  2  0  0  0  0  0  0
  186.9660  177.6350  137.0190 C   0  0  0  0  0  3  0  0  0  0  0  0
  179.8600  180.3500  136.6810 C   0  0  0  0  0  0  0  0  0  0  0  0
  179.1660  182.5650  139.3600 O   0  0  0  0  0  0  0  0  0  0  0  0
  179.4530  180.3180  135.2460 C   0  0  0  0  0  1  0  0  0  0  0  0
  180.8170  180.8780  139.5440 C   0  0  0  0  0  2  0  0  0  0  0  0
  182.0160  179.5450  137.7350 C   0  0  2  0  0  3  0  0  0  0  0  0
  179.4930  181.3790  137.3910 N   0  0  0  0  0  0  0  0  0  0  0  0
  182.0870  180.7260  138.7170 C   0  0  0  0  0  2  0  0  0  0  0  0
  180.5950  179.1740  137.2810 C   0  0  2  0  0  3  0  0  0  0  0  0
  180.6420  178.1040  136.3810 O   0  0  0  0  0  1  0  0  0  0  0  0
  179.7850  181.6410  138.7740 C   0  0  0  0  0  0  0  0  0  0  0  0
  181.2630  178.0870  140.0810 O   0  0  0  0  0  0  0  0  0  0  0  0
  180.6750  176.8230  140.0060 C   0  0  0  0  0  1  0  0  0  0  0  0
  1 31  1  1  0  0  0
  1  3  1  0  0  0  0
  2  3  1  0  0  0  0
  2  4  1  0  0  0  0
  3 10  1  0  0  0  0
  4 18  1  0  0  0  0
  5 20  1  0  0  0  0
  5 19  1  0  0  0  0
  6  2  1  0  0  0  0
  7  8  1  0  0  0  0
  8 11  1  0  0  0  0
 10 13  1  0  0  0  0
 10 12  1  0  0  0  0
 11  4  1  0  0  0  0
 12 15  1  0  0  0  0
 14 16  1  0  0  0  0
 14  6  1  0  0  0  0
 15  9  1  0  0  0  0
 16  1  1  0  0  0  0
 17  6  1  0  0  0  0
 17  8  1  0  0  0  0
 18 12  1  0  0  0  0
 18 15  1  0  0  0  0
 19  7  1  0  0  0  0
 20 17  2  0  0  0  0
 21 28  1  0  0  0  0
 21 26  2  0  0  0  0
 23 21  1  0  0  0  0
 25 16  1  0  0  0  0
 25 27  1  0  0  0  0
 26 30  1  0  0  0  0
 27 24  1  0  0  0  0
 28 25  1  0  0  0  0
 29 28  1  0  0  0  0
 30 22  2  0  0  0  0
 30 24  1  0  0  0  0
 32 31  1  0  0  0  0
M  END
>  <MODEL>
9

>  <REMARK>
 VINA RESULT:      -7.7      4.572      8.096
  Name = 
  2 active torsions:
  status: ('A' for Active; 'I' for Inactive)
    1  A    between atoms: C_1  and  O_4
    2  A    between atoms: C_16  and  C_27
                            x       y       z     vdW  Elec       q    Type
                         _______ _______ _______ _____ _____    ______ ____

>  <TORSDO>
F 2

$$$$
