=
 OpenBabel10262420593D

 28 29  0  0  1  0  0  0  0  0999 V2000
  188.9110  174.7930  135.8840 C   0  0  0  0  0  2  0  0  0  0  0  0
  191.7540  175.6260  135.5270 C   0  0  0  0  0  1  0  0  0  0  0  0
  191.1210  175.6100  136.9130 C   0  0  0  0  0  0  0  0  0  0  0  0
  186.8760  177.3310  135.9090 C   0  0  0  0  0  3  0  0  0  0  0  0
  191.3810  174.2460  137.5510 C   0  0  0  0  0  1  0  0  0  0  0  0
  191.0620  176.8970  139.1180 C   0  0  0  0  0  2  0  0  0  0  0  0
  189.5670  177.1620  138.9470 C   0  0  1  0  0  3  0  0  0  0  0  0
  191.7410  176.7490  137.7590 C   0  0  1  0  0  3  0  0  0  0  0  0
  186.3510  178.5030  137.9700 C   0  0  0  0  0  1  0  0  0  0  0  0
  188.9000  176.0480  138.1280 C   0  0  1  0  0  3  0  0  0  0  0  0
  187.4250  176.2480  135.0220 C   0  0  0  0  0  2  0  0  0  0  0  0
  187.4950  176.2950  137.9870 O   0  0  0  0  0  0  0  0  0  0  0  0
  186.9520  177.3540  137.2450 C   0  0  0  0  0  0  0  0  0  0  0  0
  187.5360  175.0330  135.7130 O   0  0  0  0  0  0  0  0  0  0  0  0
  189.6010  175.8560  136.7690 C   0  0  2  0  0  3  0  0  0  0  0  0
  194.0490  176.7580  136.8030 O   0  0  0  0  0  0  0  0  0  0  0  0
  193.2310  176.6520  137.9200 C   0  0  0  0  0  0  0  0  0  0  0  0
  193.7460  176.4610  139.0540 O   0  0  0  0  0  1  0  0  0  0  0  0
  188.8700  177.3650  140.3020 C   0  0  2  0  0  3  0  0  0  0  0  0
  187.2140  178.6610  141.0040 C   0  0  0  0  0  1  0  0  0  0  0  0
  188.5060  178.7050  140.4770 O   0  0  0  0  0  0  0  0  0  0  0  0
  189.6940  176.8530  141.4900 C   0  0  2  0  0  3  0  0  0  0  0  0
  188.7750  176.1720  142.4920 C   0  0  0  0  0  2  0  0  0  0  0  0
  188.6960  176.9770  143.7750 C   0  0  0  0  0  2  0  0  0  0  0  0
  187.2780  176.9460  144.3030 C   0  0  0  0  0  1  0  0  0  0  0  0
  190.4000  177.9220  142.1060 O   0  0  0  0  0  0  0  0  0  0  0  0
  191.6960  177.7410  142.5760 C   0  0  0  0  0  3  0  0  0  0  0  0
  191.9750  178.0130  143.7720 O   0  0  0  0  0  0  0  0  0  0  0  0
  2  3  1  0  0  0  0
  3  5  1  0  0  0  0
  3  8  1  0  0  0  0
  4 13  2  0  0  0  0
  7  6  1  0  0  0  0
  7 19  1  1  0  0  0
  8 17  1  1  0  0  0
  8  6  1  0  0  0  0
 10 12  1  6  0  0  0
 10  7  1  0  0  0  0
 11 14  1  0  0  0  0
 11  4  1  0  0  0  0
 13  9  1  0  0  0  0
 13 12  1  0  0  0  0
 14  1  1  0  0  0  0
 15  1  1  1  0  0  0
 15  3  1  0  0  0  0
 15 10  1  0  0  0  0
 16 17  2  0  0  0  0
 17 18  1  0  0  0  0
 19 21  1  1  0  0  0
 19 22  1  0  0  0  0
 21 20  1  0  0  0  0
 22 26  1  0  0  0  0
 22 23  1  1  0  0  0
 23 24  1  0  0  0  0
 24 25  1  0  0  0  0
 26 27  1  0  0  0  0
 27 28  2  0  0  0  0
M  END
>  <MODEL>
1

>  <REMARK>
 VINA RESULT:      -5.5      0.000      0.000
  Name = 
  8 active torsions:
  status: ('A' for Active; 'I' for Inactive)
    1  A    between atoms: C_9  and  C_12
    2  A    between atoms: C_9  and  C_13
    3  A    between atoms: C_9  and  O_14
    4  A    between atoms: C_10  and  C_13
    5  A    between atoms: C_11  and  C_22
    6  A    between atoms: C_12  and  C_15
    7  A    between atoms: C_13  and  O_24
    8  A    between atoms: O_14  and  C_18
                            x       y       z     vdW  Elec       q    Type
                         _______ _______ _______ _____ _____    ______ ____

>  <TORSDO>
F 8

$$$$
=
 OpenBabel10262420593D

 28 29  0  0  1  0  0  0  0  0999 V2000
  186.3540  177.9730  137.0960 C   0  0  0  0  0  2  0  0  0  0  0  0
  185.2620  175.2560  136.5210 C   0  0  0  0  0  1  0  0  0  0  0  0
  184.3590  176.3510  137.0740 C   0  0  0  0  0  0  0  0  0  0  0  0
  187.2460  178.3090  140.2060 C   0  0  0  0  0  3  0  0  0  0  0  0
  183.7140  177.0890  135.9000 C   0  0  0  0  0  1  0  0  0  0  0  0
  182.4230  176.7430  138.6930 C   0  0  0  0  0  2  0  0  0  0  0  0
  183.2890  177.6760  139.5350 C   0  0  1  0  0  3  0  0  0  0  0  0
  183.2850  175.7030  137.9810 C   0  0  1  0  0  3  0  0  0  0  0  0
  185.6650  179.0470  141.8970 C   0  0  0  0  0  1  0  0  0  0  0  0
  184.3620  178.3600  138.6750 C   0  0  1  0  0  3  0  0  0  0  0  0
  187.7860  178.0240  138.8330 C   0  0  0  0  0  2  0  0  0  0  0  0
  185.1590  179.2470  139.4700 O   0  0  0  0  0  0  0  0  0  0  0  0
  186.0410  178.8260  140.4760 C   0  0  0  0  0  0  0  0  0  0  0  0
  187.1640  178.8270  137.8660 O   0  0  0  0  0  0  0  0  0  0  0  0
  185.2150  177.3250  137.9160 C   0  0  2  0  0  3  0  0  0  0  0  0
  181.2160  175.0810  136.7290 O   0  0  0  0  0  0  0  0  0  0  0  0
  182.4240  174.6880  137.2860 C   0  0  0  0  0  0  0  0  0  0  0  0
  182.7790  173.4810  137.2160 O   0  0  0  0  0  1  0  0  0  0  0  0
  182.4380  178.7020  140.3010 C   0  0  2  0  0  3  0  0  0  0  0  0
  182.4350  178.9480  142.5040 C   0  0  0  0  0  1  0  0  0  0  0  0
  181.9310  178.1440  141.4810 O   0  0  0  0  0  0  0  0  0  0  0  0
  181.3200  179.3150  139.4510 C   0  0  2  0  0  3  0  0  0  0  0  0
  181.7670  180.6680  138.9190 C   0  0  0  0  0  2  0  0  0  0  0  0
  181.3020  180.8570  137.4880 C   0  0  0  0  0  2  0  0  0  0  0  0
  181.0530  179.5050  136.8570 C   0  0  0  0  0  1  0  0  0  0  0  0
  180.1270  179.4490  140.2140 O   0  0  0  0  0  0  0  0  0  0  0  0
  179.6650  180.7020  140.5990 C   0  0  0  0  0  3  0  0  0  0  0  0
  179.6800  181.0330  141.8120 O   0  0  0  0  0  0  0  0  0  0  0  0
  1 14  1  0  0  0  0
  2  3  1  0  0  0  0
  3 15  1  0  0  0  0
  3  8  1  0  0  0  0
  4 13  2  0  0  0  0
  5  3  1  0  0  0  0
  6  7  1  0  0  0  0
  7 19  1  6  0  0  0
  8 17  1  6  0  0  0
  8  6  1  0  0  0  0
 10 12  1  1  0  0  0
 10  7  1  0  0  0  0
 11  4  1  0  0  0  0
 12 13  1  0  0  0  0
 13  9  1  0  0  0  0
 14 11  1  0  0  0  0
 15  1  1  6  0  0  0
 15 10  1  0  0  0  0
 16 17  2  0  0  0  0
 18 17  1  0  0  0  0
 19 21  1  1  0  0  0
 21 20  1  0  0  0  0
 22 23  1  1  0  0  0
 22 26  1  0  0  0  0
 22 19  1  0  0  0  0
 24 23  1  0  0  0  0
 25 24  1  0  0  0  0
 26 27  1  0  0  0  0
 27 28  2  0  0  0  0
M  END
>  <MODEL>
2

>  <REMARK>
 VINA RESULT:      -5.5      4.716      8.141
  Name = 
  8 active torsions:
  status: ('A' for Active; 'I' for Inactive)
    1  A    between atoms: C_9  and  C_12
    2  A    between atoms: C_9  and  C_13
    3  A    between atoms: C_9  and  O_14
    4  A    between atoms: C_10  and  C_13
    5  A    between atoms: C_11  and  C_22
    6  A    between atoms: C_12  and  C_15
    7  A    between atoms: C_13  and  O_24
    8  A    between atoms: O_14  and  C_18
                            x       y       z     vdW  Elec       q    Type
                         _______ _______ _______ _____ _____    ______ ____

>  <TORSDO>
F 8

$$$$
=
 OpenBabel10262420593D

 28 29  0  0  1  0  0  0  0  0999 V2000
  187.4500  178.0410  137.7840 C   0  0  0  0  0  2  0  0  0  0  0  0
  186.6760  175.3210  136.8290 C   0  0  0  0  0  1  0  0  0  0  0  0
  185.6210  176.4050  137.0180 C   0  0  0  0  0  0  0  0  0  0  0  0
  187.1310  178.3540  141.0050 C   0  0  0  0  0  3  0  0  0  0  0  0
  185.4460  177.1490  135.6940 C   0  0  0  0  0  1  0  0  0  0  0  0
  183.2210  176.7660  137.8120 C   0  0  0  0  0  2  0  0  0  0  0  0
  183.7060  177.6980  138.9210 C   0  0  1  0  0  3  0  0  0  0  0  0
  184.2960  175.7390  137.4620 C   0  0  1  0  0  3  0  0  0  0  0  0
  185.0310  179.0640  141.9990 C   0  0  0  0  0  1  0  0  0  0  0  0
  185.0130  178.3980  138.5200 C   0  0  1  0  0  3  0  0  0  0  0  0
  188.1420  178.0870  139.9250 C   0  0  0  0  0  2  0  0  0  0  0  0
  185.4520  179.2830  139.5580 O   0  0  0  0  0  0  0  0  0  0  0  0
  185.9060  178.8590  140.8150 C   0  0  0  0  0  0  0  0  0  0  0  0
  187.9110  178.8940  138.8030 O   0  0  0  0  0  0  0  0  0  0  0  0
  186.0960  177.3760  138.1220 C   0  0  2  0  0  3  0  0  0  0  0  0
  182.9340  175.1360  135.4570 O   0  0  0  0  0  0  0  0  0  0  0  0
  183.7620  174.7250  136.4930 C   0  0  0  0  0  0  0  0  0  0  0  0
  184.0450  173.5030  136.6170 O   0  0  0  0  0  1  0  0  0  0  0  0
  182.6220  178.7090  139.3260 C   0  0  2  0  0  3  0  0  0  0  0  0
  181.4240  178.5640  141.1850 C   0  0  0  0  0  1  0  0  0  0  0  0
  181.5200  178.0570  139.8890 O   0  0  0  0  0  0  0  0  0  0  0  0
  182.1950  179.6310  138.1770 C   0  0  2  0  0  3  0  0  0  0  0  0
  182.2450  181.0790  138.6400 C   0  0  0  0  0  2  0  0  0  0  0  0
  180.8490  181.6680  138.6990 C   0  0  0  0  0  2  0  0  0  0  0  0
  180.7430  182.8120  137.7140 C   0  0  0  0  0  1  0  0  0  0  0  0
  180.8900  179.2960  137.7260 O   0  0  0  0  0  0  0  0  0  0  0  0
  180.6480  179.0260  136.3840 C   0  0  0  0  0  3  0  0  0  0  0  0
  181.0070  179.8480  135.5020 O   0  0  0  0  0  0  0  0  0  0  0  0
  1 14  1  0  0  0  0
  2  3  1  0  0  0  0
  3  8  1  0  0  0  0
  3 15  1  0  0  0  0
  5  3  1  0  0  0  0
  6  7  1  0  0  0  0
  7 19  1  6  0  0  0
  8 17  1  6  0  0  0
  8  6  1  0  0  0  0
 10  7  1  0  0  0  0
 10 12  1  1  0  0  0
 11  4  1  0  0  0  0
 12 13  1  0  0  0  0
 13  4  2  0  0  0  0
 13  9  1  0  0  0  0
 14 11  1  0  0  0  0
 15  1  1  6  0  0  0
 15 10  1  0  0  0  0
 16 17  2  0  0  0  0
 17 18  1  0  0  0  0
 19 21  1  6  0  0  0
 21 20  1  0  0  0  0
 22 23  1  1  0  0  0
 22 19  1  0  0  0  0
 23 24  1  0  0  0  0
 25 24  1  0  0  0  0
 26 22  1  0  0  0  0
 27 26  1  0  0  0  0
 28 27  2  0  0  0  0
M  END
>  <MODEL>
3

>  <REMARK>
 VINA RESULT:      -5.4      4.205      7.910
  Name = 
  8 active torsions:
  status: ('A' for Active; 'I' for Inactive)
    1  A    between atoms: C_9  and  C_12
    2  A    between atoms: C_9  and  C_13
    3  A    between atoms: C_9  and  O_14
    4  A    between atoms: C_10  and  C_13
    5  A    between atoms: C_11  and  C_22
    6  A    between atoms: C_12  and  C_15
    7  A    between atoms: C_13  and  O_24
    8  A    between atoms: O_14  and  C_18
                            x       y       z     vdW  Elec       q    Type
                         _______ _______ _______ _____ _____    ______ ____

>  <TORSDO>
F 8

$$$$
=
 OpenBabel10262420593D

 28 29  0  0  1  0  0  0  0  0999 V2000
  186.5040  179.0050  142.5910 C   0  0  0  0  0  2  0  0  0  0  0  0
  187.8520  176.7650  144.0320 C   0  0  0  0  0  1  0  0  0  0  0  0
  188.5320  177.4450  142.8500 C   0  0  0  0  0  0  0  0  0  0  0  0
  184.8680  177.9800  139.9740 C   0  0  0  0  0  3  0  0  0  0  0  0
  189.4000  178.5870  143.3790 C   0  0  0  0  0  1  0  0  0  0  0  0
  189.9930  176.9620  140.8120 C   0  0  0  0  0  2  0  0  0  0  0  0
  188.8970  177.4750  139.8790 C   0  0  1  0  0  3  0  0  0  0  0  0
  189.3880  176.3990  142.0960 C   0  0  1  0  0  3  0  0  0  0  0  0
  185.9480  177.7950  137.8060 C   0  0  0  0  0  1  0  0  0  0  0  0
  188.0290  178.5320  140.5760 C   0  0  1  0  0  3  0  0  0  0  0  0
  184.6930  178.3660  141.4160 C   0  0  0  0  0  2  0  0  0  0  0  0
  187.0150  179.0200  139.6890 O   0  0  0  0  0  0  0  0  0  0  0  0
  185.9410  178.2500  139.2210 C   0  0  0  0  0  0  0  0  0  0  0  0
  185.4850  179.4750  141.7430 O   0  0  0  0  0  0  0  0  0  0  0  0
  187.4440  177.9930  141.8970 C   0  0  2  0  0  3  0  0  0  0  0  0
  191.5230  176.5010  143.3880 O   0  0  0  0  0  1  0  0  0  0  0  0
  190.4460  175.7480  142.9380 C   0  0  0  0  0  0  0  0  0  0  0  0
  190.3760  174.5250  143.2300 O   0  0  0  0  0  0  0  0  0  0  0  0
  189.4800  178.0010  138.5570 C   0  0  2  0  0  3  0  0  0  0  0  0
  188.9920  179.3330  136.8530 C   0  0  0  0  0  1  0  0  0  0  0  0
  188.9490  179.2580  138.2470 O   0  0  0  0  0  0  0  0  0  0  0  0
  189.3100  177.0220  137.3890 C   0  0  2  0  0  3  0  0  0  0  0  0
  188.6040  175.7650  137.8750 C   0  0  0  0  0  2  0  0  0  0  0  0
  188.2660  174.8600  136.7070 C   0  0  0  0  0  2  0  0  0  0  0  0
  189.0330  173.5610  136.8390 C   0  0  0  0  0  1  0  0  0  0  0  0
  190.5720  176.6980  136.8210 O   0  0  0  0  0  0  0  0  0  0  0  0
  191.6790  176.4690  137.6300 C   0  0  0  0  0  3  0  0  0  0  0  0
  191.9660  175.2980  137.9880 O   0  0  0  0  0  0  0  0  0  0  0  0
  3  5  1  0  0  0  0
  3  2  1  0  0  0  0
  4 11  1  0  0  0  0
  6  8  1  0  0  0  0
  7 19  1  6  0  0  0
  7 10  1  0  0  0  0
  7  6  1  0  0  0  0
  8  3  1  0  0  0  0
  8 17  1  1  0  0  0
  9 13  1  0  0  0  0
 10 12  1  6  0  0  0
 10 15  1  0  0  0  0
 11 14  1  0  0  0  0
 13 12  1  0  0  0  0
 13  4  2  0  0  0  0
 14  1  1  0  0  0  0
 15  1  1  1  0  0  0
 15  3  1  0  0  0  0
 17 18  2  0  0  0  0
 17 16  1  0  0  0  0
 19 21  1  6  0  0  0
 20 21  1  0  0  0  0
 22 23  1  1  0  0  0
 22 19  1  0  0  0  0
 24 25  1  0  0  0  0
 24 23  1  0  0  0  0
 26 22  1  0  0  0  0
 26 27  1  0  0  0  0
 27 28  2  0  0  0  0
M  END
>  <MODEL>
4

>  <REMARK>
 VINA RESULT:      -5.2      1.858      5.653
  Name = 
  8 active torsions:
  status: ('A' for Active; 'I' for Inactive)
    1  A    between atoms: C_9  and  C_12
    2  A    between atoms: C_9  and  C_13
    3  A    between atoms: C_9  and  O_14
    4  A    between atoms: C_10  and  C_13
    5  A    between atoms: C_11  and  C_22
    6  A    between atoms: C_12  and  C_15
    7  A    between atoms: C_13  and  O_24
    8  A    between atoms: O_14  and  C_18
                            x       y       z     vdW  Elec       q    Type
                         _______ _______ _______ _____ _____    ______ ____

>  <TORSDO>
F 8

$$$$
=
 OpenBabel10262420593D

 28 29  0  0  1  0  0  0  0  0999 V2000
  189.1390  176.3510  144.2030 C   0  0  0  0  0  2  0  0  0  0  0  0
  188.2240  178.0120  146.5080 C   0  0  0  0  0  1  0  0  0  0  0  0
  187.2630  177.6600  145.3790 C   0  0  0  0  0  0  0  0  0  0  0  0
  190.1020  178.1660  141.6820 C   0  0  0  0  0  3  0  0  0  0  0  0
  186.5310  176.3690  145.7470 C   0  0  0  0  0  1  0  0  0  0  0  0
  185.3560  178.6230  143.9790 C   0  0  0  0  0  2  0  0  0  0  0  0
  186.1810  178.4570  142.7040 C   0  0  1  0  0  3  0  0  0  0  0  0
  186.2670  178.8290  145.1870 C   0  0  1  0  0  3  0  0  0  0  0  0
  188.5270  178.9010  139.9850 C   0  0  0  0  0  1  0  0  0  0  0  0
  187.1750  177.2940  142.8370 C   0  0  1  0  0  3  0  0  0  0  0  0
  190.6170  177.3950  142.8650 C   0  0  0  0  0  2  0  0  0  0  0  0
  187.9320  177.1340  141.6310 O   0  0  0  0  0  0  0  0  0  0  0  0
  188.8730  178.0630  141.1630 C   0  0  0  0  0  0  0  0  0  0  0  0
  189.9100  176.1970  143.0370 O   0  0  0  0  0  0  0  0  0  0  0  0
  188.0750  177.4650  144.0770 C   0  0  2  0  0  3  0  0  0  0  0  0
  184.1780  178.6370  146.5420 O   0  0  0  0  0  0  0  0  0  0  0  0
  185.4590  179.1550  146.4100 C   0  0  0  0  0  0  0  0  0  0  0  0
  185.9240  179.9050  147.3090 O   0  0  0  0  0  1  0  0  0  0  0  0
  185.2840  178.2970  141.4660 C   0  0  2  0  0  3  0  0  0  0  0  0
  185.2910  179.0080  139.3670 C   0  0  0  0  0  1  0  0  0  0  0  0
  185.3010  179.4600  140.6870 O   0  0  0  0  0  0  0  0  0  0  0  0
  183.8490  177.8790  141.8090 C   0  0  2  0  0  3  0  0  0  0  0  0
  183.2460  177.1190  140.6370 C   0  0  0  0  0  2  0  0  0  0  0  0
  181.9950  177.8150  140.1390 C   0  0  0  0  0  2  0  0  0  0  0  0
  180.8650  176.8120  140.0410 C   0  0  0  0  0  1  0  0  0  0  0  0
  183.0580  179.0170  142.1260 O   0  0  0  0  0  0  0  0  0  0  0  0
  182.2600  179.0340  143.2630 C   0  0  0  0  0  3  0  0  0  0  0  0
  181.0140  179.1690  143.1550 O   0  0  0  0  0  0  0  0  0  0  0  0
  3  5  1  0  0  0  0
  3  2  1  0  0  0  0
  4 11  1  0  0  0  0
  6  8  1  0  0  0  0
  7 19  1  6  0  0  0
  7 10  1  0  0  0  0
  7  6  1  0  0  0  0
  8  3  1  0  0  0  0
  8 17  1  1  0  0  0
  9 13  1  0  0  0  0
 10 12  1  6  0  0  0
 10 15  1  0  0  0  0
 11 14  1  0  0  0  0
 13 12  1  0  0  0  0
 13  4  2  0  0  0  0
 14  1  1  0  0  0  0
 15  1  1  1  0  0  0
 15  3  1  0  0  0  0
 17 16  2  0  0  0  0
 17 18  1  0  0  0  0
 19 21  1  1  0  0  0
 19 22  1  0  0  0  0
 20 21  1  0  0  0  0
 22 23  1  6  0  0  0
 22 26  1  0  0  0  0
 24 23  1  0  0  0  0
 25 24  1  0  0  0  0
 26 27  1  0  0  0  0
 28 27  2  0  0  0  0
M  END
>  <MODEL>
5

>  <REMARK>
 VINA RESULT:      -5.1      4.051      8.113
  Name = 
  8 active torsions:
  status: ('A' for Active; 'I' for Inactive)
    1  A    between atoms: C_9  and  C_12
    2  A    between atoms: C_9  and  C_13
    3  A    between atoms: C_9  and  O_14
    4  A    between atoms: C_10  and  C_13
    5  A    between atoms: C_11  and  C_22
    6  A    between atoms: C_12  and  C_15
    7  A    between atoms: C_13  and  O_24
    8  A    between atoms: O_14  and  C_18
                            x       y       z     vdW  Elec       q    Type
                         _______ _______ _______ _____ _____    ______ ____

>  <TORSDO>
F 8

$$$$
=
 OpenBabel10262420593D

 28 29  0  0  1  0  0  0  0  0999 V2000
  190.6570  176.1090  139.5640 C   0  0  0  0  0  2  0  0  0  0  0  0
  192.2640  177.6150  141.5790 C   0  0  0  0  0  1  0  0  0  0  0  0
  190.7720  177.3890  141.7900 C   0  0  0  0  0  0  0  0  0  0  0  0
  189.1960  178.0800  137.4290 C   0  0  0  0  0  3  0  0  0  0  0  0
  190.5830  176.1020  142.5930 C   0  0  0  0  0  1  0  0  0  0  0  0
  188.6650  178.5310  142.6750 C   0  0  0  0  0  2  0  0  0  0  0  0
  188.0110  178.4360  141.2980 C   0  0  1  0  0  3  0  0  0  0  0  0
  190.1850  178.6070  142.5450 C   0  0  1  0  0  3  0  0  0  0  0  0
  186.9950  179.0050  137.8710 C   0  0  0  0  0  1  0  0  0  0  0  0
  188.5470  177.2290  140.5140 C   0  0  1  0  0  3  0  0  0  0  0  0
  190.4010  177.1990  137.6110 C   0  0  0  0  0  2  0  0  0  0  0  0
  187.9160  177.1380  139.2310 O   0  0  0  0  0  0  0  0  0  0  0  0
  188.0990  178.0650  138.1950 C   0  0  0  0  0  0  0  0  0  0  0  0
  190.0680  176.0190  138.2900 O   0  0  0  0  0  0  0  0  0  0  0  0
  190.0850  177.2690  140.4100 C   0  0  2  0  0  3  0  0  0  0  0  0
  190.3530  178.1880  145.0020 O   0  0  0  0  0  1  0  0  0  0  0  0
  190.8170  178.8650  143.8820 C   0  0  0  0  0  0  0  0  0  0  0  0
  191.7540  179.6980  144.0020 O   0  0  0  0  0  0  0  0  0  0  0  0
  186.4770  178.4080  141.4010 C   0  0  2  0  0  3  0  0  0  0  0  0
  184.7880  179.0320  140.1070 C   0  0  0  0  0  1  0  0  0  0  0  0
  185.9170  179.5230  140.7660 O   0  0  0  0  0  0  0  0  0  0  0  0
  185.9690  178.2760  142.8410 C   0  0  2  0  0  3  0  0  0  0  0  0
  186.7390  177.1740  143.5540 C   0  0  0  0  0  2  0  0  0  0  0  0
  186.3230  177.0910  145.0100 C   0  0  0  0  0  2  0  0  0  0  0  0
  186.9290  178.2480  145.7740 C   0  0  0  0  0  1  0  0  0  0  0  0
  184.5750  178.0000  142.8560 O   0  0  0  0  0  0  0  0  0  0  0  0
  183.6980  178.8080  143.5700 C   0  0  0  0  0  3  0  0  0  0  0  0
  184.0950  179.9040  144.0430 O   0  0  0  0  0  0  0  0  0  0  0  0
  2  3  1  0  0  0  0
  3  8  1  0  0  0  0
  3  5  1  0  0  0  0
  4 11  1  0  0  0  0
  4 13  2  0  0  0  0
  7 19  1  1  0  0  0
  7  6  1  0  0  0  0
  8  6  1  0  0  0  0
  8 17  1  1  0  0  0
  9 13  1  0  0  0  0
 10 12  1  6  0  0  0
 10  7  1  0  0  0  0
 11 14  1  0  0  0  0
 13 12  1  0  0  0  0
 14  1  1  0  0  0  0
 15  1  1  1  0  0  0
 15 10  1  0  0  0  0
 15  3  1  0  0  0  0
 17 18  2  0  0  0  0
 17 16  1  0  0  0  0
 19 21  1  1  0  0  0
 19 22  1  0  0  0  0
 20 21  1  0  0  0  0
 22 26  1  0  0  0  0
 22 23  1  6  0  0  0
 23 24  1  0  0  0  0
 24 25  1  0  0  0  0
 26 27  1  0  0  0  0
 27 28  2  0  0  0  0
M  END
>  <MODEL>
6

>  <REMARK>
 VINA RESULT:      -5.1      2.323      4.760
  Name = 
  8 active torsions:
  status: ('A' for Active; 'I' for Inactive)
    1  A    between atoms: C_9  and  C_12
    2  A    between atoms: C_9  and  C_13
    3  A    between atoms: C_9  and  O_14
    4  A    between atoms: C_10  and  C_13
    5  A    between atoms: C_11  and  C_22
    6  A    between atoms: C_12  and  C_15
    7  A    between atoms: C_13  and  O_24
    8  A    between atoms: O_14  and  C_18
                            x       y       z     vdW  Elec       q    Type
                         _______ _______ _______ _____ _____    ______ ____

>  <TORSDO>
F 8

$$$$
=
 OpenBabel10262420593D

 28 29  0  0  1  0  0  0  0  0999 V2000
  181.5840  179.8260  144.0840 C   0  0  0  0  0  2  0  0  0  0  0  0
  183.9440  178.6280  145.4650 C   0  0  0  0  0  1  0  0  0  0  0  0
  183.9920  178.9300  143.9720 C   0  0  0  0  0  0  0  0  0  0  0  0
  179.6870  177.5720  142.7060 C   0  0  0  0  0  3  0  0  0  0  0  0
  184.5550  180.3390  143.7800 C   0  0  0  0  0  1  0  0  0  0  0  0
  184.8740  178.0170  141.7560 C   0  0  0  0  0  2  0  0  0  0  0  0
  183.4510  177.9020  141.2140 C   0  0  1  0  0  3  0  0  0  0  0  0
  184.8840  177.8740  143.2770 C   0  0  1  0  0  3  0  0  0  0  0  0
  180.0920  176.8010  140.4380 C   0  0  0  0  0  1  0  0  0  0  0  0
  182.5270  178.9440  141.8610 C   0  0  1  0  0  3  0  0  0  0  0  0
  179.8220  178.4340  143.9300 C   0  0  0  0  0  2  0  0  0  0  0  0
  181.1990  178.8400  141.3340 O   0  0  0  0  0  0  0  0  0  0  0  0
  180.3470  177.7480  141.5550 C   0  0  0  0  0  0  0  0  0  0  0  0
  180.2690  179.7200  143.5990 O   0  0  0  0  0  0  0  0  0  0  0  0
  182.5590  178.8410  143.3990 C   0  0  2  0  0  3  0  0  0  0  0  0
  187.3380  178.2290  142.9750 O   0  0  0  0  0  0  0  0  0  0  0  0
  186.2930  177.8230  143.7940 C   0  0  0  0  0  0  0  0  0  0  0  0
  186.5390  177.4030  144.9560 O   0  0  0  0  0  1  0  0  0  0  0  0
  183.4210  177.9930  139.6800 C   0  0  2  0  0  3  0  0  0  0  0  0
  182.4960  176.5400  138.2840 C   0  0  0  0  0  1  0  0  0  0  0  0
  183.6090  176.7310  139.1040 O   0  0  0  0  0  0  0  0  0  0  0  0
  184.4130  179.0150  139.1140 C   0  0  2  0  0  3  0  0  0  0  0  0
  183.6710  180.2820  138.7180 C   0  0  0  0  0  2  0  0  0  0  0  0
  182.2370  179.9630  138.3410 C   0  0  0  0  0  2  0  0  0  0  0  0
  181.3700  181.1790  138.5830 C   0  0  0  0  0  1  0  0  0  0  0  0
  185.1080  178.4740  137.9980 O   0  0  0  0  0  0  0  0  0  0  0  0
  186.4790  178.2530  138.0520 C   0  0  0  0  0  3  0  0  0  0  0  0
  187.1360  178.6210  139.0590 O   0  0  0  0  0  0  0  0  0  0  0  0
  3  2  1  0  0  0  0
  4 11  1  0  0  0  0
  5  3  1  0  0  0  0
  6  8  1  0  0  0  0
  7 19  1  6  0  0  0
  7  6  1  0  0  0  0
  7 10  1  0  0  0  0
  8 17  1  1  0  0  0
  8  3  1  0  0  0  0
  9 13  1  0  0  0  0
 10 12  1  6  0  0  0
 10 15  1  0  0  0  0
 12 13  1  0  0  0  0
 13  4  2  0  0  0  0
 14 11  1  0  0  0  0
 14  1  1  0  0  0  0
 15  3  1  0  0  0  0
 15  1  1  1  0  0  0
 16 17  2  0  0  0  0
 17 18  1  0  0  0  0
 19 21  1  6  0  0  0
 20 21  1  0  0  0  0
 22 23  1  6  0  0  0
 22 19  1  0  0  0  0
 24 25  1  0  0  0  0
 24 23  1  0  0  0  0
 26 27  1  0  0  0  0
 26 22  1  0  0  0  0
 27 28  2  0  0  0  0
M  END
>  <MODEL>
7

>  <REMARK>
 VINA RESULT:      -5.0      4.917      8.822
  Name = 
  8 active torsions:
  status: ('A' for Active; 'I' for Inactive)
    1  A    between atoms: C_9  and  C_12
    2  A    between atoms: C_9  and  C_13
    3  A    between atoms: C_9  and  O_14
    4  A    between atoms: C_10  and  C_13
    5  A    between atoms: C_11  and  C_22
    6  A    between atoms: C_12  and  C_15
    7  A    between atoms: C_13  and  O_24
    8  A    between atoms: O_14  and  C_18
                            x       y       z     vdW  Elec       q    Type
                         _______ _______ _______ _____ _____    ______ ____

>  <TORSDO>
F 8

$$$$
=
 OpenBabel10262420593D

 28 29  0  0  1  0  0  0  0  0999 V2000
  182.9520  174.7830  136.3210 C   0  0  0  0  0  2  0  0  0  0  0  0
  185.4330  175.4570  134.8070 C   0  0  0  0  0  1  0  0  0  0  0  0
  185.2160  175.9950  136.2160 C   0  0  0  0  0  0  0  0  0  0  0  0
  180.6570  177.0660  136.0080 C   0  0  0  0  0  3  0  0  0  0  0  0
  185.8390  175.0160  137.2110 C   0  0  0  0  0  1  0  0  0  0  0  0
  185.5830  178.0680  137.6620 C   0  0  0  0  0  2  0  0  0  0  0  0
  184.0770  178.2080  137.8780 C   0  0  1  0  0  3  0  0  0  0  0  0
  185.8740  177.3920  136.3240 C   0  0  1  0  0  3  0  0  0  0  0  0
  180.5570  178.9660  137.5170 C   0  0  0  0  0  1  0  0  0  0  0  0
  183.3790  176.8430  137.7980 C   0  0  1  0  0  3  0  0  0  0  0  0
  181.0910  175.7280  135.4780 C   0  0  0  0  0  2  0  0  0  0  0  0
  181.9700  176.9820  138.0190 O   0  0  0  0  0  0  0  0  0  0  0  0
  181.0940  177.6340  137.1380 C   0  0  0  0  0  0  0  0  0  0  0  0
  181.5630  174.9030  136.5080 O   0  0  0  0  0  0  0  0  0  0  0  0
  183.6970  176.1280  136.4700 C   0  0  2  0  0  3  0  0  0  0  0  0
  188.2470  177.1380  137.0610 O   0  0  0  0  0  1  0  0  0  0  0  0
  187.3480  177.4010  136.0370 C   0  0  0  0  0  0  0  0  0  0  0  0
  187.7780  177.6610  134.8810 O   0  0  0  0  0  0  0  0  0  0  0  0
  183.7590  178.9320  139.1960 C   0  0  2  0  0  3  0  0  0  0  0  0
  182.8370  180.8900  138.7180 C   0  0  0  0  0  1  0  0  0  0  0  0
  184.0440  180.2980  139.0940 O   0  0  0  0  0  0  0  0  0  0  0  0
  184.4560  178.3080  140.4120 C   0  0  2  0  0  3  0  0  0  0  0  0
  183.4120  177.7540  141.3690 C   0  0  0  0  0  2  0  0  0  0  0  0
  182.2670  178.7350  141.5340 C   0  0  0  0  0  2  0  0  0  0  0  0
  182.0430  179.0030  143.0070 C   0  0  0  0  0  1  0  0  0  0  0  0
  185.2740  179.2690  141.0670 O   0  0  0  0  0  0  0  0  0  0  0  0
  186.5800  178.9620  141.4290 C   0  0  0  0  0  3  0  0  0  0  0  0
  187.4240  178.6630  140.5460 O   0  0  0  0  0  0  0  0  0  0  0  0
  1 14  1  0  0  0  0
  2  3  1  0  0  0  0
  3  8  1  0  0  0  0
  3 15  1  0  0  0  0
  3  5  1  0  0  0  0
  4 13  2  0  0  0  0
  6  7  1  0  0  0  0
  7 19  1  1  0  0  0
  8 17  1  1  0  0  0
  8  6  1  0  0  0  0
 10  7  1  0  0  0  0
 10 12  1  6  0  0  0
 11  4  1  0  0  0  0
 11 14  1  0  0  0  0
 13  9  1  0  0  0  0
 13 12  1  0  0  0  0
 15  1  1  1  0  0  0
 15 10  1  0  0  0  0
 17 16  1  0  0  0  0
 18 17  2  0  0  0  0
 19 21  1  6  0  0  0
 19 22  1  0  0  0  0
 20 21  1  0  0  0  0
 22 26  1  0  0  0  0
 22 23  1  1  0  0  0
 23 24  1  0  0  0  0
 24 25  1  0  0  0  0
 26 27  1  0  0  0  0
 28 27  2  0  0  0  0
M  END
>  <MODEL>
8

>  <REMARK>
 VINA RESULT:      -4.9      3.907      5.896
  Name = 
  8 active torsions:
  status: ('A' for Active; 'I' for Inactive)
    1  A    between atoms: C_9  and  C_12
    2  A    between atoms: C_9  and  C_13
    3  A    between atoms: C_9  and  O_14
    4  A    between atoms: C_10  and  C_13
    5  A    between atoms: C_11  and  C_22
    6  A    between atoms: C_12  and  C_15
    7  A    between atoms: C_13  and  O_24
    8  A    between atoms: O_14  and  C_18
                            x       y       z     vdW  Elec       q    Type
                         _______ _______ _______ _____ _____    ______ ____

>  <TORSDO>
F 8

$$$$
=
 OpenBabel10262420593D

 28 29  0  0  1  0  0  0  0  0999 V2000
  188.0910  178.5850  139.3450 C   0  0  0  0  0  2  0  0  0  0  0  0
  187.9500  176.2400  137.5040 C   0  0  0  0  0  1  0  0  0  0  0  0
  186.8230  177.2650  137.5400 C   0  0  0  0  0  0  0  0  0  0  0  0
  186.5470  178.0400  142.1560 C   0  0  0  0  0  3  0  0  0  0  0  0
  187.1080  178.3390  136.4900 C   0  0  0  0  0  1  0  0  0  0  0  0
  184.2810  177.4720  137.4070 C   0  0  0  0  0  2  0  0  0  0  0  0
  184.2350  178.0610  138.8160 C   0  0  1  0  0  3  0  0  0  0  0  0
  185.4830  176.5440  137.2500 C   0  0  1  0  0  3  0  0  0  0  0  0
  184.1790  178.5200  142.4050 C   0  0  0  0  0  1  0  0  0  0  0  0
  185.5370  178.8050  139.1460 C   0  0  1  0  0  3  0  0  0  0  0  0
  187.9100  178.0390  141.5220 C   0  0  0  0  0  2  0  0  0  0  0  0
  185.4790  179.3680  140.4620 O   0  0  0  0  0  0  0  0  0  0  0  0
  185.4520  178.6120  141.6430 C   0  0  0  0  0  0  0  0  0  0  0  0
  188.0620  179.1220  140.6450 O   0  0  0  0  0  0  0  0  0  0  0  0
  186.7660  177.8940  138.9510 C   0  0  2  0  0  3  0  0  0  0  0  0
  185.7690  174.4940  135.8540 O   0  0  0  0  0  1  0  0  0  0  0  0
  185.4390  175.8400  135.9250 C   0  0  0  0  0  0  0  0  0  0  0  0
  185.1190  176.4600  134.8760 O   0  0  0  0  0  0  0  0  0  0  0  0
  183.0030  178.9600  139.0140 C   0  0  2  0  0  3  0  0  0  0  0  0
  182.5610  181.0900  138.5900 C   0  0  0  0  0  1  0  0  0  0  0  0
  183.3880  180.2620  139.3510 O   0  0  0  0  0  0  0  0  0  0  0  0
  182.0000  178.3960  140.0270 C   0  0  2  0  0  3  0  0  0  0  0  0
  181.0920  177.3880  139.3400 C   0  0  0  0  0  2  0  0  0  0  0  0
  181.4440  175.9770  139.7680 C   0  0  0  0  0  2  0  0  0  0  0  0
  180.1890  175.1330  139.8030 C   0  0  0  0  0  1  0  0  0  0  0  0
  181.2330  179.4440  140.6070 O   0  0  0  0  0  0  0  0  0  0  0  0
  180.6380  179.2850  141.8530 C   0  0  0  0  0  3  0  0  0  0  0  0
  180.3400  180.2940  142.5410 O   0  0  0  0  0  0  0  0  0  0  0  0
  1 14  1  0  0  0  0
  2  3  1  0  0  0  0
  3 15  1  0  0  0  0
  5  3  1  0  0  0  0
  6  7  1  0  0  0  0
  7 19  1  6  0  0  0
  7 10  1  0  0  0  0
  8 17  1  6  0  0  0
  8  6  1  0  0  0  0
  8  3  1  0  0  0  0
 10 12  1  1  0  0  0
 11  4  1  0  0  0  0
 12 13  1  0  0  0  0
 13  4  2  0  0  0  0
 13  9  1  0  0  0  0
 14 11  1  0  0  0  0
 15 10  1  0  0  0  0
 15  1  1  6  0  0  0
 16 17  1  0  0  0  0
 18 17  2  0  0  0  0
 19 21  1  1  0  0  0
 19 22  1  0  0  0  0
 20 21  1  0  0  0  0
 22 23  1  6  0  0  0
 22 26  1  0  0  0  0
 23 24  1  0  0  0  0
 24 25  1  0  0  0  0
 26 27  1  0  0  0  0
 27 28  2  0  0  0  0
M  END
>  <MODEL>
9

>  <REMARK>
 VINA RESULT:      -4.8      3.978      7.120
  Name = 
  8 active torsions:
  status: ('A' for Active; 'I' for Inactive)
    1  A    between atoms: C_9  and  C_12
    2  A    between atoms: C_9  and  C_13
    3  A    between atoms: C_9  and  O_14
    4  A    between atoms: C_10  and  C_13
    5  A    between atoms: C_11  and  C_22
    6  A    between atoms: C_12  and  C_15
    7  A    between atoms: C_13  and  O_24
    8  A    between atoms: O_14  and  C_18
                            x       y       z     vdW  Elec       q    Type
                         _______ _______ _______ _____ _____    ______ ____

>  <TORSDO>
F 8

$$$$
