=
 OpenBabel10262419133D

 34 38  0  0  1  0  0  0  0  0999 V2000
  187.9650  177.7360  147.4040 C   0  0  0  0  0  0  0  0  0  0  0  0
  190.3690  177.5040  147.0750 C   0  0  0  0  0  0  0  0  0  0  0  0
  188.8590  176.7570  145.2270 C   0  0  1  0  0  3  0  0  0  0  0  0
  189.7800  176.7580  142.9040 N   0  0  0  0  0  0  0  0  0  0  0  0
  189.5070  178.3180  149.1850 C   0  0  0  0  0  3  0  0  0  0  0  0
  190.5920  177.9740  148.3710 C   0  0  0  0  0  3  0  0  0  0  0  0
  191.2960  177.0560  144.8570 C   0  0  0  0  0  3  0  0  0  0  0  0
  189.0530  177.3510  146.6010 C   0  0  0  0  0  0  0  0  0  0  0  0
  191.7290  177.7990  142.1170 O   0  0  0  0  0  0  0  0  0  0  0  0
  188.1980  178.2040  148.7010 C   0  0  0  0  0  3  0  0  0  0  0  0
  187.4140  176.7900  144.6900 C   0  0  2  0  0  3  0  0  0  0  0  0
  186.5590  177.6080  146.8980 C   0  0  0  0  0  2  0  0  0  0  0  0
  191.5010  177.1990  146.1740 C   0  0  0  0  0  3  0  0  0  0  0  0
  188.5370  176.0820  142.5140 C   0  0  0  0  0  2  0  0  0  0  0  0
  187.3100  176.7490  143.1520 C   0  0  2  0  0  3  0  0  0  0  0  0
  190.7360  177.0600  141.8700 C   0  0  0  0  0  0  0  0  0  0  0  0
  189.9250  177.3050  144.2650 C   0  0  2  0  0  3  0  0  0  0  0  0
  186.5090  177.8120  145.3850 C   0  0  0  0  0  2  0  0  0  0  0  0
  190.6440  177.2790  139.4900 C   0  0  0  0  0  3  0  0  0  0  0  0
  190.5400  176.5420  140.5480 N   0  0  0  0  0  0  0  0  0  0  0  0
  188.0800  176.3350  138.3200 F   0  0  0  0  0  0  0  0  0  0  0  0
  190.4270  176.7250  138.1480 C   0  0  0  0  0  0  0  0  0  0  0  0
  189.0650  176.8230  137.4830 C   0  0  1  0  0  3  0  0  0  0  0  0
  190.2510  176.3090  135.3310 C   0  0  0  0  0  2  0  0  0  0  0  0
  191.4180  175.7050  136.1000 C   0  0  0  0  0  2  0  0  0  0  0  0
  191.4990  176.2760  137.4860 C   0  0  0  0  0  3  0  0  0  0  0  0
  188.9800  176.0930  136.1380 C   0  0  0  0  0  2  0  0  0  0  0  0
  186.8830  178.0710  142.4860 C   0  0  1  0  0  3  0  0  0  0  0  0
  187.4260  178.3280  141.0670 C   0  0  1  0  0  3  0  0  0  0  0  0
  186.3470  178.5460  140.0200 C   0  0  0  0  0  1  0  0  0  0  0  0
  188.2920  179.4210  141.0790 O   0  0  0  0  0  1  0  0  0  0  0  0
  184.4060  178.0020  141.8560 C   0  0  0  0  0  1  0  0  0  0  0  0
  185.3440  180.0230  142.9760 C   0  0  0  0  0  1  0  0  0  0  0  0
  185.4510  178.5170  142.8320 C   0  0  0  0  0  3  0  0  0  0  0  0
  1 10  1  0  0  0  0
  2  6  2  0  0  0  0
  3  8  1  1  0  0  0
  4 17  1  0  0  0  0
  6  5  1  0  0  0  0
  7 13  2  0  0  0  0
  8  2  1  0  0  0  0
  8  1  2  0  0  0  0
 10  5  2  0  0  0  0
 11  3  1  0  0  0  0
 11 18  1  6  0  0  0
 12  1  1  0  0  0  0
 13  2  1  0  0  0  0
 14  4  1  0  0  0  0
 14 15  1  0  0  0  0
 15 28  1  6  0  0  0
 15 11  1  0  0  0  0
 16  9  2  0  0  0  0
 16  4  1  0  0  0  0
 17  7  1  1  0  0  0
 17  3  1  0  0  0  0
 18 12  1  0  0  0  0
 19 20  2  0  0  0  0
 20 16  1  0  0  0  0
 22 19  1  0  0  0  0
 23 22  1  0  0  0  0
 23 21  1  1  0  0  0
 24 25  1  0  0  0  0
 24 27  1  0  0  0  0
 25 26  1  0  0  0  0
 26 22  2  0  0  0  0
 27 23  1  0  0  0  0
 28 34  1  6  0  0  0
 29 30  1  6  0  0  0
 29 31  1  0  0  0  0
 29 28  1  0  0  0  0
 32 34  1  0  0  0  0
 34 33  1  0  0  0  0
M  END
>  <MODEL>
1

>  <REMARK>
 VINA RESULT:      -8.3      0.000      0.000
  Name = 
  5 active torsions:
  status: ('A' for Active; 'I' for Inactive)
    1  A    between atoms: C_3  and  C_13
    2  A    between atoms: C_7  and  C_23
    3  A    between atoms: N_17  and  C_29
    4  A    between atoms: C_23  and  C_27
    5  A    between atoms: C_23  and  C_28
                            x       y       z     vdW  Elec       q    Type
                         _______ _______ _______ _____ _____    ______ ____

>  <TORSDO>
F 5

$$$$
=
 OpenBabel10262419133D

 34 38  0  0  1  0  0  0  0  0999 V2000
  187.7230  177.6420  142.5440 C   0  0  0  0  0  0  0  0  0  0  0  0
  185.7110  178.1760  143.8110 C   0  0  0  0  0  0  0  0  0  0  0  0
  185.7950  178.8620  141.4080 C   0  0  1  0  0  3  0  0  0  0  0  0
  183.6230  179.1230  140.1990 N   0  0  0  0  0  0  0  0  0  0  0  0
  187.5940  177.1290  144.9120 C   0  0  0  0  0  3  0  0  0  0  0  0
  186.2970  177.6510  144.9650 C   0  0  0  0  0  3  0  0  0  0  0  0
  183.6610  178.8760  142.6770 C   0  0  0  0  0  3  0  0  0  0  0  0
  186.4370  178.2050  142.6060 C   0  0  0  0  0  0  0  0  0  0  0  0
  181.5000  178.3740  140.8550 O   0  0  0  0  0  0  0  0  0  0  0  0
  188.3030  177.1200  143.7050 C   0  0  0  0  0  3  0  0  0  0  0  0
  186.5540  178.6950  140.0770 C   0  0  2  0  0  3  0  0  0  0  0  0
  188.4930  177.6370  141.2580 C   0  0  0  0  0  2  0  0  0  0  0  0
  184.3180  178.6720  143.8280 C   0  0  0  0  0  3  0  0  0  0  0  0
  184.4150  179.6720  139.0930 C   0  0  0  0  0  2  0  0  0  0  0  0
  185.6670  178.8250  138.8220 C   0  0  2  0  0  3  0  0  0  0  0  0
  182.2000  179.0050  140.0150 C   0  0  0  0  0  0  0  0  0  0  0  0
  184.3000  178.5080  141.3550 C   0  0  2  0  0  3  0  0  0  0  0  0
  187.5490  177.5290  140.0630 C   0  0  0  0  0  2  0  0  0  0  0  0
  181.4340  180.8610  138.7140 C   0  0  0  0  0  3  0  0  0  0  0  0
  181.5830  179.5830  138.8580 N   0  0  0  0  0  0  0  0  0  0  0  0
  179.5090  183.1220  138.6070 F   0  0  0  0  0  0  0  0  0  0  0  0
  180.7880  181.4250  137.5230 C   0  0  0  0  0  0  0  0  0  0  0  0
  180.3130  182.8680  137.5120 C   0  0  1  0  0  3  0  0  0  0  0  0
  180.2280  182.6590  135.0120 C   0  0  0  0  0  2  0  0  0  0  0  0
  180.1650  181.1420  135.1250 C   0  0  0  0  0  2  0  0  0  0  0  0
  180.7750  180.6750  136.4150 C   0  0  0  0  0  3  0  0  0  0  0  0
  179.5580  183.2600  136.2380 C   0  0  0  0  0  2  0  0  0  0  0  0
  185.3960  177.5090  138.0680 C   0  0  1  0  0  3  0  0  0  0  0  0
  183.9240  177.0630  137.9800 C   0  0  1  0  0  3  0  0  0  0  0  0
  183.2920  177.2750  136.6150 C   0  0  0  0  0  1  0  0  0  0  0  0
  183.8110  175.7210  138.3440 O   0  0  0  0  0  1  0  0  0  0  0  0
  187.1860  176.0270  137.0000 C   0  0  0  0  0  1  0  0  0  0  0  0
  187.1870  178.4820  136.5640 C   0  0  0  0  0  1  0  0  0  0  0  0
  186.3240  177.2710  136.8630 C   0  0  0  0  0  3  0  0  0  0  0  0
  1  8  2  0  0  0  0
  1 10  1  0  0  0  0
  2 13  1  0  0  0  0
  2  6  2  0  0  0  0
  3  8  1  1  0  0  0
  4 17  1  0  0  0  0
  5  6  1  0  0  0  0
  7 13  2  0  0  0  0
  8  2  1  0  0  0  0
 10  5  2  0  0  0  0
 11 18  1  1  0  0  0
 11  3  1  0  0  0  0
 12  1  1  0  0  0  0
 14  4  1  0  0  0  0
 15 28  1  1  0  0  0
 15 14  1  0  0  0  0
 15 11  1  0  0  0  0
 16  4  1  0  0  0  0
 16  9  2  0  0  0  0
 17  3  1  0  0  0  0
 17  7  1  1  0  0  0
 18 12  1  0  0  0  0
 19 20  2  0  0  0  0
 20 16  1  0  0  0  0
 22 19  1  0  0  0  0
 23 22  1  0  0  0  0
 23 21  1  1  0  0  0
 24 25  1  0  0  0  0
 24 27  1  0  0  0  0
 25 26  1  0  0  0  0
 26 22  2  0  0  0  0
 27 23  1  0  0  0  0
 28 34  1  6  0  0  0
 29 30  1  6  0  0  0
 29 28  1  0  0  0  0
 29 31  1  0  0  0  0
 33 34  1  0  0  0  0
 34 32  1  0  0  0  0
M  END
>  <MODEL>
2

>  <REMARK>
 VINA RESULT:      -8.2      5.004      7.845
  Name = 
  5 active torsions:
  status: ('A' for Active; 'I' for Inactive)
    1  A    between atoms: C_3  and  C_13
    2  A    between atoms: C_7  and  C_23
    3  A    between atoms: N_17  and  C_29
    4  A    between atoms: C_23  and  C_27
    5  A    between atoms: C_23  and  C_28
                            x       y       z     vdW  Elec       q    Type
                         _______ _______ _______ _____ _____    ______ ____

>  <TORSDO>
F 5

$$$$
=
 OpenBabel10262419133D

 34 38  0  0  1  0  0  0  0  0999 V2000
  187.9460  177.6820  147.4390 C   0  0  0  0  0  0  0  0  0  0  0  0
  190.3030  177.5720  146.8290 C   0  0  0  0  0  0  0  0  0  0  0  0
  188.6190  176.8860  145.1130 C   0  0  1  0  0  3  0  0  0  0  0  0
  189.2700  177.0770  142.7070 N   0  0  0  0  0  0  0  0  0  0  0  0
  189.6590  178.2090  149.0740 C   0  0  0  0  0  3  0  0  0  0  0  0
  190.6560  177.9650  148.1220 C   0  0  0  0  0  3  0  0  0  0  0  0
  190.9870  177.3090  144.4960 C   0  0  0  0  0  3  0  0  0  0  0  0
  188.9470  177.3960  146.4950 C   0  0  0  0  0  0  0  0  0  0  0  0
  191.0820  178.2460  141.7840 O   0  0  0  0  0  0  0  0  0  0  0  0
  188.3080  178.0730  148.7310 C   0  0  0  0  0  3  0  0  0  0  0  0
  187.1230  176.8940  144.7430 C   0  0  2  0  0  3  0  0  0  0  0  0
  186.4970  177.5310  147.0830 C   0  0  0  0  0  2  0  0  0  0  0  0
  191.3350  177.3730  145.7900 C   0  0  0  0  0  3  0  0  0  0  0  0
  188.0150  176.3780  142.4120 C   0  0  0  0  0  2  0  0  0  0  0  0
  186.8460  176.9500  143.2270 C   0  0  2  0  0  3  0  0  0  0  0  0
  190.0920  177.4850  141.5980 C   0  0  0  0  0  0  0  0  0  0  0  0
  189.5500  177.5390  144.0790 C   0  0  2  0  0  3  0  0  0  0  0  0
  186.2690  177.8310  145.6040 C   0  0  0  0  0  2  0  0  0  0  0  0
  189.4960  177.8730  139.3140 C   0  0  0  0  0  3  0  0  0  0  0  0
  189.7650  177.0470  140.2730 N   0  0  0  0  0  0  0  0  0  0  0  0
  191.0690  176.0240  137.6000 F   0  0  0  0  0  0  0  0  0  0  0  0
  189.1530  177.3970  137.9690 C   0  0  0  0  0  0  0  0  0  0  0  0
  189.6950  176.0740  137.4560 C   0  0  1  0  0  3  0  0  0  0  0  0
  187.9020  176.1940  135.7040 C   0  0  0  0  0  2  0  0  0  0  0  0
  187.7810  177.6970  135.9090 C   0  0  0  0  0  2  0  0  0  0  0  0
  188.2360  178.0900  137.2850 C   0  0  0  0  0  3  0  0  0  0  0  0
  189.3370  175.7830  135.9950 C   0  0  0  0  0  2  0  0  0  0  0  0
  186.3030  178.2950  142.7060 C   0  0  1  0  0  3  0  0  0  0  0  0
  186.6680  178.6630  141.2550 C   0  0  1  0  0  3  0  0  0  0  0  0
  185.4700  178.9590  140.3700 C   0  0  0  0  0  1  0  0  0  0  0  0
  187.5360  179.7540  141.2460 O   0  0  0  0  0  1  0  0  0  0  0  0
  183.7770  178.2700  142.3040 C   0  0  0  0  0  1  0  0  0  0  0  0
  184.8060  180.1280  143.6110 C   0  0  0  0  0  1  0  0  0  0  0  0
  184.9070  178.6600  143.2430 C   0  0  0  0  0  3  0  0  0  0  0  0
  1 10  1  0  0  0  0
  2  6  2  0  0  0  0
  3  8  1  1  0  0  0
  4 17  1  0  0  0  0
  6  5  1  0  0  0  0
  7 13  2  0  0  0  0
  8  2  1  0  0  0  0
  8  1  2  0  0  0  0
 10  5  2  0  0  0  0
 11  3  1  0  0  0  0
 11 18  1  1  0  0  0
 12  1  1  0  0  0  0
 13  2  1  0  0  0  0
 14  4  1  0  0  0  0
 14 15  1  0  0  0  0
 15 28  1  6  0  0  0
 15 11  1  0  0  0  0
 16  9  2  0  0  0  0
 16  4  1  0  0  0  0
 17  7  1  1  0  0  0
 17  3  1  0  0  0  0
 18 12  1  0  0  0  0
 19 20  2  0  0  0  0
 20 16  1  0  0  0  0
 22 19  1  0  0  0  0
 23 21  1  6  0  0  0
 23 22  1  0  0  0  0
 24 25  1  0  0  0  0
 24 27  1  0  0  0  0
 25 26  1  0  0  0  0
 26 22  2  0  0  0  0
 27 23  1  0  0  0  0
 28 34  1  6  0  0  0
 29 30  1  6  0  0  0
 29 28  1  0  0  0  0
 31 29  1  0  0  0  0
 32 34  1  0  0  0  0
 34 33  1  0  0  0  0
M  END
>  <MODEL>
3

>  <REMARK>
 VINA RESULT:      -7.4      0.973      1.338
  Name = 
  5 active torsions:
  status: ('A' for Active; 'I' for Inactive)
    1  A    between atoms: C_3  and  C_13
    2  A    between atoms: C_7  and  C_23
    3  A    between atoms: N_17  and  C_29
    4  A    between atoms: C_23  and  C_27
    5  A    between atoms: C_23  and  C_28
                            x       y       z     vdW  Elec       q    Type
                         _______ _______ _______ _____ _____    ______ ____

>  <TORSDO>
F 5

$$$$
=
 OpenBabel10262419133D

 34 38  0  0  1  0  0  0  0  0999 V2000
  179.8990  178.0380  135.6160 C   0  0  0  0  0  0  0  0  0  0  0  0
  180.3800  180.1770  136.6810 C   0  0  0  0  0  0  0  0  0  0  0  0
  181.1500  178.0980  137.8370 C   0  0  1  0  0  3  0  0  0  0  0  0
  183.1090  178.2830  139.3760 N   0  0  0  0  0  0  0  0  0  0  0  0
  179.0870  180.1040  134.6360 C   0  0  0  0  0  3  0  0  0  0  0  0
  179.6820  180.8390  135.6680 C   0  0  0  0  0  3  0  0  0  0  0  0
  181.9880  180.3340  138.5160 C   0  0  0  0  0  3  0  0  0  0  0  0
  180.4600  178.7720  136.6750 C   0  0  0  0  0  0  0  0  0  0  0  0
  184.6470  180.0440  139.5600 O   0  0  0  0  0  0  0  0  0  0  0  0
  179.2000  178.7090  134.6080 C   0  0  0  0  0  3  0  0  0  0  0  0
  181.3720  176.5800  137.6820 C   0  0  2  0  0  3  0  0  0  0  0  0
  180.0060  176.5430  135.5830 C   0  0  0  0  0  2  0  0  0  0  0  0
  181.0730  180.9360  137.7440 C   0  0  0  0  0  3  0  0  0  0  0  0
  182.8200  176.8960  139.7560 C   0  0  0  0  0  2  0  0  0  0  0  0
  182.5360  176.0230  138.5250 C   0  0  2  0  0  3  0  0  0  0  0  0
  184.2450  178.9250  139.9840 C   0  0  0  0  0  0  0  0  0  0  0  0
  182.3940  178.9010  138.2440 C   0  0  2  0  0  3  0  0  0  0  0  0
  181.3070  176.0800  136.2350 C   0  0  0  0  0  2  0  0  0  0  0  0
  185.8430  178.8730  141.7640 C   0  0  0  0  0  3  0  0  0  0  0  0
  184.9390  178.2750  141.0570 N   0  0  0  0  0  0  0  0  0  0  0  0
  188.1620  177.0290  141.5230 F   0  0  0  0  0  0  0  0  0  0  0  0
  186.5470  178.1790  142.8500 C   0  0  0  0  0  0  0  0  0  0  0  0
  187.9960  177.7590  142.6860 C   0  0  1  0  0  3  0  0  0  0  0  0
  188.0490  177.5190  145.1840 C   0  0  0  0  0  2  0  0  0  0  0  0
  186.5310  177.4080  145.2200 C   0  0  0  0  0  2  0  0  0  0  0  0
  185.9150  178.0740  144.0240 C   0  0  0  0  0  3  0  0  0  0  0  0
  188.5410  176.9450  143.8640 C   0  0  0  0  0  2  0  0  0  0  0  0
  183.7910  175.6160  137.7280 C   0  0  1  0  0  3  0  0  0  0  0  0
  183.8270  174.1680  137.2030 C   0  0  1  0  0  3  0  0  0  0  0  0
  184.9890  173.3460  137.7330 C   0  0  0  0  0  1  0  0  0  0  0  0
  182.6260  173.5240  137.5000 O   0  0  0  0  0  1  0  0  0  0  0  0
  184.4130  176.4060  135.3760 C   0  0  0  0  0  1  0  0  0  0  0  0
  185.7490  177.1760  137.3370 C   0  0  0  0  0  1  0  0  0  0  0  0
  184.3760  176.7440  136.8580 C   0  0  0  0  0  3  0  0  0  0  0  0
  1  8  1  0  0  0  0
  2 13  1  0  0  0  0
  3  8  1  6  0  0  0
  3 17  1  0  0  0  0
  4 14  1  0  0  0  0
  4 16  1  0  0  0  0
  5  6  2  0  0  0  0
  6  2  1  0  0  0  0
  8  2  2  0  0  0  0
  9 16  2  0  0  0  0
 10  5  1  0  0  0  0
 10  1  2  0  0  0  0
 11 18  1  6  0  0  0
 11  3  1  0  0  0  0
 11 15  1  0  0  0  0
 12  1  1  0  0  0  0
 12 18  1  0  0  0  0
 13  7  2  0  0  0  0
 15 28  1  6  0  0  0
 15 14  1  0  0  0  0
 16 20  1  0  0  0  0
 17  7  1  1  0  0  0
 17  4  1  0  0  0  0
 19 22  1  0  0  0  0
 20 19  2  0  0  0  0
 22 26  2  0  0  0  0
 23 21  1  6  0  0  0
 23 22  1  0  0  0  0
 23 27  1  0  0  0  0
 24 25  1  0  0  0  0
 26 25  1  0  0  0  0
 27 24  1  0  0  0  0
 28 34  1  6  0  0  0
 29 31  1  0  0  0  0
 29 28  1  0  0  0  0
 29 30  1  1  0  0  0
 32 34  1  0  0  0  0
 34 33  1  0  0  0  0
M  END
>  <MODEL>
4

>  <REMARK>
 VINA RESULT:      -7.4      5.371     10.107
  Name = 
  5 active torsions:
  status: ('A' for Active; 'I' for Inactive)
    1  A    between atoms: C_3  and  C_13
    2  A    between atoms: C_7  and  C_23
    3  A    between atoms: N_17  and  C_29
    4  A    between atoms: C_23  and  C_27
    5  A    between atoms: C_23  and  C_28
                            x       y       z     vdW  Elec       q    Type
                         _______ _______ _______ _____ _____    ______ ____

>  <TORSDO>
F 5

$$$$
=
 OpenBabel10262419133D

 34 38  0  0  1  0  0  0  0  0999 V2000
  191.2320  176.8460  142.8650 C   0  0  0  0  0  0  0  0  0  0  0  0
  190.2770  177.5920  140.7500 C   0  0  0  0  0  0  0  0  0  0  0  0
  188.7010  176.9180  142.5700 C   0  0  1  0  0  3  0  0  0  0  0  0
  186.4080  177.9130  142.5470 N   0  0  0  0  0  0  0  0  0  0  0  0
  192.6770  177.4040  140.9980 C   0  0  0  0  0  3  0  0  0  0  0  0
  191.5610  177.7190  140.2150 C   0  0  0  0  0  3  0  0  0  0  0  0
  187.9050  178.1600  140.5730 C   0  0  0  0  0  3  0  0  0  0  0  0
  190.1090  177.1220  142.0660 C   0  0  0  0  0  0  0  0  0  0  0  0
  185.6410  179.7590  141.3210 O   0  0  0  0  0  0  0  0  0  0  0  0
  192.5130  176.9740  142.3200 C   0  0  0  0  0  3  0  0  0  0  0  0
  188.5780  176.5850  144.0700 C   0  0  2  0  0  3  0  0  0  0  0  0
  191.0650  176.3760  144.2790 C   0  0  0  0  0  2  0  0  0  0  0  0
  189.0870  177.9830  139.9640 C   0  0  0  0  0  3  0  0  0  0  0  0
  186.0970  176.9800  143.6360 C   0  0  0  0  0  2  0  0  0  0  0  0
  187.2140  176.9520  144.6900 C   0  0  2  0  0  3  0  0  0  0  0  0
  185.3740  178.8180  142.1200 C   0  0  0  0  0  0  0  0  0  0  0  0
  187.7990  178.0610  142.0800 C   0  0  2  0  0  3  0  0  0  0  0  0
  189.8060  176.9730  144.9020 C   0  0  0  0  0  2  0  0  0  0  0  0
  182.9940  178.7960  141.8790 C   0  0  0  0  0  3  0  0  0  0  0  0
  184.0420  178.6660  142.6270 N   0  0  0  0  0  0  0  0  0  0  0  0
  182.2410  178.2500  144.7020 F   0  0  0  0  0  0  0  0  0  0  0  0
  181.6410  178.6460  142.4280 C   0  0  0  0  0  0  0  0  0  0  0  0
  181.3630  178.9430  143.8910 C   0  0  1  0  0  3  0  0  0  0  0  0
  178.9380  179.0460  143.2500 C   0  0  0  0  0  2  0  0  0  0  0  0
  179.2200  178.2360  141.9920 C   0  0  0  0  0  2  0  0  0  0  0  0
  180.6510  178.3910  141.5640 C   0  0  0  0  0  3  0  0  0  0  0  0
  179.9290  178.6240  144.3250 C   0  0  0  0  0  2  0  0  0  0  0  0
  187.2270  178.1660  145.6390 C   0  0  1  0  0  3  0  0  0  0  0  0
  185.8860  178.9020  145.8250 C   0  0  1  0  0  3  0  0  0  0  0  0
  184.8400  178.1010  146.5800 C   0  0  0  0  0  1  0  0  0  0  0  0
  186.0980  180.1200  146.4710 O   0  0  0  0  0  1  0  0  0  0  0  0
  188.0380  176.6720  147.5490 C   0  0  0  0  0  1  0  0  0  0  0  0
  188.0160  179.1500  147.8360 C   0  0  0  0  0  1  0  0  0  0  0  0
  188.1710  178.0120  146.8450 C   0  0  0  0  0  3  0  0  0  0  0  0
  1 12  1  0  0  0  0
  2  8  1  0  0  0  0
  3  8  1  1  0  0  0
  3 11  1  0  0  0  0
  4 14  1  0  0  0  0
  5 10  2  0  0  0  0
  6  2  2  0  0  0  0
  6  5  1  0  0  0  0
  8  1  2  0  0  0  0
  9 16  2  0  0  0  0
 10  1  1  0  0  0  0
 11 15  1  0  0  0  0
 11 18  1  1  0  0  0
 12 18  1  0  0  0  0
 13  7  2  0  0  0  0
 13  2  1  0  0  0  0
 14 15  1  0  0  0  0
 15 28  1  6  0  0  0
 16  4  1  0  0  0  0
 16 20  1  0  0  0  0
 17  7  1  6  0  0  0
 17  4  1  0  0  0  0
 17  3  1  0  0  0  0
 19 22  1  0  0  0  0
 19 20  2  0  0  0  0
 22 23  1  0  0  0  0
 23 27  1  0  0  0  0
 23 21  1  1  0  0  0
 24 27  1  0  0  0  0
 25 24  1  0  0  0  0
 26 25  1  0  0  0  0
 26 22  2  0  0  0  0
 28 29  1  0  0  0  0
 28 34  1  1  0  0  0
 29 31  1  0  0  0  0
 29 30  1  1  0  0  0
 34 32  1  0  0  0  0
 34 33  1  0  0  0  0
M  END
>  <MODEL>
5

>  <REMARK>
 VINA RESULT:      -7.0      3.107      7.341
  Name = 
  5 active torsions:
  status: ('A' for Active; 'I' for Inactive)
    1  A    between atoms: C_3  and  C_13
    2  A    between atoms: C_7  and  C_23
    3  A    between atoms: N_17  and  C_29
    4  A    between atoms: C_23  and  C_27
    5  A    between atoms: C_23  and  C_28
                            x       y       z     vdW  Elec       q    Type
                         _______ _______ _______ _____ _____    ______ ____

>  <TORSDO>
F 5

$$$$
=
 OpenBabel10262419133D

 34 38  0  0  1  0  0  0  0  0999 V2000
  180.6220  178.1570  135.4880 C   0  0  0  0  0  0  0  0  0  0  0  0
  180.7100  180.0980  136.9590 C   0  0  0  0  0  0  0  0  0  0  0  0
  181.8180  177.9950  137.7330 C   0  0  1  0  0  3  0  0  0  0  0  0
  183.6990  178.2060  139.3660 N   0  0  0  0  0  0  0  0  0  0  0  0
  179.4720  180.2060  134.8820 C   0  0  0  0  0  3  0  0  0  0  0  0
  179.9180  180.8160  136.0600 C   0  0  0  0  0  3  0  0  0  0  0  0
  182.2460  180.1650  138.8610 C   0  0  0  0  0  3  0  0  0  0  0  0
  181.0340  178.7550  136.6910 C   0  0  0  0  0  0  0  0  0  0  0  0
  184.9030  180.1330  139.9480 O   0  0  0  0  0  0  0  0  0  0  0  0
  179.8270  178.8820  134.5950 C   0  0  0  0  0  3  0  0  0  0  0  0
  182.3040  176.5960  137.3040 C   0  0  2  0  0  3  0  0  0  0  0  0
  180.9890  176.7370  135.1770 C   0  0  0  0  0  2  0  0  0  0  0  0
  181.2470  180.7420  138.1770 C   0  0  0  0  0  3  0  0  0  0  0  0
  183.6520  176.7430  139.4620 C   0  0  0  0  0  2  0  0  0  0  0  0
  183.5390  176.0910  138.0770 C   0  0  2  0  0  3  0  0  0  0  0  0
  184.6980  178.9010  140.1340 C   0  0  0  0  0  0  0  0  0  0  0  0
  182.8990  178.9030  138.3410 C   0  0  2  0  0  3  0  0  0  0  0  0
  182.3430  176.3830  135.7870 C   0  0  0  0  0  2  0  0  0  0  0  0
  186.1230  178.7730  142.0520 C   0  0  0  0  0  3  0  0  0  0  0  0
  185.4830  178.1820  141.0940 N   0  0  0  0  0  0  0  0  0  0  0  0
  188.3180  176.8600  141.4540 F   0  0  0  0  0  0  0  0  0  0  0  0
  186.9290  178.0120  143.0140 C   0  0  0  0  0  0  0  0  0  0  0  0
  188.3290  177.5480  142.6530 C   0  0  1  0  0  3  0  0  0  0  0  0
  188.6850  177.2080  145.1140 C   0  0  0  0  0  2  0  0  0  0  0  0
  187.1810  177.1480  145.3390 C   0  0  0  0  0  2  0  0  0  0  0  0
  186.4470  177.8820  144.2550 C   0  0  0  0  0  3  0  0  0  0  0  0
  188.9850  176.6700  143.7230 C   0  0  0  0  0  2  0  0  0  0  0  0
  184.8540  176.0660  137.2740 C   0  0  1  0  0  3  0  0  0  0  0  0
  185.6730  177.3720  137.2640 C   0  0  1  0  0  3  0  0  0  0  0  0
  187.0020  177.2750  137.9940 C   0  0  0  0  0  1  0  0  0  0  0  0
  185.8910  177.7870  135.9510 O   0  0  0  0  0  1  0  0  0  0  0  0
  186.4790  174.4720  136.1080 C   0  0  0  0  0  1  0  0  0  0  0  0
  184.6420  173.5540  137.5240 C   0  0  0  0  0  1  0  0  0  0  0  0
  185.5940  174.7180  137.3190 C   0  0  0  0  0  3  0  0  0  0  0  0
  1  8  1  0  0  0  0
  2 13  1  0  0  0  0
  3  8  1  6  0  0  0
  3 17  1  0  0  0  0
  4 14  1  0  0  0  0
  4 16  1  0  0  0  0
  5  6  2  0  0  0  0
  6  2  1  0  0  0  0
  8  2  2  0  0  0  0
  9 16  2  0  0  0  0
 10  5  1  0  0  0  0
 10  1  2  0  0  0  0
 11 18  1  6  0  0  0
 11  3  1  0  0  0  0
 11 15  1  0  0  0  0
 12  1  1  0  0  0  0
 12 18  1  0  0  0  0
 13  7  2  0  0  0  0
 15 28  1  6  0  0  0
 15 14  1  0  0  0  0
 16 20  1  0  0  0  0
 17  7  1  1  0  0  0
 17  4  1  0  0  0  0
 19 22  1  0  0  0  0
 20 19  2  0  0  0  0
 22 26  2  0  0  0  0
 23 21  1  6  0  0  0
 23 22  1  0  0  0  0
 23 27  1  0  0  0  0
 24 25  1  0  0  0  0
 26 25  1  0  0  0  0
 27 24  1  0  0  0  0
 28 34  1  1  0  0  0
 29 28  1  0  0  0  0
 29 30  1  6  0  0  0
 31 29  1  0  0  0  0
 32 34  1  0  0  0  0
 34 33  1  0  0  0  0
M  END
>  <MODEL>
6

>  <REMARK>
 VINA RESULT:      -6.7      4.858      9.755
  Name = 
  5 active torsions:
  status: ('A' for Active; 'I' for Inactive)
    1  A    between atoms: C_3  and  C_13
    2  A    between atoms: C_7  and  C_23
    3  A    between atoms: N_17  and  C_29
    4  A    between atoms: C_23  and  C_27
    5  A    between atoms: C_23  and  C_28
                            x       y       z     vdW  Elec       q    Type
                         _______ _______ _______ _____ _____    ______ ____

>  <TORSDO>
F 5

$$$$
=
 OpenBabel10262419133D

 34 38  0  0  1  0  0  0  0  0999 V2000
  188.7690  177.6250  136.1890 C   0  0  0  0  0  0  0  0  0  0  0  0
  190.5110  176.4440  137.4200 C   0  0  0  0  0  0  0  0  0  0  0  0
  189.0350  178.0090  138.6950 C   0  0  1  0  0  3  0  0  0  0  0  0
  188.7320  177.5840  141.1390 N   0  0  0  0  0  0  0  0  0  0  0  0
  190.3290  176.1800  135.0210 C   0  0  0  0  0  3  0  0  0  0  0  0
  190.9640  175.8720  136.2290 C   0  0  0  0  0  3  0  0  0  0  0  0
  190.4980  176.3770  139.8640 C   0  0  0  0  0  3  0  0  0  0  0  0
  189.4330  177.3490  137.3970 C   0  0  0  0  0  0  0  0  0  0  0  0
  189.2640  175.6480  142.3510 O   0  0  0  0  0  0  0  0  0  0  0  0
  189.2320  177.0490  135.0020 C   0  0  0  0  0  3  0  0  0  0  0  0
  187.7380  178.8390  138.6440 C   0  0  2  0  0  3  0  0  0  0  0  0
  187.5990  178.5620  136.1590 C   0  0  0  0  0  2  0  0  0  0  0  0
  191.1240  176.0820  138.7150 C   0  0  0  0  0  3  0  0  0  0  0  0
  188.0250  178.8690  141.1770 C   0  0  0  0  0  2  0  0  0  0  0  0
  187.0380  179.0030  140.0080 C   0  0  2  0  0  3  0  0  0  0  0  0
  188.8330  176.8350  142.3640 C   0  0  0  0  0  0  0  0  0  0  0  0
  189.1140  176.9910  139.8440 C   0  0  2  0  0  3  0  0  0  0  0  0
  186.8170  178.4940  137.4680 C   0  0  0  0  0  2  0  0  0  0  0  0
  187.5610  176.8650  144.3900 C   0  0  0  0  0  3  0  0  0  0  0  0
  188.4140  177.4310  143.5990 N   0  0  0  0  0  0  0  0  0  0  0  0
  188.8870  176.6760  147.0440 F   0  0  0  0  0  0  0  0  0  0  0  0
  187.1410  177.5040  145.6440 C   0  0  0  0  0  0  0  0  0  0  0  0
  188.1550  177.8070  146.7330 C   0  0  1  0  0  3  0  0  0  0  0  0
  186.4310  179.3600  147.6900 C   0  0  0  0  0  2  0  0  0  0  0  0
  185.3300  178.6280  146.9360 C   0  0  0  0  0  2  0  0  0  0  0  0
  185.8790  177.9390  145.7200 C   0  0  0  0  0  3  0  0  0  0  0  0
  187.5330  178.3650  148.0180 C   0  0  0  0  0  2  0  0  0  0  0  0
  185.7330  178.2000  140.1800 C   0  0  1  0  0  3  0  0  0  0  0  0
  185.2050  178.0550  141.6200 C   0  0  1  0  0  3  0  0  0  0  0  0
  185.2100  179.3500  142.4150 C   0  0  0  0  0  1  0  0  0  0  0  0
  183.9160  177.5230  141.6030 O   0  0  0  0  0  1  0  0  0  0  0  0
  183.9040  179.6510  139.1370 C   0  0  0  0  0  1  0  0  0  0  0  0
  183.8220  177.1730  138.8730 C   0  0  0  0  0  1  0  0  0  0  0  0
  184.7290  178.3790  139.0280 C   0  0  0  0  0  3  0  0  0  0  0  0
  1  8  1  0  0  0  0
  2 13  1  0  0  0  0
  3  8  1  6  0  0  0
  3 17  1  0  0  0  0
  4 14  1  0  0  0  0
  4 16  1  0  0  0  0
  5  6  2  0  0  0  0
  6  2  1  0  0  0  0
  8  2  2  0  0  0  0
  9 16  2  0  0  0  0
 10  5  1  0  0  0  0
 10  1  2  0  0  0  0
 11 18  1  6  0  0  0
 11  3  1  0  0  0  0
 11 15  1  0  0  0  0
 12  1  1  0  0  0  0
 12 18  1  0  0  0  0
 13  7  2  0  0  0  0
 15 28  1  1  0  0  0
 15 14  1  0  0  0  0
 16 20  1  0  0  0  0
 17  7  1  1  0  0  0
 17  4  1  0  0  0  0
 19 22  1  0  0  0  0
 20 19  2  0  0  0  0
 22 26  2  0  0  0  0
 22 23  1  0  0  0  0
 23 21  1  1  0  0  0
 23 27  1  0  0  0  0
 24 27  1  0  0  0  0
 25 24  1  0  0  0  0
 26 25  1  0  0  0  0
 28 34  1  6  0  0  0
 28 29  1  0  0  0  0
 29 30  1  6  0  0  0
 31 29  1  0  0  0  0
 33 34  1  0  0  0  0
 34 32  1  0  0  0  0
M  END
>  <MODEL>
7

>  <REMARK>
 VINA RESULT:      -6.6      2.343      8.104
  Name = 
  5 active torsions:
  status: ('A' for Active; 'I' for Inactive)
    1  A    between atoms: C_3  and  C_13
    2  A    between atoms: C_7  and  C_23
    3  A    between atoms: N_17  and  C_29
    4  A    between atoms: C_23  and  C_27
    5  A    between atoms: C_23  and  C_28
                            x       y       z     vdW  Elec       q    Type
                         _______ _______ _______ _____ _____    ______ ____

>  <TORSDO>
F 5

$$$$
=
 OpenBabel10262419133D

 34 38  0  0  1  0  0  0  0  0999 V2000
  191.0080  176.5920  135.3230 C   0  0  0  0  0  0  0  0  0  0  0  0
  192.2900  176.2270  137.3640 C   0  0  0  0  0  0  0  0  0  0  0  0
  190.1920  177.5780  137.5280 C   0  0  1  0  0  3  0  0  0  0  0  0
  189.0210  177.6390  139.7350 N   0  0  0  0  0  0  0  0  0  0  0  0
  193.1190  175.3990  135.2460 C   0  0  0  0  0  3  0  0  0  0  0  0
  193.2660  175.5490  136.6290 C   0  0  0  0  0  3  0  0  0  0  0  0
  191.3210  176.7010  139.5580 C   0  0  0  0  0  3  0  0  0  0  0  0
  191.1750  176.7800  136.7060 C   0  0  0  0  0  0  0  0  0  0  0  0
  189.3430  176.2350  141.5860 O   0  0  0  0  0  0  0  0  0  0  0  0
  191.9910  175.9140  134.5960 C   0  0  0  0  0  3  0  0  0  0  0  0
  188.9030  177.9950  136.7940 C   0  0  2  0  0  3  0  0  0  0  0  0
  189.8080  177.1480  134.6170 C   0  0  0  0  0  2  0  0  0  0  0  0
  192.3910  176.3390  138.8340 C   0  0  0  0  0  3  0  0  0  0  0  0
  188.1550  178.6610  139.1380 C   0  0  0  0  0  2  0  0  0  0  0  0
  187.7030  178.2620  137.7250 C   0  0  2  0  0  3  0  0  0  0  0  0
  188.7520  177.2350  141.0900 C   0  0  0  0  0  0  0  0  0  0  0  0
  189.9780  176.9000  138.8900 C   0  0  2  0  0  3  0  0  0  0  0  0
  188.5950  177.1630  135.5440 C   0  0  0  0  0  2  0  0  0  0  0  0
  187.1810  177.4290  142.8840 C   0  0  0  0  0  3  0  0  0  0  0  0
  187.7860  177.9540  141.8670 N   0  0  0  0  0  0  0  0  0  0  0  0
  185.5880  179.7680  141.9740 F   0  0  0  0  0  0  0  0  0  0  0  0
  186.1880  178.1850  143.6560 C   0  0  0  0  0  0  0  0  0  0  0  0
  185.0720  178.9370  142.9520 C   0  0  1  0  0  3  0  0  0  0  0  0
  183.9180  179.0010  145.1800 C   0  0  0  0  0  2  0  0  0  0  0  0
  185.2420  178.7590  145.8900 C   0  0  0  0  0  2  0  0  0  0  0  0
  186.2150  178.0580  144.9870 C   0  0  0  0  0  3  0  0  0  0  0  0
  184.1950  179.7670  143.8950 C   0  0  0  0  0  2  0  0  0  0  0  0
  186.5900  177.1960  137.6880 C   0  0  1  0  0  3  0  0  0  0  0  0
  185.1430  177.7160  137.7880 C   0  0  1  0  0  3  0  0  0  0  0  0
  184.2250  176.8350  138.6170 C   0  0  0  0  0  1  0  0  0  0  0  0
  185.1380  179.0120  138.3050 O   0  0  0  0  0  1  0  0  0  0  0  0
  185.7720  175.6880  135.7920 C   0  0  0  0  0  1  0  0  0  0  0  0
  187.2730  174.7600  137.5550 C   0  0  0  0  0  1  0  0  0  0  0  0
  186.8950  176.0010  136.7680 C   0  0  0  0  0  3  0  0  0  0  0  0
  1  8  1  0  0  0  0
  2 13  1  0  0  0  0
  3  8  1  6  0  0  0
  3 17  1  0  0  0  0
  4 16  1  0  0  0  0
  5  6  2  0  0  0  0
  6  2  1  0  0  0  0
  8  2  2  0  0  0  0
 10  5  1  0  0  0  0
 10  1  2  0  0  0  0
 11 18  1  6  0  0  0
 11  3  1  0  0  0  0
 11 15  1  0  0  0  0
 12  1  1  0  0  0  0
 12 18  1  0  0  0  0
 13  7  2  0  0  0  0
 14  4  1  0  0  0  0
 15 28  1  1  0  0  0
 15 14  1  0  0  0  0
 16  9  2  0  0  0  0
 16 20  1  0  0  0  0
 17  7  1  1  0  0  0
 17  4  1  0  0  0  0
 19 22  1  0  0  0  0
 20 19  2  0  0  0  0
 22 26  2  0  0  0  0
 23 21  1  6  0  0  0
 23 22  1  0  0  0  0
 23 27  1  0  0  0  0
 24 25  1  0  0  0  0
 26 25  1  0  0  0  0
 27 24  1  0  0  0  0
 28 34  1  6  0  0  0
 28 29  1  0  0  0  0
 29 31  1  0  0  0  0
 29 30  1  1  0  0  0
 32 34  1  0  0  0  0
 34 33  1  0  0  0  0
M  END
>  <MODEL>
8

>  <REMARK>
 VINA RESULT:      -6.5      2.891      8.364
  Name = 
  5 active torsions:
  status: ('A' for Active; 'I' for Inactive)
    1  A    between atoms: C_3  and  C_13
    2  A    between atoms: C_7  and  C_23
    3  A    between atoms: N_17  and  C_29
    4  A    between atoms: C_23  and  C_27
    5  A    between atoms: C_23  and  C_28
                            x       y       z     vdW  Elec       q    Type
                         _______ _______ _______ _____ _____    ______ ____

>  <TORSDO>
F 5

$$$$
=
 OpenBabel10262419133D

 34 38  0  0  1  0  0  0  0  0999 V2000
  190.2360  177.4290  144.4080 C   0  0  0  0  0  0  0  0  0  0  0  0
  190.1760  177.5820  141.9760 C   0  0  0  0  0  0  0  0  0  0  0  0
  188.0160  177.1970  143.1750 C   0  0  1  0  0  3  0  0  0  0  0  0
  185.9140  177.9430  142.0480 N   0  0  0  0  0  0  0  0  0  0  0  0
  192.2930  177.6790  143.1460 C   0  0  0  0  0  3  0  0  0  0  0  0
  191.5680  177.7020  141.9490 C   0  0  0  0  0  3  0  0  0  0  0  0
  188.0600  177.8720  140.7860 C   0  0  0  0  0  3  0  0  0  0  0  0
  189.5100  177.4100  143.2040 C   0  0  0  0  0  0  0  0  0  0  0  0
  185.6870  179.3830  140.2100 O   0  0  0  0  0  0  0  0  0  0  0  0
  191.6280  177.5480  144.3710 C   0  0  0  0  0  3  0  0  0  0  0  0
  187.3210  177.2050  144.5510 C   0  0  2  0  0  3  0  0  0  0  0  0
  189.5330  177.2800  145.7240 C   0  0  0  0  0  2  0  0  0  0  0  0
  189.3850  177.6710  140.7310 C   0  0  0  0  0  3  0  0  0  0  0  0
  185.2040  177.2590  143.1340 C   0  0  0  0  0  2  0  0  0  0  0  0
  185.8250  177.5750  144.5020 C   0  0  2  0  0  3  0  0  0  0  0  0
  185.1290  178.6280  141.0550 C   0  0  0  0  0  0  0  0  0  0  0  0
  187.3780  178.1100  142.1170 C   0  0  2  0  0  3  0  0  0  0  0  0
  188.1320  177.8830  145.6600 C   0  0  0  0  0  2  0  0  0  0  0  0
  183.0960  177.6860  140.2160 C   0  0  0  0  0  3  0  0  0  0  0  0
  183.7040  178.4720  141.0450 N   0  0  0  0  0  0  0  0  0  0  0  0
  181.3620  176.7510  137.9910 F   0  0  0  0  0  0  0  0  0  0  0  0
  181.6340  177.5540  140.2210 C   0  0  0  0  0  0  0  0  0  0  0  0
  180.9440  176.5670  139.2960 C   0  0  1  0  0  3  0  0  0  0  0  0
  178.9320  176.8250  140.7740 C   0  0  0  0  0  2  0  0  0  0  0  0
  179.4640  178.1520  141.2930 C   0  0  0  0  0  2  0  0  0  0  0  0
  180.9590  178.2180  141.1660 C   0  0  0  0  0  3  0  0  0  0  0  0
  179.4150  176.6400  139.3430 C   0  0  0  0  0  2  0  0  0  0  0  0
  185.4730  178.9690  145.0560 C   0  0  1  0  0  3  0  0  0  0  0  0
  184.6030  179.8640  144.1520 C   0  0  1  0  0  3  0  0  0  0  0  0
  183.1090  179.6710  144.3430 C   0  0  0  0  0  1  0  0  0  0  0  0
  184.9300  181.2040  144.3530 O   0  0  0  0  0  1  0  0  0  0  0  0
  186.4080  179.6330  147.3420 C   0  0  0  0  0  1  0  0  0  0  0  0
  184.9360  177.6300  147.1380 C   0  0  0  0  0  1  0  0  0  0  0  0
  185.2540  179.0040  146.5790 C   0  0  0  0  0  3  0  0  0  0  0  0
  1 12  1  0  0  0  0
  2  8  1  0  0  0  0
  3  8  1  1  0  0  0
  3 11  1  0  0  0  0
  4 17  1  0  0  0  0
  4 14  1  0  0  0  0
  5 10  2  0  0  0  0
  6  2  2  0  0  0  0
  6  5  1  0  0  0  0
  8  1  2  0  0  0  0
  9 16  2  0  0  0  0
 10  1  1  0  0  0  0
 11 18  1  1  0  0  0
 13  7  2  0  0  0  0
 13  2  1  0  0  0  0
 14 15  1  0  0  0  0
 15 11  1  0  0  0  0
 15 28  1  6  0  0  0
 16  4  1  0  0  0  0
 17  7  1  6  0  0  0
 17  3  1  0  0  0  0
 18 12  1  0  0  0  0
 19 22  1  0  0  0  0
 19 20  2  0  0  0  0
 20 16  1  0  0  0  0
 22 26  2  0  0  0  0
 23 21  1  6  0  0  0
 23 27  1  0  0  0  0
 23 22  1  0  0  0  0
 24 25  1  0  0  0  0
 26 25  1  0  0  0  0
 27 24  1  0  0  0  0
 28 34  1  1  0  0  0
 29 30  1  1  0  0  0
 29 31  1  0  0  0  0
 29 28  1  0  0  0  0
 34 33  1  0  0  0  0
 34 32  1  0  0  0  0
M  END
>  <MODEL>
9

>  <REMARK>
 VINA RESULT:      -6.5      3.069      6.423
  Name = 
  5 active torsions:
  status: ('A' for Active; 'I' for Inactive)
    1  A    between atoms: C_3  and  C_13
    2  A    between atoms: C_7  and  C_23
    3  A    between atoms: N_17  and  C_29
    4  A    between atoms: C_23  and  C_27
    5  A    between atoms: C_23  and  C_28
                            x       y       z     vdW  Elec       q    Type
                         _______ _______ _______ _____ _____    ______ ____

>  <TORSDO>
F 5

$$$$
