=
 OpenBabel10262420563D

 28 31  0  0  1  0  0  0  0  0999 V2000
  189.3430  179.4130  146.9340 O   0  0  0  0  0  1  0  0  0  0  0  0
  187.0170  178.2220  145.3030 C   0  0  2  0  0  3  0  0  0  0  0  0
  186.6360  179.5490  147.2870 O   0  0  0  0  0  1  0  0  0  0  0  0
  189.3270  177.0340  146.5960 C   0  0  0  0  0  0  0  0  0  0  0  0
  187.5350  176.8660  144.8180 C   0  0  0  0  0  2  0  0  0  0  0  0
  189.2660  175.8140  147.4890 C   0  0  0  0  0  2  0  0  0  0  0  0
  188.6510  178.2410  147.2470 C   0  0  2  0  0  3  0  0  0  0  0  0
  190.5910  176.5160  147.2480 C   0  0  0  0  0  2  0  0  0  0  0  0
  187.1790  178.3460  146.8250 C   0  0  2  0  0  3  0  0  0  0  0  0
  189.0290  176.6760  145.1250 C   0  0  1  0  0  3  0  0  0  0  0  0
  189.9730  177.3030  144.0580 C   0  0  1  0  0  0  0  0  0  0  0  0
  191.3510  176.5960  144.0330 C   0  0  2  0  0  3  0  0  0  0  0  0
  191.6140  177.5080  141.7610 C   0  0  0  0  0  0  0  0  0  0  0  0
  190.2280  177.6180  141.6330 O   0  0  0  0  0  0  0  0  0  0  0  0
  189.3500  177.1530  142.6580 C   0  0  0  0  0  2  0  0  0  0  0  0
  192.3620  177.8310  140.8030 O   0  0  0  0  0  0  0  0  0  0  0  0
  190.1810  178.7890  144.3370 C   0  0  0  0  0  1  0  0  0  0  0  0
  192.1690  177.1040  142.9760 O   0  0  0  0  0  0  0  0  0  0  0  0
  191.2210  175.0790  143.8890 C   0  0  0  0  0  2  0  0  0  0  0  0
  192.2750  174.3810  144.7230 C   0  0  0  0  0  1  0  0  0  0  0  0
  184.5650  178.4930  145.8220 C   0  0  0  0  0  3  0  0  0  0  0  0
  185.2670  178.5120  143.4980 C   0  0  0  0  0  0  0  0  0  0  0  0
  182.9240  178.7650  144.0670 C   0  0  0  0  0  0  0  0  0  0  0  0
  185.5910  178.4160  144.8660 C   0  0  0  0  0  0  0  0  0  0  0  0
  183.9360  178.6870  143.1070 C   0  0  0  0  0  3  0  0  0  0  0  0
  186.3170  178.4320  142.4410 C   0  0  0  0  0  1  0  0  0  0  0  0
  181.2610  178.9840  143.5670 Cl  0  0  0  0  0  0  0  0  0  0  0  0
  183.2380  178.6680  145.4230 C   0  0  0  0  0  3  0  0  0  0  0  0
  2 24  1  1  0  0  0
  2  9  1  0  0  0  0
  4  7  1  0  0  0  0
  4  8  1  0  0  0  0
  4  6  1  0  0  0  0
  5  2  1  0  0  0  0
  7  1  1  6  0  0  0
  8  6  1  0  0  0  0
  9  7  1  0  0  0  0
  9  3  1  6  0  0  0
 10  5  1  6  0  0  0
 10  4  1  0  0  0  0
 11 17  1  1  0  0  0
 11 10  1  0  0  0  0
 12 19  1  6  0  0  0
 12 11  1  0  0  0  0
 13 18  1  0  0  0  0
 14 13  1  0  0  0  0
 14 15  1  0  0  0  0
 15 11  1  0  0  0  0
 16 13  2  0  0  0  0
 18 12  1  0  0  0  0
 19 20  1  0  0  0  0
 22 24  1  0  0  0  0
 23 28  2  0  0  0  0
 24 21  2  0  0  0  0
 25 22  2  0  0  0  0
 25 23  1  0  0  0  0
 26 22  1  0  0  0  0
 27 23  1  0  0  0  0
 28 21  1  0  0  0  0
M  END
>  <MODEL>
1

>  <REMARK>
 VINA RESULT:      -6.6      0.000      0.000
  Name = 
  3 active torsions:
  status: ('A' for Active; 'I' for Inactive)
    1  A    between atoms: C_1  and  C_27
    2  A    between atoms: C_2  and  C_3
    3  A    between atoms: C_10  and  C_13
                            x       y       z     vdW  Elec       q    Type
                         _______ _______ _______ _____ _____    ______ ____

>  <TORSDO>
F 3

$$$$
=
 OpenBabel10262420563D

 28 31  0  0  1  0  0  0  0  0999 V2000
  182.3470  177.5270  137.5520 O   0  0  0  0  0  1  0  0  0  0  0  0
  182.3010  178.7030  140.3990 C   0  0  2  0  0  3  0  0  0  0  0  0
  183.2850  176.5480  139.9260 O   0  0  0  0  0  1  0  0  0  0  0  0
  180.2090  178.1200  138.4750 C   0  0  0  0  0  0  0  0  0  0  0  0
  180.9660  179.4450  140.4930 C   0  0  0  0  0  2  0  0  0  0  0  0
  178.9310  177.3820  138.8090 C   0  0  0  0  0  2  0  0  0  0  0  0
  181.4260  177.1970  138.5500 C   0  0  2  0  0  3  0  0  0  0  0  0
  179.1960  177.8400  137.3850 C   0  0  0  0  0  2  0  0  0  0  0  0
  182.0790  177.2550  139.9370 C   0  0  2  0  0  3  0  0  0  0  0  0
  180.2470  179.5140  139.1350 C   0  0  1  0  0  3  0  0  0  0  0  0
  180.7210  180.6910  138.2340 C   0  0  1  0  0  0  0  0  0  0  0  0
  179.6080  181.7520  138.0540 C   0  0  2  0  0  3  0  0  0  0  0  0
  181.4060  183.3240  137.4520 C   0  0  0  0  0  0  0  0  0  0  0  0
  182.3330  182.5450  138.1470 O   0  0  0  0  0  0  0  0  0  0  0  0
  181.9290  181.3910  138.8840 C   0  0  0  0  0  2  0  0  0  0  0  0
  181.7710  184.3910  136.8950 O   0  0  0  0  0  0  0  0  0  0  0  0
  181.1440  180.1750  136.8620 C   0  0  0  0  0  1  0  0  0  0  0  0
  180.0890  182.8810  137.3200 O   0  0  0  0  0  0  0  0  0  0  0  0
  179.0370  182.2250  139.3920 C   0  0  0  0  0  2  0  0  0  0  0  0
  178.9310  183.7360  139.4120 C   0  0  0  0  0  1  0  0  0  0  0  0
  182.3070  178.7000  142.9200 C   0  0  0  0  0  3  0  0  0  0  0  0
  184.4250  178.9290  141.7550 C   0  0  0  0  0  0  0  0  0  0  0  0
  184.3600  178.9210  144.1790 C   0  0  0  0  0  0  0  0  0  0  0  0
  183.0250  178.7750  141.7160 C   0  0  0  0  0  0  0  0  0  0  0  0
  185.0830  179.0000  142.9870 C   0  0  0  0  0  3  0  0  0  0  0  0
  185.2350  179.0190  140.5060 C   0  0  0  0  0  1  0  0  0  0  0  0
  185.1940  179.0100  145.7150 Cl  0  0  0  0  0  0  0  0  0  0  0  0
  182.9720  178.7710  144.1460 C   0  0  0  0  0  3  0  0  0  0  0  0
  2  5  1  0  0  0  0
  2 24  1  1  0  0  0
  4  7  1  0  0  0  0
  4  6  1  0  0  0  0
  4 10  1  0  0  0  0
  7  1  1  6  0  0  0
  7  9  1  0  0  0  0
  8  4  1  0  0  0  0
  8  6  1  0  0  0  0
  9  3  1  6  0  0  0
  9  2  1  0  0  0  0
 10  5  1  1  0  0  0
 11 17  1  6  0  0  0
 11 15  1  0  0  0  0
 11 10  1  0  0  0  0
 12 11  1  0  0  0  0
 12 19  1  1  0  0  0
 13 14  1  0  0  0  0
 14 15  1  0  0  0  0
 16 13  2  0  0  0  0
 18 13  1  0  0  0  0
 18 12  1  0  0  0  0
 19 20  1  0  0  0  0
 21 28  1  0  0  0  0
 22 25  2  0  0  0  0
 23 27  1  0  0  0  0
 24 22  1  0  0  0  0
 24 21  2  0  0  0  0
 25 23  1  0  0  0  0
 26 22  1  0  0  0  0
 28 23  2  0  0  0  0
M  END
>  <MODEL>
2

>  <REMARK>
 VINA RESULT:      -6.3      6.358     10.337
  Name = 
  3 active torsions:
  status: ('A' for Active; 'I' for Inactive)
    1  A    between atoms: C_1  and  C_27
    2  A    between atoms: C_2  and  C_3
    3  A    between atoms: C_10  and  C_13
                            x       y       z     vdW  Elec       q    Type
                         _______ _______ _______ _____ _____    ______ ____

>  <TORSDO>
F 3

$$$$
=
 OpenBabel10262420563D

 28 31  0  0  1  0  0  0  0  0999 V2000
  184.9160  180.0010  139.0100 O   0  0  0  0  0  1  0  0  0  0  0  0
  185.1730  178.3680  141.6100 C   0  0  2  0  0  3  0  0  0  0  0  0
  187.1080  179.0160  140.3140 O   0  0  0  0  0  1  0  0  0  0  0  0
  183.7240  177.9190  139.1370 C   0  0  0  0  0  0  0  0  0  0  0  0
  183.9550  177.4420  141.6110 C   0  0  0  0  0  2  0  0  0  0  0  0
  183.7380  176.6140  138.3700 C   0  0  0  0  0  2  0  0  0  0  0  0
  185.0840  178.6160  139.0840 C   0  0  2  0  0  3  0  0  0  0  0  0
  182.9560  177.8020  137.8370 C   0  0  0  0  0  2  0  0  0  0  0  0
  185.9500  178.2330  140.2910 C   0  0  2  0  0  3  0  0  0  0  0  0
  182.9730  177.7800  140.4780 C   0  0  1  0  0  3  0  0  0  0  0  0
  181.9770  178.9230  140.8310 C   0  0  1  0  0  0  0  0  0  0  0  0
  180.5230  178.5450  140.4540 C   0  0  2  0  0  3  0  0  0  0  0  0
  179.8130  180.2690  142.0640 C   0  0  0  0  0  0  0  0  0  0  0  0
  181.0320  180.1580  142.7360 O   0  0  0  0  0  0  0  0  0  0  0  0
  182.0080  179.1900  142.3470 C   0  0  0  0  0  2  0  0  0  0  0  0
  178.9310  181.0580  142.4880 O   0  0  0  0  0  0  0  0  0  0  0  0
  182.3620  180.2090  140.1060 C   0  0  0  0  0  1  0  0  0  0  0  0
  179.6030  179.5520  140.8850 O   0  0  0  0  0  0  0  0  0  0  0  0
  180.1050  177.1950  141.0380 C   0  0  0  0  0  2  0  0  0  0  0  0
  180.0160  176.1540  139.9410 C   0  0  0  0  0  1  0  0  0  0  0  0
  187.2140  177.3330  142.6680 C   0  0  0  0  0  3  0  0  0  0  0  0
  185.6720  178.5640  144.0830 C   0  0  0  0  0  0  0  0  0  0  0  0
  187.6530  177.5410  145.0370 C   0  0  0  0  0  0  0  0  0  0  0  0
  186.0370  178.0860  142.8090 C   0  0  0  0  0  0  0  0  0  0  0  0
  186.4830  178.2880  145.1890 C   0  0  0  0  0  3  0  0  0  0  0  0
  184.4310  179.3640  144.2890 C   0  0  0  0  0  1  0  0  0  0  0  0
  188.6600  177.2020  146.4280 Cl  0  0  0  0  0  0  0  0  0  0  0  0
  188.0180  177.0620  143.7780 C   0  0  0  0  0  3  0  0  0  0  0  0
  2  5  1  0  0  0  0
  2 24  1  1  0  0  0
  4 10  1  0  0  0  0
  6  4  1  0  0  0  0
  7  1  1  1  0  0  0
  7  4  1  0  0  0  0
  7  9  1  0  0  0  0
  8  6  1  0  0  0  0
  8  4  1  0  0  0  0
  9  3  1  1  0  0  0
  9  2  1  0  0  0  0
 10 11  1  0  0  0  0
 10  5  1  1  0  0  0
 11 17  1  6  0  0  0
 11 15  1  0  0  0  0
 12 11  1  0  0  0  0
 12 18  1  0  0  0  0
 12 19  1  1  0  0  0
 13 16  2  0  0  0  0
 13 14  1  0  0  0  0
 15 14  1  0  0  0  0
 18 13  1  0  0  0  0
 20 19  1  0  0  0  0
 21 24  2  0  0  0  0
 21 28  1  0  0  0  0
 22 26  1  0  0  0  0
 22 25  2  0  0  0  0
 23 25  1  0  0  0  0
 23 27  1  0  0  0  0
 24 22  1  0  0  0  0
 28 23  2  0  0  0  0
M  END
>  <MODEL>
3

>  <REMARK>
 VINA RESULT:      -6.3      4.522      8.724
  Name = 
  3 active torsions:
  status: ('A' for Active; 'I' for Inactive)
    1  A    between atoms: C_1  and  C_27
    2  A    between atoms: C_2  and  C_3
    3  A    between atoms: C_10  and  C_13
                            x       y       z     vdW  Elec       q    Type
                         _______ _______ _______ _____ _____    ______ ____

>  <TORSDO>
F 3

$$$$
=
 OpenBabel10262420563D

 28 31  0  0  1  0  0  0  0  0999 V2000
  181.6310  178.9910  136.9660 O   0  0  0  0  0  1  0  0  0  0  0  0
  182.8240  177.9130  139.5930 C   0  0  2  0  0  3  0  0  0  0  0  0
  182.7750  180.2770  139.0900 O   0  0  0  0  0  1  0  0  0  0  0  0
  183.4030  177.3770  136.8020 C   0  0  0  0  0  0  0  0  0  0  0  0
  183.4930  176.5930  139.2050 C   0  0  0  0  0  2  0  0  0  0  0  0
  184.7970  177.3550  136.2130 C   0  0  0  0  0  2  0  0  0  0  0  0
  182.9910  178.7900  137.2160 C   0  0  2  0  0  3  0  0  0  0  0  0
  183.5900  177.1180  135.3210 C   0  0  0  0  0  2  0  0  0  0  0  0
  183.3210  179.0530  138.6910 C   0  0  2  0  0  3  0  0  0  0  0  0
  183.1730  176.1880  137.7570 C   0  0  1  0  0  3  0  0  0  0  0  0
  181.8220  175.4310  137.6030 C   0  0  1  0  0  0  0  0  0  0  0  0
  181.9620  174.2070  136.6640 C   0  0  2  0  0  3  0  0  0  0  0  0
  179.9260  173.3330  137.7400 C   0  0  0  0  0  0  0  0  0  0  0  0
  180.1750  174.1160  138.8690 O   0  0  0  0  0  0  0  0  0  0  0  0
  181.3560  174.9100  138.9750 C   0  0  0  0  0  2  0  0  0  0  0  0
  178.9310  172.5650  137.7130 O   0  0  0  0  0  0  0  0  0  0  0  0
  180.7490  176.3630  137.0500 C   0  0  0  0  0  1  0  0  0  0  0  0
  180.7460  173.4550  136.6180 O   0  0  0  0  0  0  0  0  0  0  0  0
  183.1110  173.2870  137.0780 C   0  0  0  0  0  2  0  0  0  0  0  0
  184.1630  173.2400  135.9880 C   0  0  0  0  0  1  0  0  0  0  0  0
  184.3480  178.0920  141.5940 C   0  0  0  0  0  3  0  0  0  0  0  0
  181.9870  178.5730  141.8890 C   0  0  0  0  0  0  0  0  0  0  0  0
  183.5070  178.7230  143.7710 C   0  0  0  0  0  0  0  0  0  0  0  0
  183.0580  178.2010  141.0520 C   0  0  0  0  0  0  0  0  0  0  0  0
  182.2190  178.8320  143.2430 C   0  0  0  0  0  3  0  0  0  0  0  0
  180.5960  178.6990  141.3650 C   0  0  0  0  0  1  0  0  0  0  0  0
  183.7870  179.0500  145.4680 Cl  0  0  0  0  0  0  0  0  0  0  0  0
  184.5720  178.3530  142.9480 C   0  0  0  0  0  3  0  0  0  0  0  0
  2 24  1  1  0  0  0
  4  7  1  0  0  0  0
  4 10  1  0  0  0  0
  5  2  1  0  0  0  0
  6  4  1  0  0  0  0
  7  1  1  1  0  0  0
  7  9  1  0  0  0  0
  8  6  1  0  0  0  0
  8  4  1  0  0  0  0
  9  3  1  1  0  0  0
  9  2  1  0  0  0  0
 10  5  1  1  0  0  0
 11 17  1  6  0  0  0
 11 10  1  0  0  0  0
 11 15  1  0  0  0  0
 12 19  1  1  0  0  0
 12 11  1  0  0  0  0
 13 14  1  0  0  0  0
 14 15  1  0  0  0  0
 16 13  2  0  0  0  0
 18 12  1  0  0  0  0
 18 13  1  0  0  0  0
 20 19  1  0  0  0  0
 21 28  1  0  0  0  0
 22 25  2  0  0  0  0
 23 27  1  0  0  0  0
 24 21  2  0  0  0  0
 24 22  1  0  0  0  0
 25 23  1  0  0  0  0
 26 22  1  0  0  0  0
 28 23  2  0  0  0  0
M  END
>  <MODEL>
4

>  <REMARK>
 VINA RESULT:      -5.9      6.837      9.757
  Name = 
  3 active torsions:
  status: ('A' for Active; 'I' for Inactive)
    1  A    between atoms: C_1  and  C_27
    2  A    between atoms: C_2  and  C_3
    3  A    between atoms: C_10  and  C_13
                            x       y       z     vdW  Elec       q    Type
                         _______ _______ _______ _____ _____    ______ ____

>  <TORSDO>
F 3

$$$$
=
 OpenBabel10262420563D

 28 31  0  0  1  0  0  0  0  0999 V2000
  179.0730  177.9970  142.1910 O   0  0  0  0  0  1  0  0  0  0  0  0
  182.0880  178.5650  142.4720 C   0  0  2  0  0  3  0  0  0  0  0  0
  180.5510  178.8960  144.3080 O   0  0  0  0  0  1  0  0  0  0  0  0
  180.0580  179.5590  140.6530 C   0  0  0  0  0  0  0  0  0  0  0  0
  182.5080  179.1260  141.1120 C   0  0  0  0  0  2  0  0  0  0  0  0
  179.8590  181.0220  140.3190 C   0  0  0  0  0  2  0  0  0  0  0  0
  179.6720  179.2560  142.1010 C   0  0  2  0  0  3  0  0  0  0  0  0
  178.9440  179.9720  139.7130 C   0  0  0  0  0  2  0  0  0  0  0  0
  180.8900  179.3490  143.0300 C   0  0  2  0  0  3  0  0  0  0  0  0
  181.3810  179.0200  140.0710 C   0  0  1  0  0  3  0  0  0  0  0  0
  181.3090  177.6350  139.3650 C   0  0  1  0  0  0  0  0  0  0  0  0
  180.8440  177.7720  137.8930 C   0  0  2  0  0  3  0  0  0  0  0  0
  181.8770  175.5680  137.5150 C   0  0  0  0  0  0  0  0  0  0  0  0
  182.7120  175.7580  138.6180 O   0  0  0  0  0  0  0  0  0  0  0  0
  182.7050  176.9840  139.3500 C   0  0  0  0  0  2  0  0  0  0  0  0
  181.9740  174.5210  136.8260 O   0  0  0  0  0  0  0  0  0  0  0  0
  180.3510  176.7070  140.1050 C   0  0  0  0  0  1  0  0  0  0  0  0
  180.8900  176.5100  137.2210 O   0  0  0  0  0  0  0  0  0  0  0  0
  181.6780  178.7900  137.1150 C   0  0  0  0  0  2  0  0  0  0  0  0
  180.7750  179.8170  136.4610 C   0  0  0  0  0  1  0  0  0  0  0  0
  183.0630  178.8390  144.7810 C   0  0  0  0  0  3  0  0  0  0  0  0
  184.5620  178.3170  142.9430 C   0  0  0  0  0  0  0  0  0  0  0  0
  185.4340  178.5970  145.1880 C   0  0  0  0  0  0  0  0  0  0  0  0
  183.2590  178.5710  143.4170 C   0  0  0  0  0  0  0  0  0  0  0  0
  185.6410  178.3310  143.8320 C   0  0  0  0  0  3  0  0  0  0  0  0
  184.8260  178.0310  141.5030 C   0  0  0  0  0  1  0  0  0  0  0  0
  186.7920  178.6110  146.2920 Cl  0  0  0  0  0  0  0  0  0  0  0  0
  184.1460  178.8510  145.6620 C   0  0  0  0  0  3  0  0  0  0  0  0
  2  9  1  0  0  0  0
  2 24  1  1  0  0  0
  4  7  1  0  0  0  0
  5  2  1  0  0  0  0
  6  4  1  0  0  0  0
  7  1  1  6  0  0  0
  7  9  1  0  0  0  0
  8  6  1  0  0  0  0
  8  4  1  0  0  0  0
  9  3  1  1  0  0  0
 10  4  1  0  0  0  0
 10  5  1  1  0  0  0
 11 10  1  0  0  0  0
 11 17  1  1  0  0  0
 12 19  1  6  0  0  0
 12 11  1  0  0  0  0
 13 14  1  0  0  0  0
 14 15  1  0  0  0  0
 15 11  1  0  0  0  0
 16 13  2  0  0  0  0
 18 13  1  0  0  0  0
 18 12  1  0  0  0  0
 20 19  1  0  0  0  0
 21 28  1  0  0  0  0
 22 24  1  0  0  0  0
 22 25  2  0  0  0  0
 23 28  2  0  0  0  0
 23 27  1  0  0  0  0
 24 21  2  0  0  0  0
 25 23  1  0  0  0  0
 26 22  1  0  0  0  0
M  END
>  <MODEL>
5

>  <REMARK>
 VINA RESULT:      -5.8      5.444      9.166
  Name = 
  3 active torsions:
  status: ('A' for Active; 'I' for Inactive)
    1  A    between atoms: C_1  and  C_27
    2  A    between atoms: C_2  and  C_3
    3  A    between atoms: C_10  and  C_13
                            x       y       z     vdW  Elec       q    Type
                         _______ _______ _______ _____ _____    ______ ____

>  <TORSDO>
F 3

$$$$
=
 OpenBabel10262420563D

 28 31  0  0  1  0  0  0  0  0999 V2000
  183.9920  177.9300  140.8390 O   0  0  0  0  0  1  0  0  0  0  0  0
  185.1430  177.5720  138.0040 C   0  0  2  0  0  3  0  0  0  0  0  0
  186.4100  178.6270  139.7710 O   0  0  0  0  0  1  0  0  0  0  0  0
  182.7490  178.8680  139.0080 C   0  0  0  0  0  0  0  0  0  0  0  0
  183.9470  177.7690  137.0700 C   0  0  0  0  0  2  0  0  0  0  0  0
  182.3000  180.2550  138.6020 C   0  0  0  0  0  2  0  0  0  0  0  0
  184.0260  178.9150  139.8480 C   0  0  2  0  0  3  0  0  0  0  0  0
  181.4980  179.4630  139.6200 C   0  0  0  0  0  2  0  0  0  0  0  0
  185.2730  178.7620  138.9680 C   0  0  2  0  0  3  0  0  0  0  0  0
  182.6210  177.8660  137.8420 C   0  0  1  0  0  3  0  0  0  0  0  0
  181.9950  176.4840  138.1870 C   0  0  1  0  0  0  0  0  0  0  0  0
  180.4470  176.5480  138.1950 C   0  0  2  0  0  3  0  0  0  0  0  0
  180.4890  174.1050  137.8870 C   0  0  0  0  0  0  0  0  0  0  0  0
  181.7710  174.1860  137.3410 O   0  0  0  0  0  0  0  0  0  0  0  0
  182.4090  175.4450  137.1280 C   0  0  0  0  0  2  0  0  0  0  0  0
  179.9090  172.9930  137.9710 O   0  0  0  0  0  0  0  0  0  0  0  0
  182.4800  176.0030  139.5510 C   0  0  0  0  0  1  0  0  0  0  0  0
  179.8800  175.2520  138.4000 O   0  0  0  0  0  0  0  0  0  0  0  0
  179.8860  177.1470  136.9050 C   0  0  0  0  0  2  0  0  0  0  0  0
  178.9420  178.2900  137.2240 C   0  0  0  0  0  1  0  0  0  0  0  0
  187.1790  178.4480  136.8030 C   0  0  0  0  0  3  0  0  0  0  0  0
  186.7890  176.0520  136.8280 C   0  0  0  0  0  0  0  0  0  0  0  0
  188.7270  176.9610  135.6890 C   0  0  0  0  0  0  0  0  0  0  0  0
  186.3950  177.3530  137.2000 C   0  0  0  0  0  0  0  0  0  0  0  0
  187.9530  175.8650  136.0760 C   0  0  0  0  0  3  0  0  0  0  0  0
  185.9900  174.8550  137.2190 C   0  0  0  0  0  1  0  0  0  0  0  0
  190.1820  176.7160  134.7480 Cl  0  0  0  0  0  0  0  0  0  0  0  0
  188.3410  178.2530  136.0520 C   0  0  0  0  0  3  0  0  0  0  0  0
  2 24  1  6  0  0  0
  2  9  1  0  0  0  0
  4  8  1  0  0  0  0
  4  7  1  0  0  0  0
  5  2  1  0  0  0  0
  6  4  1  0  0  0  0
  6  8  1  0  0  0  0
  7  1  1  1  0  0  0
  9  3  1  1  0  0  0
  9  7  1  0  0  0  0
 10  5  1  1  0  0  0
 10 11  1  0  0  0  0
 10  4  1  0  0  0  0
 11 12  1  0  0  0  0
 11 17  1  1  0  0  0
 12 19  1  6  0  0  0
 12 18  1  0  0  0  0
 13 16  2  0  0  0  0
 13 18  1  0  0  0  0
 14 13  1  0  0  0  0
 15 14  1  0  0  0  0
 15 11  1  0  0  0  0
 19 20  1  0  0  0  0
 21 24  1  0  0  0  0
 22 24  2  0  0  0  0
 22 26  1  0  0  0  0
 23 28  1  0  0  0  0
 23 25  2  0  0  0  0
 25 22  1  0  0  0  0
 27 23  1  0  0  0  0
 28 21  2  0  0  0  0
M  END
>  <MODEL>
6

>  <REMARK>
 VINA RESULT:      -5.8      7.291     10.458
  Name = 
  3 active torsions:
  status: ('A' for Active; 'I' for Inactive)
    1  A    between atoms: C_1  and  C_27
    2  A    between atoms: C_2  and  C_3
    3  A    between atoms: C_10  and  C_13
                            x       y       z     vdW  Elec       q    Type
                         _______ _______ _______ _____ _____    ______ ____

>  <TORSDO>
F 3

$$$$
=
 OpenBabel10262420563D

 28 31  0  0  1  0  0  0  0  0999 V2000
  178.9310  179.4680  139.6580 O   0  0  0  0  0  1  0  0  0  0  0  0
  181.6440  178.7170  140.9070 C   0  0  2  0  0  3  0  0  0  0  0  0
  180.4280  180.6900  141.5910 O   0  0  0  0  0  1  0  0  0  0  0  0
  180.8010  179.1990  138.1730 C   0  0  0  0  0  0  0  0  0  0  0  0
  182.4510  178.1140  139.7540 C   0  0  0  0  0  2  0  0  0  0  0  0
  181.5460  180.0850  137.1980 C   0  0  0  0  0  2  0  0  0  0  0  0
  180.1660  180.0140  139.3000 C   0  0  2  0  0  3  0  0  0  0  0  0
  180.2530  179.4080  136.7770 C   0  0  0  0  0  2  0  0  0  0  0  0
  181.0980  180.0990  140.5160 C   0  0  2  0  0  3  0  0  0  0  0  0
  181.5940  177.9160  138.4930 C   0  0  1  0  0  3  0  0  0  0  0  0
  180.7860  176.5860  138.4880 C   0  0  1  0  0  0  0  0  0  0  0  0
  180.8280  175.9010  137.0990 C   0  0  2  0  0  3  0  0  0  0  0  0
  180.2340  173.8180  138.2700 C   0  0  0  0  0  0  0  0  0  0  0  0
  180.7500  174.3290  139.4620 O   0  0  0  0  0  0  0  0  0  0  0  0
  181.3920  175.6030  139.5070 C   0  0  0  0  0  2  0  0  0  0  0  0
  179.7650  172.6520  138.2350 O   0  0  0  0  0  0  0  0  0  0  0  0
  179.3320  176.8440  138.8710 C   0  0  0  0  0  1  0  0  0  0  0  0
  180.1790  174.6280  137.1340 O   0  0  0  0  0  0  0  0  0  0  0  0
  182.2570  175.7270  136.5830 C   0  0  0  0  0  2  0  0  0  0  0  0
  182.4200  176.4210  135.2460 C   0  0  0  0  0  1  0  0  0  0  0  0
  183.8730  178.9670  142.0590 C   0  0  0  0  0  3  0  0  0  0  0  0
  181.8960  178.6150  143.4230 C   0  0  0  0  0  0  0  0  0  0  0  0
  184.0700  178.8610  144.4670 C   0  0  0  0  0  0  0  0  0  0  0  0
  182.4860  178.7710  142.1530 C   0  0  0  0  0  0  0  0  0  0  0  0
  182.6920  178.6620  144.5710 C   0  0  0  0  0  3  0  0  0  0  0  0
  180.4280  178.4000  143.5790 C   0  0  0  0  0  1  0  0  0  0  0  0
  185.0580  178.9190  145.9110 Cl  0  0  0  0  0  0  0  0  0  0  0  0
  184.6610  179.0130  143.2110 C   0  0  0  0  0  3  0  0  0  0  0  0
  2 24  1  1  0  0  0
  4 10  1  0  0  0  0
  4  7  1  0  0  0  0
  5  2  1  0  0  0  0
  6  4  1  0  0  0  0
  7  1  1  1  0  0  0
  7  9  1  0  0  0  0
  8  6  1  0  0  0  0
  8  4  1  0  0  0  0
  9  2  1  0  0  0  0
  9  3  1  1  0  0  0
 10  5  1  1  0  0  0
 11 10  1  0  0  0  0
 11 17  1  1  0  0  0
 11 15  1  0  0  0  0
 12 19  1  1  0  0  0
 12 18  1  0  0  0  0
 12 11  1  0  0  0  0
 13 14  1  0  0  0  0
 14 15  1  0  0  0  0
 16 13  2  0  0  0  0
 18 13  1  0  0  0  0
 20 19  1  0  0  0  0
 21 24  2  0  0  0  0
 21 28  1  0  0  0  0
 22 26  1  0  0  0  0
 22 25  2  0  0  0  0
 23 25  1  0  0  0  0
 23 27  1  0  0  0  0
 24 22  1  0  0  0  0
 28 23  2  0  0  0  0
M  END
>  <MODEL>
7

>  <REMARK>
 VINA RESULT:      -5.8      6.510      9.977
  Name = 
  3 active torsions:
  status: ('A' for Active; 'I' for Inactive)
    1  A    between atoms: C_1  and  C_27
    2  A    between atoms: C_2  and  C_3
    3  A    between atoms: C_10  and  C_13
                            x       y       z     vdW  Elec       q    Type
                         _______ _______ _______ _____ _____    ______ ____

>  <TORSDO>
F 3

$$$$
=
 OpenBabel10262420563D

 28 31  0  0  1  0  0  0  0  0999 V2000
  187.8150  179.3720  136.4910 O   0  0  0  0  0  1  0  0  0  0  0  0
  188.2720  177.5340  138.9200 C   0  0  2  0  0  3  0  0  0  0  0  0
  189.1660  179.7770  138.8320 O   0  0  0  0  0  1  0  0  0  0  0  0
  188.8520  177.2410  136.0930 C   0  0  0  0  0  0  0  0  0  0  0  0
  188.4230  176.1320  138.3260 C   0  0  0  0  0  2  0  0  0  0  0  0
  190.1800  176.7680  135.5430 C   0  0  0  0  0  2  0  0  0  0  0  0
  188.9690  178.6240  136.7350 C   0  0  2  0  0  3  0  0  0  0  0  0
  189.0580  177.1550  134.5950 C   0  0  0  0  0  2  0  0  0  0  0  0
  189.2410  178.5130  138.2410 C   0  0  2  0  0  3  0  0  0  0  0  0
  188.1040  176.1050  136.8220 C   0  0  1  0  0  3  0  0  0  0  0  0
  186.5870  175.9650  136.5070 C   0  0  1  0  0  0  0  0  0  0  0  0
  186.2080  174.4980  136.1840 C   0  0  2  0  0  3  0  0  0  0  0  0
  183.8940  175.1250  136.7470 C   0  0  0  0  0  0  0  0  0  0  0  0
  184.3600  176.1860  137.5260 O   0  0  0  0  0  0  0  0  0  0  0  0
  185.7570  176.3990  137.7290 C   0  0  0  0  0  2  0  0  0  0  0  0
  182.6590  174.8990  136.6660 O   0  0  0  0  0  0  0  0  0  0  0  0
  186.2030  176.8490  135.3240 C   0  0  0  0  0  1  0  0  0  0  0  0
  184.7950  174.3600  136.0060 O   0  0  0  0  0  0  0  0  0  0  0  0
  186.6790  173.5260  137.2670 C   0  0  0  0  0  2  0  0  0  0  0  0
  187.4330  172.3700  136.6420 C   0  0  0  0  0  1  0  0  0  0  0  0
  189.6240  176.9040  140.9530 C   0  0  0  0  0  3  0  0  0  0  0  0
  187.4880  178.0130  141.2780 C   0  0  0  0  0  0  0  0  0  0  0  0
  188.8370  177.3780  143.1910 C   0  0  0  0  0  0  0  0  0  0  0  0
  188.4660  177.4860  140.4120 C   0  0  0  0  0  0  0  0  0  0  0  0
  187.6810  177.9560  142.6620 C   0  0  0  0  0  3  0  0  0  0  0  0
  186.2380  178.6370  140.7550 C   0  0  0  0  0  1  0  0  0  0  0  0
  189.0680  177.3120  144.9240 Cl  0  0  0  0  0  0  0  0  0  0  0  0
  189.8080  176.8520  142.3370 C   0  0  0  0  0  3  0  0  0  0  0  0
  2 24  1  1  0  0  0
  4  7  1  0  0  0  0
  4 10  1  0  0  0  0
  5  2  1  0  0  0  0
  6  4  1  0  0  0  0
  7  1  1  1  0  0  0
  7  9  1  0  0  0  0
  8  6  1  0  0  0  0
  8  4  1  0  0  0  0
  9  3  1  1  0  0  0
  9  2  1  0  0  0  0
 10  5  1  1  0  0  0
 11 17  1  6  0  0  0
 11 10  1  0  0  0  0
 11 15  1  0  0  0  0
 12 11  1  0  0  0  0
 12 19  1  1  0  0  0
 13 14  1  0  0  0  0
 14 15  1  0  0  0  0
 16 13  2  0  0  0  0
 18 12  1  0  0  0  0
 18 13  1  0  0  0  0
 20 19  1  0  0  0  0
 21 28  1  0  0  0  0
 22 25  2  0  0  0  0
 23 27  1  0  0  0  0
 24 21  2  0  0  0  0
 24 22  1  0  0  0  0
 25 23  1  0  0  0  0
 26 22  1  0  0  0  0
 28 23  2  0  0  0  0
M  END
>  <MODEL>
8

>  <REMARK>
 VINA RESULT:      -5.7      5.820      8.568
  Name = 
  3 active torsions:
  status: ('A' for Active; 'I' for Inactive)
    1  A    between atoms: C_1  and  C_27
    2  A    between atoms: C_2  and  C_3
    3  A    between atoms: C_10  and  C_13
                            x       y       z     vdW  Elec       q    Type
                         _______ _______ _______ _____ _____    ______ ____

>  <TORSDO>
F 3

$$$$
=
 OpenBabel10262420563D

 28 31  0  0  1  0  0  0  0  0999 V2000
  180.1330  175.3710  136.3130 O   0  0  0  0  0  1  0  0  0  0  0  0
  182.9650  175.1470  137.5050 C   0  0  2  0  0  3  0  0  0  0  0  0
  182.0810  173.4800  135.9950 O   0  0  0  0  0  1  0  0  0  0  0  0
  180.3350  175.3870  138.7080 C   0  0  0  0  0  0  0  0  0  0  0  0
  182.8360  175.7050  138.9240 C   0  0  0  0  0  2  0  0  0  0  0  0
  179.8390  174.5180  139.8420 C   0  0  0  0  0  2  0  0  0  0  0  0
  180.4890  174.5870  137.4130 C   0  0  2  0  0  3  0  0  0  0  0  0
  178.9310  175.5760  139.2400 C   0  0  0  0  0  2  0  0  0  0  0  0
  181.9180  174.0490  137.2620 C   0  0  2  0  0  3  0  0  0  0  0  0
  181.4570  176.3380  139.1720 C   0  0  1  0  0  3  0  0  0  0  0  0
  181.3520  177.8150  138.6920 C   0  0  1  0  0  0  0  0  0  0  0  0
  180.4430  178.6520  139.6270 C   0  0  2  0  0  3  0  0  0  0  0  0
  181.5850  180.6360  138.7180 C   0  0  0  0  0  0  0  0  0  0  0  0
  182.6860  179.8540  138.3670 O   0  0  0  0  0  0  0  0  0  0  0  0
  182.7470  178.4670  138.6970 C   0  0  0  0  0  2  0  0  0  0  0  0
  181.5990  181.8760  138.5060 O   0  0  0  0  0  0  0  0  0  0  0  0
  180.7960  177.8760  137.2720 C   0  0  0  0  0  1  0  0  0  0  0  0
  180.4420  180.0300  139.2430 O   0  0  0  0  0  0  0  0  0  0  0  0
  180.8580  178.5360  141.0940 C   0  0  0  0  0  2  0  0  0  0  0  0
  179.6810  178.0920  141.9380 C   0  0  0  0  0  1  0  0  0  0  0  0
  184.7610  173.3940  137.7370 C   0  0  0  0  0  3  0  0  0  0  0  0
  185.3010  175.4610  136.5840 C   0  0  0  0  0  0  0  0  0  0  0  0
  186.9830  173.7340  136.8450 C   0  0  0  0  0  0  0  0  0  0  0  0
  184.3680  174.6570  137.2680 C   0  0  0  0  0  0  0  0  0  0  0  0
  186.6030  174.9940  136.3770 C   0  0  0  0  0  3  0  0  0  0  0  0
  184.9360  176.8130  136.0700 C   0  0  0  0  0  1  0  0  0  0  0  0
  188.6150  173.1590  136.5800 Cl  0  0  0  0  0  0  0  0  0  0  0  0
  186.0630  172.9340  137.5250 C   0  0  0  0  0  3  0  0  0  0  0  0
  2 24  1  1  0  0  0
  2  5  1  0  0  0  0
  4 10  1  0  0  0  0
  4  8  1  0  0  0  0
  4  6  1  0  0  0  0
  7  1  1  6  0  0  0
  7  4  1  0  0  0  0
  8  6  1  0  0  0  0
  9  3  1  6  0  0  0
  9  7  1  0  0  0  0
  9  2  1  0  0  0  0
 10  5  1  6  0  0  0
 11 17  1  6  0  0  0
 11 15  1  0  0  0  0
 11 10  1  0  0  0  0
 11 12  1  0  0  0  0
 12 19  1  1  0  0  0
 13 18  1  0  0  0  0
 14 15  1  0  0  0  0
 14 13  1  0  0  0  0
 16 13  2  0  0  0  0
 18 12  1  0  0  0  0
 19 20  1  0  0  0  0
 22 24  1  0  0  0  0
 23 28  2  0  0  0  0
 24 21  2  0  0  0  0
 25 22  2  0  0  0  0
 25 23  1  0  0  0  0
 26 22  1  0  0  0  0
 27 23  1  0  0  0  0
 28 21  1  0  0  0  0
M  END
>  <MODEL>
9

>  <REMARK>
 VINA RESULT:      -5.7      8.536     10.949
  Name = 
  3 active torsions:
  status: ('A' for Active; 'I' for Inactive)
    1  A    between atoms: C_1  and  C_27
    2  A    between atoms: C_2  and  C_3
    3  A    between atoms: C_10  and  C_13
                            x       y       z     vdW  Elec       q    Type
                         _______ _______ _______ _____ _____    ______ ____

>  <TORSDO>
F 3

$$$$
