=
 OpenBabel10262419193D

 31 34  0  0  1  0  0  0  0  0999 V2000
  183.6130  178.6920  143.1810 C   0  0  0  0  0  0  0  0  0  0  0  0
  187.2940  177.9190  143.3690 C   0  0  0  0  0  0  0  0  0  0  0  0
  187.5790  177.5630  144.7250 C   0  0  0  0  0  0  0  0  0  0  0  0
  186.5920  178.3160  146.8650 C   0  0  0  0  0  3  0  0  0  0  0  0
  186.0000  178.2710  142.8770 C   0  0  0  0  0  0  0  0  0  0  0  0
  183.4790  178.9900  141.8260 C   0  0  0  0  0  3  0  0  0  0  0  0
  186.4920  177.3490  145.7350 C   0  0  0  0  0  2  0  0  0  0  0  0
  188.1560  178.2390  141.0980 C   0  0  0  0  0  0  0  0  0  0  0  0
  182.2180  178.7590  144.2350 Cl  0  0  0  0  0  0  0  0  0  0  0  0
  189.9110  177.2910  144.1460 C   0  0  0  0  0  3  0  0  0  0  0  0
  187.6080  178.3050  147.7250 C   0  0  0  0  0  3  0  0  0  0  0  0
  186.9120  178.5600  140.6690 N   0  0  0  0  0  0  0  0  0  0  0  0
  188.3760  177.9190  142.4470 C   0  0  0  0  0  0  0  0  0  0  0  0
  184.8600  178.3380  143.6980 C   0  0  0  0  0  3  0  0  0  0  0  0
  188.7770  177.4120  147.6240 C   0  0  0  0  0  3  0  0  0  0  0  0
  185.8460  178.5870  141.5030 C   0  0  0  0  0  0  0  0  0  0  0  0
  184.5940  178.9380  140.9890 C   0  0  0  0  0  3  0  0  0  0  0  0
  189.6300  177.6000  142.8600 N   0  0  0  0  0  0  0  0  0  0  0  0
  188.9100  177.2840  145.1090 C   0  0  0  0  0  0  0  0  0  0  0  0
  189.3310  176.9650  146.4910 C   0  0  0  0  0  3  0  0  0  0  0  0
  189.2840  178.2530  140.1140 C   0  0  0  0  0  2  0  0  0  0  0  0
  189.1450  178.8170  137.6750 C   0  0  0  0  0  1  0  0  0  0  0  0
  188.8140  177.7870  138.7430 C   0  0  1  0  0  3  0  0  0  0  0  0
  190.4120  176.0470  139.0790 O   0  0  0  0  0  0  0  0  0  0  0  0
  189.4330  176.4670  138.4020 C   0  0  0  0  0  0  0  0  0  0  0  0
  189.6850  175.1590  136.4510 O   0  0  0  0  0  0  0  0  0  0  0  0
  188.8850  175.6680  137.2790 C   0  0  0  0  0  0  0  0  0  0  0  0
  186.8970  174.2940  137.2040 C   0  0  0  0  0  3  0  0  0  0  0  0
  187.4790  175.4440  137.0860 N   0  0  0  0  0  0  0  0  0  0  0  0
  185.4300  174.1640  136.9810 C   0  0  0  0  0  2  0  0  0  0  0  0
  184.8960  172.9410  137.7000 C   0  0  0  0  0  1  0  0  0  0  0  0
  1 14  1  0  0  0  0
  1  9  1  0  0  0  0
  2  3  1  0  0  0  0
  3 19  2  0  0  0  0
  3  7  1  0  0  0  0
  4 11  2  0  0  0  0
  5  2  1  0  0  0  0
  5 14  2  0  0  0  0
  6  1  2  0  0  0  0
  7  4  1  0  0  0  0
  8 13  1  0  0  0  0
 10 19  1  0  0  0  0
 12  8  2  0  0  0  0
 12 16  1  0  0  0  0
 13 18  1  0  0  0  0
 13  2  2  0  0  0  0
 15 11  1  0  0  0  0
 16  5  1  0  0  0  0
 17 16  2  0  0  0  0
 17  6  1  0  0  0  0
 18 10  2  0  0  0  0
 19 20  1  0  0  0  0
 20 15  2  0  0  0  0
 21  8  1  0  0  0  0
 23 22  1  6  0  0  0
 23 21  1  0  0  0  0
 25 23  1  0  0  0  0
 25 24  2  0  0  0  0
 26 27  2  0  0  0  0
 27 25  1  0  0  0  0
 29 28  2  0  0  0  0
 29 27  1  0  0  0  0
 30 28  1  0  0  0  0
 30 31  1  0  0  0  0
M  END
>  <MODEL>
1

>  <REMARK>
 VINA RESULT:      -9.7      0.000      0.000
  Name = 
  6 active torsions:
  status: ('A' for Active; 'I' for Inactive)
    1  A    between atoms: C_1  and  C_11
    2  A    between atoms: C_9  and  C_22
    3  A    between atoms: C_9  and  C_23
    4  A    between atoms: C_15  and  C_23
    5  A    between atoms: C_19  and  C_22
    6  A    between atoms: C_19  and  N_24
                            x       y       z     vdW  Elec       q    Type
                         _______ _______ _______ _____ _____    ______ ____

>  <TORSDO>
F 6

$$$$
=
 OpenBabel10262419193D

 31 34  0  0  1  0  0  0  0  0999 V2000
  185.0660  178.5000  144.3120 C   0  0  0  0  0  0  0  0  0  0  0  0
  188.6400  177.5130  143.6480 C   0  0  0  0  0  0  0  0  0  0  0  0
  189.2050  177.1160  144.9010 C   0  0  0  0  0  0  0  0  0  0  0  0
  188.7810  177.8850  147.2140 C   0  0  0  0  0  3  0  0  0  0  0  0
  187.2910  177.9480  143.4680 C   0  0  0  0  0  0  0  0  0  0  0  0
  184.6450  178.8300  143.0250 C   0  0  0  0  0  3  0  0  0  0  0  0
  188.3670  176.9470  146.1330 C   0  0  0  0  0  2  0  0  0  0  0  0
  188.9780  177.8240  141.2420 C   0  0  0  0  0  0  0  0  0  0  0  0
  183.9560  178.6280  145.6590 Cl  0  0  0  0  0  0  0  0  0  0  0  0
  191.3230  176.7220  143.8010 C   0  0  0  0  0  3  0  0  0  0  0  0
  189.9640  177.8000  147.8180 C   0  0  0  0  0  3  0  0  0  0  0  0
  187.6900  178.2240  141.1100 N   0  0  0  0  0  0  0  0  0  0  0  0
  189.4810  177.4670  142.5020 C   0  0  0  0  0  0  0  0  0  0  0  0
  186.3760  178.0650  144.5280 C   0  0  0  0  0  3  0  0  0  0  0  0
  191.0230  176.8440  147.4480 C   0  0  0  0  0  3  0  0  0  0  0  0
  186.8460  178.2970  142.1670 C   0  0  0  0  0  0  0  0  0  0  0  0
  185.5340  178.7290  141.9560 C   0  0  0  0  0  3  0  0  0  0  0  0
  190.7740  177.0690  142.6160 N   0  0  0  0  0  0  0  0  0  0  0  0
  190.5700  176.7540  144.9680 C   0  0  0  0  0  0  0  0  0  0  0  0
  191.2760  176.3860  146.2150 C   0  0  0  0  0  3  0  0  0  0  0  0
  189.8500  177.7920  140.0250 C   0  0  0  0  0  2  0  0  0  0  0  0
  189.0790  178.5540  137.7650 C   0  0  0  0  0  1  0  0  0  0  0  0
  189.0410  177.4290  138.7870 C   0  0  1  0  0  3  0  0  0  0  0  0
  190.5890  175.6170  138.6630 O   0  0  0  0  0  0  0  0  0  0  0  0
  189.5550  176.1600  138.1820 C   0  0  0  0  0  0  0  0  0  0  0  0
  189.3050  175.7230  135.8740 O   0  0  0  0  0  0  0  0  0  0  0  0
  188.8410  175.5530  137.0330 C   0  0  0  0  0  0  0  0  0  0  0  0
  186.4500  175.2170  136.9180 C   0  0  0  0  0  3  0  0  0  0  0  0
  187.6400  174.7780  137.1730 N   0  0  0  0  0  0  0  0  0  0  0  0
  185.2650  174.3320  137.0970 C   0  0  0  0  0  2  0  0  0  0  0  0
  185.6890  172.9980  137.6770 C   0  0  0  0  0  1  0  0  0  0  0  0
  1 14  1  0  0  0  0
  1  9  1  0  0  0  0
  2  3  1  0  0  0  0
  3 19  2  0  0  0  0
  3  7  1  0  0  0  0
  4 11  2  0  0  0  0
  5  2  1  0  0  0  0
  5 14  2  0  0  0  0
  6  1  2  0  0  0  0
  7  4  1  0  0  0  0
  8 13  1  0  0  0  0
 10 19  1  0  0  0  0
 12  8  2  0  0  0  0
 12 16  1  0  0  0  0
 13 18  1  0  0  0  0
 13  2  2  0  0  0  0
 15 11  1  0  0  0  0
 16  5  1  0  0  0  0
 17 16  2  0  0  0  0
 17  6  1  0  0  0  0
 18 10  2  0  0  0  0
 19 20  1  0  0  0  0
 20 15  2  0  0  0  0
 21  8  1  0  0  0  0
 23 22  1  6  0  0  0
 23 21  1  0  0  0  0
 25 24  2  0  0  0  0
 25 23  1  0  0  0  0
 26 27  2  0  0  0  0
 27 29  1  0  0  0  0
 27 25  1  0  0  0  0
 28 30  1  0  0  0  0
 28 29  2  0  0  0  0
 30 31  1  0  0  0  0
M  END
>  <MODEL>
2

>  <REMARK>
 VINA RESULT:      -9.4      1.072      1.437
  Name = 
  6 active torsions:
  status: ('A' for Active; 'I' for Inactive)
    1  A    between atoms: C_1  and  C_11
    2  A    between atoms: C_9  and  C_22
    3  A    between atoms: C_9  and  C_23
    4  A    between atoms: C_15  and  C_23
    5  A    between atoms: C_19  and  C_22
    6  A    between atoms: C_19  and  N_24
                            x       y       z     vdW  Elec       q    Type
                         _______ _______ _______ _____ _____    ______ ____

>  <TORSDO>
F 6

$$$$
=
 OpenBabel10262419193D

 31 34  0  0  1  0  0  0  0  0999 V2000
  188.8930  177.6500  147.5860 C   0  0  0  0  0  0  0  0  0  0  0  0
  187.5320  177.8750  144.0810 C   0  0  0  0  0  0  0  0  0  0  0  0
  186.2580  178.5200  144.1670 C   0  0  0  0  0  0  0  0  0  0  0  0
  184.5200  178.5030  145.9280 C   0  0  0  0  0  3  0  0  0  0  0  0
  188.3840  177.6100  145.1970 C   0  0  0  0  0  0  0  0  0  0  0  0
  190.1220  177.0380  147.3480 C   0  0  0  0  0  3  0  0  0  0  0  0
  185.7700  179.1500  145.4380 C   0  0  0  0  0  2  0  0  0  0  0  0
  189.2320  176.8550  142.6430 C   0  0  0  0  0  0  0  0  0  0  0  0
  188.4230  178.0690  149.2190 Cl  0  0  0  0  0  0  0  0  0  0  0  0
  185.9930  178.2750  141.7760 C   0  0  0  0  0  3  0  0  0  0  0  0
  183.3690  178.5790  145.2650 C   0  0  0  0  0  3  0  0  0  0  0  0
  190.0150  176.6280  143.7250 N   0  0  0  0  0  0  0  0  0  0  0  0
  187.9820  177.4740  142.7940 C   0  0  0  0  0  0  0  0  0  0  0  0
  188.0350  177.9310  146.5210 C   0  0  0  0  0  3  0  0  0  0  0  0
  183.2060  179.2270  143.9500 C   0  0  0  0  0  3  0  0  0  0  0  0
  189.6350  176.9790  144.9760 C   0  0  0  0  0  0  0  0  0  0  0  0
  190.4910  176.7030  146.0460 C   0  0  0  0  0  3  0  0  0  0  0  0
  187.2100  177.6930  141.6980 N   0  0  0  0  0  0  0  0  0  0  0  0
  185.4780  178.6830  143.0000 C   0  0  0  0  0  0  0  0  0  0  0  0
  184.1240  179.2780  142.9770 C   0  0  0  0  0  3  0  0  0  0  0  0
  189.7190  176.4160  141.2970 C   0  0  0  0  0  2  0  0  0  0  0  0
  191.8990  177.5580  140.8150 C   0  0  0  0  0  1  0  0  0  0  0  0
  190.4000  177.5660  140.5640 C   0  0  1  0  0  3  0  0  0  0  0  0
  190.8830  176.8130  138.3520 O   0  0  0  0  0  0  0  0  0  0  0  0
  190.1170  177.4870  139.0960 C   0  0  0  0  0  0  0  0  0  0  0  0
  189.0360  179.4240  138.2860 O   0  0  0  0  0  0  0  0  0  0  0  0
  188.9400  178.1940  138.5370 C   0  0  0  0  0  0  0  0  0  0  0  0
  186.6330  178.1440  137.8140 C   0  0  0  0  0  3  0  0  0  0  0  0
  187.6880  177.5440  138.2650 N   0  0  0  0  0  0  0  0  0  0  0  0
  185.3790  177.3800  137.5660 C   0  0  0  0  0  2  0  0  0  0  0  0
  184.2620  177.9060  138.4450 C   0  0  0  0  0  1  0  0  0  0  0  0
  1  9  1  0  0  0  0
  2  3  1  0  0  0  0
  2  5  1  0  0  0  0
  3  7  1  0  0  0  0
  5 14  1  0  0  0  0
  6  1  1  0  0  0  0
  7  4  1  0  0  0  0
  8 13  1  0  0  0  0
  8 12  2  0  0  0  0
 10 19  1  0  0  0  0
 11  4  2  0  0  0  0
 12 16  1  0  0  0  0
 13  2  2  0  0  0  0
 14  1  2  0  0  0  0
 15 11  1  0  0  0  0
 16  5  2  0  0  0  0
 16 17  1  0  0  0  0
 17  6  2  0  0  0  0
 18 10  2  0  0  0  0
 18 13  1  0  0  0  0
 19  3  2  0  0  0  0
 20 19  1  0  0  0  0
 20 15  2  0  0  0  0
 21  8  1  0  0  0  0
 23 22  1  6  0  0  0
 23 21  1  0  0  0  0
 24 25  2  0  0  0  0
 25 23  1  0  0  0  0
 26 27  2  0  0  0  0
 27 25  1  0  0  0  0
 28 29  2  0  0  0  0
 29 27  1  0  0  0  0
 30 28  1  0  0  0  0
 30 31  1  0  0  0  0
M  END
>  <MODEL>
3

>  <REMARK>
 VINA RESULT:      -9.3      2.277      4.546
  Name = 
  6 active torsions:
  status: ('A' for Active; 'I' for Inactive)
    1  A    between atoms: C_1  and  C_11
    2  A    between atoms: C_9  and  C_22
    3  A    between atoms: C_9  and  C_23
    4  A    between atoms: C_15  and  C_23
    5  A    between atoms: C_19  and  C_22
    6  A    between atoms: C_19  and  N_24
                            x       y       z     vdW  Elec       q    Type
                         _______ _______ _______ _____ _____    ______ ____

>  <TORSDO>
F 6

$$$$
=
 OpenBabel10262419193D

 31 34  0  0  1  0  0  0  0  0999 V2000
  184.1980  178.6270  143.4090 C   0  0  0  0  0  0  0  0  0  0  0  0
  187.8410  177.7850  142.9560 C   0  0  0  0  0  0  0  0  0  0  0  0
  188.3360  177.3620  144.2310 C   0  0  0  0  0  0  0  0  0  0  0  0
  187.7300  178.0320  146.5350 C   0  0  0  0  0  3  0  0  0  0  0  0
  186.4930  178.1810  142.7000 C   0  0  0  0  0  0  0  0  0  0  0  0
  183.8520  178.9890  142.1090 C   0  0  0  0  0  3  0  0  0  0  0  0
  187.4230  177.1200  145.3960 C   0  0  0  0  0  2  0  0  0  0  0  0
  188.3280  178.1950  140.5910 C   0  0  0  0  0  0  0  0  0  0  0  0
  182.9960  178.6680  144.6810 Cl  0  0  0  0  0  0  0  0  0  0  0  0
  190.5350  177.0790  143.2650 C   0  0  0  0  0  3  0  0  0  0  0  0
  188.8720  177.9650  147.2150 C   0  0  0  0  0  3  0  0  0  0  0  0
  187.0380  178.5560  140.3860 N   0  0  0  0  0  0  0  0  0  0  0  0
  188.7580  177.8100  141.8700 C   0  0  0  0  0  0  0  0  0  0  0  0
  185.5050  178.2290  143.6990 C   0  0  0  0  0  3  0  0  0  0  0  0
  189.9870  177.0590  146.8850 C   0  0  0  0  0  3  0  0  0  0  0  0
  186.1240  178.5620  141.3840 C   0  0  0  0  0  0  0  0  0  0  0  0
  184.8130  178.9570  141.0990 C   0  0  0  0  0  3  0  0  0  0  0  0
  190.0540  177.4510  142.0570 N   0  0  0  0  0  0  0  0  0  0  0  0
  189.7050  177.0440  144.3780 C   0  0  0  0  0  0  0  0  0  0  0  0
  190.3380  176.6550  145.6570 C   0  0  0  0  0  3  0  0  0  0  0  0
  189.2800  178.2360  139.4360 C   0  0  0  0  0  2  0  0  0  0  0  0
  188.9830  179.2420  137.1590 C   0  0  0  0  0  1  0  0  0  0  0  0
  188.5320  178.1470  138.1120 C   0  0  1  0  0  3  0  0  0  0  0  0
  187.9710  175.8480  137.8130 O   0  0  0  0  0  0  0  0  0  0  0  0
  188.7330  176.8010  137.4900 C   0  0  0  0  0  0  0  0  0  0  0  0
  189.5120  176.4510  135.2870 O   0  0  0  0  0  0  0  0  0  0  0  0
  189.8190  176.6060  136.4990 C   0  0  0  0  0  0  0  0  0  0  0  0
  191.7260  175.8190  137.7590 C   0  0  0  0  0  3  0  0  0  0  0  0
  191.2110  176.5840  136.8510 N   0  0  0  0  0  0  0  0  0  0  0  0
  193.1860  175.8730  138.0530 C   0  0  0  0  0  2  0  0  0  0  0  0
  193.9840  175.6640  136.7820 C   0  0  0  0  0  1  0  0  0  0  0  0
  1 14  1  0  0  0  0
  1  9  1  0  0  0  0
  2  3  1  0  0  0  0
  3 19  2  0  0  0  0
  3  7  1  0  0  0  0
  4 11  2  0  0  0  0
  5  2  1  0  0  0  0
  5 14  2  0  0  0  0
  6  1  2  0  0  0  0
  7  4  1  0  0  0  0
  8 13  1  0  0  0  0
 10 19  1  0  0  0  0
 12  8  2  0  0  0  0
 12 16  1  0  0  0  0
 13 18  1  0  0  0  0
 13  2  2  0  0  0  0
 15 11  1  0  0  0  0
 16  5  1  0  0  0  0
 17 16  2  0  0  0  0
 17  6  1  0  0  0  0
 18 10  2  0  0  0  0
 19 20  1  0  0  0  0
 20 15  2  0  0  0  0
 21  8  1  0  0  0  0
 23 22  1  6  0  0  0
 23 21  1  0  0  0  0
 25 24  2  0  0  0  0
 25 23  1  0  0  0  0
 26 27  2  0  0  0  0
 27 29  1  0  0  0  0
 27 25  1  0  0  0  0
 28 30  1  0  0  0  0
 29 28  2  0  0  0  0
 31 30  1  0  0  0  0
M  END
>  <MODEL>
4

>  <REMARK>
 VINA RESULT:      -9.3      1.790      2.715
  Name = 
  6 active torsions:
  status: ('A' for Active; 'I' for Inactive)
    1  A    between atoms: C_1  and  C_11
    2  A    between atoms: C_9  and  C_22
    3  A    between atoms: C_9  and  C_23
    4  A    between atoms: C_15  and  C_23
    5  A    between atoms: C_19  and  C_22
    6  A    between atoms: C_19  and  N_24
                            x       y       z     vdW  Elec       q    Type
                         _______ _______ _______ _____ _____    ______ ____

>  <TORSDO>
F 6

$$$$
=
 OpenBabel10262419193D

 31 34  0  0  1  0  0  0  0  0999 V2000
  186.7270  177.9690  146.9990 C   0  0  0  0  0  0  0  0  0  0  0  0
  187.3120  177.9930  143.2780 C   0  0  0  0  0  0  0  0  0  0  0  0
  188.6730  177.6060  143.0650 C   0  0  0  0  0  0  0  0  0  0  0  0
  190.7160  177.9670  144.4130 C   0  0  0  0  0  3  0  0  0  0  0  0
  186.6890  178.0940  144.5590 C   0  0  0  0  0  0  0  0  0  0  0  0
  185.3830  178.3320  147.0520 C   0  0  0  0  0  3  0  0  0  0  0  0
  189.5350  177.0880  144.1780 C   0  0  0  0  0  2  0  0  0  0  0  0
  185.1790  178.6590  142.2750 C   0  0  0  0  0  0  0  0  0  0  0  0
  187.6110  177.6560  148.4770 Cl  0  0  0  0  0  0  0  0  0  0  0  0
  188.3620  177.8860  140.6830 C   0  0  0  0  0  3  0  0  0  0  0  0
  191.6890  178.1100  143.5170 C   0  0  0  0  0  3  0  0  0  0  0  0
  184.6210  178.7370  143.5070 N   0  0  0  0  0  0  0  0  0  0  0  0
  186.5260  178.2940  142.1320 C   0  0  0  0  0  0  0  0  0  0  0  0
  187.3710  177.8530  145.7650 C   0  0  0  0  0  3  0  0  0  0  0  0
  191.6830  177.4990  142.1750 C   0  0  0  0  0  3  0  0  0  0  0  0
  185.3230  178.4710  144.6350 C   0  0  0  0  0  0  0  0  0  0  0  0
  184.6830  178.5830  145.8720 C   0  0  0  0  0  3  0  0  0  0  0  0
  187.0690  178.2220  140.8890 N   0  0  0  0  0  0  0  0  0  0  0  0
  189.1980  177.5910  141.7530 C   0  0  0  0  0  0  0  0  0  0  0  0
  190.6020  177.2670  141.4190 C   0  0  0  0  0  3  0  0  0  0  0  0
  184.3380  178.9890  141.0820 C   0  0  0  0  0  2  0  0  0  0  0  0
  181.8340  178.8540  141.1010 C   0  0  0  0  0  1  0  0  0  0  0  0
  183.1300  178.0660  140.9970 C   0  0  1  0  0  3  0  0  0  0  0  0
  182.6660  176.1230  139.6910 O   0  0  0  0  0  0  0  0  0  0  0  0
  183.1610  177.2840  139.7200 C   0  0  0  0  0  0  0  0  0  0  0  0
  183.1600  178.8300  137.9340 O   0  0  0  0  0  0  0  0  0  0  0  0
  183.7650  177.8850  138.5060 C   0  0  0  0  0  0  0  0  0  0  0  0
  185.9590  178.2340  137.5520 C   0  0  0  0  0  3  0  0  0  0  0  0
  185.0120  177.4440  137.9470 N   0  0  0  0  0  0  0  0  0  0  0  0
  187.2170  177.6770  136.9830 C   0  0  0  0  0  2  0  0  0  0  0  0
  188.3370  178.6930  137.0900 C   0  0  0  0  0  1  0  0  0  0  0  0
  1  6  1  0  0  0  0
  1  9  1  0  0  0  0
  2  5  1  0  0  0  0
  3  2  1  0  0  0  0
  3  7  1  0  0  0  0
  5 16  2  0  0  0  0
  5 14  1  0  0  0  0
  7  4  1  0  0  0  0
  8 12  2  0  0  0  0
 10 18  2  0  0  0  0
 10 19  1  0  0  0  0
 11  4  2  0  0  0  0
 12 16  1  0  0  0  0
 13  8  1  0  0  0  0
 13  2  2  0  0  0  0
 14  1  2  0  0  0  0
 15 11  1  0  0  0  0
 16 17  1  0  0  0  0
 17  6  2  0  0  0  0
 18 13  1  0  0  0  0
 19  3  2  0  0  0  0
 20 19  1  0  0  0  0
 20 15  2  0  0  0  0
 21  8  1  0  0  0  0
 23 21  1  0  0  0  0
 23 22  1  6  0  0  0
 24 25  2  0  0  0  0
 25 23  1  0  0  0  0
 26 27  2  0  0  0  0
 27 25  1  0  0  0  0
 28 29  2  0  0  0  0
 29 27  1  0  0  0  0
 30 31  1  0  0  0  0
 30 28  1  0  0  0  0
M  END
>  <MODEL>
5

>  <REMARK>
 VINA RESULT:      -9.2      3.040      4.970
  Name = 
  6 active torsions:
  status: ('A' for Active; 'I' for Inactive)
    1  A    between atoms: C_1  and  C_11
    2  A    between atoms: C_9  and  C_22
    3  A    between atoms: C_9  and  C_23
    4  A    between atoms: C_15  and  C_23
    5  A    between atoms: C_19  and  C_22
    6  A    between atoms: C_19  and  N_24
                            x       y       z     vdW  Elec       q    Type
                         _______ _______ _______ _____ _____    ______ ____

>  <TORSDO>
F 6

$$$$
=
 OpenBabel10262419193D

 31 34  0  0  1  0  0  0  0  0999 V2000
  184.1080  178.6050  143.9910 C   0  0  0  0  0  0  0  0  0  0  0  0
  186.9010  178.2170  141.4950 C   0  0  0  0  0  0  0  0  0  0  0  0
  186.3270  178.3800  140.1940 C   0  0  0  0  0  0  0  0  0  0  0  0
  184.0880  177.8200  139.3030 C   0  0  0  0  0  3  0  0  0  0  0  0
  186.1720  178.3050  142.7200 C   0  0  0  0  0  0  0  0  0  0  0  0
  184.8060  178.4510  145.1880 C   0  0  0  0  0  3  0  0  0  0  0  0
  184.9140  178.8440  140.0020 C   0  0  0  0  0  2  0  0  0  0  0  0
  188.9210  177.8030  142.8170 C   0  0  0  0  0  0  0  0  0  0  0  0
  182.3820  178.8910  144.0140 Cl  0  0  0  0  0  0  0  0  0  0  0  0
  188.4960  177.9730  139.2040 C   0  0  0  0  0  3  0  0  0  0  0  0
  184.3080  177.4670  138.0390 C   0  0  0  0  0  3  0  0  0  0  0  0
  188.1970  177.9010  143.9580 N   0  0  0  0  0  0  0  0  0  0  0  0
  188.2960  177.9520  141.5700 C   0  0  0  0  0  0  0  0  0  0  0  0
  184.7860  178.5310  142.7730 C   0  0  0  0  0  3  0  0  0  0  0  0
  185.4220  177.9700  137.2150 C   0  0  0  0  0  3  0  0  0  0  0  0
  186.8640  178.1420  143.9480 C   0  0  0  0  0  0  0  0  0  0  0  0
  186.1810  178.2200  145.1650 C   0  0  0  0  0  3  0  0  0  0  0  0
  189.0380  177.8490  140.4370 N   0  0  0  0  0  0  0  0  0  0  0  0
  187.1370  178.2180  139.0480 C   0  0  0  0  0  0  0  0  0  0  0  0
  186.6420  178.3030  137.6560 C   0  0  0  0  0  3  0  0  0  0  0  0
  190.3870  177.5140  142.9170 C   0  0  0  0  0  2  0  0  0  0  0  0
  191.4640  175.3670  143.6340 C   0  0  0  0  0  1  0  0  0  0  0  0
  190.6790  176.5860  144.0890 C   0  0  1  0  0  3  0  0  0  0  0  0
  192.0220  178.3950  144.8740 O   0  0  0  0  0  0  0  0  0  0  0  0
  191.4280  177.3180  145.1590 C   0  0  0  0  0  0  0  0  0  0  0  0
  192.4610  176.1080  146.9050 O   0  0  0  0  0  0  0  0  0  0  0  0
  191.4560  176.7730  146.5380 C   0  0  0  0  0  0  0  0  0  0  0  0
  189.1320  176.8680  147.1960 C   0  0  0  0  0  3  0  0  0  0  0  0
  190.3910  176.9650  147.4820 N   0  0  0  0  0  0  0  0  0  0  0  0
  188.1010  177.0880  148.2480 C   0  0  0  0  0  2  0  0  0  0  0  0
  187.8400  178.5710  148.4260 C   0  0  0  0  0  1  0  0  0  0  0  0
  1  9  1  0  0  0  0
  1  6  1  0  0  0  0
  2 13  2  0  0  0  0
  2  5  1  0  0  0  0
  3  2  1  0  0  0  0
  4  7  1  0  0  0  0
  5 14  1  0  0  0  0
  5 16  2  0  0  0  0
  7  3  1  0  0  0  0
  8 21  1  0  0  0  0
  8 12  2  0  0  0  0
 10 18  2  0  0  0  0
 11  4  2  0  0  0  0
 13  8  1  0  0  0  0
 14  1  2  0  0  0  0
 15 20  2  0  0  0  0
 15 11  1  0  0  0  0
 16 12  1  0  0  0  0
 16 17  1  0  0  0  0
 17  6  2  0  0  0  0
 18 13  1  0  0  0  0
 19 10  1  0  0  0  0
 19  3  2  0  0  0  0
 20 19  1  0  0  0  0
 21 23  1  0  0  0  0
 23 22  1  6  0  0  0
 23 25  1  0  0  0  0
 24 25  2  0  0  0  0
 25 27  1  0  0  0  0
 27 26  2  0  0  0  0
 27 29  1  0  0  0  0
 28 29  2  0  0  0  0
 28 30  1  0  0  0  0
 30 31  1  0  0  0  0
M  END
>  <MODEL>
6

>  <REMARK>
 VINA RESULT:      -9.0      2.818      6.962
  Name = 
  6 active torsions:
  status: ('A' for Active; 'I' for Inactive)
    1  A    between atoms: C_1  and  C_11
    2  A    between atoms: C_9  and  C_22
    3  A    between atoms: C_9  and  C_23
    4  A    between atoms: C_15  and  C_23
    5  A    between atoms: C_19  and  C_22
    6  A    between atoms: C_19  and  N_24
                            x       y       z     vdW  Elec       q    Type
                         _______ _______ _______ _____ _____    ______ ____

>  <TORSDO>
F 6

$$$$
=
 OpenBabel10262419193D

 31 34  0  0  1  0  0  0  0  0999 V2000
  190.7370  176.7960  145.9060 C   0  0  0  0  0  0  0  0  0  0  0  0
  187.9990  177.7120  143.4860 C   0  0  0  0  0  0  0  0  0  0  0  0
  186.9280  178.2670  144.2550 C   0  0  0  0  0  0  0  0  0  0  0  0
  186.1340  177.7950  146.5510 C   0  0  0  0  0  3  0  0  0  0  0  0
  189.2350  177.2500  144.0330 C   0  0  0  0  0  0  0  0  0  0  0  0
  191.7020  176.3040  145.0300 C   0  0  0  0  0  3  0  0  0  0  0  0
  187.0790  178.5860  145.7130 C   0  0  0  0  0  2  0  0  0  0  0  0
  188.8410  177.1000  141.2690 C   0  0  0  0  0  0  0  0  0  0  0  0
  191.0500  176.8330  147.6270 Cl  0  0  0  0  0  0  0  0  0  0  0  0
  185.6330  178.5310  142.2300 C   0  0  0  0  0  3  0  0  0  0  0  0
  184.8150  177.9620  146.4910 C   0  0  0  0  0  3  0  0  0  0  0  0
  190.0040  176.6800  141.8240 N   0  0  0  0  0  0  0  0  0  0  0  0
  187.8190  177.6170  142.0790 C   0  0  0  0  0  0  0  0  0  0  0  0
  189.5170  177.2620  145.4100 C   0  0  0  0  0  3  0  0  0  0  0  0
  184.1310  178.8700  145.5520 C   0  0  0  0  0  3  0  0  0  0  0  0
  190.2270  176.7360  143.1580 C   0  0  0  0  0  0  0  0  0  0  0  0
  191.4470  176.2730  143.6600 C   0  0  0  0  0  3  0  0  0  0  0  0
  186.6600  178.0330  141.5060 N   0  0  0  0  0  0  0  0  0  0  0  0
  185.7270  178.6430  143.6120 C   0  0  0  0  0  0  0  0  0  0  0  0
  184.5340  179.1700  144.3100 C   0  0  0  0  0  3  0  0  0  0  0  0
  188.6670  176.9830  139.7870 C   0  0  0  0  0  2  0  0  0  0  0  0
  190.7360  177.3410  138.4170 C   0  0  0  0  0  1  0  0  0  0  0  0
  189.5280  178.0060  139.0560 C   0  0  1  0  0  3  0  0  0  0  0  0
  189.1310  179.8250  137.5640 O   0  0  0  0  0  0  0  0  0  0  0  0
  188.7190  178.7220  138.0200 C   0  0  0  0  0  0  0  0  0  0  0  0
  187.5010  177.2320  136.6500 O   0  0  0  0  0  0  0  0  0  0  0  0
  187.4500  178.1240  137.5370 C   0  0  0  0  0  0  0  0  0  0  0  0
  185.0850  177.7980  137.9170 C   0  0  0  0  0  3  0  0  0  0  0  0
  186.1590  178.5110  138.0330 N   0  0  0  0  0  0  0  0  0  0  0  0
  183.7900  178.2900  138.4650 C   0  0  0  0  0  2  0  0  0  0  0  0
  183.9850  179.6270  139.1520 C   0  0  0  0  0  1  0  0  0  0  0  0
  1  9  1  0  0  0  0
  2  5  1  0  0  0  0
  2  3  1  0  0  0  0
  3  7  1  0  0  0  0
  5 14  2  0  0  0  0
  6  1  2  0  0  0  0
  7  4  1  0  0  0  0
  8 12  2  0  0  0  0
  8 13  1  0  0  0  0
 10 19  1  0  0  0  0
 11  4  2  0  0  0  0
 12 16  1  0  0  0  0
 13  2  2  0  0  0  0
 14  1  1  0  0  0  0
 15 11  1  0  0  0  0
 16 17  2  0  0  0  0
 16  5  1  0  0  0  0
 17  6  1  0  0  0  0
 18 13  1  0  0  0  0
 18 10  2  0  0  0  0
 19  3  2  0  0  0  0
 19 20  1  0  0  0  0
 20 15  2  0  0  0  0
 21  8  1  0  0  0  0
 23 22  1  6  0  0  0
 23 21  1  0  0  0  0
 24 25  2  0  0  0  0
 25 23  1  0  0  0  0
 26 27  2  0  0  0  0
 27 25  1  0  0  0  0
 27 29  1  0  0  0  0
 28 29  2  0  0  0  0
 28 30  1  0  0  0  0
 30 31  1  0  0  0  0
M  END
>  <MODEL>
7

>  <REMARK>
 VINA RESULT:      -8.9      2.708      4.585
  Name = 
  6 active torsions:
  status: ('A' for Active; 'I' for Inactive)
    1  A    between atoms: C_1  and  C_11
    2  A    between atoms: C_9  and  C_22
    3  A    between atoms: C_9  and  C_23
    4  A    between atoms: C_15  and  C_23
    5  A    between atoms: C_19  and  C_22
    6  A    between atoms: C_19  and  N_24
                            x       y       z     vdW  Elec       q    Type
                         _______ _______ _______ _____ _____    ______ ____

>  <TORSDO>
F 6

$$$$
=
 OpenBabel10262419193D

 31 34  0  0  1  0  0  0  0  0999 V2000
  184.5390  178.8070  143.0080 C   0  0  0  0  0  0  0  0  0  0  0  0
  187.8560  177.5090  144.2310 C   0  0  0  0  0  0  0  0  0  0  0  0
  187.7900  177.4710  145.6600 C   0  0  0  0  0  0  0  0  0  0  0  0
  186.5990  178.8990  147.2910 C   0  0  0  0  0  3  0  0  0  0  0  0
  186.7890  177.9330  143.3820 C   0  0  0  0  0  0  0  0  0  0  0  0
  184.7370  178.7660  141.6300 C   0  0  0  0  0  3  0  0  0  0  0  0
  186.5090  177.7060  146.4030 C   0  0  0  0  0  2  0  0  0  0  0  0
  189.1880  177.0900  142.2190 C   0  0  0  0  0  0  0  0  0  0  0  0
  183.0160  179.3730  143.6600 Cl  0  0  0  0  0  0  0  0  0  0  0  0
  190.0740  176.6770  145.7270 C   0  0  0  0  0  3  0  0  0  0  0  0
  187.4020  178.9410  148.3510 C   0  0  0  0  0  3  0  0  0  0  0  0
  188.1500  177.4910  141.4460 N   0  0  0  0  0  0  0  0  0  0  0  0
  189.0690  177.0940  143.6170 C   0  0  0  0  0  0  0  0  0  0  0  0
  185.5560  178.3960  143.8720 C   0  0  0  0  0  3  0  0  0  0  0  0
  188.3460  177.8720  148.7250 C   0  0  0  0  0  3  0  0  0  0  0  0
  186.9750  177.9070  141.9750 C   0  0  0  0  0  0  0  0  0  0  0  0
  185.9520  178.3180  141.1150 C   0  0  0  0  0  3  0  0  0  0  0  0
  190.1190  176.6880  144.3760 N   0  0  0  0  0  0  0  0  0  0  0  0
  188.9290  177.0830  146.4020 C   0  0  0  0  0  0  0  0  0  0  0  0
  188.9970  177.0630  147.8790 C   0  0  0  0  0  3  0  0  0  0  0  0
  190.4590  176.6640  141.5530 C   0  0  0  0  0  2  0  0  0  0  0  0
  192.2670  177.6470  140.1210 C   0  0  0  0  0  1  0  0  0  0  0  0
  190.7680  177.5520  140.3550 C   0  0  1  0  0  3  0  0  0  0  0  0
  190.2950  175.8430  138.7580 O   0  0  0  0  0  0  0  0  0  0  0  0
  190.0830  177.0310  139.1300 C   0  0  0  0  0  0  0  0  0  0  0  0
  189.1550  179.1450  138.6320 O   0  0  0  0  0  0  0  0  0  0  0  0
  189.1600  177.9120  138.3750 C   0  0  0  0  0  0  0  0  0  0  0  0
  186.9740  177.4790  137.4380 C   0  0  0  0  0  3  0  0  0  0  0  0
  188.2650  177.4300  137.3600 N   0  0  0  0  0  0  0  0  0  0  0  0
  186.1310  176.9490  136.3290 C   0  0  0  0  0  2  0  0  0  0  0  0
  186.5860  177.5250  135.0030 C   0  0  0  0  0  1  0  0  0  0  0  0
  1  9  1  0  0  0  0
  1 14  1  0  0  0  0
  2  3  1  0  0  0  0
  3 19  2  0  0  0  0
  3  7  1  0  0  0  0
  4 11  2  0  0  0  0
  5 14  2  0  0  0  0
  5  2  1  0  0  0  0
  6  1  2  0  0  0  0
  7  4  1  0  0  0  0
  8 13  1  0  0  0  0
 10 19  1  0  0  0  0
 11 15  1  0  0  0  0
 12 16  1  0  0  0  0
 12  8  2  0  0  0  0
 13  2  2  0  0  0  0
 13 18  1  0  0  0  0
 16  5  1  0  0  0  0
 17  6  1  0  0  0  0
 17 16  2  0  0  0  0
 18 10  2  0  0  0  0
 19 20  1  0  0  0  0
 20 15  2  0  0  0  0
 21  8  1  0  0  0  0
 23 22  1  6  0  0  0
 23 21  1  0  0  0  0
 24 25  2  0  0  0  0
 25 23  1  0  0  0  0
 27 26  2  0  0  0  0
 27 25  1  0  0  0  0
 29 28  2  0  0  0  0
 29 27  1  0  0  0  0
 30 28  1  0  0  0  0
 31 30  1  0  0  0  0
M  END
>  <MODEL>
8

>  <REMARK>
 VINA RESULT:      -8.8      1.648      2.183
  Name = 
  6 active torsions:
  status: ('A' for Active; 'I' for Inactive)
    1  A    between atoms: C_1  and  C_11
    2  A    between atoms: C_9  and  C_22
    3  A    between atoms: C_9  and  C_23
    4  A    between atoms: C_15  and  C_23
    5  A    between atoms: C_19  and  C_22
    6  A    between atoms: C_19  and  N_24
                            x       y       z     vdW  Elec       q    Type
                         _______ _______ _______ _____ _____    ______ ____

>  <TORSDO>
F 6

$$$$
=
 OpenBabel10262419193D

 31 34  0  0  1  0  0  0  0  0999 V2000
  190.6320  177.3510  142.0030 C   0  0  0  0  0  0  0  0  0  0  0  0
  187.4710  178.0900  143.9130 C   0  0  0  0  0  0  0  0  0  0  0  0
  187.8110  178.0890  145.3030 C   0  0  0  0  0  0  0  0  0  0  0  0
  189.4910  176.8030  146.5850 C   0  0  0  0  0  3  0  0  0  0  0  0
  188.3990  177.8620  142.8510 C   0  0  0  0  0  0  0  0  0  0  0  0
  190.1630  177.4090  140.6920 C   0  0  0  0  0  3  0  0  0  0  0  0
  189.2340  178.0250  145.7720 C   0  0  0  0  0  2  0  0  0  0  0  0
  185.7240  178.3720  142.2200 C   0  0  0  0  0  0  0  0  0  0  0  0
  192.3180  177.0010  142.3160 Cl  0  0  0  0  0  0  0  0  0  0  0  0
  185.4970  178.5250  145.8510 C   0  0  0  0  0  3  0  0  0  0  0  0
  188.9260  176.6040  147.7730 C   0  0  0  0  0  3  0  0  0  0  0  0
  186.6350  178.1580  141.2400 N   0  0  0  0  0  0  0  0  0  0  0  0
  186.1150  178.3380  143.5670 C   0  0  0  0  0  0  0  0  0  0  0  0
  189.7580  177.5740  143.0680 C   0  0  0  0  0  3  0  0  0  0  0  0
  187.9340  177.5050  148.3860 C   0  0  0  0  0  3  0  0  0  0  0  0
  187.9380  177.9070  141.5100 C   0  0  0  0  0  0  0  0  0  0  0  0
  188.8180  177.6860  140.4470 C   0  0  0  0  0  3  0  0  0  0  0  0
  185.1880  178.5540  144.5360 N   0  0  0  0  0  0  0  0  0  0  0  0
  186.7980  178.2750  146.2700 C   0  0  0  0  0  0  0  0  0  0  0  0
  187.0210  178.2340  147.7320 C   0  0  0  0  0  3  0  0  0  0  0  0
  184.2980  178.6220  141.8360 C   0  0  0  0  0  2  0  0  0  0  0  0
  182.4990  177.7060  140.3490 C   0  0  0  0  0  1  0  0  0  0  0  0
  183.9840  178.0020  140.4800 C   0  0  1  0  0  3  0  0  0  0  0  0
  184.2060  180.1470  139.4600 O   0  0  0  0  0  0  0  0  0  0  0  0
  184.4330  178.9090  139.3770 C   0  0  0  0  0  0  0  0  0  0  0  0
  184.5610  177.4720  137.5060 O   0  0  0  0  0  0  0  0  0  0  0  0
  185.1450  178.3410  138.2050 C   0  0  0  0  0  0  0  0  0  0  0  0
  187.2940  177.9900  137.1560 C   0  0  0  0  0  3  0  0  0  0  0  0
  186.4730  178.7340  137.8260 N   0  0  0  0  0  0  0  0  0  0  0  0
  188.6550  178.4890  136.8110 C   0  0  0  0  0  2  0  0  0  0  0  0
  189.6370  177.3360  136.7560 C   0  0  0  0  0  1  0  0  0  0  0  0
  1  9  1  0  0  0  0
  1 14  1  0  0  0  0
  2  3  1  0  0  0  0
  3  7  1  0  0  0  0
  3 19  2  0  0  0  0
  4 11  2  0  0  0  0
  5 14  2  0  0  0  0
  5  2  1  0  0  0  0
  6  1  2  0  0  0  0
  7  4  1  0  0  0  0
  8 13  1  0  0  0  0
 10 19  1  0  0  0  0
 11 15  1  0  0  0  0
 12 16  1  0  0  0  0
 12  8  2  0  0  0  0
 13  2  2  0  0  0  0
 13 18  1  0  0  0  0
 16  5  1  0  0  0  0
 17  6  1  0  0  0  0
 17 16  2  0  0  0  0
 18 10  2  0  0  0  0
 19 20  1  0  0  0  0
 20 15  2  0  0  0  0
 21  8  1  0  0  0  0
 23 22  1  1  0  0  0
 23 21  1  0  0  0  0
 25 24  2  0  0  0  0
 25 23  1  0  0  0  0
 26 27  2  0  0  0  0
 27 25  1  0  0  0  0
 28 29  2  0  0  0  0
 29 27  1  0  0  0  0
 30 28  1  0  0  0  0
 31 30  1  0  0  0  0
M  END
>  <MODEL>
9

>  <REMARK>
 VINA RESULT:      -8.8      3.067      4.802
  Name = 
  6 active torsions:
  status: ('A' for Active; 'I' for Inactive)
    1  A    between atoms: C_1  and  C_11
    2  A    between atoms: C_9  and  C_22
    3  A    between atoms: C_9  and  C_23
    4  A    between atoms: C_15  and  C_23
    5  A    between atoms: C_19  and  C_22
    6  A    between atoms: C_19  and  N_24
                            x       y       z     vdW  Elec       q    Type
                         _______ _______ _______ _____ _____    ______ ____

>  <TORSDO>
F 6

$$$$
