=
 OpenBabel10262421023D

 32 35  0  0  1  0  0  0  0  0999 V2000
  189.0950  176.5800  142.6030 C   0  0  1  0  0  3  0  0  0  0  0  0
  187.2920  177.6740  144.0670 C   0  0  0  0  0  0  0  0  0  0  0  0
  190.3160  175.6610  142.7730 C   0  0  0  0  0  2  0  0  0  0  0  0
  188.7740  177.4180  143.8640 C   0  0  1  0  0  3  0  0  0  0  0  0
  186.8280  178.0370  145.3480 C   0  0  0  0  0  0  0  0  0  0  0  0
  185.0510  178.0020  143.1720 C   0  0  0  0  0  0  0  0  0  0  0  0
  184.5780  178.3430  144.4580 C   0  0  0  0  0  0  0  0  0  0  0  0
  189.3830  176.7850  145.1290 C   0  0  2  0  0  3  0  0  0  0  0  0
  185.4790  178.3670  145.5280 C   0  0  0  0  0  3  0  0  0  0  0  0
  188.9900  177.5280  146.3720 C   0  0  0  0  0  3  0  0  0  0  0  0
  190.9060  176.6620  145.0310 C   0  0  0  0  0  2  0  0  0  0  0  0
  186.3980  177.6790  142.9900 C   0  0  0  0  0  3  0  0  0  0  0  0
  187.7760  178.0740  146.4910 C   0  0  0  0  0  0  0  0  0  0  0  0
  191.3990  176.3330  143.6150 C   0  0  0  0  0  2  0  0  0  0  0  0
  184.2150  178.0010  142.0620 O   0  0  0  0  0  1  0  0  0  0  0  0
  188.2690  178.1970  148.9080 C   0  0  0  0  0  1  0  0  0  0  0  0
  187.4080  178.7330  147.7800 C   0  0  0  0  0  2  0  0  0  0  0  0
  189.7730  178.5790  141.5290 O   0  0  0  0  0  0  0  0  0  0  0  0
  189.2740  177.4690  141.4070 C   0  0  0  0  0  0  0  0  0  0  0  0
  188.6560  178.8160  137.3030 S   0  0  0  0  0  0  0  0  0  0  0  0
  190.0920  178.4010  138.3690 C   0  0  0  0  0  2  0  0  0  0  0  0
  187.3990  177.7490  138.1120 C   0  0  1  0  0  3  0  0  0  0  0  0
  188.8340  176.9790  140.0540 C   0  0  1  0  0  3  0  0  0  0  0  0
  187.5720  177.7370  139.6250 C   0  0  0  0  0  2  0  0  0  0  0  0
  189.9490  177.0180  138.9880 C   0  0  2  0  0  3  0  0  0  0  0  0
  191.2870  176.5050  139.4950 C   0  0  0  0  0  1  0  0  0  0  0  0
  185.3460  179.0740  138.5910 O   0  0  0  0  0  1  0  0  0  0  0  0
  185.4760  177.8070  136.6870 O   0  0  0  0  0  0  0  0  0  0  0  0
  186.0250  178.2030  137.7490 C   0  0  0  0  0  0  0  0  0  0  0  0
  183.2430  178.6770  144.7320 O   0  0  0  0  0  0  0  0  0  0  0  0
  182.3540  179.2970  143.8100 C   0  0  0  0  0  2  0  0  0  0  0  0
  180.9690  178.6910  143.9350 C   0  0  0  0  0  1  0  0  0  0  0  0
  1 19  1  6  0  0  0
  1  3  1  0  0  0  0
  1  4  1  0  0  0  0
  2  5  1  0  0  0  0
  3 14  1  0  0  0  0
  4  2  1  1  0  0  0
  4  8  1  0  0  0  0
  5  9  2  0  0  0  0
  5 13  1  0  0  0  0
  6  7  2  0  0  0  0
  7 30  1  0  0  0  0
  7  9  1  0  0  0  0
  8 11  1  6  0  0  0
  8 10  1  0  0  0  0
 10 13  2  0  0  0  0
 12  6  1  0  0  0  0
 12  2  2  0  0  0  0
 13 17  1  0  0  0  0
 14 11  1  0  0  0  0
 15  6  1  0  0  0  0
 17 16  1  0  0  0  0
 19 18  2  0  0  0  0
 20 22  1  0  0  0  0
 20 21  1  0  0  0  0
 21 25  1  0  0  0  0
 22 29  1  1  0  0  0
 22 24  1  0  0  0  0
 23 19  1  1  0  0  0
 24 23  1  0  0  0  0
 25 26  1  1  0  0  0
 25 23  1  0  0  0  0
 28 29  2  0  0  0  0
 29 27  1  0  0  0  0
 31 32  1  0  0  0  0
 31 30  1  0  0  0  0
M  END
>  <MODEL>
1

>  <REMARK>
 VINA RESULT:      -9.0      0.000      0.000
  Name = 
  6 active torsions:
  status: ('A' for Active; 'I' for Inactive)
    1  A    between atoms: C_1  and  C_27
    2  A    between atoms: C_9  and  O_11
    3  A    between atoms: O_11  and  C_12
    4  A    between atoms: C_15  and  C_26
    5  A    between atoms: C_16  and  C_27
    6  A    between atoms: C_25  and  C_29
                            x       y       z     vdW  Elec       q    Type
                         _______ _______ _______ _____ _____    ______ ____

>  <TORSDO>
F 6

$$$$
=
 OpenBabel10262421023D

 32 35  0  0  1  0  0  0  0  0999 V2000
  184.9700  179.1830  142.9530 C   0  0  1  0  0  3  0  0  0  0  0  0
  187.0850  178.0520  143.8680 C   0  0  0  0  0  0  0  0  0  0  0  0
  183.8220  180.0670  143.4680 C   0  0  0  0  0  2  0  0  0  0  0  0
  185.5970  178.2870  144.0480 C   0  0  1  0  0  3  0  0  0  0  0  0
  187.8510  177.6310  144.9740 C   0  0  0  0  0  0  0  0  0  0  0  0
  189.0390  177.8170  142.4340 C   0  0  0  0  0  0  0  0  0  0  0  0
  189.8160  177.4190  143.5450 C   0  0  0  0  0  0  0  0  0  0  0  0
  185.3120  178.8410  145.4570 C   0  0  2  0  0  3  0  0  0  0  0  0
  189.2060  177.3200  144.7990 C   0  0  0  0  0  3  0  0  0  0  0  0
  186.0040  178.0410  146.5220 C   0  0  0  0  0  3  0  0  0  0  0  0
  183.8110  178.9370  145.7420 C   0  0  0  0  0  2  0  0  0  0  0  0
  187.6870  178.1210  142.6060 C   0  0  0  0  0  3  0  0  0  0  0  0
  187.2140  177.5140  146.3100 C   0  0  0  0  0  0  0  0  0  0  0  0
  182.9830  179.3300  144.5110 C   0  0  0  0  0  2  0  0  0  0  0  0
  189.5770  177.8930  141.1560 O   0  0  0  0  0  1  0  0  0  0  0  0
  188.3990  177.7890  148.4590 C   0  0  0  0  0  1  0  0  0  0  0  0
  187.8910  176.7960  147.4310 C   0  0  0  0  0  2  0  0  0  0  0  0
  184.0990  177.2170  141.9640 O   0  0  0  0  0  0  0  0  0  0  0  0
  184.5090  178.3550  141.7890 C   0  0  0  0  0  0  0  0  0  0  0  0
  184.3230  177.2320  137.5770 S   0  0  0  0  0  0  0  0  0  0  0  0
  183.1330  177.4110  138.9650 C   0  0  0  0  0  2  0  0  0  0  0  0
  185.5850  178.4390  138.1440 C   0  0  1  0  0  3  0  0  0  0  0  0
  184.5550  178.9420  140.4050 C   0  0  1  0  0  3  0  0  0  0  0  0
  185.7690  178.3810  139.6550 C   0  0  0  0  0  2  0  0  0  0  0  0
  183.2360  178.7810  139.6190 C   0  0  2  0  0  3  0  0  0  0  0  0
  181.9990  179.0870  140.4460 C   0  0  0  0  0  1  0  0  0  0  0  0
  187.5570  179.2510  136.8590 O   0  0  0  0  0  0  0  0  0  0  0  0
  187.3760  177.0340  137.4050 O   0  0  0  0  0  1  0  0  0  0  0  0
  186.8840  178.1920  137.4530 C   0  0  0  0  0  0  0  0  0  0  0  0
  191.1800  177.0980  143.4640 O   0  0  0  0  0  0  0  0  0  0  0  0
  191.7640  175.8980  143.9550 C   0  0  0  0  0  2  0  0  0  0  0  0
  191.9490  175.9860  145.4580 C   0  0  0  0  0  1  0  0  0  0  0  0
  1 19  1  6  0  0  0
  1  3  1  0  0  0  0
  1  4  1  0  0  0  0
  2  5  1  0  0  0  0
  3 14  1  0  0  0  0
  4  2  1  6  0  0  0
  4  8  1  0  0  0  0
  5 13  1  0  0  0  0
  6 12  1  0  0  0  0
  6  7  2  0  0  0  0
  7  9  1  0  0  0  0
  8 11  1  1  0  0  0
  8 10  1  0  0  0  0
  9  5  2  0  0  0  0
 12  2  2  0  0  0  0
 13 10  2  0  0  0  0
 13 17  1  0  0  0  0
 14 11  1  0  0  0  0
 15  6  1  0  0  0  0
 17 16  1  0  0  0  0
 19 18  2  0  0  0  0
 20 22  1  0  0  0  0
 20 21  1  0  0  0  0
 21 25  1  0  0  0  0
 22 29  1  6  0  0  0
 22 24  1  0  0  0  0
 23 19  1  1  0  0  0
 24 23  1  0  0  0  0
 25 23  1  0  0  0  0
 25 26  1  1  0  0  0
 27 29  2  0  0  0  0
 28 29  1  0  0  0  0
 30  7  1  0  0  0  0
 30 31  1  0  0  0  0
 31 32  1  0  0  0  0
M  END
>  <MODEL>
2

>  <REMARK>
 VINA RESULT:      -8.4      1.969      5.520
  Name = 
  6 active torsions:
  status: ('A' for Active; 'I' for Inactive)
    1  A    between atoms: C_1  and  C_27
    2  A    between atoms: C_9  and  O_11
    3  A    between atoms: O_11  and  C_12
    4  A    between atoms: C_15  and  C_26
    5  A    between atoms: C_16  and  C_27
    6  A    between atoms: C_25  and  C_29
                            x       y       z     vdW  Elec       q    Type
                         _______ _______ _______ _____ _____    ______ ____

>  <TORSDO>
F 6

$$$$
=
 OpenBabel10262421023D

 32 35  0  0  1  0  0  0  0  0999 V2000
  184.3490  179.2040  142.7050 C   0  0  1  0  0  3  0  0  0  0  0  0
  186.6850  178.2300  142.2790 C   0  0  0  0  0  0  0  0  0  0  0  0
  183.5770  179.8890  143.8450 C   0  0  0  0  0  2  0  0  0  0  0  0
  185.4810  178.2720  143.2010 C   0  0  1  0  0  3  0  0  0  0  0  0
  187.9220  177.7820  142.7870 C   0  0  0  0  0  0  0  0  0  0  0  0
  187.6630  178.3780  140.0540 C   0  0  0  0  0  0  0  0  0  0  0  0
  188.9100  177.9530  140.5640 C   0  0  0  0  0  0  0  0  0  0  0  0
  185.9180  178.6330  144.6330 C   0  0  2  0  0  3  0  0  0  0  0  0
  189.0170  177.6500  141.9250 C   0  0  0  0  0  3  0  0  0  0  0  0
  187.0870  177.8070  145.0850 C   0  0  0  0  0  3  0  0  0  0  0  0
  184.7610  178.5250  145.6300 C   0  0  0  0  0  2  0  0  0  0  0  0
  186.5680  178.5050  140.9120 C   0  0  0  0  0  3  0  0  0  0  0  0
  188.0490  177.4480  144.2290 C   0  0  0  0  0  0  0  0  0  0  0  0
  183.4100  178.9520  145.0400 C   0  0  0  0  0  2  0  0  0  0  0  0
  187.4810  178.6550  138.7040 O   0  0  0  0  0  1  0  0  0  0  0  0
  189.5700  177.1580  146.1520 C   0  0  0  0  0  1  0  0  0  0  0  0
  189.2290  176.6950  144.7480 C   0  0  0  0  0  2  0  0  0  0  0  0
  183.5560  177.2650  141.6030 O   0  0  0  0  0  0  0  0  0  0  0  0
  183.4030  178.4610  141.8080 C   0  0  0  0  0  0  0  0  0  0  0  0
  180.0800  177.9080  139.0350 S   0  0  0  0  0  0  0  0  0  0  0  0
  180.4500  177.4680  140.7790 C   0  0  0  0  0  2  0  0  0  0  0  0
  181.1430  179.3990  138.8990 C   0  0  1  0  0  3  0  0  0  0  0  0
  182.2630  179.2020  141.1640 C   0  0  1  0  0  3  0  0  0  0  0  0
  182.4590  179.2130  139.6430 C   0  0  0  0  0  2  0  0  0  0  0  0
  180.8710  178.6870  141.5870 C   0  0  2  0  0  3  0  0  0  0  0  0
  180.7530  178.4210  143.0790 C   0  0  0  0  0  1  0  0  0  0  0  0
  181.1500  181.0070  136.9980 O   0  0  0  0  0  1  0  0  0  0  0  0
  181.8390  178.8460  136.6770 O   0  0  0  0  0  0  0  0  0  0  0  0
  181.3980  179.7230  137.4660 C   0  0  0  0  0  0  0  0  0  0  0  0
  190.0610  177.8020  139.7750 O   0  0  0  0  0  0  0  0  0  0  0  0
  190.6190  176.5540  139.3830 C   0  0  0  0  0  2  0  0  0  0  0  0
  189.9900  176.0880  138.0840 C   0  0  0  0  0  1  0  0  0  0  0  0
  1 19  1  1  0  0  0
  1  4  1  0  0  0  0
  1  3  1  0  0  0  0
  2  5  1  0  0  0  0
  3 14  1  0  0  0  0
  4  2  1  6  0  0  0
  4  8  1  0  0  0  0
  5 13  1  0  0  0  0
  6  7  2  0  0  0  0
  6 12  1  0  0  0  0
  7  9  1  0  0  0  0
  8 10  1  1  0  0  0
  8 11  1  0  0  0  0
  9  5  2  0  0  0  0
 12  2  2  0  0  0  0
 13 17  1  0  0  0  0
 13 10  2  0  0  0  0
 14 11  1  0  0  0  0
 15  6  1  0  0  0  0
 17 16  1  0  0  0  0
 18 19  2  0  0  0  0
 20 21  1  0  0  0  0
 21 25  1  0  0  0  0
 22 29  1  6  0  0  0
 22 20  1  0  0  0  0
 22 24  1  0  0  0  0
 23 25  1  0  0  0  0
 23 19  1  1  0  0  0
 24 23  1  0  0  0  0
 25 26  1  1  0  0  0
 27 29  1  0  0  0  0
 28 29  2  0  0  0  0
 30  7  1  0  0  0  0
 31 30  1  0  0  0  0
 32 31  1  0  0  0  0
M  END
>  <MODEL>
3

>  <REMARK>
 VINA RESULT:      -8.2      2.748      6.456
  Name = 
  6 active torsions:
  status: ('A' for Active; 'I' for Inactive)
    1  A    between atoms: C_1  and  C_27
    2  A    between atoms: C_9  and  O_11
    3  A    between atoms: O_11  and  C_12
    4  A    between atoms: C_15  and  C_26
    5  A    between atoms: C_16  and  C_27
    6  A    between atoms: C_25  and  C_29
                            x       y       z     vdW  Elec       q    Type
                         _______ _______ _______ _____ _____    ______ ____

>  <TORSDO>
F 6

$$$$
=
 OpenBabel10262421023D

 32 35  0  0  1  0  0  0  0  0999 V2000
  187.7550  178.6670  142.0120 C   0  0  1  0  0  3  0  0  0  0  0  0
  185.2090  178.4000  142.2010 C   0  0  0  0  0  0  0  0  0  0  0  0
  188.7930  179.0960  140.9620 C   0  0  0  0  0  2  0  0  0  0  0  0
  186.4580  178.0910  141.3960 C   0  0  1  0  0  3  0  0  0  0  0  0
  183.9500  178.3170  141.5720 C   0  0  0  0  0  0  0  0  0  0  0  0
  184.1080  178.8380  144.3290 C   0  0  0  0  0  0  0  0  0  0  0  0
  182.8460  178.7800  143.6970 C   0  0  0  0  0  0  0  0  0  0  0  0
  186.2780  178.5490  139.9370 C   0  0  2  0  0  3  0  0  0  0  0  0
  182.7860  178.5080  142.3260 C   0  0  0  0  0  3  0  0  0  0  0  0
  184.9710  178.0850  139.3620 C   0  0  0  0  0  3  0  0  0  0  0  0
  187.4460  178.1090  139.0500 C   0  0  0  0  0  2  0  0  0  0  0  0
  185.2700  178.6420  143.5790 C   0  0  0  0  0  3  0  0  0  0  0  0
  183.8710  178.0210  140.1190 C   0  0  0  0  0  0  0  0  0  0  0  0
  188.8010  178.1400  139.7710 C   0  0  0  0  0  2  0  0  0  0  0  0
  184.2330  179.0620  145.6940 O   0  0  0  0  0  1  0  0  0  0  0  0
  182.4580  176.1190  139.4240 C   0  0  0  0  0  1  0  0  0  0  0  0
  182.5800  177.6300  139.4780 C   0  0  0  0  0  2  0  0  0  0  0  0
  188.1660  176.4930  142.8540 O   0  0  0  0  0  0  0  0  0  0  0  0
  188.3630  177.6930  142.9800 C   0  0  0  0  0  0  0  0  0  0  0  0
  190.7410  176.3450  146.3800 S   0  0  0  0  0  0  0  0  0  0  0  0
  190.9280  176.3890  144.5540 C   0  0  0  0  0  2  0  0  0  0  0  0
  189.6050  177.7750  146.5710 C   0  0  1  0  0  3  0  0  0  0  0  0
  189.2180  178.2100  144.1040 C   0  0  1  0  0  3  0  0  0  0  0  0
  188.5810  177.8250  145.4450 C   0  0  0  0  0  2  0  0  0  0  0  0
  190.6990  177.7880  144.0000 C   0  0  2  0  0  3  0  0  0  0  0  0
  191.2680  177.9210  142.5980 C   0  0  0  0  0  1  0  0  0  0  0  0
  187.9970  176.7100  148.1460 O   0  0  0  0  0  0  0  0  0  0  0  0
  189.1700  178.5700  148.7870 O   0  0  0  0  0  1  0  0  0  0  0  0
  188.9190  177.7170  147.8950 C   0  0  0  0  0  0  0  0  0  0  0  0
  181.6300  178.9680  144.3720 O   0  0  0  0  0  0  0  0  0  0  0  0
  180.3890  178.3900  143.9880 C   0  0  0  0  0  2  0  0  0  0  0  0
  179.2460  179.3140  144.3650 C   0  0  0  0  0  1  0  0  0  0  0  0
  1 19  1  1  0  0  0
  2 12  1  0  0  0  0
  3  1  1  0  0  0  0
  4  1  1  0  0  0  0
  4  2  1  1  0  0  0
  5  2  2  0  0  0  0
  5  9  1  0  0  0  0
  6 15  1  0  0  0  0
  7  6  1  0  0  0  0
  7 30  1  0  0  0  0
  8 11  1  6  0  0  0
  8  4  1  0  0  0  0
  9  7  2  0  0  0  0
 10  8  1  0  0  0  0
 10 13  2  0  0  0  0
 11 14  1  0  0  0  0
 12  6  2  0  0  0  0
 13  5  1  0  0  0  0
 14  3  1  0  0  0  0
 16 17  1  0  0  0  0
 17 13  1  0  0  0  0
 18 19  2  0  0  0  0
 20 22  1  0  0  0  0
 21 20  1  0  0  0  0
 22 29  1  1  0  0  0
 23 19  1  6  0  0  0
 23 24  1  0  0  0  0
 24 22  1  0  0  0  0
 25 26  1  6  0  0  0
 25 23  1  0  0  0  0
 25 21  1  0  0  0  0
 29 27  2  0  0  0  0
 29 28  1  0  0  0  0
 31 32  1  0  0  0  0
 31 30  1  0  0  0  0
M  END
>  <MODEL>
4

>  <REMARK>
 VINA RESULT:      -7.9      2.980      6.294
  Name = 
  6 active torsions:
  status: ('A' for Active; 'I' for Inactive)
    1  A    between atoms: C_1  and  C_27
    2  A    between atoms: C_9  and  O_11
    3  A    between atoms: O_11  and  C_12
    4  A    between atoms: C_15  and  C_26
    5  A    between atoms: C_16  and  C_27
    6  A    between atoms: C_25  and  C_29
                            x       y       z     vdW  Elec       q    Type
                         _______ _______ _______ _____ _____    ______ ____

>  <TORSDO>
F 6

$$$$
=
 OpenBabel10262421023D

 32 35  0  0  1  0  0  0  0  0999 V2000
  183.5840  178.8820  140.7780 C   0  0  1  0  0  3  0  0  0  0  0  0
  185.7030  178.3370  142.1210 C   0  0  0  0  0  0  0  0  0  0  0  0
  182.2420  179.6010  140.9870 C   0  0  0  0  0  2  0  0  0  0  0  0
  184.1860  178.3090  142.0840 C   0  0  1  0  0  3  0  0  0  0  0  0
  186.3600  178.2530  143.3660 C   0  0  0  0  0  0  0  0  0  0  0  0
  187.8570  178.2530  140.9880 C   0  0  0  0  0  0  0  0  0  0  0  0
  188.5200  178.1930  142.2350 C   0  0  0  0  0  0  0  0  0  0  0  0
  183.6110  179.0170  143.3250 C   0  0  2  0  0  3  0  0  0  0  0  0
  187.7580  178.1820  143.4080 C   0  0  0  0  0  3  0  0  0  0  0  0
  184.2640  178.5450  144.5910 C   0  0  0  0  0  3  0  0  0  0  0  0
  182.0890  178.8690  143.4140 C   0  0  0  0  0  2  0  0  0  0  0  0
  186.4620  178.3170  140.9450 C   0  0  0  0  0  3  0  0  0  0  0  0
  185.5630  178.2320  144.6200 C   0  0  0  0  0  0  0  0  0  0  0  0
  181.3960  178.8940  142.0450 C   0  0  0  0  0  2  0  0  0  0  0  0
  188.5550  178.2250  139.7880 O   0  0  0  0  0  1  0  0  0  0  0  0
  185.6810  178.7550  147.0300 C   0  0  0  0  0  1  0  0  0  0  0  0
  186.1810  177.8460  145.9230 C   0  0  0  0  0  2  0  0  0  0  0  0
  183.0550  176.6900  140.0570 O   0  0  0  0  0  0  0  0  0  0  0  0
  183.4440  177.8060  139.7410 C   0  0  0  0  0  0  0  0  0  0  0  0
  183.9090  175.9110  135.8390 S   0  0  0  0  0  0  0  0  0  0  0  0
  182.5130  176.4140  136.9210 C   0  0  0  0  0  2  0  0  0  0  0  0
  185.1520  177.1360  136.4120 C   0  0  1  0  0  3  0  0  0  0  0  0
  183.7860  178.1150  138.3090 C   0  0  1  0  0  3  0  0  0  0  0  0
  185.0600  177.3580  137.9160 C   0  0  0  0  0  2  0  0  0  0  0  0
  182.6180  177.8760  137.3280 C   0  0  2  0  0  3  0  0  0  0  0  0
  181.2850  178.3990  137.8370 C   0  0  0  0  0  1  0  0  0  0  0  0
  187.5040  176.5820  137.0150 O   0  0  0  0  0  1  0  0  0  0  0  0
  186.8070  176.4170  134.8390 O   0  0  0  0  0  0  0  0  0  0  0  0
  186.5260  176.6930  136.0350 C   0  0  0  0  0  0  0  0  0  0  0  0
  189.9150  178.1300  142.3700 O   0  0  0  0  0  0  0  0  0  0  0  0
  190.6080  178.0170  143.6070 C   0  0  0  0  0  2  0  0  0  0  0  0
  191.2480  179.3440  143.9690 C   0  0  0  0  0  1  0  0  0  0  0  0
  1 19  1  6  0  0  0
  1  3  1  0  0  0  0
  1  4  1  0  0  0  0
  2  5  1  0  0  0  0
  3 14  1  0  0  0  0
  4  2  1  6  0  0  0
  4  8  1  0  0  0  0
  5  9  2  0  0  0  0
  5 13  1  0  0  0  0
  6  7  2  0  0  0  0
  7 30  1  0  0  0  0
  7  9  1  0  0  0  0
  8 11  1  1  0  0  0
  8 10  1  0  0  0  0
 10 13  2  0  0  0  0
 12  6  1  0  0  0  0
 12  2  2  0  0  0  0
 13 17  1  0  0  0  0
 14 11  1  0  0  0  0
 15  6  1  0  0  0  0
 17 16  1  0  0  0  0
 19 18  2  0  0  0  0
 20 22  1  0  0  0  0
 20 21  1  0  0  0  0
 21 25  1  0  0  0  0
 22 29  1  1  0  0  0
 22 24  1  0  0  0  0
 23 19  1  1  0  0  0
 24 23  1  0  0  0  0
 25 26  1  1  0  0  0
 25 23  1  0  0  0  0
 28 29  2  0  0  0  0
 29 27  1  0  0  0  0
 30 31  1  0  0  0  0
 31 32  1  0  0  0  0
M  END
>  <MODEL>
5

>  <REMARK>
 VINA RESULT:      -7.9      2.467      6.034
  Name = 
  6 active torsions:
  status: ('A' for Active; 'I' for Inactive)
    1  A    between atoms: C_1  and  C_27
    2  A    between atoms: C_9  and  O_11
    3  A    between atoms: O_11  and  C_12
    4  A    between atoms: C_15  and  C_26
    5  A    between atoms: C_16  and  C_27
    6  A    between atoms: C_25  and  C_29
                            x       y       z     vdW  Elec       q    Type
                         _______ _______ _______ _____ _____    ______ ____

>  <TORSDO>
F 6

$$$$
=
 OpenBabel10262421023D

 32 35  0  0  1  0  0  0  0  0999 V2000
  181.8350  178.8800  141.3510 C   0  0  1  0  0  3  0  0  0  0  0  0
  184.3100  178.5300  141.9330 C   0  0  0  0  0  0  0  0  0  0  0  0
  180.5750  179.4840  141.9940 C   0  0  0  0  0  2  0  0  0  0  0  0
  182.8700  178.3730  142.3840 C   0  0  1  0  0  3  0  0  0  0  0  0
  185.3370  178.5140  142.8990 C   0  0  0  0  0  0  0  0  0  0  0  0
  185.9850  178.6210  140.1670 C   0  0  0  0  0  0  0  0  0  0  0  0
  187.0160  178.6300  141.1330 C   0  0  0  0  0  0  0  0  0  0  0  0
  182.6660  179.0400  143.7570 C   0  0  2  0  0  3  0  0  0  0  0  0
  186.6750  178.5640  142.4880 C   0  0  0  0  0  3  0  0  0  0  0  0
  183.7290  178.6370  144.7370 C   0  0  0  0  0  3  0  0  0  0  0  0
  181.2720  178.7630  144.3270 C   0  0  0  0  0  2  0  0  0  0  0  0
  184.6500  178.5650  140.5750 C   0  0  0  0  0  3  0  0  0  0  0  0
  184.9900  178.4360  144.3410 C   0  0  0  0  0  0  0  0  0  0  0  0
  180.1760  178.7160  143.2530 C   0  0  0  0  0  2  0  0  0  0  0  0
  186.2600  178.6420  138.8050 O   0  0  0  0  0  1  0  0  0  0  0  0
  185.6450  178.7310  146.7040 C   0  0  0  0  0  1  0  0  0  0  0  0
  186.0240  178.1160  145.3700 C   0  0  0  0  0  2  0  0  0  0  0  0
  180.4610  177.1080  140.5910 O   0  0  0  0  0  0  0  0  0  0  0  0
  181.4590  177.7870  140.3940 C   0  0  0  0  0  0  0  0  0  0  0  0
  181.3770  175.9620  136.4320 S   0  0  0  0  0  0  0  0  0  0  0  0
  180.7390  177.5000  137.2060 C   0  0  0  0  0  2  0  0  0  0  0  0
  182.8150  175.6770  137.5370 C   0  0  1  0  0  3  0  0  0  0  0  0
  182.3240  177.5360  139.1890 C   0  0  1  0  0  3  0  0  0  0  0  0
  182.4820  176.0250  138.9820 C   0  0  0  0  0  2  0  0  0  0  0  0
  181.8430  178.2690  137.9180 C   0  0  2  0  0  3  0  0  0  0  0  0
  181.4310  179.7090  138.1710 C   0  0  0  0  0  1  0  0  0  0  0  0
  184.5660  173.9280  137.8130 O   0  0  0  0  0  1  0  0  0  0  0  0
  182.4940  173.3620  137.0160 O   0  0  0  0  0  0  0  0  0  0  0  0
  183.2710  174.2600  137.4360 C   0  0  0  0  0  0  0  0  0  0  0  0
  188.3810  178.6870  140.8130 O   0  0  0  0  0  0  0  0  0  0  0  0
  189.1850  177.5650  140.4750 C   0  0  0  0  0  2  0  0  0  0  0  0
  189.7450  177.7270  139.0740 C   0  0  0  0  0  1  0  0  0  0  0  0
  1 19  1  6  0  0  0
  1  3  1  0  0  0  0
  1  4  1  0  0  0  0
  2  5  1  0  0  0  0
  3 14  1  0  0  0  0
  4  2  1  6  0  0  0
  4  8  1  0  0  0  0
  5 13  1  0  0  0  0
  6 12  1  0  0  0  0
  6  7  2  0  0  0  0
  7  9  1  0  0  0  0
  8 11  1  1  0  0  0
  8 10  1  0  0  0  0
  9  5  2  0  0  0  0
 12  2  2  0  0  0  0
 13 10  2  0  0  0  0
 13 17  1  0  0  0  0
 14 11  1  0  0  0  0
 15  6  1  0  0  0  0
 17 16  1  0  0  0  0
 19 18  2  0  0  0  0
 20 21  1  0  0  0  0
 20 22  1  0  0  0  0
 21 25  1  0  0  0  0
 22 29  1  1  0  0  0
 22 24  1  0  0  0  0
 23 19  1  1  0  0  0
 24 23  1  0  0  0  0
 25 26  1  1  0  0  0
 25 23  1  0  0  0  0
 28 29  2  0  0  0  0
 29 27  1  0  0  0  0
 30  7  1  0  0  0  0
 31 30  1  0  0  0  0
 32 31  1  0  0  0  0
M  END
>  <MODEL>
6

>  <REMARK>
 VINA RESULT:      -7.8      3.186      6.851
  Name = 
  6 active torsions:
  status: ('A' for Active; 'I' for Inactive)
    1  A    between atoms: C_1  and  C_27
    2  A    between atoms: C_9  and  O_11
    3  A    between atoms: O_11  and  C_12
    4  A    between atoms: C_15  and  C_26
    5  A    between atoms: C_16  and  C_27
    6  A    between atoms: C_25  and  C_29
                            x       y       z     vdW  Elec       q    Type
                         _______ _______ _______ _____ _____    ______ ____

>  <TORSDO>
F 6

$$$$
=
 OpenBabel10262421023D

 32 35  0  0  1  0  0  0  0  0999 V2000
  188.4980  177.3910  141.1780 C   0  0  1  0  0  3  0  0  0  0  0  0
  186.4020  178.1020  142.4780 C   0  0  0  0  0  0  0  0  0  0  0  0
  189.7080  176.4610  141.3650 C   0  0  0  0  0  2  0  0  0  0  0  0
  187.9060  177.9060  142.5120 C   0  0  1  0  0  3  0  0  0  0  0  0
  185.6890  178.1510  143.6940 C   0  0  0  0  0  0  0  0  0  0  0  0
  184.3560  178.6260  141.2670 C   0  0  0  0  0  0  0  0  0  0  0  0
  183.6340  178.6520  142.4810 C   0  0  0  0  0  0  0  0  0  0  0  0
  188.2980  176.9930  143.6890 C   0  0  2  0  0  3  0  0  0  0  0  0
  184.3160  178.4250  143.6800 C   0  0  0  0  0  3  0  0  0  0  0  0
  187.6430  177.4210  144.9700 C   0  0  0  0  0  3  0  0  0  0  0  0
  189.8160  176.9010  143.8630 C   0  0  0  0  0  2  0  0  0  0  0  0
  185.7270  178.3590  141.2790 C   0  0  0  0  0  3  0  0  0  0  0  0
  186.4030  177.9200  144.9760 C   0  0  0  0  0  0  0  0  0  0  0  0
  190.5810  176.9170  142.5320 C   0  0  0  0  0  2  0  0  0  0  0  0
  183.7440  178.8850  140.0470 O   0  0  0  0  0  1  0  0  0  0  0  0
  186.8100  178.2530  147.3880 C   0  0  0  0  0  1  0  0  0  0  0  0
  185.7690  178.2540  146.2860 C   0  0  0  0  0  2  0  0  0  0  0  0
  188.6800  179.6900  140.6450 O   0  0  0  0  0  0  0  0  0  0  0  0
  188.8550  178.5370  140.2780 C   0  0  0  0  0  0  0  0  0  0  0  0
  189.7910  175.2500  137.5660 S   0  0  0  0  0  0  0  0  0  0  0  0
  188.2810  176.1380  138.1150 C   0  0  0  0  0  2  0  0  0  0  0  0
  191.0070  176.6030  137.8130 C   0  0  1  0  0  3  0  0  0  0  0  0
  189.4320  178.2530  138.9180 C   0  0  1  0  0  3  0  0  0  0  0  0
  190.7000  177.4040  139.0710 C   0  0  0  0  0  2  0  0  0  0  0  0
  188.4160  177.6430  137.9290 C   0  0  2  0  0  3  0  0  0  0  0  0
  187.0580  178.3220  137.9620 C   0  0  0  0  0  1  0  0  0  0  0  0
  192.5910  174.6840  137.7190 O   0  0  0  0  0  0  0  0  0  0  0  0
  193.3790  176.8070  138.0630 O   0  0  0  0  0  1  0  0  0  0  0  0
  192.3910  176.0490  137.8740 C   0  0  0  0  0  0  0  0  0  0  0  0
  182.2560  178.9090  142.5600 O   0  0  0  0  0  0  0  0  0  0  0  0
  181.5140  179.0030  143.7700 C   0  0  0  0  0  2  0  0  0  0  0  0
  180.1550  178.3510  143.5980 C   0  0  0  0  0  1  0  0  0  0  0  0
  1 19  1  6  0  0  0
  1  3  1  0  0  0  0
  1  4  1  0  0  0  0
  2  5  1  0  0  0  0
  3 14  1  0  0  0  0
  4  2  1  6  0  0  0
  4  8  1  0  0  0  0
  5 13  1  0  0  0  0
  6 12  1  0  0  0  0
  6  7  2  0  0  0  0
  7 30  1  0  0  0  0
  7  9  1  0  0  0  0
  8 11  1  1  0  0  0
  8 10  1  0  0  0  0
  9  5  2  0  0  0  0
 10 13  2  0  0  0  0
 12  2  2  0  0  0  0
 13 17  1  0  0  0  0
 14 11  1  0  0  0  0
 15  6  1  0  0  0  0
 17 16  1  0  0  0  0
 19 18  2  0  0  0  0
 20 22  1  0  0  0  0
 20 21  1  0  0  0  0
 22 29  1  1  0  0  0
 22 24  1  0  0  0  0
 23 24  1  0  0  0  0
 23 19  1  1  0  0  0
 25 26  1  1  0  0  0
 25 21  1  0  0  0  0
 25 23  1  0  0  0  0
 27 29  2  0  0  0  0
 29 28  1  0  0  0  0
 30 31  1  0  0  0  0
 32 31  1  0  0  0  0
M  END
>  <MODEL>
7

>  <REMARK>
 VINA RESULT:      -7.7      2.041      3.256
  Name = 
  6 active torsions:
  status: ('A' for Active; 'I' for Inactive)
    1  A    between atoms: C_1  and  C_27
    2  A    between atoms: C_9  and  O_11
    3  A    between atoms: O_11  and  C_12
    4  A    between atoms: C_15  and  C_26
    5  A    between atoms: C_16  and  C_27
    6  A    between atoms: C_25  and  C_29
                            x       y       z     vdW  Elec       q    Type
                         _______ _______ _______ _____ _____    ______ ____

>  <TORSDO>
F 6

$$$$
=
 OpenBabel10262421023D

 32 35  0  0  1  0  0  0  0  0999 V2000
  189.7820  178.1500  142.3540 C   0  0  1  0  0  3  0  0  0  0  0  0
  187.7710  178.1190  140.7590 C   0  0  0  0  0  0  0  0  0  0  0  0
  191.3140  178.2500  142.2740 C   0  0  0  0  0  2  0  0  0  0  0  0
  189.1360  177.5440  141.0850 C   0  0  1  0  0  3  0  0  0  0  0  0
  187.2650  177.9860  139.4490 C   0  0  0  0  0  0  0  0  0  0  0  0
  185.6610  179.1120  141.4630 C   0  0  0  0  0  0  0  0  0  0  0  0
  185.1610  179.0030  140.1470 C   0  0  0  0  0  0  0  0  0  0  0  0
  190.0700  177.6670  139.8670 C   0  0  2  0  0  3  0  0  0  0  0  0
  185.9690  178.4290  139.1590 C   0  0  0  0  0  3  0  0  0  0  0  0
  189.4150  177.1800  138.6080 C   0  0  0  0  0  3  0  0  0  0  0  0
  191.4050  176.9520  140.0930 C   0  0  0  0  0  2  0  0  0  0  0  0
  186.9520  178.6650  141.7550 C   0  0  0  0  0  3  0  0  0  0  0  0
  188.1090  177.3720  138.3930 C   0  0  0  0  0  0  0  0  0  0  0  0
  191.9080  177.0480  141.5410 C   0  0  0  0  0  2  0  0  0  0  0  0
  184.8930  179.6340  142.4960 O   0  0  0  0  0  1  0  0  0  0  0  0
  188.5000  176.0450  136.3470 C   0  0  0  0  0  1  0  0  0  0  0  0
  187.5240  176.9390  137.0890 C   0  0  0  0  0  2  0  0  0  0  0  0
  189.2060  176.1720  143.5210 O   0  0  0  0  0  0  0  0  0  0  0  0
  189.3720  177.3820  143.5770 C   0  0  0  0  0  0  0  0  0  0  0  0
  187.9510  176.8070  147.6620 S   0  0  0  0  0  0  0  0  0  0  0  0
  189.4540  176.3770  146.6990 C   0  0  0  0  0  2  0  0  0  0  0  0
  187.4440  178.3000  146.7220 C   0  0  1  0  0  3  0  0  0  0  0  0
  189.1690  178.1170  144.8740 C   0  0  1  0  0  3  0  0  0  0  0  0
  187.6770  178.1210  145.2270 C   0  0  0  0  0  2  0  0  0  0  0  0
  190.0570  177.6010  146.0250 C   0  0  2  0  0  3  0  0  0  0  0  0
  191.4960  177.3420  145.6080 C   0  0  0  0  0  1  0  0  0  0  0  0
  185.6840  179.7540  147.7180 O   0  0  0  0  0  1  0  0  0  0  0  0
  185.0950  177.8680  146.5590 O   0  0  0  0  0  0  0  0  0  0  0  0
  186.0110  178.6180  146.9900 C   0  0  0  0  0  0  0  0  0  0  0  0
  183.8790  179.4280  139.7650 O   0  0  0  0  0  0  0  0  0  0  0  0
  182.7660  178.5690  139.5530 C   0  0  0  0  0  2  0  0  0  0  0  0
  182.0860  178.2620  140.8740 C   0  0  0  0  0  1  0  0  0  0  0  0
  1 19  1  1  0  0  0
  2 12  1  0  0  0  0
  3  1  1  0  0  0  0
  4  2  1  6  0  0  0
  4  1  1  0  0  0  0
  5  2  2  0  0  0  0
  6 12  2  0  0  0  0
  6 15  1  0  0  0  0
  7  6  1  0  0  0  0
  8 10  1  6  0  0  0
  8 11  1  0  0  0  0
  8  4  1  0  0  0  0
  9  5  1  0  0  0  0
  9  7  2  0  0  0  0
 11 14  1  0  0  0  0
 13 10  2  0  0  0  0
 13  5  1  0  0  0  0
 14  3  1  0  0  0  0
 16 17  1  0  0  0  0
 17 13  1  0  0  0  0
 18 19  2  0  0  0  0
 21 20  1  0  0  0  0
 22 29  1  6  0  0  0
 22 20  1  0  0  0  0
 23 19  1  6  0  0  0
 23 24  1  0  0  0  0
 23 25  1  0  0  0  0
 24 22  1  0  0  0  0
 25 26  1  6  0  0  0
 25 21  1  0  0  0  0
 28 29  2  0  0  0  0
 29 27  1  0  0  0  0
 30  7  1  0  0  0  0
 31 30  1  0  0  0  0
 31 32  1  0  0  0  0
M  END
>  <MODEL>
8

>  <REMARK>
 VINA RESULT:      -7.6      2.669      6.478
  Name = 
  6 active torsions:
  status: ('A' for Active; 'I' for Inactive)
    1  A    between atoms: C_1  and  C_27
    2  A    between atoms: C_9  and  O_11
    3  A    between atoms: O_11  and  C_12
    4  A    between atoms: C_15  and  C_26
    5  A    between atoms: C_16  and  C_27
    6  A    between atoms: C_25  and  C_29
                            x       y       z     vdW  Elec       q    Type
                         _______ _______ _______ _____ _____    ______ ____

>  <TORSDO>
F 6

$$$$
=
 OpenBabel10262421023D

 32 35  0  0  1  0  0  0  0  0999 V2000
  184.3380  179.0790  142.3510 C   0  0  1  0  0  3  0  0  0  0  0  0
  186.7280  178.1680  142.1300 C   0  0  0  0  0  0  0  0  0  0  0  0
  183.4640  179.7720  143.4080 C   0  0  0  0  0  2  0  0  0  0  0  0
  185.4570  178.1980  142.9580 C   0  0  1  0  0  3  0  0  0  0  0  0
  187.9360  177.7750  142.7420 C   0  0  0  0  0  0  0  0  0  0  0  0
  187.8640  178.2820  139.9790 C   0  0  0  0  0  0  0  0  0  0  0  0
  189.0820  177.9120  140.5930 C   0  0  0  0  0  0  0  0  0  0  0  0
  185.7760  178.6150  144.4060 C   0  0  2  0  0  3  0  0  0  0  0  0
  189.0970  177.6520  141.9670 C   0  0  0  0  0  3  0  0  0  0  0  0
  186.9310  177.8400  144.9700 C   0  0  0  0  0  3  0  0  0  0  0  0
  184.5510  178.4990  145.3180 C   0  0  0  0  0  2  0  0  0  0  0  0
  186.7050  178.3990  140.7490 C   0  0  0  0  0  3  0  0  0  0  0  0
  187.9650  177.4880  144.1990 C   0  0  0  0  0  0  0  0  0  0  0  0
  183.2350  178.8650  144.6170 C   0  0  0  0  0  2  0  0  0  0  0  0
  187.7760  178.5120  138.6120 O   0  0  0  0  0  1  0  0  0  0  0  0
  189.4340  177.3990  146.1810 C   0  0  0  0  0  1  0  0  0  0  0  0
  189.1250  176.7890  144.8270 C   0  0  0  0  0  2  0  0  0  0  0  0
  183.0550  177.1840  141.7440 O   0  0  0  0  0  0  0  0  0  0  0  0
  183.4850  178.2790  141.4100 C   0  0  0  0  0  0  0  0  0  0  0  0
  181.4120  177.3020  137.6980 S   0  0  0  0  0  0  0  0  0  0  0  0
  180.9370  177.8100  139.3980 C   0  0  0  0  0  2  0  0  0  0  0  0
  183.0750  178.0780  137.6370 C   0  0  1  0  0  3  0  0  0  0  0  0
  183.1630  178.8400  140.0520 C   0  0  1  0  0  3  0  0  0  0  0  0
  183.7950  177.9530  138.9730 C   0  0  0  0  0  2  0  0  0  0  0  0
  181.6550  179.0820  139.8240 C   0  0  2  0  0  3  0  0  0  0  0  0
  180.9610  179.7310  141.0090 C   0  0  0  0  0  1  0  0  0  0  0  0
  185.2580  177.2990  136.7260 O   0  0  0  0  0  1  0  0  0  0  0  0
  183.3520  177.0960  135.4710 O   0  0  0  0  0  0  0  0  0  0  0  0
  183.8910  177.4650  136.5480 C   0  0  0  0  0  0  0  0  0  0  0  0
  190.2930  177.7750  139.8970 O   0  0  0  0  0  0  0  0  0  0  0  0
  190.5590  176.7800  138.9160 C   0  0  0  0  0  2  0  0  0  0  0  0
  192.0550  176.5720  138.7770 C   0  0  0  0  0  1  0  0  0  0  0  0
  1 19  1  1  0  0  0
  1  4  1  0  0  0  0
  1  3  1  0  0  0  0
  2  5  1  0  0  0  0
  3 14  1  0  0  0  0
  4  2  1  6  0  0  0
  4  8  1  0  0  0  0
  5 13  1  0  0  0  0
  6  7  2  0  0  0  0
  6 12  1  0  0  0  0
  7  9  1  0  0  0  0
  8 10  1  1  0  0  0
  8 11  1  0  0  0  0
  9  5  2  0  0  0  0
 12  2  2  0  0  0  0
 13 17  1  0  0  0  0
 13 10  2  0  0  0  0
 14 11  1  0  0  0  0
 15  6  1  0  0  0  0
 17 16  1  0  0  0  0
 19 18  2  0  0  0  0
 20 21  1  0  0  0  0
 21 25  1  0  0  0  0
 22 29  1  6  0  0  0
 22 20  1  0  0  0  0
 22 24  1  0  0  0  0
 23 19  1  1  0  0  0
 24 23  1  0  0  0  0
 25 23  1  0  0  0  0
 25 26  1  1  0  0  0
 28 29  2  0  0  0  0
 29 27  1  0  0  0  0
 30  7  1  0  0  0  0
 31 30  1  0  0  0  0
 32 31  1  0  0  0  0
M  END
>  <MODEL>
9

>  <REMARK>
 VINA RESULT:      -7.6      2.375      6.197
  Name = 
  6 active torsions:
  status: ('A' for Active; 'I' for Inactive)
    1  A    between atoms: C_1  and  C_27
    2  A    between atoms: C_9  and  O_11
    3  A    between atoms: O_11  and  C_12
    4  A    between atoms: C_15  and  C_26
    5  A    between atoms: C_16  and  C_27
    6  A    between atoms: C_25  and  C_29
                            x       y       z     vdW  Elec       q    Type
                         _______ _______ _______ _____ _____    ______ ____

>  <TORSDO>
F 6

$$$$
