=
 OpenBabel10262422423D

 43 46  0  0  1  0  0  0  0  0999 V2000
  185.7090  178.3630  141.8510 C   0  0  1  0  0  3  0  0  0  0  0  0
  184.5000  178.9410  141.1740 C   0  0  0  0  0  0  0  0  0  0  0  0
  183.3970  178.9550  141.7810 O   0  0  0  0  0  0  0  0  0  0  0  0
  184.5790  179.5200  139.9010 O   0  0  0  0  0  0  0  0  0  0  0  0
  183.4770  179.8230  139.0880 C   0  0  0  0  0  0  0  0  0  0  0  0
  183.1850  181.0140  138.8000 O   0  0  0  0  0  0  0  0  0  0  0  0
  182.6650  178.7200  138.5120 C   0  0  0  0  0  2  0  0  0  0  0  0
  183.5480  177.8080  137.6800 C   0  0  0  0  0  2  0  0  0  0  0  0
  183.1880  176.3540  137.9330 C   0  0  1  0  0  3  0  0  0  0  0  0
  182.8070  176.1910  139.3890 C   0  0  0  0  0  1  0  0  0  0  0  0
  182.0030  175.9440  137.0710 C   0  0  0  0  0  2  0  0  0  0  0  0
  181.7140  174.4630  137.2190 C   0  0  0  0  0  2  0  0  0  0  0  0
  182.3080  173.7650  136.1690 O   0  0  0  0  0  0  0  0  0  0  0  0
  183.2380  172.9230  136.7840 C   0  0  0  0  0  2  0  0  0  0  0  0
  184.6490  173.2370  136.3060 C   0  0  1  0  0  3  0  0  0  0  0  0
  186.7350  174.1730  137.2000 C   0  0  0  0  0  3  0  0  0  0  0  0
  185.9590  175.0790  135.0310 C   0  0  0  0  0  2  0  0  0  0  0  0
  187.1310  174.4350  135.7760 C   0  0  0  0  0  2  0  0  0  0  0  0
  184.6340  174.3050  135.1960 C   0  0  0  0  0  2  0  0  0  0  0  0
  185.5500  173.6090  137.4540 C   0  0  0  0  0  3  0  0  0  0  0  0
  186.9770  178.9250  141.2190 C   0  0  0  0  0  2  0  0  0  0  0  0
  189.3750  178.1690  136.5890 C   0  0  0  0  0  2  0  0  0  0  0  0
  189.2100  177.9200  141.5530 C   0  0  0  0  0  2  0  0  0  0  0  0
  189.3870  177.0110  138.8820 C   0  0  1  0  0  3  0  0  0  0  0  0
  186.9370  178.5030  137.1790 C   0  0  0  0  0  2  0  0  0  0  0  0
  187.9310  178.0690  136.1080 C   0  0  0  0  0  2  0  0  0  0  0  0
  188.2060  177.9360  139.2420 C   0  0  1  0  0  3  0  0  0  0  0  0
  189.7370  176.9250  137.3900 C   0  0  0  0  0  2  0  0  0  0  0  0
  186.9770  177.6010  138.4060 C   0  0  0  0  0  2  0  0  0  0  0  0
  187.9140  177.8190  140.7480 C   0  0  2  0  0  3  0  0  0  0  0  0
  190.2710  177.0020  140.9480 C   0  0  0  0  0  2  0  0  0  0  0  0
  190.5250  177.3800  139.6190 O   0  0  0  0  0  0  0  0  0  0  0  0
  185.6570  178.6490  143.3440 C   0  0  0  0  0  2  0  0  0  0  0  0
  186.2460  177.4880  144.1280 C   0  0  0  0  0  2  0  0  0  0  0  0
  186.4670  177.8820  145.5800 C   0  0  0  0  0  2  0  0  0  0  0  0
  190.1720  177.0980  145.4290 C   0  0  0  0  0  3  0  0  0  0  0  0
  190.5280  177.1410  146.7810 C   0  0  0  0  0  0  0  0  0  0  0  0
  188.2220  177.6440  147.3560 C   0  0  0  0  0  3  0  0  0  0  0  0
  188.8500  177.3280  145.0380 C   0  0  0  0  0  3  0  0  0  0  0  0
  187.8720  177.5990  146.0020 C   0  0  0  0  0  0  0  0  0  0  0  0
  189.5440  177.4150  147.7450 C   0  0  0  0  0  3  0  0  0  0  0  0
  192.3550  175.6150  147.4550 C   0  0  0  0  0  1  0  0  0  0  0  0
  191.8600  176.9090  147.1370 O   0  0  0  0  0  0  0  0  0  0  0  0
  1 21  1  6  0  0  0
  1 33  1  0  0  0  0
  2  3  2  0  0  0  0
  2  1  1  0  0  0  0
  4  2  1  0  0  0  0
  5  4  1  0  0  0  0
  6  5  2  0  0  0  0
  7  5  1  0  0  0  0
  8  9  1  0  0  0  0
  8  7  1  0  0  0  0
  9 10  1  1  0  0  0
 11 12  1  0  0  0  0
 11  9  1  0  0  0  0
 13 14  1  0  0  0  0
 13 12  1  0  0  0  0
 15 14  1  1  0  0  0
 15 20  1  0  0  0  0
 16 20  2  0  0  0  0
 17 19  1  0  0  0  0
 17 18  1  0  0  0  0
 18 16  1  0  0  0  0
 19 15  1  0  0  0  0
 22 28  1  0  0  0  0
 24 28  1  6  0  0  0
 24 27  1  0  0  0  0
 24 32  1  0  0  0  0
 25 29  1  0  0  0  0
 26 22  1  0  0  0  0
 26 25  1  0  0  0  0
 27 29  1  6  0  0  0
 27 30  1  0  0  0  0
 30 21  1  1  0  0  0
 30 23  1  0  0  0  0
 31 23  1  0  0  0  0
 32 31  1  0  0  0  0
 33 34  1  0  0  0  0
 34 35  1  0  0  0  0
 35 40  1  0  0  0  0
 36 37  1  0  0  0  0
 37 43  1  0  0  0  0
 37 41  2  0  0  0  0
 38 41  1  0  0  0  0
 39 36  2  0  0  0  0
 39 40  1  0  0  0  0
 40 38  2  0  0  0  0
 43 42  1  0  0  0  0
M  END
>  <MODEL>
1

>  <REMARK>
 VINA RESULT:      -7.3      0.000      0.000
  Name = 
  18 active torsions:
  status: ('A' for Active; 'I' for Inactive)
    1  A    between atoms: C_1  and  C_34
    2  A    between atoms: C_1  and  C_35
    3  A    between atoms: C_2  and  O_6
    4  A    between atoms: C_2  and  C_27
    5  A    between atoms: C_3  and  C_4
    6  A    between atoms: C_3  and  C_12
    7  A    between atoms: C_4  and  C_15
    8  A    between atoms: O_6  and  C_12
    9  A    between atoms: C_10  and  C_15
   10  A    between atoms: C_10  and  C_41
   11  A    between atoms: C_11  and  C_14
   12  A    between atoms: C_13  and  C_27
   13  A    between atoms: C_13  and  C_30
   14  A    between atoms: C_14  and  O_22
   15  A    between atoms: C_19  and  O_37
   16  A    between atoms: O_22  and  C_41
   17  A    between atoms: C_27  and  C_38
   18  A    between atoms: C_34  and  C_38
                            x       y       z     vdW  Elec       q    Type
                         _______ _______ _______ _____ _____    ______ ____

>  <TORSDO>
F 18

$$$$
=
 OpenBabel10262422423D

 43 46  0  0  1  0  0  0  0  0999 V2000
  184.9730  178.4240  141.4470 C   0  0  1  0  0  3  0  0  0  0  0  0
  184.0090  179.1040  140.5190 C   0  0  0  0  0  0  0  0  0  0  0  0
  184.4480  179.8790  139.6280 O   0  0  0  0  0  0  0  0  0  0  0  0
  182.6320  178.8560  140.5800 O   0  0  0  0  0  0  0  0  0  0  0  0
  182.0230  177.6340  140.2630 C   0  0  0  0  0  0  0  0  0  0  0  0
  180.8780  177.3410  140.6990 O   0  0  0  0  0  0  0  0  0  0  0  0
  182.7150  176.6820  139.3550 C   0  0  0  0  0  2  0  0  0  0  0  0
  182.0370  176.6770  137.9970 C   0  0  0  0  0  2  0  0  0  0  0  0
  182.5860  177.7970  137.1310 C   0  0  1  0  0  3  0  0  0  0  0  0
  183.5540  177.2080  136.1260 C   0  0  0  0  0  1  0  0  0  0  0  0
  181.4590  178.4840  136.3750 C   0  0  0  0  0  2  0  0  0  0  0  0
  180.4930  179.1530  137.3350 C   0  0  0  0  0  2  0  0  0  0  0  0
  179.7360  180.1000  136.6490 O   0  0  0  0  0  0  0  0  0  0  0  0
  180.6760  180.8900  135.9820 C   0  0  0  0  0  2  0  0  0  0  0  0
  180.4600  182.3640  136.2950 C   0  0  1  0  0  3  0  0  0  0  0  0
  180.7430  184.5440  135.2010 C   0  0  0  0  0  3  0  0  0  0  0  0
  181.6310  184.3390  137.5030 C   0  0  0  0  0  2  0  0  0  0  0  0
  180.7160  185.1450  136.5760 C   0  0  0  0  0  2  0  0  0  0  0  0
  181.3560  182.8210  137.4620 C   0  0  0  0  0  2  0  0  0  0  0  0
  180.6280  183.2190  135.0660 C   0  0  0  0  0  3  0  0  0  0  0  0
  186.3490  179.0690  141.3320 C   0  0  0  0  0  2  0  0  0  0  0  0
  189.2500  178.4790  136.9730 C   0  0  0  0  0  2  0  0  0  0  0  0
  188.6220  178.2840  141.9040 C   0  0  0  0  0  2  0  0  0  0  0  0
  189.1440  177.3590  139.2840 C   0  0  1  0  0  3  0  0  0  0  0  0
  186.7450  178.5880  137.3180 C   0  0  0  0  0  2  0  0  0  0  0  0
  187.8760  178.2360  136.3580 C   0  0  0  0  0  2  0  0  0  0  0  0
  187.8530  178.1730  139.5060 C   0  0  1  0  0  3  0  0  0  0  0  0
  189.6450  177.2850  137.8340 C   0  0  0  0  0  2  0  0  0  0  0  0
  186.7480  177.7120  138.5630 C   0  0  0  0  0  2  0  0  0  0  0  0
  187.4260  178.0500  140.9790 C   0  0  2  0  0  3  0  0  0  0  0  0
  189.8170  177.4620  141.4250 C   0  0  0  0  0  2  0  0  0  0  0  0
  190.1650  177.8440  140.1180 O   0  0  0  0  0  0  0  0  0  0  0  0
  184.4500  178.4770  142.8740 C   0  0  0  0  0  2  0  0  0  0  0  0
  185.5390  178.9540  143.8210 C   0  0  0  0  0  2  0  0  0  0  0  0
  185.3280  178.3730  145.2120 C   0  0  0  0  0  2  0  0  0  0  0  0
  188.0170  177.9080  147.8430 C   0  0  0  0  0  3  0  0  0  0  0  0
  189.0620  177.3640  147.0880 C   0  0  0  0  0  0  0  0  0  0  0  0
  187.6770  177.5040  145.0970 C   0  0  0  0  0  3  0  0  0  0  0  0
  186.8060  178.2450  147.2310 C   0  0  0  0  0  3  0  0  0  0  0  0
  186.6360  178.0470  145.8570 C   0  0  0  0  0  0  0  0  0  0  0  0
  188.8870  177.1640  145.7100 C   0  0  0  0  0  3  0  0  0  0  0  0
  191.4380  176.6770  147.0220 C   0  0  0  0  0  1  0  0  0  0  0  0
  190.2590  177.0340  147.7310 O   0  0  0  0  0  0  0  0  0  0  0  0
  1 21  1  1  0  0  0
  1 33  1  0  0  0  0
  2  4  1  0  0  0  0
  2  1  1  0  0  0  0
  3  2  2  0  0  0  0
  5  4  1  0  0  0  0
  5  6  2  0  0  0  0
  7  5  1  0  0  0  0
  8  7  1  0  0  0  0
  9 10  1  6  0  0  0
  9  8  1  0  0  0  0
 11  9  1  0  0  0  0
 11 12  1  0  0  0  0
 13 12  1  0  0  0  0
 14 13  1  0  0  0  0
 15 14  1  6  0  0  0
 15 19  1  0  0  0  0
 16 18  1  0  0  0  0
 18 17  1  0  0  0  0
 19 17  1  0  0  0  0
 20 16  2  0  0  0  0
 20 15  1  0  0  0  0
 22 28  1  0  0  0  0
 24 28  1  6  0  0  0
 24 27  1  0  0  0  0
 24 32  1  0  0  0  0
 25 29  1  0  0  0  0
 26 22  1  0  0  0  0
 26 25  1  0  0  0  0
 27 29  1  6  0  0  0
 27 30  1  0  0  0  0
 30 21  1  1  0  0  0
 30 23  1  0  0  0  0
 31 23  1  0  0  0  0
 32 31  1  0  0  0  0
 33 34  1  0  0  0  0
 34 35  1  0  0  0  0
 35 40  1  0  0  0  0
 37 43  1  0  0  0  0
 37 36  2  0  0  0  0
 38 41  2  0  0  0  0
 38 40  1  0  0  0  0
 39 36  1  0  0  0  0
 40 39  2  0  0  0  0
 41 37  1  0  0  0  0
 42 43  1  0  0  0  0
M  END
>  <MODEL>
2

>  <REMARK>
 VINA RESULT:      -7.1      2.518      4.803
  Name = 
  18 active torsions:
  status: ('A' for Active; 'I' for Inactive)
    1  A    between atoms: C_1  and  C_34
    2  A    between atoms: C_1  and  C_35
    3  A    between atoms: C_2  and  O_6
    4  A    between atoms: C_2  and  C_27
    5  A    between atoms: C_3  and  C_4
    6  A    between atoms: C_3  and  C_12
    7  A    between atoms: C_4  and  C_15
    8  A    between atoms: O_6  and  C_12
    9  A    between atoms: C_10  and  C_15
   10  A    between atoms: C_10  and  C_41
   11  A    between atoms: C_11  and  C_14
   12  A    between atoms: C_13  and  C_27
   13  A    between atoms: C_13  and  C_30
   14  A    between atoms: C_14  and  O_22
   15  A    between atoms: C_19  and  O_37
   16  A    between atoms: O_22  and  C_41
   17  A    between atoms: C_27  and  C_38
   18  A    between atoms: C_34  and  C_38
                            x       y       z     vdW  Elec       q    Type
                         _______ _______ _______ _____ _____    ______ ____

>  <TORSDO>
F 18

$$$$
=
 OpenBabel10262422423D

 43 46  0  0  1  0  0  0  0  0999 V2000
  183.8840  178.7710  140.7150 C   0  0  1  0  0  3  0  0  0  0  0  0
  185.2100  178.8340  140.0150 C   0  0  0  0  0  0  0  0  0  0  0  0
  186.2680  178.6560  140.6750 O   0  0  0  0  0  0  0  0  0  0  0  0
  185.3010  179.0280  138.6310 O   0  0  0  0  0  0  0  0  0  0  0  0
  185.7740  178.0750  137.7170 C   0  0  0  0  0  0  0  0  0  0  0  0
  184.9960  177.2450  137.1760 O   0  0  0  0  0  0  0  0  0  0  0  0
  187.2110  178.0720  137.3360 C   0  0  0  0  0  2  0  0  0  0  0  0
  187.7100  176.6440  137.2160 C   0  0  0  0  0  2  0  0  0  0  0  0
  189.2260  176.6220  137.1250 C   0  0  1  0  0  3  0  0  0  0  0  0
  189.6510  177.3840  135.8870 C   0  0  0  0  0  1  0  0  0  0  0  0
  189.8400  177.2940  138.3440 C   0  0  0  0  0  2  0  0  0  0  0  0
  190.8130  176.3640  139.0420 C   0  0  0  0  0  2  0  0  0  0  0  0
  190.3720  176.1170  140.3400 O   0  0  0  0  0  0  0  0  0  0  0  0
  190.1430  177.3850  140.8830 C   0  0  0  0  0  2  0  0  0  0  0  0
  190.8580  177.5360  142.2190 C   0  0  1  0  0  3  0  0  0  0  0  0
  191.3180  176.2010  144.2270 C   0  0  0  0  0  3  0  0  0  0  0  0
  190.4600  178.4930  144.5970 C   0  0  0  0  0  2  0  0  0  0  0  0
  191.5770  177.5010  144.9320 C   0  0  0  0  0  2  0  0  0  0  0  0
  190.1960  178.6260  143.0830 C   0  0  0  0  0  2  0  0  0  0  0  0
  190.9690  176.2170  142.9370 C   0  0  0  0  0  3  0  0  0  0  0  0
  182.9010  177.9450  139.8930 C   0  0  0  0  0  2  0  0  0  0  0  0
  179.5680  180.6490  142.9500 C   0  0  0  0  0  2  0  0  0  0  0  0
  182.0630  179.9430  138.7050 C   0  0  0  0  0  2  0  0  0  0  0  0
  179.8400  180.2430  140.4270 C   0  0  1  0  0  3  0  0  0  0  0  0
  180.3620  178.2480  143.0500 C   0  0  0  0  0  2  0  0  0  0  0  0
  179.3390  179.2640  143.5460 C   0  0  0  0  0  2  0  0  0  0  0  0
  180.9040  179.1950  140.8150 C   0  0  1  0  0  3  0  0  0  0  0  0
  178.9320  180.7240  141.5670 C   0  0  0  0  0  2  0  0  0  0  0  0
  180.2690  178.0190  141.5470 C   0  0  0  0  0  2  0  0  0  0  0  0
  181.6460  178.7360  139.5470 C   0  0  2  0  0  3  0  0  0  0  0  0
  180.8820  180.8990  138.5480 C   0  0  0  0  0  2  0  0  0  0  0  0
  180.4580  181.3440  139.8110 O   0  0  0  0  0  0  0  0  0  0  0  0
  184.0580  178.2000  142.1140 C   0  0  0  0  0  2  0  0  0  0  0  0
  184.1380  179.3200  143.1380 C   0  0  0  0  0  2  0  0  0  0  0  0
  183.8410  178.7900  144.5330 C   0  0  0  0  0  2  0  0  0  0  0  0
  186.4500  178.6390  147.2790 C   0  0  0  0  0  3  0  0  0  0  0  0
  187.4450  177.8550  146.6840 C   0  0  0  0  0  0  0  0  0  0  0  0
  186.0960  177.7020  144.6690 C   0  0  0  0  0  3  0  0  0  0  0  0
  185.2820  178.9520  146.5760 C   0  0  0  0  0  3  0  0  0  0  0  0
  185.1050  178.4860  145.2690 C   0  0  0  0  0  0  0  0  0  0  0  0
  187.2620  177.3880  145.3720 C   0  0  0  0  0  3  0  0  0  0  0  0
  188.8150  178.0390  148.7350 C   0  0  0  0  0  1  0  0  0  0  0  0
  188.5980  177.5580  147.4150 O   0  0  0  0  0  0  0  0  0  0  0  0
  1 21  1  6  0  0  0
  1 33  1  0  0  0  0
  2  3  2  0  0  0  0
  2  1  1  0  0  0  0
  4  2  1  0  0  0  0
  5  4  1  0  0  0  0
  6  5  2  0  0  0  0
  7  5  1  0  0  0  0
  8  7  1  0  0  0  0
  9 10  1  6  0  0  0
  9  8  1  0  0  0  0
  9 11  1  0  0  0  0
 11 12  1  0  0  0  0
 12 13  1  0  0  0  0
 13 14  1  0  0  0  0
 15 14  1  6  0  0  0
 15 20  1  0  0  0  0
 15 19  1  0  0  0  0
 16 18  1  0  0  0  0
 17 18  1  0  0  0  0
 19 17  1  0  0  0  0
 20 16  2  0  0  0  0
 22 26  1  0  0  0  0
 23 30  1  0  0  0  0
 24 27  1  0  0  0  0
 24 28  1  1  0  0  0
 25 26  1  0  0  0  0
 27 29  1  6  0  0  0
 28 22  1  0  0  0  0
 29 25  1  0  0  0  0
 30 21  1  1  0  0  0
 30 27  1  0  0  0  0
 31 23  1  0  0  0  0
 31 32  1  0  0  0  0
 32 24  1  0  0  0  0
 33 34  1  0  0  0  0
 34 35  1  0  0  0  0
 35 40  1  0  0  0  0
 37 36  1  0  0  0  0
 37 43  1  0  0  0  0
 38 40  2  0  0  0  0
 38 41  1  0  0  0  0
 39 36  2  0  0  0  0
 40 39  1  0  0  0  0
 41 37  2  0  0  0  0
 43 42  1  0  0  0  0
M  END
>  <MODEL>
3

>  <REMARK>
 VINA RESULT:      -7.1      2.517      7.305
  Name = 
  18 active torsions:
  status: ('A' for Active; 'I' for Inactive)
    1  A    between atoms: C_1  and  C_34
    2  A    between atoms: C_1  and  C_35
    3  A    between atoms: C_2  and  O_6
    4  A    between atoms: C_2  and  C_27
    5  A    between atoms: C_3  and  C_4
    6  A    between atoms: C_3  and  C_12
    7  A    between atoms: C_4  and  C_15
    8  A    between atoms: O_6  and  C_12
    9  A    between atoms: C_10  and  C_15
   10  A    between atoms: C_10  and  C_41
   11  A    between atoms: C_11  and  C_14
   12  A    between atoms: C_13  and  C_27
   13  A    between atoms: C_13  and  C_30
   14  A    between atoms: C_14  and  O_22
   15  A    between atoms: C_19  and  O_37
   16  A    between atoms: O_22  and  C_41
   17  A    between atoms: C_27  and  C_38
   18  A    between atoms: C_34  and  C_38
                            x       y       z     vdW  Elec       q    Type
                         _______ _______ _______ _____ _____    ______ ____

>  <TORSDO>
F 18

$$$$
=
 OpenBabel10262422423D

 43 46  0  0  1  0  0  0  0  0999 V2000
  188.7290  177.6170  137.8310 C   0  0  1  0  0  3  0  0  0  0  0  0
  187.4890  178.3710  137.4500 C   0  0  0  0  0  0  0  0  0  0  0  0
  187.5870  179.4090  136.7420 O   0  0  0  0  0  0  0  0  0  0  0  0
  186.2140  177.9190  137.8130 O   0  0  0  0  0  0  0  0  0  0  0  0
  185.4370  178.4550  138.8500 C   0  0  0  0  0  0  0  0  0  0  0  0
  185.9650  178.8580  139.9210 O   0  0  0  0  0  0  0  0  0  0  0  0
  183.9690  178.5990  138.6690 C   0  0  0  0  0  2  0  0  0  0  0  0
  183.3720  179.3310  139.8580 C   0  0  0  0  0  2  0  0  0  0  0  0
  182.2480  178.5120  140.4690 C   0  0  1  0  0  3  0  0  0  0  0  0
  181.9810  177.3120  139.5850 C   0  0  0  0  0  1  0  0  0  0  0  0
  182.6460  178.0190  141.8530 C   0  0  0  0  0  2  0  0  0  0  0  0
  182.2450  179.0190  142.9200 C   0  0  0  0  0  2  0  0  0  0  0  0
  183.0470  178.8440  144.0460 O   0  0  0  0  0  0  0  0  0  0  0  0
  184.1130  179.7280  143.8620 C   0  0  0  0  0  2  0  0  0  0  0  0
  185.3870  179.1720  144.4840 C   0  0  1  0  0  3  0  0  0  0  0  0
  186.7810  177.1560  144.3450 C   0  0  0  0  0  3  0  0  0  0  0  0
  186.1890  177.9350  146.6190 C   0  0  0  0  0  2  0  0  0  0  0  0
  187.3370  177.5490  145.6830 C   0  0  0  0  0  2  0  0  0  0  0  0
  185.2190  178.9640  146.0010 C   0  0  0  0  0  2  0  0  0  0  0  0
  185.8480  177.9250  143.7760 C   0  0  0  0  0  3  0  0  0  0  0  0
  189.6280  177.4450  136.6120 C   0  0  0  0  0  2  0  0  0  0  0  0
  193.5570  174.0740  137.5930 C   0  0  0  0  0  2  0  0  0  0  0  0
  188.7430  175.1680  136.9880 C   0  0  0  0  0  2  0  0  0  0  0  0
  191.2380  173.9340  136.4950 C   0  0  1  0  0  3  0  0  0  0  0  0
  193.5380  176.3510  136.4890 C   0  0  0  0  0  2  0  0  0  0  0  0
  194.3320  175.0750  136.7430 C   0  0  0  0  0  2  0  0  0  0  0  0
  191.2130  175.4740  136.5910 C   0  0  1  0  0  3  0  0  0  0  0  0
  192.6080  173.2750  136.7080 C   0  0  0  0  0  2  0  0  0  0  0  0
  192.2700  176.0940  135.6850 C   0  0  0  0  0  2  0  0  0  0  0  0
  189.8020  175.9780  136.2390 C   0  0  2  0  0  3  0  0  0  0  0  0
  189.0340  173.6750  136.8470 C   0  0  0  0  0  2  0  0  0  0  0  0
  190.3000  173.3850  137.3840 O   0  0  0  0  0  0  0  0  0  0  0  0
  189.4520  178.3370  138.9590 C   0  0  0  0  0  2  0  0  0  0  0  0
  189.9750  177.3380  139.9780 C   0  0  0  0  0  2  0  0  0  0  0  0
  189.0600  177.2870  141.1920 C   0  0  0  0  0  2  0  0  0  0  0  0
  190.7220  178.3360  144.4330 C   0  0  0  0  0  3  0  0  0  0  0  0
  191.2800  177.1300  144.8700 C   0  0  0  0  0  0  0  0  0  0  0  0
  190.4090  176.0270  142.8890 C   0  0  0  0  0  3  0  0  0  0  0  0
  190.0090  178.3900  143.2320 C   0  0  0  0  0  3  0  0  0  0  0  0
  189.8540  177.2360  142.4570 C   0  0  0  0  0  0  0  0  0  0  0  0
  191.1200  175.9730  144.0910 C   0  0  0  0  0  3  0  0  0  0  0  0
  191.8680  176.0480  147.0160 C   0  0  0  0  0  1  0  0  0  0  0  0
  191.9840  177.1100  146.0780 O   0  0  0  0  0  0  0  0  0  0  0  0
  1 21  1  6  0  0  0
  1 33  1  0  0  0  0
  2  4  1  0  0  0  0
  2  1  1  0  0  0  0
  3  2  2  0  0  0  0
  4  5  1  0  0  0  0
  5  6  2  0  0  0  0
  7  5  1  0  0  0  0
  7  8  1  0  0  0  0
  8  9  1  0  0  0  0
  9 10  1  6  0  0  0
  9 11  1  0  0  0  0
 11 12  1  0  0  0  0
 12 13  1  0  0  0  0
 14 13  1  0  0  0  0
 15 14  1  6  0  0  0
 15 19  1  0  0  0  0
 16 18  1  0  0  0  0
 18 17  1  0  0  0  0
 19 17  1  0  0  0  0
 20 16  2  0  0  0  0
 20 15  1  0  0  0  0
 24 27  1  0  0  0  0
 24 28  1  1  0  0  0
 24 32  1  0  0  0  0
 25 26  1  0  0  0  0
 26 22  1  0  0  0  0
 27 29  1  6  0  0  0
 28 22  1  0  0  0  0
 29 25  1  0  0  0  0
 30 27  1  0  0  0  0
 30 21  1  1  0  0  0
 30 23  1  0  0  0  0
 31 23  1  0  0  0  0
 31 32  1  0  0  0  0
 33 34  1  0  0  0  0
 34 35  1  0  0  0  0
 35 40  1  0  0  0  0
 36 37  1  0  0  0  0
 37 43  1  0  0  0  0
 38 41  1  0  0  0  0
 39 36  2  0  0  0  0
 40 38  2  0  0  0  0
 40 39  1  0  0  0  0
 41 37  2  0  0  0  0
 43 42  1  0  0  0  0
M  END
>  <MODEL>
4

>  <REMARK>
 VINA RESULT:      -7.0      2.476      6.024
  Name = 
  18 active torsions:
  status: ('A' for Active; 'I' for Inactive)
    1  A    between atoms: C_1  and  C_34
    2  A    between atoms: C_1  and  C_35
    3  A    between atoms: C_2  and  O_6
    4  A    between atoms: C_2  and  C_27
    5  A    between atoms: C_3  and  C_4
    6  A    between atoms: C_3  and  C_12
    7  A    between atoms: C_4  and  C_15
    8  A    between atoms: O_6  and  C_12
    9  A    between atoms: C_10  and  C_15
   10  A    between atoms: C_10  and  C_41
   11  A    between atoms: C_11  and  C_14
   12  A    between atoms: C_13  and  C_27
   13  A    between atoms: C_13  and  C_30
   14  A    between atoms: C_14  and  O_22
   15  A    between atoms: C_19  and  O_37
   16  A    between atoms: O_22  and  C_41
   17  A    between atoms: C_27  and  C_38
   18  A    between atoms: C_34  and  C_38
                            x       y       z     vdW  Elec       q    Type
                         _______ _______ _______ _____ _____    ______ ____

>  <TORSDO>
F 18

$$$$
=
 OpenBabel10262422423D

 43 46  0  0  1  0  0  0  0  0999 V2000
  188.1170  177.6350  137.2240 C   0  0  1  0  0  3  0  0  0  0  0  0
  188.7960  178.8220  137.8420 C   0  0  0  0  0  0  0  0  0  0  0  0
  188.8000  179.9230  137.2290 O   0  0  0  0  0  0  0  0  0  0  0  0
  189.3780  178.7550  139.1140 O   0  0  0  0  0  0  0  0  0  0  0  0
  188.7830  178.1640  140.2380 C   0  0  0  0  0  0  0  0  0  0  0  0
  187.6560  178.5410  140.6560 O   0  0  0  0  0  0  0  0  0  0  0  0
  189.4690  177.0380  140.9250 C   0  0  0  0  0  2  0  0  0  0  0  0
  190.5090  177.5780  141.8900 C   0  0  0  0  0  2  0  0  0  0  0  0
  190.2950  176.9940  143.2750 C   0  0  1  0  0  3  0  0  0  0  0  0
  190.0300  175.5090  143.1440 C   0  0  0  0  0  1  0  0  0  0  0  0
  191.5360  177.1930  144.1320 C   0  0  0  0  0  2  0  0  0  0  0  0
  191.2130  177.0160  145.6030 C   0  0  0  0  0  2  0  0  0  0  0  0
  190.0940  177.7790  145.9290 O   0  0  0  0  0  0  0  0  0  0  0  0
  189.3850  176.9970  146.8450 C   0  0  0  0  0  2  0  0  0  0  0  0
  187.8870  177.2370  146.7130 C   0  0  1  0  0  3  0  0  0  0  0  0
  186.2860  178.0340  145.0310 C   0  0  0  0  0  3  0  0  0  0  0  0
  186.0950  179.0220  147.2930 C   0  0  0  0  0  2  0  0  0  0  0  0
  185.3460  178.2980  146.1710 C   0  0  0  0  0  2  0  0  0  0  0  0
  187.4110  178.3240  147.6960 C   0  0  0  0  0  2  0  0  0  0  0  0
  187.5000  177.5360  145.2890 C   0  0  0  0  0  3  0  0  0  0  0  0
  186.6600  177.9670  136.9250 C   0  0  0  0  0  2  0  0  0  0  0  0
  181.6270  178.4310  138.4150 C   0  0  0  0  0  2  0  0  0  0  0  0
  185.4410  175.8530  136.5310 C   0  0  0  0  0  2  0  0  0  0  0  0
  183.3520  176.5290  138.3120 C   0  0  1  0  0  3  0  0  0  0  0  0
  183.6860  179.7710  139.0230 C   0  0  0  0  0  2  0  0  0  0  0  0
  182.2340  179.4570  139.3660 C   0  0  0  0  0  2  0  0  0  0  0  0
  184.3880  177.6240  137.9830 C   0  0  1  0  0  3  0  0  0  0  0  0
  182.0090  177.0260  138.8650 C   0  0  0  0  0  2  0  0  0  0  0  0
  184.5920  178.5560  139.1710 C   0  0  0  0  0  2  0  0  0  0  0  0
  185.7070  176.9570  137.5550 C   0  0  2  0  0  3  0  0  0  0  0  0
  184.3020  174.9590  137.0160 C   0  0  0  0  0  2  0  0  0  0  0  0
  183.1340  175.7220  137.1820 O   0  0  0  0  0  0  0  0  0  0  0  0
  188.8590  177.2030  135.9680 C   0  0  0  0  0  2  0  0  0  0  0  0
  189.1890  175.7220  136.0290 C   0  0  0  0  0  2  0  0  0  0  0  0
  189.5530  175.3140  137.4490 C   0  0  0  0  0  2  0  0  0  0  0  0
  193.1440  174.1120  137.2910 C   0  0  0  0  0  3  0  0  0  0  0  0
  193.8280  175.1800  137.8830 C   0  0  0  0  0  0  0  0  0  0  0  0
  191.7130  176.3280  138.2170 C   0  0  0  0  0  3  0  0  0  0  0  0
  191.7530  174.1510  137.1590 C   0  0  0  0  0  3  0  0  0  0  0  0
  191.0350  175.2580  137.6250 C   0  0  0  0  0  0  0  0  0  0  0  0
  193.1040  176.2900  138.3470 C   0  0  0  0  0  3  0  0  0  0  0  0
  195.8710  174.3310  138.9900 C   0  0  0  0  0  1  0  0  0  0  0  0
  195.2190  175.1110  137.9970 O   0  0  0  0  0  0  0  0  0  0  0  0
  1 33  1  6  0  0  0
  1  2  1  0  0  0  0
  2  4  1  0  0  0  0
  3  2  2  0  0  0  0
  4  5  1  0  0  0  0
  5  6  2  0  0  0  0
  5  7  1  0  0  0  0
  7  8  1  0  0  0  0
  8  9  1  0  0  0  0
  9 10  1  6  0  0  0
  9 11  1  0  0  0  0
 11 12  1  0  0  0  0
 12 13  1  0  0  0  0
 13 14  1  0  0  0  0
 15 14  1  6  0  0  0
 15 19  1  0  0  0  0
 16 20  2  0  0  0  0
 16 18  1  0  0  0  0
 17 19  1  0  0  0  0
 18 17  1  0  0  0  0
 20 15  1  0  0  0  0
 21  1  1  0  0  0  0
 22 28  1  0  0  0  0
 22 26  1  0  0  0  0
 23 31  1  0  0  0  0
 23 30  1  0  0  0  0
 24 28  1  6  0  0  0
 25 29  1  0  0  0  0
 25 26  1  0  0  0  0
 27 24  1  0  0  0  0
 27 29  1  1  0  0  0
 30 21  1  6  0  0  0
 30 27  1  0  0  0  0
 31 32  1  0  0  0  0
 32 24  1  0  0  0  0
 33 34  1  0  0  0  0
 34 35  1  0  0  0  0
 35 40  1  0  0  0  0
 36 37  1  0  0  0  0
 37 43  1  0  0  0  0
 37 41  2  0  0  0  0
 38 41  1  0  0  0  0
 39 36  2  0  0  0  0
 39 40  1  0  0  0  0
 40 38  2  0  0  0  0
 43 42  1  0  0  0  0
M  END
>  <MODEL>
5

>  <REMARK>
 VINA RESULT:      -6.9      2.387      8.708
  Name = 
  18 active torsions:
  status: ('A' for Active; 'I' for Inactive)
    1  A    between atoms: C_1  and  C_34
    2  A    between atoms: C_1  and  C_35
    3  A    between atoms: C_2  and  O_6
    4  A    between atoms: C_2  and  C_27
    5  A    between atoms: C_3  and  C_4
    6  A    between atoms: C_3  and  C_12
    7  A    between atoms: C_4  and  C_15
    8  A    between atoms: O_6  and  C_12
    9  A    between atoms: C_10  and  C_15
   10  A    between atoms: C_10  and  C_41
   11  A    between atoms: C_11  and  C_14
   12  A    between atoms: C_13  and  C_27
   13  A    between atoms: C_13  and  C_30
   14  A    between atoms: C_14  and  O_22
   15  A    between atoms: C_19  and  O_37
   16  A    between atoms: O_22  and  C_41
   17  A    between atoms: C_27  and  C_38
   18  A    between atoms: C_34  and  C_38
                            x       y       z     vdW  Elec       q    Type
                         _______ _______ _______ _____ _____    ______ ____

>  <TORSDO>
F 18

$$$$
=
 OpenBabel10262422423D

 43 46  0  0  1  0  0  0  0  0999 V2000
  185.2960  179.0660  140.2100 C   0  0  1  0  0  3  0  0  0  0  0  0
  186.5310  178.5890  139.5030 C   0  0  0  0  0  0  0  0  0  0  0  0
  187.5640  178.3200  140.1720 O   0  0  0  0  0  0  0  0  0  0  0  0
  186.5480  178.3780  138.1180 O   0  0  0  0  0  0  0  0  0  0  0  0
  187.6760  178.5280  137.2990 C   0  0  0  0  0  0  0  0  0  0  0  0
  188.2460  179.6430  137.1680 O   0  0  0  0  0  0  0  0  0  0  0  0
  188.2440  177.3410  136.6070 C   0  0  0  0  0  2  0  0  0  0  0  0
  188.3760  176.1870  137.5850 C   0  0  0  0  0  2  0  0  0  0  0  0
  189.8090  175.6840  137.6130 C   0  0  1  0  0  3  0  0  0  0  0  0
  190.6190  176.4580  136.5950 C   0  0  0  0  0  1  0  0  0  0  0  0
  190.4200  175.9020  138.9890 C   0  0  0  0  0  2  0  0  0  0  0  0
  191.0070  177.2960  139.1050 C   0  0  0  0  0  2  0  0  0  0  0  0
  190.8140  177.7750  140.4000 O   0  0  0  0  0  0  0  0  0  0  0  0
  190.3110  176.6820  141.1110 C   0  0  0  0  0  2  0  0  0  0  0  0
  190.3970  176.9300  142.6110 C   0  0  1  0  0  3  0  0  0  0  0  0
  191.4810  178.4900  144.1650 C   0  0  0  0  0  3  0  0  0  0  0  0
  191.6780  176.0820  144.7020 C   0  0  0  0  0  2  0  0  0  0  0  0
  191.2580  177.4560  145.2300 C   0  0  0  0  0  2  0  0  0  0  0  0
  191.0530  175.7380  143.3340 C   0  0  0  0  0  2  0  0  0  0  0  0
  191.0780  178.2370  142.9160 C   0  0  0  0  0  3  0  0  0  0  0  0
  184.0790  178.8830  139.3110 C   0  0  0  0  0  2  0  0  0  0  0  0
  178.9350  177.9590  139.9810 C   0  0  0  0  0  2  0  0  0  0  0  0
  183.4770  176.6530  138.4320 C   0  0  0  0  0  2  0  0  0  0  0  0
  181.0710  176.5320  139.9120 C   0  0  1  0  0  3  0  0  0  0  0  0
  180.5040  179.5960  141.1050 C   0  0  0  0  0  2  0  0  0  0  0  0
  179.1410  178.9140  141.1520 C   0  0  0  0  0  2  0  0  0  0  0  0
  181.8410  177.8690  139.9140 C   0  0  1  0  0  3  0  0  0  0  0  0
  179.5870  176.6170  140.2930 C   0  0  0  0  0  2  0  0  0  0  0  0
  181.6520  178.6040  141.2360 C   0  0  0  0  0  2  0  0  0  0  0  0
  183.3280  177.5950  139.6280 C   0  0  2  0  0  3  0  0  0  0  0  0
  182.5390  175.4590  138.5920 C   0  0  0  0  0  2  0  0  0  0  0  0
  181.2080  175.9050  138.6620 O   0  0  0  0  0  0  0  0  0  0  0  0
  185.1300  178.3270  141.5290 C   0  0  0  0  0  2  0  0  0  0  0  0
  185.0300  179.3120  142.6810 C   0  0  0  0  0  2  0  0  0  0  0  0
  184.4510  178.6330  143.9140 C   0  0  0  0  0  2  0  0  0  0  0  0
  186.3760  178.3010  147.1620 C   0  0  0  0  0  3  0  0  0  0  0  0
  187.5130  177.5970  146.7490 C   0  0  0  0  0  0  0  0  0  0  0  0
  186.6620  177.5910  144.4730 C   0  0  0  0  0  3  0  0  0  0  0  0
  185.3850  178.6470  146.2390 C   0  0  0  0  0  3  0  0  0  0  0  0
  185.5280  178.2950  144.8920 C   0  0  0  0  0  0  0  0  0  0  0  0
  187.6510  177.2440  145.3970 C   0  0  0  0  0  3  0  0  0  0  0  0
  189.2170  178.2420  148.4220 C   0  0  0  0  0  1  0  0  0  0  0  0
  188.4830  177.2630  147.6980 O   0  0  0  0  0  0  0  0  0  0  0  0
  1 21  1  6  0  0  0
  1 33  1  0  0  0  0
  2  3  2  0  0  0  0
  2  1  1  0  0  0  0
  4  2  1  0  0  0  0
  5  4  1  0  0  0  0
  6  5  2  0  0  0  0
  7  5  1  0  0  0  0
  7  8  1  0  0  0  0
  8  9  1  0  0  0  0
  9 10  1  6  0  0  0
  9 11  1  0  0  0  0
 11 12  1  0  0  0  0
 12 13  1  0  0  0  0
 13 14  1  0  0  0  0
 15 14  1  6  0  0  0
 15 20  1  0  0  0  0
 15 19  1  0  0  0  0
 16 18  1  0  0  0  0
 17 18  1  0  0  0  0
 19 17  1  0  0  0  0
 20 16  2  0  0  0  0
 22 28  1  0  0  0  0
 22 26  1  0  0  0  0
 23 31  1  0  0  0  0
 23 30  1  0  0  0  0
 24 27  1  0  0  0  0
 24 28  1  6  0  0  0
 25 26  1  0  0  0  0
 25 29  1  0  0  0  0
 27 29  1  1  0  0  0
 30 21  1  6  0  0  0
 30 27  1  0  0  0  0
 31 32  1  0  0  0  0
 32 24  1  0  0  0  0
 33 34  1  0  0  0  0
 34 35  1  0  0  0  0
 35 40  1  0  0  0  0
 37 36  1  0  0  0  0
 37 43  1  0  0  0  0
 38 40  2  0  0  0  0
 38 41  1  0  0  0  0
 39 36  2  0  0  0  0
 40 39  1  0  0  0  0
 41 37  2  0  0  0  0
 43 42  1  0  0  0  0
M  END
>  <MODEL>
6

>  <REMARK>
 VINA RESULT:      -6.8      2.231      7.048
  Name = 
  18 active torsions:
  status: ('A' for Active; 'I' for Inactive)
    1  A    between atoms: C_1  and  C_34
    2  A    between atoms: C_1  and  C_35
    3  A    between atoms: C_2  and  O_6
    4  A    between atoms: C_2  and  C_27
    5  A    between atoms: C_3  and  C_4
    6  A    between atoms: C_3  and  C_12
    7  A    between atoms: C_4  and  C_15
    8  A    between atoms: O_6  and  C_12
    9  A    between atoms: C_10  and  C_15
   10  A    between atoms: C_10  and  C_41
   11  A    between atoms: C_11  and  C_14
   12  A    between atoms: C_13  and  C_27
   13  A    between atoms: C_13  and  C_30
   14  A    between atoms: C_14  and  O_22
   15  A    between atoms: C_19  and  O_37
   16  A    between atoms: O_22  and  C_41
   17  A    between atoms: C_27  and  C_38
   18  A    between atoms: C_34  and  C_38
                            x       y       z     vdW  Elec       q    Type
                         _______ _______ _______ _____ _____    ______ ____

>  <TORSDO>
F 18

$$$$
=
 OpenBabel10262422423D

 43 46  0  0  1  0  0  0  0  0999 V2000
  185.0540  178.6140  140.4560 C   0  0  1  0  0  3  0  0  0  0  0  0
  186.2550  178.6350  139.5550 C   0  0  0  0  0  0  0  0  0  0  0  0
  187.4090  178.5920  140.0580 O   0  0  0  0  0  0  0  0  0  0  0  0
  186.1250  178.6410  138.1600 O   0  0  0  0  0  0  0  0  0  0  0  0
  185.9250  177.5020  137.3680 C   0  0  0  0  0  0  0  0  0  0  0  0
  184.8640  177.3420  136.7070 O   0  0  0  0  0  0  0  0  0  0  0  0
  187.0020  176.4820  137.2620 C   0  0  0  0  0  2  0  0  0  0  0  0
  188.2410  177.1020  136.6400 C   0  0  0  0  0  2  0  0  0  0  0  0
  189.4930  176.5030  137.2540 C   0  0  1  0  0  3  0  0  0  0  0  0
  190.4750  176.1820  136.1470 C   0  0  0  0  0  1  0  0  0  0  0  0
  190.1430  177.4950  138.2080 C   0  0  0  0  0  2  0  0  0  0  0  0
  191.1130  176.7940  139.1400 C   0  0  0  0  0  2  0  0  0  0  0  0
  191.1200  177.4390  140.3750 O   0  0  0  0  0  0  0  0  0  0  0  0
  190.2000  176.7290  141.1510 C   0  0  0  0  0  2  0  0  0  0  0  0
  190.3320  177.1040  142.6210 C   0  0  1  0  0  3  0  0  0  0  0  0
  191.6800  178.5940  144.0320 C   0  0  0  0  0  3  0  0  0  0  0  0
  191.4470  176.2530  144.8040 C   0  0  0  0  0  2  0  0  0  0  0  0
  191.2780  177.7250  145.1890 C   0  0  0  0  0  2  0  0  0  0  0  0
  190.7690  175.8920  143.4660 C   0  0  0  0  0  2  0  0  0  0  0  0
  191.2350  178.2940  142.8070 C   0  0  0  0  0  3  0  0  0  0  0  0
  185.4190  179.1860  141.8200 C   0  0  0  0  0  2  0  0  0  0  0  0
  186.4280  178.6950  146.9680 C   0  0  0  0  0  2  0  0  0  0  0  0
  183.3320  179.3600  143.1330 C   0  0  0  0  0  2  0  0  0  0  0  0
  184.4630  178.1280  145.4120 C   0  0  1  0  0  3  0  0  0  0  0  0
  187.7620  178.0200  144.9270 C   0  0  0  0  0  2  0  0  0  0  0  0
  187.5980  177.8750  146.4350 C   0  0  0  0  0  2  0  0  0  0  0  0
  185.4140  178.4840  144.2500 C   0  0  1  0  0  3  0  0  0  0  0  0
  185.1300  177.9200  146.7790 C   0  0  0  0  0  2  0  0  0  0  0  0
  186.5610  177.4850  144.1590 C   0  0  0  0  0  2  0  0  0  0  0  0
  184.6100  178.5430  142.9400 C   0  0  2  0  0  3  0  0  0  0  0  0
  182.6140  178.9100  144.4040 C   0  0  0  0  0  2  0  0  0  0  0  0
  183.4530  179.0980  145.5160 O   0  0  0  0  0  0  0  0  0  0  0  0
  183.9080  179.3830  139.8170 C   0  0  0  0  0  2  0  0  0  0  0  0
  182.7830  178.4370  139.4330 C   0  0  0  0  0  2  0  0  0  0  0  0
  183.0290  177.0520  140.0110 C   0  0  0  0  0  2  0  0  0  0  0  0
  182.3730  174.1990  137.6040 C   0  0  0  0  0  3  0  0  0  0  0  0
  181.0000  173.9920  137.7750 C   0  0  0  0  0  0  0  0  0  0  0  0
  180.9440  175.8050  139.3910 C   0  0  0  0  0  3  0  0  0  0  0  0
  183.0320  175.2000  138.3240 C   0  0  0  0  0  3  0  0  0  0  0  0
  182.3170  176.0070  139.2160 C   0  0  0  0  0  0  0  0  0  0  0  0
  180.2870  174.8020  138.6730 C   0  0  0  0  0  3  0  0  0  0  0  0
  180.1220  173.0840  135.6470 C   0  0  0  0  0  1  0  0  0  0  0  0
  180.3730  172.9800  137.0430 O   0  0  0  0  0  0  0  0  0  0  0  0
  1 33  1  6  0  0  0
  1 21  1  0  0  0  0
  2  3  2  0  0  0  0
  2  1  1  0  0  0  0
  4  2  1  0  0  0  0
  5  4  1  0  0  0  0
  6  5  2  0  0  0  0
  7  5  1  0  0  0  0
  8  9  1  0  0  0  0
  8  7  1  0  0  0  0
  9 10  1  6  0  0  0
  9 11  1  0  0  0  0
 11 12  1  0  0  0  0
 12 13  1  0  0  0  0
 13 14  1  0  0  0  0
 15 14  1  6  0  0  0
 15 20  1  0  0  0  0
 15 19  1  0  0  0  0
 16 18  1  0  0  0  0
 17 18  1  0  0  0  0
 19 17  1  0  0  0  0
 20 16  2  0  0  0  0
 23 31  1  0  0  0  0
 24 32  1  0  0  0  0
 24 28  1  1  0  0  0
 25 26  1  0  0  0  0
 26 22  1  0  0  0  0
 27 29  1  6  0  0  0
 27 24  1  0  0  0  0
 28 22  1  0  0  0  0
 29 25  1  0  0  0  0
 30 21  1  6  0  0  0
 30 23  1  0  0  0  0
 30 27  1  0  0  0  0
 31 32  1  0  0  0  0
 34 33  1  0  0  0  0
 34 35  1  0  0  0  0
 36 37  2  0  0  0  0
 36 39  1  0  0  0  0
 37 41  1  0  0  0  0
 39 40  2  0  0  0  0
 40 38  1  0  0  0  0
 40 35  1  0  0  0  0
 41 38  2  0  0  0  0
 42 43  1  0  0  0  0
 43 37  1  0  0  0  0
M  END
>  <MODEL>
7

>  <REMARK>
 VINA RESULT:      -6.6      2.166      8.836
  Name = 
  18 active torsions:
  status: ('A' for Active; 'I' for Inactive)
    1  A    between atoms: C_1  and  C_34
    2  A    between atoms: C_1  and  C_35
    3  A    between atoms: C_2  and  O_6
    4  A    between atoms: C_2  and  C_27
    5  A    between atoms: C_3  and  C_4
    6  A    between atoms: C_3  and  C_12
    7  A    between atoms: C_4  and  C_15
    8  A    between atoms: O_6  and  C_12
    9  A    between atoms: C_10  and  C_15
   10  A    between atoms: C_10  and  C_41
   11  A    between atoms: C_11  and  C_14
   12  A    between atoms: C_13  and  C_27
   13  A    between atoms: C_13  and  C_30
   14  A    between atoms: C_14  and  O_22
   15  A    between atoms: C_19  and  O_37
   16  A    between atoms: O_22  and  C_41
   17  A    between atoms: C_27  and  C_38
   18  A    between atoms: C_34  and  C_38
                            x       y       z     vdW  Elec       q    Type
                         _______ _______ _______ _____ _____    ______ ____

>  <TORSDO>
F 18

$$$$
=
 OpenBabel10262422423D

 43 46  0  0  1  0  0  0  0  0999 V2000
  184.1440  179.0350  140.8090 C   0  0  1  0  0  3  0  0  0  0  0  0
  184.7600  179.3290  139.4720 C   0  0  0  0  0  0  0  0  0  0  0  0
  184.2830  180.2520  138.7590 O   0  0  0  0  0  0  0  0  0  0  0  0
  185.8920  178.6410  139.0180 O   0  0  0  0  0  0  0  0  0  0  0  0
  186.0390  178.0970  137.7350 C   0  0  0  0  0  0  0  0  0  0  0  0
  185.0470  177.6620  137.0910 O   0  0  0  0  0  0  0  0  0  0  0  0
  187.3810  178.0750  137.0950 C   0  0  0  0  0  2  0  0  0  0  0  0
  187.6990  176.6720  136.6100 C   0  0  0  0  0  2  0  0  0  0  0  0
  188.9140  176.1270  137.3400 C   0  0  1  0  0  3  0  0  0  0  0  0
  190.1250  176.2590  136.4390 C   0  0  0  0  0  1  0  0  0  0  0  0
  189.1670  176.9190  138.6140 C   0  0  0  0  0  2  0  0  0  0  0  0
  190.5630  176.6570  139.1460 C   0  0  0  0  0  2  0  0  0  0  0  0
  190.8200  177.5100  140.2170 O   0  0  0  0  0  0  0  0  0  0  0  0
  189.6190  177.5590  140.9290 C   0  0  0  0  0  2  0  0  0  0  0  0
  189.8590  177.3060  142.4110 C   0  0  1  0  0  3  0  0  0  0  0  0
  190.5990  178.5430  144.3980 C   0  0  0  0  0  3  0  0  0  0  0  0
  191.6700  176.3460  144.0020 C   0  0  0  0  0  2  0  0  0  0  0  0
  190.9080  177.2080  145.0120 C   0  0  0  0  0  2  0  0  0  0  0  0
  190.9830  176.2730  142.6220 C   0  0  0  0  0  2  0  0  0  0  0  0
  190.1060  178.5910  143.1560 C   0  0  0  0  0  3  0  0  0  0  0  0
  183.3920  177.7110  140.7550 C   0  0  0  0  0  2  0  0  0  0  0  0
  179.6750  174.3300  139.1690 C   0  0  0  0  0  2  0  0  0  0  0  0
  181.2260  178.2420  141.8210 C   0  0  0  0  0  2  0  0  0  0  0  0
  179.7360  176.7910  139.9060 C   0  0  1  0  0  3  0  0  0  0  0  0
  181.9110  174.9570  138.1620 C   0  0  0  0  0  2  0  0  0  0  0  0
  180.5690  174.2690  137.9350 C   0  0  0  0  0  2  0  0  0  0  0  0
  181.2730  176.6600  139.8590 C   0  0  1  0  0  3  0  0  0  0  0  0
  178.9500  175.6700  139.2120 C   0  0  0  0  0  2  0  0  0  0  0  0
  181.7590  176.4490  138.4300 C   0  0  0  0  0  2  0  0  0  0  0  0
  181.9050  177.9130  140.4900 C   0  0  2  0  0  3  0  0  0  0  0  0
  179.7090  178.2020  141.6540 C   0  0  0  0  0  2  0  0  0  0  0  0
  179.3080  176.9210  141.2370 O   0  0  0  0  0  0  0  0  0  0  0  0
  185.2180  179.0230  141.8870 C   0  0  0  0  0  2  0  0  0  0  0  0
  184.6200  179.3880  143.2360 C   0  0  0  0  0  2  0  0  0  0  0  0
  184.5300  178.1590  144.1290 C   0  0  0  0  0  2  0  0  0  0  0  0
  186.1010  179.0320  147.4660 C   0  0  0  0  0  3  0  0  0  0  0  0
  187.3170  178.3430  147.3970 C   0  0  0  0  0  0  0  0  0  0  0  0
  186.7250  177.5520  145.1770 C   0  0  0  0  0  3  0  0  0  0  0  0
  185.1990  178.9800  146.3990 C   0  0  0  0  0  3  0  0  0  0  0  0
  185.5110  178.2430  145.2520 C   0  0  0  0  0  0  0  0  0  0  0  0
  187.6260  177.6020  146.2450 C   0  0  0  0  0  3  0  0  0  0  0  0
  189.4890  177.8220  148.4610 C   0  0  0  0  0  1  0  0  0  0  0  0
  188.1950  178.4110  148.4820 O   0  0  0  0  0  0  0  0  0  0  0  0
  1 21  1  6  0  0  0
  1 33  1  0  0  0  0
  2  1  1  0  0  0  0
  3  2  2  0  0  0  0
  4  2  1  0  0  0  0
  5  4  1  0  0  0  0
  6  5  2  0  0  0  0
  7  5  1  0  0  0  0
  8  7  1  0  0  0  0
  8  9  1  0  0  0  0
  9 10  1  6  0  0  0
  9 11  1  0  0  0  0
 11 12  1  0  0  0  0
 12 13  1  0  0  0  0
 13 14  1  0  0  0  0
 15 14  1  6  0  0  0
 15 19  1  0  0  0  0
 15 20  1  0  0  0  0
 16 18  1  0  0  0  0
 17 18  1  0  0  0  0
 19 17  1  0  0  0  0
 20 16  2  0  0  0  0
 22 28  1  0  0  0  0
 24 28  1  1  0  0  0
 24 32  1  0  0  0  0
 25 29  1  0  0  0  0
 26 25  1  0  0  0  0
 26 22  1  0  0  0  0
 27 29  1  6  0  0  0
 27 24  1  0  0  0  0
 27 30  1  0  0  0  0
 30 21  1  1  0  0  0
 30 23  1  0  0  0  0
 31 23  1  0  0  0  0
 32 31  1  0  0  0  0
 33 34  1  0  0  0  0
 34 35  1  0  0  0  0
 35 40  1  0  0  0  0
 37 36  1  0  0  0  0
 37 43  1  0  0  0  0
 38 40  2  0  0  0  0
 38 41  1  0  0  0  0
 39 36  2  0  0  0  0
 40 39  1  0  0  0  0
 41 37  2  0  0  0  0
 42 43  1  0  0  0  0
M  END
>  <MODEL>
8

>  <REMARK>
 VINA RESULT:      -6.6      2.131      6.953
  Name = 
  18 active torsions:
  status: ('A' for Active; 'I' for Inactive)
    1  A    between atoms: C_1  and  C_34
    2  A    between atoms: C_1  and  C_35
    3  A    between atoms: C_2  and  O_6
    4  A    between atoms: C_2  and  C_27
    5  A    between atoms: C_3  and  C_4
    6  A    between atoms: C_3  and  C_12
    7  A    between atoms: C_4  and  C_15
    8  A    between atoms: O_6  and  C_12
    9  A    between atoms: C_10  and  C_15
   10  A    between atoms: C_10  and  C_41
   11  A    between atoms: C_11  and  C_14
   12  A    between atoms: C_13  and  C_27
   13  A    between atoms: C_13  and  C_30
   14  A    between atoms: C_14  and  O_22
   15  A    between atoms: C_19  and  O_37
   16  A    between atoms: O_22  and  C_41
   17  A    between atoms: C_27  and  C_38
   18  A    between atoms: C_34  and  C_38
                            x       y       z     vdW  Elec       q    Type
                         _______ _______ _______ _____ _____    ______ ____

>  <TORSDO>
F 18

$$$$
=
 OpenBabel10262422423D

 43 46  0  0  1  0  0  0  0  0999 V2000
  183.8160  177.5050  138.1860 C   0  0  1  0  0  3  0  0  0  0  0  0
  185.1710  178.1430  138.2840 C   0  0  0  0  0  0  0  0  0  0  0  0
  185.2750  179.3110  138.7450 O   0  0  0  0  0  0  0  0  0  0  0  0
  186.3360  177.4500  137.9290 O   0  0  0  0  0  0  0  0  0  0  0  0
  187.2800  177.8960  136.9940 C   0  0  0  0  0  0  0  0  0  0  0  0
  186.9360  178.2630  135.8390 O   0  0  0  0  0  0  0  0  0  0  0  0
  188.7120  177.9860  137.3830 C   0  0  0  0  0  2  0  0  0  0  0  0
  188.8360  178.6290  138.7520 C   0  0  0  0  0  2  0  0  0  0  0  0
  189.0220  177.5650  139.8190 C   0  0  1  0  0  3  0  0  0  0  0  0
  190.5000  177.4190  140.1120 C   0  0  0  0  0  1  0  0  0  0  0  0
  188.3100  177.9700  141.1010 C   0  0  0  0  0  2  0  0  0  0  0  0
  188.7810  177.1270  142.2710 C   0  0  0  0  0  2  0  0  0  0  0  0
  188.6840  177.8680  143.4470 O   0  0  0  0  0  0  0  0  0  0  0  0
  189.9780  178.3440  143.6730 C   0  0  0  0  0  2  0  0  0  0  0  0
  190.4360  178.0100  145.0860 C   0  0  1  0  0  3  0  0  0  0  0  0
  191.6790  176.2450  146.2550 C   0  0  0  0  0  3  0  0  0  0  0  0
  189.5360  176.9480  147.2760 C   0  0  0  0  0  2  0  0  0  0  0  0
  191.0340  176.7400  147.5160 C   0  0  0  0  0  2  0  0  0  0  0  0
  189.2330  177.7980  146.0240 C   0  0  0  0  0  2  0  0  0  0  0  0
  191.3890  176.8450  145.0960 C   0  0  0  0  0  3  0  0  0  0  0  0
  183.7900  176.5140  137.0280 C   0  0  0  0  0  2  0  0  0  0  0  0
  180.8140  172.4370  135.5180 C   0  0  0  0  0  2  0  0  0  0  0  0
  185.0790  174.4090  137.1510 C   0  0  0  0  0  2  0  0  0  0  0  0
  182.7590  172.7920  137.1600 C   0  0  1  0  0  3  0  0  0  0  0  0
  180.1970  174.7560  136.3190 C   0  0  0  0  0  2  0  0  0  0  0  0
  179.7010  173.3440  136.0290 C   0  0  0  0  0  2  0  0  0  0  0  0
  182.5740  174.3000  136.8930 C   0  0  1  0  0  3  0  0  0  0  0  0
  181.6100  171.8870  136.6960 C   0  0  0  0  0  2  0  0  0  0  0  0
  181.2350  174.7890  137.4330 C   0  0  0  0  0  2  0  0  0  0  0  0
  183.7500  175.0710  137.5170 C   0  0  2  0  0  3  0  0  0  0  0  0
  184.9920  172.9030  137.3900 C   0  0  0  0  0  2  0  0  0  0  0  0
  183.9700  172.3530  136.5970 O   0  0  0  0  0  0  0  0  0  0  0  0
  183.4580  176.8330  139.5030 C   0  0  0  0  0  2  0  0  0  0  0  0
  182.1520  177.3880  140.0450 C   0  0  0  0  0  2  0  0  0  0  0  0
  182.3430  178.8160  140.5350 C   0  0  0  0  0  2  0  0  0  0  0  0
  184.6410  178.8200  143.5490 C   0  0  0  0  0  3  0  0  0  0  0  0
  183.7290  178.9470  144.6020 C   0  0  0  0  0  0  0  0  0  0  0  0
  181.9040  178.9610  143.0000 C   0  0  0  0  0  3  0  0  0  0  0  0
  184.1900  178.7680  142.2270 C   0  0  0  0  0  3  0  0  0  0  0  0
  182.8200  178.8350  141.9510 C   0  0  0  0  0  0  0  0  0  0  0  0
  182.3550  179.0160  144.3210 C   0  0  0  0  0  3  0  0  0  0  0  0
  185.5240  178.5770  146.2640 C   0  0  0  0  0  1  0  0  0  0  0  0
  184.2130  179.0000  145.9130 O   0  0  0  0  0  0  0  0  0  0  0  0
  1 21  1  6  0  0  0
  1  2  1  0  0  0  0
  1 33  1  0  0  0  0
  2  3  2  0  0  0  0
  4  2  1  0  0  0  0
  5  7  1  0  0  0  0
  5  4  1  0  0  0  0
  6  5  2  0  0  0  0
  7  8  1  0  0  0  0
  8  9  1  0  0  0  0
  9 10  1  1  0  0  0
  9 11  1  0  0  0  0
 11 12  1  0  0  0  0
 12 13  1  0  0  0  0
 13 14  1  0  0  0  0
 15 14  1  6  0  0  0
 15 20  1  0  0  0  0
 15 19  1  0  0  0  0
 16 18  1  0  0  0  0
 17 18  1  0  0  0  0
 19 17  1  0  0  0  0
 20 16  2  0  0  0  0
 22 26  1  0  0  0  0
 22 28  1  0  0  0  0
 23 31  1  0  0  0  0
 23 30  1  0  0  0  0
 24 28  1  6  0  0  0
 25 29  1  0  0  0  0
 26 25  1  0  0  0  0
 27 24  1  0  0  0  0
 27 29  1  1  0  0  0
 27 30  1  0  0  0  0
 30 21  1  6  0  0  0
 32 24  1  0  0  0  0
 32 31  1  0  0  0  0
 33 34  1  0  0  0  0
 34 35  1  0  0  0  0
 35 40  1  0  0  0  0
 36 37  1  0  0  0  0
 37 43  1  0  0  0  0
 38 41  1  0  0  0  0
 39 36  2  0  0  0  0
 40 39  1  0  0  0  0
 40 38  2  0  0  0  0
 41 37  2  0  0  0  0
 43 42  1  0  0  0  0
M  END
>  <MODEL>
9

>  <REMARK>
 VINA RESULT:      -6.5      1.989      7.987
  Name = 
  18 active torsions:
  status: ('A' for Active; 'I' for Inactive)
    1  A    between atoms: C_1  and  C_34
    2  A    between atoms: C_1  and  C_35
    3  A    between atoms: C_2  and  O_6
    4  A    between atoms: C_2  and  C_27
    5  A    between atoms: C_3  and  C_4
    6  A    between atoms: C_3  and  C_12
    7  A    between atoms: C_4  and  C_15
    8  A    between atoms: O_6  and  C_12
    9  A    between atoms: C_10  and  C_15
   10  A    between atoms: C_10  and  C_41
   11  A    between atoms: C_11  and  C_14
   12  A    between atoms: C_13  and  C_27
   13  A    between atoms: C_13  and  C_30
   14  A    between atoms: C_14  and  O_22
   15  A    between atoms: C_19  and  O_37
   16  A    between atoms: O_22  and  C_41
   17  A    between atoms: C_27  and  C_38
   18  A    between atoms: C_34  and  C_38
                            x       y       z     vdW  Elec       q    Type
                         _______ _______ _______ _____ _____    ______ ____

>  <TORSDO>
F 18

$$$$
