=
 OpenBabel10252414543D

 34 37  0  0  1  0  0  0  0  0999 V2000
  181.7620  178.4290  140.6860 C   0  0  2  0  0  3  0  0  0  0  0  0
  184.1570  178.4810  141.6390 C   0  0  2  0  0  3  0  0  0  0  0  0
  185.3870  177.8170  141.6360 O   0  0  0  0  0  1  0  0  0  0  0  0
  181.4280  179.3100  141.8970 C   0  0  0  0  0  2  0  0  0  0  0  0
  181.5370  178.7340  144.1750 O   0  0  0  0  0  0  0  0  0  0  0  0
  183.6310  178.5540  143.0770 C   0  0  2  0  0  3  0  0  0  0  0  0
  183.1580  177.7500  140.7290 C   0  0  2  0  0  3  0  0  0  0  0  0
  182.1530  178.8600  143.1280 C   0  0  0  0  0  0  0  0  0  0  0  0
  182.1310  180.3990  139.1500 C   0  0  0  0  0  2  0  0  0  0  0  0
  180.7400  178.6280  138.3240 C   0  0  0  0  0  0  0  0  0  0  0  0
  181.4550  181.0160  137.9270 C   0  0  1  0  0  3  0  0  0  0  0  0
  180.7380  179.6860  136.8990 S   0  0  0  0  0  0  0  0  0  0  0  0
  181.4830  179.1330  139.4310 N   0  0  0  0  0  0  0  0  0  0  0  0
  180.3580  181.9610  138.3750 C   0  0  0  0  0  1  0  0  0  0  0  0
  179.6520  177.4100  138.4570 S   0  0  0  0  0  0  0  0  0  0  0  0
  183.2530  176.4000  138.7620 O   0  0  0  0  0  0  0  0  0  0  0  0
  184.7140  178.2190  138.7780 N   0  0  0  0  0  2  0  0  0  0  0  0
  183.7100  177.4000  139.3770 C   0  0  0  0  0  0  0  0  0  0  0  0
  185.2440  177.9620  137.4510 C   0  0  0  0  0  2  0  0  0  0  0  0
  187.3940  176.5060  135.7830 F   0  0  0  0  0  0  0  0  0  0  0  0
  186.7340  177.9990  137.4980 C   0  0  0  0  0  0  0  0  0  0  0  0
  187.5130  177.8150  136.2140 C   0  0  1  0  0  3  0  0  0  0  0  0
  189.5550  177.5780  137.6440 C   0  0  0  0  0  2  0  0  0  0  0  0
  188.8370  178.2080  138.8330 C   0  0  0  0  0  2  0  0  0  0  0  0
  187.3410  178.1140  138.6910 C   0  0  0  0  0  3  0  0  0  0  0  0
  188.9940  178.1720  136.3590 C   0  0  0  0  0  2  0  0  0  0  0  0
  184.4300  179.5970  143.8530 C   0  0  0  0  0  2  0  0  0  0  0  0
  187.2940  177.7440  145.3750 C   0  0  0  0  0  0  0  0  0  0  0  0
  186.9880  177.7720  146.7370 C   0  0  0  0  0  3  0  0  0  0  0  0
  185.3120  178.9540  144.8690 C   0  0  0  0  0  0  0  0  0  0  0  0
  185.8190  178.4070  147.1620 C   0  0  0  0  0  3  0  0  0  0  0  0
  186.4570  178.3320  144.4770 N   0  0  0  0  0  0  0  0  0  0  0  0
  184.9730  179.0030  146.2260 C   0  0  0  0  0  3  0  0  0  0  0  0
  188.4810  177.1040  144.9260 N   0  0  0  0  0  1  0  0  0  0  0  0
  1 13  1  6  0  0  0
  1  7  1  0  0  0  0
  1  4  1  0  0  0  0
  2  3  1  1  0  0  0
  2  6  1  0  0  0  0
  4  8  1  0  0  0  0
  6  8  1  0  0  0  0
  6 27  1  1  0  0  0
  7 18  1  6  0  0  0
  7  2  1  0  0  0  0
  8  5  2  0  0  0  0
  9 13  1  0  0  0  0
 10 15  2  0  0  0  0
 10 13  1  0  0  0  0
 11 14  1  1  0  0  0
 11  9  1  0  0  0  0
 12 11  1  0  0  0  0
 12 10  1  0  0  0  0
 16 18  2  0  0  0  0
 17 18  1  0  0  0  0
 19 21  1  0  0  0  0
 19 17  1  0  0  0  0
 21 25  2  0  0  0  0
 22 20  1  1  0  0  0
 22 26  1  0  0  0  0
 22 21  1  0  0  0  0
 23 24  1  0  0  0  0
 25 24  1  0  0  0  0
 26 23  1  0  0  0  0
 27 30  1  0  0  0  0
 28 29  1  0  0  0  0
 29 31  2  0  0  0  0
 30 33  2  0  0  0  0
 32 30  1  0  0  0  0
 32 28  2  0  0  0  0
 33 31  1  0  0  0  0
 34 28  1  0  0  0  0
M  END
>  <MODEL>
1

>  <REMARK>
 VINA RESULT:      -7.4      0.000      0.000
  Name = 
  6 active torsions:
  status: ('A' for Active; 'I' for Inactive)
    1  A    between atoms: C_3  and  C_13
    2  A    between atoms: C_3  and  N_17
    3  A    between atoms: C_4  and  N_15
    4  A    between atoms: C_12  and  C_28
    5  A    between atoms: C_26  and  C_28
    6  A    between atoms: C_29  and  C_31
                            x       y       z     vdW  Elec       q    Type
                         _______ _______ _______ _____ _____    ______ ____

>  <TORSDO>
F 6

$$$$
=
 OpenBabel10252414543D

 34 37  0  0  1  0  0  0  0  0999 V2000
  190.3770  177.2770  139.7720 C   0  0  2  0  0  3  0  0  0  0  0  0
  188.1230  177.6240  140.9740 C   0  0  2  0  0  3  0  0  0  0  0  0
  187.0380  178.4950  141.1080 O   0  0  0  0  0  1  0  0  0  0  0  0
  190.6710  176.3180  140.9340 C   0  0  0  0  0  2  0  0  0  0  0  0
  190.9020  176.8420  143.2140 O   0  0  0  0  0  0  0  0  0  0  0  0
  188.7730  177.4190  142.3470 C   0  0  2  0  0  3  0  0  0  0  0  0
  189.1380  178.1910  139.9690 C   0  0  2  0  0  3  0  0  0  0  0  0
  190.1690  176.8550  142.2380 C   0  0  0  0  0  0  0  0  0  0  0  0
  189.1700  176.0060  137.9540 C   0  0  0  0  0  2  0  0  0  0  0  0
  191.4870  176.4960  137.5760 C   0  0  0  0  0  0  0  0  0  0  0  0
  189.5360  175.1120  136.7700 C   0  0  1  0  0  3  0  0  0  0  0  0
  191.1080  175.6920  136.0400 S   0  0  0  0  0  0  0  0  0  0  0  0
  190.3940  176.5680  138.4880 N   0  0  0  0  0  0  0  0  0  0  0  0
  189.6920  173.6810  137.2440 C   0  0  0  0  0  1  0  0  0  0  0  0
  193.0440  176.7430  138.0240 S   0  0  0  0  0  0  0  0  0  0  0  0
  189.1370  179.5100  137.9790 O   0  0  0  0  0  0  0  0  0  0  0  0
  187.2650  178.1440  138.2540 N   0  0  0  0  0  2  0  0  0  0  0  0
  188.5200  178.6690  138.6860 C   0  0  0  0  0  0  0  0  0  0  0  0
  186.6480  178.5280  136.9970 C   0  0  0  0  0  2  0  0  0  0  0  0
  184.3020  177.0920  138.3940 F   0  0  0  0  0  0  0  0  0  0  0  0
  185.7350  177.4410  136.5420 C   0  0  0  0  0  0  0  0  0  0  0  0
  184.3100  177.4200  137.0500 C   0  0  1  0  0  3  0  0  0  0  0  0
  184.1390  175.1180  136.0780 C   0  0  0  0  0  2  0  0  0  0  0  0
  185.3720  175.3560  135.2120 C   0  0  0  0  0  2  0  0  0  0  0  0
  186.2280  176.4670  135.7590 C   0  0  0  0  0  3  0  0  0  0  0  0
  183.4180  176.4430  136.2800 C   0  0  0  0  0  2  0  0  0  0  0  0
  187.8850  176.5140  143.1960 C   0  0  0  0  0  2  0  0  0  0  0  0
  185.7780  178.3790  145.6520 C   0  0  0  0  0  0  0  0  0  0  0  0
  186.6110  178.4620  146.7700 C   0  0  0  0  0  3  0  0  0  0  0  0
  187.4530  177.2010  144.4470 C   0  0  0  0  0  0  0  0  0  0  0  0
  187.8870  177.8980  146.7140 C   0  0  0  0  0  3  0  0  0  0  0  0
  186.2120  177.7550  144.5230 N   0  0  0  0  0  0  0  0  0  0  0  0
  188.3150  177.2620  145.5480 C   0  0  0  0  0  3  0  0  0  0  0  0
  184.4750  178.9460  145.6940 N   0  0  0  0  0  1  0  0  0  0  0  0
  1 13  1  6  0  0  0
  1  7  1  0  0  0  0
  1  4  1  0  0  0  0
  2  3  1  1  0  0  0
  2  6  1  0  0  0  0
  4  8  1  0  0  0  0
  6 27  1  1  0  0  0
  7 18  1  6  0  0  0
  7  2  1  0  0  0  0
  8  6  1  0  0  0  0
  8  5  2  0  0  0  0
  9 13  1  0  0  0  0
 10 15  2  0  0  0  0
 10 13  1  0  0  0  0
 11 14  1  1  0  0  0
 11  9  1  0  0  0  0
 12 11  1  0  0  0  0
 12 10  1  0  0  0  0
 16 18  2  0  0  0  0
 17 18  1  0  0  0  0
 19 17  1  0  0  0  0
 21 19  1  0  0  0  0
 21 22  1  0  0  0  0
 22 20  1  1  0  0  0
 23 26  1  0  0  0  0
 24 25  1  0  0  0  0
 24 23  1  0  0  0  0
 25 21  2  0  0  0  0
 26 22  1  0  0  0  0
 27 30  1  0  0  0  0
 28 34  1  0  0  0  0
 28 29  1  0  0  0  0
 30 32  1  0  0  0  0
 30 33  2  0  0  0  0
 31 29  2  0  0  0  0
 32 28  2  0  0  0  0
 33 31  1  0  0  0  0
M  END
>  <MODEL>
2

>  <REMARK>
 VINA RESULT:      -7.3      4.339      6.771
  Name = 
  6 active torsions:
  status: ('A' for Active; 'I' for Inactive)
    1  A    between atoms: C_3  and  C_13
    2  A    between atoms: C_3  and  N_17
    3  A    between atoms: C_4  and  N_15
    4  A    between atoms: C_12  and  C_28
    5  A    between atoms: C_26  and  C_28
    6  A    between atoms: C_29  and  C_31
                            x       y       z     vdW  Elec       q    Type
                         _______ _______ _______ _____ _____    ______ ____

>  <TORSDO>
F 6

$$$$
=
 OpenBabel10252414543D

 34 37  0  0  1  0  0  0  0  0999 V2000
  189.4020  176.5150  136.0750 C   0  0  2  0  0  3  0  0  0  0  0  0
  191.1160  176.1620  137.9700 C   0  0  2  0  0  3  0  0  0  0  0  0
  191.7980  176.8030  139.0070 O   0  0  0  0  0  1  0  0  0  0  0  0
  190.0320  175.2460  135.4830 C   0  0  0  0  0  2  0  0  0  0  0  0
  192.2320  174.9540  134.7070 O   0  0  0  0  0  0  0  0  0  0  0  0
  192.1350  175.5600  136.9960 C   0  0  2  0  0  3  0  0  0  0  0  0
  190.1930  177.1560  137.2480 C   0  0  2  0  0  3  0  0  0  0  0  0
  191.5190  175.2290  135.6580 C   0  0  0  0  0  0  0  0  0  0  0  0
  187.5620  175.2400  137.2430 C   0  0  0  0  0  2  0  0  0  0  0  0
  186.9100  177.1760  135.9860 C   0  0  0  0  0  0  0  0  0  0  0  0
  186.0440  175.1030  137.1370 C   0  0  1  0  0  3  0  0  0  0  0  0
  185.3260  176.7080  136.6380 S   0  0  0  0  0  0  0  0  0  0  0  0
  187.9790  176.3110  136.3600 N   0  0  0  0  0  0  0  0  0  0  0  0
  185.7000  174.0490  136.1040 C   0  0  0  0  0  1  0  0  0  0  0  0
  187.0170  178.2520  134.7540 S   0  0  0  0  0  0  0  0  0  0  0  0
  189.0410  179.1610  137.8430 O   0  0  0  0  0  0  0  0  0  0  0  0
  188.8670  177.4290  139.3960 N   0  0  0  0  0  2  0  0  0  0  0  0
  189.3490  177.9850  138.1730 C   0  0  0  0  0  0  0  0  0  0  0  0
  188.0020  178.1640  140.3020 C   0  0  0  0  0  2  0  0  0  0  0  0
  186.5080  178.6200  142.9630 F   0  0  0  0  0  0  0  0  0  0  0  0
  188.3460  177.8100  141.7090 C   0  0  0  0  0  0  0  0  0  0  0  0
  187.2300  177.4750  142.6750 C   0  0  1  0  0  3  0  0  0  0  0  0
  188.9440  177.6180  144.4960 C   0  0  0  0  0  2  0  0  0  0  0  0
  190.0780  177.4950  143.4830 C   0  0  0  0  0  2  0  0  0  0  0  0
  189.6300  177.8780  142.0990 C   0  0  0  0  0  3  0  0  0  0  0  0
  187.7360  176.8490  143.9770 C   0  0  0  0  0  2  0  0  0  0  0  0
  192.7630  174.3200  137.6270 C   0  0  0  0  0  2  0  0  0  0  0  0
  196.2150  175.3370  136.6260 C   0  0  0  0  0  0  0  0  0  0  0  0
  197.0190  174.5180  137.4210 C   0  0  0  0  0  3  0  0  0  0  0  0
  194.2520  174.3740  137.5570 C   0  0  0  0  0  0  0  0  0  0  0  0
  196.4160  173.6150  138.2990 C   0  0  0  0  0  3  0  0  0  0  0  0
  194.8590  175.2500  136.7100 N   0  0  0  0  0  0  0  0  0  0  0  0
  195.0240  173.5390  138.3710 C   0  0  0  0  0  3  0  0  0  0  0  0
  196.8130  176.2640  135.7290 N   0  0  0  0  0  1  0  0  0  0  0  0
  1  4  1  1  0  0  0
  1 13  1  0  0  0  0
  1  7  1  0  0  0  0
  2  3  1  1  0  0  0
  4  8  1  0  0  0  0
  5  8  2  0  0  0  0
  6 27  1  1  0  0  0
  6  2  1  0  0  0  0
  7  2  1  0  0  0  0
  7 18  1  1  0  0  0
  8  6  1  0  0  0  0
 10 13  1  0  0  0  0
 10 12  1  0  0  0  0
 11 14  1  6  0  0  0
 11  9  1  0  0  0  0
 12 11  1  0  0  0  0
 13  9  1  0  0  0  0
 15 10  2  0  0  0  0
 16 18  2  0  0  0  0
 17 19  1  0  0  0  0
 18 17  1  0  0  0  0
 19 21  1  0  0  0  0
 21 25  2  0  0  0  0
 21 22  1  0  0  0  0
 22 20  1  1  0  0  0
 22 26  1  0  0  0  0
 24 23  1  0  0  0  0
 25 24  1  0  0  0  0
 26 23  1  0  0  0  0
 28 32  2  0  0  0  0
 28 29  1  0  0  0  0
 29 31  2  0  0  0  0
 30 27  1  0  0  0  0
 30 33  2  0  0  0  0
 31 33  1  0  0  0  0
 32 30  1  0  0  0  0
 34 28  1  0  0  0  0
M  END
>  <MODEL>
3

>  <REMARK>
 VINA RESULT:      -7.2      5.479      9.445
  Name = 
  6 active torsions:
  status: ('A' for Active; 'I' for Inactive)
    1  A    between atoms: C_3  and  C_13
    2  A    between atoms: C_3  and  N_17
    3  A    between atoms: C_4  and  N_15
    4  A    between atoms: C_12  and  C_28
    5  A    between atoms: C_26  and  C_28
    6  A    between atoms: C_29  and  C_31
                            x       y       z     vdW  Elec       q    Type
                         _______ _______ _______ _____ _____    ______ ____

>  <TORSDO>
F 6

$$$$
=
 OpenBabel10252414543D

 34 37  0  0  1  0  0  0  0  0999 V2000
  181.4630  178.5330  140.6080 C   0  0  2  0  0  3  0  0  0  0  0  0
  183.9260  178.5970  141.3680 C   0  0  2  0  0  3  0  0  0  0  0  0
  185.1660  177.9690  141.2290 O   0  0  0  0  0  1  0  0  0  0  0  0
  181.2090  179.3350  141.8920 C   0  0  0  0  0  2  0  0  0  0  0  0
  181.5160  178.6340  144.1160 O   0  0  0  0  0  0  0  0  0  0  0  0
  183.5170  178.5740  142.8460 C   0  0  2  0  0  3  0  0  0  0  0  0
  182.8730  177.8920  140.5000 C   0  0  2  0  0  3  0  0  0  0  0  0
  182.0420  178.8360  143.0330 C   0  0  0  0  0  0  0  0  0  0  0  0
  181.6080  180.6270  139.2030 C   0  0  0  0  0  2  0  0  0  0  0  0
  180.3010  178.8190  138.3210 C   0  0  0  0  0  0  0  0  0  0  0  0
  180.8240  181.2750  138.0630 C   0  0  1  0  0  3  0  0  0  0  0  0
  180.1460  179.9690  136.9790 S   0  0  0  0  0  0  0  0  0  0  0  0
  181.0670  179.3000  139.4230 N   0  0  0  0  0  0  0  0  0  0  0  0
  179.6900  182.1030  138.6330 C   0  0  0  0  0  1  0  0  0  0  0  0
  179.3100  177.5170  138.4200 S   0  0  0  0  0  0  0  0  0  0  0  0
  184.0800  178.4640  138.5210 O   0  0  0  0  0  0  0  0  0  0  0  0
  182.9220  176.4410  138.4160 N   0  0  0  0  0  2  0  0  0  0  0  0
  183.3210  177.6350  139.0900 C   0  0  0  0  0  0  0  0  0  0  0  0
  183.3700  176.1130  137.0740 C   0  0  0  0  0  2  0  0  0  0  0  0
  185.8500  175.7520  135.2740 F   0  0  0  0  0  0  0  0  0  0  0  0
  184.5300  175.1800  137.1540 C   0  0  0  0  0  0  0  0  0  0  0  0
  185.8800  175.6440  136.6530 C   0  0  1  0  0  3  0  0  0  0  0  0
  186.6210  173.2590  136.8470 C   0  0  0  0  0  2  0  0  0  0  0  0
  185.4410  172.9310  137.7550 C   0  0  0  0  0  2  0  0  0  0  0  0
  184.3240  173.9280  137.5940 C   0  0  0  0  0  3  0  0  0  0  0  0
  187.0210  174.7120  137.0660 C   0  0  0  0  0  2  0  0  0  0  0  0
  184.3530  179.5930  143.6160 C   0  0  0  0  0  2  0  0  0  0  0  0
  187.1580  177.6600  145.1470 C   0  0  0  0  0  0  0  0  0  0  0  0
  186.8480  177.6970  146.5090 C   0  0  0  0  0  3  0  0  0  0  0  0
  185.2120  178.9260  144.6350 C   0  0  0  0  0  0  0  0  0  0  0  0
  185.6970  178.3650  146.9290 C   0  0  0  0  0  3  0  0  0  0  0  0
  186.3410  178.2710  144.2460 N   0  0  0  0  0  0  0  0  0  0  0  0
  184.8710  178.9850  145.9900 C   0  0  0  0  0  3  0  0  0  0  0  0
  188.3270  176.9860  144.7030 N   0  0  0  0  0  1  0  0  0  0  0  0
  1 13  1  6  0  0  0
  1  4  1  0  0  0  0
  2  3  1  1  0  0  0
  2  6  1  0  0  0  0
  4  8  1  0  0  0  0
  6  8  1  0  0  0  0
  6 27  1  1  0  0  0
  7 18  1  6  0  0  0
  7  1  1  0  0  0  0
  7  2  1  0  0  0  0
  8  5  2  0  0  0  0
  9 13  1  0  0  0  0
 10 15  2  0  0  0  0
 10 13  1  0  0  0  0
 11 14  1  1  0  0  0
 11  9  1  0  0  0  0
 12 11  1  0  0  0  0
 12 10  1  0  0  0  0
 16 18  2  0  0  0  0
 17 18  1  0  0  0  0
 19 21  1  0  0  0  0
 19 17  1  0  0  0  0
 21 25  2  0  0  0  0
 22 20  1  6  0  0  0
 22 26  1  0  0  0  0
 22 21  1  0  0  0  0
 23 26  1  0  0  0  0
 23 24  1  0  0  0  0
 25 24  1  0  0  0  0
 27 30  1  0  0  0  0
 28 29  1  0  0  0  0
 29 31  2  0  0  0  0
 30 33  2  0  0  0  0
 32 30  1  0  0  0  0
 32 28  2  0  0  0  0
 33 31  1  0  0  0  0
 34 28  1  0  0  0  0
M  END
>  <MODEL>
4

>  <REMARK>
 VINA RESULT:      -7.2      1.832      2.162
  Name = 
  6 active torsions:
  status: ('A' for Active; 'I' for Inactive)
    1  A    between atoms: C_3  and  C_13
    2  A    between atoms: C_3  and  N_17
    3  A    between atoms: C_4  and  N_15
    4  A    between atoms: C_12  and  C_28
    5  A    between atoms: C_26  and  C_28
    6  A    between atoms: C_29  and  C_31
                            x       y       z     vdW  Elec       q    Type
                         _______ _______ _______ _____ _____    ______ ____

>  <TORSDO>
F 6

$$$$
=
 OpenBabel10252414543D

 34 37  0  0  1  0  0  0  0  0999 V2000
  189.4920  177.1330  136.2160 C   0  0  2  0  0  3  0  0  0  0  0  0
  191.0180  176.2870  138.1150 C   0  0  2  0  0  3  0  0  0  0  0  0
  191.6400  176.6540  139.3100 O   0  0  0  0  0  1  0  0  0  0  0  0
  190.1060  175.9750  135.4180 C   0  0  0  0  0  2  0  0  0  0  0  0
  192.3480  175.7040  134.7610 O   0  0  0  0  0  0  0  0  0  0  0  0
  192.0850  175.8320  137.1140 C   0  0  2  0  0  3  0  0  0  0  0  0
  190.2100  177.4660  137.5520 C   0  0  2  0  0  3  0  0  0  0  0  0
  191.5700  175.8240  135.6950 C   0  0  0  0  0  0  0  0  0  0  0  0
  187.1580  178.0880  136.0840 C   0  0  0  0  0  2  0  0  0  0  0  0
  187.3430  175.7440  136.5560 C   0  0  0  0  0  0  0  0  0  0  0  0
  185.7560  177.7060  136.5560 C   0  0  1  0  0  3  0  0  0  0  0  0
  185.5750  175.8880  136.5010 S   0  0  0  0  0  0  0  0  0  0  0  0
  188.0410  176.9690  136.3470 N   0  0  0  0  0  0  0  0  0  0  0  0
  185.5460  178.1960  137.9750 C   0  0  0  0  0  1  0  0  0  0  0  0
  188.0500  174.4090  137.1930 S   0  0  0  0  0  0  0  0  0  0  0  0
  189.0540  179.3620  138.4300 O   0  0  0  0  0  0  0  0  0  0  0  0
  188.7840  177.3930  139.6520 N   0  0  0  0  0  2  0  0  0  0  0  0
  189.3320  178.1410  138.5670 C   0  0  0  0  0  0  0  0  0  0  0  0
  187.8850  177.9790  140.6310 C   0  0  0  0  0  2  0  0  0  0  0  0
  186.6100  178.2850  143.4240 F   0  0  0  0  0  0  0  0  0  0  0  0
  188.4220  177.7410  142.0010 C   0  0  0  0  0  0  0  0  0  0  0  0
  187.4800  177.2640  143.0850 C   0  0  1  0  0  3  0  0  0  0  0  0
  189.3200  177.7570  144.7120 C   0  0  0  0  0  2  0  0  0  0  0  0
  190.3520  177.7830  143.5890 C   0  0  0  0  0  2  0  0  0  0  0  0
  189.7090  178.0350  142.2510 C   0  0  0  0  0  3  0  0  0  0  0  0
  188.2130  176.7810  144.3390 C   0  0  0  0  0  2  0  0  0  0  0  0
  192.5960  174.4500  137.5140 C   0  0  0  0  0  2  0  0  0  0  0  0
  196.0840  174.7550  138.8140 C   0  0  0  0  0  0  0  0  0  0  0  0
  196.8550  174.3530  137.7200 C   0  0  0  0  0  3  0  0  0  0  0  0
  194.0850  174.4210  137.5720 C   0  0  0  0  0  0  0  0  0  0  0  0
  196.2170  173.9790  136.5360 C   0  0  0  0  0  3  0  0  0  0  0  0
  194.7270  174.7800  138.7180 N   0  0  0  0  0  0  0  0  0  0  0  0
  194.8240  174.0110  136.4570 C   0  0  0  0  0  3  0  0  0  0  0  0
  196.7180  175.1360  140.0270 N   0  0  0  0  0  1  0  0  0  0  0  0
  1  4  1  1  0  0  0
  1 13  1  0  0  0  0
  1  7  1  0  0  0  0
  2  3  1  1  0  0  0
  4  8  1  0  0  0  0
  5  8  2  0  0  0  0
  6 27  1  1  0  0  0
  6  2  1  0  0  0  0
  7  2  1  0  0  0  0
  7 18  1  1  0  0  0
  8  6  1  0  0  0  0
  9 13  1  0  0  0  0
  9 11  1  0  0  0  0
 10 15  2  0  0  0  0
 11 14  1  1  0  0  0
 12 10  1  0  0  0  0
 12 11  1  0  0  0  0
 13 10  1  0  0  0  0
 16 18  2  0  0  0  0
 17 19  1  0  0  0  0
 18 17  1  0  0  0  0
 19 21  1  0  0  0  0
 21 25  2  0  0  0  0
 21 22  1  0  0  0  0
 22 20  1  1  0  0  0
 22 26  1  0  0  0  0
 24 23  1  0  0  0  0
 25 24  1  0  0  0  0
 26 23  1  0  0  0  0
 27 30  1  0  0  0  0
 28 34  1  0  0  0  0
 29 28  2  0  0  0  0
 30 32  2  0  0  0  0
 31 29  1  0  0  0  0
 32 28  1  0  0  0  0
 33 31  2  0  0  0  0
 33 30  1  0  0  0  0
M  END
>  <MODEL>
5

>  <REMARK>
 VINA RESULT:      -7.2      5.218      9.205
  Name = 
  6 active torsions:
  status: ('A' for Active; 'I' for Inactive)
    1  A    between atoms: C_3  and  C_13
    2  A    between atoms: C_3  and  N_17
    3  A    between atoms: C_4  and  N_15
    4  A    between atoms: C_12  and  C_28
    5  A    between atoms: C_26  and  C_28
    6  A    between atoms: C_29  and  C_31
                            x       y       z     vdW  Elec       q    Type
                         _______ _______ _______ _____ _____    ______ ____

>  <TORSDO>
F 6

$$$$
=
 OpenBabel10252414543D

 34 37  0  0  1  0  0  0  0  0999 V2000
  187.1420  178.5850  139.7810 C   0  0  2  0  0  3  0  0  0  0  0  0
  185.8640  177.9920  141.9410 C   0  0  2  0  0  3  0  0  0  0  0  0
  184.7980  178.3690  142.7600 O   0  0  0  0  0  1  0  0  0  0  0  0
  188.2800  177.7750  140.4180 C   0  0  0  0  0  2  0  0  0  0  0  0
  189.4820  178.2710  142.3770 O   0  0  0  0  0  0  0  0  0  0  0  0
  187.1580  178.0080  142.7630 C   0  0  2  0  0  3  0  0  0  0  0  0
  185.9710  178.9400  140.7370 C   0  0  2  0  0  3  0  0  0  0  0  0
  188.3890  178.0320  141.8890 C   0  0  0  0  0  0  0  0  0  0  0  0
  185.5780  177.0790  138.4900 C   0  0  0  0  0  2  0  0  0  0  0  0
  187.1950  178.3110  137.2150 C   0  0  0  0  0  0  0  0  0  0  0  0
  185.5370  176.4100  137.1170 C   0  0  1  0  0  3  0  0  0  0  0  0
  186.3370  177.5010  135.8890 S   0  0  0  0  0  0  0  0  0  0  0  0
  186.7130  177.9810  138.5160 N   0  0  0  0  0  0  0  0  0  0  0  0
  186.2710  175.0850  137.1760 C   0  0  0  0  0  1  0  0  0  0  0  0
  188.6460  179.0260  136.9530 S   0  0  0  0  0  0  0  0  0  0  0  0
  184.5690  180.1400  139.2220 O   0  0  0  0  0  0  0  0  0  0  0  0
  183.5540  178.3190  140.2690 N   0  0  0  0  0  2  0  0  0  0  0  0
  184.6640  179.1860  140.0390 C   0  0  0  0  0  0  0  0  0  0  0  0
  182.2850  178.4740  139.5800 C   0  0  0  0  0  2  0  0  0  0  0  0
  180.8050  181.1810  139.6400 F   0  0  0  0  0  0  0  0  0  0  0  0
  181.2760  179.0360  140.5230 C   0  0  0  0  0  0  0  0  0  0  0  0
  180.2190  179.9780  139.9900 C   0  0  1  0  0  3  0  0  0  0  0  0
  179.6620  180.4890  142.3790 C   0  0  0  0  0  2  0  0  0  0  0  0
  180.3870  179.2330  142.8510 C   0  0  0  0  0  2  0  0  0  0  0  0
  181.3850  178.7520  141.8320 C   0  0  0  0  0  3  0  0  0  0  0  0
  179.0890  180.2330  140.9910 C   0  0  0  0  0  2  0  0  0  0  0  0
  187.1770  176.8020  143.6970 C   0  0  0  0  0  2  0  0  0  0  0  0
  189.0000  177.3510  146.9110 C   0  0  0  0  0  0  0  0  0  0  0  0
  188.0410  177.9840  147.7030 C   0  0  0  0  0  3  0  0  0  0  0  0
  187.4650  177.2110  145.1020 C   0  0  0  0  0  0  0  0  0  0  0  0
  186.7730  178.2320  147.1740 C   0  0  0  0  0  3  0  0  0  0  0  0
  188.6960  176.9810  145.6370 N   0  0  0  0  0  0  0  0  0  0  0  0
  186.4790  177.8450  145.8650 C   0  0  0  0  0  3  0  0  0  0  0  0
  190.2970  177.0930  147.4340 N   0  0  0  0  0  1  0  0  0  0  0  0
  1 13  1  6  0  0  0
  1  4  1  0  0  0  0
  1  7  1  0  0  0  0
  2  3  1  1  0  0  0
  2  6  1  0  0  0  0
  4  8  1  0  0  0  0
  6 27  1  6  0  0  0
  7 18  1  6  0  0  0
  7  2  1  0  0  0  0
  8  5  2  0  0  0  0
  8  6  1  0  0  0  0
  9 13  1  0  0  0  0
 10 13  1  0  0  0  0
 11 14  1  1  0  0  0
 11  9  1  0  0  0  0
 12 11  1  0  0  0  0
 12 10  1  0  0  0  0
 15 10  2  0  0  0  0
 16 18  2  0  0  0  0
 18 17  1  0  0  0  0
 19 17  1  0  0  0  0
 19 21  1  0  0  0  0
 21 25  2  0  0  0  0
 22 20  1  1  0  0  0
 22 21  1  0  0  0  0
 22 26  1  0  0  0  0
 23 24  1  0  0  0  0
 25 24  1  0  0  0  0
 26 23  1  0  0  0  0
 27 30  1  0  0  0  0
 28 34  1  0  0  0  0
 28 29  1  0  0  0  0
 30 32  1  0  0  0  0
 30 33  2  0  0  0  0
 31 29  2  0  0  0  0
 32 28  2  0  0  0  0
 33 31  1  0  0  0  0
M  END
>  <MODEL>
6

>  <REMARK>
 VINA RESULT:      -6.9      3.008      6.008
  Name = 
  6 active torsions:
  status: ('A' for Active; 'I' for Inactive)
    1  A    between atoms: C_3  and  C_13
    2  A    between atoms: C_3  and  N_17
    3  A    between atoms: C_4  and  N_15
    4  A    between atoms: C_12  and  C_28
    5  A    between atoms: C_26  and  C_28
    6  A    between atoms: C_29  and  C_31
                            x       y       z     vdW  Elec       q    Type
                         _______ _______ _______ _____ _____    ______ ____

>  <TORSDO>
F 6

$$$$
=
 OpenBabel10252414543D

 34 37  0  0  1  0  0  0  0  0999 V2000
  189.4260  176.5170  139.5240 C   0  0  2  0  0  3  0  0  0  0  0  0
  191.3460  177.3360  141.0380 C   0  0  2  0  0  3  0  0  0  0  0  0
  192.6970  177.1560  141.3420 O   0  0  0  0  0  1  0  0  0  0  0  0
  188.5230  177.1140  140.6120 C   0  0  0  0  0  2  0  0  0  0  0  0
  188.3050  176.4220  142.8490 O   0  0  0  0  0  0  0  0  0  0  0  0
  190.5120  177.0940  142.3020 C   0  0  2  0  0  3  0  0  0  0  0  0
  190.9220  176.3780  139.9140 C   0  0  2  0  0  3  0  0  0  0  0  0
  189.0560  176.8480  141.9860 C   0  0  0  0  0  0  0  0  0  0  0  0
  189.2290  178.6280  138.1520 C   0  0  0  0  0  2  0  0  0  0  0  0
  189.1290  176.5480  136.9610 C   0  0  0  0  0  0  0  0  0  0  0  0
  188.7100  179.0310  136.7730 C   0  0  1  0  0  3  0  0  0  0  0  0
  189.0220  177.6720  135.5910 S   0  0  0  0  0  0  0  0  0  0  0  0
  189.2070  177.1810  138.2360 N   0  0  0  0  0  0  0  0  0  0  0  0
  187.2220  179.3070  136.8510 C   0  0  0  0  0  1  0  0  0  0  0  0
  188.7570  174.9640  136.7680 S   0  0  0  0  0  0  0  0  0  0  0  0
  192.5180  177.4020  138.4630 O   0  0  0  0  0  0  0  0  0  0  0  0
  192.0340  175.1730  137.9750 N   0  0  0  0  0  2  0  0  0  0  0  0
  191.8610  176.3650  138.7410 C   0  0  0  0  0  0  0  0  0  0  0  0
  192.9680  175.0850  136.8660 C   0  0  0  0  0  2  0  0  0  0  0  0
  192.8060  172.0300  136.4690 F   0  0  0  0  0  0  0  0  0  0  0  0
  193.9490  173.9940  137.1310 C   0  0  0  0  0  0  0  0  0  0  0  0
  193.9490  172.7750  136.2360 C   0  0  1  0  0  3  0  0  0  0  0  0
  195.4680  171.7060  137.9170 C   0  0  0  0  0  2  0  0  0  0  0  0
  195.8020  173.0640  138.5270 C   0  0  0  0  0  2  0  0  0  0  0  0
  194.7500  174.0910  138.2060 C   0  0  0  0  0  3  0  0  0  0  0  0
  195.1830  171.8910  136.4330 C   0  0  0  0  0  2  0  0  0  0  0  0
  190.6710  178.2820  143.2460 C   0  0  0  0  0  2  0  0  0  0  0  0
  191.3880  176.7530  146.5780 C   0  0  0  0  0  0  0  0  0  0  0  0
  190.2580  177.0980  147.3230 C   0  0  0  0  0  3  0  0  0  0  0  0
  190.5120  177.8660  144.6690 C   0  0  0  0  0  0  0  0  0  0  0  0
  189.2440  177.8440  146.7190 C   0  0  0  0  0  3  0  0  0  0  0  0
  191.4910  177.1410  145.2770 N   0  0  0  0  0  0  0  0  0  0  0  0
  189.3670  178.2320  145.3840 C   0  0  0  0  0  3  0  0  0  0  0  0
  192.4310  175.9960  147.1780 N   0  0  0  0  0  1  0  0  0  0  0  0
  1 13  1  6  0  0  0
  1  7  1  0  0  0  0
  1  4  1  0  0  0  0
  2  3  1  1  0  0  0
  2  6  1  0  0  0  0
  4  8  1  0  0  0  0
  6 27  1  1  0  0  0
  7 18  1  6  0  0  0
  7  2  1  0  0  0  0
  8  6  1  0  0  0  0
  8  5  2  0  0  0  0
  9 13  1  0  0  0  0
 10 13  1  0  0  0  0
 11 14  1  1  0  0  0
 11  9  1  0  0  0  0
 12 11  1  0  0  0  0
 12 10  1  0  0  0  0
 15 10  2  0  0  0  0
 16 18  2  0  0  0  0
 17 18  1  0  0  0  0
 19 21  1  0  0  0  0
 19 17  1  0  0  0  0
 21 25  2  0  0  0  0
 22 26  1  0  0  0  0
 22 20  1  1  0  0  0
 22 21  1  0  0  0  0
 23 24  1  0  0  0  0
 25 24  1  0  0  0  0
 26 23  1  0  0  0  0
 27 30  1  0  0  0  0
 28 34  1  0  0  0  0
 28 29  1  0  0  0  0
 30 32  1  0  0  0  0
 30 33  2  0  0  0  0
 31 29  2  0  0  0  0
 32 28  2  0  0  0  0
 33 31  1  0  0  0  0
M  END
>  <MODEL>
7

>  <REMARK>
 VINA RESULT:      -6.8      5.370      7.417
  Name = 
  6 active torsions:
  status: ('A' for Active; 'I' for Inactive)
    1  A    between atoms: C_3  and  C_13
    2  A    between atoms: C_3  and  N_17
    3  A    between atoms: C_4  and  N_15
    4  A    between atoms: C_12  and  C_28
    5  A    between atoms: C_26  and  C_28
    6  A    between atoms: C_29  and  C_31
                            x       y       z     vdW  Elec       q    Type
                         _______ _______ _______ _____ _____    ______ ____

>  <TORSDO>
F 6

$$$$
=
 OpenBabel10252414543D

 34 37  0  0  1  0  0  0  0  0999 V2000
  181.2680  178.4560  140.6460 C   0  0  2  0  0  3  0  0  0  0  0  0
  183.7740  178.6050  141.2330 C   0  0  2  0  0  3  0  0  0  0  0  0
  185.0200  178.0100  141.0180 O   0  0  0  0  0  1  0  0  0  0  0  0
  181.0790  179.2740  141.9310 C   0  0  0  0  0  2  0  0  0  0  0  0
  181.5590  178.6240  144.1390 O   0  0  0  0  0  0  0  0  0  0  0  0
  183.4680  178.5980  142.7350 C   0  0  2  0  0  3  0  0  0  0  0  0
  182.6850  177.8530  140.4510 C   0  0  2  0  0  3  0  0  0  0  0  0
  182.0020  178.8210  143.0190 C   0  0  0  0  0  0  0  0  0  0  0  0
  181.1810  180.5590  139.2510 C   0  0  0  0  0  2  0  0  0  0  0  0
  180.0170  178.6440  138.3960 C   0  0  0  0  0  0  0  0  0  0  0  0
  180.3080  181.1390  138.1390 C   0  0  1  0  0  3  0  0  0  0  0  0
  179.7180  179.7820  137.0660 S   0  0  0  0  0  0  0  0  0  0  0  0
  180.7690  179.1890  139.4780 N   0  0  0  0  0  0  0  0  0  0  0  0
  179.1220  181.8590  138.7480 C   0  0  0  0  0  1  0  0  0  0  0  0
  179.1500  177.2590  138.5160 S   0  0  0  0  0  0  0  0  0  0  0  0
  183.6220  178.4760  138.3450 O   0  0  0  0  0  0  0  0  0  0  0  0
  182.7650  176.3080  138.4370 N   0  0  0  0  0  2  0  0  0  0  0  0
  183.0430  177.5820  139.0180 C   0  0  0  0  0  0  0  0  0  0  0  0
  183.1390  175.9710  137.0750 C   0  0  0  0  0  2  0  0  0  0  0  0
  180.9480  173.8140  137.3360 F   0  0  0  0  0  0  0  0  0  0  0  0
  183.1800  174.4880  136.9260 C   0  0  0  0  0  0  0  0  0  0  0  0
  181.9600  173.7700  136.3930 C   0  0  1  0  0  3  0  0  0  0  0  0
  183.0710  171.6390  137.1000 C   0  0  0  0  0  2  0  0  0  0  0  0
  184.4240  172.3370  137.1930 C   0  0  0  0  0  2  0  0  0  0  0  0
  184.2710  173.8260  137.3460 C   0  0  0  0  0  3  0  0  0  0  0  0
  182.2430  172.3140  136.0150 C   0  0  0  0  0  2  0  0  0  0  0  0
  184.3240  179.6540  143.4280 C   0  0  0  0  0  2  0  0  0  0  0  0
  185.9810  179.0600  146.7220 C   0  0  0  0  0  0  0  0  0  0  0  0
  186.7520  177.9210  146.4760 C   0  0  0  0  0  3  0  0  0  0  0  0
  185.1840  179.0460  144.4830 C   0  0  0  0  0  0  0  0  0  0  0  0
  186.7280  177.3420  145.2060 C   0  0  0  0  0  3  0  0  0  0  0  0
  185.2190  179.5940  145.7290 N   0  0  0  0  0  0  0  0  0  0  0  0
  185.9410  177.9040  144.2010 C   0  0  0  0  0  3  0  0  0  0  0  0
  185.9920  179.6610  148.0100 N   0  0  0  0  0  1  0  0  0  0  0  0
  1 13  1  6  0  0  0
  1  4  1  0  0  0  0
  2  3  1  1  0  0  0
  2  6  1  0  0  0  0
  4  8  1  0  0  0  0
  6  8  1  0  0  0  0
  6 27  1  1  0  0  0
  7 18  1  6  0  0  0
  7  1  1  0  0  0  0
  7  2  1  0  0  0  0
  8  5  2  0  0  0  0
  9 13  1  0  0  0  0
 10 15  2  0  0  0  0
 10 13  1  0  0  0  0
 11 14  1  1  0  0  0
 11  9  1  0  0  0  0
 12 11  1  0  0  0  0
 12 10  1  0  0  0  0
 16 18  2  0  0  0  0
 17 18  1  0  0  0  0
 19 17  1  0  0  0  0
 21 19  1  0  0  0  0
 21 25  2  0  0  0  0
 22 21  1  0  0  0  0
 22 20  1  1  0  0  0
 23 24  1  0  0  0  0
 24 25  1  0  0  0  0
 26 22  1  0  0  0  0
 26 23  1  0  0  0  0
 27 30  1  0  0  0  0
 28 34  1  0  0  0  0
 29 28  1  0  0  0  0
 30 32  1  0  0  0  0
 31 29  2  0  0  0  0
 32 28  2  0  0  0  0
 33 30  2  0  0  0  0
 33 31  1  0  0  0  0
M  END
>  <MODEL>
8

>  <REMARK>
 VINA RESULT:      -6.7      2.845      3.605
  Name = 
  6 active torsions:
  status: ('A' for Active; 'I' for Inactive)
    1  A    between atoms: C_3  and  C_13
    2  A    between atoms: C_3  and  N_17
    3  A    between atoms: C_4  and  N_15
    4  A    between atoms: C_12  and  C_28
    5  A    between atoms: C_26  and  C_28
    6  A    between atoms: C_29  and  C_31
                            x       y       z     vdW  Elec       q    Type
                         _______ _______ _______ _____ _____    ______ ____

>  <TORSDO>
F 6

$$$$
=
 OpenBabel10252414543D

 34 37  0  0  1  0  0  0  0  0999 V2000
  188.9340  175.1050  137.1420 C   0  0  2  0  0  3  0  0  0  0  0  0
  187.3690  177.1320  137.4460 C   0  0  2  0  0  3  0  0  0  0  0  0
  186.9650  178.1200  138.3480 O   0  0  0  0  0  1  0  0  0  0  0  0
  187.9570  174.7180  136.0230 C   0  0  0  0  0  2  0  0  0  0  0  0
  185.6920  174.1230  136.2250 O   0  0  0  0  0  0  0  0  0  0  0  0
  186.1470  176.3070  137.0260 C   0  0  2  0  0  3  0  0  0  0  0  0
  188.4390  176.2330  138.0860 C   0  0  2  0  0  3  0  0  0  0  0  0
  186.5350  174.9860  136.4070 C   0  0  0  0  0  0  0  0  0  0  0  0
  191.4170  174.6540  137.2130 C   0  0  0  0  0  2  0  0  0  0  0  0
  190.6160  176.0250  135.4150 C   0  0  0  0  0  0  0  0  0  0  0  0
  192.6910  175.2720  136.6400 C   0  0  1  0  0  3  0  0  0  0  0  0
  192.3370  175.9580  134.9830 S   0  0  0  0  0  0  0  0  0  0  0  0
  190.2820  175.3240  136.6110 N   0  0  0  0  0  0  0  0  0  0  0  0
  193.1760  176.3780  137.5560 C   0  0  0  0  0  1  0  0  0  0  0  0
  189.6260  177.1290  134.7170 S   0  0  0  0  0  0  0  0  0  0  0  0
  189.9350  178.0850  138.2740 O   0  0  0  0  0  0  0  0  0  0  0  0
  190.1160  176.4980  139.9750 N   0  0  0  0  0  2  0  0  0  0  0  0
  189.5440  176.9920  138.7640 C   0  0  0  0  0  0  0  0  0  0  0  0
  191.1470  177.2170  140.7030 C   0  0  0  0  0  2  0  0  0  0  0  0
  188.7290  178.6280  142.0010 F   0  0  0  0  0  0  0  0  0  0  0  0
  190.7310  177.3700  142.1260 C   0  0  0  0  0  0  0  0  0  0  0  0
  189.2560  177.4320  142.4570 C   0  0  1  0  0  3  0  0  0  0  0  0
  189.9390  178.1510  144.7570 C   0  0  0  0  0  2  0  0  0  0  0  0
  191.3590  177.6430  144.5300 C   0  0  0  0  0  2  0  0  0  0  0  0
  191.6800  177.5290  143.0640 C   0  0  0  0  0  3  0  0  0  0  0  0
  188.9740  177.2890  143.9540 C   0  0  0  0  0  2  0  0  0  0  0  0
  185.2920  177.1280  136.0640 C   0  0  0  0  0  2  0  0  0  0  0  0
  182.3950  177.3410  138.4120 C   0  0  0  0  0  0  0  0  0  0  0  0
  181.3180  177.5680  137.5510 C   0  0  0  0  0  3  0  0  0  0  0  0
  183.8980  177.2740  136.5720 C   0  0  0  0  0  0  0  0  0  0  0  0
  181.5490  177.6500  136.1770 C   0  0  0  0  0  3  0  0  0  0  0  0
  183.6510  177.2010  137.9090 N   0  0  0  0  0  0  0  0  0  0  0  0
  182.8450  177.5030  135.6800 C   0  0  0  0  0  3  0  0  0  0  0  0
  182.1770  177.2580  139.8140 N   0  0  0  0  0  1  0  0  0  0  0  0
  1  4  1  6  0  0  0
  1  7  1  0  0  0  0
  2  7  1  0  0  0  0
  2  3  1  1  0  0  0
  4  8  1  0  0  0  0
  5  8  2  0  0  0  0
  6 27  1  6  0  0  0
  6  2  1  0  0  0  0
  7 18  1  6  0  0  0
  8  6  1  0  0  0  0
 10 13  1  0  0  0  0
 11  9  1  0  0  0  0
 11 14  1  1  0  0  0
 12 10  1  0  0  0  0
 12 11  1  0  0  0  0
 13  1  1  0  0  0  0
 13  9  1  0  0  0  0
 15 10  2  0  0  0  0
 16 18  2  0  0  0  0
 17 19  1  0  0  0  0
 18 17  1  0  0  0  0
 19 21  1  0  0  0  0
 21 22  1  0  0  0  0
 21 25  2  0  0  0  0
 22 20  1  1  0  0  0
 22 26  1  0  0  0  0
 24 23  1  0  0  0  0
 25 24  1  0  0  0  0
 26 23  1  0  0  0  0
 27 30  1  0  0  0  0
 28 34  1  0  0  0  0
 29 28  2  0  0  0  0
 30 32  2  0  0  0  0
 31 29  1  0  0  0  0
 32 28  1  0  0  0  0
 33 31  2  0  0  0  0
 33 30  1  0  0  0  0
M  END
>  <MODEL>
9

>  <REMARK>
 VINA RESULT:      -6.6      4.467      8.780
  Name = 
  6 active torsions:
  status: ('A' for Active; 'I' for Inactive)
    1  A    between atoms: C_3  and  C_13
    2  A    between atoms: C_3  and  N_17
    3  A    between atoms: C_4  and  N_15
    4  A    between atoms: C_12  and  C_28
    5  A    between atoms: C_26  and  C_28
    6  A    between atoms: C_29  and  C_31
                            x       y       z     vdW  Elec       q    Type
                         _______ _______ _______ _____ _____    ______ ____

>  <TORSDO>
F 6

$$$$
