=
 OpenBabel10262419563D

 25 28  0  0  1  0  0  0  0  0999 V2000
  186.2720  178.1070  145.0670 C   0  0  0  0  0  0  0  0  0  0  0  0
  186.1400  177.8400  143.7660 C   0  0  0  0  0  0  0  0  0  0  0  0
  184.1350  179.0610  145.3000 N   0  0  0  0  0  0  0  0  0  0  0  0
  187.3150  177.9150  145.9470 C   0  0  0  0  0  0  0  0  0  0  0  0
  188.9960  177.8490  148.1470 C   0  0  0  0  0  3  0  0  0  0  0  0
  183.7660  178.7400  143.9120 C   0  0  0  0  0  2  0  0  0  0  0  0
  186.8940  178.4380  147.1530 C   0  0  0  0  0  0  0  0  0  0  0  0
  187.7160  178.4190  148.2780 C   0  0  0  0  0  3  0  0  0  0  0  0
  189.4250  177.3210  146.9110 C   0  0  0  0  0  3  0  0  0  0  0  0
  185.2860  178.7280  145.8000 C   0  0  0  0  0  0  0  0  0  0  0  0
  185.6450  178.9480  147.0840 N   0  0  0  0  0  2  0  0  0  0  0  0
  188.5800  177.3520  145.7880 C   0  0  0  0  0  3  0  0  0  0  0  0
  184.9090  178.2450  143.1240 N   0  0  0  0  0  0  0  0  0  0  0  0
  184.7030  178.0500  141.6960 C   0  0  0  0  0  2  0  0  0  0  0  0
  184.7020  179.7100  139.9930 O   0  0  0  0  0  1  0  0  0  0  0  0
  183.9910  179.2500  141.0990 C   0  0  0  0  0  2  0  0  0  0  0  0
  187.2290  177.1520  142.9960 C   0  0  0  0  0  2  0  0  0  0  0  0
  188.9250  177.6160  140.0260 C   0  0  0  0  0  0  0  0  0  0  0  0
  187.9580  178.1150  142.1840 N   0  0  0  0  0  0  0  0  0  0  0  0
  188.7450  176.5100  139.0060 C   0  0  0  0  0  1  0  0  0  0  0  0
  189.3250  178.9080  139.3250 C   0  0  0  0  0  1  0  0  0  0  0  0
  189.3800  177.8340  142.3660 C   0  0  0  0  0  2  0  0  0  0  0  0
  191.2090  177.6080  140.8390 O   0  0  0  0  0  1  0  0  0  0  0  0
  187.6360  177.8410  140.7820 C   0  0  0  0  0  2  0  0  0  0  0  0
  189.9010  177.1920  141.1000 C   0  0  2  0  0  3  0  0  0  0  0  0
  1 10  1  0  0  0  0
  1  4  1  0  0  0  0
  2  1  2  0  0  0  0
  3 10  2  0  0  0  0
  4  7  1  0  0  0  0
  5  8  1  0  0  0  0
  6  3  1  0  0  0  0
  7  8  2  0  0  0  0
  9  5  2  0  0  0  0
 10 11  1  0  0  0  0
 11  7  1  0  0  0  0
 12  4  2  0  0  0  0
 12  9  1  0  0  0  0
 13  2  1  0  0  0  0
 13  6  1  0  0  0  0
 14 13  1  0  0  0  0
 15 16  1  0  0  0  0
 16 14  1  0  0  0  0
 17  2  1  0  0  0  0
 18 24  1  0  0  0  0
 18 25  1  0  0  0  0
 19 22  1  0  0  0  0
 19 17  1  0  0  0  0
 20 18  1  0  0  0  0
 21 18  1  0  0  0  0
 24 19  1  0  0  0  0
 25 23  1  6  0  0  0
 25 22  1  0  0  0  0
M  END
>  <MODEL>
1

>  <REMARK>
 VINA RESULT:      -8.5      0.000      0.000
  Name = 
  4 active torsions:
  status: ('A' for Active; 'I' for Inactive)
    1  A    between atoms: C_3  and  C_16
    2  A    between atoms: N_6  and  C_16
    3  A    between atoms: C_13  and  C_20
    4  A    between atoms: C_13  and  N_24
                            x       y       z     vdW  Elec       q    Type
                         _______ _______ _______ _____ _____    ______ ____

>  <TORSDO>
F 4

$$$$
=
 OpenBabel10262419563D

 25 28  0  0  1  0  0  0  0  0999 V2000
  187.0830  177.7860  144.8140 C   0  0  0  0  0  0  0  0  0  0  0  0
  188.1700  177.1750  144.3380 C   0  0  0  0  0  0  0  0  0  0  0  0
  187.9670  178.1320  146.9660 N   0  0  0  0  0  0  0  0  0  0  0  0
  185.8640  178.0780  144.2420 C   0  0  0  0  0  0  0  0  0  0  0  0
  183.2680  178.8910  143.7170 C   0  0  0  0  0  3  0  0  0  0  0  0
  189.2820  177.5910  146.5870 C   0  0  0  0  0  2  0  0  0  0  0  0
  185.1120  178.6730  145.2350 C   0  0  0  0  0  0  0  0  0  0  0  0
  183.8040  179.0940  145.0030 C   0  0  0  0  0  3  0  0  0  0  0  0
  184.0380  178.2780  142.7060 C   0  0  0  0  0  3  0  0  0  0  0  0
  186.9930  178.2300  146.1140 C   0  0  0  0  0  0  0  0  0  0  0  0
  185.7880  178.7740  146.4010 N   0  0  0  0  0  2  0  0  0  0  0  0
  185.3550  177.8600  142.9630 C   0  0  0  0  0  3  0  0  0  0  0  0
  189.2720  176.9690  145.2500 N   0  0  0  0  0  0  0  0  0  0  0  0
  190.4730  176.2570  144.8350 C   0  0  0  0  0  2  0  0  0  0  0  0
  192.1450  175.5530  146.3730 O   0  0  0  0  0  1  0  0  0  0  0  0
  191.6520  176.6680  145.6970 C   0  0  0  0  0  2  0  0  0  0  0  0
  188.2430  176.7130  142.9120 C   0  0  0  0  0  2  0  0  0  0  0  0
  188.9910  177.6070  139.6630 C   0  0  0  0  0  0  0  0  0  0  0  0
  188.7650  177.7740  142.0630 N   0  0  0  0  0  0  0  0  0  0  0  0
  188.4250  176.6880  138.5990 C   0  0  0  0  0  1  0  0  0  0  0  0
  189.2590  178.9840  139.0700 C   0  0  0  0  0  1  0  0  0  0  0  0
  190.1490  177.4270  141.7510 C   0  0  0  0  0  2  0  0  0  0  0  0
  191.4060  177.4020  139.7150 O   0  0  0  0  0  1  0  0  0  0  0  0
  188.0130  177.7410  140.8070 C   0  0  0  0  0  2  0  0  0  0  0  0
  190.2100  176.9860  140.3060 C   0  0  2  0  0  3  0  0  0  0  0  0
  1 10  1  0  0  0  0
  2  1  2  0  0  0  0
  2 13  1  0  0  0  0
  4  1  1  0  0  0  0
  4  7  1  0  0  0  0
  5  8  1  0  0  0  0
  6  3  1  0  0  0  0
  7 11  1  0  0  0  0
  8  7  2  0  0  0  0
  9 12  1  0  0  0  0
  9  5  2  0  0  0  0
 10 11  1  0  0  0  0
 10  3  2  0  0  0  0
 12  4  2  0  0  0  0
 13  6  1  0  0  0  0
 14 13  1  0  0  0  0
 14 16  1  0  0  0  0
 16 15  1  0  0  0  0
 17  2  1  0  0  0  0
 18 25  1  0  0  0  0
 18 24  1  0  0  0  0
 19 17  1  0  0  0  0
 20 18  1  0  0  0  0
 21 18  1  0  0  0  0
 22 19  1  0  0  0  0
 24 19  1  0  0  0  0
 25 23  1  6  0  0  0
 25 22  1  0  0  0  0
M  END
>  <MODEL>
2

>  <REMARK>
 VINA RESULT:      -8.5      1.896      4.482
  Name = 
  4 active torsions:
  status: ('A' for Active; 'I' for Inactive)
    1  A    between atoms: C_3  and  C_16
    2  A    between atoms: N_6  and  C_16
    3  A    between atoms: C_13  and  C_20
    4  A    between atoms: C_13  and  N_24
                            x       y       z     vdW  Elec       q    Type
                         _______ _______ _______ _____ _____    ______ ____

>  <TORSDO>
F 4

$$$$
=
 OpenBabel10262419563D

 25 28  0  0  1  0  0  0  0  0999 V2000
  186.4190  178.1640  145.1090 C   0  0  0  0  0  0  0  0  0  0  0  0
  186.4510  177.7620  143.8370 C   0  0  0  0  0  0  0  0  0  0  0  0
  184.6050  179.6320  144.8150 N   0  0  0  0  0  0  0  0  0  0  0  0
  187.2010  177.8450  146.1980 C   0  0  0  0  0  0  0  0  0  0  0  0
  188.3910  177.6720  148.6930 C   0  0  0  0  0  3  0  0  0  0  0  0
  184.4140  179.2250  143.4140 C   0  0  0  0  0  2  0  0  0  0  0  0
  186.7300  178.6140  147.2420 C   0  0  0  0  0  0  0  0  0  0  0  0
  187.3060  178.5490  148.5090 C   0  0  0  0  0  3  0  0  0  0  0  0
  188.8740  176.8910  147.6220 C   0  0  0  0  0  3  0  0  0  0  0  0
  185.5200  179.1000  145.5670 C   0  0  0  0  0  0  0  0  0  0  0  0
  185.6930  179.4000  146.8740 N   0  0  0  0  0  2  0  0  0  0  0  0
  188.2790  176.9740  146.3510 C   0  0  0  0  0  3  0  0  0  0  0  0
  185.5050  178.3630  142.9240 N   0  0  0  0  0  0  0  0  0  0  0  0
  185.5090  178.0310  141.5060 C   0  0  0  0  0  2  0  0  0  0  0  0
  184.9230  179.6930  139.9090 O   0  0  0  0  0  1  0  0  0  0  0  0
  184.3850  178.7590  140.7930 C   0  0  0  0  0  2  0  0  0  0  0  0
  187.4360  176.7300  143.3690 C   0  0  0  0  0  2  0  0  0  0  0  0
  190.8370  177.0450  142.8730 C   0  0  0  0  0  0  0  0  0  0  0  0
  188.4620  177.3500  142.5440 N   0  0  0  0  0  0  0  0  0  0  0  0
  191.6900  176.0490  143.6310 C   0  0  0  0  0  1  0  0  0  0  0  0
  191.6000  177.5650  141.6610 C   0  0  0  0  0  1  0  0  0  0  0  0
  188.9770  178.4930  143.2940 C   0  0  0  0  0  2  0  0  0  0  0  0
  191.1900  179.2690  143.7730 O   0  0  0  0  0  1  0  0  0  0  0  0
  189.5580  176.3880  142.4090 C   0  0  0  0  0  2  0  0  0  0  0  0
  190.3600  178.1440  143.7960 C   0  0  2  0  0  3  0  0  0  0  0  0
  1 10  1  0  0  0  0
  1  4  1  0  0  0  0
  2  1  2  0  0  0  0
  3 10  2  0  0  0  0
  4 12  2  0  0  0  0
  4  7  1  0  0  0  0
  6  3  1  0  0  0  0
  7  8  2  0  0  0  0
  8  5  1  0  0  0  0
  9  5  2  0  0  0  0
 10 11  1  0  0  0  0
 11  7  1  0  0  0  0
 12  9  1  0  0  0  0
 13  6  1  0  0  0  0
 13  2  1  0  0  0  0
 14 13  1  0  0  0  0
 15 16  1  0  0  0  0
 16 14  1  0  0  0  0
 17  2  1  0  0  0  0
 18 20  1  0  0  0  0
 18 25  1  0  0  0  0
 19 22  1  0  0  0  0
 19 17  1  0  0  0  0
 21 18  1  0  0  0  0
 22 25  1  0  0  0  0
 24 19  1  0  0  0  0
 24 18  1  0  0  0  0
 25 23  1  6  0  0  0
M  END
>  <MODEL>
3

>  <REMARK>
 VINA RESULT:      -8.4      1.557      1.922
  Name = 
  4 active torsions:
  status: ('A' for Active; 'I' for Inactive)
    1  A    between atoms: C_3  and  C_16
    2  A    between atoms: N_6  and  C_16
    3  A    between atoms: C_13  and  C_20
    4  A    between atoms: C_13  and  N_24
                            x       y       z     vdW  Elec       q    Type
                         _______ _______ _______ _____ _____    ______ ____

>  <TORSDO>
F 4

$$$$
=
 OpenBabel10262419563D

 25 28  0  0  1  0  0  0  0  0999 V2000
  186.9090  178.0730  142.8580 C   0  0  0  0  0  0  0  0  0  0  0  0
  186.7900  178.4020  141.5710 C   0  0  0  0  0  0  0  0  0  0  0  0
  188.9870  177.0010  142.6040 N   0  0  0  0  0  0  0  0  0  0  0  0
  186.0810  178.2700  143.9420 C   0  0  0  0  0  0  0  0  0  0  0  0
  184.8910  178.3020  146.4430 C   0  0  0  0  0  3  0  0  0  0  0  0
  189.0840  177.3760  141.1840 C   0  0  0  0  0  2  0  0  0  0  0  0
  186.7060  177.6630  145.0120 C   0  0  0  0  0  0  0  0  0  0  0  0
  186.1340  177.6620  146.2820 C   0  0  0  0  0  3  0  0  0  0  0  0
  184.2520  178.9180  145.3450 C   0  0  0  0  0  3  0  0  0  0  0  0
  187.9850  177.3650  143.3440 C   0  0  0  0  0  0  0  0  0  0  0  0
  187.8820  177.0940  144.6650 N   0  0  0  0  0  2  0  0  0  0  0  0
  184.8470  178.9050  144.0720 C   0  0  0  0  0  3  0  0  0  0  0  0
  187.8370  177.9710  140.6720 N   0  0  0  0  0  0  0  0  0  0  0  0
  187.7590  178.2320  139.2410 C   0  0  0  0  0  2  0  0  0  0  0  0
  188.9640  179.5050  137.6340 O   0  0  0  0  0  1  0  0  0  0  0  0
  189.1220  178.6270  138.7050 C   0  0  0  0  0  2  0  0  0  0  0  0
  185.6100  179.1850  141.0720 C   0  0  0  0  0  2  0  0  0  0  0  0
  182.8110  179.1410  139.0530 C   0  0  0  0  0  0  0  0  0  0  0  0
  184.7740  178.3510  140.2210 N   0  0  0  0  0  0  0  0  0  0  0  0
  182.2660  180.5050  138.6840 C   0  0  0  0  0  1  0  0  0  0  0  0
  182.3720  178.1090  138.0210 C   0  0  0  0  0  1  0  0  0  0  0  0
  183.5930  177.9960  141.0050 C   0  0  0  0  0  2  0  0  0  0  0  0
  181.2490  178.0110  140.5240 O   0  0  0  0  0  1  0  0  0  0  0  0
  184.3210  179.1800  139.1020 C   0  0  0  0  0  2  0  0  0  0  0  0
  182.4160  178.7770  140.4670 C   0  0  2  0  0  3  0  0  0  0  0  0
  1 10  1  0  0  0  0
  1  4  1  0  0  0  0
  2  1  2  0  0  0  0
  3 10  2  0  0  0  0
  4 12  2  0  0  0  0
  4  7  1  0  0  0  0
  6  3  1  0  0  0  0
  7  8  2  0  0  0  0
  8  5  1  0  0  0  0
  9  5  2  0  0  0  0
 10 11  1  0  0  0  0
 11  7  1  0  0  0  0
 12  9  1  0  0  0  0
 13  6  1  0  0  0  0
 13  2  1  0  0  0  0
 14 13  1  0  0  0  0
 15 16  1  0  0  0  0
 16 14  1  0  0  0  0
 17  2  1  0  0  0  0
 18 24  1  0  0  0  0
 18 25  1  0  0  0  0
 19 22  1  0  0  0  0
 19 17  1  0  0  0  0
 20 18  1  0  0  0  0
 21 18  1  0  0  0  0
 24 19  1  0  0  0  0
 25 23  1  6  0  0  0
 25 22  1  0  0  0  0
M  END
>  <MODEL>
4

>  <REMARK>
 VINA RESULT:      -8.2      2.293      5.183
  Name = 
  4 active torsions:
  status: ('A' for Active; 'I' for Inactive)
    1  A    between atoms: C_3  and  C_16
    2  A    between atoms: N_6  and  C_16
    3  A    between atoms: C_13  and  C_20
    4  A    between atoms: C_13  and  N_24
                            x       y       z     vdW  Elec       q    Type
                         _______ _______ _______ _____ _____    ______ ____

>  <TORSDO>
F 4

$$$$
=
 OpenBabel10262419563D

 25 28  0  0  1  0  0  0  0  0999 V2000
  188.3470  177.3430  145.0770 C   0  0  0  0  0  0  0  0  0  0  0  0
  187.6450  177.3730  143.9420 C   0  0  0  0  0  0  0  0  0  0  0  0
  186.6940  178.4090  146.3680 N   0  0  0  0  0  0  0  0  0  0  0  0
  189.6100  176.8770  145.3700 C   0  0  0  0  0  0  0  0  0  0  0  0
  192.0110  176.1970  146.5710 C   0  0  0  0  0  3  0  0  0  0  0  0
  185.7360  178.4250  145.2510 C   0  0  0  0  0  2  0  0  0  0  0  0
  189.8210  177.1650  146.7030 C   0  0  0  0  0  0  0  0  0  0  0  0
  191.0180  176.8350  147.3360 C   0  0  0  0  0  3  0  0  0  0  0  0
  191.7940  175.9080  145.2060 C   0  0  0  0  0  3  0  0  0  0  0  0
  187.8730  177.8770  146.2540 C   0  0  0  0  0  0  0  0  0  0  0  0
  188.7630  177.7860  147.2680 N   0  0  0  0  0  2  0  0  0  0  0  0
  190.5800  176.2520  144.5870 C   0  0  0  0  0  3  0  0  0  0  0  0
  186.3490  178.0110  143.9760 N   0  0  0  0  0  0  0  0  0  0  0  0
  185.5410  178.1440  142.7710 C   0  0  0  0  0  2  0  0  0  0  0  0
  183.3520  178.6310  141.9800 O   0  0  0  0  0  1  0  0  0  0  0  0
  184.1470  178.6290  143.1240 C   0  0  0  0  0  2  0  0  0  0  0  0
  188.1840  176.7720  142.6760 C   0  0  0  0  0  2  0  0  0  0  0  0
  188.9280  177.6390  139.4200 C   0  0  0  0  0  0  0  0  0  0  0  0
  188.7430  177.8100  141.8230 N   0  0  0  0  0  0  0  0  0  0  0  0
  188.3050  176.7500  138.3620 C   0  0  0  0  0  1  0  0  0  0  0  0
  189.2510  179.0040  138.8250 C   0  0  0  0  0  1  0  0  0  0  0  0
  190.1050  177.3990  141.4910 C   0  0  0  0  0  2  0  0  0  0  0  0
  191.3310  177.3210  139.4370 O   0  0  0  0  0  1  0  0  0  0  0  0
  187.9730  177.8160  140.5770 C   0  0  0  0  0  2  0  0  0  0  0  0
  190.1260  176.9590  140.0440 C   0  0  2  0  0  3  0  0  0  0  0  0
  1  4  1  0  0  0  0
  1 10  1  0  0  0  0
  2 13  1  0  0  0  0
  2  1  2  0  0  0  0
  4  7  1  0  0  0  0
  5  8  1  0  0  0  0
  6  3  1  0  0  0  0
  7 11  1  0  0  0  0
  7  8  2  0  0  0  0
  9  5  2  0  0  0  0
 10  3  2  0  0  0  0
 10 11  1  0  0  0  0
 12  9  1  0  0  0  0
 12  4  2  0  0  0  0
 13  6  1  0  0  0  0
 14 16  1  0  0  0  0
 14 13  1  0  0  0  0
 15 16  1  0  0  0  0
 17  2  1  0  0  0  0
 18 25  1  0  0  0  0
 18 24  1  0  0  0  0
 19 17  1  0  0  0  0
 20 18  1  0  0  0  0
 21 18  1  0  0  0  0
 22 19  1  0  0  0  0
 24 19  1  0  0  0  0
 25 23  1  6  0  0  0
 25 22  1  0  0  0  0
M  END
>  <MODEL>
5

>  <REMARK>
 VINA RESULT:      -8.0      1.605      2.256
  Name = 
  4 active torsions:
  status: ('A' for Active; 'I' for Inactive)
    1  A    between atoms: C_3  and  C_16
    2  A    between atoms: N_6  and  C_16
    3  A    between atoms: C_13  and  C_20
    4  A    between atoms: C_13  and  N_24
                            x       y       z     vdW  Elec       q    Type
                         _______ _______ _______ _____ _____    ______ ____

>  <TORSDO>
F 4

$$$$
=
 OpenBabel10262419563D

 25 28  0  0  1  0  0  0  0  0999 V2000
  188.1090  177.7120  144.1350 C   0  0  0  0  0  0  0  0  0  0  0  0
  187.9320  178.1170  142.8760 C   0  0  0  0  0  0  0  0  0  0  0  0
  185.8210  177.7210  144.6790 N   0  0  0  0  0  0  0  0  0  0  0  0
  189.2450  177.4230  144.8600 C   0  0  0  0  0  0  0  0  0  0  0  0
  191.0820  176.7580  146.8230 C   0  0  0  0  0  3  0  0  0  0  0  0
  185.4250  178.0570  143.3010 C   0  0  0  0  0  2  0  0  0  0  0  0
  188.8120  177.1060  146.1320 C   0  0  0  0  0  0  0  0  0  0  0  0
  189.7110  176.7660  147.1410 C   0  0  0  0  0  3  0  0  0  0  0  0
  191.5220  177.0880  145.5230 C   0  0  0  0  0  3  0  0  0  0  0  0
  187.0630  177.5440  145.0130 C   0  0  0  0  0  0  0  0  0  0  0  0
  187.4680  177.1780  146.2500 N   0  0  0  0  0  2  0  0  0  0  0  0
  190.5970  177.4290  144.5210 C   0  0  0  0  0  3  0  0  0  0  0  0
  186.5790  178.4000  142.4510 N   0  0  0  0  0  0  0  0  0  0  0  0
  186.2980  178.9060  141.1140 C   0  0  0  0  0  2  0  0  0  0  0  0
  184.5540  179.8280  139.7860 O   0  0  0  0  0  1  0  0  0  0  0  0
  184.8010  179.0370  140.9070 C   0  0  0  0  0  2  0  0  0  0  0  0
  189.0920  178.2800  141.9380 C   0  0  0  0  0  2  0  0  0  0  0  0
  190.8560  176.8190  139.3570 C   0  0  0  0  0  0  0  0  0  0  0  0
  189.0520  177.2570  140.9040 N   0  0  0  0  0  0  0  0  0  0  0  0
  192.3290  177.1700  139.3070 C   0  0  0  0  0  1  0  0  0  0  0  0
  190.6140  175.4970  138.6370 C   0  0  0  0  0  1  0  0  0  0  0  0
  188.7590  177.9370  139.6440 C   0  0  0  0  0  2  0  0  0  0  0  0
  189.7200  177.8080  137.4570 O   0  0  0  0  0  1  0  0  0  0  0  0
  190.3990  176.6930  140.7910 C   0  0  0  0  0  2  0  0  0  0  0  0
  190.0220  177.9570  138.8130 C   0  0  2  0  0  3  0  0  0  0  0  0
  1  4  1  0  0  0  0
  1 10  1  0  0  0  0
  2  1  2  0  0  0  0
  3 10  2  0  0  0  0
  4  7  1  0  0  0  0
  5  8  1  0  0  0  0
  6  3  1  0  0  0  0
  7 11  1  0  0  0  0
  7  8  2  0  0  0  0
  9  5  2  0  0  0  0
 10 11  1  0  0  0  0
 12  4  2  0  0  0  0
 12  9  1  0  0  0  0
 13  2  1  0  0  0  0
 13  6  1  0  0  0  0
 14 13  1  0  0  0  0
 15 16  1  0  0  0  0
 16 14  1  0  0  0  0
 17  2  1  0  0  0  0
 18 24  1  0  0  0  0
 19 17  1  0  0  0  0
 20 18  1  0  0  0  0
 21 18  1  0  0  0  0
 22 19  1  0  0  0  0
 24 19  1  0  0  0  0
 25 23  1  6  0  0  0
 25 18  1  0  0  0  0
 25 22  1  0  0  0  0
M  END
>  <MODEL>
6

>  <REMARK>
 VINA RESULT:      -8.0      1.759      2.480
  Name = 
  4 active torsions:
  status: ('A' for Active; 'I' for Inactive)
    1  A    between atoms: C_3  and  C_16
    2  A    between atoms: N_6  and  C_16
    3  A    between atoms: C_13  and  C_20
    4  A    between atoms: C_13  and  N_24
                            x       y       z     vdW  Elec       q    Type
                         _______ _______ _______ _____ _____    ______ ____

>  <TORSDO>
F 4

$$$$
=
 OpenBabel10262419563D

 25 28  0  0  1  0  0  0  0  0999 V2000
  187.3480  177.9920  142.1860 C   0  0  0  0  0  0  0  0  0  0  0  0
  186.6330  177.8550  143.3050 C   0  0  0  0  0  0  0  0  0  0  0  0
  185.7360  179.2920  141.0700 N   0  0  0  0  0  0  0  0  0  0  0  0
  188.5840  177.5090  141.8160 C   0  0  0  0  0  0  0  0  0  0  0  0
  190.9140  176.8330  140.4800 C   0  0  0  0  0  3  0  0  0  0  0  0
  184.8620  179.3470  142.2530 C   0  0  0  0  0  2  0  0  0  0  0  0
  188.7830  177.9320  140.5170 C   0  0  0  0  0  0  0  0  0  0  0  0
  189.9450  177.6090  139.8190 C   0  0  0  0  0  3  0  0  0  0  0  0
  190.7050  176.3970  141.8060 C   0  0  0  0  0  3  0  0  0  0  0  0
  186.8820  178.6820  141.0900 C   0  0  0  0  0  0  0  0  0  0  0  0
  187.7430  178.6560  140.0480 N   0  0  0  0  0  2  0  0  0  0  0  0
  189.5250  176.7330  142.4910 C   0  0  0  0  0  3  0  0  0  0  0  0
  185.3160  178.4500  143.3310 N   0  0  0  0  0  0  0  0  0  0  0  0
  184.4420  178.2990  144.4870 C   0  0  0  0  0  2  0  0  0  0  0  0
  182.0970  178.6470  144.2930 O   0  0  0  0  0  1  0  0  0  0  0  0
  183.3140  179.3120  144.4290 C   0  0  0  0  0  2  0  0  0  0  0  0
  187.1720  177.1060  144.4880 C   0  0  0  0  0  2  0  0  0  0  0  0
  189.3150  177.5390  147.1590 C   0  0  0  0  0  0  0  0  0  0  0  0
  187.6150  178.0370  145.5160 N   0  0  0  0  0  0  0  0  0  0  0  0
  190.3950  176.4850  147.2920 C   0  0  0  0  0  1  0  0  0  0  0  0
  189.7510  178.8200  147.8600 C   0  0  0  0  0  1  0  0  0  0  0  0
  186.9570  177.6420  146.7590 C   0  0  0  0  0  2  0  0  0  0  0  0
  187.7460  177.3300  148.9960 O   0  0  0  0  0  1  0  0  0  0  0  0
  189.0530  177.8360  145.7010 C   0  0  0  0  0  2  0  0  0  0  0  0
  187.9910  177.0060  147.6590 C   0  0  2  0  0  3  0  0  0  0  0  0
  1  2  2  0  0  0  0
  2 13  1  0  0  0  0
  2 17  1  0  0  0  0
  3 10  2  0  0  0  0
  3  6  1  0  0  0  0
  4  1  1  0  0  0  0
  4 12  1  0  0  0  0
  5  9  1  0  0  0  0
  6 13  1  0  0  0  0
  7  4  2  0  0  0  0
  8  5  2  0  0  0  0
  8  7  1  0  0  0  0
  9 12  2  0  0  0  0
 10  1  1  0  0  0  0
 11  7  1  0  0  0  0
 11 10  1  0  0  0  0
 13 14  1  0  0  0  0
 15 16  1  0  0  0  0
 16 14  1  0  0  0  0
 17 19  1  0  0  0  0
 18 20  1  0  0  0  0
 18 25  1  0  0  0  0
 18 21  1  0  0  0  0
 19 24  1  0  0  0  0
 19 22  1  0  0  0  0
 22 25  1  0  0  0  0
 24 18  1  0  0  0  0
 25 23  1  1  0  0  0
M  END
>  <MODEL>
7

>  <REMARK>
 VINA RESULT:      -7.8      2.448      5.633
  Name = 
  4 active torsions:
  status: ('A' for Active; 'I' for Inactive)
    1  A    between atoms: C_3  and  C_16
    2  A    between atoms: N_6  and  C_16
    3  A    between atoms: C_13  and  C_20
    4  A    between atoms: C_13  and  N_24
                            x       y       z     vdW  Elec       q    Type
                         _______ _______ _______ _____ _____    ______ ____

>  <TORSDO>
F 4

$$$$
=
 OpenBabel10262419563D

 25 28  0  0  1  0  0  0  0  0999 V2000
  186.8270  178.0680  142.7250 C   0  0  0  0  0  0  0  0  0  0  0  0
  187.9810  177.4060  142.8250 C   0  0  0  0  0  0  0  0  0  0  0  0
  187.1760  178.7530  140.5020 N   0  0  0  0  0  0  0  0  0  0  0  0
  185.8100  178.2920  143.6270 C   0  0  0  0  0  0  0  0  0  0  0  0
  183.5130  179.1200  144.9360 C   0  0  0  0  0  3  0  0  0  0  0  0
  188.4240  177.9820  140.3880 C   0  0  0  0  0  2  0  0  0  0  0  0
  184.8950  179.0940  142.9760 C   0  0  0  0  0  0  0  0  0  0  0  0
  183.7300  179.5260  143.6070 C   0  0  0  0  0  3  0  0  0  0  0  0
  184.4540  178.3040  145.6010 C   0  0  0  0  0  3  0  0  0  0  0  0
  186.4580  178.7440  141.5840 C   0  0  0  0  0  0  0  0  0  0  0  0
  185.2760  179.3880  141.7140 N   0  0  0  0  0  2  0  0  0  0  0  0
  185.6240  177.8810  144.9460 C   0  0  0  0  0  3  0  0  0  0  0  0
  188.8650  177.4290  141.6810 N   0  0  0  0  0  0  0  0  0  0  0  0
  190.1710  176.7860  141.7230 C   0  0  0  0  0  2  0  0  0  0  0  0
  192.1740  177.5720  140.7100 O   0  0  0  0  0  1  0  0  0  0  0  0
  190.9200  177.0330  140.4270 C   0  0  0  0  0  2  0  0  0  0  0  0
  188.3510  176.6690  144.0790 C   0  0  0  0  0  2  0  0  0  0  0  0
  190.4030  176.7370  146.8540 C   0  0  0  0  0  0  0  0  0  0  0  0
  189.1280  177.5290  144.9590 N   0  0  0  0  0  0  0  0  0  0  0  0
  190.9160  175.3850  147.3050 C   0  0  0  0  0  1  0  0  0  0  0  0
  191.3340  177.8370  147.3490 C   0  0  0  0  0  1  0  0  0  0  0  0
  188.3330  177.7270  146.1690 C   0  0  0  0  0  2  0  0  0  0  0  0
  188.8540  177.6110  148.5020 O   0  0  0  0  0  1  0  0  0  0  0  0
  190.3320  176.7900  145.3450 C   0  0  0  0  0  2  0  0  0  0  0  0
  188.9670  176.9300  147.2870 C   0  0  2  0  0  3  0  0  0  0  0  0
  1  2  2  0  0  0  0
  1  4  1  0  0  0  0
  2 17  1  0  0  0  0
  3 10  2  0  0  0  0
  4 12  1  0  0  0  0
  5  9  1  0  0  0  0
  6  3  1  0  0  0  0
  6 13  1  0  0  0  0
  7  8  1  0  0  0  0
  7  4  2  0  0  0  0
  8  5  2  0  0  0  0
 10 11  1  0  0  0  0
 10  1  1  0  0  0  0
 11  7  1  0  0  0  0
 12  9  2  0  0  0  0
 13 14  1  0  0  0  0
 13  2  1  0  0  0  0
 16 15  1  0  0  0  0
 16 14  1  0  0  0  0
 17 19  1  0  0  0  0
 18 25  1  0  0  0  0
 18 20  1  0  0  0  0
 18 21  1  0  0  0  0
 19 24  1  0  0  0  0
 19 22  1  0  0  0  0
 22 25  1  0  0  0  0
 24 18  1  0  0  0  0
 25 23  1  1  0  0  0
M  END
>  <MODEL>
8

>  <REMARK>
 VINA RESULT:      -7.7      2.306      5.628
  Name = 
  4 active torsions:
  status: ('A' for Active; 'I' for Inactive)
    1  A    between atoms: C_3  and  C_16
    2  A    between atoms: N_6  and  C_16
    3  A    between atoms: C_13  and  C_20
    4  A    between atoms: C_13  and  N_24
                            x       y       z     vdW  Elec       q    Type
                         _______ _______ _______ _____ _____    ______ ____

>  <TORSDO>
F 4

$$$$
=
 OpenBabel10262419563D

 25 28  0  0  1  0  0  0  0  0999 V2000
  185.4110  178.2600  144.7180 C   0  0  0  0  0  0  0  0  0  0  0  0
  186.5730  177.6980  145.0540 C   0  0  0  0  0  0  0  0  0  0  0  0
  184.9120  179.0130  146.8900 N   0  0  0  0  0  0  0  0  0  0  0  0
  184.7350  178.3390  143.5200 C   0  0  0  0  0  0  0  0  0  0  0  0
  182.9030  178.7990  141.4940 C   0  0  0  0  0  3  0  0  0  0  0  0
  186.2080  178.5560  147.4190 C   0  0  0  0  0  2  0  0  0  0  0  0
  183.5530  178.9980  143.7940 C   0  0  0  0  0  0  0  0  0  0  0  0
  182.6120  179.2450  142.7960 C   0  0  0  0  0  3  0  0  0  0  0  0
  184.1100  178.1210  141.2180 C   0  0  0  0  0  3  0  0  0  0  0  0
  184.5970  178.8830  145.6380 C   0  0  0  0  0  0  0  0  0  0  0  0
  183.4450  179.3400  145.0960 N   0  0  0  0  0  2  0  0  0  0  0  0
  185.0440  177.8810  142.2410 C   0  0  0  0  0  3  0  0  0  0  0  0
  186.9590  177.7430  146.4460 N   0  0  0  0  0  0  0  0  0  0  0  0
  188.1800  177.1010  146.9130 C   0  0  0  0  0  2  0  0  0  0  0  0
  190.2720  177.7160  147.8610 O   0  0  0  0  0  1  0  0  0  0  0  0
  188.9090  178.0060  147.8880 C   0  0  0  0  0  2  0  0  0  0  0  0
  187.4440  177.0360  144.0260 C   0  0  0  0  0  2  0  0  0  0  0  0
  190.4460  177.2940  142.3420 C   0  0  0  0  0  0  0  0  0  0  0  0
  188.7930  177.5810  144.0810 N   0  0  0  0  0  0  0  0  0  0  0  0
  190.4020  176.8730  140.8870 C   0  0  0  0  0  1  0  0  0  0  0  0
  191.6130  178.2460  142.5730 C   0  0  0  0  0  1  0  0  0  0  0  0
  189.6790  176.4840  144.4610 C   0  0  0  0  0  2  0  0  0  0  0  0
  191.7760  175.7090  143.6070 O   0  0  0  0  0  1  0  0  0  0  0  0
  189.1580  177.9860  142.7220 C   0  0  0  0  0  2  0  0  0  0  0  0
  190.4790  176.0800  143.2430 C   0  0  2  0  0  3  0  0  0  0  0  0
  1  2  2  0  0  0  0
  1 10  1  0  0  0  0
  2 13  1  0  0  0  0
  3  6  1  0  0  0  0
  4  7  1  0  0  0  0
  4  1  1  0  0  0  0
  5  8  1  0  0  0  0
  7 11  1  0  0  0  0
  8  7  2  0  0  0  0
  9  5  2  0  0  0  0
  9 12  1  0  0  0  0
 10  3  2  0  0  0  0
 11 10  1  0  0  0  0
 12  4  2  0  0  0  0
 13 14  1  0  0  0  0
 13  6  1  0  0  0  0
 14 16  1  0  0  0  0
 15 16  1  0  0  0  0
 17 19  1  0  0  0  0
 17  2  1  0  0  0  0
 18 21  1  0  0  0  0
 18 24  1  0  0  0  0
 18 25  1  0  0  0  0
 19 22  1  0  0  0  0
 20 18  1  0  0  0  0
 24 19  1  0  0  0  0
 25 23  1  1  0  0  0
 25 22  1  0  0  0  0
M  END
>  <MODEL>
9

>  <REMARK>
 VINA RESULT:      -7.6      2.369      4.840
  Name = 
  4 active torsions:
  status: ('A' for Active; 'I' for Inactive)
    1  A    between atoms: C_3  and  C_16
    2  A    between atoms: N_6  and  C_16
    3  A    between atoms: C_13  and  C_20
    4  A    between atoms: C_13  and  N_24
                            x       y       z     vdW  Elec       q    Type
                         _______ _______ _______ _____ _____    ______ ____

>  <TORSDO>
F 4

$$$$
