=
 OpenBabel10262421173D

 32 35  0  0  1  0  0  0  0  0999 V2000
  185.8910  177.9330  144.3280 C   0  0  0  0  0  3  0  0  0  0  0  0
  185.2440  178.7840  145.2260 C   0  0  0  0  0  0  0  0  0  0  0  0
  187.0820  177.2950  144.6910 C   0  0  0  0  0  0  0  0  0  0  0  0
  187.6360  177.5140  145.9660 C   0  0  0  0  0  0  0  0  0  0  0  0
  186.9750  178.3670  146.8650 C   0  0  0  0  0  3  0  0  0  0  0  0
  185.7810  178.9950  146.4980 C   0  0  0  0  0  3  0  0  0  0  0  0
  187.7610  176.4080  143.7000 C   0  0  0  0  0  2  0  0  0  0  0  0
  188.1290  177.1820  142.4800 C   0  0  0  0  0  0  0  0  0  0  0  0
  189.4560  178.2940  138.3280 C   0  0  0  0  0  2  0  0  0  0  0  0
  189.2090  176.9620  141.8140 N   0  0  0  0  0  0  0  0  0  0  0  0
  187.1450  178.2780  139.4370 C   0  0  0  0  0  2  0  0  0  0  0  0
  187.9760  178.5930  140.6880 C   0  0  1  0  0  3  0  0  0  0  0  0
  187.2690  178.1510  141.8840 N   0  0  0  0  0  2  0  0  0  0  0  0
  189.2040  177.8080  140.7060 N   0  0  0  0  0  0  0  0  0  0  0  0
  187.9820  177.9120  138.1980 C   0  0  0  0  0  2  0  0  0  0  0  0
  190.0580  177.5980  139.5440 C   0  0  0  0  0  2  0  0  0  0  0  0
  188.8340  176.8810  146.3170 O   0  0  0  0  0  0  0  0  0  0  0  0
  189.6500  177.3200  147.3940 C   0  0  0  0  0  2  0  0  0  0  0  0
  191.0160  176.6780  147.2840 C   0  0  0  0  0  2  0  0  0  0  0  0
  191.4870  176.7410  145.8470 C   0  0  0  0  0  1  0  0  0  0  0  0
  183.9480  179.4130  144.8490 C   0  0  0  0  0  2  0  0  0  0  0  0
  183.0990  178.4520  144.2970 O   0  0  0  0  0  0  0  0  0  0  0  0
  182.3300  179.1470  143.3610 C   0  0  0  0  0  2  0  0  0  0  0  0
  180.9430  178.5520  141.2380 C   0  0  2  0  0  0  0  0  0  0  0  0
  182.2590  178.0070  139.1180 C   0  0  0  0  0  2  0  0  0  0  0  0
  179.8210  177.9690  142.0780 C   0  0  0  0  0  1  0  0  0  0  0  0
  183.5150  178.6680  141.1710 C   0  0  0  0  0  2  0  0  0  0  0  0
  181.0030  177.7220  139.9450 C   0  0  0  0  0  2  0  0  0  0  0  0
  182.2740  178.4030  142.0240 C   0  0  1  0  0  3  0  0  0  0  0  0
  183.5110  177.7580  139.9490 C   0  0  0  0  0  2  0  0  0  0  0  0
  180.5730  179.9860  140.9350 C   0  0  0  0  0  3  0  0  0  0  0  0
  179.4630  180.5760  141.3860 C   0  0  0  0  0  2  0  0  0  0  0  0
  1  3  2  0  0  0  0
  1  2  1  0  0  0  0
  2  6  2  0  0  0  0
  3  4  1  0  0  0  0
  4 17  1  0  0  0  0
  4  5  2  0  0  0  0
  6  5  1  0  0  0  0
  7  3  1  0  0  0  0
  8  7  1  0  0  0  0
  9 16  1  0  0  0  0
 10  8  2  0  0  0  0
 12 11  1  6  0  0  0
 12 14  1  0  0  0  0
 12 13  1  0  0  0  0
 13  8  1  0  0  0  0
 14 10  1  0  0  0  0
 15  9  1  0  0  0  0
 15 11  1  0  0  0  0
 16 14  1  0  0  0  0
 17 18  1  0  0  0  0
 19 18  1  0  0  0  0
 20 19  1  0  0  0  0
 21  2  1  0  0  0  0
 22 21  1  0  0  0  0
 23 22  1  0  0  0  0
 24 29  1  0  0  0  0
 24 26  1  1  0  0  0
 25 28  1  0  0  0  0
 25 30  1  0  0  0  0
 27 29  1  0  0  0  0
 28 24  1  0  0  0  0
 29 23  1  1  0  0  0
 30 27  1  0  0  0  0
 31 24  1  0  0  0  0
 31 32  2  0  0  0  0
M  END
>  <MODEL>
1

>  <REMARK>
 VINA RESULT:      -8.1      0.000      0.000
  Name = 
  10 active torsions:
  status: ('A' for Active; 'I' for Inactive)
    1  A    between atoms: C_2  and  C_5
    2  A    between atoms: C_2  and  C_6
    3  A    between atoms: C_3  and  C_22
    4  A    between atoms: C_4  and  C_27
    5  A    between atoms: C_13  and  C_29
    6  A    between atoms: C_14  and  O_18
    7  A    between atoms: C_16  and  C_20
    8  A    between atoms: C_16  and  O_24
    9  A    between atoms: O_18  and  C_29
   10  A    between atoms: O_24  and  C_27
                            x       y       z     vdW  Elec       q    Type
                         _______ _______ _______ _____ _____    ______ ____

>  <TORSDO>
F 10

$$$$
=
 OpenBabel10262421173D

 32 35  0  0  1  0  0  0  0  0999 V2000
  187.6500  178.1380  139.1630 C   0  0  0  0  0  3  0  0  0  0  0  0
  188.7090  177.2910  138.8280 C   0  0  0  0  0  0  0  0  0  0  0  0
  186.4480  178.0850  138.4490 C   0  0  0  0  0  0  0  0  0  0  0  0
  186.3040  177.1770  137.3830 C   0  0  0  0  0  0  0  0  0  0  0  0
  187.3720  176.3250  137.0570 C   0  0  0  0  0  3  0  0  0  0  0  0
  188.5670  176.3780  137.7800 C   0  0  0  0  0  3  0  0  0  0  0  0
  185.3430  179.0190  138.8180 C   0  0  0  0  0  2  0  0  0  0  0  0
  184.8860  178.7550  140.2110 C   0  0  0  0  0  0  0  0  0  0  0  0
  183.4460  179.2860  144.4400 C   0  0  0  0  0  2  0  0  0  0  0  0
  185.3670  179.3770  141.2330 N   0  0  0  0  0  0  0  0  0  0  0  0
  182.2480  178.5080  142.3120 C   0  0  0  0  0  2  0  0  0  0  0  0
  183.6480  177.9800  141.9700 C   0  0  1  0  0  3  0  0  0  0  0  0
  183.8060  177.8780  140.5250 N   0  0  0  0  0  2  0  0  0  0  0  0
  184.6740  178.9390  142.3600 N   0  0  0  0  0  0  0  0  0  0  0  0
  182.1980  179.3990  143.5660 C   0  0  0  0  0  2  0  0  0  0  0  0
  184.6770  179.6640  143.6240 C   0  0  0  0  0  2  0  0  0  0  0  0
  185.1020  177.1390  136.6670 O   0  0  0  0  0  0  0  0  0  0  0  0
  184.3880  175.9340  136.4260 C   0  0  0  0  0  2  0  0  0  0  0  0
  183.6460  175.5310  137.6820 C   0  0  0  0  0  2  0  0  0  0  0  0
  182.3330  176.2820  137.7530 C   0  0  0  0  0  1  0  0  0  0  0  0
  189.9620  177.3180  139.6310 C   0  0  0  0  0  2  0  0  0  0  0  0
  189.6740  177.6890  140.9460 O   0  0  0  0  0  0  0  0  0  0  0  0
  189.9590  176.5550  141.7090 C   0  0  0  0  0  2  0  0  0  0  0  0
  190.0530  177.2740  144.2110 C   0  0  2  0  0  0  0  0  0  0  0  0
  187.8200  177.7400  145.3600 C   0  0  0  0  0  2  0  0  0  0  0  0
  191.3200  176.4720  144.4430 C   0  0  0  0  0  1  0  0  0  0  0  0
  187.8180  177.1270  142.9400 C   0  0  0  0  0  2  0  0  0  0  0  0
  189.2470  177.2140  145.5200 C   0  0  0  0  0  2  0  0  0  0  0  0
  189.2490  176.6030  143.0650 C   0  0  1  0  0  3  0  0  0  0  0  0
  187.0880  176.9690  144.2680 C   0  0  0  0  0  2  0  0  0  0  0  0
  190.4740  178.6940  143.9080 C   0  0  0  0  0  3  0  0  0  0  0  0
  191.7020  179.1660  144.1310 C   0  0  0  0  0  2  0  0  0  0  0  0
  2  1  1  0  0  0  0
  2 21  1  0  0  0  0
  3  7  1  0  0  0  0
  3  1  2  0  0  0  0
  4  3  1  0  0  0  0
  5  4  2  0  0  0  0
  5  6  1  0  0  0  0
  6  2  2  0  0  0  0
  7  8  1  0  0  0  0
  8 13  1  0  0  0  0
  8 10  2  0  0  0  0
 10 14  1  0  0  0  0
 11 15  1  0  0  0  0
 12 11  1  6  0  0  0
 12 14  1  0  0  0  0
 13 12  1  0  0  0  0
 14 16  1  0  0  0  0
 15  9  1  0  0  0  0
 16  9  1  0  0  0  0
 17  4  1  0  0  0  0
 18 17  1  0  0  0  0
 18 19  1  0  0  0  0
 19 20  1  0  0  0  0
 21 22  1  0  0  0  0
 22 23  1  0  0  0  0
 24 26  1  1  0  0  0
 24 28  1  0  0  0  0
 25 28  1  0  0  0  0
 27 29  1  0  0  0  0
 27 30  1  0  0  0  0
 29 23  1  6  0  0  0
 29 24  1  0  0  0  0
 30 25  1  0  0  0  0
 31 32  2  0  0  0  0
 31 24  1  0  0  0  0
M  END
>  <MODEL>
2

>  <REMARK>
 VINA RESULT:      -8.0      2.576      8.426
  Name = 
  10 active torsions:
  status: ('A' for Active; 'I' for Inactive)
    1  A    between atoms: C_2  and  C_5
    2  A    between atoms: C_2  and  C_6
    3  A    between atoms: C_3  and  C_22
    4  A    between atoms: C_4  and  C_27
    5  A    between atoms: C_13  and  C_29
    6  A    between atoms: C_14  and  O_18
    7  A    between atoms: C_16  and  C_20
    8  A    between atoms: C_16  and  O_24
    9  A    between atoms: O_18  and  C_29
   10  A    between atoms: O_24  and  C_27
                            x       y       z     vdW  Elec       q    Type
                         _______ _______ _______ _____ _____    ______ ____

>  <TORSDO>
F 10

$$$$
=
 OpenBabel10262421173D

 32 35  0  0  1  0  0  0  0  0999 V2000
  189.3620  176.8460  141.1280 C   0  0  0  0  0  3  0  0  0  0  0  0
  190.4180  177.3160  140.3440 C   0  0  0  0  0  0  0  0  0  0  0  0
  189.5630  176.5500  142.4810 C   0  0  0  0  0  0  0  0  0  0  0  0
  190.8350  176.7220  143.0560 C   0  0  0  0  0  0  0  0  0  0  0  0
  191.8900  177.2010  142.2610 C   0  0  0  0  0  3  0  0  0  0  0  0
  191.6800  177.5020  140.9130 C   0  0  0  0  0  3  0  0  0  0  0  0
  188.4190  176.0290  143.2870 C   0  0  0  0  0  2  0  0  0  0  0  0
  187.4840  177.1360  143.6360 C   0  0  0  0  0  0  0  0  0  0  0  0
  183.7670  179.5910  144.2670 C   0  0  0  0  0  2  0  0  0  0  0  0
  186.5480  177.5340  142.8450 N   0  0  0  0  0  0  0  0  0  0  0  0
  185.3160  178.3800  145.9120 C   0  0  0  0  0  2  0  0  0  0  0  0
  186.3660  178.7200  144.8470 C   0  0  1  0  0  3  0  0  0  0  0  0
  187.4720  177.7730  144.9120 N   0  0  0  0  0  2  0  0  0  0  0  0
  185.8280  178.5270  143.5060 N   0  0  0  0  0  0  0  0  0  0  0  0
  183.8660  178.6770  145.4880 C   0  0  0  0  0  2  0  0  0  0  0  0
  184.4970  178.9520  143.0910 C   0  0  0  0  0  2  0  0  0  0  0  0
  191.0300  176.4130  144.4070 O   0  0  0  0  0  0  0  0  0  0  0  0
  191.2330  177.4060  145.4030 C   0  0  0  0  0  2  0  0  0  0  0  0
  190.7950  176.8670  146.7470 C   0  0  0  0  0  2  0  0  0  0  0  0
  191.8510  175.9210  147.2790 C   0  0  0  0  0  1  0  0  0  0  0  0
  190.1780  177.6800  138.9200 C   0  0  0  0  0  2  0  0  0  0  0  0
  189.1640  178.6370  138.8410 O   0  0  0  0  0  0  0  0  0  0  0  0
  188.8710  178.7360  137.4790 C   0  0  0  0  0  2  0  0  0  0  0  0
  187.1980  177.2020  136.2020 C   0  0  2  0  0  0  0  0  0  0  0  0
  184.9110  176.8420  137.2810 C   0  0  0  0  0  2  0  0  0  0  0  0
  187.7860  177.5970  134.8600 C   0  0  0  0  0  1  0  0  0  0  0  0
  186.5990  178.2310  138.4850 C   0  0  0  0  0  2  0  0  0  0  0  0
  185.6940  176.9750  135.9740 C   0  0  0  0  0  2  0  0  0  0  0  0
  187.4100  178.3750  137.1970 C   0  0  1  0  0  3  0  0  0  0  0  0
  185.1200  178.0720  138.1540 C   0  0  0  0  0  2  0  0  0  0  0  0
  187.8730  175.9170  136.6240 C   0  0  0  0  0  3  0  0  0  0  0  0
  187.7470  174.7630  135.9650 C   0  0  0  0  0  2  0  0  0  0  0  0
  1  3  1  0  0  0  0
  2  6  1  0  0  0  0
  2  1  2  0  0  0  0
  3  4  2  0  0  0  0
  3  7  1  0  0  0  0
  4 17  1  0  0  0  0
  5  4  1  0  0  0  0
  6  5  2  0  0  0  0
  7  8  1  0  0  0  0
  8 13  1  0  0  0  0
  9 15  1  0  0  0  0
 10 14  1  0  0  0  0
 10  8  2  0  0  0  0
 12 13  1  0  0  0  0
 12 11  1  1  0  0  0
 14 12  1  0  0  0  0
 15 11  1  0  0  0  0
 16 14  1  0  0  0  0
 16  9  1  0  0  0  0
 17 18  1  0  0  0  0
 18 19  1  0  0  0  0
 19 20  1  0  0  0  0
 21  2  1  0  0  0  0
 22 21  1  0  0  0  0
 23 22  1  0  0  0  0
 24 26  1  6  0  0  0
 24 31  1  0  0  0  0
 24 29  1  0  0  0  0
 25 30  1  0  0  0  0
 28 24  1  0  0  0  0
 28 25  1  0  0  0  0
 29 23  1  1  0  0  0
 29 27  1  0  0  0  0
 30 27  1  0  0  0  0
 32 31  2  0  0  0  0
M  END
>  <MODEL>
3

>  <REMARK>
 VINA RESULT:      -7.9      2.863      6.317
  Name = 
  10 active torsions:
  status: ('A' for Active; 'I' for Inactive)
    1  A    between atoms: C_2  and  C_5
    2  A    between atoms: C_2  and  C_6
    3  A    between atoms: C_3  and  C_22
    4  A    between atoms: C_4  and  C_27
    5  A    between atoms: C_13  and  C_29
    6  A    between atoms: C_14  and  O_18
    7  A    between atoms: C_16  and  C_20
    8  A    between atoms: C_16  and  O_24
    9  A    between atoms: O_18  and  C_29
   10  A    between atoms: O_24  and  C_27
                            x       y       z     vdW  Elec       q    Type
                         _______ _______ _______ _____ _____    ______ ____

>  <TORSDO>
F 10

$$$$
=
 OpenBabel10262421173D

 32 35  0  0  1  0  0  0  0  0999 V2000
  189.1430  177.6490  138.9340 C   0  0  0  0  0  3  0  0  0  0  0  0
  188.1530  177.2690  138.0260 C   0  0  0  0  0  0  0  0  0  0  0  0
  190.3260  176.9100  139.0420 C   0  0  0  0  0  0  0  0  0  0  0  0
  190.5200  175.7740  138.2360 C   0  0  0  0  0  0  0  0  0  0  0  0
  189.5210  175.4020  137.3200 C   0  0  0  0  0  3  0  0  0  0  0  0
  188.3460  176.1500  137.2130 C   0  0  0  0  0  3  0  0  0  0  0  0
  191.3560  177.3310  140.0390 C   0  0  0  0  0  2  0  0  0  0  0  0
  190.8630  177.0890  141.4240 C   0  0  0  0  0  0  0  0  0  0  0  0
  188.9920  177.6290  145.4800 C   0  0  0  0  0  2  0  0  0  0  0  0
  191.0910  177.9030  142.3970 N   0  0  0  0  0  0  0  0  0  0  0  0
  188.2000  176.3840  143.3840 C   0  0  0  0  0  2  0  0  0  0  0  0
  189.7090  176.1940  143.1830 C   0  0  1  0  0  3  0  0  0  0  0  0
  190.0070  176.0020  141.7690 N   0  0  0  0  0  2  0  0  0  0  0  0
  190.4350  177.4110  143.5240 N   0  0  0  0  0  0  0  0  0  0  0  0
  187.8300  177.3450  144.5280 C   0  0  0  0  0  2  0  0  0  0  0  0
  190.1570  178.2270  144.6990 C   0  0  0  0  0  2  0  0  0  0  0  0
  191.7010  175.0330  138.3580 O   0  0  0  0  0  0  0  0  0  0  0  0
  192.3700  174.4610  137.2420 C   0  0  0  0  0  2  0  0  0  0  0  0
  193.7820  175.0020  137.1710 C   0  0  0  0  0  2  0  0  0  0  0  0
  193.7620  176.3750  136.5340 C   0  0  0  0  0  1  0  0  0  0  0  0
  186.9230  178.0950  137.8810 C   0  0  0  0  0  2  0  0  0  0  0  0
  186.5620  178.6280  139.1210 O   0  0  0  0  0  0  0  0  0  0  0  0
  185.1730  178.7670  139.0610 C   0  0  0  0  0  2  0  0  0  0  0  0
  183.1360  178.5770  140.6730 C   0  0  2  0  0  0  0  0  0  0  0  0
  183.6410  178.6180  143.1760 C   0  0  0  0  0  2  0  0  0  0  0  0
  182.2220  179.2600  139.6730 C   0  0  0  0  0  1  0  0  0  0  0  0
  185.5470  178.7110  141.5680 C   0  0  0  0  0  2  0  0  0  0  0  0
  182.6540  178.9990  142.0710 C   0  0  0  0  0  2  0  0  0  0  0  0
  184.5850  179.0830  140.4390 C   0  0  1  0  0  3  0  0  0  0  0  0
  185.0110  179.2240  142.8990 C   0  0  0  0  0  2  0  0  0  0  0  0
  182.9740  177.0870  140.4800 C   0  0  0  0  0  3  0  0  0  0  0  0
  181.9400  176.5310  139.8440 C   0  0  0  0  0  2  0  0  0  0  0  0
  1  3  1  0  0  0  0
  2  1  2  0  0  0  0
  3  7  1  0  0  0  0
  4 17  1  0  0  0  0
  4  3  2  0  0  0  0
  5  4  1  0  0  0  0
  6  5  2  0  0  0  0
  6  2  1  0  0  0  0
  7  8  1  0  0  0  0
  8 13  1  0  0  0  0
  8 10  2  0  0  0  0
 10 14  1  0  0  0  0
 11 15  1  0  0  0  0
 12 11  1  6  0  0  0
 12 14  1  0  0  0  0
 13 12  1  0  0  0  0
 14 16  1  0  0  0  0
 15  9  1  0  0  0  0
 16  9  1  0  0  0  0
 18 17  1  0  0  0  0
 19 18  1  0  0  0  0
 20 19  1  0  0  0  0
 21  2  1  0  0  0  0
 21 22  1  0  0  0  0
 23 22  1  0  0  0  0
 24 26  1  6  0  0  0
 24 28  1  0  0  0  0
 27 30  1  0  0  0  0
 28 25  1  0  0  0  0
 29 23  1  6  0  0  0
 29 24  1  0  0  0  0
 29 27  1  0  0  0  0
 30 25  1  0  0  0  0
 31 24  1  0  0  0  0
 32 31  2  0  0  0  0
M  END
>  <MODEL>
4

>  <REMARK>
 VINA RESULT:      -7.9      2.849      6.310
  Name = 
  10 active torsions:
  status: ('A' for Active; 'I' for Inactive)
    1  A    between atoms: C_2  and  C_5
    2  A    between atoms: C_2  and  C_6
    3  A    between atoms: C_3  and  C_22
    4  A    between atoms: C_4  and  C_27
    5  A    between atoms: C_13  and  C_29
    6  A    between atoms: C_14  and  O_18
    7  A    between atoms: C_16  and  C_20
    8  A    between atoms: C_16  and  O_24
    9  A    between atoms: O_18  and  C_29
   10  A    between atoms: O_24  and  C_27
                            x       y       z     vdW  Elec       q    Type
                         _______ _______ _______ _____ _____    ______ ____

>  <TORSDO>
F 10

$$$$
=
 OpenBabel10262421173D

 32 35  0  0  1  0  0  0  0  0999 V2000
  189.1040  176.8650  142.7940 C   0  0  0  0  0  3  0  0  0  0  0  0
  190.3170  177.2110  142.1960 C   0  0  0  0  0  0  0  0  0  0  0  0
  188.8410  177.2250  144.1210 C   0  0  0  0  0  0  0  0  0  0  0  0
  189.8040  177.9350  144.8600 C   0  0  0  0  0  0  0  0  0  0  0  0
  191.0200  178.2850  144.2470 C   0  0  0  0  0  3  0  0  0  0  0  0
  191.2720  177.9290  142.9200 C   0  0  0  0  0  3  0  0  0  0  0  0
  187.5430  176.8200  144.7380 C   0  0  0  0  0  2  0  0  0  0  0  0
  186.4380  177.6810  144.2310 C   0  0  0  0  0  0  0  0  0  0  0  0
  182.5720  179.0960  142.4170 C   0  0  0  0  0  2  0  0  0  0  0  0
  185.8940  177.5110  143.0760 N   0  0  0  0  0  0  0  0  0  0  0  0
  183.3860  179.0000  144.8450 C   0  0  0  0  0  2  0  0  0  0  0  0
  184.7490  179.2210  144.1760 C   0  0  1  0  0  3  0  0  0  0  0  0
  185.8130  178.6920  145.0190 N   0  0  0  0  0  2  0  0  0  0  0  0
  184.8590  178.4360  142.9530 N   0  0  0  0  0  0  0  0  0  0  0  0
  182.2340  178.7260  143.8610 C   0  0  0  0  0  2  0  0  0  0  0  0
  183.7980  178.3120  141.9620 C   0  0  0  0  0  2  0  0  0  0  0  0
  189.5380  178.2810  146.1890 O   0  0  0  0  0  0  0  0  0  0  0  0
  189.8140  177.4140  147.2810 C   0  0  0  0  0  2  0  0  0  0  0  0
  189.0430  177.8780  148.4970 C   0  0  0  0  0  2  0  0  0  0  0  0
  187.6350  178.2540  148.0870 C   0  0  0  0  0  1  0  0  0  0  0  0
  190.5630  176.8710  140.7670 C   0  0  0  0  0  2  0  0  0  0  0  0
  189.3570  176.8880  140.0630 O   0  0  0  0  0  0  0  0  0  0  0  0
  189.4880  177.9380  139.1510 C   0  0  0  0  0  2  0  0  0  0  0  0
  187.9870  177.4070  137.0890 C   0  0  2  0  0  0  0  0  0  0  0  0
  185.4690  177.7050  137.3900 C   0  0  0  0  0  2  0  0  0  0  0  0
  189.0870  177.8140  136.1260 C   0  0  0  0  0  1  0  0  0  0  0  0
  186.9660  178.1130  139.3450 C   0  0  0  0  0  2  0  0  0  0  0  0
  186.6550  177.7960  136.4280 C   0  0  0  0  0  2  0  0  0  0  0  0
  188.1730  178.2000  138.4110 C   0  0  1  0  0  3  0  0  0  0  0  0
  185.7100  178.5760  138.6170 C   0  0  0  0  0  2  0  0  0  0  0  0
  188.0790  175.9070  137.2620 C   0  0  0  0  0  3  0  0  0  0  0  0
  188.7640  175.1080  136.4410 C   0  0  0  0  0  2  0  0  0  0  0  0
  1  3  1  0  0  0  0
  2  1  2  0  0  0  0
  2  6  1  0  0  0  0
  3  7  1  0  0  0  0
  3  4  2  0  0  0  0
  4 17  1  0  0  0  0
  5  4  1  0  0  0  0
  6  5  2  0  0  0  0
  8  7  1  0  0  0  0
  8 13  1  0  0  0  0
  9 15  1  0  0  0  0
 10  8  2  0  0  0  0
 12 11  1  1  0  0  0
 12 13  1  0  0  0  0
 14 10  1  0  0  0  0
 14 12  1  0  0  0  0
 15 11  1  0  0  0  0
 16  9  1  0  0  0  0
 16 14  1  0  0  0  0
 17 18  1  0  0  0  0
 18 19  1  0  0  0  0
 20 19  1  0  0  0  0
 21  2  1  0  0  0  0
 22 21  1  0  0  0  0
 23 22  1  0  0  0  0
 24 26  1  6  0  0  0
 24 31  1  0  0  0  0
 24 29  1  0  0  0  0
 25 30  1  0  0  0  0
 28 24  1  0  0  0  0
 28 25  1  0  0  0  0
 29 23  1  1  0  0  0
 29 27  1  0  0  0  0
 30 27  1  0  0  0  0
 32 31  2  0  0  0  0
M  END
>  <MODEL>
5

>  <REMARK>
 VINA RESULT:      -7.8      2.298      6.127
  Name = 
  10 active torsions:
  status: ('A' for Active; 'I' for Inactive)
    1  A    between atoms: C_2  and  C_5
    2  A    between atoms: C_2  and  C_6
    3  A    between atoms: C_3  and  C_22
    4  A    between atoms: C_4  and  C_27
    5  A    between atoms: C_13  and  C_29
    6  A    between atoms: C_14  and  O_18
    7  A    between atoms: C_16  and  C_20
    8  A    between atoms: C_16  and  O_24
    9  A    between atoms: O_18  and  C_29
   10  A    between atoms: O_24  and  C_27
                            x       y       z     vdW  Elec       q    Type
                         _______ _______ _______ _____ _____    ______ ____

>  <TORSDO>
F 10

$$$$
=
 OpenBabel10262421173D

 32 35  0  0  1  0  0  0  0  0999 V2000
  189.6160  176.9300  142.6020 C   0  0  0  0  0  3  0  0  0  0  0  0
  190.8370  177.4390  142.1550 C   0  0  0  0  0  0  0  0  0  0  0  0
  189.2270  177.0920  143.9360 C   0  0  0  0  0  0  0  0  0  0  0  0
  190.0710  177.7660  144.8370 C   0  0  0  0  0  0  0  0  0  0  0  0
  191.2960  178.2810  144.3770 C   0  0  0  0  0  3  0  0  0  0  0  0
  191.6740  178.1220  143.0420 C   0  0  0  0  0  3  0  0  0  0  0  0
  187.9250  176.5160  144.3870 C   0  0  0  0  0  2  0  0  0  0  0  0
  186.8230  177.4960  144.1670 C   0  0  0  0  0  0  0  0  0  0  0  0
  182.8750  179.3560  143.0770 C   0  0  0  0  0  2  0  0  0  0  0  0
  186.1530  177.5570  143.0680 N   0  0  0  0  0  0  0  0  0  0  0  0
  183.9300  178.7910  145.3430 C   0  0  0  0  0  2  0  0  0  0  0  0
  185.2260  179.0800  144.5750 C   0  0  1  0  0  3  0  0  0  0  0  0
  186.3410  178.3690  145.1870 N   0  0  0  0  0  2  0  0  0  0  0  0
  185.1650  178.5260  143.2280 N   0  0  0  0  0  0  0  0  0  0  0  0
  182.6690  178.7430  144.4620 C   0  0  0  0  0  2  0  0  0  0  0  0
  184.0000  178.6230  142.3560 C   0  0  0  0  0  2  0  0  0  0  0  0
  189.6800  177.9130  146.1720 O   0  0  0  0  0  0  0  0  0  0  0  0
  189.8630  176.8930  147.1450 C   0  0  0  0  0  2  0  0  0  0  0  0
  191.2860  176.9370  147.6580 C   0  0  0  0  0  2  0  0  0  0  0  0
  192.0440  175.7330  147.1400 C   0  0  0  0  0  1  0  0  0  0  0  0
  191.2140  177.3100  140.7210 C   0  0  0  0  0  2  0  0  0  0  0  0
  190.5830  176.1960  140.1640 O   0  0  0  0  0  0  0  0  0  0  0  0
  190.7420  176.3460  138.7840 C   0  0  0  0  0  2  0  0  0  0  0  0
  188.4790  176.9840  137.6640 C   0  0  2  0  0  0  0  0  0  0  0  0
  187.6610  175.4700  135.7760 C   0  0  0  0  0  2  0  0  0  0  0  0
  187.9610  177.5980  138.9510 C   0  0  0  0  0  1  0  0  0  0  0  0
  189.8620  174.9730  136.8430 C   0  0  0  0  0  2  0  0  0  0  0  0
  187.2640  176.3670  136.9500 C   0  0  0  0  0  2  0  0  0  0  0  0
  189.4990  175.8710  138.0260 C   0  0  1  0  0  3  0  0  0  0  0  0
  188.6000  174.3650  136.2440 C   0  0  0  0  0  2  0  0  0  0  0  0
  189.0690  178.1060  136.8410 C   0  0  0  0  0  3  0  0  0  0  0  0
  189.0360  179.3890  137.2070 C   0  0  0  0  0  2  0  0  0  0  0  0
  1  3  1  0  0  0  0
  2  1  2  0  0  0  0
  2  6  1  0  0  0  0
  3  7  1  0  0  0  0
  3  4  2  0  0  0  0
  4 17  1  0  0  0  0
  5  4  1  0  0  0  0
  6  5  2  0  0  0  0
  8  7  1  0  0  0  0
  8 13  1  0  0  0  0
  9 15  1  0  0  0  0
 10 14  1  0  0  0  0
 10  8  2  0  0  0  0
 12 13  1  0  0  0  0
 12 11  1  1  0  0  0
 14 12  1  0  0  0  0
 15 11  1  0  0  0  0
 16  9  1  0  0  0  0
 16 14  1  0  0  0  0
 17 18  1  0  0  0  0
 18 19  1  0  0  0  0
 20 19  1  0  0  0  0
 21  2  1  0  0  0  0
 22 21  1  0  0  0  0
 23 22  1  0  0  0  0
 24 29  1  0  0  0  0
 24 26  1  1  0  0  0
 25 30  1  0  0  0  0
 25 28  1  0  0  0  0
 27 29  1  0  0  0  0
 28 24  1  0  0  0  0
 29 23  1  6  0  0  0
 30 27  1  0  0  0  0
 31 32  2  0  0  0  0
 31 24  1  0  0  0  0
M  END
>  <MODEL>
6

>  <REMARK>
 VINA RESULT:      -7.8      2.505      6.494
  Name = 
  10 active torsions:
  status: ('A' for Active; 'I' for Inactive)
    1  A    between atoms: C_2  and  C_5
    2  A    between atoms: C_2  and  C_6
    3  A    between atoms: C_3  and  C_22
    4  A    between atoms: C_4  and  C_27
    5  A    between atoms: C_13  and  C_29
    6  A    between atoms: C_14  and  O_18
    7  A    between atoms: C_16  and  C_20
    8  A    between atoms: C_16  and  O_24
    9  A    between atoms: O_18  and  C_29
   10  A    between atoms: O_24  and  C_27
                            x       y       z     vdW  Elec       q    Type
                         _______ _______ _______ _____ _____    ______ ____

>  <TORSDO>
F 10

$$$$
=
 OpenBabel10262421173D

 32 35  0  0  1  0  0  0  0  0999 V2000
  188.0000  177.4610  138.3880 C   0  0  0  0  0  3  0  0  0  0  0  0
  189.2240  177.0450  138.9160 C   0  0  0  0  0  0  0  0  0  0  0  0
  187.4450  176.8010  137.2850 C   0  0  0  0  0  0  0  0  0  0  0  0
  188.1240  175.7160  136.7010 C   0  0  0  0  0  0  0  0  0  0  0  0
  189.3520  175.3010  137.2440 C   0  0  0  0  0  3  0  0  0  0  0  0
  189.8960  175.9600  138.3500 C   0  0  0  0  0  3  0  0  0  0  0  0
  186.1450  177.2840  136.7300 C   0  0  0  0  0  2  0  0  0  0  0  0
  185.2930  177.8420  137.8180 C   0  0  0  0  0  0  0  0  0  0  0  0
  182.8100  178.2750  141.5440 C   0  0  0  0  0  2  0  0  0  0  0  0
  184.2220  177.2590  138.2340 N   0  0  0  0  0  0  0  0  0  0  0  0
  185.1870  179.0470  140.9750 C   0  0  0  0  0  2  0  0  0  0  0  0
  184.5930  179.1410  139.5640 C   0  0  1  0  0  3  0  0  0  0  0  0
  185.6460  179.0040  138.5660 N   0  0  0  0  0  2  0  0  0  0  0  0
  183.7160  178.0080  139.2940 N   0  0  0  0  0  0  0  0  0  0  0  0
  184.2630  178.3760  142.0080 C   0  0  0  0  0  2  0  0  0  0  0  0
  182.7420  177.4830  140.2430 C   0  0  0  0  0  2  0  0  0  0  0  0
  187.5680  175.0690  135.5920 O   0  0  0  0  0  0  0  0  0  0  0  0
  187.1370  173.7150  135.6260 C   0  0  0  0  0  2  0  0  0  0  0  0
  185.7390  173.6480  136.2020 C   0  0  0  0  0  2  0  0  0  0  0  0
  185.7840  172.9620  137.5510 C   0  0  0  0  0  1  0  0  0  0  0  0
  189.7760  177.7190  140.1240 C   0  0  0  0  0  2  0  0  0  0  0  0
  188.8890  177.5770  141.1920 O   0  0  0  0  0  0  0  0  0  0  0  0
  189.4880  176.6370  142.0340 C   0  0  0  0  0  2  0  0  0  0  0  0
  189.8290  177.3200  144.5240 C   0  0  2  0  0  0  0  0  0  0  0  0
  187.7260  177.8670  145.8660 C   0  0  0  0  0  2  0  0  0  0  0  0
  191.0750  176.4610  144.6380 C   0  0  0  0  0  1  0  0  0  0  0  0
  187.4880  177.2850  143.4510 C   0  0  0  0  0  2  0  0  0  0  0  0
  189.1380  177.2780  145.8970 C   0  0  0  0  0  2  0  0  0  0  0  0
  188.9000  176.6990  143.4460 C   0  0  1  0  0  3  0  0  0  0  0  0
  186.8700  177.1420  144.8360 C   0  0  0  0  0  2  0  0  0  0  0  0
  190.2850  178.7240  144.1980 C   0  0  0  0  0  3  0  0  0  0  0  0
  191.5500  179.0470  143.9220 C   0  0  0  0  0  2  0  0  0  0  0  0
  1  2  1  0  0  0  0
  2 21  1  0  0  0  0
  3  1  2  0  0  0  0
  4  5  2  0  0  0  0
  4  3  1  0  0  0  0
  5  6  1  0  0  0  0
  6  2  2  0  0  0  0
  7  3  1  0  0  0  0
  7  8  1  0  0  0  0
  8 10  2  0  0  0  0
  8 13  1  0  0  0  0
  9 15  1  0  0  0  0
 10 14  1  0  0  0  0
 11 15  1  0  0  0  0
 12 11  1  1  0  0  0
 13 12  1  0  0  0  0
 14 12  1  0  0  0  0
 14 16  1  0  0  0  0
 16  9  1  0  0  0  0
 17 18  1  0  0  0  0
 17  4  1  0  0  0  0
 18 19  1  0  0  0  0
 19 20  1  0  0  0  0
 21 22  1  0  0  0  0
 22 23  1  0  0  0  0
 24 26  1  1  0  0  0
 24 28  1  0  0  0  0
 25 28  1  0  0  0  0
 27 30  1  0  0  0  0
 29 23  1  6  0  0  0
 29 27  1  0  0  0  0
 29 24  1  0  0  0  0
 30 25  1  0  0  0  0
 31 24  1  0  0  0  0
 32 31  2  0  0  0  0
M  END
>  <MODEL>
7

>  <REMARK>
 VINA RESULT:      -7.8      3.308      8.395
  Name = 
  10 active torsions:
  status: ('A' for Active; 'I' for Inactive)
    1  A    between atoms: C_2  and  C_5
    2  A    between atoms: C_2  and  C_6
    3  A    between atoms: C_3  and  C_22
    4  A    between atoms: C_4  and  C_27
    5  A    between atoms: C_13  and  C_29
    6  A    between atoms: C_14  and  O_18
    7  A    between atoms: C_16  and  C_20
    8  A    between atoms: C_16  and  O_24
    9  A    between atoms: O_18  and  C_29
   10  A    between atoms: O_24  and  C_27
                            x       y       z     vdW  Elec       q    Type
                         _______ _______ _______ _____ _____    ______ ____

>  <TORSDO>
F 10

$$$$
=
 OpenBabel10262421173D

 32 35  0  0  1  0  0  0  0  0999 V2000
  184.4350  178.8240  140.3580 C   0  0  0  0  0  3  0  0  0  0  0  0
  184.9140  178.7060  141.6640 C   0  0  0  0  0  0  0  0  0  0  0  0
  183.0580  178.8560  140.1100 C   0  0  0  0  0  0  0  0  0  0  0  0
  182.1490  178.7630  141.1790 C   0  0  0  0  0  0  0  0  0  0  0  0
  182.6410  178.6510  142.4910 C   0  0  0  0  0  3  0  0  0  0  0  0
  184.0170  178.6290  142.7320 C   0  0  0  0  0  3  0  0  0  0  0  0
  182.5770  178.9600  138.6990 C   0  0  0  0  0  2  0  0  0  0  0  0
  181.9640  180.2970  138.4600 C   0  0  0  0  0  0  0  0  0  0  0  0
  181.2630  184.5270  137.0990 C   0  0  0  0  0  2  0  0  0  0  0  0
  182.5980  181.4010  138.6570 N   0  0  0  0  0  0  0  0  0  0  0  0
  180.3140  182.2900  136.2830 C   0  0  0  0  0  2  0  0  0  0  0  0
  180.5060  181.9120  137.7570 C   0  0  1  0  0  3  0  0  0  0  0  0
  180.6690  180.4700  137.8880 N   0  0  0  0  0  2  0  0  0  0  0  0
  181.7610  182.4460  138.2720 N   0  0  0  0  0  0  0  0  0  0  0  0
  180.9240  183.6490  135.8940 C   0  0  0  0  0  2  0  0  0  0  0  0
  182.2460  183.7950  138.0050 C   0  0  0  0  0  2  0  0  0  0  0  0
  180.7740  178.7840  140.9220 O   0  0  0  0  0  0  0  0  0  0  0  0
  179.8250  178.1250  141.7500 C   0  0  0  0  0  2  0  0  0  0  0  0
  178.9540  179.1560  142.4340 C   0  0  0  0  0  2  0  0  0  0  0  0
  179.1150  179.0330  143.9350 C   0  0  0  0  0  1  0  0  0  0  0  0
  186.3810  178.7310  141.9200 C   0  0  0  0  0  2  0  0  0  0  0  0
  186.6380  178.3320  143.2340 O   0  0  0  0  0  0  0  0  0  0  0  0
  187.7210  177.4560  143.1360 C   0  0  0  0  0  2  0  0  0  0  0  0
  189.8190  177.3030  144.6740 C   0  0  2  0  0  0  0  0  0  0  0  0
  189.4250  177.5440  147.1860 C   0  0  0  0  0  2  0  0  0  0  0  0
  190.5190  176.3700  143.7040 C   0  0  0  0  0  1  0  0  0  0  0  0
  187.4770  177.7620  145.6410 C   0  0  0  0  0  2  0  0  0  0  0  0
  190.2570  176.8820  146.0860 C   0  0  0  0  0  2  0  0  0  0  0  0
  188.2860  177.1130  144.5180 C   0  0  1  0  0  3  0  0  0  0  0  0
  187.9460  177.2360  146.9920 C   0  0  0  0  0  2  0  0  0  0  0  0
  190.2920  178.7050  144.3640 C   0  0  0  0  0  3  0  0  0  0  0  0
  191.5300  178.9960  143.9590 C   0  0  0  0  0  2  0  0  0  0  0  0
  1  2  1  0  0  0  0
  2 21  1  0  0  0  0
  2  6  2  0  0  0  0
  3  1  2  0  0  0  0
  3  4  1  0  0  0  0
  4  5  2  0  0  0  0
  5  6  1  0  0  0  0
  7  3  1  0  0  0  0
  8 10  2  0  0  0  0
  8  7  1  0  0  0  0
  9 16  1  0  0  0  0
 12 11  1  6  0  0  0
 12 13  1  0  0  0  0
 12 14  1  0  0  0  0
 13  8  1  0  0  0  0
 14 10  1  0  0  0  0
 15 11  1  0  0  0  0
 15  9  1  0  0  0  0
 16 14  1  0  0  0  0
 17  4  1  0  0  0  0
 17 18  1  0  0  0  0
 18 19  1  0  0  0  0
 19 20  1  0  0  0  0
 21 22  1  0  0  0  0
 23 22  1  0  0  0  0
 24 26  1  6  0  0  0
 24 28  1  0  0  0  0
 27 30  1  0  0  0  0
 28 25  1  0  0  0  0
 29 23  1  6  0  0  0
 29 24  1  0  0  0  0
 29 27  1  0  0  0  0
 30 25  1  0  0  0  0
 31 24  1  0  0  0  0
 32 31  2  0  0  0  0
M  END
>  <MODEL>
8

>  <REMARK>
 VINA RESULT:      -7.7      3.539      8.767
  Name = 
  10 active torsions:
  status: ('A' for Active; 'I' for Inactive)
    1  A    between atoms: C_2  and  C_5
    2  A    between atoms: C_2  and  C_6
    3  A    between atoms: C_3  and  C_22
    4  A    between atoms: C_4  and  C_27
    5  A    between atoms: C_13  and  C_29
    6  A    between atoms: C_14  and  O_18
    7  A    between atoms: C_16  and  C_20
    8  A    between atoms: C_16  and  O_24
    9  A    between atoms: O_18  and  C_29
   10  A    between atoms: O_24  and  C_27
                            x       y       z     vdW  Elec       q    Type
                         _______ _______ _______ _____ _____    ______ ____

>  <TORSDO>
F 10

$$$$
=
 OpenBabel10262421173D

 32 35  0  0  1  0  0  0  0  0999 V2000
  187.2500  177.1660  143.9370 C   0  0  0  0  0  3  0  0  0  0  0  0
  186.5290  177.9050  144.8780 C   0  0  0  0  0  0  0  0  0  0  0  0
  188.5680  176.7770  144.2020 C   0  0  0  0  0  0  0  0  0  0  0  0
  189.1750  177.1360  145.4190 C   0  0  0  0  0  0  0  0  0  0  0  0
  188.4400  177.8740  146.3620 C   0  0  0  0  0  3  0  0  0  0  0  0
  187.1220  178.2510  146.0940 C   0  0  0  0  0  3  0  0  0  0  0  0
  189.3190  176.0070  143.1660 C   0  0  0  0  0  2  0  0  0  0  0  0
  189.3940  176.7840  141.8970 C   0  0  0  0  0  0  0  0  0  0  0  0
  189.4240  177.9250  137.5450 C   0  0  0  0  0  2  0  0  0  0  0  0
  190.1190  176.4180  140.8960 N   0  0  0  0  0  0  0  0  0  0  0  0
  187.6710  178.2530  139.3860 C   0  0  0  0  0  2  0  0  0  0  0  0
  188.9210  178.3220  140.2720 C   0  0  1  0  0  3  0  0  0  0  0  0
  188.5910  177.9340  141.6370 N   0  0  0  0  0  2  0  0  0  0  0  0
  189.9040  177.3260  139.8620 N   0  0  0  0  0  0  0  0  0  0  0  0
  187.9480  177.8290  137.9320 C   0  0  0  0  0  2  0  0  0  0  0  0
  190.2540  177.0470  138.4750 C   0  0  0  0  0  2  0  0  0  0  0  0
  190.4970  176.7540  145.6710 O   0  0  0  0  0  0  0  0  0  0  0  0
  191.0360  176.6610  146.9830 C   0  0  0  0  0  2  0  0  0  0  0  0
  192.1460  175.6330  146.9990 C   0  0  0  0  0  2  0  0  0  0  0  0
  192.8080  175.6290  148.3600 C   0  0  0  0  0  1  0  0  0  0  0  0
  185.1090  178.2640  144.6080 C   0  0  0  0  0  2  0  0  0  0  0  0
  185.0470  179.2090  143.5820 O   0  0  0  0  0  0  0  0  0  0  0  0
  184.6500  178.4870  142.4540 C   0  0  0  0  0  2  0  0  0  0  0  0
  183.0030  178.6040  140.4390 C   0  0  2  0  0  0  0  0  0  0  0  0
  180.5290  178.9160  140.9910 C   0  0  0  0  0  2  0  0  0  0  0  0
  184.0670  179.2110  139.5440 C   0  0  0  0  0  1  0  0  0  0  0  0
  182.1590  178.7110  142.8700 C   0  0  0  0  0  2  0  0  0  0  0  0
  181.6610  179.2150  140.0060 C   0  0  0  0  0  2  0  0  0  0  0  0
  183.3130  178.9970  141.9090 C   0  0  1  0  0  3  0  0  0  0  0  0
  180.8940  179.4070  142.3860 C   0  0  0  0  0  2  0  0  0  0  0  0
  183.0130  177.1120  140.1940 C   0  0  0  0  0  3  0  0  0  0  0  0
  182.5800  176.5430  139.0670 C   0  0  0  0  0  2  0  0  0  0  0  0
  1  3  2  0  0  0  0
  1  2  1  0  0  0  0
  2  6  2  0  0  0  0
  3  4  1  0  0  0  0
  4 17  1  0  0  0  0
  4  5  2  0  0  0  0
  6  5  1  0  0  0  0
  7  3  1  0  0  0  0
  8  7  1  0  0  0  0
  9 15  1  0  0  0  0
  9 16  1  0  0  0  0
 10  8  2  0  0  0  0
 12 11  1  6  0  0  0
 12 13  1  0  0  0  0
 13  8  1  0  0  0  0
 14 12  1  0  0  0  0
 14 10  1  0  0  0  0
 15 11  1  0  0  0  0
 16 14  1  0  0  0  0
 17 18  1  0  0  0  0
 18 19  1  0  0  0  0
 19 20  1  0  0  0  0
 21  2  1  0  0  0  0
 22 21  1  0  0  0  0
 23 22  1  0  0  0  0
 24 26  1  6  0  0  0
 24 29  1  0  0  0  0
 25 30  1  0  0  0  0
 28 24  1  0  0  0  0
 28 25  1  0  0  0  0
 29 23  1  1  0  0  0
 29 27  1  0  0  0  0
 30 27  1  0  0  0  0
 31 24  1  0  0  0  0
 32 31  2  0  0  0  0
M  END
>  <MODEL>
9

>  <REMARK>
 VINA RESULT:      -7.7      1.278      2.306
  Name = 
  10 active torsions:
  status: ('A' for Active; 'I' for Inactive)
    1  A    between atoms: C_2  and  C_5
    2  A    between atoms: C_2  and  C_6
    3  A    between atoms: C_3  and  C_22
    4  A    between atoms: C_4  and  C_27
    5  A    between atoms: C_13  and  C_29
    6  A    between atoms: C_14  and  O_18
    7  A    between atoms: C_16  and  C_20
    8  A    between atoms: C_16  and  O_24
    9  A    between atoms: O_18  and  C_29
   10  A    between atoms: O_24  and  C_27
                            x       y       z     vdW  Elec       q    Type
                         _______ _______ _______ _____ _____    ______ ____

>  <TORSDO>
F 10

$$$$
