=
 OpenBabel10262421123D

 32 35  0  0  1  0  0  0  0  0999 V2000
  189.4700  176.9820  142.4620 C   0  0  2  0  0  3  0  0  0  0  0  0
  189.2740  178.2140  140.4590 C   0  0  2  0  0  3  0  0  0  0  0  0
  190.3300  176.0260  140.4830 O   0  0  0  0  0  0  0  0  0  0  0  0
  190.2090  177.2400  141.1840 C   0  0  2  0  0  3  0  0  0  0  0  0
  190.1270  176.9870  138.2940 C   0  0  2  0  0  3  0  0  0  0  0  0
  191.0470  176.3210  139.3140 C   0  0  0  0  0  2  0  0  0  0  0  0
  187.9530  178.0590  140.9260 O   0  0  0  0  0  0  0  0  0  0  0  0
  188.0180  177.2240  142.0600 C   0  0  2  0  0  3  0  0  0  0  0  0
  189.3360  178.0910  138.9560 C   0  0  0  0  0  0  0  0  0  0  0  0
  188.8050  179.0580  138.2080 C   0  0  0  0  0  2  0  0  0  0  0  0
  185.0780  178.7880  143.9360 C   0  0  0  0  0  0  0  0  0  0  0  0
  183.9230  179.5170  143.6820 O   0  0  0  0  0  1  0  0  0  0  0  0
  187.1030  177.6770  143.1700 C   0  0  0  0  0  0  0  0  0  0  0  0
  185.3810  178.4290  145.2520 C   0  0  0  0  0  3  0  0  0  0  0  0
  187.3880  177.3180  144.4960 C   0  0  0  0  0  3  0  0  0  0  0  0
  185.9340  178.4130  142.8880 C   0  0  0  0  0  0  0  0  0  0  0  0
  185.5920  178.7960  141.4840 C   0  0  0  0  0  1  0  0  0  0  0  0
  186.5380  177.6900  145.5390 C   0  0  0  0  0  0  0  0  0  0  0  0
  187.9220  177.9150  147.5760 C   0  0  0  0  0  1  0  0  0  0  0  0
  186.8630  177.3130  146.8440 O   0  0  0  0  0  0  0  0  0  0  0  0
  190.2140  179.2400  143.2070 N   0  0  0  0  0  2  0  0  0  0  0  0
  189.9780  177.8610  143.6200 C   0  0  2  0  0  3  0  0  0  0  0  0
  191.2040  177.3040  144.1840 N   0  0  0  0  0  0  0  0  0  0  0  0
  192.0630  178.4430  144.4580 C   0  0  0  0  0  2  0  0  0  0  0  0
  191.3200  179.6830  144.0270 C   0  0  0  0  0  2  0  0  0  0  0  0
  190.8590  176.7160  145.4700 C   0  0  0  0  0  2  0  0  0  0  0  0
  191.9800  175.8100  145.9430 C   0  0  0  0  0  2  0  0  0  0  0  0
  192.0130  175.7990  147.4560 C   0  0  0  0  0  2  0  0  0  0  0  0
  191.8270  177.0950  147.9350 O   0  0  0  0  0  1  0  0  0  0  0  0
  189.2000  175.9410  137.6880 C   0  0  0  0  0  2  0  0  0  0  0  0
  190.2400  176.6720  135.6010 C   0  0  0  0  0  2  0  0  0  0  0  0
  189.4340  175.8160  136.2200 C   0  0  0  0  0  3  0  0  0  0  0  0
  1 22  1  1  0  0  0
  2  9  1  6  0  0  0
  2  7  1  0  0  0  0
  2  4  1  0  0  0  0
  4  3  1  6  0  0  0
  4  1  1  0  0  0  0
  5 30  1  1  0  0  0
  5  9  1  0  0  0  0
  5  6  1  0  0  0  0
  6  3  1  0  0  0  0
  7  8  1  0  0  0  0
  8  1  1  0  0  0  0
  8 13  1  1  0  0  0
 10  9  2  0  0  0  0
 11 14  1  0  0  0  0
 12 11  1  0  0  0  0
 13 15  2  0  0  0  0
 14 18  2  0  0  0  0
 15 18  1  0  0  0  0
 16 13  1  0  0  0  0
 16 11  2  0  0  0  0
 17 16  1  0  0  0  0
 18 20  1  0  0  0  0
 20 19  1  0  0  0  0
 21 25  1  0  0  0  0
 22 21  1  6  0  0  0
 22 23  1  0  0  0  0
 23 24  1  0  0  0  0
 23 26  1  0  0  0  0
 25 24  1  0  0  0  0
 26 27  1  0  0  0  0
 27 28  1  0  0  0  0
 28 29  1  0  0  0  0
 31 32  2  0  0  0  0
 32 30  1  0  0  0  0
M  END
>  <MODEL>
1

>  <REMARK>
 VINA RESULT:      -7.8      0.000      0.000
  Name = 
  8 active torsions:
  status: ('A' for Active; 'I' for Inactive)
    1  A    between atoms: C_1  and  C_5
    2  A    between atoms: C_11  and  C_12
    3  A    between atoms: C_11  and  C_31
    4  A    between atoms: C_13  and  C_18
    5  A    between atoms: N_14  and  C_29
    6  A    between atoms: O_15  and  C_26
    7  A    between atoms: C_16  and  C_27
    8  A    between atoms: C_18  and  C_29
                            x       y       z     vdW  Elec       q    Type
                         _______ _______ _______ _____ _____    ______ ____

>  <TORSDO>
F 8

$$$$
=
 OpenBabel10262421123D

 32 35  0  0  1  0  0  0  0  0999 V2000
  190.6120  176.1180  136.9060 C   0  0  2  0  0  3  0  0  0  0  0  0
  192.7630  175.2640  137.3650 C   0  0  2  0  0  3  0  0  0  0  0  0
  192.2470  176.2610  135.2100 O   0  0  0  0  0  0  0  0  0  0  0  0
  191.7510  175.4220  136.2250 C   0  0  2  0  0  3  0  0  0  0  0  0
  194.5440  175.6160  135.4620 C   0  0  2  0  0  3  0  0  0  0  0  0
  193.2880  175.5530  134.5940 C   0  0  0  0  0  2  0  0  0  0  0  0
  192.5350  176.2400  138.3560 O   0  0  0  0  0  0  0  0  0  0  0  0
  191.3080  176.8590  138.0440 C   0  0  2  0  0  3  0  0  0  0  0  0
  194.1970  175.2900  136.8960 C   0  0  0  0  0  0  0  0  0  0  0  0
  195.1540  174.8770  137.7260 C   0  0  0  0  0  2  0  0  0  0  0  0
  188.5860  178.2260  140.3530 C   0  0  0  0  0  0  0  0  0  0  0  0
  187.5230  179.1210  140.3280 O   0  0  0  0  0  1  0  0  0  0  0  0
  190.4610  177.1210  139.2640 C   0  0  0  0  0  0  0  0  0  0  0  0
  188.8540  177.5190  141.5270 C   0  0  0  0  0  3  0  0  0  0  0  0
  190.7100  176.4130  140.4490 C   0  0  0  0  0  3  0  0  0  0  0  0
  189.3850  178.0310  139.2150 C   0  0  0  0  0  0  0  0  0  0  0  0
  189.0800  178.7880  137.9620 C   0  0  0  0  0  1  0  0  0  0  0  0
  189.9180  176.6070  141.5820 C   0  0  0  0  0  0  0  0  0  0  0  0
  191.3060  176.1890  143.5850 C   0  0  0  0  0  1  0  0  0  0  0  0
  190.2050  175.8820  142.7410 O   0  0  0  0  0  0  0  0  0  0  0  0
  189.9620  173.7540  137.3480 N   0  0  0  0  0  2  0  0  0  0  0  0
  189.5070  175.1400  137.3490 C   0  0  2  0  0  3  0  0  0  0  0  0
  188.3360  175.2690  136.4880 N   0  0  0  0  0  0  0  0  0  0  0  0
  187.8590  173.9150  136.2680 C   0  0  0  0  0  2  0  0  0  0  0  0
  188.7860  172.9830  137.0070 C   0  0  0  0  0  2  0  0  0  0  0  0
  187.3100  175.9590  137.2560 C   0  0  0  0  0  2  0  0  0  0  0  0
  185.9400  175.6590  136.6790 C   0  0  0  0  0  2  0  0  0  0  0  0
  184.9670  176.7380  137.1030 C   0  0  0  0  0  2  0  0  0  0  0  0
  185.6650  177.7740  137.7230 O   0  0  0  0  0  1  0  0  0  0  0  0
  195.1670  177.0010  135.3520 C   0  0  0  0  0  2  0  0  0  0  0  0
  197.2570  175.8440  134.8360 C   0  0  0  0  0  2  0  0  0  0  0  0
  196.5020  176.9280  134.6900 C   0  0  0  0  0  3  0  0  0  0  0  0
  1 22  1  1  0  0  0
  1  8  1  0  0  0  0
  2  9  1  6  0  0  0
  2  7  1  0  0  0  0
  4  3  1  6  0  0  0
  4  1  1  0  0  0  0
  4  2  1  0  0  0  0
  5 30  1  1  0  0  0
  5  9  1  0  0  0  0
  6  3  1  0  0  0  0
  6  5  1  0  0  0  0
  8  7  1  0  0  0  0
  8 13  1  1  0  0  0
  9 10  2  0  0  0  0
 11 14  1  0  0  0  0
 12 11  1  0  0  0  0
 13 15  2  0  0  0  0
 14 18  2  0  0  0  0
 15 18  1  0  0  0  0
 16 13  1  0  0  0  0
 16 11  2  0  0  0  0
 17 16  1  0  0  0  0
 18 20  1  0  0  0  0
 20 19  1  0  0  0  0
 22 21  1  6  0  0  0
 23 26  1  0  0  0  0
 23 22  1  0  0  0  0
 24 23  1  0  0  0  0
 24 25  1  0  0  0  0
 25 21  1  0  0  0  0
 27 28  1  0  0  0  0
 27 26  1  0  0  0  0
 28 29  1  0  0  0  0
 32 31  2  0  0  0  0
 32 30  1  0  0  0  0
M  END
>  <MODEL>
2

>  <REMARK>
 VINA RESULT:      -6.7      3.742      7.166
  Name = 
  8 active torsions:
  status: ('A' for Active; 'I' for Inactive)
    1  A    between atoms: C_1  and  C_5
    2  A    between atoms: C_11  and  C_12
    3  A    between atoms: C_11  and  C_31
    4  A    between atoms: C_13  and  C_18
    5  A    between atoms: N_14  and  C_29
    6  A    between atoms: O_15  and  C_26
    7  A    between atoms: C_16  and  C_27
    8  A    between atoms: C_18  and  C_29
                            x       y       z     vdW  Elec       q    Type
                         _______ _______ _______ _____ _____    ______ ____

>  <TORSDO>
F 8

$$$$
=
 OpenBabel10262421123D

 32 35  0  0  1  0  0  0  0  0999 V2000
  184.0680  179.2220  138.7770 C   0  0  2  0  0  3  0  0  0  0  0  0
  181.7700  178.8500  138.3920 C   0  0  2  0  0  3  0  0  0  0  0  0
  182.6970  181.0960  138.3500 O   0  0  0  0  0  0  0  0  0  0  0  0
  182.7340  179.8600  139.0230 C   0  0  2  0  0  3  0  0  0  0  0  0
  180.3700  180.9900  137.7750 C   0  0  2  0  0  3  0  0  0  0  0  0
  181.4430  181.6550  138.6340 C   0  0  0  0  0  2  0  0  0  0  0  0
  182.4360  178.0910  137.4080 O   0  0  0  0  0  0  0  0  0  0  0  0
  183.8100  178.3830  137.5290 C   0  0  2  0  0  3  0  0  0  0  0  0
  180.5210  179.4870  137.8330 C   0  0  0  0  0  0  0  0  0  0  0  0
  179.4840  178.7100  137.5250 C   0  0  0  0  0  2  0  0  0  0  0  0
  186.8410  176.1320  136.9320 C   0  0  0  0  0  0  0  0  0  0  0  0
  188.1830  176.2290  136.5870 O   0  0  0  0  0  1  0  0  0  0  0  0
  184.6810  177.1610  137.3760 C   0  0  0  0  0  0  0  0  0  0  0  0
  186.2900  174.8740  137.1840 C   0  0  0  0  0  3  0  0  0  0  0  0
  184.1460  175.8900  137.6330 C   0  0  0  0  0  3  0  0  0  0  0  0
  186.0420  177.2830  137.0280 C   0  0  0  0  0  0  0  0  0  0  0  0
  186.6470  178.6250  136.7660 C   0  0  0  0  0  1  0  0  0  0  0  0
  184.9390  174.7450  137.5370 C   0  0  0  0  0  0  0  0  0  0  0  0
  184.5740  172.3670  136.9670 C   0  0  0  0  0  1  0  0  0  0  0  0
  184.3640  173.4990  137.7990 O   0  0  0  0  0  0  0  0  0  0  0  0
  183.5150  178.1760  140.9700 N   0  0  0  0  0  2  0  0  0  0  0  0
  184.5730  178.4310  139.9990 C   0  0  2  0  0  3  0  0  0  0  0  0
  185.6700  179.1410  140.6490 N   0  0  0  0  0  0  0  0  0  0  0  0
  185.4490  178.9850  142.0750 C   0  0  0  0  0  2  0  0  0  0  0  0
  184.1860  178.1790  142.2520 C   0  0  0  0  0  2  0  0  0  0  0  0
  186.8960  178.4240  140.3300 C   0  0  0  0  0  2  0  0  0  0  0  0
  187.8640  178.5090  141.4950 C   0  0  0  0  0  2  0  0  0  0  0  0
  189.1090  177.7100  141.1750 C   0  0  0  0  0  2  0  0  0  0  0  0
  189.0040  177.1840  139.8880 O   0  0  0  0  0  1  0  0  0  0  0  0
  180.4820  181.4940  136.3420 C   0  0  0  0  0  2  0  0  0  0  0  0
  180.8370  183.7050  135.3630 C   0  0  0  0  0  2  0  0  0  0  0  0
  180.2250  182.9620  136.2790 C   0  0  0  0  0  3  0  0  0  0  0  0
  1  4  1  0  0  0  0
  1 22  1  1  0  0  0
  2  7  1  6  0  0  0
  2  4  1  0  0  0  0
  3  6  1  0  0  0  0
  4  3  1  6  0  0  0
  5 30  1  6  0  0  0
  5  9  1  0  0  0  0
  5  6  1  0  0  0  0
  7  8  1  0  0  0  0
  8 13  1  1  0  0  0
  8  1  1  0  0  0  0
  9  2  1  0  0  0  0
 10  9  2  0  0  0  0
 11 16  2  0  0  0  0
 11 14  1  0  0  0  0
 12 11  1  0  0  0  0
 13 15  2  0  0  0  0
 14 18  2  0  0  0  0
 16 13  1  0  0  0  0
 17 16  1  0  0  0  0
 18 15  1  0  0  0  0
 18 20  1  0  0  0  0
 19 20  1  0  0  0  0
 21 25  1  0  0  0  0
 22 23  1  0  0  0  0
 22 21  1  1  0  0  0
 23 24  1  0  0  0  0
 24 25  1  0  0  0  0
 26 23  1  0  0  0  0
 26 27  1  0  0  0  0
 28 27  1  0  0  0  0
 29 28  1  0  0  0  0
 31 32  2  0  0  0  0
 32 30  1  0  0  0  0
M  END
>  <MODEL>
3

>  <REMARK>
 VINA RESULT:      -6.2      5.078      8.474
  Name = 
  8 active torsions:
  status: ('A' for Active; 'I' for Inactive)
    1  A    between atoms: C_1  and  C_5
    2  A    between atoms: C_11  and  C_12
    3  A    between atoms: C_11  and  C_31
    4  A    between atoms: C_13  and  C_18
    5  A    between atoms: N_14  and  C_29
    6  A    between atoms: O_15  and  C_26
    7  A    between atoms: C_16  and  C_27
    8  A    between atoms: C_18  and  C_29
                            x       y       z     vdW  Elec       q    Type
                         _______ _______ _______ _____ _____    ______ ____

>  <TORSDO>
F 8

$$$$
=
 OpenBabel10262421123D

 32 35  0  0  1  0  0  0  0  0999 V2000
  182.3590  178.3780  140.6200 C   0  0  2  0  0  3  0  0  0  0  0  0
  184.6320  178.8870  140.9960 C   0  0  2  0  0  3  0  0  0  0  0  0
  183.0600  178.7490  142.8430 O   0  0  0  0  0  0  0  0  0  0  0  0
  183.2270  179.2020  141.5220 C   0  0  2  0  0  3  0  0  0  0  0  0
  185.3300  179.1270  143.5200 C   0  0  2  0  0  3  0  0  0  0  0  0
  183.8720  179.5660  143.6410 C   0  0  0  0  0  2  0  0  0  0  0  0
  184.6380  177.6390  140.3410 O   0  0  0  0  0  0  0  0  0  0  0  0
  183.2910  177.2430  140.2070 C   0  0  2  0  0  3  0  0  0  0  0  0
  185.6950  178.9440  142.0660 C   0  0  0  0  0  0  0  0  0  0  0  0
  186.9760  178.9800  141.7000 C   0  0  0  0  0  2  0  0  0  0  0  0
  181.6560  175.1710  137.4420 C   0  0  0  0  0  0  0  0  0  0  0  0
  180.6130  174.2700  137.2670 O   0  0  0  0  0  1  0  0  0  0  0  0
  182.9990  176.6170  138.8660 C   0  0  0  0  0  0  0  0  0  0  0  0
  182.4320  175.5390  136.3410 C   0  0  0  0  0  3  0  0  0  0  0  0
  183.7620  176.9820  137.7480 C   0  0  0  0  0  3  0  0  0  0  0  0
  181.9330  175.7080  138.7100 C   0  0  0  0  0  0  0  0  0  0  0  0
  181.0880  175.3120  139.8780 C   0  0  0  0  0  1  0  0  0  0  0  0
  183.4900  176.4480  136.4870 C   0  0  0  0  0  0  0  0  0  0  0  0
  185.1520  175.9420  134.7280 C   0  0  0  0  0  1  0  0  0  0  0  0
  184.2780  176.8370  135.4010 O   0  0  0  0  0  0  0  0  0  0  0  0
  182.7410  180.1580  138.9190 N   0  0  0  0  0  2  0  0  0  0  0  0
  181.7790  179.2000  139.4530 C   0  0  2  0  0  3  0  0  0  0  0  0
  180.5720  179.9040  139.8740 N   0  0  0  0  0  0  0  0  0  0  0  0
  180.6480  181.2170  139.2580 C   0  0  0  0  0  2  0  0  0  0  0  0
  181.9360  181.2760  138.4750 C   0  0  0  0  0  2  0  0  0  0  0  0
  179.4400  179.2170  139.2690 C   0  0  0  0  0  2  0  0  0  0  0  0
  178.9310  178.1360  140.2030 C   0  0  0  0  0  2  0  0  0  0  0  0
  178.9310  178.6560  141.6240 C   0  0  0  0  0  2  0  0  0  0  0  0
  179.4420  177.6780  142.4760 O   0  0  0  0  0  1  0  0  0  0  0  0
  185.5370  177.8360  144.3010 C   0  0  0  0  0  2  0  0  0  0  0  0
  185.6370  178.4940  146.6530 C   0  0  0  0  0  2  0  0  0  0  0  0
  186.2870  178.0980  145.5640 C   0  0  0  0  0  3  0  0  0  0  0  0
  1 22  1  6  0  0  0
  1  4  1  0  0  0  0
  2  7  1  1  0  0  0
  2  4  1  0  0  0  0
  2  9  1  0  0  0  0
  3  6  1  0  0  0  0
  4  3  1  1  0  0  0
  5  6  1  0  0  0  0
  5 30  1  1  0  0  0
  8 13  1  6  0  0  0
  8  7  1  0  0  0  0
  8  1  1  0  0  0  0
  9  5  1  0  0  0  0
 10  9  2  0  0  0  0
 11 16  1  0  0  0  0
 12 11  1  0  0  0  0
 14 18  1  0  0  0  0
 14 11  2  0  0  0  0
 15 13  1  0  0  0  0
 16 13  2  0  0  0  0
 16 17  1  0  0  0  0
 18 15  2  0  0  0  0
 19 20  1  0  0  0  0
 20 18  1  0  0  0  0
 22 21  1  1  0  0  0
 22 23  1  0  0  0  0
 24 23  1  0  0  0  0
 25 21  1  0  0  0  0
 25 24  1  0  0  0  0
 26 23  1  0  0  0  0
 26 27  1  0  0  0  0
 27 28  1  0  0  0  0
 28 29  1  0  0  0  0
 30 32  1  0  0  0  0
 32 31  2  0  0  0  0
M  END
>  <MODEL>
4

>  <REMARK>
 VINA RESULT:      -6.2      5.141      9.531
  Name = 
  8 active torsions:
  status: ('A' for Active; 'I' for Inactive)
    1  A    between atoms: C_1  and  C_5
    2  A    between atoms: C_11  and  C_12
    3  A    between atoms: C_11  and  C_31
    4  A    between atoms: C_13  and  C_18
    5  A    between atoms: N_14  and  C_29
    6  A    between atoms: O_15  and  C_26
    7  A    between atoms: C_16  and  C_27
    8  A    between atoms: C_18  and  C_29
                            x       y       z     vdW  Elec       q    Type
                         _______ _______ _______ _____ _____    ______ ____

>  <TORSDO>
F 8

$$$$
=
 OpenBabel10262421123D

 32 35  0  0  1  0  0  0  0  0999 V2000
  189.2620  176.8040  139.1000 C   0  0  2  0  0  3  0  0  0  0  0  0
  190.4620  177.8790  140.8250 C   0  0  2  0  0  3  0  0  0  0  0  0
  188.3150  176.8290  141.2620 O   0  0  0  0  0  0  0  0  0  0  0  0
  189.0320  177.6140  140.3410 C   0  0  2  0  0  3  0  0  0  0  0  0
  189.3870  177.7110  143.2190 C   0  0  2  0  0  3  0  0  0  0  0  0
  188.1080  177.6410  142.3870 C   0  0  0  0  0  2  0  0  0  0  0  0
  191.3340  176.8860  140.3330 O   0  0  0  0  0  0  0  0  0  0  0  0
  190.6080  176.1420  139.3810 C   0  0  2  0  0  3  0  0  0  0  0  0
  190.5690  178.0010  142.3250 C   0  0  0  0  0  0  0  0  0  0  0  0
  191.6810  178.5130  142.8520 C   0  0  0  0  0  2  0  0  0  0  0  0
  191.7940  174.4770  136.1510 C   0  0  0  0  0  0  0  0  0  0  0  0
  191.4270  173.4520  135.2880 O   0  0  0  0  0  1  0  0  0  0  0  0
  191.4290  175.7960  138.1630 C   0  0  0  0  0  0  0  0  0  0  0  0
  192.9310  175.2360  135.8630 C   0  0  0  0  0  3  0  0  0  0  0  0
  192.5680  176.5520  137.8550 C   0  0  0  0  0  3  0  0  0  0  0  0
  191.0350  174.7530  137.3000 C   0  0  0  0  0  0  0  0  0  0  0  0
  189.8150  173.9390  137.5900 C   0  0  0  0  0  1  0  0  0  0  0  0
  193.3240  176.2790  136.7140 C   0  0  0  0  0  0  0  0  0  0  0  0
  195.0620  177.1130  135.1650 C   0  0  0  0  0  1  0  0  0  0  0  0
  194.4540  177.0560  136.4480 O   0  0  0  0  0  0  0  0  0  0  0  0
  189.3310  179.0880  138.1090 N   0  0  0  0  0  2  0  0  0  0  0  0
  189.2150  177.6620  137.8220 C   0  0  2  0  0  3  0  0  0  0  0  0
  187.9810  177.4130  137.0850 N   0  0  0  0  0  0  0  0  0  0  0  0
  187.5430  178.7100  136.6000 C   0  0  0  0  0  2  0  0  0  0  0  0
  188.5400  179.7330  137.0830 C   0  0  0  0  0  2  0  0  0  0  0  0
  188.3300  176.6200  135.9150 C   0  0  0  0  0  2  0  0  0  0  0  0
  187.1810  175.7000  135.5500 C   0  0  0  0  0  2  0  0  0  0  0  0
  186.4950  175.2250  136.8120 C   0  0  0  0  0  2  0  0  0  0  0  0
  185.1410  175.5510  136.7560 O   0  0  0  0  0  1  0  0  0  0  0  0
  189.5770  176.3970  143.9670 C   0  0  0  0  0  2  0  0  0  0  0  0
  189.1150  177.3870  146.1530 C   0  0  0  0  0  2  0  0  0  0  0  0
  189.9210  176.6500  145.3970 C   0  0  0  0  0  3  0  0  0  0  0  0
  1 22  1  6  0  0  0
  1  8  1  0  0  0  0
  1  4  1  0  0  0  0
  2  7  1  1  0  0  0
  2  9  1  0  0  0  0
  3  6  1  0  0  0  0
  4  2  1  0  0  0  0
  4  3  1  1  0  0  0
  5 30  1  6  0  0  0
  6  5  1  0  0  0  0
  8 13  1  6  0  0  0
  8  7  1  0  0  0  0
  9 10  2  0  0  0  0
  9  5  1  0  0  0  0
 11 16  1  0  0  0  0
 12 11  1  0  0  0  0
 14 11  2  0  0  0  0
 14 18  1  0  0  0  0
 15 13  1  0  0  0  0
 16 17  1  0  0  0  0
 16 13  2  0  0  0  0
 18 15  2  0  0  0  0
 19 20  1  0  0  0  0
 20 18  1  0  0  0  0
 22 21  1  1  0  0  0
 23 22  1  0  0  0  0
 24 25  1  0  0  0  0
 24 23  1  0  0  0  0
 25 21  1  0  0  0  0
 26 23  1  0  0  0  0
 27 26  1  0  0  0  0
 27 28  1  0  0  0  0
 29 28  1  0  0  0  0
 30 32  1  0  0  0  0
 32 31  2  0  0  0  0
M  END
>  <MODEL>
5

>  <REMARK>
 VINA RESULT:      -5.9      3.034      8.600
  Name = 
  8 active torsions:
  status: ('A' for Active; 'I' for Inactive)
    1  A    between atoms: C_1  and  C_5
    2  A    between atoms: C_11  and  C_12
    3  A    between atoms: C_11  and  C_31
    4  A    between atoms: C_13  and  C_18
    5  A    between atoms: N_14  and  C_29
    6  A    between atoms: O_15  and  C_26
    7  A    between atoms: C_16  and  C_27
    8  A    between atoms: C_18  and  C_29
                            x       y       z     vdW  Elec       q    Type
                         _______ _______ _______ _____ _____    ______ ____

>  <TORSDO>
F 8

$$$$
=
 OpenBabel10262421123D

 32 35  0  0  1  0  0  0  0  0999 V2000
  190.6840  175.0560  136.0250 C   0  0  2  0  0  3  0  0  0  0  0  0
  192.5420  174.3280  137.2840 C   0  0  2  0  0  3  0  0  0  0  0  0
  192.6340  174.4190  134.8580 O   0  0  0  0  0  0  0  0  0  0  0  0
  191.8210  174.0810  135.9550 C   0  0  2  0  0  3  0  0  0  0  0  0
  194.7070  173.7920  135.8900 C   0  0  2  0  0  3  0  0  0  0  0  0
  193.6610  173.4650  134.8260 C   0  0  0  0  0  2  0  0  0  0  0  0
  192.2670  175.6290  137.7530 O   0  0  0  0  0  0  0  0  0  0  0  0
  191.2370  176.1450  136.9400 C   0  0  2  0  0  3  0  0  0  0  0  0
  194.0300  174.0820  137.2080 C   0  0  0  0  0  0  0  0  0  0  0  0
  194.7240  173.9760  138.3410 C   0  0  0  0  0  2  0  0  0  0  0  0
  188.3570  178.4950  137.8310 C   0  0  0  0  0  0  0  0  0  0  0  0
  187.4880  179.3900  137.2180 O   0  0  0  0  0  1  0  0  0  0  0  0
  190.2070  176.9170  137.7260 C   0  0  0  0  0  0  0  0  0  0  0  0
  188.2490  178.2730  139.2050 C   0  0  0  0  0  3  0  0  0  0  0  0
  190.0790  176.7010  139.1060 C   0  0  0  0  0  3  0  0  0  0  0  0
  189.3340  177.8180  137.0820 C   0  0  0  0  0  0  0  0  0  0  0  0
  189.4320  178.0580  135.6100 C   0  0  0  0  0  1  0  0  0  0  0  0
  189.1090  177.3730  139.8510 C   0  0  0  0  0  0  0  0  0  0  0  0
  190.1590  176.8870  142.0360 C   0  0  0  0  0  1  0  0  0  0  0  0
  189.0190  177.1290  141.2240 O   0  0  0  0  0  0  0  0  0  0  0  0
  189.6170  173.1400  137.2070 N   0  0  0  0  0  2  0  0  0  0  0  0
  189.3780  174.4000  136.5110 C   0  0  2  0  0  3  0  0  0  0  0  0
  188.4730  174.1730  135.3890 N   0  0  0  0  0  0  0  0  0  0  0  0
  187.8710  172.8720  135.6260 C   0  0  0  0  0  2  0  0  0  0  0  0
  188.4560  172.3300  136.9070 C   0  0  0  0  0  2  0  0  0  0  0  0
  187.4050  175.1570  135.4910 C   0  0  0  0  0  2  0  0  0  0  0  0
  186.8190  175.1440  136.8900 C   0  0  0  0  0  2  0  0  0  0  0  0
  185.3880  175.6330  136.8410 C   0  0  0  0  0  2  0  0  0  0  0  0
  185.3030  176.8820  137.4570 O   0  0  0  0  0  1  0  0  0  0  0  0
  195.5410  174.9810  135.4310 C   0  0  0  0  0  2  0  0  0  0  0  0
  197.8010  174.8830  136.3580 C   0  0  0  0  0  2  0  0  0  0  0  0
  196.9840  174.6120  135.3450 C   0  0  0  0  0  3  0  0  0  0  0  0
  1 22  1  1  0  0  0
  1  8  1  0  0  0  0
  2  9  1  6  0  0  0
  2  7  1  0  0  0  0
  4  3  1  6  0  0  0
  4  1  1  0  0  0  0
  4  2  1  0  0  0  0
  5 30  1  6  0  0  0
  5  9  1  0  0  0  0
  6  3  1  0  0  0  0
  6  5  1  0  0  0  0
  8 13  1  1  0  0  0
  8  7  1  0  0  0  0
  9 10  2  0  0  0  0
 11 14  1  0  0  0  0
 12 11  1  0  0  0  0
 13 15  2  0  0  0  0
 14 18  2  0  0  0  0
 15 18  1  0  0  0  0
 16 13  1  0  0  0  0
 16 11  2  0  0  0  0
 17 16  1  0  0  0  0
 18 20  1  0  0  0  0
 20 19  1  0  0  0  0
 22 21  1  6  0  0  0
 23 26  1  0  0  0  0
 23 24  1  0  0  0  0
 23 22  1  0  0  0  0
 24 25  1  0  0  0  0
 25 21  1  0  0  0  0
 26 27  1  0  0  0  0
 28 27  1  0  0  0  0
 28 29  1  0  0  0  0
 32 30  1  0  0  0  0
 32 31  2  0  0  0  0
M  END
>  <MODEL>
6

>  <REMARK>
 VINA RESULT:      -5.9      4.236      7.923
  Name = 
  8 active torsions:
  status: ('A' for Active; 'I' for Inactive)
    1  A    between atoms: C_1  and  C_5
    2  A    between atoms: C_11  and  C_12
    3  A    between atoms: C_11  and  C_31
    4  A    between atoms: C_13  and  C_18
    5  A    between atoms: N_14  and  C_29
    6  A    between atoms: O_15  and  C_26
    7  A    between atoms: C_16  and  C_27
    8  A    between atoms: C_18  and  C_29
                            x       y       z     vdW  Elec       q    Type
                         _______ _______ _______ _____ _____    ______ ____

>  <TORSDO>
F 8

$$$$
=
 OpenBabel10262421123D

 32 35  0  0  1  0  0  0  0  0999 V2000
  188.9970  176.9700  139.4510 C   0  0  2  0  0  3  0  0  0  0  0  0
  190.1960  178.0140  141.1950 C   0  0  2  0  0  3  0  0  0  0  0  0
  187.9450  177.1720  141.5540 O   0  0  0  0  0  0  0  0  0  0  0  0
  188.7750  177.8510  140.6440 C   0  0  2  0  0  3  0  0  0  0  0  0
  188.9880  178.0440  143.5310 C   0  0  2  0  0  3  0  0  0  0  0  0
  187.7530  178.0470  142.6330 C   0  0  0  0  0  2  0  0  0  0  0  0
  191.0010  176.9290  140.7910 O   0  0  0  0  0  0  0  0  0  0  0  0
  190.2630  176.2080  139.8310 C   0  0  2  0  0  3  0  0  0  0  0  0
  190.2360  178.1930  142.6930 C   0  0  0  0  0  0  0  0  0  0  0  0
  191.3600  178.6300  143.2600 C   0  0  0  0  0  2  0  0  0  0  0  0
  193.1440  175.8650  137.3420 C   0  0  0  0  0  0  0  0  0  0  0  0
  194.3700  176.4500  137.0500 O   0  0  0  0  0  1  0  0  0  0  0  0
  191.1120  175.7400  138.6750 C   0  0  0  0  0  0  0  0  0  0  0  0
  192.7010  174.7880  136.5710 C   0  0  0  0  0  3  0  0  0  0  0  0
  190.6860  174.6550  137.8960 C   0  0  0  0  0  3  0  0  0  0  0  0
  192.3540  176.3460  138.3990 C   0  0  0  0  0  0  0  0  0  0  0  0
  192.8450  177.4940  139.2220 C   0  0  0  0  0  1  0  0  0  0  0  0
  191.4690  174.1750  136.8440 C   0  0  0  0  0  0  0  0  0  0  0  0
  191.4170  172.8560  134.7530 C   0  0  0  0  0  1  0  0  0  0  0  0
  191.0050  173.0940  136.0920 O   0  0  0  0  0  0  0  0  0  0  0  0
  189.0550  179.2130  138.3680 N   0  0  0  0  0  2  0  0  0  0  0  0
  189.0900  177.7730  138.1390 C   0  0  2  0  0  3  0  0  0  0  0  0
  188.0110  177.3970  137.2320 N   0  0  0  0  0  0  0  0  0  0  0  0
  187.5630  178.6350  136.6200 C   0  0  0  0  0  2  0  0  0  0  0  0
  188.3930  179.7530  137.2000 C   0  0  0  0  0  2  0  0  0  0  0  0
  188.6000  176.5900  136.1720 C   0  0  0  0  0  2  0  0  0  0  0  0
  187.5900  175.5770  135.6700 C   0  0  0  0  0  2  0  0  0  0  0  0
  187.0110  174.8170  136.8440 C   0  0  0  0  0  2  0  0  0  0  0  0
  187.5240  173.5210  136.8550 O   0  0  0  0  0  1  0  0  0  0  0  0
  189.0240  176.7530  144.3400 C   0  0  0  0  0  2  0  0  0  0  0  0
  188.0280  177.6920  146.3640 C   0  0  0  0  0  2  0  0  0  0  0  0
  189.0450  177.0480  145.8020 C   0  0  0  0  0  3  0  0  0  0  0  0
  1 22  1  6  0  0  0
  1  8  1  0  0  0  0
  1  4  1  0  0  0  0
  2  7  1  1  0  0  0
  2  9  1  0  0  0  0
  3  6  1  0  0  0  0
  4  2  1  0  0  0  0
  4  3  1  1  0  0  0
  5 30  1  6  0  0  0
  6  5  1  0  0  0  0
  8 13  1  6  0  0  0
  8  7  1  0  0  0  0
  9 10  2  0  0  0  0
  9  5  1  0  0  0  0
 11 16  1  0  0  0  0
 12 11  1  0  0  0  0
 14 18  1  0  0  0  0
 14 11  2  0  0  0  0
 15 13  1  0  0  0  0
 16 13  2  0  0  0  0
 16 17  1  0  0  0  0
 18 15  2  0  0  0  0
 19 20  1  0  0  0  0
 20 18  1  0  0  0  0
 22 21  1  1  0  0  0
 23 22  1  0  0  0  0
 24 25  1  0  0  0  0
 24 23  1  0  0  0  0
 25 21  1  0  0  0  0
 26 23  1  0  0  0  0
 27 26  1  0  0  0  0
 27 28  1  0  0  0  0
 28 29  1  0  0  0  0
 30 32  1  0  0  0  0
 32 31  2  0  0  0  0
M  END
>  <MODEL>
7

>  <REMARK>
 VINA RESULT:      -5.8      2.856      8.439
  Name = 
  8 active torsions:
  status: ('A' for Active; 'I' for Inactive)
    1  A    between atoms: C_1  and  C_5
    2  A    between atoms: C_11  and  C_12
    3  A    between atoms: C_11  and  C_31
    4  A    between atoms: C_13  and  C_18
    5  A    between atoms: N_14  and  C_29
    6  A    between atoms: O_15  and  C_26
    7  A    between atoms: C_16  and  C_27
    8  A    between atoms: C_18  and  C_29
                            x       y       z     vdW  Elec       q    Type
                         _______ _______ _______ _____ _____    ______ ____

>  <TORSDO>
F 8

$$$$
=
 OpenBabel10262421123D

 32 35  0  0  1  0  0  0  0  0999 V2000
  182.3780  179.3000  138.7960 C   0  0  2  0  0  3  0  0  0  0  0  0
  180.5060  179.8130  137.4550 C   0  0  2  0  0  3  0  0  0  0  0  0
  182.0080  181.5600  138.2270 O   0  0  0  0  0  0  0  0  0  0  0  0
  181.3510  180.3740  138.6030 C   0  0  2  0  0  3  0  0  0  0  0  0
  180.2810  182.3390  136.7550 C   0  0  2  0  0  3  0  0  0  0  0  0
  181.0070  182.5320  138.0840 C   0  0  0  0  0  2  0  0  0  0  0  0
  181.2640  178.8990  136.6950 O   0  0  0  0  0  0  0  0  0  0  0  0
  182.4530  178.6600  137.4130 C   0  0  2  0  0  3  0  0  0  0  0  0
  179.9090  180.8850  136.5770 C   0  0  0  0  0  0  0  0  0  0  0  0
  178.9320  180.5560  135.7320 C   0  0  0  0  0  2  0  0  0  0  0  0
  184.5880  175.4910  137.3330 C   0  0  0  0  0  0  0  0  0  0  0  0
  185.9230  175.1110  137.2550 O   0  0  0  0  0  1  0  0  0  0  0  0
  182.8670  177.2100  137.3890 C   0  0  0  0  0  0  0  0  0  0  0  0
  183.6040  174.5050  137.4330 C   0  0  0  0  0  3  0  0  0  0  0  0
  181.8920  176.2070  137.4970 C   0  0  0  0  0  3  0  0  0  0  0  0
  184.2270  176.8470  137.3120 C   0  0  0  0  0  0  0  0  0  0  0  0
  185.2920  177.8920  137.2150 C   0  0  0  0  0  1  0  0  0  0  0  0
  182.2490  174.8580  137.5160 C   0  0  0  0  0  0  0  0  0  0  0  0
  179.9730  174.0370  137.0050 C   0  0  0  0  0  1  0  0  0  0  0  0
  181.2450  173.8930  137.6220 O   0  0  0  0  0  0  0  0  0  0  0  0
  180.5660  178.1660  140.0780 N   0  0  0  0  0  2  0  0  0  0  0  0
  182.0090  178.3350  139.9390 C   0  0  2  0  0  3  0  0  0  0  0  0
  182.5690  178.8010  141.2030 N   0  0  0  0  0  0  0  0  0  0  0  0
  181.5430  178.5580  142.2010 C   0  0  0  0  0  2  0  0  0  0  0  0
  180.3580  177.9510  141.4930 C   0  0  0  0  0  2  0  0  0  0  0  0
  183.6890  177.9300  141.5260 C   0  0  0  0  0  2  0  0  0  0  0  0
  184.4050  178.4410  142.7620 C   0  0  0  0  0  2  0  0  0  0  0  0
  185.6600  179.1770  142.3490 C   0  0  0  0  0  2  0  0  0  0  0  0
  185.6450  179.3830  140.9700 O   0  0  0  0  0  1  0  0  0  0  0  0
  181.1720  182.8180  135.6160 C   0  0  0  0  0  2  0  0  0  0  0  0
  179.6030  184.6890  135.5020 C   0  0  0  0  0  2  0  0  0  0  0  0
  180.8060  184.2060  135.2100 C   0  0  0  0  0  3  0  0  0  0  0  0
  1 22  1  1  0  0  0
  2  9  1  6  0  0  0
  2  4  1  0  0  0  0
  4  3  1  6  0  0  0
  4  1  1  0  0  0  0
  5 30  1  6  0  0  0
  5  6  1  0  0  0  0
  6  3  1  0  0  0  0
  7  8  1  0  0  0  0
  7  2  1  0  0  0  0
  8 13  1  1  0  0  0
  8  1  1  0  0  0  0
  9  5  1  0  0  0  0
 10  9  2  0  0  0  0
 11 14  1  0  0  0  0
 12 11  1  0  0  0  0
 13 15  2  0  0  0  0
 14 18  2  0  0  0  0
 15 18  1  0  0  0  0
 16 11  2  0  0  0  0
 16 13  1  0  0  0  0
 17 16  1  0  0  0  0
 18 20  1  0  0  0  0
 19 20  1  0  0  0  0
 21 25  1  0  0  0  0
 22 21  1  1  0  0  0
 22 23  1  0  0  0  0
 23 26  1  0  0  0  0
 23 24  1  0  0  0  0
 25 24  1  0  0  0  0
 26 27  1  0  0  0  0
 28 27  1  0  0  0  0
 29 28  1  0  0  0  0
 32 31  2  0  0  0  0
 32 30  1  0  0  0  0
M  END
>  <MODEL>
8

>  <REMARK>
 VINA RESULT:      -5.7      6.474      9.703
  Name = 
  8 active torsions:
  status: ('A' for Active; 'I' for Inactive)
    1  A    between atoms: C_1  and  C_5
    2  A    between atoms: C_11  and  C_12
    3  A    between atoms: C_11  and  C_31
    4  A    between atoms: C_13  and  C_18
    5  A    between atoms: N_14  and  C_29
    6  A    between atoms: O_15  and  C_26
    7  A    between atoms: C_16  and  C_27
    8  A    between atoms: C_18  and  C_29
                            x       y       z     vdW  Elec       q    Type
                         _______ _______ _______ _____ _____    ______ ____

>  <TORSDO>
F 8

$$$$
=
 OpenBabel10262421123D

 32 35  0  0  1  0  0  0  0  0999 V2000
  182.4650  178.3340  140.6710 C   0  0  2  0  0  3  0  0  0  0  0  0
  184.7610  178.7800  140.9870 C   0  0  2  0  0  3  0  0  0  0  0  0
  183.2330  178.6900  142.8740 O   0  0  0  0  0  0  0  0  0  0  0  0
  183.3790  179.1350  141.5470 C   0  0  2  0  0  3  0  0  0  0  0  0
  185.5290  179.0070  143.4920 C   0  0  2  0  0  3  0  0  0  0  0  0
  184.0880  179.4870  143.6480 C   0  0  0  0  0  2  0  0  0  0  0  0
  184.7140  177.5300  140.3360 O   0  0  0  0  0  0  0  0  0  0  0  0
  183.3540  177.1720  140.2380 C   0  0  2  0  0  3  0  0  0  0  0  0
  185.8520  178.8100  142.0290 C   0  0  0  0  0  0  0  0  0  0  0  0
  187.1230  178.8080  141.6310 C   0  0  0  0  0  2  0  0  0  0  0  0
  183.4650  176.2060  136.5410 C   0  0  0  0  0  0  0  0  0  0  0  0
  184.2090  176.4680  135.3970 O   0  0  0  0  0  1  0  0  0  0  0  0
  183.0100  176.5510  138.9070 C   0  0  0  0  0  0  0  0  0  0  0  0
  182.3940  175.3130  136.4680 C   0  0  0  0  0  3  0  0  0  0  0  0
  181.9440  175.6460  138.8170 C   0  0  0  0  0  3  0  0  0  0  0  0
  183.7810  176.8290  137.7590 C   0  0  0  0  0  0  0  0  0  0  0  0
  184.9370  177.7760  137.8250 C   0  0  0  0  0  1  0  0  0  0  0  0
  181.6270  175.0260  137.6070 C   0  0  0  0  0  0  0  0  0  0  0  0
  179.4700  174.2780  136.6550 C   0  0  0  0  0  1  0  0  0  0  0  0
  180.5530  174.1330  137.5630 O   0  0  0  0  0  0  0  0  0  0  0  0
  182.7980  180.2070  139.0620 N   0  0  0  0  0  2  0  0  0  0  0  0
  181.8790  179.1690  139.5160 C   0  0  2  0  0  3  0  0  0  0  0  0
  180.6150  179.7770  139.9170 N   0  0  0  0  0  0  0  0  0  0  0  0
  180.6300  181.1180  139.3590 C   0  0  0  0  0  2  0  0  0  0  0  0
  181.9410  181.2910  138.6330 C   0  0  0  0  0  2  0  0  0  0  0  0
  179.5520  179.0500  139.2390 C   0  0  0  0  0  2  0  0  0  0  0  0
  178.9990  177.9710  140.1510 C   0  0  0  0  0  2  0  0  0  0  0  0
  178.9310  178.4960  141.5680 C   0  0  0  0  0  2  0  0  0  0  0  0
  179.3210  177.4920  142.4540 O   0  0  0  0  0  1  0  0  0  0  0  0
  185.7200  177.7120  144.2720 C   0  0  0  0  0  2  0  0  0  0  0  0
  187.9430  177.5120  145.2670 C   0  0  0  0  0  2  0  0  0  0  0  0
  186.6820  177.9100  145.3940 C   0  0  0  0  0  3  0  0  0  0  0  0
  1 22  1  6  0  0  0
  1  4  1  0  0  0  0
  2  7  1  1  0  0  0
  2  4  1  0  0  0  0
  2  9  1  0  0  0  0
  3  6  1  0  0  0  0
  4  3  1  1  0  0  0
  5  6  1  0  0  0  0
  5 30  1  1  0  0  0
  8 13  1  6  0  0  0
  8  7  1  0  0  0  0
  8  1  1  0  0  0  0
  9  5  1  0  0  0  0
 10  9  2  0  0  0  0
 11 16  1  0  0  0  0
 12 11  1  0  0  0  0
 14 11  2  0  0  0  0
 14 18  1  0  0  0  0
 15 13  1  0  0  0  0
 16 17  1  0  0  0  0
 16 13  2  0  0  0  0
 18 15  2  0  0  0  0
 19 20  1  0  0  0  0
 20 18  1  0  0  0  0
 22 21  1  1  0  0  0
 22 23  1  0  0  0  0
 24 23  1  0  0  0  0
 25 21  1  0  0  0  0
 25 24  1  0  0  0  0
 26 23  1  0  0  0  0
 26 27  1  0  0  0  0
 27 28  1  0  0  0  0
 28 29  1  0  0  0  0
 30 32  1  0  0  0  0
 31 32  2  0  0  0  0
M  END
>  <MODEL>
9

>  <REMARK>
 VINA RESULT:      -5.6      5.237      9.391
  Name = 
  8 active torsions:
  status: ('A' for Active; 'I' for Inactive)
    1  A    between atoms: C_1  and  C_5
    2  A    between atoms: C_11  and  C_12
    3  A    between atoms: C_11  and  C_31
    4  A    between atoms: C_13  and  C_18
    5  A    between atoms: N_14  and  C_29
    6  A    between atoms: O_15  and  C_26
    7  A    between atoms: C_16  and  C_27
    8  A    between atoms: C_18  and  C_29
                            x       y       z     vdW  Elec       q    Type
                         _______ _______ _______ _____ _____    ______ ____

>  <TORSDO>
F 8

$$$$
