=
 OpenBabel10262422483D

 37 43  0  0  1  0  0  0  0  0999 V2000
  186.3810  177.0310  136.7390 O   0  0  0  0  0  0  0  0  0  0  0  0
  181.6820  178.7260  137.1480 C   0  0  0  0  0  2  0  0  0  0  0  0
  189.2030  176.4960  142.8030 O   0  0  0  0  0  0  0  0  0  0  0  0
  185.8700  179.0710  141.7460 C   0  0  1  0  0  3  0  0  0  0  0  0
  185.4020  177.5710  134.5940 C   0  0  0  0  0  1  0  0  0  0  0  0
  181.7950  177.8290  138.3910 C   0  0  2  0  0  0  0  0  0  0  0  0
  182.0380  176.3920  137.9070 C   0  0  0  0  0  2  0  0  0  0  0  0
  180.4830  177.8750  139.1950 C   0  0  0  0  0  2  0  0  0  0  0  0
  186.8570  177.9190  142.0120 C   0  0  1  0  0  3  0  0  0  0  0  0
  184.1010  177.2980  138.6900 C   0  0  1  0  0  3  0  0  0  0  0  0
  189.1350  178.4700  137.1370 S   0  0  0  0  0  0  0  0  0  0  0  0
  188.0690  177.9420  141.0490 C   0  0  2  0  0  3  0  0  0  0  0  0
  185.4180  177.1580  139.4450 C   0  0  0  0  0  2  0  0  0  0  0  0
  179.6010  179.6330  140.5060 O   0  0  0  0  0  0  0  0  0  0  0  0
  187.3510  177.8970  143.4600 C   0  0  0  0  0  2  0  0  0  0  0  0
  185.1800  177.0420  136.0050 C   0  0  1  0  0  3  0  0  0  0  0  0
  180.0260  180.2470  138.2670 C   0  0  0  0  0  2  0  0  0  0  0  0
  180.0300  179.2880  139.4170 C   0  0  0  0  0  0  0  0  0  0  0  0
  187.8620  177.8600  139.5100 C   0  0  2  0  0  3  0  0  0  0  0  0
  188.9180  178.7830  138.9060 C   0  0  0  0  0  2  0  0  0  0  0  0
  183.4580  179.1040  141.2270 C   0  0  0  0  0  2  0  0  0  0  0  0
  187.5000  179.1740  136.8000 C   0  0  0  0  0  2  0  0  0  0  0  0
  184.5040  178.5600  142.1760 C   0  0  2  0  0  3  0  0  0  0  0  0
  189.1550  176.9740  141.4900 C   0  0  0  0  0  0  0  0  0  0  0  0
  184.4620  175.6770  136.0180 C   0  0  2  0  0  3  0  0  0  0  0  0
  183.4190  175.9970  138.3990 C   0  0  2  0  0  3  0  0  0  0  0  0
  185.1670  179.6620  142.9610 C   0  0  0  0  0  2  0  0  0  0  0  0
  186.4540  178.1720  138.9390 C   0  0  1  0  0  3  0  0  0  0  0  0
  188.0990  176.6000  143.6940 C   0  0  0  0  0  2  0  0  0  0  0  0
  183.0370  178.2390  139.2150 C   0  0  2  0  0  3  0  0  0  0  0  0
  190.0780  176.6500  140.6960 O   0  0  0  0  0  0  0  0  0  0  0  0
  184.2170  175.1170  137.4270 C   0  0  0  0  0  2  0  0  0  0  0  0
  181.3590  180.1710  137.5270 C   0  0  0  0  0  2  0  0  0  0  0  0
  186.4170  178.2800  137.3870 C   0  0  2  0  0  3  0  0  0  0  0  0
  182.8310  178.0310  140.5880 O   0  0  0  0  0  0  0  0  0  0  0  0
  185.2380  174.6270  135.2330 C   0  0  0  0  0  2  0  0  0  0  0  0
  185.8060  173.5800  136.1720 C   0  0  0  0  0  1  0  0  0  0  0  0
  1 34  1  0  0  0  0
  2 33  1  0  0  0  0
  3 29  1  0  0  0  0
  4  9  1  0  0  0  0
  4 23  1  0  0  0  0
  4 27  1  1  0  0  0
  6  2  1  6  0  0  0
  6  8  1  0  0  0  0
  6 30  1  0  0  0  0
  7  6  1  0  0  0  0
  7 26  1  0  0  0  0
  8 18  1  0  0  0  0
  9 15  1  1  0  0  0
 10 30  1  0  0  0  0
 10 13  1  1  0  0  0
 11 20  1  0  0  0  0
 12 24  1  1  0  0  0
 12  9  1  0  0  0  0
 15 29  1  0  0  0  0
 16  5  1  6  0  0  0
 16 25  1  0  0  0  0
 16  1  1  0  0  0  0
 17 18  1  0  0  0  0
 18 14  2  0  0  0  0
 19 20  1  6  0  0  0
 19 12  1  0  0  0  0
 22 11  1  0  0  0  0
 23 21  1  6  0  0  0
 23 27  1  0  0  0  0
 24  3  1  0  0  0  0
 25 36  1  6  0  0  0
 25 32  1  0  0  0  0
 26 32  1  6  0  0  0
 26 10  1  0  0  0  0
 28 13  1  6  0  0  0
 28 19  1  0  0  0  0
 30 35  1  1  0  0  0
 31 24  2  0  0  0  0
 33 17  1  0  0  0  0
 34 22  1  6  0  0  0
 34 28  1  0  0  0  0
 35 21  1  0  0  0  0
 36 37  1  0  0  0  0
M  END
>  <MODEL>
1

>  <REMARK>
 VINA RESULT:      -5.9      0.000      0.000
  Name = 
  1 active torsions:
  status: ('A' for Active; 'I' for Inactive)
    1  A    between atoms: C_11  and  C_26
                            x       y       z     vdW  Elec       q    Type
                         _______ _______ _______ _____ _____    ______ ____

>  <TORSDO>
F 1

$$$$
=
 OpenBabel10262422483D

 37 43  0  0  1  0  0  0  0  0999 V2000
  182.2670  178.4110  137.5320 O   0  0  0  0  0  0  0  0  0  0  0  0
  179.9290  174.0060  137.0290 C   0  0  0  0  0  2  0  0  0  0  0  0
  188.6810  177.8770  135.6360 O   0  0  0  0  0  0  0  0  0  0  0  0
  186.1270  174.6310  136.9760 C   0  0  1  0  0  3  0  0  0  0  0  0
  180.0510  178.4230  138.5010 C   0  0  0  0  0  1  0  0  0  0  0  0
  180.8680  173.9970  135.8120 C   0  0  2  0  0  0  0  0  0  0  0  0
  180.4680  175.1700  134.9060 C   0  0  0  0  0  2  0  0  0  0  0  0
  180.7080  172.6790  135.0320 C   0  0  0  0  0  2  0  0  0  0  0  0
  186.8010  175.8250  136.2740 C   0  0  1  0  0  3  0  0  0  0  0  0
  182.4440  175.7650  136.1030 C   0  0  1  0  0  3  0  0  0  0  0  0
  184.4230  179.3790  139.5880 S   0  0  0  0  0  0  0  0  0  0  0  0
  186.7840  177.1090  137.1400 C   0  0  2  0  0  3  0  0  0  0  0  0
  183.8210  176.4150  136.1640 C   0  0  0  0  0  2  0  0  0  0  0  0
  181.4070  170.5020  135.6270 O   0  0  0  0  0  0  0  0  0  0  0  0
  188.2360  175.5140  135.8430 C   0  0  0  0  0  2  0  0  0  0  0  0
  180.9620  177.9010  137.3970 C   0  0  1  0  0  3  0  0  0  0  0  0
  179.9800  171.5020  137.2180 C   0  0  0  0  0  2  0  0  0  0  0  0
  180.7720  171.4930  135.9480 C   0  0  0  0  0  0  0  0  0  0  0  0
  185.4400  177.7200  137.6290 C   0  0  2  0  0  3  0  0  0  0  0  0
  185.7170  178.2400  139.0390 C   0  0  0  0  0  2  0  0  0  0  0  0
  184.2570  173.1610  136.3220 C   0  0  0  0  0  2  0  0  0  0  0  0
  183.2470  178.0070  139.7050 C   0  0  0  0  0  2  0  0  0  0  0  0
  185.5730  173.7510  135.8660 C   0  0  2  0  0  3  0  0  0  0  0  0
  187.6770  178.1910  136.5570 C   0  0  0  0  0  0  0  0  0  0  0  0
  180.3750  178.1320  135.9890 C   0  0  2  0  0  3  0  0  0  0  0  0
  181.6480  176.1260  134.8870 C   0  0  2  0  0  3  0  0  0  0  0  0
  186.7220  173.2560  136.7070 C   0  0  0  0  0  2  0  0  0  0  0  0
  184.1730  176.8270  137.6010 C   0  0  1  0  0  3  0  0  0  0  0  0
  188.7220  176.6330  134.9450 C   0  0  0  0  0  2  0  0  0  0  0  0
  182.3200  174.2650  136.2750 C   0  0  2  0  0  3  0  0  0  0  0  0
  187.5770  179.3820  136.9570 O   0  0  0  0  0  0  0  0  0  0  0  0
  181.2670  177.6120  134.8510 C   0  0  0  0  0  2  0  0  0  0  0  0
  180.2000  172.8210  137.9550 C   0  0  0  0  0  2  0  0  0  0  0  0
  182.9440  177.4590  138.3170 C   0  0  2  0  0  3  0  0  0  0  0  0
  183.2470  173.5980  135.4600 O   0  0  0  0  0  0  0  0  0  0  0  0
  180.1080  179.6090  135.7270 C   0  0  0  0  0  2  0  0  0  0  0  0
  180.9840  180.1110  134.5950 C   0  0  0  0  0  1  0  0  0  0  0  0
  1 34  1  0  0  0  0
  2 33  1  0  0  0  0
  3 24  1  0  0  0  0
  4 27  1  6  0  0  0
  6  7  1  6  0  0  0
  6 30  1  0  0  0  0
  6  2  1  0  0  0  0
  8  6  1  0  0  0  0
  8 18  1  0  0  0  0
  9 15  1  1  0  0  0
  9  4  1  0  0  0  0
  9 12  1  0  0  0  0
 10 13  1  6  0  0  0
 10 30  1  0  0  0  0
 11 22  1  0  0  0  0
 12 24  1  6  0  0  0
 12 19  1  0  0  0  0
 14 18  2  0  0  0  0
 16  1  1  0  0  0  0
 16  5  1  1  0  0  0
 17 33  1  0  0  0  0
 18 17  1  0  0  0  0
 19 20  1  1  0  0  0
 20 11  1  0  0  0  0
 23 21  1  1  0  0  0
 23 27  1  0  0  0  0
 23  4  1  0  0  0  0
 24 31  2  0  0  0  0
 25 36  1  6  0  0  0
 25 16  1  0  0  0  0
 26 32  1  1  0  0  0
 26  7  1  0  0  0  0
 26 10  1  0  0  0  0
 28 13  1  6  0  0  0
 28 19  1  0  0  0  0
 28 34  1  0  0  0  0
 29  3  1  0  0  0  0
 29 15  1  0  0  0  0
 30 35  1  6  0  0  0
 32 25  1  0  0  0  0
 34 22  1  1  0  0  0
 35 21  1  0  0  0  0
 37 36  1  0  0  0  0
M  END
>  <MODEL>
2

>  <REMARK>
 VINA RESULT:      -5.9      3.123      6.231
  Name = 
  1 active torsions:
  status: ('A' for Active; 'I' for Inactive)
    1  A    between atoms: C_11  and  C_26
                            x       y       z     vdW  Elec       q    Type
                         _______ _______ _______ _____ _____    ______ ____

>  <TORSDO>
F 1

$$$$
=
 OpenBabel10262422483D

 37 43  0  0  1  0  0  0  0  0999 V2000
  182.9580  179.2670  139.4290 O   0  0  0  0  0  0  0  0  0  0  0  0
  179.4960  175.7570  138.5210 C   0  0  0  0  0  2  0  0  0  0  0  0
  188.4090  178.1940  135.6670 O   0  0  0  0  0  0  0  0  0  0  0  0
  185.4640  175.2180  136.8180 C   0  0  1  0  0  3  0  0  0  0  0  0
  181.1000  179.3780  140.9740 C   0  0  0  0  0  1  0  0  0  0  0  0
  180.1010  175.9620  137.1230 C   0  0  2  0  0  0  0  0  0  0  0  0
  179.8280  177.4140  136.7070 C   0  0  0  0  0  2  0  0  0  0  0  0
  179.4290  175.0130  136.1140 C   0  0  0  0  0  2  0  0  0  0  0  0
  186.2510  176.4270  136.2800 C   0  0  1  0  0  3  0  0  0  0  0  0
  182.1080  177.2250  137.3830 C   0  0  1  0  0  3  0  0  0  0  0  0
  185.6970  179.1200  140.9400 S   0  0  0  0  0  0  0  0  0  0  0  0
  186.7670  177.3500  137.4120 C   0  0  2  0  0  3  0  0  0  0  0  0
  183.5840  177.5590  137.2030 C   0  0  0  0  0  2  0  0  0  0  0  0
  179.6490  172.6700  135.8990 O   0  0  0  0  0  0  0  0  0  0  0  0
  187.4190  176.0120  135.3840 C   0  0  0  0  0  2  0  0  0  0  0  0
  181.5690  179.0750  139.5570 C   0  0  1  0  0  3  0  0  0  0  0  0
  178.9310  173.3580  138.0400 C   0  0  0  0  0  2  0  0  0  0  0  0
  179.3850  173.6070  136.6350 C   0  0  0  0  0  0  0  0  0  0  0  0
  185.7760  178.0100  138.4130 C   0  0  2  0  0  3  0  0  0  0  0  0
  186.4890  177.9960  139.7630 C   0  0  0  0  0  2  0  0  0  0  0  0
  183.1760  174.4010  136.3860 C   0  0  0  0  0  2  0  0  0  0  0  0
  184.2610  178.0210  141.0410 C   0  0  0  0  0  2  0  0  0  0  0  0
  184.4640  174.8520  135.7320 C   0  0  2  0  0  3  0  0  0  0  0  0
  187.7570  178.3790  136.8900 C   0  0  0  0  0  0  0  0  0  0  0  0
  180.7610  179.8430  138.4910 C   0  0  2  0  0  3  0  0  0  0  0  0
  181.1820  178.0930  136.5890 C   0  0  2  0  0  3  0  0  0  0  0  0
  185.6020  173.9140  136.0440 C   0  0  0  0  0  2  0  0  0  0  0  0
  184.3470  177.4210  138.5290 C   0  0  1  0  0  3  0  0  0  0  0  0
  187.9660  177.2490  134.7010 C   0  0  0  0  0  2  0  0  0  0  0  0
  181.6380  175.7980  137.1940 C   0  0  2  0  0  3  0  0  0  0  0  0
  188.0650  179.3780  137.5940 O   0  0  0  0  0  0  0  0  0  0  0  0
  181.2050  179.5570  137.0480 C   0  0  0  0  0  2  0  0  0  0  0  0
  179.6490  174.3100  138.9910 C   0  0  0  0  0  2  0  0  0  0  0  0
  183.5210  178.0080  139.7100 C   0  0  2  0  0  3  0  0  0  0  0  0
  182.1490  175.2660  136.0000 O   0  0  0  0  0  0  0  0  0  0  0  0
  180.8380  181.3500  138.7060 C   0  0  0  0  0  2  0  0  0  0  0  0
  180.8050  182.0750  137.3740 C   0  0  0  0  0  1  0  0  0  0  0  0
  1 16  1  0  0  0  0
  1 34  1  0  0  0  0
  2 33  1  0  0  0  0
  3 24  1  0  0  0  0
  4 27  1  6  0  0  0
  6  8  1  6  0  0  0
  6 30  1  0  0  0  0
  6  2  1  0  0  0  0
  7  6  1  0  0  0  0
  8 18  1  0  0  0  0
  9 15  1  1  0  0  0
  9  4  1  0  0  0  0
  9 12  1  0  0  0  0
 10 13  1  6  0  0  0
 11 22  1  0  0  0  0
 12 24  1  6  0  0  0
 12 19  1  0  0  0  0
 14 18  2  0  0  0  0
 16  5  1  1  0  0  0
 17 33  1  0  0  0  0
 18 17  1  0  0  0  0
 19 28  1  0  0  0  0
 19 20  1  1  0  0  0
 20 11  1  0  0  0  0
 23 27  1  1  0  0  0
 23 21  1  0  0  0  0
 23  4  1  0  0  0  0
 24 31  2  0  0  0  0
 25 36  1  1  0  0  0
 25 16  1  0  0  0  0
 26  7  1  1  0  0  0
 26 32  1  0  0  0  0
 26 10  1  0  0  0  0
 28 13  1  6  0  0  0
 28 34  1  0  0  0  0
 29 15  1  0  0  0  0
 29  3  1  0  0  0  0
 30 35  1  6  0  0  0
 30 10  1  0  0  0  0
 32 25  1  0  0  0  0
 34 22  1  1  0  0  0
 35 21  1  0  0  0  0
 37 36  1  0  0  0  0
M  END
>  <MODEL>
3

>  <REMARK>
 VINA RESULT:      -5.5      2.581      5.892
  Name = 
  1 active torsions:
  status: ('A' for Active; 'I' for Inactive)
    1  A    between atoms: C_11  and  C_26
                            x       y       z     vdW  Elec       q    Type
                         _______ _______ _______ _____ _____    ______ ____

>  <TORSDO>
F 1

$$$$
=
 OpenBabel10262422483D

 37 43  0  0  1  0  0  0  0  0999 V2000
  187.0860  176.1820  136.4780 O   0  0  0  0  0  0  0  0  0  0  0  0
  189.8330  176.5420  140.6550 C   0  0  0  0  0  2  0  0  0  0  0  0
  181.3880  179.6650  137.1260 O   0  0  0  0  0  0  0  0  0  0  0  0
  183.8020  178.0760  140.3660 C   0  0  1  0  0  3  0  0  0  0  0  0
  188.9930  174.6940  136.4630 C   0  0  0  0  0  1  0  0  0  0  0  0
  189.2200  177.9490  140.5670 C   0  0  2  0  0  0  0  0  0  0  0  0
  189.7300  178.5980  139.2720 C   0  0  0  0  0  2  0  0  0  0  0  0
  189.6730  178.7980  141.7690 C   0  0  0  0  0  2  0  0  0  0  0  0
  183.2220  178.7950  139.1350 C   0  0  1  0  0  3  0  0  0  0  0  0
  187.4800  177.8780  138.9360 C   0  0  1  0  0  3  0  0  0  0  0  0
  184.4240  174.6400  135.8860 S   0  0  0  0  0  0  0  0  0  0  0  0
  182.9220  177.8230  137.9670 C   0  0  2  0  0  3  0  0  0  0  0  0
  186.0800  178.0950  138.3740 C   0  0  0  0  0  2  0  0  0  0  0  0
  189.0340  178.6280  144.0370 O   0  0  0  0  0  0  0  0  0  0  0  0
  181.9640  179.6010  139.4680 C   0  0  0  0  0  2  0  0  0  0  0  0
  188.4230  176.0380  136.8950 C   0  0  1  0  0  3  0  0  0  0  0  0
  189.9460  176.6340  143.1620 C   0  0  0  0  0  2  0  0  0  0  0  0
  189.4880  178.0560  143.0600 C   0  0  0  0  0  0  0  0  0  0  0  0
  184.0520  176.9530  137.3480 C   0  0  2  0  0  3  0  0  0  0  0  0
  183.4010  175.6110  137.0190 C   0  0  0  0  0  2  0  0  0  0  0  0
  185.8900  178.3930  141.6420 C   0  0  0  0  0  2  0  0  0  0  0  0
  185.6470  174.3760  137.1970 C   0  0  0  0  0  2  0  0  0  0  0  0
  184.6790  179.0980  141.0730 C   0  0  2  0  0  3  0  0  0  0  0  0
  182.1100  178.4950  136.8710 C   0  0  0  0  0  0  0  0  0  0  0  0
  189.3110  177.2230  136.4640 C   0  0  2  0  0  3  0  0  0  0  0  0
  188.5140  178.8120  138.3870 C   0  0  2  0  0  3  0  0  0  0  0  0
  183.4060  178.6280  141.7290 C   0  0  0  0  0  2  0  0  0  0  0  0
  185.3580  176.7570  138.1600 C   0  0  1  0  0  3  0  0  0  0  0  0
  181.6190  180.4700  138.2760 C   0  0  0  0  0  2  0  0  0  0  0  0
  187.6830  177.8380  140.4370 C   0  0  2  0  0  3  0  0  0  0  0  0
  182.0110  177.9600  135.7350 O   0  0  0  0  0  0  0  0  0  0  0  0
  188.7680  178.5950  136.8890 C   0  0  0  0  0  2  0  0  0  0  0  0
  189.4450  175.8430  141.9570 C   0  0  0  0  0  2  0  0  0  0  0  0
  186.3200  175.6940  137.5540 C   0  0  2  0  0  3  0  0  0  0  0  0
  187.0390  178.9240  141.0490 O   0  0  0  0  0  0  0  0  0  0  0  0
  189.5110  177.2540  134.9530 C   0  0  0  0  0  2  0  0  0  0  0  0
  190.8970  176.7510  134.5950 C   0  0  0  0  0  1  0  0  0  0  0  0
  1 16  1  0  0  0  0
  1 34  1  0  0  0  0
  2 33  1  0  0  0  0
  3 29  1  0  0  0  0
  4 23  1  0  0  0  0
  4 27  1  1  0  0  0
  6  7  1  6  0  0  0
  6  2  1  0  0  0  0
  6  8  1  0  0  0  0
  8 18  1  0  0  0  0
  9 15  1  1  0  0  0
  9  4  1  0  0  0  0
 10 13  1  1  0  0  0
 10 30  1  0  0  0  0
 11 20  1  0  0  0  0
 11 22  1  0  0  0  0
 12 24  1  6  0  0  0
 12  9  1  0  0  0  0
 16  5  1  6  0  0  0
 18 17  1  0  0  0  0
 18 14  2  0  0  0  0
 19 20  1  1  0  0  0
 19 12  1  0  0  0  0
 19 28  1  0  0  0  0
 23 21  1  1  0  0  0
 23 27  1  0  0  0  0
 24  3  1  0  0  0  0
 25 36  1  6  0  0  0
 25 32  1  0  0  0  0
 25 16  1  0  0  0  0
 26 32  1  6  0  0  0
 26 10  1  0  0  0  0
 26  7  1  0  0  0  0
 28 13  1  6  0  0  0
 29 15  1  0  0  0  0
 30  6  1  0  0  0  0
 30 35  1  1  0  0  0
 31 24  2  0  0  0  0
 33 17  1  0  0  0  0
 34 22  1  6  0  0  0
 34 28  1  0  0  0  0
 35 21  1  0  0  0  0
 37 36  1  0  0  0  0
M  END
>  <MODEL>
4

>  <REMARK>
 VINA RESULT:      -4.7      2.314      6.616
  Name = 
  1 active torsions:
  status: ('A' for Active; 'I' for Inactive)
    1  A    between atoms: C_11  and  C_26
                            x       y       z     vdW  Elec       q    Type
                         _______ _______ _______ _____ _____    ______ ____

>  <TORSDO>
F 1

$$$$
=
 OpenBabel10262422483D

 37 43  0  0  1  0  0  0  0  0999 V2000
  181.2680  174.1230  137.1540 O   0  0  0  0  0  0  0  0  0  0  0  0
  180.4430  178.9880  138.0310 C   0  0  0  0  0  2  0  0  0  0  0  0
  187.8570  172.8960  136.8300 O   0  0  0  0  0  0  0  0  0  0  0  0
  185.9260  176.7210  136.1310 C   0  0  1  0  0  3  0  0  0  0  0  0
  178.9320  174.7160  136.9560 C   0  0  0  0  0  1  0  0  0  0  0  0
  181.7020  178.7320  138.8750 C   0  0  2  0  0  0  0  0  0  0  0  0
  181.3390  177.7000  139.9520 C   0  0  0  0  0  2  0  0  0  0  0  0
  182.1540  180.0360  139.5580 C   0  0  0  0  0  2  0  0  0  0  0  0
  186.4640  175.3840  136.6700 C   0  0  1  0  0  3  0  0  0  0  0  0
  182.5820  176.6090  138.2330 C   0  0  1  0  0  3  0  0  0  0  0  0
  182.2930  172.6330  134.5960 S   0  0  0  0  0  0  0  0  0  0  0  0
  185.8320  174.1600  135.9620 C   0  0  2  0  0  3  0  0  0  0  0  0
  183.6450  175.6140  137.7830 C   0  0  0  0  0  2  0  0  0  0  0  0
  183.1490  181.9520  138.5970 O   0  0  0  0  0  0  0  0  0  0  0  0
  187.9900  175.2930  136.5890 C   0  0  0  0  0  2  0  0  0  0  0  0
  180.2590  174.9630  137.6610 C   0  0  1  0  0  3  0  0  0  0  0  0
  181.0690  181.3880  137.6370 C   0  0  0  0  0  2  0  0  0  0  0  0
  182.2120  181.1710  138.5780 C   0  0  0  0  0  0  0  0  0  0  0  0
  184.2930  173.9380  135.9830 C   0  0  2  0  0  3  0  0  0  0  0  0
  183.9420  173.3770  134.6060 C   0  0  0  0  0  2  0  0  0  0  0  0
  184.8230  178.6330  137.2340 C   0  0  0  0  0  2  0  0  0  0  0  0
  181.5390  174.2720  134.7550 C   0  0  0  0  0  2  0  0  0  0  0  0
  186.0180  177.7060  137.2860 C   0  0  2  0  0  3  0  0  0  0  0  0
  186.5590  172.8720  136.3100 C   0  0  0  0  0  0  0  0  0  0  0  0
  180.1350  174.8840  139.1970 C   0  0  2  0  0  3  0  0  0  0  0  0
  182.1710  176.4630  139.6650 C   0  0  2  0  0  3  0  0  0  0  0  0
  186.9080  177.8840  136.0830 C   0  0  0  0  0  2  0  0  0  0  0  0
  183.3810  175.1380  136.3470 C   0  0  1  0  0  3  0  0  0  0  0  0
  188.4420  174.0750  137.3680 C   0  0  0  0  0  2  0  0  0  0  0  0
  182.7970  178.0890  137.9910 C   0  0  2  0  0  3  0  0  0  0  0  0
  186.0300  171.7560  136.0600 O   0  0  0  0  0  0  0  0  0  0  0  0
  181.4560  175.1330  139.9410 C   0  0  0  0  0  2  0  0  0  0  0  0
  180.6860  180.0670  136.9760 C   0  0  0  0  0  2  0  0  0  0  0  0
  181.8660  174.8660  136.1190 C   0  0  2  0  0  3  0  0  0  0  0  0
  184.0810  178.4740  138.4070 O   0  0  0  0  0  0  0  0  0  0  0  0
  179.6000  173.5300  139.6480 C   0  0  0  0  0  2  0  0  0  0  0  0
  179.4610  173.4950  141.1580 C   0  0  0  0  0  1  0  0  0  0  0  0
  1 16  1  0  0  0  0
  3 29  1  0  0  0  0
  4 27  1  6  0  0  0
  4  9  1  0  0  0  0
  4 23  1  0  0  0  0
  6  2  1  6  0  0  0
  6  8  1  0  0  0  0
  6  7  1  0  0  0  0
  9 15  1  6  0  0  0
 10 13  1  1  0  0  0
 10 26  1  0  0  0  0
 11 20  1  0  0  0  0
 11 22  1  0  0  0  0
 12 19  1  0  0  0  0
 12 24  1  1  0  0  0
 12  9  1  0  0  0  0
 15 29  1  0  0  0  0
 16  5  1  6  0  0  0
 16 25  1  0  0  0  0
 17 18  1  0  0  0  0
 18 14  2  0  0  0  0
 18  8  1  0  0  0  0
 19 20  1  6  0  0  0
 19 28  1  0  0  0  0
 21 23  1  0  0  0  0
 21 35  1  0  0  0  0
 23 27  1  6  0  0  0
 24  3  1  0  0  0  0
 25 36  1  6  0  0  0
 25 32  1  0  0  0  0
 26 32  1  6  0  0  0
 26  7  1  0  0  0  0
 28 13  1  1  0  0  0
 30 10  1  0  0  0  0
 30 35  1  1  0  0  0
 30  6  1  0  0  0  0
 31 24  2  0  0  0  0
 33 17  1  0  0  0  0
 33  2  1  0  0  0  0
 34 22  1  6  0  0  0
 34 28  1  0  0  0  0
 34  1  1  0  0  0  0
 36 37  1  0  0  0  0
M  END
>  <MODEL>
5

>  <REMARK>
 VINA RESULT:      -4.4      3.594      5.599
  Name = 
  1 active torsions:
  status: ('A' for Active; 'I' for Inactive)
    1  A    between atoms: C_11  and  C_26
                            x       y       z     vdW  Elec       q    Type
                         _______ _______ _______ _____ _____    ______ ____

>  <TORSDO>
F 1

$$$$
=
 OpenBabel10262422483D

 37 43  0  0  1  0  0  0  0  0999 V2000
  187.4630  177.6820  137.1630 O   0  0  0  0  0  0  0  0  0  0  0  0
  192.0610  175.9930  136.0980 C   0  0  0  0  0  2  0  0  0  0  0  0
  183.0670  172.6140  137.2000 O   0  0  0  0  0  0  0  0  0  0  0  0
  186.8720  172.6890  135.1110 C   0  0  1  0  0  3  0  0  0  0  0  0
  189.0470  179.4740  136.8000 C   0  0  0  0  0  1  0  0  0  0  0  0
  191.4990  174.8420  136.9470 C   0  0  2  0  0  0  0  0  0  0  0  0
  191.2070  175.3970  138.3480 C   0  0  0  0  0  2  0  0  0  0  0  0
  192.5390  173.7130  137.0590 C   0  0  0  0  0  2  0  0  0  0  0  0
  185.7070  172.7180  136.1160 C   0  0  1  0  0  3  0  0  0  0  0  0
  189.1480  175.1850  137.1620 C   0  0  1  0  0  3  0  0  0  0  0  0
  184.9210  178.0180  135.3650 S   0  0  0  0  0  0  0  0  0  0  0  0
  184.8130  173.9720  135.9530 C   0  0  2  0  0  3  0  0  0  0  0  0
  187.6700  174.8150  137.1120 C   0  0  0  0  0  2  0  0  0  0  0  0
  193.2600  172.1830  135.4080 O   0  0  0  0  0  0  0  0  0  0  0  0
  184.8410  171.4580  136.0440 C   0  0  0  0  0  2  0  0  0  0  0  0
  188.8090  178.0640  137.3260 C   0  0  1  0  0  3  0  0  0  0  0  0
  193.5400  174.4430  134.7870 C   0  0  0  0  0  2  0  0  0  0  0  0
  193.0990  173.3530  135.7140 C   0  0  0  0  0  0  0  0  0  0  0  0
  185.4140  175.4000  136.0920 C   0  0  2  0  0  3  0  0  0  0  0  0
  184.6920  176.2510  135.0490 C   0  0  0  0  0  2  0  0  0  0  0  0
  189.3170  172.5380  135.4070 C   0  0  0  0  0  2  0  0  0  0  0  0
  186.6640  177.8900  134.8900 C   0  0  0  0  0  2  0  0  0  0  0  0
  187.9920  171.9160  135.7900 C   0  0  2  0  0  3  0  0  0  0  0  0
  183.5300  173.8570  136.7590 C   0  0  0  0  0  0  0  0  0  0  0  0
  189.3080  177.8810  138.7730 C   0  0  2  0  0  3  0  0  0  0  0  0
  189.7040  175.3020  138.5480 C   0  0  2  0  0  3  0  0  0  0  0  0
  187.2940  171.3200  134.5940 C   0  0  0  0  0  2  0  0  0  0  0  0
  186.9520  175.5640  135.9800 C   0  0  1  0  0  3  0  0  0  0  0  0
  183.8940  171.4560  137.2260 C   0  0  0  0  0  2  0  0  0  0  0  0
  190.1460  174.3760  136.3600 C   0  0  2  0  0  3  0  0  0  0  0  0
  182.8200  174.8760  136.9740 O   0  0  0  0  0  0  0  0  0  0  0  0
  189.0880  176.4680  139.3330 C   0  0  0  0  0  2  0  0  0  0  0  0
  192.4580  175.5160  134.7010 C   0  0  0  0  0  2  0  0  0  0  0  0
  187.4210  177.0470  135.9080 C   0  0  2  0  0  3  0  0  0  0  0  0
  189.9450  173.0030  136.5660 O   0  0  0  0  0  0  0  0  0  0  0  0
  188.6400  178.8650  139.7270 C   0  0  0  0  0  2  0  0  0  0  0  0
  188.1090  178.1370  140.9470 C   0  0  0  0  0  1  0  0  0  0  0  0
  1 16  1  0  0  0  0
  3 29  1  0  0  0  0
  4 27  1  6  0  0  0
  4 23  1  0  0  0  0
  4  9  1  0  0  0  0
  6  2  1  6  0  0  0
  6  8  1  0  0  0  0
  6  7  1  0  0  0  0
  9 15  1  6  0  0  0
 10 13  1  1  0  0  0
 10 26  1  0  0  0  0
 12 19  1  0  0  0  0
 12  9  1  0  0  0  0
 12 24  1  1  0  0  0
 14 18  2  0  0  0  0
 15 29  1  0  0  0  0
 16  5  1  1  0  0  0
 16 25  1  0  0  0  0
 17 18  1  0  0  0  0
 18  8  1  0  0  0  0
 19 20  1  6  0  0  0
 20 11  1  0  0  0  0
 21 23  1  0  0  0  0
 21 35  1  0  0  0  0
 22 11  1  0  0  0  0
 23 27  1  6  0  0  0
 24 31  2  0  0  0  0
 24  3  1  0  0  0  0
 25 32  1  0  0  0  0
 25 36  1  1  0  0  0
 26  7  1  6  0  0  0
 26 32  1  0  0  0  0
 28 19  1  0  0  0  0
 28 13  1  1  0  0  0
 30 35  1  1  0  0  0
 30  6  1  0  0  0  0
 30 10  1  0  0  0  0
 33 17  1  0  0  0  0
 33  2  1  0  0  0  0
 34 22  1  6  0  0  0
 34 28  1  0  0  0  0
 34  1  1  0  0  0  0
 36 37  1  0  0  0  0
M  END
>  <MODEL>
6

>  <REMARK>
 VINA RESULT:      -3.3      3.847      8.808
  Name = 
  1 active torsions:
  status: ('A' for Active; 'I' for Inactive)
    1  A    between atoms: C_11  and  C_26
                            x       y       z     vdW  Elec       q    Type
                         _______ _______ _______ _____ _____    ______ ____

>  <TORSDO>
F 1

$$$$
=
 OpenBabel10262422483D

 37 43  0  0  1  0  0  0  0  0999 V2000
  186.6820  174.2320  136.3270 O   0  0  0  0  0  0  0  0  0  0  0  0
  189.2610  176.4850  139.9870 C   0  0  0  0  0  2  0  0  0  0  0  0
  181.0500  177.6320  135.0090 O   0  0  0  0  0  0  0  0  0  0  0  0
  183.2870  177.7240  138.7290 C   0  0  1  0  0  3  0  0  0  0  0  0
  188.5510  172.9020  137.0960 C   0  0  0  0  0  1  0  0  0  0  0  0
  188.6870  177.6910  139.2270 C   0  0  2  0  0  0  0  0  0  0  0  0
  189.2660  177.6630  137.8050 C   0  0  0  0  0  2  0  0  0  0  0  0
  189.1110  179.0000  139.9190 C   0  0  0  0  0  2  0  0  0  0  0  0
  182.7760  177.7900  137.2780 C   0  0  1  0  0  3  0  0  0  0  0  0
  187.0150  176.8740  137.7340 C   0  0  1  0  0  3  0  0  0  0  0  0
  184.0100  172.5980  136.3900 S   0  0  0  0  0  0  0  0  0  0  0  0
  182.5010  176.3880  136.6810 C   0  0  2  0  0  3  0  0  0  0  0  0
  185.6460  176.8090  137.0680 C   0  0  0  0  0  2  0  0  0  0  0  0
  188.3730  179.9040  141.9730 O   0  0  0  0  0  0  0  0  0  0  0  0
  181.5260  178.6620  137.1380 C   0  0  0  0  0  2  0  0  0  0  0  0
  187.9960  174.2950  136.8270 C   0  0  1  0  0  3  0  0  0  0  0  0
  189.2710  177.7300  142.1680 C   0  0  0  0  0  2  0  0  0  0  0  0
  188.8530  178.9430  141.3960 C   0  0  0  0  0  0  0  0  0  0  0  0
  183.6350  175.3260  136.5920 C   0  0  2  0  0  3  0  0  0  0  0  0
  182.9650  173.9870  136.8920 C   0  0  0  0  0  2  0  0  0  0  0  0
  185.3270  178.5910  139.8120 C   0  0  0  0  0  2  0  0  0  0  0  0
  185.1700  172.9700  137.7300 C   0  0  0  0  0  2  0  0  0  0  0  0
  184.1580  178.9550  138.9230 C   0  0  2  0  0  3  0  0  0  0  0  0
  181.7520  176.4750  135.3610 C   0  0  0  0  0  0  0  0  0  0  0  0
  188.9310  175.1420  135.9390 C   0  0  2  0  0  3  0  0  0  0  0  0
  188.0930  177.4440  136.8640 C   0  0  2  0  0  3  0  0  0  0  0  0
  182.8480  178.8460  139.6600 C   0  0  0  0  0  2  0  0  0  0  0  0
  184.9000  175.5270  137.4650 C   0  0  1  0  0  3  0  0  0  0  0  0
  181.2520  178.8780  135.6640 C   0  0  0  0  0  2  0  0  0  0  0  0
  187.1540  177.5360  139.0890 C   0  0  2  0  0  3  0  0  0  0  0  0
  181.6880  175.4740  134.5990 O   0  0  0  0  0  0  0  0  0  0  0  0
  188.4040  176.5560  135.6520 C   0  0  0  0  0  2  0  0  0  0  0  0
  188.8020  176.4710  141.4450 C   0  0  0  0  0  2  0  0  0  0  0  0
  185.8610  174.3020  137.4670 C   0  0  2  0  0  3  0  0  0  0  0  0
  186.5120  178.7830  139.0960 O   0  0  0  0  0  0  0  0  0  0  0  0
  189.1940  174.4670  134.5980 C   0  0  0  0  0  2  0  0  0  0  0  0
  190.5660  173.8190  134.5940 C   0  0  0  0  0  1  0  0  0  0  0  0
  1 16  1  0  0  0  0
  1 34  1  0  0  0  0
  2 33  1  0  0  0  0
  3 24  1  0  0  0  0
  3 29  1  0  0  0  0
  4 23  1  0  0  0  0
  4 27  1  1  0  0  0
  6  7  1  6  0  0  0
  6  8  1  0  0  0  0
  6  2  1  0  0  0  0
  8 18  1  0  0  0  0
  9 15  1  1  0  0  0
  9  4  1  0  0  0  0
 10 13  1  6  0  0  0
 10 30  1  0  0  0  0
 11 20  1  0  0  0  0
 11 22  1  0  0  0  0
 12 24  1  6  0  0  0
 12  9  1  0  0  0  0
 16  5  1  6  0  0  0
 18 14  2  0  0  0  0
 18 17  1  0  0  0  0
 19 12  1  0  0  0  0
 19 20  1  1  0  0  0
 19 28  1  0  0  0  0
 23 27  1  1  0  0  0
 23 21  1  0  0  0  0
 25 36  1  6  0  0  0
 25 16  1  0  0  0  0
 26 32  1  6  0  0  0
 26 10  1  0  0  0  0
 26  7  1  0  0  0  0
 28 13  1  6  0  0  0
 28 34  1  0  0  0  0
 29 15  1  0  0  0  0
 30 35  1  6  0  0  0
 30  6  1  0  0  0  0
 31 24  2  0  0  0  0
 32 25  1  0  0  0  0
 33 17  1  0  0  0  0
 34 22  1  6  0  0  0
 35 21  1  0  0  0  0
 37 36  1  0  0  0  0
M  END
>  <MODEL>
7

>  <REMARK>
 VINA RESULT:      -3.1      2.721      6.811
  Name = 
  1 active torsions:
  status: ('A' for Active; 'I' for Inactive)
    1  A    between atoms: C_11  and  C_26
                            x       y       z     vdW  Elec       q    Type
                         _______ _______ _______ _____ _____    ______ ____

>  <TORSDO>
F 1

$$$$
=
 OpenBabel10262422483D

 37 43  0  0  1  0  0  0  0  0999 V2000
  187.4360  176.3640  137.0120 O   0  0  0  0  0  0  0  0  0  0  0  0
  182.9520  176.8370  134.8230 C   0  0  0  0  0  2  0  0  0  0  0  0
  186.9840  177.7020  143.5710 O   0  0  0  0  0  0  0  0  0  0  0  0
  184.2700  179.0920  140.4790 C   0  0  1  0  0  3  0  0  0  0  0  0
  187.5640  176.2270  134.6000 C   0  0  0  0  0  1  0  0  0  0  0  0
  182.5680  176.2450  136.1880 C   0  0  2  0  0  0  0  0  0  0  0  0
  183.2120  174.8550  136.2910 C   0  0  0  0  0  2  0  0  0  0  0  0
  181.0380  176.1000  136.2880 C   0  0  0  0  0  2  0  0  0  0  0  0
  185.1500  178.3020  141.4650 C   0  0  1  0  0  3  0  0  0  0  0  0
  184.4830  176.3900  137.6030 C   0  0  1  0  0  3  0  0  0  0  0  0
  189.4160  178.5100  138.1450 S   0  0  0  0  0  0  0  0  0  0  0  0
  186.6620  178.4580  141.1670 C   0  0  2  0  0  3  0  0  0  0  0  0
  185.2680  176.7350  138.8630 C   0  0  0  0  0  2  0  0  0  0  0  0
  179.3950  177.7820  136.5210 O   0  0  0  0  0  0  0  0  0  0  0  0
  184.8730  178.6760  142.9230 C   0  0  0  0  0  2  0  0  0  0  0  0
  186.7570  175.9290  135.8570 C   0  0  1  0  0  3  0  0  0  0  0  0
  180.7680  178.0610  134.6210 C   0  0  0  0  0  2  0  0  0  0  0  0
  180.3430  177.3650  135.8770 C   0  0  0  0  0  0  0  0  0  0  0  0
  187.2460  178.0420  139.7870 C   0  0  2  0  0  3  0  0  0  0  0  0
  188.3230  179.0780  139.4700 C   0  0  0  0  0  2  0  0  0  0  0  0
  182.4400  178.4070  138.9730 C   0  0  0  0  0  2  0  0  0  0  0  0
  188.0740  178.6950  136.9420 C   0  0  0  0  0  2  0  0  0  0  0  0
  182.9540  178.3340  140.3940 C   0  0  2  0  0  3  0  0  0  0  0  0
  187.5170  177.9010  142.2930 C   0  0  0  0  0  0  0  0  0  0  0  0
  186.3220  174.4520  135.9430 C   0  0  2  0  0  3  0  0  0  0  0  0
  184.2170  174.9270  137.4280 C   0  0  2  0  0  3  0  0  0  0  0  0
  182.9890  179.6960  141.0390 C   0  0  0  0  0  2  0  0  0  0  0  0
  186.2680  177.8700  138.5960 C   0  0  1  0  0  3  0  0  0  0  0  0
  185.5830  177.6820  143.8190 C   0  0  0  0  0  2  0  0  0  0  0  0
  183.1790  177.1070  137.3180 C   0  0  2  0  0  3  0  0  0  0  0  0
  188.7450  177.6840  142.1120 O   0  0  0  0  0  0  0  0  0  0  0  0
  185.5010  174.1180  137.1980 C   0  0  0  0  0  2  0  0  0  0  0  0
  182.2880  178.1950  134.5940 C   0  0  0  0  0  2  0  0  0  0  0  0
  186.9780  177.6770  137.2240 C   0  0  2  0  0  3  0  0  0  0  0  0
  182.3600  177.1100  138.4580 O   0  0  0  0  0  0  0  0  0  0  0  0
  187.5200  173.5110  135.9120 C   0  0  0  0  0  2  0  0  0  0  0  0
  187.4940  172.5840  137.1120 C   0  0  0  0  0  1  0  0  0  0  0  0
  1 34  1  0  0  0  0
  3 29  1  0  0  0  0
  4 27  1  1  0  0  0
  4  9  1  0  0  0  0
  6  2  1  6  0  0  0
  6  8  1  0  0  0  0
  6  7  1  0  0  0  0
  6 30  1  0  0  0  0
  9 15  1  1  0  0  0
 10 13  1  1  0  0  0
 11 20  1  0  0  0  0
 12  9  1  0  0  0  0
 12 24  1  1  0  0  0
 15 29  1  0  0  0  0
 16  5  1  6  0  0  0
 16 25  1  0  0  0  0
 16  1  1  0  0  0  0
 17 18  1  0  0  0  0
 18  8  1  0  0  0  0
 18 14  2  0  0  0  0
 19 20  1  6  0  0  0
 19 12  1  0  0  0  0
 22 11  1  0  0  0  0
 23 21  1  6  0  0  0
 23  4  1  0  0  0  0
 23 27  1  0  0  0  0
 24  3  1  0  0  0  0
 25 36  1  1  0  0  0
 25 32  1  0  0  0  0
 26  7  1  6  0  0  0
 26 10  1  0  0  0  0
 28 13  1  1  0  0  0
 28 19  1  0  0  0  0
 30 10  1  0  0  0  0
 30 35  1  1  0  0  0
 31 24  2  0  0  0  0
 32 26  1  0  0  0  0
 33 17  1  0  0  0  0
 33  2  1  0  0  0  0
 34 22  1  1  0  0  0
 34 28  1  0  0  0  0
 35 21  1  0  0  0  0
 36 37  1  0  0  0  0
M  END
>  <MODEL>
8

>  <REMARK>
 VINA RESULT:      -3.1      1.717      2.419
  Name = 
  1 active torsions:
  status: ('A' for Active; 'I' for Inactive)
    1  A    between atoms: C_11  and  C_26
                            x       y       z     vdW  Elec       q    Type
                         _______ _______ _______ _____ _____    ______ ____

>  <TORSDO>
F 1

$$$$
=
 OpenBabel10262422483D

 37 43  0  0  1  0  0  0  0  0999 V2000
  183.7840  175.8730  136.0670 O   0  0  0  0  0  0  0  0  0  0  0  0
  179.8900  177.5740  138.7250 C   0  0  0  0  0  2  0  0  0  0  0  0
  189.4890  176.6860  139.5050 O   0  0  0  0  0  0  0  0  0  0  0  0
  185.8200  178.9420  140.0580 C   0  0  1  0  0  3  0  0  0  0  0  0
  181.7370  175.9270  134.7790 C   0  0  0  0  0  1  0  0  0  0  0  0
  180.7740  176.9680  139.8270 C   0  0  2  0  0  0  0  0  0  0  0  0
  180.8970  175.4630  139.5490 C   0  0  0  0  0  2  0  0  0  0  0  0
  180.1170  177.1750  141.2040 C   0  0  0  0  0  2  0  0  0  0  0  0
  186.9300  177.8840  139.9240 C   0  0  1  0  0  3  0  0  0  0  0  0
  182.9180  176.5340  138.8750 C   0  0  1  0  0  3  0  0  0  0  0  0
  186.1010  177.3890  134.6010 S   0  0  0  0  0  0  0  0  0  0  0  0
  187.4100  177.7080  138.4620 C   0  0  2  0  0  3  0  0  0  0  0  0
  184.4390  176.5730  138.7770 C   0  0  0  0  0  2  0  0  0  0  0  0
  179.8730  179.1660  142.4520 O   0  0  0  0  0  0  0  0  0  0  0  0
  188.1310  178.1800  140.8270 C   0  0  0  0  0  2  0  0  0  0  0  0
  182.3870  175.7150  136.1400 C   0  0  1  0  0  3  0  0  0  0  0  0
  178.9310  179.2860  140.2920 C   0  0  0  0  0  2  0  0  0  0  0  0
  179.6810  178.5990  141.3900 C   0  0  0  0  0  0  0  0  0  0  0  0
  186.4120  177.2940  137.3430 C   0  0  2  0  0  3  0  0  0  0  0  0
  186.8430  178.0740  136.1030 C   0  0  0  0  0  2  0  0  0  0  0  0
  183.5330  178.8410  140.9770 C   0  0  0  0  0  2  0  0  0  0  0  0
  184.4720  177.9880  135.1170 C   0  0  0  0  0  2  0  0  0  0  0  0
  184.9850  178.5230  141.2580 C   0  0  2  0  0  3  0  0  0  0  0  0
  188.6750  176.8690  138.3820 C   0  0  0  0  0  0  0  0  0  0  0  0
  181.9730  174.3780  136.7890 C   0  0  2  0  0  3  0  0  0  0  0  0
  182.3610  175.1950  139.2470 C   0  0  2  0  0  3  0  0  0  0  0  0
  185.8210  179.7760  141.3320 C   0  0  0  0  0  2  0  0  0  0  0  0
  184.8950  177.4620  137.6120 C   0  0  1  0  0  3  0  0  0  0  0  0
  189.0430  176.9710  140.8250 C   0  0  0  0  0  2  0  0  0  0  0  0
  182.2010  177.5580  139.7310 C   0  0  2  0  0  3  0  0  0  0  0  0
  189.0500  176.3890  137.2800 O   0  0  0  0  0  0  0  0  0  0  0  0
  182.6070  174.1330  138.1670 C   0  0  0  0  0  2  0  0  0  0  0  0
  179.6440  179.0640  138.9610 C   0  0  0  0  0  2  0  0  0  0  0  0
  184.0060  177.2320  136.3550 C   0  0  2  0  0  3  0  0  0  0  0  0
  182.8020  177.6500  140.9950 O   0  0  0  0  0  0  0  0  0  0  0  0
  182.3250  173.1900  135.9020 C   0  0  0  0  0  2  0  0  0  0  0  0
  182.7720  172.0130  136.7500 C   0  0  0  0  0  1  0  0  0  0  0  0
  1 16  1  0  0  0  0
  1 34  1  0  0  0  0
  2 33  1  0  0  0  0
  3 29  1  0  0  0  0
  4 23  1  0  0  0  0
  4 27  1  1  0  0  0
  6  2  1  6  0  0  0
  6  8  1  0  0  0  0
  7  6  1  0  0  0  0
  8 18  1  0  0  0  0
  9  4  1  0  0  0  0
  9 15  1  1  0  0  0
 10 13  1  1  0  0  0
 10 26  1  0  0  0  0
 10 30  1  0  0  0  0
 11 22  1  0  0  0  0
 11 20  1  0  0  0  0
 12 24  1  1  0  0  0
 12  9  1  0  0  0  0
 16  5  1  6  0  0  0
 16 25  1  0  0  0  0
 17 18  1  0  0  0  0
 18 14  2  0  0  0  0
 19 20  1  6  0  0  0
 19 28  1  0  0  0  0
 19 12  1  0  0  0  0
 21 35  1  0  0  0  0
 23 21  1  6  0  0  0
 23 27  1  0  0  0  0
 24  3  1  0  0  0  0
 25 36  1  6  0  0  0
 25 32  1  0  0  0  0
 26 32  1  6  0  0  0
 26  7  1  0  0  0  0
 28 13  1  1  0  0  0
 29 15  1  0  0  0  0
 30  6  1  0  0  0  0
 30 35  1  1  0  0  0
 31 24  2  0  0  0  0
 33 17  1  0  0  0  0
 34 22  1  6  0  0  0
 34 28  1  0  0  0  0
 36 37  1  0  0  0  0
M  END
>  <MODEL>
9

>  <REMARK>
 VINA RESULT:      -3.0      1.890      2.606
  Name = 
  1 active torsions:
  status: ('A' for Active; 'I' for Inactive)
    1  A    between atoms: C_11  and  C_26
                            x       y       z     vdW  Elec       q    Type
                         _______ _______ _______ _____ _____    ______ ____

>  <TORSDO>
F 1

$$$$
