=
 OpenBabel10252414573D

 34 37  0  0  1  0  0  0  0  0999 V2000
  182.4380  176.9700  138.1720 C   0  0  2  0  0  3  0  0  0  0  0  0
  184.8910  179.8300  138.7460 O   0  0  0  0  0  1  0  0  0  0  0  0
  184.7450  177.0520  137.5070 O   0  0  0  0  0  1  0  0  0  0  0  0
  184.0740  178.7400  139.0530 C   0  0  2  0  0  0  0  0  0  0  0  0
  181.3640  177.7470  138.8210 N   0  0  0  0  0  0  0  0  0  0  0  0
  183.0770  179.0230  140.1610 C   0  0  1  0  0  3  0  0  0  0  0  0
  181.8180  178.1480  140.1690 C   0  0  1  0  0  3  0  0  0  0  0  0
  184.2790  178.1110  140.4220 C   0  0  2  0  0  3  0  0  0  0  0  0
  183.6610  177.8460  137.8900 C   0  0  2  0  0  3  0  0  0  0  0  0
  179.1290  179.1780  142.8580 C   0  0  1  0  0  3  0  0  0  0  0  0
  179.2260  180.6690  142.5650 C   0  0  0  0  0  2  0  0  0  0  0  0
  180.7510  178.9020  140.9200 C   0  0  0  0  0  0  0  0  0  0  0  0
  179.2160  180.8700  141.0550 C   0  0  0  0  0  2  0  0  0  0  0  0
  180.3580  178.4520  142.3120 C   0  0  0  0  0  2  0  0  0  0  0  0
  180.2800  180.0420  140.3860 C   0  0  0  0  0  3  0  0  0  0  0  0
  179.0180  178.9180  144.6130 Cl  0  0  0  0  0  0  0  0  0  0  0  0
  181.9870  176.3790  136.8630 C   0  0  0  0  0  0  0  0  0  0  0  0
  180.6180  173.0610  136.8130 C   0  0  0  0  0  1  0  0  0  0  0  0
  181.9450  175.0790  136.7320 C   0  0  0  0  0  0  0  0  0  0  0  0
  181.9000  173.7830  136.6040 C   0  0  0  0  0  3  0  0  0  0  0  0
  180.3360  177.5150  135.5620 O   0  0  0  0  0  1  0  0  0  0  0  0
  181.6200  177.2210  135.8090 O   0  0  0  0  0  0  0  0  0  0  0  0
  185.3010  178.8530  141.2700 C   0  0  0  0  0  2  0  0  0  0  0  0
  185.8760  177.9490  142.2540 N   0  0  0  0  0  2  0  0  0  0  0  0
  183.6840  178.8060  144.3520 C   0  0  0  0  0  2  0  0  0  0  0  0
  186.0610  178.6990  143.4870 C   0  0  1  0  0  3  0  0  0  0  0  0
  184.8410  179.5930  143.7510 C   0  0  0  0  0  2  0  0  0  0  0  0
  184.9200  178.4760  146.5480 C   0  0  0  0  0  3  0  0  0  0  0  0
  186.3150  178.4300  145.9790 C   0  0  0  0  0  2  0  0  0  0  0  0
  186.3710  177.7290  144.6300 C   0  0  0  0  0  2  0  0  0  0  0  0
  183.7880  178.6820  145.8500 C   0  0  0  0  0  3  0  0  0  0  0  0
  180.2240  176.8400  139.0100 C   0  0  0  0  0  2  0  0  0  0  0  0
  179.7110  174.7690  140.2350 C   0  0  0  0  0  2  0  0  0  0  0  0
  180.6010  175.6980  139.9000 C   0  0  0  0  0  3  0  0  0  0  0  0
  1 17  1  6  0  0  0
  1  5  1  0  0  0  0
  3  9  1  0  0  0  0
  4  2  1  6  0  0  0
  4  6  1  0  0  0  0
  4  8  1  0  0  0  0
  5 32  1  0  0  0  0
  5  7  1  0  0  0  0
  6  7  1  0  0  0  0
  6  8  1  0  0  0  0
  7 12  1  0  0  0  0
  8 23  1  0  0  0  0
  9  1  1  0  0  0  0
  9  4  1  0  0  0  0
 10 16  1  0  0  0  0
 11 10  1  0  0  0  0
 12 14  1  0  0  0  0
 13 11  1  0  0  0  0
 14 10  1  0  0  0  0
 15 12  2  0  0  0  0
 15 13  1  0  0  0  0
 19 17  2  0  0  0  0
 20 19  2  0  0  0  0
 20 18  1  0  0  0  0
 21 22  1  0  0  0  0
 22 17  1  0  0  0  0
 23 24  1  0  0  0  0
 24 26  1  0  0  0  0
 25 31  1  0  0  0  0
 26 27  1  0  0  0  0
 26 30  1  0  0  0  0
 27 25  1  0  0  0  0
 29 28  1  0  0  0  0
 30 29  1  0  0  0  0
 31 28  2  0  0  0  0
 32 34  1  0  0  0  0
 34 33  2  0  0  0  0
M  END
>  <MODEL>
1

>  <REMARK>
 VINA RESULT:      -6.5      0.000      0.000
  Name = 
  8 active torsions:
  status: ('A' for Active; 'I' for Inactive)
    1  A    between atoms: C_2  and  C_4
    2  A    between atoms: C_2  and  O_25
    3  A    between atoms: N_3  and  C_13
    4  A    between atoms: N_3  and  C_17
    5  A    between atoms: C_12  and  C_28
    6  A    between atoms: C_17  and  C_29
    7  A    between atoms: N_21  and  C_32
    8  A    between atoms: C_24  and  C_32
                            x       y       z     vdW  Elec       q    Type
                         _______ _______ _______ _____ _____    ______ ____

>  <TORSDO>
F 8

$$$$
=
 OpenBabel10252414573D

 34 37  0  0  1  0  0  0  0  0999 V2000
  185.6760  176.8130  137.5840 C   0  0  2  0  0  3  0  0  0  0  0  0
  184.4980  180.1600  138.9760 O   0  0  0  0  0  1  0  0  0  0  0  0
  187.0200  178.4810  138.6700 O   0  0  0  0  0  1  0  0  0  0  0  0
  184.6630  178.7750  138.8910 C   0  0  2  0  0  0  0  0  0  0  0  0
  184.3070  176.5110  137.1220 N   0  0  0  0  0  0  0  0  0  0  0  0
  183.3560  178.0060  138.9160 C   0  0  1  0  0  3  0  0  0  0  0  0
  183.3850  176.6150  138.2730 C   0  0  1  0  0  3  0  0  0  0  0  0
  184.2900  177.9760  140.1290 C   0  0  2  0  0  3  0  0  0  0  0  0
  185.8050  178.2760  138.0130 C   0  0  2  0  0  3  0  0  0  0  0  0
  179.8960  174.8010  138.0270 C   0  0  1  0  0  3  0  0  0  0  0  0
  179.1360  176.0510  137.6050 C   0  0  0  0  0  2  0  0  0  0  0  0
  181.9690  176.2670  137.8920 C   0  0  0  0  0  0  0  0  0  0  0  0
  179.9370  176.7660  136.5250 C   0  0  0  0  0  2  0  0  0  0  0  0
  181.2350  175.1840  138.6570 C   0  0  0  0  0  2  0  0  0  0  0  0
  181.3490  177.0280  136.9730 C   0  0  0  0  0  3  0  0  0  0  0  0
  178.9310  173.8810  139.2030 Cl  0  0  0  0  0  0  0  0  0  0  0  0
  186.6970  176.5600  136.5070 C   0  0  0  0  0  0  0  0  0  0  0  0
  188.8160  173.6720  136.7390 C   0  0  0  0  0  1  0  0  0  0  0  0
  187.7530  175.8410  136.7860 C   0  0  0  0  0  0  0  0  0  0  0  0
  188.8030  175.1220  137.0650 C   0  0  0  0  0  3  0  0  0  0  0  0
  186.8580  178.3520  134.9340 O   0  0  0  0  0  1  0  0  0  0  0  0
  186.5060  177.0920  135.2290 O   0  0  0  0  0  0  0  0  0  0  0  0
  183.7050  178.8380  141.2390 C   0  0  0  0  0  2  0  0  0  0  0  0
  183.8460  178.1590  142.5180 N   0  0  0  0  0  2  0  0  0  0  0  0
  184.3050  178.6740  145.5950 C   0  0  0  0  0  2  0  0  0  0  0  0
  185.0340  178.6910  143.1700 C   0  0  1  0  0  3  0  0  0  0  0  0
  184.6350  179.5400  144.3850 C   0  0  0  0  0  2  0  0  0  0  0  0
  186.7310  177.9690  145.8760 C   0  0  0  0  0  3  0  0  0  0  0  0
  187.1120  178.0060  144.4180 C   0  0  0  0  0  2  0  0  0  0  0  0
  185.9850  177.5400  143.5090 C   0  0  0  0  0  2  0  0  0  0  0  0
  185.5310  178.3000  146.3870 C   0  0  0  0  0  3  0  0  0  0  0  0
  184.2920  175.1070  136.6920 C   0  0  0  0  0  2  0  0  0  0  0  0
  185.0720  172.9610  137.6110 C   0  0  0  0  0  2  0  0  0  0  0  0
  184.6500  174.2040  137.8300 C   0  0  0  0  0  3  0  0  0  0  0  0
  1 17  1  6  0  0  0
  1  9  1  0  0  0  0
  4  6  1  0  0  0  0
  4  2  1  1  0  0  0
  4  8  1  0  0  0  0
  5  1  1  0  0  0  0
  5  7  1  0  0  0  0
  6  8  1  0  0  0  0
  7  6  1  0  0  0  0
  8 23  1  0  0  0  0
  9  3  1  0  0  0  0
  9  4  1  0  0  0  0
 10 14  1  0  0  0  0
 10 16  1  0  0  0  0
 11 10  1  0  0  0  0
 12  7  1  0  0  0  0
 12 14  1  0  0  0  0
 13 15  1  0  0  0  0
 13 11  1  0  0  0  0
 15 12  2  0  0  0  0
 17 19  2  0  0  0  0
 18 20  1  0  0  0  0
 19 20  2  0  0  0  0
 21 22  1  0  0  0  0
 22 17  1  0  0  0  0
 23 24  1  0  0  0  0
 24 26  1  0  0  0  0
 25 31  1  0  0  0  0
 26 30  1  0  0  0  0
 26 27  1  0  0  0  0
 27 25  1  0  0  0  0
 28 31  2  0  0  0  0
 29 28  1  0  0  0  0
 30 29  1  0  0  0  0
 32  5  1  0  0  0  0
 32 34  1  0  0  0  0
 33 34  2  0  0  0  0
M  END
>  <MODEL>
2

>  <REMARK>
 VINA RESULT:      -6.3      2.924      4.359
  Name = 
  8 active torsions:
  status: ('A' for Active; 'I' for Inactive)
    1  A    between atoms: C_2  and  C_4
    2  A    between atoms: C_2  and  O_25
    3  A    between atoms: N_3  and  C_13
    4  A    between atoms: N_3  and  C_17
    5  A    between atoms: C_12  and  C_28
    6  A    between atoms: C_17  and  C_29
    7  A    between atoms: N_21  and  C_32
    8  A    between atoms: C_24  and  C_32
                            x       y       z     vdW  Elec       q    Type
                         _______ _______ _______ _____ _____    ______ ____

>  <TORSDO>
F 8

$$$$
=
 OpenBabel10252414573D

 34 37  0  0  1  0  0  0  0  0999 V2000
  186.2740  177.9990  139.8190 C   0  0  2  0  0  3  0  0  0  0  0  0
  189.5550  178.7980  138.0510 O   0  0  0  0  0  1  0  0  0  0  0  0
  186.7320  177.8140  137.4690 O   0  0  0  0  0  1  0  0  0  0  0  0
  188.6510  178.1020  138.8570 C   0  0  2  0  0  0  0  0  0  0  0  0
  186.8610  178.4030  141.1120 N   0  0  0  0  0  0  0  0  0  0  0  0
  189.1660  177.8410  140.2590 C   0  0  1  0  0  3  0  0  0  0  0  0
  188.0970  177.6240  141.3360 C   0  0  1  0  0  3  0  0  0  0  0  0
  189.0530  176.6910  139.2540 C   0  0  2  0  0  3  0  0  0  0  0  0
  187.1730  178.4120  138.6510 C   0  0  2  0  0  3  0  0  0  0  0  0
  188.7200  177.9910  145.2090 C   0  0  1  0  0  3  0  0  0  0  0  0
  190.2380  177.9960  145.0900 C   0  0  0  0  0  2  0  0  0  0  0  0
  188.7280  177.9420  142.6670 C   0  0  0  0  0  0  0  0  0  0  0  0
  190.6340  178.9250  143.9500 C   0  0  0  0  0  2  0  0  0  0  0  0
  188.0930  177.4180  143.9380 C   0  0  0  0  0  2  0  0  0  0  0  0
  189.9200  178.5640  142.6760 C   0  0  0  0  0  3  0  0  0  0  0  0
  188.2310  177.0080  146.6070 Cl  0  0  0  0  0  0  0  0  0  0  0  0
  184.9220  178.6240  139.6000 C   0  0  0  0  0  0  0  0  0  0  0  0
  181.9770  176.5990  139.9350 C   0  0  0  0  0  1  0  0  0  0  0  0
  183.9190  177.8630  139.2490 C   0  0  0  0  0  0  0  0  0  0  0  0
  182.9190  177.1030  138.9020 C   0  0  0  0  0  3  0  0  0  0  0  0
  184.1380  180.7540  138.8520 O   0  0  0  0  0  1  0  0  0  0  0  0
  184.7560  180.0010  139.7730 O   0  0  0  0  0  0  0  0  0  0  0  0
  190.4430  176.3090  138.7660 C   0  0  0  0  0  2  0  0  0  0  0  0
  190.3740  175.0790  137.9930 N   0  0  0  0  0  2  0  0  0  0  0  0
  191.7220  175.3780  135.1580 C   0  0  0  0  0  2  0  0  0  0  0  0
  191.7310  174.7250  137.6050 C   0  0  1  0  0  3  0  0  0  0  0  0
  191.7530  174.2250  136.1530 C   0  0  0  0  0  2  0  0  0  0  0  0
  194.0730  176.1120  135.7840 C   0  0  0  0  0  3  0  0  0  0  0  0
  194.0260  175.6930  137.2320 C   0  0  0  0  0  2  0  0  0  0  0  0
  192.6580  175.9170  137.8580 C   0  0  0  0  0  2  0  0  0  0  0  0
  193.0930  175.9350  134.8790 C   0  0  0  0  0  3  0  0  0  0  0  0
  185.9130  178.0070  142.1620 C   0  0  0  0  0  2  0  0  0  0  0  0
  184.5900  179.0920  143.9310 C   0  0  0  0  0  2  0  0  0  0  0  0
  185.3560  179.2130  142.8500 C   0  0  0  0  0  3  0  0  0  0  0  0
  1 17  1  6  0  0  0
  1  5  1  0  0  0  0
  3  9  1  0  0  0  0
  4  2  1  6  0  0  0
  4  8  1  0  0  0  0
  4  6  1  0  0  0  0
  5  7  1  0  0  0  0
  5 32  1  0  0  0  0
  6  7  1  0  0  0  0
  7 12  1  0  0  0  0
  8  6  1  0  0  0  0
  9  4  1  0  0  0  0
  9  1  1  0  0  0  0
 10 16  1  0  0  0  0
 11 10  1  0  0  0  0
 12 15  2  0  0  0  0
 12 14  1  0  0  0  0
 13 11  1  0  0  0  0
 14 10  1  0  0  0  0
 15 13  1  0  0  0  0
 17 22  1  0  0  0  0
 19 17  2  0  0  0  0
 20 19  2  0  0  0  0
 20 18  1  0  0  0  0
 21 22  1  0  0  0  0
 23  8  1  0  0  0  0
 24 23  1  0  0  0  0
 25 27  1  0  0  0  0
 26 30  1  0  0  0  0
 26 24  1  0  0  0  0
 27 26  1  0  0  0  0
 28 29  1  0  0  0  0
 29 30  1  0  0  0  0
 31 25  1  0  0  0  0
 31 28  2  0  0  0  0
 32 34  1  0  0  0  0
 34 33  2  0  0  0  0
M  END
>  <MODEL>
3

>  <REMARK>
 VINA RESULT:      -6.2      5.406      8.281
  Name = 
  8 active torsions:
  status: ('A' for Active; 'I' for Inactive)
    1  A    between atoms: C_2  and  C_4
    2  A    between atoms: C_2  and  O_25
    3  A    between atoms: N_3  and  C_13
    4  A    between atoms: N_3  and  C_17
    5  A    between atoms: C_12  and  C_28
    6  A    between atoms: C_17  and  C_29
    7  A    between atoms: N_21  and  C_32
    8  A    between atoms: C_24  and  C_32
                            x       y       z     vdW  Elec       q    Type
                         _______ _______ _______ _____ _____    ______ ____

>  <TORSDO>
F 8

$$$$
=
 OpenBabel10252414573D

 34 37  0  0  1  0  0  0  0  0999 V2000
  185.8150  177.9260  139.1550 C   0  0  2  0  0  3  0  0  0  0  0  0
  186.1850  180.1590  142.2210 O   0  0  0  0  0  1  0  0  0  0  0  0
  187.6950  178.0360  140.6440 O   0  0  0  0  0  1  0  0  0  0  0  0
  185.7150  179.1080  141.4300 C   0  0  2  0  0  0  0  0  0  0  0  0
  184.4870  178.5100  138.8770 N   0  0  0  0  0  0  0  0  0  0  0  0
  184.2030  179.0620  141.3210 C   0  0  1  0  0  3  0  0  0  0  0  0
  183.6420  178.3580  140.0800 C   0  0  1  0  0  3  0  0  0  0  0  0
  184.9470  178.0140  142.1530 C   0  0  2  0  0  3  0  0  0  0  0  0
  186.5610  178.7320  140.2200 C   0  0  2  0  0  3  0  0  0  0  0  0
  180.6100  180.6460  139.0330 C   0  0  1  0  0  3  0  0  0  0  0  0
  179.6190  179.4960  138.9220 C   0  0  0  0  0  2  0  0  0  0  0  0
  182.2470  178.8840  139.8570 C   0  0  0  0  0  0  0  0  0  0  0  0
  179.7810  178.5940  140.1400 C   0  0  0  0  0  2  0  0  0  0  0  0
  182.0430  180.1150  138.9980 C   0  0  0  0  0  2  0  0  0  0  0  0
  181.2110  178.1590  140.3130 C   0  0  0  0  0  3  0  0  0  0  0  0
  180.3650  181.7800  137.6870 Cl  0  0  0  0  0  0  0  0  0  0  0  0
  186.6770  177.8880  137.9210 C   0  0  0  0  0  0  0  0  0  0  0  0
  186.7920  174.8880  135.9520 C   0  0  0  0  0  1  0  0  0  0  0  0
  187.1050  176.7340  137.4800 C   0  0  0  0  0  0  0  0  0  0  0  0
  187.5290  175.5840  137.0390 C   0  0  0  0  0  3  0  0  0  0  0  0
  188.2720  179.5150  137.2010 O   0  0  0  0  0  1  0  0  0  0  0  0
  187.0060  179.0770  137.2660 O   0  0  0  0  0  0  0  0  0  0  0  0
  184.7440  178.3080  143.6330 C   0  0  0  0  0  2  0  0  0  0  0  0
  185.5870  177.4300  144.4300 N   0  0  0  0  0  2  0  0  0  0  0  0
  187.1550  177.3870  147.1660 C   0  0  0  0  0  2  0  0  0  0  0  0
  186.7850  178.1750  144.7880 C   0  0  1  0  0  3  0  0  0  0  0  0
  186.7480  178.5540  146.2750 C   0  0  0  0  0  2  0  0  0  0  0  0
  189.5680  177.4960  146.3750 C   0  0  0  0  0  3  0  0  0  0  0  0
  189.2890  177.9760  144.9730 C   0  0  0  0  0  2  0  0  0  0  0  0
  188.0230  177.3670  144.3900 C   0  0  0  0  0  2  0  0  0  0  0  0
  188.6480  177.2850  147.3340 C   0  0  0  0  0  3  0  0  0  0  0  0
  183.8690  177.7010  137.8190 C   0  0  0  0  0  2  0  0  0  0  0  0
  183.5770  175.2740  137.5410 C   0  0  0  0  0  2  0  0  0  0  0  0
  183.5180  176.3410  138.3330 C   0  0  0  0  0  3  0  0  0  0  0  0
  1 17  1  6  0  0  0
  1  9  1  0  0  0  0
  4  8  1  0  0  0  0
  4  2  1  1  0  0  0
  5  1  1  0  0  0  0
  5  7  1  0  0  0  0
  6  4  1  0  0  0  0
  6  8  1  0  0  0  0
  7  6  1  0  0  0  0
  8 23  1  0  0  0  0
  9  3  1  0  0  0  0
  9  4  1  0  0  0  0
 11 10  1  0  0  0  0
 11 13  1  0  0  0  0
 12  7  1  0  0  0  0
 12 15  2  0  0  0  0
 13 15  1  0  0  0  0
 14 10  1  0  0  0  0
 14 12  1  0  0  0  0
 16 10  1  0  0  0  0
 18 20  1  0  0  0  0
 19 17  2  0  0  0  0
 20 19  2  0  0  0  0
 21 22  1  0  0  0  0
 22 17  1  0  0  0  0
 23 24  1  0  0  0  0
 24 26  1  0  0  0  0
 25 31  1  0  0  0  0
 26 27  1  0  0  0  0
 27 25  1  0  0  0  0
 28 31  2  0  0  0  0
 29 28  1  0  0  0  0
 30 26  1  0  0  0  0
 30 29  1  0  0  0  0
 32 34  1  0  0  0  0
 32  5  1  0  0  0  0
 33 34  2  0  0  0  0
M  END
>  <MODEL>
4

>  <REMARK>
 VINA RESULT:      -6.0      2.871      4.230
  Name = 
  8 active torsions:
  status: ('A' for Active; 'I' for Inactive)
    1  A    between atoms: C_2  and  C_4
    2  A    between atoms: C_2  and  O_25
    3  A    between atoms: N_3  and  C_13
    4  A    between atoms: N_3  and  C_17
    5  A    between atoms: C_12  and  C_28
    6  A    between atoms: C_17  and  C_29
    7  A    between atoms: N_21  and  C_32
    8  A    between atoms: C_24  and  C_32
                            x       y       z     vdW  Elec       q    Type
                         _______ _______ _______ _____ _____    ______ ____

>  <TORSDO>
F 8

$$$$
=
 OpenBabel10252414573D

 34 37  0  0  1  0  0  0  0  0999 V2000
  182.2300  177.3960  137.5180 C   0  0  2  0  0  3  0  0  0  0  0  0
  185.4550  179.0270  138.7290 O   0  0  0  0  0  1  0  0  0  0  0  0
  184.2810  176.2890  138.0960 O   0  0  0  0  0  1  0  0  0  0  0  0
  184.1350  178.5720  138.7720 C   0  0  2  0  0  0  0  0  0  0  0  0
  181.5930  178.7220  137.3940 N   0  0  0  0  0  0  0  0  0  0  0  0
  183.1360  179.6450  139.1620 C   0  0  1  0  0  3  0  0  0  0  0  0
  181.6940  179.4210  138.6930 C   0  0  1  0  0  3  0  0  0  0  0  0
  183.4840  178.5250  140.1460 C   0  0  2  0  0  3  0  0  0  0  0  0
  183.7380  177.5260  137.7380 C   0  0  2  0  0  3  0  0  0  0  0  0
  180.8670  183.1970  137.9300 C   0  0  1  0  0  3  0  0  0  0  0  0
  179.3690  183.0430  138.1520 C   0  0  0  0  0  2  0  0  0  0  0  0
  181.0160  180.7660  138.6620 C   0  0  0  0  0  0  0  0  0  0  0  0
  179.1460  182.2380  139.4260 C   0  0  0  0  0  2  0  0  0  0  0  0
  181.5110  181.8290  137.7020 C   0  0  0  0  0  2  0  0  0  0  0  0
  179.8990  180.9350  139.3900 C   0  0  0  0  0  3  0  0  0  0  0  0
  181.1600  184.2320  136.5150 Cl  0  0  0  0  0  0  0  0  0  0  0  0
  182.0160  176.5570  136.2870 C   0  0  0  0  0  0  0  0  0  0  0  0
  179.0280  174.5880  136.0010 C   0  0  0  0  0  1  0  0  0  0  0  0
  181.2320  175.5130  136.3560 C   0  0  0  0  0  0  0  0  0  0  0  0
  180.4480  174.4750  136.4260 C   0  0  0  0  0  3  0  0  0  0  0  0
  183.6580  176.1650  134.5950 O   0  0  0  0  0  1  0  0  0  0  0  0
  182.6540  176.9010  135.0910 O   0  0  0  0  0  0  0  0  0  0  0  0
  184.3780  179.0790  141.2460 C   0  0  0  0  0  2  0  0  0  0  0  0
  184.7040  178.0250  142.1950 N   0  0  0  0  0  2  0  0  0  0  0  0
  184.0120  178.7750  145.1790 C   0  0  0  0  0  2  0  0  0  0  0  0
  185.5860  178.5960  143.2020 C   0  0  1  0  0  3  0  0  0  0  0  0
  184.7970  179.5410  144.1210 C   0  0  0  0  0  2  0  0  0  0  0  0
  186.1360  178.0740  146.3880 C   0  0  0  0  0  3  0  0  0  0  0  0
  187.0290  177.9940  145.1760 C   0  0  0  0  0  2  0  0  0  0  0  0
  186.3010  177.4680  143.9490 C   0  0  0  0  0  2  0  0  0  0  0  0
  184.8450  178.4540  146.3930 C   0  0  0  0  0  3  0  0  0  0  0  0
  180.1640  178.4980  137.1420 C   0  0  0  0  0  2  0  0  0  0  0  0
  180.6360  179.7550  135.0800 C   0  0  0  0  0  2  0  0  0  0  0  0
  179.7630  179.0800  135.8240 C   0  0  0  0  0  3  0  0  0  0  0  0
  1 17  1  6  0  0  0
  1  9  1  0  0  0  0
  4  2  1  6  0  0  0
  4  6  1  0  0  0  0
  4  8  1  0  0  0  0
  5  1  1  0  0  0  0
  5  7  1  0  0  0  0
  6  8  1  0  0  0  0
  7  6  1  0  0  0  0
  8 23  1  0  0  0  0
  9  3  1  0  0  0  0
  9  4  1  0  0  0  0
 10 11  1  0  0  0  0
 11 13  1  0  0  0  0
 12  7  1  0  0  0  0
 12 15  2  0  0  0  0
 14 10  1  0  0  0  0
 14 12  1  0  0  0  0
 15 13  1  0  0  0  0
 16 10  1  0  0  0  0
 17 19  2  0  0  0  0
 18 20  1  0  0  0  0
 19 20  2  0  0  0  0
 21 22  1  0  0  0  0
 22 17  1  0  0  0  0
 23 24  1  0  0  0  0
 24 26  1  0  0  0  0
 25 31  1  0  0  0  0
 26 30  1  0  0  0  0
 26 27  1  0  0  0  0
 27 25  1  0  0  0  0
 28 31  2  0  0  0  0
 29 28  1  0  0  0  0
 30 29  1  0  0  0  0
 32  5  1  0  0  0  0
 33 34  2  0  0  0  0
 34 32  1  0  0  0  0
M  END
>  <MODEL>
5

>  <REMARK>
 VINA RESULT:      -6.0      2.545      3.203
  Name = 
  8 active torsions:
  status: ('A' for Active; 'I' for Inactive)
    1  A    between atoms: C_2  and  C_4
    2  A    between atoms: C_2  and  O_25
    3  A    between atoms: N_3  and  C_13
    4  A    between atoms: N_3  and  C_17
    5  A    between atoms: C_12  and  C_28
    6  A    between atoms: C_17  and  C_29
    7  A    between atoms: N_21  and  C_32
    8  A    between atoms: C_24  and  C_32
                            x       y       z     vdW  Elec       q    Type
                         _______ _______ _______ _____ _____    ______ ____

>  <TORSDO>
F 8

$$$$
=
 OpenBabel10252414573D

 34 37  0  0  1  0  0  0  0  0999 V2000
  189.1350  178.2000  138.3320 C   0  0  2  0  0  3  0  0  0  0  0  0
  189.1630  176.2000  141.5770 O   0  0  0  0  0  1  0  0  0  0  0  0
  188.1720  178.8440  140.4360 O   0  0  0  0  0  1  0  0  0  0  0  0
  189.6570  176.9800  140.5290 C   0  0  2  0  0  0  0  0  0  0  0  0
  189.8560  177.1120  137.6430 N   0  0  0  0  0  0  0  0  0  0  0  0
  190.8600  176.3700  139.8340 C   0  0  1  0  0  3  0  0  0  0  0  0
  191.0990  176.8210  138.3890 C   0  0  1  0  0  3  0  0  0  0  0  0
  191.0320  177.5940  140.7370 C   0  0  2  0  0  3  0  0  0  0  0  0
  188.6300  177.7470  139.7040 C   0  0  2  0  0  3  0  0  0  0  0  0
  194.0010  174.9470  136.4940 C   0  0  1  0  0  3  0  0  0  0  0  0
  193.6370  173.5730  137.0370 C   0  0  0  0  0  2  0  0  0  0  0  0
  191.9220  175.7530  137.7140 C   0  0  0  0  0  0  0  0  0  0  0  0
  192.1290  173.3900  136.9280 C   0  0  0  0  0  2  0  0  0  0  0  0
  193.3640  176.0410  137.3510 C   0  0  0  0  0  2  0  0  0  0  0  0
  191.3900  174.5260  137.5840 C   0  0  0  0  0  3  0  0  0  0  0  0
  195.7680  175.1450  136.4980 Cl  0  0  0  0  0  0  0  0  0  0  0  0
  187.9450  178.6710  137.5390 C   0  0  0  0  0  0  0  0  0  0  0  0
  184.6750  177.4600  138.3950 C   0  0  0  0  0  1  0  0  0  0  0  0
  186.8710  177.9250  137.5000 C   0  0  0  0  0  0  0  0  0  0  0  0
  185.8010  177.1840  137.4650 C   0  0  0  0  0  3  0  0  0  0  0  0
  186.9020  180.4490  136.3310 O   0  0  0  0  0  1  0  0  0  0  0  0
  188.0000  179.8910  136.8590 O   0  0  0  0  0  0  0  0  0  0  0  0
  191.6810  177.1680  142.0470 C   0  0  0  0  0  2  0  0  0  0  0  0
  191.2710  178.0650  143.1160 N   0  0  0  0  0  2  0  0  0  0  0  0
  191.8370  176.5850  145.8420 C   0  0  0  0  0  2  0  0  0  0  0  0
  190.3260  177.3450  143.9570 C   0  0  1  0  0  3  0  0  0  0  0  0
  191.0200  176.1530  144.6310 C   0  0  0  0  0  2  0  0  0  0  0  0
  189.7460  177.1490  147.1740 C   0  0  0  0  0  3  0  0  0  0  0  0
  188.8890  177.5810  146.0120 C   0  0  0  0  0  2  0  0  0  0  0  0
  189.6820  178.3210  144.9450 C   0  0  0  0  0  2  0  0  0  0  0  0
  191.0040  176.6780  147.0950 C   0  0  0  0  0  3  0  0  0  0  0  0
  190.2610  177.6240  136.3270 C   0  0  0  0  0  2  0  0  0  0  0  0
  188.9090  175.7380  135.5080 C   0  0  0  0  0  2  0  0  0  0  0  0
  189.6270  176.8230  135.2340 C   0  0  0  0  0  3  0  0  0  0  0  0
  1 17  1  6  0  0  0
  1  9  1  0  0  0  0
  4  8  1  0  0  0  0
  4  2  1  1  0  0  0
  5  1  1  0  0  0  0
  5  7  1  0  0  0  0
  6  4  1  0  0  0  0
  6  8  1  0  0  0  0
  7  6  1  0  0  0  0
  8 23  1  0  0  0  0
  9  3  1  0  0  0  0
  9  4  1  0  0  0  0
 10 16  1  0  0  0  0
 10 11  1  0  0  0  0
 10 14  1  0  0  0  0
 12  7  1  0  0  0  0
 13 11  1  0  0  0  0
 13 15  1  0  0  0  0
 14 12  1  0  0  0  0
 15 12  2  0  0  0  0
 19 17  2  0  0  0  0
 20 19  2  0  0  0  0
 20 18  1  0  0  0  0
 21 22  1  0  0  0  0
 22 17  1  0  0  0  0
 23 24  1  0  0  0  0
 24 26  1  0  0  0  0
 25 31  1  0  0  0  0
 26 27  1  0  0  0  0
 26 30  1  0  0  0  0
 27 25  1  0  0  0  0
 29 28  1  0  0  0  0
 30 29  1  0  0  0  0
 31 28  2  0  0  0  0
 32  5  1  0  0  0  0
 34 33  2  0  0  0  0
 34 32  1  0  0  0  0
M  END
>  <MODEL>
6

>  <REMARK>
 VINA RESULT:      -5.9      6.770      9.409
  Name = 
  8 active torsions:
  status: ('A' for Active; 'I' for Inactive)
    1  A    between atoms: C_2  and  C_4
    2  A    between atoms: C_2  and  O_25
    3  A    between atoms: N_3  and  C_13
    4  A    between atoms: N_3  and  C_17
    5  A    between atoms: C_12  and  C_28
    6  A    between atoms: C_17  and  C_29
    7  A    between atoms: N_21  and  C_32
    8  A    between atoms: C_24  and  C_32
                            x       y       z     vdW  Elec       q    Type
                         _______ _______ _______ _____ _____    ______ ____

>  <TORSDO>
F 8

$$$$
=
 OpenBabel10252414573D

 34 37  0  0  1  0  0  0  0  0999 V2000
  187.8060  178.2610  140.4060 C   0  0  2  0  0  3  0  0  0  0  0  0
  188.4170  175.6330  143.0990 O   0  0  0  0  0  1  0  0  0  0  0  0
  186.8210  178.1780  142.5950 O   0  0  0  0  0  1  0  0  0  0  0  0
  188.6810  176.7210  142.2640 C   0  0  2  0  0  0  0  0  0  0  0  0
  188.7170  177.5470  139.4890 N   0  0  0  0  0  0  0  0  0  0  0  0
  189.9560  176.5690  141.4550 C   0  0  1  0  0  3  0  0  0  0  0  0
  190.0250  177.3790  140.1560 C   0  0  1  0  0  3  0  0  0  0  0  0
  189.8960  177.5620  142.6190 C   0  0  2  0  0  3  0  0  0  0  0  0
  187.4750  177.4060  141.6320 C   0  0  2  0  0  3  0  0  0  0  0  0
  191.7740  174.8090  137.7340 C   0  0  1  0  0  3  0  0  0  0  0  0
  192.7150  175.8370  137.1220 C   0  0  0  0  0  2  0  0  0  0  0  0
  191.0300  176.7030  139.2590 C   0  0  0  0  0  0  0  0  0  0  0  0
  193.3140  176.6770  138.2430 C   0  0  0  0  0  2  0  0  0  0  0  0
  190.6060  175.5100  138.4270 C   0  0  0  0  0  2  0  0  0  0  0  0
  192.2410  177.2700  139.1160 C   0  0  0  0  0  3  0  0  0  0  0  0
  191.1500  173.7360  136.4620 Cl  0  0  0  0  0  0  0  0  0  0  0  0
  186.5080  178.6210  139.7350 C   0  0  0  0  0  0  0  0  0  0  0  0
  184.9110  176.2200  137.5970 C   0  0  0  0  0  1  0  0  0  0  0  0
  186.1680  178.0050  138.6340 C   0  0  0  0  0  0  0  0  0  0  0  0
  185.8290  177.3870  137.5380 C   0  0  0  0  0  3  0  0  0  0  0  0
  184.4860  179.8940  139.7710 O   0  0  0  0  0  1  0  0  0  0  0  0
  185.6860  179.6040  140.2940 O   0  0  0  0  0  0  0  0  0  0  0  0
  190.6800  177.0050  143.7990 C   0  0  0  0  0  2  0  0  0  0  0  0
  190.4150  177.8010  144.9870 N   0  0  0  0  0  2  0  0  0  0  0  0
  189.7870  177.9600  148.0740 C   0  0  0  0  0  2  0  0  0  0  0  0
  189.3300  177.1580  145.7150 C   0  0  1  0  0  3  0  0  0  0  0  0
  189.7980  176.7680  147.1240 C   0  0  0  0  0  2  0  0  0  0  0  0
  187.2470  178.0620  148.0740 C   0  0  0  0  0  3  0  0  0  0  0  0
  187.0350  177.5700  146.6650 C   0  0  0  0  0  2  0  0  0  0  0  0
  188.1030  178.0720  145.7050 C   0  0  0  0  0  2  0  0  0  0  0  0
  188.4340  178.1880  148.6960 C   0  0  0  0  0  3  0  0  0  0  0  0
  188.9400  178.4210  138.3300 C   0  0  0  0  0  2  0  0  0  0  0  0
  189.2780  178.1920  135.9040 C   0  0  0  0  0  2  0  0  0  0  0  0
  188.9750  177.6210  137.0660 C   0  0  0  0  0  3  0  0  0  0  0  0
  1 17  1  6  0  0  0
  1  9  1  0  0  0  0
  4  8  1  0  0  0  0
  4  2  1  1  0  0  0
  5  7  1  0  0  0  0
  5  1  1  0  0  0  0
  6  4  1  0  0  0  0
  6  8  1  0  0  0  0
  7  6  1  0  0  0  0
  8 23  1  0  0  0  0
  9  4  1  0  0  0  0
  9  3  1  0  0  0  0
 10 14  1  0  0  0  0
 11 10  1  0  0  0  0
 11 13  1  0  0  0  0
 12  7  1  0  0  0  0
 13 15  1  0  0  0  0
 14 12  1  0  0  0  0
 15 12  2  0  0  0  0
 16 10  1  0  0  0  0
 17 22  1  0  0  0  0
 19 17  2  0  0  0  0
 20 18  1  0  0  0  0
 20 19  2  0  0  0  0
 21 22  1  0  0  0  0
 23 24  1  0  0  0  0
 24 26  1  0  0  0  0
 25 31  1  0  0  0  0
 26 27  1  0  0  0  0
 27 25  1  0  0  0  0
 28 31  2  0  0  0  0
 29 28  1  0  0  0  0
 30 26  1  0  0  0  0
 30 29  1  0  0  0  0
 32  5  1  0  0  0  0
 33 34  2  0  0  0  0
 34 32  1  0  0  0  0
M  END
>  <MODEL>
7

>  <REMARK>
 VINA RESULT:      -5.9      5.460      8.412
  Name = 
  8 active torsions:
  status: ('A' for Active; 'I' for Inactive)
    1  A    between atoms: C_2  and  C_4
    2  A    between atoms: C_2  and  O_25
    3  A    between atoms: N_3  and  C_13
    4  A    between atoms: N_3  and  C_17
    5  A    between atoms: C_12  and  C_28
    6  A    between atoms: C_17  and  C_29
    7  A    between atoms: N_21  and  C_32
    8  A    between atoms: C_24  and  C_32
                            x       y       z     vdW  Elec       q    Type
                         _______ _______ _______ _____ _____    ______ ____

>  <TORSDO>
F 8

$$$$
=
 OpenBabel10252414573D

 34 37  0  0  1  0  0  0  0  0999 V2000
  188.0200  177.4390  138.9820 C   0  0  2  0  0  3  0  0  0  0  0  0
  188.2610  179.7560  141.9990 O   0  0  0  0  0  1  0  0  0  0  0  0
  189.8410  177.5990  140.5410 O   0  0  0  0  0  1  0  0  0  0  0  0
  187.8260  178.6820  141.2190 C   0  0  2  0  0  0  0  0  0  0  0  0
  186.7030  178.0080  138.6370 N   0  0  0  0  0  0  0  0  0  0  0  0
  186.3200  178.6250  141.0520 C   0  0  1  0  0  3  0  0  0  0  0  0
  185.8110  177.8850  139.8100 C   0  0  1  0  0  3  0  0  0  0  0  0
  187.0350  177.6040  141.9410 C   0  0  2  0  0  3  0  0  0  0  0  0
  188.7210  178.2770  140.0540 C   0  0  2  0  0  3  0  0  0  0  0  0
  181.9090  178.0940  139.3080 C   0  0  1  0  0  3  0  0  0  0  0  0
  181.8310  179.5930  139.5610 C   0  0  0  0  0  2  0  0  0  0  0  0
  184.4240  178.3980  139.5170 C   0  0  0  0  0  0  0  0  0  0  0  0
  182.9490  180.2770  138.7840 C   0  0  0  0  0  2  0  0  0  0  0  0
  183.2240  177.5340  139.8480 C   0  0  0  0  0  2  0  0  0  0  0  0
  184.2880  179.6690  139.1010 C   0  0  0  0  0  3  0  0  0  0  0  0
  180.5460  177.2800  140.1070 Cl  0  0  0  0  0  0  0  0  0  0  0  0
  188.9300  177.3710  137.7850 C   0  0  0  0  0  0  0  0  0  0  0  0
  188.7540  174.5260  135.6040 C   0  0  0  0  0  1  0  0  0  0  0  0
  189.2270  176.2040  137.2770 C   0  0  0  0  0  0  0  0  0  0  0  0
  189.5200  175.0410  136.7680 C   0  0  0  0  0  3  0  0  0  0  0  0
  188.7300  179.6840  137.2170 O   0  0  0  0  0  1  0  0  0  0  0  0
  189.4430  178.5490  137.2340 O   0  0  0  0  0  0  0  0  0  0  0  0
  186.7730  177.9370  143.4030 C   0  0  0  0  0  2  0  0  0  0  0  0
  187.4880  177.0020  144.2580 N   0  0  0  0  0  2  0  0  0  0  0  0
  188.8950  176.7550  147.0690 C   0  0  0  0  0  2  0  0  0  0  0  0
  188.7030  177.6630  144.7130 C   0  0  1  0  0  3  0  0  0  0  0  0
  188.6020  177.9800  146.2120 C   0  0  0  0  0  2  0  0  0  0  0  0
  191.3510  176.7610  146.4150 C   0  0  0  0  0  3  0  0  0  0  0  0
  191.1780  177.3140  145.0240 C   0  0  0  0  0  2  0  0  0  0  0  0
  189.9150  176.8030  144.3460 C   0  0  0  0  0  2  0  0  0  0  0  0
  190.3690  176.5610  147.3130 C   0  0  0  0  0  3  0  0  0  0  0  0
  186.1290  177.1680  137.5780 C   0  0  0  0  0  2  0  0  0  0  0  0
  186.4550  177.6240  135.1820 C   0  0  0  0  0  2  0  0  0  0  0  0
  185.8950  177.9710  136.3370 C   0  0  0  0  0  3  0  0  0  0  0  0
  1 17  1  6  0  0  0
  1  9  1  0  0  0  0
  4  8  1  0  0  0  0
  4  2  1  1  0  0  0
  5  1  1  0  0  0  0
  5  7  1  0  0  0  0
  6  4  1  0  0  0  0
  6  8  1  0  0  0  0
  7  6  1  0  0  0  0
  8 23  1  0  0  0  0
  9  3  1  0  0  0  0
  9  4  1  0  0  0  0
 10 11  1  0  0  0  0
 10 14  1  0  0  0  0
 10 16  1  0  0  0  0
 12  7  1  0  0  0  0
 12 14  1  0  0  0  0
 13 15  1  0  0  0  0
 13 11  1  0  0  0  0
 15 12  2  0  0  0  0
 18 20  1  0  0  0  0
 19 17  2  0  0  0  0
 20 19  2  0  0  0  0
 21 22  1  0  0  0  0
 22 17  1  0  0  0  0
 23 24  1  0  0  0  0
 24 26  1  0  0  0  0
 25 31  1  0  0  0  0
 26 27  1  0  0  0  0
 27 25  1  0  0  0  0
 28 31  2  0  0  0  0
 29 28  1  0  0  0  0
 30 26  1  0  0  0  0
 30 29  1  0  0  0  0
 32  5  1  0  0  0  0
 33 34  2  0  0  0  0
 34 32  1  0  0  0  0
M  END
>  <MODEL>
8

>  <REMARK>
 VINA RESULT:      -5.6      3.764      5.677
  Name = 
  8 active torsions:
  status: ('A' for Active; 'I' for Inactive)
    1  A    between atoms: C_2  and  C_4
    2  A    between atoms: C_2  and  O_25
    3  A    between atoms: N_3  and  C_13
    4  A    between atoms: N_3  and  C_17
    5  A    between atoms: C_12  and  C_28
    6  A    between atoms: C_17  and  C_29
    7  A    between atoms: N_21  and  C_32
    8  A    between atoms: C_24  and  C_32
                            x       y       z     vdW  Elec       q    Type
                         _______ _______ _______ _____ _____    ______ ____

>  <TORSDO>
F 8

$$$$
=
 OpenBabel10252414573D

 34 37  0  0  1  0  0  0  0  0999 V2000
  184.1740  176.3040  137.6030 C   0  0  2  0  0  3  0  0  0  0  0  0
  186.6680  179.1560  138.0150 O   0  0  0  0  0  1  0  0  0  0  0  0
  186.5680  176.1320  137.6610 O   0  0  0  0  0  1  0  0  0  0  0  0
  185.6840  178.2310  138.3710 C   0  0  2  0  0  0  0  0  0  0  0  0
  183.0530  177.2640  137.6460 N   0  0  0  0  0  0  0  0  0  0  0  0
  184.4560  178.8640  138.9980 C   0  0  1  0  0  3  0  0  0  0  0  0
  183.1570  178.0590  138.8880 C   0  0  1  0  0  3  0  0  0  0  0  0
  185.4310  178.0580  139.8600 C   0  0  2  0  0  3  0  0  0  0  0  0
  185.5150  177.0260  137.4540 C   0  0  2  0  0  3  0  0  0  0  0  0
  180.0500  180.0250  140.3040 C   0  0  1  0  0  3  0  0  0  0  0  0
  180.3060  181.2760  139.4750 C   0  0  0  0  0  2  0  0  0  0  0  0
  182.0120  179.0290  139.0310 C   0  0  0  0  0  0  0  0  0  0  0  0
  180.6200  180.8550  138.0450 C   0  0  0  0  0  2  0  0  0  0  0  0
  181.3130  179.1650  140.3680 C   0  0  0  0  0  2  0  0  0  0  0  0
  181.7390  179.8500  138.0020 C   0  0  0  0  0  3  0  0  0  0  0  0
  179.5660  180.4870  141.9510 Cl  0  0  0  0  0  0  0  0  0  0  0  0
  184.0410  175.3420  136.4530 C   0  0  0  0  0  0  0  0  0  0  0  0
  183.2710  171.9000  137.1220 C   0  0  0  0  0  1  0  0  0  0  0  0
  184.2380  174.0670  136.6640 C   0  0  0  0  0  0  0  0  0  0  0  0
  184.4310  172.7960  136.8760 C   0  0  0  0  0  3  0  0  0  0  0  0
  184.4090  176.8040  134.5990 O   0  0  0  0  0  1  0  0  0  0  0  0
  183.7110  175.8190  135.1810 O   0  0  0  0  0  0  0  0  0  0  0  0
  186.2530  179.0100  140.7180 C   0  0  0  0  0  2  0  0  0  0  0  0
  186.9600  178.2620  141.7460 N   0  0  0  0  0  2  0  0  0  0  0  0
  187.4290  177.8430  144.8360 C   0  0  0  0  0  2  0  0  0  0  0  0
  185.9860  177.8730  142.7560 C   0  0  1  0  0  3  0  0  0  0  0  0
  186.6550  177.0020  143.8280 C   0  0  0  0  0  2  0  0  0  0  0  0
  185.2940  178.8150  145.8150 C   0  0  0  0  0  3  0  0  0  0  0  0
  184.4780  178.8000  144.5480 C   0  0  0  0  0  2  0  0  0  0  0  0
  185.3080  179.1270  143.3160 C   0  0  0  0  0  2  0  0  0  0  0  0
  186.5540  178.3600  145.9480 C   0  0  0  0  0  3  0  0  0  0  0  0
  181.8130  176.4820  137.7440 C   0  0  0  0  0  2  0  0  0  0  0  0
  180.7010  175.4390  139.6750 C   0  0  0  0  0  2  0  0  0  0  0  0
  181.8180  175.6420  138.9810 C   0  0  0  0  0  3  0  0  0  0  0  0
  1 17  1  6  0  0  0
  1  5  1  0  0  0  0
  4  2  1  6  0  0  0
  4  6  1  0  0  0  0
  4  8  1  0  0  0  0
  5 32  1  0  0  0  0
  5  7  1  0  0  0  0
  6  8  1  0  0  0  0
  7  6  1  0  0  0  0
  7 12  1  0  0  0  0
  8 23  1  0  0  0  0
  9  1  1  0  0  0  0
  9  3  1  0  0  0  0
  9  4  1  0  0  0  0
 10 14  1  0  0  0  0
 10 16  1  0  0  0  0
 11 10  1  0  0  0  0
 12 14  1  0  0  0  0
 13 11  1  0  0  0  0
 15 13  1  0  0  0  0
 15 12  2  0  0  0  0
 17 19  2  0  0  0  0
 19 20  2  0  0  0  0
 20 18  1  0  0  0  0
 21 22  1  0  0  0  0
 22 17  1  0  0  0  0
 23 24  1  0  0  0  0
 24 26  1  0  0  0  0
 25 31  1  0  0  0  0
 26 30  1  0  0  0  0
 26 27  1  0  0  0  0
 27 25  1  0  0  0  0
 28 31  2  0  0  0  0
 29 28  1  0  0  0  0
 30 29  1  0  0  0  0
 32 34  1  0  0  0  0
 34 33  2  0  0  0  0
M  END
>  <MODEL>
9

>  <REMARK>
 VINA RESULT:      -5.5      1.759      2.424
  Name = 
  8 active torsions:
  status: ('A' for Active; 'I' for Inactive)
    1  A    between atoms: C_2  and  C_4
    2  A    between atoms: C_2  and  O_25
    3  A    between atoms: N_3  and  C_13
    4  A    between atoms: N_3  and  C_17
    5  A    between atoms: C_12  and  C_28
    6  A    between atoms: C_17  and  C_29
    7  A    between atoms: N_21  and  C_32
    8  A    between atoms: C_24  and  C_32
                            x       y       z     vdW  Elec       q    Type
                         _______ _______ _______ _____ _____    ______ ____

>  <TORSDO>
F 8

$$$$
