=
 OpenBabel10252414553D

 34 37  0  0  1  0  0  0  0  0999 V2000
  182.4250  178.4760  141.1090 C   0  0  0  0  0  0  0  0  0  0  0  0
  182.7990  178.0800  138.6310 C   0  0  2  0  0  3  0  0  0  0  0  0
  185.0310  177.3080  136.8020 O   0  0  0  0  0  0  0  0  0  0  0  0
  181.6290  178.3110  142.0740 O   0  0  0  0  0  0  0  0  0  0  0  0
  184.7340  178.8640  140.2210 C   0  0  0  0  0  2  0  0  0  0  0  0
  181.8770  178.6600  139.7270 C   0  0  2  0  0  3  0  0  0  0  0  0
  185.2380  177.8770  138.0710 C   0  0  0  0  0  3  0  0  0  0  0  0
  182.4890  176.6050  138.3240 C   0  0  2  0  0  3  0  0  0  0  0  0
  183.8470  178.5230  141.3260 N   0  0  0  0  0  0  0  0  0  0  0  0
  183.7680  177.2060  136.1520 C   0  0  0  0  0  2  0  0  0  0  0  0
  182.8350  176.2290  136.8730 C   0  0  1  0  0  3  0  0  0  0  0  0
  184.2790  178.2430  138.9340 C   0  0  0  0  0  0  0  0  0  0  0  0
  181.1440  176.3040  138.5560 O   0  0  0  0  0  1  0  0  0  0  0  0
  183.1420  172.6130  135.7290 C   0  0  0  0  0  0  0  0  0  0  0  0
  184.1260  172.1380  136.6080 C   0  0  0  0  0  3  0  0  0  0  0  0
  183.2980  174.8110  136.7430 C   0  0  0  0  0  0  0  0  0  0  0  0
  184.6900  172.9930  137.5560 C   0  0  0  0  0  3  0  0  0  0  0  0
  182.7270  173.9460  135.7990 C   0  0  0  0  0  3  0  0  0  0  0  0
  184.2750  174.3270  137.6250 C   0  0  0  0  0  3  0  0  0  0  0  0
  182.5360  171.6990  134.7280 C   0  0  0  0  0  1  0  0  0  0  0  0
  185.7520  178.9790  142.6240 O   0  0  0  0  0  0  0  0  0  0  0  0
  186.5690  178.2080  143.4880 C   0  0  1  0  0  3  0  0  0  0  0  0
  184.4220  178.5140  142.6700 C   0  0  1  0  0  3  0  0  0  0  0  0
  183.8110  178.9980  145.0780 C   0  0  0  0  0  2  0  0  0  0  0  0
  185.2780  179.0900  145.4850 C   0  0  0  0  0  2  0  0  0  0  0  0
  186.0490  177.9090  144.9100 C   0  0  0  0  0  2  0  0  0  0  0  0
  183.5900  179.3800  143.6150 C   0  0  0  0  0  2  0  0  0  0  0  0
  187.2010  177.1240  142.8430 O   0  0  0  0  0  0  0  0  0  0  0  0
  188.0970  176.5300  143.7430 C   0  0  0  0  0  2  0  0  0  0  0  0
  188.9070  175.6270  143.0690 F   0  0  0  0  0  0  0  0  0  0  0  0
  181.4320  180.1060  139.4690 C   0  0  2  0  0  3  0  0  0  0  0  0
  180.0130  180.3180  139.9750 C   0  0  0  0  0  1  0  0  0  0  0  0
  180.9560  181.9070  137.8050 C   0  0  0  0  0  1  0  0  0  0  0  0
  181.5510  180.5250  138.0070 C   0  0  0  0  0  2  0  0  0  0  0  0
  1  9  1  0  0  0  0
  1  4  2  0  0  0  0
  2 12  1  1  0  0  0
  2  6  1  0  0  0  0
  3  7  1  0  0  0  0
  5  9  1  0  0  0  0
  6 31  1  6  0  0  0
  6  1  1  0  0  0  0
  7 12  2  0  0  0  0
  8 13  1  6  0  0  0
  8  2  1  0  0  0  0
 10  3  1  0  0  0  0
 10 11  1  0  0  0  0
 11 16  1  1  0  0  0
 11  8  1  0  0  0  0
 12  5  1  0  0  0  0
 14 18  2  0  0  0  0
 14 15  1  0  0  0  0
 15 17  2  0  0  0  0
 16 19  2  0  0  0  0
 17 19  1  0  0  0  0
 18 16  1  0  0  0  0
 20 14  1  0  0  0  0
 21 23  1  0  0  0  0
 21 22  1  0  0  0  0
 22 28  1  6  0  0  0
 22 26  1  0  0  0  0
 23  9  1  6  0  0  0
 23 27  1  0  0  0  0
 24 25  1  0  0  0  0
 26 25  1  0  0  0  0
 27 24  1  0  0  0  0
 28 29  1  0  0  0  0
 30 29  1  0  0  0  0
 31 32  1  6  0  0  0
 33 34  1  0  0  0  0
 34 31  1  0  0  0  0
M  END
>  <MODEL>
1

>  <REMARK>
 VINA RESULT:      -7.4      0.000      0.000
  Name = 
  6 active torsions:
  status: ('A' for Active; 'I' for Inactive)
    1  A    between atoms: C_1  and  C_15
    2  A    between atoms: C_1  and  C_19
    3  A    between atoms: O_3  and  C_13
    4  A    between atoms: O_3  and  C_17
    5  A    between atoms: C_12  and  C_28
    6  A    between atoms: C_14  and  N_25
                            x       y       z     vdW  Elec       q    Type
                         _______ _______ _______ _____ _____    ______ ____

>  <TORSDO>
F 6

$$$$
=
 OpenBabel10252414553D

 34 37  0  0  1  0  0  0  0  0999 V2000
  185.4520  178.9970  140.9000 C   0  0  0  0  0  0  0  0  0  0  0  0
  183.6110  178.8740  139.1590 C   0  0  2  0  0  3  0  0  0  0  0  0
  180.6770  178.3260  139.0410 O   0  0  0  0  0  0  0  0  0  0  0  0
  186.4840  179.6200  141.2720 O   0  0  0  0  0  0  0  0  0  0  0  0
  183.5020  177.5060  141.3960 C   0  0  0  0  0  2  0  0  0  0  0  0
  185.1300  178.9110  139.4400 C   0  0  2  0  0  3  0  0  0  0  0  0
  181.5000  177.8870  140.0930 C   0  0  0  0  0  3  0  0  0  0  0  0
  183.0120  180.2810  138.9860 C   0  0  2  0  0  3  0  0  0  0  0  0
  184.6010  178.3430  141.8600 N   0  0  0  0  0  0  0  0  0  0  0  0
  181.1460  178.9050  137.8280 C   0  0  0  0  0  2  0  0  0  0  0  0
  181.7830  180.2780  138.0610 C   0  0  1  0  0  3  0  0  0  0  0  0
  182.8190  178.1010  140.2000 C   0  0  0  0  0  0  0  0  0  0  0  0
  183.9540  181.1800  138.4790 O   0  0  0  0  0  1  0  0  0  0  0  0
  179.6870  183.4530  138.1200 C   0  0  0  0  0  0  0  0  0  0  0  0
  178.9320  183.2530  139.2840 C   0  0  0  0  0  3  0  0  0  0  0  0
  180.7690  181.3080  138.4530 C   0  0  0  0  0  0  0  0  0  0  0  0
  179.0980  182.0880  140.0350 C   0  0  0  0  0  3  0  0  0  0  0  0
  180.6060  182.4840  137.7070 C   0  0  0  0  0  3  0  0  0  0  0  0
  180.0170  181.1170  139.6210 C   0  0  0  0  0  3  0  0  0  0  0  0
  179.5160  184.6980  137.3290 C   0  0  0  0  0  1  0  0  0  0  0  0
  186.3480  178.4420  143.4290 O   0  0  0  0  0  0  0  0  0  0  0  0
  186.8540  177.5470  144.4050 C   0  0  1  0  0  3  0  0  0  0  0  0
  184.9590  178.2580  143.2750 C   0  0  1  0  0  3  0  0  0  0  0  0
  184.1120  178.9260  145.5640 C   0  0  0  0  0  2  0  0  0  0  0  0
  185.4910  178.7310  146.1870 C   0  0  0  0  0  2  0  0  0  0  0  0
  186.0800  177.4020  145.7330 C   0  0  0  0  0  2  0  0  0  0  0  0
  184.1930  179.3020  144.0860 C   0  0  0  0  0  2  0  0  0  0  0  0
  187.3380  176.3390  143.8610 O   0  0  0  0  0  0  0  0  0  0  0  0
  188.5040  176.6130  143.1320 C   0  0  0  0  0  2  0  0  0  0  0  0
  189.2500  175.4530  142.9910 F   0  0  0  0  0  0  0  0  0  0  0  0
  185.9230  177.8000  138.7380 C   0  0  2  0  0  3  0  0  0  0  0  0
  187.3290  178.2820  138.4140 C   0  0  0  0  0  1  0  0  0  0  0  0
  186.1140  177.4800  136.2680 C   0  0  0  0  0  1  0  0  0  0  0  0
  185.2360  177.2620  137.4870 C   0  0  0  0  0  2  0  0  0  0  0  0
  1  4  2  0  0  0  0
  1  9  1  0  0  0  0
  2  6  1  0  0  0  0
  2 12  1  1  0  0  0
  3  7  1  0  0  0  0
  5  9  1  0  0  0  0
  6 31  1  1  0  0  0
  6  1  1  0  0  0  0
  7 12  2  0  0  0  0
  8 13  1  6  0  0  0
  8  2  1  0  0  0  0
 10 11  1  0  0  0  0
 10  3  1  0  0  0  0
 11 16  1  1  0  0  0
 11  8  1  0  0  0  0
 12  5  1  0  0  0  0
 14 15  1  0  0  0  0
 15 17  2  0  0  0  0
 16 19  2  0  0  0  0
 18 14  2  0  0  0  0
 18 16  1  0  0  0  0
 19 17  1  0  0  0  0
 20 14  1  0  0  0  0
 21 22  1  0  0  0  0
 22 28  1  6  0  0  0
 22 26  1  0  0  0  0
 23  9  1  6  0  0  0
 23 21  1  0  0  0  0
 23 27  1  0  0  0  0
 24 25  1  0  0  0  0
 26 25  1  0  0  0  0
 27 24  1  0  0  0  0
 29 28  1  0  0  0  0
 30 29  1  0  0  0  0
 31 32  1  6  0  0  0
 33 34  1  0  0  0  0
 34 31  1  0  0  0  0
M  END
>  <MODEL>
2

>  <REMARK>
 VINA RESULT:      -7.0      2.606      5.800
  Name = 
  6 active torsions:
  status: ('A' for Active; 'I' for Inactive)
    1  A    between atoms: C_1  and  C_15
    2  A    between atoms: C_1  and  C_19
    3  A    between atoms: O_3  and  C_13
    4  A    between atoms: O_3  and  C_17
    5  A    between atoms: C_12  and  C_28
    6  A    between atoms: C_14  and  N_25
                            x       y       z     vdW  Elec       q    Type
                         _______ _______ _______ _____ _____    ______ ____

>  <TORSDO>
F 6

$$$$
=
 OpenBabel10252414553D

 34 37  0  0  1  0  0  0  0  0999 V2000
  184.6300  176.8010  136.4750 C   0  0  0  0  0  0  0  0  0  0  0  0
  182.7340  177.4390  138.0340 C   0  0  2  0  0  3  0  0  0  0  0  0
  181.3180  176.3150  140.4120 O   0  0  0  0  0  0  0  0  0  0  0  0
  185.6320  177.2260  135.8370 O   0  0  0  0  0  0  0  0  0  0  0  0
  183.3620  174.9360  137.5620 C   0  0  0  0  0  2  0  0  0  0  0  0
  183.4600  177.7090  136.6980 C   0  0  2  0  0  3  0  0  0  0  0  0
  182.0370  175.5240  139.4990 C   0  0  0  0  0  3  0  0  0  0  0  0
  183.3170  178.2640  139.1950 C   0  0  2  0  0  3  0  0  0  0  0  0
  184.5870  175.4470  136.9620 N   0  0  0  0  0  0  0  0  0  0  0  0
  181.0100  177.6930  140.2290 C   0  0  0  0  0  2  0  0  0  0  0  0
  182.2660  178.5680  140.2770 C   0  0  1  0  0  3  0  0  0  0  0  0
  182.6900  175.9690  138.4170 C   0  0  0  0  0  0  0  0  0  0  0  0
  183.8600  179.4710  138.7460 O   0  0  0  0  0  1  0  0  0  0  0  0
  184.7270  178.3350  143.1690 C   0  0  0  0  0  0  0  0  0  0  0  0
  183.8940  178.6490  144.2540 C   0  0  0  0  0  3  0  0  0  0  0  0
  182.8580  178.6260  141.6510 C   0  0  0  0  0  0  0  0  0  0  0  0
  182.5480  178.9460  144.0390 C   0  0  0  0  0  3  0  0  0  0  0  0
  184.2080  178.3200  141.8710 C   0  0  0  0  0  3  0  0  0  0  0  0
  182.0290  178.9320  142.7390 C   0  0  0  0  0  3  0  0  0  0  0  0
  186.1570  178.0100  143.4010 C   0  0  0  0  0  1  0  0  0  0  0  0
  186.7200  174.6260  137.5090 O   0  0  0  0  0  0  0  0  0  0  0  0
  187.9390  174.4880  136.8000 C   0  0  1  0  0  3  0  0  0  0  0  0
  185.6280  174.4750  136.6300 C   0  0  1  0  0  3  0  0  0  0  0  0
  185.9160  172.0730  135.8890 C   0  0  0  0  0  2  0  0  0  0  0  0
  187.3790  172.0620  136.3210 C   0  0  0  0  0  2  0  0  0  0  0  0
  188.0790  173.3140  135.8080 C   0  0  0  0  0  2  0  0  0  0  0  0
  185.0780  173.0520  136.7080 C   0  0  0  0  0  2  0  0  0  0  0  0
  188.4680  175.7160  136.3490 O   0  0  0  0  0  0  0  0  0  0  0  0
  188.9440  176.4310  137.4580 C   0  0  0  0  0  2  0  0  0  0  0  0
  188.0250  177.4080  137.8130 F   0  0  0  0  0  0  0  0  0  0  0  0
  182.5280  177.7600  135.4790 C   0  0  2  0  0  3  0  0  0  0  0  0
  181.1180  178.1360  135.9100 C   0  0  0  0  0  1  0  0  0  0  0  0
  181.1510  175.8110  134.7420 C   0  0  0  0  0  1  0  0  0  0  0  0
  182.5180  176.4670  134.6690 C   0  0  0  0  0  2  0  0  0  0  0  0
  1  6  1  0  0  0  0
  1  9  1  0  0  0  0
  2 12  1  1  0  0  0
  2  8  1  0  0  0  0
  4  1  2  0  0  0  0
  5 12  1  0  0  0  0
  6 31  1  6  0  0  0
  6  2  1  0  0  0  0
  7  3  1  0  0  0  0
  8 13  1  6  0  0  0
  8 11  1  0  0  0  0
  9  5  1  0  0  0  0
 10 11  1  0  0  0  0
 10  3  1  0  0  0  0
 11 16  1  1  0  0  0
 12  7  2  0  0  0  0
 14 20  1  0  0  0  0
 14 15  1  0  0  0  0
 16 18  1  0  0  0  0
 16 19  2  0  0  0  0
 17 15  2  0  0  0  0
 18 14  2  0  0  0  0
 19 17  1  0  0  0  0
 22 28  1  6  0  0  0
 22 21  1  0  0  0  0
 23 27  1  1  0  0  0
 23  9  1  0  0  0  0
 23 21  1  0  0  0  0
 24 25  1  0  0  0  0
 24 27  1  0  0  0  0
 26 25  1  0  0  0  0
 26 22  1  0  0  0  0
 28 29  1  0  0  0  0
 29 30  1  0  0  0  0
 31 32  1  1  0  0  0
 34 33  1  0  0  0  0
 34 31  1  0  0  0  0
M  END
>  <MODEL>
3

>  <REMARK>
 VINA RESULT:      -6.7      2.530      7.053
  Name = 
  6 active torsions:
  status: ('A' for Active; 'I' for Inactive)
    1  A    between atoms: C_1  and  C_15
    2  A    between atoms: C_1  and  C_19
    3  A    between atoms: O_3  and  C_13
    4  A    between atoms: O_3  and  C_17
    5  A    between atoms: C_12  and  C_28
    6  A    between atoms: C_14  and  N_25
                            x       y       z     vdW  Elec       q    Type
                         _______ _______ _______ _____ _____    ______ ____

>  <TORSDO>
F 6

$$$$
=
 OpenBabel10252414553D

 34 37  0  0  1  0  0  0  0  0999 V2000
  183.1820  176.8220  139.4110 C   0  0  0  0  0  0  0  0  0  0  0  0
  184.5460  176.9630  137.2770 C   0  0  2  0  0  3  0  0  0  0  0  0
  187.1190  178.1600  136.3420 O   0  0  0  0  0  0  0  0  0  0  0  0
  182.4650  176.0760  140.1320 O   0  0  0  0  0  0  0  0  0  0  0  0
  184.6720  178.8150  139.1320 C   0  0  0  0  0  2  0  0  0  0  0  0
  183.1850  176.6280  137.9260 C   0  0  2  0  0  3  0  0  0  0  0  0
  186.4160  178.6270  137.4660 C   0  0  0  0  0  3  0  0  0  0  0  0
  185.4840  175.7440  137.2190 C   0  0  2  0  0  3  0  0  0  0  0  0
  183.9710  177.8740  139.9960 N   0  0  0  0  0  0  0  0  0  0  0  0
  186.6180  177.2090  135.4070 C   0  0  0  0  0  2  0  0  0  0  0  0
  186.4630  175.8210  136.0350 C   0  0  1  0  0  3  0  0  0  0  0  0
  185.2610  178.1330  137.9330 C   0  0  0  0  0  0  0  0  0  0  0  0
  184.7660  174.5490  137.1320 O   0  0  0  0  0  1  0  0  0  0  0  0
  189.9410  175.2250  137.4580 C   0  0  0  0  0  0  0  0  0  0  0  0
  190.2920  174.0310  136.8110 C   0  0  0  0  0  3  0  0  0  0  0  0
  187.7860  175.1930  136.3440 C   0  0  0  0  0  0  0  0  0  0  0  0
  189.3970  173.4220  135.9300 C   0  0  0  0  0  3  0  0  0  0  0  0
  188.6920  175.8060  137.2220 C   0  0  0  0  0  3  0  0  0  0  0  0
  188.1460  174.0040  135.6950 C   0  0  0  0  0  3  0  0  0  0  0  0
  190.8990  175.8760  138.3870 C   0  0  0  0  0  1  0  0  0  0  0  0
  184.9450  179.0560  141.7790 O   0  0  0  0  0  0  0  0  0  0  0  0
  185.4470  178.6890  143.0530 C   0  0  1  0  0  3  0  0  0  0  0  0
  183.8770  178.2100  141.4160 C   0  0  1  0  0  3  0  0  0  0  0  0
  182.1720  178.7710  143.2000 C   0  0  0  0  0  2  0  0  0  0  0  0
  183.2430  179.3640  144.1090 C   0  0  0  0  0  2  0  0  0  0  0  0
  184.4360  178.4190  144.1870 C   0  0  0  0  0  2  0  0  0  0  0  0
  182.5400  178.8840  141.7220 C   0  0  0  0  0  2  0  0  0  0  0  0
  186.5280  177.7840  142.9900 O   0  0  0  0  0  0  0  0  0  0  0  0
  187.4500  178.2550  142.0440 C   0  0  0  0  0  2  0  0  0  0  0  0
  188.7280  178.2260  142.5830 F   0  0  0  0  0  0  0  0  0  0  0  0
  181.9870  177.3100  137.2530 C   0  0  2  0  0  3  0  0  0  0  0  0
  182.3930  177.8720  135.8980 C   0  0  0  0  0  1  0  0  0  0  0  0
  181.5120  179.7540  137.4630 C   0  0  0  0  0  1  0  0  0  0  0  0
  181.3420  178.3920  138.1140 C   0  0  0  0  0  2  0  0  0  0  0  0
  1  9  1  0  0  0  0
  1  4  2  0  0  0  0
  2  6  1  0  0  0  0
  2 12  1  1  0  0  0
  3  7  1  0  0  0  0
  5  9  1  0  0  0  0
  6 31  1  6  0  0  0
  6  1  1  0  0  0  0
  7 12  2  0  0  0  0
  8 13  1  6  0  0  0
  8  2  1  0  0  0  0
 10 11  1  0  0  0  0
 10  3  1  0  0  0  0
 11 16  1  1  0  0  0
 11  8  1  0  0  0  0
 12  5  1  0  0  0  0
 14 20  1  0  0  0  0
 15 14  2  0  0  0  0
 16 18  2  0  0  0  0
 17 15  1  0  0  0  0
 18 14  1  0  0  0  0
 19 17  2  0  0  0  0
 19 16  1  0  0  0  0
 21 22  1  0  0  0  0
 22 28  1  6  0  0  0
 22 26  1  0  0  0  0
 23  9  1  6  0  0  0
 23 27  1  0  0  0  0
 23 21  1  0  0  0  0
 24 25  1  0  0  0  0
 25 26  1  0  0  0  0
 27 24  1  0  0  0  0
 29 30  1  0  0  0  0
 29 28  1  0  0  0  0
 31 32  1  6  0  0  0
 31 34  1  0  0  0  0
 33 34  1  0  0  0  0
M  END
>  <MODEL>
4

>  <REMARK>
 VINA RESULT:      -6.6      2.701      3.798
  Name = 
  6 active torsions:
  status: ('A' for Active; 'I' for Inactive)
    1  A    between atoms: C_1  and  C_15
    2  A    between atoms: C_1  and  C_19
    3  A    between atoms: O_3  and  C_13
    4  A    between atoms: O_3  and  C_17
    5  A    between atoms: C_12  and  C_28
    6  A    between atoms: C_14  and  N_25
                            x       y       z     vdW  Elec       q    Type
                         _______ _______ _______ _____ _____    ______ ____

>  <TORSDO>
F 6

$$$$
=
 OpenBabel10252414553D

 34 37  0  0  1  0  0  0  0  0999 V2000
  189.9010  176.7540  139.6260 C   0  0  0  0  0  0  0  0  0  0  0  0
  191.5630  176.3880  137.7440 C   0  0  2  0  0  3  0  0  0  0  0  0
  194.5140  176.0820  137.3940 O   0  0  0  0  0  0  0  0  0  0  0  0
  188.7660  176.4410  140.0780 O   0  0  0  0  0  0  0  0  0  0  0  0
  192.2260  177.6190  139.9650 C   0  0  0  0  0  2  0  0  0  0  0  0
  190.1230  176.7780  138.1450 C   0  0  2  0  0  3  0  0  0  0  0  0
  193.9320  176.7140  138.5070 C   0  0  0  0  0  3  0  0  0  0  0  0
  191.7210  174.8740  137.5250 C   0  0  2  0  0  3  0  0  0  0  0  0
  190.9730  177.1180  140.5150 N   0  0  0  0  0  0  0  0  0  0  0  0
  193.8080  175.6880  136.2220 C   0  0  0  0  0  2  0  0  0  0  0  0
  192.8270  174.5480  136.5060 C   0  0  1  0  0  3  0  0  0  0  0  0
  192.6190  176.8810  138.7190 C   0  0  0  0  0  0  0  0  0  0  0  0
  190.5270  174.2900  137.0940 O   0  0  0  0  0  1  0  0  0  0  0  0
  193.8790  170.8920  136.4470 C   0  0  0  0  0  0  0  0  0  0  0  0
  194.8030  170.8630  137.5030 C   0  0  0  0  0  3  0  0  0  0  0  0
  193.5310  173.2630  136.8160 C   0  0  0  0  0  0  0  0  0  0  0  0
  195.0860  172.0280  138.2160 C   0  0  0  0  0  3  0  0  0  0  0  0
  193.2420  172.0890  136.1070 C   0  0  0  0  0  3  0  0  0  0  0  0
  194.4490  173.2270  137.8750 C   0  0  0  0  0  3  0  0  0  0  0  0
  193.5710  169.6480  135.6960 C   0  0  0  0  0  1  0  0  0  0  0  0
  190.4300  176.0240  142.5220 O   0  0  0  0  0  0  0  0  0  0  0  0
  189.4120  176.1880  143.4950 C   0  0  1  0  0  3  0  0  0  0  0  0
  190.7640  177.2700  141.9540 C   0  0  1  0  0  3  0  0  0  0  0  0
  191.6950  178.4970  143.9610 C   0  0  0  0  0  2  0  0  0  0  0  0
  191.0110  177.5370  144.9290 C   0  0  0  0  0  2  0  0  0  0  0  0
  189.5580  177.3350  144.5180 C   0  0  0  0  0  2  0  0  0  0  0  0
  192.0150  177.8380  142.6210 C   0  0  0  0  0  2  0  0  0  0  0  0
  188.1110  176.0090  142.9810 O   0  0  0  0  0  0  0  0  0  0  0  0
  187.3380  177.1280  143.3230 C   0  0  0  0  0  2  0  0  0  0  0  0
  187.3760  178.0550  142.2910 F   0  0  0  0  0  0  0  0  0  0  0  0
  189.6280  178.0830  137.5070 C   0  0  2  0  0  3  0  0  0  0  0  0
  189.0500  179.0030  138.5730 C   0  0  0  0  0  1  0  0  0  0  0  0
  187.2280  178.2590  136.8350 C   0  0  0  0  0  1  0  0  0  0  0  0
  188.6220  177.8650  136.3810 C   0  0  0  0  0  2  0  0  0  0  0  0
  1  4  2  0  0  0  0
  1  9  1  0  0  0  0
  2  6  1  0  0  0  0
  2 12  1  1  0  0  0
  3  7  1  0  0  0  0
  5  9  1  0  0  0  0
  6 31  1  1  0  0  0
  6  1  1  0  0  0  0
  7 12  2  0  0  0  0
  8 13  1  6  0  0  0
  8  2  1  0  0  0  0
 10 11  1  0  0  0  0
 10  3  1  0  0  0  0
 11 16  1  1  0  0  0
 11  8  1  0  0  0  0
 12  5  1  0  0  0  0
 14 15  1  0  0  0  0
 15 17  2  0  0  0  0
 16 19  2  0  0  0  0
 18 14  2  0  0  0  0
 18 16  1  0  0  0  0
 19 17  1  0  0  0  0
 20 14  1  0  0  0  0
 21 22  1  0  0  0  0
 22 28  1  6  0  0  0
 22 26  1  0  0  0  0
 23  9  1  6  0  0  0
 23 21  1  0  0  0  0
 23 27  1  0  0  0  0
 24 25  1  0  0  0  0
 26 25  1  0  0  0  0
 27 24  1  0  0  0  0
 28 29  1  0  0  0  0
 30 29  1  0  0  0  0
 31 32  1  1  0  0  0
 34 33  1  0  0  0  0
 34 31  1  0  0  0  0
M  END
>  <MODEL>
5

>  <REMARK>
 VINA RESULT:      -6.6      6.394      8.348
  Name = 
  6 active torsions:
  status: ('A' for Active; 'I' for Inactive)
    1  A    between atoms: C_1  and  C_15
    2  A    between atoms: C_1  and  C_19
    3  A    between atoms: O_3  and  C_13
    4  A    between atoms: O_3  and  C_17
    5  A    between atoms: C_12  and  C_28
    6  A    between atoms: C_14  and  N_25
                            x       y       z     vdW  Elec       q    Type
                         _______ _______ _______ _____ _____    ______ ____

>  <TORSDO>
F 6

$$$$
=
 OpenBabel10252414553D

 34 37  0  0  1  0  0  0  0  0999 V2000
  189.1940  176.5720  138.3410 C   0  0  0  0  0  0  0  0  0  0  0  0
  191.3340  176.3520  136.9970 C   0  0  2  0  0  3  0  0  0  0  0  0
  194.2760  176.1890  137.4860 O   0  0  0  0  0  0  0  0  0  0  0  0
  187.9960  176.1920  138.4470 O   0  0  0  0  0  0  0  0  0  0  0  0
  191.2820  177.5230  139.3440 C   0  0  0  0  0  2  0  0  0  0  0  0
  189.8210  176.6620  136.9840 C   0  0  2  0  0  3  0  0  0  0  0  0
  193.3730  176.7510  138.4050 C   0  0  0  0  0  3  0  0  0  0  0  0
  191.6270  174.8550  136.7930 C   0  0  2  0  0  3  0  0  0  0  0  0
  189.9530  176.9470  139.5050 N   0  0  0  0  0  0  0  0  0  0  0  0
  193.9500  175.8090  136.1520 C   0  0  0  0  0  2  0  0  0  0  0  0
  192.9900  174.6170  136.1190 C   0  0  1  0  0  3  0  0  0  0  0  0
  192.0470  176.8520  138.2420 C   0  0  0  0  0  0  0  0  0  0  0  0
  190.6340  174.2370  136.0280 O   0  0  0  0  0  1  0  0  0  0  0  0
  193.9420  170.9500  136.4640 C   0  0  0  0  0  0  0  0  0  0  0  0
  194.8220  171.0040  137.5560 C   0  0  0  0  0  3  0  0  0  0  0  0
  193.6460  173.3540  136.5840 C   0  0  0  0  0  0  0  0  0  0  0  0
  195.1080  172.2270  138.1630 C   0  0  0  0  0  3  0  0  0  0  0  0
  193.3530  172.1220  135.9820 C   0  0  0  0  0  3  0  0  0  0  0  0
  194.5190  173.4010  137.6790 C   0  0  0  0  0  3  0  0  0  0  0  0
  193.6310  169.6460  135.8260 C   0  0  0  0  0  1  0  0  0  0  0  0
  190.3350  177.2600  141.8030 O   0  0  0  0  0  0  0  0  0  0  0  0
  190.0650  176.4950  142.9650 C   0  0  1  0  0  3  0  0  0  0  0  0
  189.3410  177.0340  140.8300 C   0  0  1  0  0  3  0  0  0  0  0  0
  187.2890  177.9490  141.9960 C   0  0  0  0  0  2  0  0  0  0  0  0
  187.9610  177.8530  143.3620 C   0  0  0  0  0  2  0  0  0  0  0  0
  188.6250  176.4910  143.5180 C   0  0  0  0  0  2  0  0  0  0  0  0
  188.2990  178.1510  140.8680 C   0  0  0  0  0  2  0  0  0  0  0  0
  190.7110  175.2410  142.9720 O   0  0  0  0  0  0  0  0  0  0  0  0
  191.6820  175.2440  143.9850 C   0  0  0  0  0  2  0  0  0  0  0  0
  191.8970  176.5430  144.4210 F   0  0  0  0  0  0  0  0  0  0  0  0
  189.4560  177.9690  136.2660 C   0  0  2  0  0  3  0  0  0  0  0  0
  189.0120  179.0180  137.2740 C   0  0  0  0  0  1  0  0  0  0  0  0
  187.0360  178.1960  135.6940 C   0  0  0  0  0  1  0  0  0  0  0  0
  188.4040  177.7880  135.1770 C   0  0  0  0  0  2  0  0  0  0  0  0
  1  4  2  0  0  0  0
  1  9  1  0  0  0  0
  2 12  1  1  0  0  0
  3  7  1  0  0  0  0
  5  9  1  0  0  0  0
  6 31  1  1  0  0  0
  6  2  1  0  0  0  0
  6  1  1  0  0  0  0
  8 13  1  6  0  0  0
  8  2  1  0  0  0  0
 10  3  1  0  0  0  0
 11 10  1  0  0  0  0
 11 16  1  1  0  0  0
 11  8  1  0  0  0  0
 12  7  2  0  0  0  0
 12  5  1  0  0  0  0
 14 15  1  0  0  0  0
 15 17  2  0  0  0  0
 16 19  2  0  0  0  0
 18 14  2  0  0  0  0
 18 16  1  0  0  0  0
 19 17  1  0  0  0  0
 20 14  1  0  0  0  0
 21 22  1  0  0  0  0
 22 28  1  6  0  0  0
 22 26  1  0  0  0  0
 23  9  1  6  0  0  0
 23 27  1  0  0  0  0
 23 21  1  0  0  0  0
 24 25  1  0  0  0  0
 25 26  1  0  0  0  0
 27 24  1  0  0  0  0
 28 29  1  0  0  0  0
 29 30  1  0  0  0  0
 31 32  1  1  0  0  0
 34 33  1  0  0  0  0
 34 31  1  0  0  0  0
M  END
>  <MODEL>
6

>  <REMARK>
 VINA RESULT:      -6.5      6.384      8.150
  Name = 
  6 active torsions:
  status: ('A' for Active; 'I' for Inactive)
    1  A    between atoms: C_1  and  C_15
    2  A    between atoms: C_1  and  C_19
    3  A    between atoms: O_3  and  C_13
    4  A    between atoms: O_3  and  C_17
    5  A    between atoms: C_12  and  C_28
    6  A    between atoms: C_14  and  N_25
                            x       y       z     vdW  Elec       q    Type
                         _______ _______ _______ _____ _____    ______ ____

>  <TORSDO>
F 6

$$$$
=
 OpenBabel10252414553D

 34 37  0  0  1  0  0  0  0  0999 V2000
  189.6090  174.4980  137.2180 C   0  0  0  0  0  0  0  0  0  0  0  0
  189.4140  176.7620  138.3440 C   0  0  2  0  0  3  0  0  0  0  0  0
  187.2690  178.6300  139.2570 O   0  0  0  0  0  0  0  0  0  0  0  0
  190.2390  173.4050  137.1950 O   0  0  0  0  0  0  0  0  0  0  0  0
  187.5580  175.8490  136.7300 C   0  0  0  0  0  2  0  0  0  0  0  0
  190.3260  175.7530  137.6120 C   0  0  2  0  0  3  0  0  0  0  0  0
  187.0680  177.6500  138.2680 C   0  0  0  0  0  3  0  0  0  0  0  0
  189.4050  176.5470  139.8680 C   0  0  2  0  0  3  0  0  0  0  0  0
  188.2210  174.5560  136.8400 N   0  0  0  0  0  0  0  0  0  0  0  0
  188.5340  178.9870  139.8030 C   0  0  0  0  0  2  0  0  0  0  0  0
  189.1350  177.8520  140.6370 C   0  0  1  0  0  3  0  0  0  0  0  0
  187.9890  176.7870  137.8190 C   0  0  0  0  0  0  0  0  0  0  0  0
  190.6120  176.0030  140.3170 O   0  0  0  0  0  1  0  0  0  0  0  0
  186.3830  177.9010  143.2640 C   0  0  0  0  0  0  0  0  0  0  0  0
  187.0250  177.2580  144.3340 C   0  0  0  0  0  3  0  0  0  0  0  0
  188.3730  177.6220  141.9050 C   0  0  0  0  0  0  0  0  0  0  0  0
  188.3370  176.8050  144.1920 C   0  0  0  0  0  3  0  0  0  0  0  0
  187.0580  178.0850  142.0530 C   0  0  0  0  0  3  0  0  0  0  0  0
  189.0110  176.9880  142.9800 C   0  0  0  0  0  3  0  0  0  0  0  0
  184.9910  178.3920  143.4200 C   0  0  0  0  0  1  0  0  0  0  0  0
  186.2110  173.7570  135.9200 O   0  0  0  0  0  0  0  0  0  0  0  0
  185.3020  172.7280  136.2710 C   0  0  1  0  0  3  0  0  0  0  0  0
  187.5220  173.3950  136.2910 C   0  0  1  0  0  3  0  0  0  0  0  0
  187.9130  171.3740  134.8190 C   0  0  0  0  0  2  0  0  0  0  0  0
  186.4160  171.1830  134.5970 C   0  0  0  0  0  2  0  0  0  0  0  0
  185.6800  171.2720  135.9280 C   0  0  0  0  0  2  0  0  0  0  0  0
  188.2770  172.8330  135.0870 C   0  0  0  0  0  2  0  0  0  0  0  0
  184.7140  172.9090  137.5410 O   0  0  0  0  0  0  0  0  0  0  0  0
  183.7590  173.9320  137.4490 C   0  0  0  0  0  2  0  0  0  0  0  0
  184.2820  175.1070  137.9680 F   0  0  0  0  0  0  0  0  0  0  0  0
  191.1170  176.3570  136.4450 C   0  0  2  0  0  3  0  0  0  0  0  0
  190.5580  175.8640  135.1190 C   0  0  0  0  0  1  0  0  0  0  0  0
  193.0730  176.0970  137.9770 C   0  0  0  0  0  1  0  0  0  0  0  0
  192.6180  176.0920  136.5290 C   0  0  0  0  0  2  0  0  0  0  0  0
  1  6  1  0  0  0  0
  2 12  1  6  0  0  0
  2  8  1  0  0  0  0
  3 10  1  0  0  0  0
  4  1  2  0  0  0  0
  5  9  1  0  0  0  0
  5 12  1  0  0  0  0
  6 31  1  6  0  0  0
  6  2  1  0  0  0  0
  7  3  1  0  0  0  0
  8 13  1  1  0  0  0
  8 11  1  0  0  0  0
  9  1  1  0  0  0  0
 10 11  1  0  0  0  0
 11 16  1  1  0  0  0
 12  7  2  0  0  0  0
 14 20  1  0  0  0  0
 14 15  1  0  0  0  0
 16 18  1  0  0  0  0
 16 19  2  0  0  0  0
 17 15  2  0  0  0  0
 18 14  2  0  0  0  0
 19 17  1  0  0  0  0
 21 22  1  0  0  0  0
 21 23  1  0  0  0  0
 22 28  1  1  0  0  0
 23 27  1  6  0  0  0
 23  9  1  0  0  0  0
 24 27  1  0  0  0  0
 25 24  1  0  0  0  0
 25 26  1  0  0  0  0
 26 22  1  0  0  0  0
 29 28  1  0  0  0  0
 29 30  1  0  0  0  0
 31 32  1  6  0  0  0
 31 34  1  0  0  0  0
 34 33  1  0  0  0  0
M  END
>  <MODEL>
7

>  <REMARK>
 VINA RESULT:      -6.5      4.301      9.221
  Name = 
  6 active torsions:
  status: ('A' for Active; 'I' for Inactive)
    1  A    between atoms: C_1  and  C_15
    2  A    between atoms: C_1  and  C_19
    3  A    between atoms: O_3  and  C_13
    4  A    between atoms: O_3  and  C_17
    5  A    between atoms: C_12  and  C_28
    6  A    between atoms: C_14  and  N_25
                            x       y       z     vdW  Elec       q    Type
                         _______ _______ _______ _____ _____    ______ ____

>  <TORSDO>
F 6

$$$$
=
 OpenBabel10252414553D

 34 37  0  0  1  0  0  0  0  0999 V2000
  182.7800  177.6020  140.3110 C   0  0  0  0  0  0  0  0  0  0  0  0
  183.6120  177.4530  137.9200 C   0  0  2  0  0  3  0  0  0  0  0  0
  186.2070  177.5620  136.4440 O   0  0  0  0  0  0  0  0  0  0  0  0
  181.9630  177.1380  141.1530 O   0  0  0  0  0  0  0  0  0  0  0  0
  184.9140  178.7910  139.7630 C   0  0  0  0  0  2  0  0  0  0  0  0
  182.4030  177.6390  138.8620 C   0  0  2  0  0  3  0  0  0  0  0  0
  186.0240  178.1190  137.7220 C   0  0  0  0  0  3  0  0  0  0  0  0
  183.8750  175.9730  137.5900 C   0  0  2  0  0  3  0  0  0  0  0  0
  184.0530  178.1250  140.7320 N   0  0  0  0  0  0  0  0  0  0  0  0
  185.1610  177.0570  135.6190 C   0  0  0  0  0  2  0  0  0  0  0  0
  184.5300  175.7940  136.2100 C   0  0  1  0  0  3  0  0  0  0  0  0
  184.8870  178.1010  138.4320 C   0  0  0  0  0  0  0  0  0  0  0  0
  182.6980  175.2210  137.6290 O   0  0  0  0  0  1  0  0  0  0  0  0
  187.6670  173.6580  136.4890 C   0  0  0  0  0  0  0  0  0  0  0  0
  187.2070  172.4390  135.9710 C   0  0  0  0  0  3  0  0  0  0  0  0
  185.4660  174.6260  136.1670 C   0  0  0  0  0  0  0  0  0  0  0  0
  185.8830  172.3140  135.5470 C   0  0  0  0  0  3  0  0  0  0  0  0
  186.7990  174.7500  136.5830 C   0  0  0  0  0  3  0  0  0  0  0  0
  185.0140  173.4070  135.6430 C   0  0  0  0  0  3  0  0  0  0  0  0
  189.0790  173.7920  136.9300 C   0  0  0  0  0  1  0  0  0  0  0  0
  185.6810  178.8410  142.2680 O   0  0  0  0  0  0  0  0  0  0  0  0
  186.4040  178.2090  143.3110 C   0  0  1  0  0  3  0  0  0  0  0  0
  184.4010  178.2630  142.1450 C   0  0  1  0  0  3  0  0  0  0  0  0
  183.3720  178.8600  144.3790 C   0  0  0  0  0  2  0  0  0  0  0  0
  184.7420  179.1110  145.0000 C   0  0  0  0  0  2  0  0  0  0  0  0
  185.6850  177.9660  144.6550 C   0  0  0  0  0  2  0  0  0  0  0  0
  183.3630  179.1160  142.8730 C   0  0  0  0  0  2  0  0  0  0  0  0
  187.2140  177.1430  142.8660 O   0  0  0  0  0  0  0  0  0  0  0  0
  187.9970  176.6990  143.9410 C   0  0  0  0  0  2  0  0  0  0  0  0
  189.0090  177.6140  144.1910 F   0  0  0  0  0  0  0  0  0  0  0  0
  181.5280  178.8540  138.5240 C   0  0  2  0  0  3  0  0  0  0  0  0
  180.0850  178.5930  138.9280 C   0  0  0  0  0  1  0  0  0  0  0  0
  180.8530  180.5680  136.8370 C   0  0  0  0  0  1  0  0  0  0  0  0
  181.6100  179.2710  137.0590 C   0  0  0  0  0  2  0  0  0  0  0  0
  1  9  1  0  0  0  0
  1  4  2  0  0  0  0
  2 12  1  1  0  0  0
  2  6  1  0  0  0  0
  3  7  1  0  0  0  0
  5  9  1  0  0  0  0
  6 31  1  6  0  0  0
  6  1  1  0  0  0  0
  7 12  2  0  0  0  0
  8 13  1  6  0  0  0
  8  2  1  0  0  0  0
 10 11  1  0  0  0  0
 10  3  1  0  0  0  0
 11 16  1  1  0  0  0
 11  8  1  0  0  0  0
 12  5  1  0  0  0  0
 14 18  1  0  0  0  0
 14 20  1  0  0  0  0
 15 14  2  0  0  0  0
 16 18  2  0  0  0  0
 17 19  2  0  0  0  0
 17 15  1  0  0  0  0
 19 16  1  0  0  0  0
 21 22  1  0  0  0  0
 22 28  1  6  0  0  0
 22 26  1  0  0  0  0
 23  9  1  6  0  0  0
 23 21  1  0  0  0  0
 23 27  1  0  0  0  0
 24 25  1  0  0  0  0
 26 25  1  0  0  0  0
 27 24  1  0  0  0  0
 28 29  1  0  0  0  0
 29 30  1  0  0  0  0
 31 32  1  6  0  0  0
 33 34  1  0  0  0  0
 34 31  1  0  0  0  0
M  END
>  <MODEL>
8

>  <REMARK>
 VINA RESULT:      -6.4      1.686      2.185
  Name = 
  6 active torsions:
  status: ('A' for Active; 'I' for Inactive)
    1  A    between atoms: C_1  and  C_15
    2  A    between atoms: C_1  and  C_19
    3  A    between atoms: O_3  and  C_13
    4  A    between atoms: O_3  and  C_17
    5  A    between atoms: C_12  and  C_28
    6  A    between atoms: C_14  and  N_25
                            x       y       z     vdW  Elec       q    Type
                         _______ _______ _______ _____ _____    ______ ____

>  <TORSDO>
F 6

$$$$
=
 OpenBabel10252414553D

 34 37  0  0  1  0  0  0  0  0999 V2000
  189.5550  174.3400  137.1190 C   0  0  0  0  0  0  0  0  0  0  0  0
  189.5470  176.6970  138.0550 C   0  0  2  0  0  3  0  0  0  0  0  0
  187.5640  178.8080  138.7850 O   0  0  0  0  0  0  0  0  0  0  0  0
  190.0900  173.1990  137.1930 O   0  0  0  0  0  0  0  0  0  0  0  0
  187.6290  175.8140  136.4970 C   0  0  0  0  0  2  0  0  0  0  0  0
  190.3740  175.5570  137.4190 C   0  0  2  0  0  3  0  0  0  0  0  0
  187.2850  177.7710  137.8770 C   0  0  0  0  0  3  0  0  0  0  0  0
  189.5120  176.6100  139.5910 C   0  0  2  0  0  3  0  0  0  0  0  0
  188.1790  174.4830  136.7200 N   0  0  0  0  0  0  0  0  0  0  0  0
  188.8520  179.1010  139.3160 C   0  0  0  0  0  2  0  0  0  0  0  0
  189.3490  177.9910  140.2470 C   0  0  1  0  0  3  0  0  0  0  0  0
  188.1320  176.7990  137.5110 C   0  0  0  0  0  0  0  0  0  0  0  0
  190.6650  176.0050  140.0970 O   0  0  0  0  0  1  0  0  0  0  0  0
  188.4110  177.4920  143.9000 C   0  0  0  0  0  0  0  0  0  0  0  0
  187.0300  177.7340  143.8570 C   0  0  0  0  0  3  0  0  0  0  0  0
  188.5630  177.9320  141.5200 C   0  0  0  0  0  0  0  0  0  0  0  0
  186.4160  178.0680  142.6490 C   0  0  0  0  0  3  0  0  0  0  0  0
  189.1750  177.5870  142.7330 C   0  0  0  0  0  3  0  0  0  0  0  0
  187.1820  178.1650  141.4820 C   0  0  0  0  0  3  0  0  0  0  0  0
  189.0610  177.1260  145.1850 C   0  0  0  0  0  1  0  0  0  0  0  0
  186.0860  173.7720  135.9220 O   0  0  0  0  0  0  0  0  0  0  0  0
  185.1310  172.8210  136.3610 C   0  0  1  0  0  3  0  0  0  0  0  0
  187.3870  173.3440  136.2590 C   0  0  1  0  0  3  0  0  0  0  0  0
  187.5890  171.2340  134.8770 C   0  0  0  0  0  2  0  0  0  0  0  0
  186.0750  171.1290  134.7240 C   0  0  0  0  0  2  0  0  0  0  0  0
  185.4030  171.3280  136.0770 C   0  0  0  0  0  2  0  0  0  0  0  0
  188.0530  172.6780  135.0560 C   0  0  0  0  0  2  0  0  0  0  0  0
  184.6100  173.0990  137.6420 O   0  0  0  0  0  0  0  0  0  0  0  0
  183.9280  174.3240  137.5900 C   0  0  0  0  0  2  0  0  0  0  0  0
  183.1220  174.3630  136.4610 F   0  0  0  0  0  0  0  0  0  0  0  0
  191.2210  175.9940  136.2160 C   0  0  2  0  0  3  0  0  0  0  0  0
  190.7200  175.3210  134.9470 C   0  0  0  0  0  1  0  0  0  0  0  0
  193.1900  176.3630  137.7080 C   0  0  0  0  0  1  0  0  0  0  0  0
  192.7140  175.7470  136.4050 C   0  0  0  0  0  2  0  0  0  0  0  0
  1  4  2  0  0  0  0
  1  6  1  0  0  0  0
  2 12  1  6  0  0  0
  2  8  1  0  0  0  0
  3 10  1  0  0  0  0
  5  9  1  0  0  0  0
  5 12  1  0  0  0  0
  6 31  1  6  0  0  0
  6  2  1  0  0  0  0
  7  3  1  0  0  0  0
  8 13  1  1  0  0  0
  8 11  1  0  0  0  0
  9  1  1  0  0  0  0
 10 11  1  0  0  0  0
 11 16  1  1  0  0  0
 12  7  2  0  0  0  0
 14 20  1  0  0  0  0
 15 14  1  0  0  0  0
 16 18  1  0  0  0  0
 17 15  2  0  0  0  0
 18 14  2  0  0  0  0
 19 16  2  0  0  0  0
 19 17  1  0  0  0  0
 21 23  1  0  0  0  0
 21 22  1  0  0  0  0
 22 28  1  1  0  0  0
 23 27  1  6  0  0  0
 23  9  1  0  0  0  0
 24 27  1  0  0  0  0
 25 24  1  0  0  0  0
 25 26  1  0  0  0  0
 26 22  1  0  0  0  0
 29 28  1  0  0  0  0
 30 29  1  0  0  0  0
 31 32  1  6  0  0  0
 31 34  1  0  0  0  0
 34 33  1  0  0  0  0
M  END
>  <MODEL>
9

>  <REMARK>
 VINA RESULT:      -6.2      4.505      9.407
  Name = 
  6 active torsions:
  status: ('A' for Active; 'I' for Inactive)
    1  A    between atoms: C_1  and  C_15
    2  A    between atoms: C_1  and  C_19
    3  A    between atoms: O_3  and  C_13
    4  A    between atoms: O_3  and  C_17
    5  A    between atoms: C_12  and  C_28
    6  A    between atoms: C_14  and  N_25
                            x       y       z     vdW  Elec       q    Type
                         _______ _______ _______ _____ _____    ______ ____

>  <TORSDO>
F 6

$$$$
