=
 OpenBabel10262419203D

 31 35  0  0  1  0  0  0  0  0999 V2000
  182.4460  179.2310  140.2300 C   0  0  2  0  0  3  0  0  0  0  0  0
  182.0020  179.2230  138.7850 C   0  0  0  0  0  0  0  0  0  0  0  0
  180.8980  180.3540  136.9610 C   0  0  0  0  0  3  0  0  0  0  0  0
  181.3590  180.3550  138.2760 C   0  0  0  0  0  3  0  0  0  0  0  0
  182.9550  176.8940  138.4300 C   0  0  0  0  0  2  0  0  0  0  0  0
  181.0720  179.2580  136.1790 N   0  0  0  0  0  0  0  0  0  0  0  0
  183.4130  178.0980  140.5940 C   0  0  1  0  0  3  0  0  0  0  0  0
  181.6940  178.1390  136.6370 C   0  0  0  0  0  0  0  0  0  0  0  0
  182.9910  176.7780  139.9500 C   0  0  0  0  0  2  0  0  0  0  0  0
  182.1710  178.0900  137.9580 C   0  0  0  0  0  0  0  0  0  0  0  0
  181.8900  176.7780  135.5400 Cl  0  0  0  0  0  0  0  0  0  0  0  0
  180.1830  178.5140  143.2120 C   0  0  0  0  0  0  0  0  0  0  0  0
  181.2840  179.2560  141.1790 C   0  0  0  0  0  0  0  0  0  0  0  0
  179.1220  179.3880  142.9570 C   0  0  0  0  0  3  0  0  0  0  0  0
  180.1650  177.7320  144.3180 F   0  0  0  0  0  0  0  0  0  0  0  0
  181.2630  178.4490  142.3270 C   0  0  0  0  0  3  0  0  0  0  0  0
  180.2230  180.1330  140.9320 C   0  0  0  0  0  3  0  0  0  0  0  0
  179.1420  180.1980  141.8180 C   0  0  0  0  0  3  0  0  0  0  0  0
  184.8600  178.4530  140.2440 C   0  0  1  0  0  3  0  0  0  0  0  0
  185.1910  179.7190  140.7650 O   0  0  0  0  0  0  0  0  0  0  0  0
  185.7760  178.6170  141.4170 C   0  0  1  0  0  3  0  0  0  0  0  0
  184.4770  179.7680  143.2150 C   0  0  0  0  0  1  0  0  0  0  0  0
  185.1490  178.4690  142.8060 C   0  0  2  0  0  3  0  0  0  0  0  0
  188.0390  177.2820  145.7740 C   0  0  0  0  0  0  0  0  0  0  0  0
  187.4430  177.6500  143.4590 C   0  0  0  0  0  3  0  0  0  0  0  0
  184.2320  178.5930  145.7640 Cl  0  0  0  0  0  0  0  0  0  0  0  0
  189.2130  176.7980  146.9770 Cl  0  0  0  0  0  0  0  0  0  0  0  0
  188.3810  177.2660  144.4190 C   0  0  0  0  0  3  0  0  0  0  0  0
  185.8190  178.0760  145.2120 C   0  0  0  0  0  0  0  0  0  0  0  0
  186.1520  178.0480  143.8430 C   0  0  0  0  0  0  0  0  0  0  0  0
  186.7630  177.6880  146.1680 C   0  0  0  0  0  3  0  0  0  0  0  0
  1  7  1  0  0  0  0
  1 13  1  1  0  0  0
  2  1  1  0  0  0  0
  3  4  2  0  0  0  0
  4  2  1  0  0  0  0
  5  9  1  0  0  0  0
  6  8  2  0  0  0  0
  6  3  1  0  0  0  0
  7  9  1  6  0  0  0
  8 10  1  0  0  0  0
 10  5  1  0  0  0  0
 10  2  2  0  0  0  0
 11  8  1  0  0  0  0
 12 15  1  0  0  0  0
 13 16  1  0  0  0  0
 14 12  1  0  0  0  0
 16 12  2  0  0  0  0
 17 13  2  0  0  0  0
 17 18  1  0  0  0  0
 18 14  2  0  0  0  0
 19  7  1  0  0  0  0
 19 20  1  1  0  0  0
 19 21  1  0  0  0  0
 20 21  1  0  0  0  0
 21 23  1  1  0  0  0
 23 22  1  1  0  0  0
 23 30  1  0  0  0  0
 24 31  1  0  0  0  0
 24 27  1  0  0  0  0
 25 30  2  0  0  0  0
 25 28  1  0  0  0  0
 28 24  2  0  0  0  0
 29 26  1  0  0  0  0
 29 31  2  0  0  0  0
 30 29  1  0  0  0  0
M  END
>  <MODEL>
1

>  <REMARK>
 VINA RESULT:      -8.5      0.000      0.000
  Name = 
  4 active torsions:
  status: ('A' for Active; 'I' for Inactive)
    1  A    between atoms: C_4  and  C_12
    2  A    between atoms: C_9  and  C_22
    3  A    between atoms: C_9  and  C_23
    4  A    between atoms: C_15  and  C_21
                            x       y       z     vdW  Elec       q    Type
                         _______ _______ _______ _____ _____    ______ ____

>  <TORSDO>
F 4

$$$$
=
 OpenBabel10262419203D

 31 35  0  0  1  0  0  0  0  0999 V2000
  182.5110  178.9370  140.4390 C   0  0  2  0  0  3  0  0  0  0  0  0
  181.4910  179.0570  139.3300 C   0  0  0  0  0  0  0  0  0  0  0  0
  179.6770  180.2880  138.3220 C   0  0  0  0  0  3  0  0  0  0  0  0
  180.6570  180.1780  139.3060 C   0  0  0  0  0  3  0  0  0  0  0  0
  182.2720  176.8780  138.2790 C   0  0  0  0  0  2  0  0  0  0  0  0
  179.5320  179.3090  137.3910 N   0  0  0  0  0  0  0  0  0  0  0  0
  183.5760  177.8620  140.1960 C   0  0  1  0  0  3  0  0  0  0  0  0
  180.3250  178.2050  137.3810 C   0  0  0  0  0  0  0  0  0  0  0  0
  182.9600  176.5920  139.6090 C   0  0  0  0  0  2  0  0  0  0  0  0
  181.3240  178.0460  138.3570 C   0  0  0  0  0  0  0  0  0  0  0  0
  180.0740  177.0030  136.1220 Cl  0  0  0  0  0  0  0  0  0  0  0  0
  181.9650  178.7830  144.2080 C   0  0  0  0  0  0  0  0  0  0  0  0
  181.8690  178.7490  141.7820 C   0  0  0  0  0  0  0  0  0  0  0  0
  180.6080  178.4520  144.2660 C   0  0  0  0  0  3  0  0  0  0  0  0
  182.6690  178.9600  145.3510 F   0  0  0  0  0  0  0  0  0  0  0  0
  182.5940  178.9340  142.9690 C   0  0  0  0  0  3  0  0  0  0  0  0
  180.5100  178.4240  141.8460 C   0  0  0  0  0  3  0  0  0  0  0  0
  179.8810  178.2730  143.0860 C   0  0  0  0  0  3  0  0  0  0  0  0
  184.7210  178.3810  139.3240 C   0  0  1  0  0  3  0  0  0  0  0  0
  185.0910  179.6790  139.7290 O   0  0  0  0  0  0  0  0  0  0  0  0
  186.0010  178.6550  140.0520 C   0  0  1  0  0  3  0  0  0  0  0  0
  185.7380  179.7570  142.2800 C   0  0  0  0  0  1  0  0  0  0  0  0
  185.9900  178.4400  141.5690 C   0  0  2  0  0  3  0  0  0  0  0  0
  189.6490  176.6590  142.9860 C   0  0  0  0  0  0  0  0  0  0  0  0
  188.3600  177.6600  141.2020 C   0  0  0  0  0  3  0  0  0  0  0  0
  186.0530  177.5810  144.5460 Cl  0  0  0  0  0  0  0  0  0  0  0  0
  191.1340  175.9340  143.5600 Cl  0  0  0  0  0  0  0  0  0  0  0  0
  189.5470  177.0840  141.6590 C   0  0  0  0  0  3  0  0  0  0  0  0
  187.3770  177.3940  143.4050 C   0  0  0  0  0  0  0  0  0  0  0  0
  187.2620  177.8110  142.0640 C   0  0  0  0  0  0  0  0  0  0  0  0
  188.5680  176.8160  143.8560 C   0  0  0  0  0  3  0  0  0  0  0  0
  1 13  1  1  0  0  0
  2  1  1  0  0  0  0
  3  4  2  0  0  0  0
  4  2  1  0  0  0  0
  5 10  1  0  0  0  0
  5  9  1  0  0  0  0
  6  3  1  0  0  0  0
  7  9  1  6  0  0  0
  7  1  1  0  0  0  0
  8  6  2  0  0  0  0
  8 10  1  0  0  0  0
 10  2  2  0  0  0  0
 11  8  1  0  0  0  0
 12 14  1  0  0  0  0
 12 15  1  0  0  0  0
 13 17  2  0  0  0  0
 13 16  1  0  0  0  0
 16 12  2  0  0  0  0
 17 18  1  0  0  0  0
 18 14  2  0  0  0  0
 19 20  1  1  0  0  0
 19 21  1  0  0  0  0
 19  7  1  0  0  0  0
 20 21  1  0  0  0  0
 21 23  1  1  0  0  0
 23 30  1  0  0  0  0
 23 22  1  1  0  0  0
 24 27  1  0  0  0  0
 24 31  1  0  0  0  0
 25 28  1  0  0  0  0
 25 30  2  0  0  0  0
 28 24  2  0  0  0  0
 29 31  2  0  0  0  0
 29 26  1  0  0  0  0
 30 29  1  0  0  0  0
M  END
>  <MODEL>
2

>  <REMARK>
 VINA RESULT:      -8.1      1.682      2.004
  Name = 
  4 active torsions:
  status: ('A' for Active; 'I' for Inactive)
    1  A    between atoms: C_4  and  C_12
    2  A    between atoms: C_9  and  C_22
    3  A    between atoms: C_9  and  C_23
    4  A    between atoms: C_15  and  C_21
                            x       y       z     vdW  Elec       q    Type
                         _______ _______ _______ _____ _____    ______ ____

>  <TORSDO>
F 4

$$$$
=
 OpenBabel10262419203D

 31 35  0  0  1  0  0  0  0  0999 V2000
  180.4520  179.7120  137.7760 C   0  0  2  0  0  3  0  0  0  0  0  0
  180.1280  180.8140  136.7920 C   0  0  0  0  0  0  0  0  0  0  0  0
  178.9310  181.5340  134.8250 C   0  0  0  0  0  3  0  0  0  0  0  0
  179.2100  180.5510  135.7720 C   0  0  0  0  0  3  0  0  0  0  0  0
  181.6760  182.4360  137.9900 C   0  0  0  0  0  2  0  0  0  0  0  0
  179.5500  182.7420  134.8930 N   0  0  0  0  0  0  0  0  0  0  0  0
  181.2030  180.1890  139.0240 C   0  0  1  0  0  3  0  0  0  0  0  0
  180.4470  183.0350  135.8710 C   0  0  0  0  0  0  0  0  0  0  0  0
  182.2820  181.2120  138.6680 C   0  0  0  0  0  2  0  0  0  0  0  0
  180.7660  182.0740  136.8460 C   0  0  0  0  0  0  0  0  0  0  0  0
  181.1810  184.6330  135.8860 Cl  0  0  0  0  0  0  0  0  0  0  0  0
  182.0630  176.3100  137.1820 C   0  0  0  0  0  0  0  0  0  0  0  0
  181.1790  178.5700  137.1290 C   0  0  0  0  0  0  0  0  0  0  0  0
  182.4810  176.4420  135.8540 C   0  0  0  0  0  3  0  0  0  0  0  0
  182.2870  175.1540  137.8500 F   0  0  0  0  0  0  0  0  0  0  0  0
  181.4110  177.3700  137.8170 C   0  0  0  0  0  3  0  0  0  0  0  0
  181.5950  178.6950  135.7990 C   0  0  0  0  0  3  0  0  0  0  0  0
  182.2470  177.6340  135.1630 C   0  0  0  0  0  3  0  0  0  0  0  0
  180.2480  180.7330  140.0890 C   0  0  1  0  0  3  0  0  0  0  0  0
  179.1930  179.8240  140.3070 O   0  0  0  0  0  0  0  0  0  0  0  0
  180.1500  179.9100  141.3360 C   0  0  1  0  0  3  0  0  0  0  0  0
  180.0540  177.4360  141.6810 C   0  0  0  0  0  1  0  0  0  0  0  0
  180.9630  178.6120  141.3700 C   0  0  2  0  0  3  0  0  0  0  0  0
  184.2040  178.7690  144.2060 C   0  0  0  0  0  0  0  0  0  0  0  0
  181.8380  178.8860  143.7190 C   0  0  0  0  0  3  0  0  0  0  0  0
  183.8180  178.1910  140.2400 Cl  0  0  0  0  0  0  0  0  0  0  0  0
  185.5190  178.8340  145.3580 Cl  0  0  0  0  0  0  0  0  0  0  0  0
  182.8860  178.9360  144.6390 C   0  0  0  0  0  3  0  0  0  0  0  0
  183.4260  178.4910  141.9270 C   0  0  0  0  0  0  0  0  0  0  0  0
  182.0960  178.6740  142.3550 C   0  0  0  0  0  0  0  0  0  0  0  0
  184.4710  178.5440  142.8540 C   0  0  0  0  0  3  0  0  0  0  0  0
  1 13  1  6  0  0  0
  1  7  1  0  0  0  0
  2 10  1  0  0  0  0
  2  1  1  0  0  0  0
  3  6  2  0  0  0  0
  3  4  1  0  0  0  0
  4  2  2  0  0  0  0
  5  9  1  0  0  0  0
  6  8  1  0  0  0  0
  7  9  1  6  0  0  0
  7 19  1  0  0  0  0
  8 11  1  0  0  0  0
  8 10  2  0  0  0  0
 10  5  1  0  0  0  0
 12 16  1  0  0  0  0
 12 15  1  0  0  0  0
 13 16  2  0  0  0  0
 14 12  2  0  0  0  0
 17 13  1  0  0  0  0
 18 17  2  0  0  0  0
 18 14  1  0  0  0  0
 19 20  1  6  0  0  0
 19 21  1  0  0  0  0
 20 21  1  0  0  0  0
 21 23  1  6  0  0  0
 23 22  1  1  0  0  0
 23 30  1  0  0  0  0
 24 28  1  0  0  0  0
 24 27  1  0  0  0  0
 25 28  2  0  0  0  0
 26 29  1  0  0  0  0
 29 30  2  0  0  0  0
 29 31  1  0  0  0  0
 30 25  1  0  0  0  0
 31 24  2  0  0  0  0
M  END
>  <MODEL>
3

>  <REMARK>
 VINA RESULT:      -8.1      2.924      5.268
  Name = 
  4 active torsions:
  status: ('A' for Active; 'I' for Inactive)
    1  A    between atoms: C_4  and  C_12
    2  A    between atoms: C_9  and  C_22
    3  A    between atoms: C_9  and  C_23
    4  A    between atoms: C_15  and  C_21
                            x       y       z     vdW  Elec       q    Type
                         _______ _______ _______ _____ _____    ______ ____

>  <TORSDO>
F 4

$$$$
=
 OpenBabel10262419203D

 31 35  0  0  1  0  0  0  0  0999 V2000
  188.5670  178.4380  142.1480 C   0  0  2  0  0  3  0  0  0  0  0  0
  189.5570  178.3610  143.2880 C   0  0  0  0  0  0  0  0  0  0  0  0
  191.6770  179.0300  144.2260 C   0  0  0  0  0  3  0  0  0  0  0  0
  190.7270  179.1210  143.2110 C   0  0  0  0  0  3  0  0  0  0  0  0
  188.0620  176.7560  144.5730 C   0  0  0  0  0  2  0  0  0  0  0  0
  191.4670  178.2060  145.2850 N   0  0  0  0  0  0  0  0  0  0  0  0
  187.1940  177.8380  142.4700 C   0  0  1  0  0  3  0  0  0  0  0  0
  190.3410  177.4530  145.3970 C   0  0  0  0  0  0  0  0  0  0  0  0
  187.3270  176.5330  143.2550 C   0  0  0  0  0  2  0  0  0  0  0  0
  189.3560  177.5060  144.3950 C   0  0  0  0  0  0  0  0  0  0  0  0
  190.1500  176.4320  146.8160 Cl  0  0  0  0  0  0  0  0  0  0  0  0
  189.1770  177.7050  138.4580 C   0  0  0  0  0  0  0  0  0  0  0  0
  189.1140  177.8510  140.8810 C   0  0  0  0  0  0  0  0  0  0  0  0
  190.2160  176.7730  138.5410 C   0  0  0  0  0  3  0  0  0  0  0  0
  188.7050  178.0870  137.2480 F   0  0  0  0  0  0  0  0  0  0  0  0
  188.6290  178.2450  139.6250 C   0  0  0  0  0  3  0  0  0  0  0  0
  190.1580  176.9210  140.9580 C   0  0  0  0  0  3  0  0  0  0  0  0
  190.7060  176.3820  139.7900 C   0  0  0  0  0  3  0  0  0  0  0  0
  186.2920  178.8380  143.1990 C   0  0  1  0  0  3  0  0  0  0  0  0
  186.1000  179.9870  142.4060 O   0  0  0  0  0  0  0  0  0  0  0  0
  184.9890  179.1290  142.5220 C   0  0  1  0  0  3  0  0  0  0  0  0
  185.2100  179.3440  140.0420 C   0  0  0  0  0  1  0  0  0  0  0  0
  184.7450  178.4450  141.1730 C   0  0  2  0  0  3  0  0  0  0  0  0
  180.6100  177.3700  140.6160 C   0  0  0  0  0  0  0  0  0  0  0  0
  182.3210  178.5400  141.8610 C   0  0  0  0  0  3  0  0  0  0  0  0
  184.0970  176.6360  138.7420 Cl  0  0  0  0  0  0  0  0  0  0  0  0
  178.9310  176.9330  140.3910 Cl  0  0  0  0  0  0  0  0  0  0  0  0
  180.9800  178.1940  141.6820 C   0  0  0  0  0  3  0  0  0  0  0  0
  182.9220  177.2440  139.8990 C   0  0  0  0  0  0  0  0  0  0  0  0
  183.3040  178.0620  140.9810 C   0  0  0  0  0  0  0  0  0  0  0  0
  181.5770  176.9000  139.7270 C   0  0  0  0  0  3  0  0  0  0  0  0
  1 13  1  6  0  0  0
  1  7  1  0  0  0  0
  1  2  1  0  0  0  0
  2 10  1  0  0  0  0
  3  6  2  0  0  0  0
  4  2  2  0  0  0  0
  4  3  1  0  0  0  0
  6  8  1  0  0  0  0
  7 19  1  0  0  0  0
  7  9  1  1  0  0  0
  8 11  1  0  0  0  0
  9  5  1  0  0  0  0
 10  5  1  0  0  0  0
 10  8  2  0  0  0  0
 12 14  2  0  0  0  0
 12 16  1  0  0  0  0
 13 17  1  0  0  0  0
 14 18  1  0  0  0  0
 15 12  1  0  0  0  0
 16 13  2  0  0  0  0
 18 17  2  0  0  0  0
 19 20  1  6  0  0  0
 20 21  1  0  0  0  0
 21 23  1  6  0  0  0
 21 19  1  0  0  0  0
 23 22  1  6  0  0  0
 24 28  1  0  0  0  0
 26 29  1  0  0  0  0
 27 24  1  0  0  0  0
 28 25  2  0  0  0  0
 29 30  2  0  0  0  0
 30 23  1  0  0  0  0
 30 25  1  0  0  0  0
 31 29  1  0  0  0  0
 31 24  2  0  0  0  0
M  END
>  <MODEL>
4

>  <REMARK>
 VINA RESULT:      -7.8      4.147      8.874
  Name = 
  4 active torsions:
  status: ('A' for Active; 'I' for Inactive)
    1  A    between atoms: C_4  and  C_12
    2  A    between atoms: C_9  and  C_22
    3  A    between atoms: C_9  and  C_23
    4  A    between atoms: C_15  and  C_21
                            x       y       z     vdW  Elec       q    Type
                         _______ _______ _______ _____ _____    ______ ____

>  <TORSDO>
F 4

$$$$
=
 OpenBabel10262419203D

 31 35  0  0  1  0  0  0  0  0999 V2000
  184.9360  178.9900  139.0410 C   0  0  2  0  0  3  0  0  0  0  0  0
  183.5200  179.3050  138.6120 C   0  0  0  0  0  0  0  0  0  0  0  0
  181.6230  180.7940  138.6990 C   0  0  0  0  0  3  0  0  0  0  0  0
  182.9420  180.5030  139.0410 C   0  0  0  0  0  3  0  0  0  0  0  0
  183.3730  177.1540  137.2660 C   0  0  0  0  0  2  0  0  0  0  0  0
  180.9030  179.9150  137.9540 N   0  0  0  0  0  0  0  0  0  0  0  0
  185.5820  177.8360  138.2660 C   0  0  1  0  0  3  0  0  0  0  0  0
  181.4300  178.7410  137.5170 C   0  0  0  0  0  0  0  0  0  0  0  0
  184.5950  176.6890  138.0510 C   0  0  0  0  0  2  0  0  0  0  0  0
  182.7550  178.4010  137.8410 C   0  0  0  0  0  0  0  0  0  0  0  0
  180.4250  177.6800  136.5400 Cl  0  0  0  0  0  0  0  0  0  0  0  0
  184.0230  178.3780  142.6900 C   0  0  0  0  0  0  0  0  0  0  0  0
  185.0410  178.7570  140.5190 C   0  0  0  0  0  0  0  0  0  0  0  0
  185.2910  178.2550  143.2640 C   0  0  0  0  0  3  0  0  0  0  0  0
  182.9160  178.2540  143.4600 F   0  0  0  0  0  0  0  0  0  0  0  0
  183.8970  178.6260  141.3210 C   0  0  0  0  0  3  0  0  0  0  0  0
  186.3090  178.6270  141.0980 C   0  0  0  0  0  3  0  0  0  0  0  0
  186.4340  178.3790  142.4690 C   0  0  0  0  0  3  0  0  0  0  0  0
  186.1860  178.3080  136.9420 C   0  0  1  0  0  3  0  0  0  0  0  0
  187.1080  179.3490  137.1710 O   0  0  0  0  0  0  0  0  0  0  0  0
  187.6640  178.1070  136.8090 C   0  0  1  0  0  3  0  0  0  0  0  0
  189.0570  178.6190  138.8200 C   0  0  0  0  0  1  0  0  0  0  0  0
  188.3900  177.5140  138.0210 C   0  0  2  0  0  3  0  0  0  0  0  0
  191.2840  174.5180  136.9190 C   0  0  0  0  0  0  0  0  0  0  0  0
  190.7700  176.7530  137.6870 C   0  0  0  0  0  3  0  0  0  0  0  0
  187.2720  174.7550  137.1610 Cl  0  0  0  0  0  0  0  0  0  0  0  0
  192.4600  173.3030  136.4700 Cl  0  0  0  0  0  0  0  0  0  0  0  0
  191.7090  175.7840  137.3310 C   0  0  0  0  0  3  0  0  0  0  0  0
  188.9740  175.1870  137.2270 C   0  0  0  0  0  0  0  0  0  0  0  0
  189.3960  176.4690  137.6290 C   0  0  0  0  0  0  0  0  0  0  0  0
  189.9210  174.2210  136.8700 C   0  0  0  0  0  3  0  0  0  0  0  0
  1 13  1  1  0  0  0
  2  4  1  0  0  0  0
  2  1  1  0  0  0  0
  3  4  2  0  0  0  0
  5 10  1  0  0  0  0
  5  9  1  0  0  0  0
  6  3  1  0  0  0  0
  7  9  1  6  0  0  0
  7  1  1  0  0  0  0
  8 10  1  0  0  0  0
  8  6  2  0  0  0  0
 10  2  2  0  0  0  0
 11  8  1  0  0  0  0
 12 14  1  0  0  0  0
 12 15  1  0  0  0  0
 13 17  2  0  0  0  0
 13 16  1  0  0  0  0
 16 12  2  0  0  0  0
 17 18  1  0  0  0  0
 18 14  2  0  0  0  0
 19 20  1  1  0  0  0
 19  7  1  0  0  0  0
 21 19  1  0  0  0  0
 21 20  1  0  0  0  0
 21 23  1  1  0  0  0
 23 22  1  6  0  0  0
 24 28  1  0  0  0  0
 26 29  1  0  0  0  0
 27 24  1  0  0  0  0
 28 25  2  0  0  0  0
 29 30  2  0  0  0  0
 30 25  1  0  0  0  0
 30 23  1  0  0  0  0
 31 24  2  0  0  0  0
 31 29  1  0  0  0  0
M  END
>  <MODEL>
5

>  <REMARK>
 VINA RESULT:      -7.6      4.311      5.778
  Name = 
  4 active torsions:
  status: ('A' for Active; 'I' for Inactive)
    1  A    between atoms: C_4  and  C_12
    2  A    between atoms: C_9  and  C_22
    3  A    between atoms: C_9  and  C_23
    4  A    between atoms: C_15  and  C_21
                            x       y       z     vdW  Elec       q    Type
                         _______ _______ _______ _____ _____    ______ ____

>  <TORSDO>
F 4

$$$$
=
 OpenBabel10262419203D

 31 35  0  0  1  0  0  0  0  0999 V2000
  188.9530  176.6050  137.4950 C   0  0  2  0  0  3  0  0  0  0  0  0
  190.2430  176.4350  136.7240 C   0  0  0  0  0  0  0  0  0  0  0  0
  191.3710  176.3220  134.5940 C   0  0  0  0  0  3  0  0  0  0  0  0
  190.2050  176.5230  135.3300 C   0  0  0  0  0  3  0  0  0  0  0  0
  191.5720  176.1440  138.8710 C   0  0  0  0  0  2  0  0  0  0  0  0
  192.5380  176.0410  135.2300 N   0  0  0  0  0  0  0  0  0  0  0  0
  189.1480  176.8160  139.0010 C   0  0  1  0  0  3  0  0  0  0  0  0
  192.6150  175.9490  136.5840 C   0  0  0  0  0  0  0  0  0  0  0  0
  190.2330  175.8930  139.5560 C   0  0  0  0  0  2  0  0  0  0  0  0
  191.4650  176.1380  137.3690 C   0  0  0  0  0  0  0  0  0  0  0  0
  194.1760  175.6010  137.3150 Cl  0  0  0  0  0  0  0  0  0  0  0  0
  187.5070  173.1300  136.9030 C   0  0  0  0  0  0  0  0  0  0  0  0
  187.9890  175.4850  137.2410 C   0  0  0  0  0  0  0  0  0  0  0  0
  186.1410  173.4190  136.8330 C   0  0  0  0  0  3  0  0  0  0  0  0
  187.9360  171.8520  136.7740 F   0  0  0  0  0  0  0  0  0  0  0  0
  188.4290  174.1590  137.1090 C   0  0  0  0  0  3  0  0  0  0  0  0
  186.6200  175.7680  137.1750 C   0  0  0  0  0  3  0  0  0  0  0  0
  185.6980  174.7370  136.9690 C   0  0  0  0  0  3  0  0  0  0  0  0
  189.4350  178.2810  139.3380 C   0  0  1  0  0  3  0  0  0  0  0  0
  188.5200  179.1220  138.6740 O   0  0  0  0  0  0  0  0  0  0  0  0
  188.3370  178.9940  140.0640 C   0  0  1  0  0  3  0  0  0  0  0  0
  185.9790  178.6010  139.3340 C   0  0  0  0  0  1  0  0  0  0  0  0
  187.0550  178.1970  140.3260 C   0  0  2  0  0  3  0  0  0  0  0  0
  185.6100  178.6600  144.3600 C   0  0  0  0  0  0  0  0  0  0  0  0
  185.4320  179.1590  142.0000 C   0  0  0  0  0  3  0  0  0  0  0  0
  188.5930  176.6630  142.5360 Cl  0  0  0  0  0  0  0  0  0  0  0  0
  185.0240  178.8500  145.9970 Cl  0  0  0  0  0  0  0  0  0  0  0  0
  184.9630  179.3090  143.3060 C   0  0  0  0  0  3  0  0  0  0  0  0
  187.1980  177.6990  142.8000 C   0  0  0  0  0  0  0  0  0  0  0  0
  186.5580  178.3630  141.7350 C   0  0  0  0  0  0  0  0  0  0  0  0
  186.7230  177.8550  144.1060 C   0  0  0  0  0  3  0  0  0  0  0  0
  1 13  1  1  0  0  0
  1  7  1  0  0  0  0
  2 10  1  0  0  0  0
  2  1  1  0  0  0  0
  3  6  2  0  0  0  0
  3  4  1  0  0  0  0
  4  2  2  0  0  0  0
  5  9  1  0  0  0  0
  6  8  1  0  0  0  0
  7 19  1  0  0  0  0
  7  9  1  6  0  0  0
  8 11  1  0  0  0  0
  8 10  2  0  0  0  0
 10  5  1  0  0  0  0
 12 16  1  0  0  0  0
 14 12  2  0  0  0  0
 14 18  1  0  0  0  0
 15 12  1  0  0  0  0
 16 13  2  0  0  0  0
 17 13  1  0  0  0  0
 18 17  2  0  0  0  0
 19 20  1  6  0  0  0
 19 21  1  0  0  0  0
 20 21  1  0  0  0  0
 21 23  1  6  0  0  0
 23 22  1  6  0  0  0
 23 30  1  0  0  0  0
 24 27  1  0  0  0  0
 25 28  1  0  0  0  0
 26 29  1  0  0  0  0
 28 24  2  0  0  0  0
 29 31  2  0  0  0  0
 30 25  2  0  0  0  0
 30 29  1  0  0  0  0
 31 24  1  0  0  0  0
M  END
>  <MODEL>
6

>  <REMARK>
 VINA RESULT:      -7.3      5.882      7.971
  Name = 
  4 active torsions:
  status: ('A' for Active; 'I' for Inactive)
    1  A    between atoms: C_4  and  C_12
    2  A    between atoms: C_9  and  C_22
    3  A    between atoms: C_9  and  C_23
    4  A    between atoms: C_15  and  C_21
                            x       y       z     vdW  Elec       q    Type
                         _______ _______ _______ _____ _____    ______ ____

>  <TORSDO>
F 4

$$$$
=
 OpenBabel10262419203D

 31 35  0  0  1  0  0  0  0  0999 V2000
  181.7140  178.8090  137.8890 C   0  0  2  0  0  3  0  0  0  0  0  0
  180.7310  179.3030  136.8520 C   0  0  0  0  0  0  0  0  0  0  0  0
  179.2510  178.8040  135.0130 C   0  0  0  0  0  3  0  0  0  0  0  0
  180.1230  178.3690  136.0080 C   0  0  0  0  0  3  0  0  0  0  0  0
  181.0010  181.7060  137.6360 C   0  0  0  0  0  2  0  0  0  0  0  0
  178.9940  180.1290  134.8630 N   0  0  0  0  0  0  0  0  0  0  0  0
  182.0690  179.8470  138.9600 C   0  0  1  0  0  3  0  0  0  0  0  0
  179.5650  181.0670  135.6650 C   0  0  0  0  0  0  0  0  0  0  0  0
  182.2660  181.2330  138.3460 C   0  0  0  0  0  2  0  0  0  0  0  0
  180.4560  180.6780  136.6800 C   0  0  0  0  0  0  0  0  0  0  0  0
  179.1530  182.7570  135.4050 Cl  0  0  0  0  0  0  0  0  0  0  0  0
  185.3210  177.6930  137.3670 C   0  0  0  0  0  0  0  0  0  0  0  0
  182.9580  178.2460  137.2690 C   0  0  0  0  0  0  0  0  0  0  0  0
  185.2400  177.1220  136.0940 C   0  0  0  0  0  3  0  0  0  0  0  0
  186.5000  177.7030  138.0320 F   0  0  0  0  0  0  0  0  0  0  0  0
  184.1820  178.2520  137.9550 C   0  0  0  0  0  3  0  0  0  0  0  0
  182.8830  177.6680  135.9970 C   0  0  0  0  0  3  0  0  0  0  0  0
  184.0220  177.1090  135.4090 C   0  0  0  0  0  3  0  0  0  0  0  0
  181.0350  179.8780  140.0870 C   0  0  1  0  0  3  0  0  0  0  0  0
  180.6290  178.5680  140.4120 O   0  0  0  0  0  0  0  0  0  0  0  0
  181.4570  179.2050  141.3560 C   0  0  1  0  0  3  0  0  0  0  0  0
  182.6870  177.0620  140.9770 C   0  0  0  0  0  1  0  0  0  0  0  0
  182.8310  178.5270  141.3520 C   0  0  2  0  0  3  0  0  0  0  0  0
  184.8540  178.8990  145.1380 C   0  0  0  0  0  0  0  0  0  0  0  0
  182.8050  178.7150  143.8660 C   0  0  0  0  0  3  0  0  0  0  0  0
  185.9270  178.6260  141.2660 Cl  0  0  0  0  0  0  0  0  0  0  0  0
  185.6750  179.0510  146.6750 Cl  0  0  0  0  0  0  0  0  0  0  0  0
  183.4590  178.8340  145.0940 C   0  0  0  0  0  3  0  0  0  0  0  0
  184.9460  178.7150  142.7220 C   0  0  0  0  0  0  0  0  0  0  0  0
  183.5390  178.6640  142.6700 C   0  0  0  0  0  0  0  0  0  0  0  0
  185.5940  178.8360  143.9560 C   0  0  0  0  0  3  0  0  0  0  0  0
  1 13  1  6  0  0  0
  1  7  1  0  0  0  0
  2  1  1  0  0  0  0
  3  4  1  0  0  0  0
  4  2  2  0  0  0  0
  5  9  1  0  0  0  0
  6  3  2  0  0  0  0
  6  8  1  0  0  0  0
  7  9  1  6  0  0  0
  7 19  1  0  0  0  0
  8 10  2  0  0  0  0
 10  2  1  0  0  0  0
 10  5  1  0  0  0  0
 11  8  1  0  0  0  0
 12 16  1  0  0  0  0
 12 15  1  0  0  0  0
 13 16  2  0  0  0  0
 14 12  2  0  0  0  0
 17 13  1  0  0  0  0
 18 17  2  0  0  0  0
 18 14  1  0  0  0  0
 19 20  1  6  0  0  0
 19 21  1  0  0  0  0
 20 21  1  0  0  0  0
 21 23  1  6  0  0  0
 23 22  1  1  0  0  0
 23 30  1  0  0  0  0
 24 27  1  0  0  0  0
 25 28  2  0  0  0  0
 26 29  1  0  0  0  0
 28 24  1  0  0  0  0
 29 31  1  0  0  0  0
 30 29  2  0  0  0  0
 30 25  1  0  0  0  0
 31 24  2  0  0  0  0
M  END
>  <MODEL>
7

>  <REMARK>
 VINA RESULT:      -7.1      2.860      4.959
  Name = 
  4 active torsions:
  status: ('A' for Active; 'I' for Inactive)
    1  A    between atoms: C_4  and  C_12
    2  A    between atoms: C_9  and  C_22
    3  A    between atoms: C_9  and  C_23
    4  A    between atoms: C_15  and  C_21
                            x       y       z     vdW  Elec       q    Type
                         _______ _______ _______ _____ _____    ______ ____

>  <TORSDO>
F 4

$$$$
=
 OpenBabel10262419203D

 31 35  0  0  1  0  0  0  0  0999 V2000
  184.1730  175.4710  136.6740 C   0  0  2  0  0  3  0  0  0  0  0  0
  183.1770  174.5340  136.0270 C   0  0  0  0  0  0  0  0  0  0  0  0
  181.1600  174.2430  134.7360 C   0  0  0  0  0  3  0  0  0  0  0  0
  182.1170  175.0830  135.3010 C   0  0  0  0  0  3  0  0  0  0  0  0
  184.4440  172.4950  136.8630 C   0  0  0  0  0  2  0  0  0  0  0  0
  181.2560  172.8970  134.8930 N   0  0  0  0  0  0  0  0  0  0  0  0
  185.4540  174.7830  137.1590 C   0  0  1  0  0  3  0  0  0  0  0  0
  182.2730  172.3260  135.5920 C   0  0  0  0  0  0  0  0  0  0  0  0
  185.1470  173.4440  137.8280 C   0  0  0  0  0  2  0  0  0  0  0  0
  183.2600  173.1330  136.1840 C   0  0  0  0  0  0  0  0  0  0  0  0
  182.3220  170.5730  135.7220 Cl  0  0  0  0  0  0  0  0  0  0  0  0
  183.0930  178.4060  138.8520 C   0  0  0  0  0  0  0  0  0  0  0  0
  183.5580  176.2780  137.7780 C   0  0  0  0  0  0  0  0  0  0  0  0
  182.3330  177.7500  139.8240 C   0  0  0  0  0  3  0  0  0  0  0  0
  183.2360  179.7520  138.8980 F   0  0  0  0  0  0  0  0  0  0  0  0
  183.7020  177.6730  137.8290 C   0  0  0  0  0  3  0  0  0  0  0  0
  182.7920  175.6270  138.7510 C   0  0  0  0  0  3  0  0  0  0  0  0
  182.1820  176.3610  139.7740 C   0  0  0  0  0  3  0  0  0  0  0  0
  186.4760  174.6230  136.0320 C   0  0  1  0  0  3  0  0  0  0  0  0
  186.3270  175.6590  135.0880 O   0  0  0  0  0  0  0  0  0  0  0  0
  187.4680  175.7380  135.9090 C   0  0  1  0  0  3  0  0  0  0  0  0
  187.0860  178.2000  136.1010 C   0  0  0  0  0  1  0  0  0  0  0  0
  187.3060  176.9140  136.8770 C   0  0  2  0  0  3  0  0  0  0  0  0
  190.6800  177.3340  139.5230 C   0  0  0  0  0  0  0  0  0  0  0  0
  189.7520  176.6160  137.4090 C   0  0  0  0  0  3  0  0  0  0  0  0
  186.7610  178.2530  139.6180 Cl  0  0  0  0  0  0  0  0  0  0  0  0
  192.0510  177.5030  140.5980 Cl  0  0  0  0  0  0  0  0  0  0  0  0
  190.8470  176.7520  138.2640 C   0  0  0  0  0  3  0  0  0  0  0  0
  188.3200  177.6540  139.0710 C   0  0  0  0  0  0  0  0  0  0  0  0
  188.4790  177.0550  137.8060 C   0  0  0  0  0  0  0  0  0  0  0  0
  189.4210  177.7860  139.9230 C   0  0  0  0  0  3  0  0  0  0  0  0
  1  7  1  0  0  0  0
  1 13  1  1  0  0  0
  2 10  1  0  0  0  0
  2  1  1  0  0  0  0
  3  6  2  0  0  0  0
  3  4  1  0  0  0  0
  4  2  2  0  0  0  0
  5  9  1  0  0  0  0
  6  8  1  0  0  0  0
  7  9  1  6  0  0  0
  8 11  1  0  0  0  0
  8 10  2  0  0  0  0
 10  5  1  0  0  0  0
 12 15  1  0  0  0  0
 12 14  1  0  0  0  0
 13 16  1  0  0  0  0
 13 17  2  0  0  0  0
 16 12  2  0  0  0  0
 17 18  1  0  0  0  0
 18 14  2  0  0  0  0
 19 20  1  6  0  0  0
 19  7  1  0  0  0  0
 20 21  1  0  0  0  0
 21 19  1  0  0  0  0
 21 23  1  1  0  0  0
 23 22  1  6  0  0  0
 23 30  1  0  0  0  0
 24 31  1  0  0  0  0
 24 27  1  0  0  0  0
 25 30  2  0  0  0  0
 25 28  1  0  0  0  0
 28 24  2  0  0  0  0
 29 26  1  0  0  0  0
 29 31  2  0  0  0  0
 30 29  1  0  0  0  0
M  END
>  <MODEL>
8

>  <REMARK>
 VINA RESULT:      -7.1      4.643      6.092
  Name = 
  4 active torsions:
  status: ('A' for Active; 'I' for Inactive)
    1  A    between atoms: C_4  and  C_12
    2  A    between atoms: C_9  and  C_22
    3  A    between atoms: C_9  and  C_23
    4  A    between atoms: C_15  and  C_21
                            x       y       z     vdW  Elec       q    Type
                         _______ _______ _______ _____ _____    ______ ____

>  <TORSDO>
F 4

$$$$
=
 OpenBabel10262419203D

 31 35  0  0  1  0  0  0  0  0999 V2000
  190.5430  176.5730  137.1550 C   0  0  2  0  0  3  0  0  0  0  0  0
  189.1040  176.9380  136.8700 C   0  0  0  0  0  0  0  0  0  0  0  0
  187.4090  178.6450  136.6780 C   0  0  0  0  0  3  0  0  0  0  0  0
  188.7390  178.2870  136.8900 C   0  0  0  0  0  3  0  0  0  0  0  0
  188.4840  174.5000  136.5000 C   0  0  0  0  0  2  0  0  0  0  0  0
  186.4720  177.6870  136.4550 N   0  0  0  0  0  0  0  0  0  0  0  0
  190.9060  175.1280  136.7930 C   0  0  1  0  0  3  0  0  0  0  0  0
  186.7890  176.3650  136.4270 C   0  0  0  0  0  0  0  0  0  0  0  0
  189.7960  174.1580  137.1980 C   0  0  0  0  0  2  0  0  0  0  0  0
  188.1160  175.9540  136.6400 C   0  0  0  0  0  0  0  0  0  0  0  0
  185.5090  175.2020  136.1090 Cl  0  0  0  0  0  0  0  0  0  0  0  0
  190.3740  177.1790  140.9140 C   0  0  0  0  0  0  0  0  0  0  0  0
  190.9350  176.8750  138.5710 C   0  0  0  0  0  0  0  0  0  0  0  0
  191.7250  177.3770  141.2120 C   0  0  0  0  0  3  0  0  0  0  0  0
  189.4480  177.2290  141.9010 F   0  0  0  0  0  0  0  0  0  0  0  0
  189.9790  176.9260  139.5970 C   0  0  0  0  0  3  0  0  0  0  0  0
  192.2870  177.0690  138.8760 C   0  0  0  0  0  3  0  0  0  0  0  0
  192.6810  177.3220  140.1940 C   0  0  0  0  0  3  0  0  0  0  0  0
  191.2590  174.9850  135.3110 C   0  0  1  0  0  3  0  0  0  0  0  0
  192.0140  176.0940  134.8810 O   0  0  0  0  0  0  0  0  0  0  0  0
  192.7230  174.8860  135.0130 C   0  0  1  0  0  3  0  0  0  0  0  0
  194.7920  175.9790  135.8910 C   0  0  0  0  0  1  0  0  0  0  0  0
  193.6780  174.9960  136.2050 C   0  0  2  0  0  3  0  0  0  0  0  0
  195.3330  171.1800  137.3300 C   0  0  0  0  0  0  0  0  0  0  0  0
  194.1490  172.5640  135.7380 C   0  0  0  0  0  3  0  0  0  0  0  0
  195.1060  174.8580  138.9530 Cl  0  0  0  0  0  0  0  0  0  0  0  0
  196.0030  169.6300  137.7860 Cl  0  0  0  0  0  0  0  0  0  0  0  0
  194.6850  171.3270  136.1010 C   0  0  0  0  0  3  0  0  0  0  0  0
  194.9170  173.5140  137.8350 C   0  0  0  0  0  0  0  0  0  0  0  0
  194.2490  173.6650  136.6040 C   0  0  0  0  0  0  0  0  0  0  0  0
  195.4500  172.2710  138.1920 C   0  0  0  0  0  3  0  0  0  0  0  0
  1 13  1  1  0  0  0
  2  4  1  0  0  0  0
  2  1  1  0  0  0  0
  3  4  2  0  0  0  0
  5 10  1  0  0  0  0
  5  9  1  0  0  0  0
  6  3  1  0  0  0  0
  7  1  1  0  0  0  0
  7  9  1  6  0  0  0
  8  6  2  0  0  0  0
  8 10  1  0  0  0  0
 10  2  2  0  0  0  0
 11  8  1  0  0  0  0
 12 14  1  0  0  0  0
 12 15  1  0  0  0  0
 13 17  2  0  0  0  0
 13 16  1  0  0  0  0
 16 12  2  0  0  0  0
 17 18  1  0  0  0  0
 18 14  2  0  0  0  0
 19 20  1  6  0  0  0
 19  7  1  0  0  0  0
 20 21  1  0  0  0  0
 21 19  1  0  0  0  0
 21 23  1  1  0  0  0
 23 22  1  6  0  0  0
 23 30  1  0  0  0  0
 24 27  1  0  0  0  0
 24 31  1  0  0  0  0
 25 28  1  0  0  0  0
 25 30  2  0  0  0  0
 28 24  2  0  0  0  0
 29 31  2  0  0  0  0
 29 26  1  0  0  0  0
 30 29  1  0  0  0  0
M  END
>  <MODEL>
9

>  <REMARK>
 VINA RESULT:      -7.0      8.314     10.314
  Name = 
  4 active torsions:
  status: ('A' for Active; 'I' for Inactive)
    1  A    between atoms: C_4  and  C_12
    2  A    between atoms: C_9  and  C_22
    3  A    between atoms: C_9  and  C_23
    4  A    between atoms: C_15  and  C_21
                            x       y       z     vdW  Elec       q    Type
                         _______ _______ _______ _____ _____    ______ ____

>  <TORSDO>
F 4

$$$$
