=
 OpenBabel10262421123D

 32 36  0  0  0  0  0  0  0  0999 V2000
  188.1430  177.7510  141.1870 C   0  0  0  0  0  0  0  0  0  0  0  0
  189.3520  177.2150  143.6470 C   0  0  0  0  0  0  0  0  0  0  0  0
  187.5850  178.0570  139.9380 C   0  0  0  0  0  3  0  0  0  0  0  0
  187.4050  178.0100  142.3810 C   0  0  0  0  0  0  0  0  0  0  0  0
  187.3880  177.9490  144.8630 C   0  0  0  0  0  3  0  0  0  0  0  0
  191.9250  176.1630  146.1300 C   0  0  0  0  0  3  0  0  0  0  0  0
  188.0300  177.7280  143.6310 C   0  0  0  0  0  0  0  0  0  0  0  0
  189.9430  176.9040  147.3080 C   0  0  0  0  0  3  0  0  0  0  0  0
  189.3150  177.1750  146.0890 C   0  0  0  0  0  0  0  0  0  0  0  0
  186.0860  178.5500  142.2590 C   0  0  0  0  0  0  0  0  0  0  0  0
  188.0170  177.6770  146.0760 C   0  0  0  0  0  3  0  0  0  0  0  0
  185.5660  178.8280  140.9840 C   0  0  0  0  0  3  0  0  0  0  0  0
  190.0030  176.9830  142.4790 N   0  0  0  0  0  0  0  0  0  0  0  0
  189.4460  177.2150  141.2660 C   0  0  0  0  0  0  0  0  0  0  0  0
  189.9940  176.9390  144.8710 C   0  0  0  0  0  0  0  0  0  0  0  0
  186.3070  178.5880  139.8350 C   0  0  0  0  0  3  0  0  0  0  0  0
  191.2460  176.3980  147.3280 C   0  0  0  0  0  3  0  0  0  0  0  0
  191.3030  176.4320  144.9070 C   0  0  0  0  0  3  0  0  0  0  0  0
  192.3660  176.9120  138.8560 C   0  0  0  0  0  0  0  0  0  0  0  0
  193.7280  177.1780  138.8050 O   0  0  0  0  0  1  0  0  0  0  0  0
  190.2570  176.9140  140.0660 C   0  0  0  0  0  0  0  0  0  0  0  0
  191.7240  176.3680  137.7410 C   0  0  0  0  0  3  0  0  0  0  0  0
  189.6220  176.3860  138.9350 C   0  0  0  0  0  3  0  0  0  0  0  0
  191.6370  177.1930  140.0180 C   0  0  0  0  0  0  0  0  0  0  0  0
  192.2630  177.7670  141.0770 F   0  0  0  0  0  0  0  0  0  0  0  0
  190.3470  176.1050  137.7740 C   0  0  0  0  0  0  0  0  0  0  0  0
  188.2750  175.7090  136.4810 C   0  0  0  0  0  1  0  0  0  0  0  0
  189.6770  175.5690  136.6710 O   0  0  0  0  0  0  0  0  0  0  0  0
  183.9900  178.6710  143.4470 C   0  0  0  0  0  3  0  0  0  0  0  0
  185.2770  178.8180  143.4170 N   0  0  0  0  0  0  0  0  0  0  0  0
  183.2380  178.9740  144.6920 C   0  0  0  0  0  2  0  0  0  0  0  0
  184.1520  178.8040  145.8860 C   0  0  0  0  0  1  0  0  0  0  0  0
  1 14  2  0  0  0  0
  1  4  1  0  0  0  0
  2 15  1  0  0  0  0
  3  1  1  0  0  0  0
  4  7  2  0  0  0  0
  5 11  2  0  0  0  0
  6 17  1  0  0  0  0
  7  2  1  0  0  0  0
  7  5  1  0  0  0  0
  8 17  2  0  0  0  0
  9  8  1  0  0  0  0
 10  4  1  0  0  0  0
 10 30  1  0  0  0  0
 11  9  1  0  0  0  0
 12 10  2  0  0  0  0
 13  2  2  0  0  0  0
 14 13  1  0  0  0  0
 15 18  1  0  0  0  0
 15  9  2  0  0  0  0
 16  3  2  0  0  0  0
 16 12  1  0  0  0  0
 18  6  2  0  0  0  0
 19 24  1  0  0  0  0
 20 19  1  0  0  0  0
 21 14  1  0  0  0  0
 22 26  1  0  0  0  0
 22 19  2  0  0  0  0
 23 21  1  0  0  0  0
 24 21  2  0  0  0  0
 24 25  1  0  0  0  0
 26 23  2  0  0  0  0
 27 28  1  0  0  0  0
 28 26  1  0  0  0  0
 29 31  1  0  0  0  0
 30 29  2  0  0  0  0
 31 32  1  0  0  0  0
M  END
>  <MODEL>
1

>  <REMARK>
 VINA RESULT:     -10.7      0.000      0.000
  Name = 
  4 active torsions:
  status: ('A' for Active; 'I' for Inactive)
    1  A    between atoms: C_13  and  C_18
    2  A    between atoms: C_14  and  N_29
    3  A    between atoms: O_15  and  C_26
    4  A    between atoms: C_16  and  C_27
                            x       y       z     vdW  Elec       q    Type
                         _______ _______ _______ _____ _____    ______ ____

>  <TORSDO>
F 4

$$$$
=
 OpenBabel10262421123D

 32 36  0  0  0  0  0  0  0  0999 V2000
  189.4210  177.2750  142.7760 C   0  0  0  0  0  0  0  0  0  0  0  0
  186.7290  177.9540  143.0830 C   0  0  0  0  0  0  0  0  0  0  0  0
  190.7540  176.8850  142.5870 C   0  0  0  0  0  3  0  0  0  0  0  0
  188.8930  177.3920  144.0970 C   0  0  0  0  0  0  0  0  0  0  0  0
  186.9040  177.8840  145.5000 C   0  0  0  0  0  3  0  0  0  0  0  0
  183.2170  178.8380  142.2020 C   0  0  0  0  0  3  0  0  0  0  0  0
  187.5190  177.7440  144.2430 C   0  0  0  0  0  0  0  0  0  0  0  0
  183.4330  178.7590  144.6120 C   0  0  0  0  0  3  0  0  0  0  0  0
  184.7840  178.4240  144.4840 C   0  0  0  0  0  0  0  0  0  0  0  0
  189.7660  177.1380  145.2010 C   0  0  0  0  0  0  0  0  0  0  0  0
  185.5580  178.2200  145.6230 C   0  0  0  0  0  3  0  0  0  0  0  0
  191.0980  176.7620  144.9600 C   0  0  0  0  0  3  0  0  0  0  0  0
  187.2870  177.8330  141.8520 N   0  0  0  0  0  0  0  0  0  0  0  0
  188.5920  177.5210  141.6620 C   0  0  0  0  0  0  0  0  0  0  0  0
  185.3660  178.2930  143.2020 C   0  0  0  0  0  0  0  0  0  0  0  0
  191.5870  176.6330  143.6680 C   0  0  0  0  0  3  0  0  0  0  0  0
  182.6520  178.9670  143.4730 C   0  0  0  0  0  3  0  0  0  0  0  0
  184.5680  178.5030  142.0660 C   0  0  0  0  0  3  0  0  0  0  0  0
  188.8410  177.8410  137.8850 C   0  0  0  0  0  0  0  0  0  0  0  0
  188.1320  178.3790  136.8190 O   0  0  0  0  0  1  0  0  0  0  0  0
  189.0810  177.4270  140.2690 C   0  0  0  0  0  0  0  0  0  0  0  0
  190.0400  177.1650  137.6480 C   0  0  0  0  0  3  0  0  0  0  0  0
  190.2730  176.7360  140.0160 C   0  0  0  0  0  3  0  0  0  0  0  0
  188.3530  177.9680  139.1920 C   0  0  0  0  0  0  0  0  0  0  0  0
  187.1620  178.5840  139.4030 F   0  0  0  0  0  0  0  0  0  0  0  0
  190.7620  176.6060  138.7130 C   0  0  0  0  0  0  0  0  0  0  0  0
  193.0220  176.4440  137.7200 C   0  0  0  0  0  1  0  0  0  0  0  0
  191.9600  175.9170  138.5050 O   0  0  0  0  0  0  0  0  0  0  0  0
  189.8700  178.0160  147.4460 C   0  0  0  0  0  3  0  0  0  0  0  0
  189.3100  177.2560  146.5590 N   0  0  0  0  0  0  0  0  0  0  0  0
  189.3260  178.0720  148.8260 C   0  0  0  0  0  2  0  0  0  0  0  0
  187.8270  177.8690  148.7860 C   0  0  0  0  0  1  0  0  0  0  0  0
  1  4  1  0  0  0  0
  2 15  2  0  0  0  0
  2  7  1  0  0  0  0
  3  1  2  0  0  0  0
  3 16  1  0  0  0  0
  4  7  1  0  0  0  0
  4 10  2  0  0  0  0
  5 11  1  0  0  0  0
  6 17  1  0  0  0  0
  7  5  2  0  0  0  0
  9  8  1  0  0  0  0
  9 11  2  0  0  0  0
 10 30  1  0  0  0  0
 12 10  1  0  0  0  0
 13  2  1  0  0  0  0
 14 13  2  0  0  0  0
 14  1  1  0  0  0  0
 15  9  1  0  0  0  0
 16 12  2  0  0  0  0
 17  8  2  0  0  0  0
 18  6  2  0  0  0  0
 18 15  1  0  0  0  0
 19 24  1  0  0  0  0
 20 19  1  0  0  0  0
 21 14  1  0  0  0  0
 22 19  2  0  0  0  0
 22 26  1  0  0  0  0
 23 21  1  0  0  0  0
 24 25  1  0  0  0  0
 24 21  2  0  0  0  0
 26 23  2  0  0  0  0
 27 28  1  0  0  0  0
 28 26  1  0  0  0  0
 29 31  1  0  0  0  0
 30 29  2  0  0  0  0
 32 31  1  0  0  0  0
M  END
>  <MODEL>
2

>  <REMARK>
 VINA RESULT:     -10.6      1.882      5.066
  Name = 
  4 active torsions:
  status: ('A' for Active; 'I' for Inactive)
    1  A    between atoms: C_13  and  C_18
    2  A    between atoms: C_14  and  N_29
    3  A    between atoms: O_15  and  C_26
    4  A    between atoms: C_16  and  C_27
                            x       y       z     vdW  Elec       q    Type
                         _______ _______ _______ _____ _____    ______ ____

>  <TORSDO>
F 4

$$$$
=
 OpenBabel10262421123D

 32 36  0  0  0  0  0  0  0  0999 V2000
  188.5490  177.8230  142.7700 C   0  0  0  0  0  0  0  0  0  0  0  0
  185.8020  178.3050  142.9160 C   0  0  0  0  0  0  0  0  0  0  0  0
  189.9370  177.6290  142.7360 C   0  0  0  0  0  3  0  0  0  0  0  0
  187.8310  178.0540  141.5580 C   0  0  0  0  0  0  0  0  0  0  0  0
  185.6330  178.5330  140.5080 C   0  0  0  0  0  3  0  0  0  0  0  0
  182.4080  178.8130  144.3680 C   0  0  0  0  0  3  0  0  0  0  0  0
  186.4290  178.2940  141.6430 C   0  0  0  0  0  0  0  0  0  0  0  0
  182.2800  179.0320  141.9600 C   0  0  0  0  0  3  0  0  0  0  0  0
  183.6520  178.7870  141.8610 C   0  0  0  0  0  0  0  0  0  0  0  0
  188.5590  178.0440  140.3260 C   0  0  0  0  0  0  0  0  0  0  0  0
  184.2650  178.7750  140.6120 C   0  0  0  0  0  3  0  0  0  0  0  0
  189.9480  177.8340  140.3430 C   0  0  0  0  0  3  0  0  0  0  0  0
  186.5350  178.0740  144.0340 N   0  0  0  0  0  0  0  0  0  0  0  0
  187.8660  177.8210  144.0040 C   0  0  0  0  0  0  0  0  0  0  0  0
  184.4180  178.5510  143.0260 C   0  0  0  0  0  0  0  0  0  0  0  0
  190.6320  177.6310  141.5340 C   0  0  0  0  0  3  0  0  0  0  0  0
  181.6580  179.0440  143.2110 C   0  0  0  0  0  3  0  0  0  0  0  0
  183.7810  178.5680  144.2760 C   0  0  0  0  0  3  0  0  0  0  0  0
  188.6080  177.6110  147.7230 C   0  0  0  0  0  0  0  0  0  0  0  0
  187.9880  177.8560  148.9410 O   0  0  0  0  0  1  0  0  0  0  0  0
  188.5500  177.5770  145.2930 C   0  0  0  0  0  0  0  0  0  0  0  0
  189.9240  177.1440  147.6970 C   0  0  0  0  0  3  0  0  0  0  0  0
  189.8760  177.1270  145.2800 C   0  0  0  0  0  3  0  0  0  0  0  0
  187.9190  177.8360  146.5250 C   0  0  0  0  0  0  0  0  0  0  0  0
  186.6570  178.3350  146.5630 F   0  0  0  0  0  0  0  0  0  0  0  0
  190.5670  176.9030  146.4740 C   0  0  0  0  0  0  0  0  0  0  0  0
  192.4630  175.6380  147.4360 C   0  0  0  0  0  1  0  0  0  0  0  0
  191.8860  176.4450  146.4170 O   0  0  0  0  0  0  0  0  0  0  0  0
  188.5250  178.4020  137.9410 C   0  0  0  0  0  3  0  0  0  0  0  0
  187.9000  178.2500  139.0650 N   0  0  0  0  0  0  0  0  0  0  0  0
  187.7570  178.6100  136.6870 C   0  0  0  0  0  2  0  0  0  0  0  0
  186.4310  177.8860  136.7830 C   0  0  0  0  0  1  0  0  0  0  0  0
  1 14  1  0  0  0  0
  2 15  1  0  0  0  0
  2 13  1  0  0  0  0
  3  1  1  0  0  0  0
  4  7  1  0  0  0  0
  4  1  2  0  0  0  0
  5 11  2  0  0  0  0
  5  7  1  0  0  0  0
  7  2  2  0  0  0  0
  8 17  1  0  0  0  0
  9  8  2  0  0  0  0
  9 15  1  0  0  0  0
 10 12  2  0  0  0  0
 10  4  1  0  0  0  0
 11  9  1  0  0  0  0
 12 16  1  0  0  0  0
 14 13  2  0  0  0  0
 14 21  1  0  0  0  0
 15 18  2  0  0  0  0
 16  3  2  0  0  0  0
 17  6  2  0  0  0  0
 18  6  1  0  0  0  0
 19 20  1  0  0  0  0
 21 24  1  0  0  0  0
 22 19  1  0  0  0  0
 23 21  2  0  0  0  0
 23 26  1  0  0  0  0
 24 25  1  0  0  0  0
 24 19  2  0  0  0  0
 26 22  2  0  0  0  0
 28 26  1  0  0  0  0
 28 27  1  0  0  0  0
 29 30  2  0  0  0  0
 30 10  1  0  0  0  0
 31 32  1  0  0  0  0
 31 29  1  0  0  0  0
M  END
>  <MODEL>
3

>  <REMARK>
 VINA RESULT:     -10.4      3.228      7.357
  Name = 
  4 active torsions:
  status: ('A' for Active; 'I' for Inactive)
    1  A    between atoms: C_13  and  C_18
    2  A    between atoms: C_14  and  N_29
    3  A    between atoms: O_15  and  C_26
    4  A    between atoms: C_16  and  C_27
                            x       y       z     vdW  Elec       q    Type
                         _______ _______ _______ _____ _____    ______ ____

>  <TORSDO>
F 4

$$$$
=
 OpenBabel10262421123D

 32 36  0  0  0  0  0  0  0  0999 V2000
  186.4770  178.1130  144.2790 C   0  0  0  0  0  0  0  0  0  0  0  0
  188.2720  177.7440  142.1700 C   0  0  0  0  0  0  0  0  0  0  0  0
  185.5610  178.3540  145.3120 C   0  0  0  0  0  3  0  0  0  0  0  0
  187.8450  177.8470  144.5860 C   0  0  0  0  0  0  0  0  0  0  0  0
  190.1190  177.3890  143.7010 C   0  0  0  0  0  3  0  0  0  0  0  0
  189.5830  177.4790  138.6920 C   0  0  0  0  0  3  0  0  0  0  0  0
  188.7520  177.6550  143.5030 C   0  0  0  0  0  0  0  0  0  0  0  0
  191.4010  177.1280  140.2520 C   0  0  0  0  0  3  0  0  0  0  0  0
  190.5210  177.3030  141.3240 C   0  0  0  0  0  0  0  0  0  0  0  0
  188.2340  177.7990  145.9620 C   0  0  0  0  0  0  0  0  0  0  0  0
  190.9930  177.2130  142.6290 C   0  0  0  0  0  3  0  0  0  0  0  0
  187.2760  178.0360  146.9620 C   0  0  0  0  0  3  0  0  0  0  0  0
  186.9590  177.9950  141.9390 N   0  0  0  0  0  0  0  0  0  0  0  0
  186.0540  178.1640  142.9340 C   0  0  0  0  0  0  0  0  0  0  0  0
  189.1520  177.5690  141.0840 C   0  0  0  0  0  0  0  0  0  0  0  0
  185.9540  178.3130  146.6420 C   0  0  0  0  0  3  0  0  0  0  0  0
  190.9330  177.2150  138.9390 C   0  0  0  0  0  3  0  0  0  0  0  0
  188.6970  177.6550  139.7590 C   0  0  0  0  0  3  0  0  0  0  0  0
  182.9420  178.9120  140.8900 C   0  0  0  0  0  0  0  0  0  0  0  0
  182.5690  179.1270  139.5690 O   0  0  0  0  0  1  0  0  0  0  0  0
  184.6500  178.4250  142.5500 C   0  0  0  0  0  0  0  0  0  0  0  0
  181.9770  178.9660  141.8990 C   0  0  0  0  0  3  0  0  0  0  0  0
  183.6760  178.4990  143.5540 C   0  0  0  0  0  3  0  0  0  0  0  0
  184.2790  178.6490  141.2100 C   0  0  0  0  0  0  0  0  0  0  0  0
  185.2140  178.6480  140.2250 F   0  0  0  0  0  0  0  0  0  0  0  0
  182.3410  178.7630  143.2390 C   0  0  0  0  0  0  0  0  0  0  0  0
  180.0080  178.6280  144.0510 C   0  0  0  0  0  1  0  0  0  0  0  0
  181.4000  178.8190  144.2700 O   0  0  0  0  0  0  0  0  0  0  0  0
  189.9130  176.7540  147.3430 C   0  0  0  0  0  3  0  0  0  0  0  0
  189.5900  177.5170  146.3480 N   0  0  0  0  0  0  0  0  0  0  0  0
  191.3440  176.5210  147.6660 C   0  0  0  0  0  2  0  0  0  0  0  0
  192.0550  175.9840  146.4430 C   0  0  0  0  0  1  0  0  0  0  0  0
  1  4  1  0  0  0  0
  1  3  2  0  0  0  0
  2  7  1  0  0  0  0
  3 16  1  0  0  0  0
  4 10  2  0  0  0  0
  6 17  1  0  0  0  0
  6 18  2  0  0  0  0
  7  5  2  0  0  0  0
  7  4  1  0  0  0  0
  8  9  1  0  0  0  0
  9 11  2  0  0  0  0
 10 30  1  0  0  0  0
 10 12  1  0  0  0  0
 11  5  1  0  0  0  0
 13  2  1  0  0  0  0
 13 14  2  0  0  0  0
 14  1  1  0  0  0  0
 15  9  1  0  0  0  0
 15  2  2  0  0  0  0
 16 12  2  0  0  0  0
 17  8  2  0  0  0  0
 18 15  1  0  0  0  0
 19 24  2  0  0  0  0
 19 22  1  0  0  0  0
 20 19  1  0  0  0  0
 21 14  1  0  0  0  0
 21 23  2  0  0  0  0
 22 26  2  0  0  0  0
 24 21  1  0  0  0  0
 25 24  1  0  0  0  0
 26 23  1  0  0  0  0
 26 28  1  0  0  0  0
 27 28  1  0  0  0  0
 29 31  1  0  0  0  0
 30 29  2  0  0  0  0
 32 31  1  0  0  0  0
M  END
>  <MODEL>
4

>  <REMARK>
 VINA RESULT:     -10.3      3.227      7.151
  Name = 
  4 active torsions:
  status: ('A' for Active; 'I' for Inactive)
    1  A    between atoms: C_13  and  C_18
    2  A    between atoms: C_14  and  N_29
    3  A    between atoms: O_15  and  C_26
    4  A    between atoms: C_16  and  C_27
                            x       y       z     vdW  Elec       q    Type
                         _______ _______ _______ _____ _____    ______ ____

>  <TORSDO>
F 4

$$$$
=
 OpenBabel10262421123D

 32 36  0  0  0  0  0  0  0  0999 V2000
  185.2620  178.3440  143.8820 C   0  0  0  0  0  0  0  0  0  0  0  0
  187.5460  177.8760  142.3430 C   0  0  0  0  0  0  0  0  0  0  0  0
  184.1090  178.6340  144.6240 C   0  0  0  0  0  3  0  0  0  0  0  0
  186.4900  178.0630  144.5520 C   0  0  0  0  0  0  0  0  0  0  0  0
  188.9050  177.5350  144.3220 C   0  0  0  0  0  3  0  0  0  0  0  0
  189.7330  177.4780  139.3520 C   0  0  0  0  0  3  0  0  0  0  0  0
  187.6490  177.8200  143.7570 C   0  0  0  0  0  0  0  0  0  0  0  0
  191.0570  177.1430  141.3520 C   0  0  0  0  0  3  0  0  0  0  0  0
  189.9270  177.3670  142.1430 C   0  0  0  0  0  0  0  0  0  0  0  0
  186.4950  178.0510  145.9820 C   0  0  0  0  0  0  0  0  0  0  0  0
  190.0290  177.3100  143.5290 C   0  0  0  0  0  3  0  0  0  0  0  0
  185.3100  178.3360  146.6820 C   0  0  0  0  0  3  0  0  0  0  0  0
  186.3500  178.1440  141.7620 N   0  0  0  0  0  0  0  0  0  0  0  0
  185.2160  178.3600  142.4720 C   0  0  0  0  0  0  0  0  0  0  0  0
  188.6810  177.6510  141.5370 C   0  0  0  0  0  0  0  0  0  0  0  0
  184.1300  178.6280  146.0120 C   0  0  0  0  0  3  0  0  0  0  0  0
  190.9600  177.1970  139.9590 C   0  0  0  0  0  3  0  0  0  0  0  0
  188.5990  177.7040  140.1370 C   0  0  0  0  0  3  0  0  0  0  0  0
  182.7980  179.2230  139.6730 C   0  0  0  0  0  0  0  0  0  0  0  0
  182.8120  179.5280  138.3180 O   0  0  0  0  0  1  0  0  0  0  0  0
  183.9730  178.6340  141.7180 C   0  0  0  0  0  0  0  0  0  0  0  0
  181.5840  179.1950  140.3640 C   0  0  0  0  0  3  0  0  0  0  0  0
  182.7510  178.6280  142.4030 C   0  0  0  0  0  3  0  0  0  0  0  0
  183.9950  178.9500  140.3460 C   0  0  0  0  0  0  0  0  0  0  0  0
  185.1720  179.0290  139.6740 F   0  0  0  0  0  0  0  0  0  0  0  0
  181.5550  178.9000  141.7350 C   0  0  0  0  0  0  0  0  0  0  0  0
  180.3060  178.6280  143.8530 C   0  0  0  0  0  1  0  0  0  0  0  0
  180.3570  178.8740  142.4530 O   0  0  0  0  0  0  0  0  0  0  0  0
  187.9530  178.2500  147.8940 C   0  0  0  0  0  3  0  0  0  0  0  0
  187.6900  177.7570  146.7250 N   0  0  0  0  0  0  0  0  0  0  0  0
  189.2160  177.8860  148.5850 C   0  0  0  0  0  2  0  0  0  0  0  0
  190.1130  177.1280  147.6300 C   0  0  0  0  0  1  0  0  0  0  0  0
  1  4  1  0  0  0  0
  1  3  2  0  0  0  0
  2  7  1  0  0  0  0
  3 16  1  0  0  0  0
  4 10  2  0  0  0  0
  6 17  1  0  0  0  0
  6 18  2  0  0  0  0
  7  5  2  0  0  0  0
  7  4  1  0  0  0  0
  8  9  1  0  0  0  0
  9 11  2  0  0  0  0
 10 12  1  0  0  0  0
 10 30  1  0  0  0  0
 11  5  1  0  0  0  0
 13  2  1  0  0  0  0
 13 14  2  0  0  0  0
 14  1  1  0  0  0  0
 15  9  1  0  0  0  0
 15  2  2  0  0  0  0
 16 12  2  0  0  0  0
 17  8  2  0  0  0  0
 18 15  1  0  0  0  0
 19 24  2  0  0  0  0
 19 22  1  0  0  0  0
 20 19  1  0  0  0  0
 21 23  2  0  0  0  0
 21 14  1  0  0  0  0
 22 26  2  0  0  0  0
 24 21  1  0  0  0  0
 25 24  1  0  0  0  0
 26 23  1  0  0  0  0
 26 28  1  0  0  0  0
 28 27  1  0  0  0  0
 29 31  1  0  0  0  0
 30 29  2  0  0  0  0
 32 31  1  0  0  0  0
M  END
>  <MODEL>
5

>  <REMARK>
 VINA RESULT:     -10.1      3.299      6.792
  Name = 
  4 active torsions:
  status: ('A' for Active; 'I' for Inactive)
    1  A    between atoms: C_13  and  C_18
    2  A    between atoms: C_14  and  N_29
    3  A    between atoms: O_15  and  C_26
    4  A    between atoms: C_16  and  C_27
                            x       y       z     vdW  Elec       q    Type
                         _______ _______ _______ _____ _____    ______ ____

>  <TORSDO>
F 4

$$$$
=
 OpenBabel10262421123D

 32 36  0  0  0  0  0  0  0  0999 V2000
  187.5270  178.0120  141.4190 C   0  0  0  0  0  0  0  0  0  0  0  0
  188.9950  177.4090  143.7180 C   0  0  0  0  0  0  0  0  0  0  0  0
  186.7490  178.2680  140.2810 C   0  0  0  0  0  3  0  0  0  0  0  0
  188.9110  177.6960  141.2810 C   0  0  0  0  0  0  0  0  0  0  0  0
  191.0210  177.0720  142.4300 C   0  0  0  0  0  3  0  0  0  0  0  0
  189.7890  176.8070  147.3080 C   0  0  0  0  0  3  0  0  0  0  0  0
  189.6530  177.3950  142.4600 C   0  0  0  0  0  0  0  0  0  0  0  0
  191.7930  176.4800  145.9880 C   0  0  0  0  0  3  0  0  0  0  0  0
  191.0800  176.7840  144.8240 C   0  0  0  0  0  0  0  0  0  0  0  0
  189.4770  177.6870  139.9670 C   0  0  0  0  0  0  0  0  0  0  0  0
  191.7280  176.7710  143.5930 C   0  0  0  0  0  3  0  0  0  0  0  0
  188.6590  177.9630  138.8580 C   0  0  0  0  0  3  0  0  0  0  0  0
  187.6760  177.7220  143.7880 N   0  0  0  0  0  0  0  0  0  0  0  0
  186.9330  178.0350  142.6990 C   0  0  0  0  0  0  0  0  0  0  0  0
  189.7050  177.1040  144.8960 C   0  0  0  0  0  0  0  0  0  0  0  0
  187.3090  178.2470  139.0110 C   0  0  0  0  0  3  0  0  0  0  0  0
  191.1490  176.4920  147.2280 C   0  0  0  0  0  3  0  0  0  0  0  0
  189.0710  177.1110  146.1480 C   0  0  0  0  0  3  0  0  0  0  0  0
  183.6390  178.9580  144.3490 C   0  0  0  0  0  0  0  0  0  0  0  0
  183.1350  179.2680  145.6050 O   0  0  0  0  0  1  0  0  0  0  0  0
  185.5070  178.3640  142.9100 C   0  0  0  0  0  0  0  0  0  0  0  0
  182.7820  178.9280  143.2470 C   0  0  0  0  0  3  0  0  0  0  0  0
  184.6330  178.3190  141.8160 C   0  0  0  0  0  3  0  0  0  0  0  0
  185.0010  178.6710  144.1880 C   0  0  0  0  0  0  0  0  0  0  0  0
  185.8130  178.6560  145.2750 F   0  0  0  0  0  0  0  0  0  0  0  0
  183.2740  178.6040  141.9740 C   0  0  0  0  0  0  0  0  0  0  0  0
  181.0200  178.5450  140.9560 C   0  0  0  0  0  1  0  0  0  0  0  0
  182.4380  178.5580  140.8550 O   0  0  0  0  0  0  0  0  0  0  0  0
  191.3280  176.8090  138.6940 C   0  0  0  0  0  3  0  0  0  0  0  0
  190.8680  177.3980  139.7520 N   0  0  0  0  0  0  0  0  0  0  0  0
  192.7850  176.5520  138.5610 C   0  0  0  0  0  2  0  0  0  0  0  0
  193.5140  177.1640  139.7380 C   0  0  0  0  0  1  0  0  0  0  0  0
  1 14  1  0  0  0  0
  2 13  1  0  0  0  0
  2 15  1  0  0  0  0
  3  1  1  0  0  0  0
  4  1  2  0  0  0  0
  4  7  1  0  0  0  0
  5  7  1  0  0  0  0
  5 11  2  0  0  0  0
  7  2  2  0  0  0  0
  8 17  2  0  0  0  0
  9 15  2  0  0  0  0
  9  8  1  0  0  0  0
 10  4  1  0  0  0  0
 11  9  1  0  0  0  0
 12 16  1  0  0  0  0
 12 10  2  0  0  0  0
 14 21  1  0  0  0  0
 14 13  2  0  0  0  0
 15 18  1  0  0  0  0
 16  3  2  0  0  0  0
 17  6  1  0  0  0  0
 18  6  2  0  0  0  0
 19 20  1  0  0  0  0
 21 24  2  0  0  0  0
 22 19  2  0  0  0  0
 23 26  2  0  0  0  0
 23 21  1  0  0  0  0
 24 19  1  0  0  0  0
 24 25  1  0  0  0  0
 26 22  1  0  0  0  0
 28 27  1  0  0  0  0
 28 26  1  0  0  0  0
 29 30  2  0  0  0  0
 30 10  1  0  0  0  0
 31 29  1  0  0  0  0
 31 32  1  0  0  0  0
M  END
>  <MODEL>
6

>  <REMARK>
 VINA RESULT:     -10.1      3.223      6.448
  Name = 
  4 active torsions:
  status: ('A' for Active; 'I' for Inactive)
    1  A    between atoms: C_13  and  C_18
    2  A    between atoms: C_14  and  N_29
    3  A    between atoms: O_15  and  C_26
    4  A    between atoms: C_16  and  C_27
                            x       y       z     vdW  Elec       q    Type
                         _______ _______ _______ _____ _____    ______ ____

>  <TORSDO>
F 4

$$$$
=
 OpenBabel10262421123D

 32 36  0  0  0  0  0  0  0  0999 V2000
  184.5730  178.5340  142.5990 C   0  0  0  0  0  0  0  0  0  0  0  0
  187.1000  178.0670  141.5040 C   0  0  0  0  0  0  0  0  0  0  0  0
  183.3020  178.8220  143.1150 C   0  0  0  0  0  3  0  0  0  0  0  0
  185.6720  178.3230  143.4840 C   0  0  0  0  0  0  0  0  0  0  0  0
  188.1020  177.8620  143.7020 C   0  0  0  0  0  3  0  0  0  0  0  0
  189.7820  177.5970  138.9600 C   0  0  0  0  0  3  0  0  0  0  0  0
  186.9570  178.0800  142.9160 C   0  0  0  0  0  0  0  0  0  0  0  0
  190.7460  177.3980  141.1730 C   0  0  0  0  0  3  0  0  0  0  0  0
  189.4900  177.6240  141.7440 C   0  0  0  0  0  0  0  0  0  0  0  0
  185.4280  178.3790  144.8930 C   0  0  0  0  0  0  0  0  0  0  0  0
  189.3510  177.6350  143.1280 C   0  0  0  0  0  3  0  0  0  0  0  0
  184.1340  178.6590  145.3620 C   0  0  0  0  0  3  0  0  0  0  0  0
  186.0170  178.2680  140.7120 N   0  0  0  0  0  0  0  0  0  0  0  0
  184.7730  178.4830  141.2030 C   0  0  0  0  0  0  0  0  0  0  0  0
  188.3620  177.8400  140.9190 C   0  0  0  0  0  0  0  0  0  0  0  0
  183.0820  178.8820  144.4850 C   0  0  0  0  0  3  0  0  0  0  0  0
  190.8910  177.3830  139.7830 C   0  0  0  0  0  3  0  0  0  0  0  0
  188.5240  177.8240  139.5250 C   0  0  0  0  0  3  0  0  0  0  0  0
  181.8630  177.8340  138.8490 C   0  0  0  0  0  0  0  0  0  0  0  0
  181.0740  176.7810  138.4080 O   0  0  0  0  0  1  0  0  0  0  0  0
  183.6740  178.6820  140.2340 C   0  0  0  0  0  0  0  0  0  0  0  0
  181.6420  179.1210  138.3530 C   0  0  0  0  0  3  0  0  0  0  0  0
  183.4530  179.9640  139.7140 C   0  0  0  0  0  3  0  0  0  0  0  0
  182.8820  177.6080  139.7840 C   0  0  0  0  0  0  0  0  0  0  0  0
  183.1180  176.3440  140.2210 F   0  0  0  0  0  0  0  0  0  0  0  0
  182.4390  180.1930  138.7810 C   0  0  0  0  0  0  0  0  0  0  0  0
  180.9590  182.0830  138.1830 C   0  0  0  0  0  1  0  0  0  0  0  0
  182.2460  181.4890  138.2950 O   0  0  0  0  0  0  0  0  0  0  0  0
  186.3990  178.4690  147.1000 C   0  0  0  0  0  3  0  0  0  0  0  0
  186.4820  178.1570  145.8450 N   0  0  0  0  0  0  0  0  0  0  0  0
  187.5420  178.2010  148.0090 C   0  0  0  0  0  2  0  0  0  0  0  0
  188.4990  177.2350  147.3430 C   0  0  0  0  0  1  0  0  0  0  0  0
  1  3  2  0  0  0  0
  1  4  1  0  0  0  0
  2  7  1  0  0  0  0
  3 16  1  0  0  0  0
  4 10  2  0  0  0  0
  6 18  2  0  0  0  0
  6 17  1  0  0  0  0
  7  4  1  0  0  0  0
  7  5  2  0  0  0  0
  8  9  1  0  0  0  0
  9 11  2  0  0  0  0
 10 12  1  0  0  0  0
 10 30  1  0  0  0  0
 11  5  1  0  0  0  0
 13 14  2  0  0  0  0
 13  2  1  0  0  0  0
 14  1  1  0  0  0  0
 15  2  2  0  0  0  0
 15  9  1  0  0  0  0
 16 12  2  0  0  0  0
 17  8  2  0  0  0  0
 18 15  1  0  0  0  0
 19 24  1  0  0  0  0
 20 19  1  0  0  0  0
 21 14  1  0  0  0  0
 22 26  1  0  0  0  0
 22 19  2  0  0  0  0
 23 21  1  0  0  0  0
 24 25  1  0  0  0  0
 24 21  2  0  0  0  0
 26 23  2  0  0  0  0
 27 28  1  0  0  0  0
 28 26  1  0  0  0  0
 29 31  1  0  0  0  0
 30 29  2  0  0  0  0
 32 31  1  0  0  0  0
M  END
>  <MODEL>
7

>  <REMARK>
 VINA RESULT:     -10.1      3.643      6.621
  Name = 
  4 active torsions:
  status: ('A' for Active; 'I' for Inactive)
    1  A    between atoms: C_13  and  C_18
    2  A    between atoms: C_14  and  N_29
    3  A    between atoms: O_15  and  C_26
    4  A    between atoms: C_16  and  C_27
                            x       y       z     vdW  Elec       q    Type
                         _______ _______ _______ _____ _____    ______ ____

>  <TORSDO>
F 4

$$$$
=
 OpenBabel10262421123D

 32 36  0  0  0  0  0  0  0  0999 V2000
  189.3280  177.7040  142.8970 C   0  0  0  0  0  0  0  0  0  0  0  0
  186.5790  178.1570  143.0940 C   0  0  0  0  0  0  0  0  0  0  0  0
  190.6950  177.4240  142.7660 C   0  0  0  0  0  3  0  0  0  0  0  0
  188.7570  177.8810  144.1930 C   0  0  0  0  0  0  0  0  0  0  0  0
  186.6960  178.3030  145.5110 C   0  0  0  0  0  3  0  0  0  0  0  0
  183.0270  178.6390  142.0760 C   0  0  0  0  0  3  0  0  0  0  0  0
  187.3540  178.1160  144.2820 C   0  0  0  0  0  0  0  0  0  0  0  0
  183.1850  178.7790  144.4880 C   0  0  0  0  0  3  0  0  0  0  0  0
  184.5640  178.5600  144.4140 C   0  0  0  0  0  0  0  0  0  0  0  0
  189.6200  177.8000  145.3310 C   0  0  0  0  0  0  0  0  0  0  0  0
  185.3220  178.5220  145.5800 C   0  0  0  0  0  3  0  0  0  0  0  0
  190.9870  177.5290  145.1470 C   0  0  0  0  0  3  0  0  0  0  0  0
  187.1780  177.9870  141.8890 N   0  0  0  0  0  0  0  0  0  0  0  0
  188.5100  177.7810  141.7500 C   0  0  0  0  0  0  0  0  0  0  0  0
  185.1880  178.3770  143.1580 C   0  0  0  0  0  0  0  0  0  0  0  0
  191.5200  177.3400  143.8800 C   0  0  0  0  0  3  0  0  0  0  0  0
  182.4180  178.8190  143.3210 C   0  0  0  0  0  3  0  0  0  0  0  0
  184.4050  178.4190  141.9950 C   0  0  0  0  0  3  0  0  0  0  0  0
  190.4730  176.5030  138.7600 C   0  0  0  0  0  0  0  0  0  0  0  0
  191.3890  175.5090  138.4410 O   0  0  0  0  0  1  0  0  0  0  0  0
  189.0430  177.6170  140.3800 C   0  0  0  0  0  0  0  0  0  0  0  0
  190.0520  177.3980  137.7740 C   0  0  0  0  0  3  0  0  0  0  0  0
  188.6430  178.5200  139.3860 C   0  0  0  0  0  3  0  0  0  0  0  0
  189.9780  176.6120  140.0650 C   0  0  0  0  0  0  0  0  0  0  0  0
  190.4320  175.7660  141.0250 F   0  0  0  0  0  0  0  0  0  0  0  0
  189.1360  178.4140  138.0830 C   0  0  0  0  0  0  0  0  0  0  0  0
  187.5400  179.1200  136.3290 C   0  0  0  0  0  1  0  0  0  0  0  0
  188.7030  179.3290  137.1190 O   0  0  0  0  0  0  0  0  0  0  0  0
  189.8410  177.8510  147.7320 C   0  0  0  0  0  3  0  0  0  0  0  0
  189.1190  177.9870  146.6650 N   0  0  0  0  0  0  0  0  0  0  0  0
  189.2340  178.0650  149.0710 C   0  0  0  0  0  2  0  0  0  0  0  0
  187.7270  177.9920  148.9580 C   0  0  0  0  0  1  0  0  0  0  0  0
  1  4  1  0  0  0  0
  2 15  2  0  0  0  0
  2  7  1  0  0  0  0
  3  1  2  0  0  0  0
  3 16  1  0  0  0  0
  4  7  1  0  0  0  0
  4 10  2  0  0  0  0
  5 11  1  0  0  0  0
  6 17  1  0  0  0  0
  7  5  2  0  0  0  0
  9  8  1  0  0  0  0
  9 11  2  0  0  0  0
 10 30  1  0  0  0  0
 12 10  1  0  0  0  0
 13  2  1  0  0  0  0
 14 13  2  0  0  0  0
 14  1  1  0  0  0  0
 15  9  1  0  0  0  0
 16 12  2  0  0  0  0
 17  8  2  0  0  0  0
 18  6  2  0  0  0  0
 18 15  1  0  0  0  0
 19 24  1  0  0  0  0
 20 19  1  0  0  0  0
 21 14  1  0  0  0  0
 22 26  1  0  0  0  0
 22 19  2  0  0  0  0
 23 21  1  0  0  0  0
 24 21  2  0  0  0  0
 24 25  1  0  0  0  0
 26 23  2  0  0  0  0
 27 28  1  0  0  0  0
 28 26  1  0  0  0  0
 29 31  1  0  0  0  0
 30 29  2  0  0  0  0
 32 31  1  0  0  0  0
M  END
>  <MODEL>
8

>  <REMARK>
 VINA RESULT:     -10.0      1.901      4.919
  Name = 
  4 active torsions:
  status: ('A' for Active; 'I' for Inactive)
    1  A    between atoms: C_13  and  C_18
    2  A    between atoms: C_14  and  N_29
    3  A    between atoms: O_15  and  C_26
    4  A    between atoms: C_16  and  C_27
                            x       y       z     vdW  Elec       q    Type
                         _______ _______ _______ _____ _____    ______ ____

>  <TORSDO>
F 4

$$$$
=
 OpenBabel10262421123D

 32 36  0  0  0  0  0  0  0  0999 V2000
  186.3880  178.1150  144.3530 C   0  0  0  0  0  0  0  0  0  0  0  0
  186.8570  178.2120  141.6010 C   0  0  0  0  0  0  0  0  0  0  0  0
  186.1730  178.0070  145.7340 C   0  0  0  0  0  3  0  0  0  0  0  0
  185.3090  178.4710  143.4900 C   0  0  0  0  0  0  0  0  0  0  0  0
  184.5640  178.8610  141.1540 C   0  0  0  0  0  3  0  0  0  0  0  0
  188.6520  177.9790  138.3440 C   0  0  0  0  0  3  0  0  0  0  0  0
  185.5600  178.5220  142.0870 C   0  0  0  0  0  0  0  0  0  0  0  0
  186.3540  178.6280  137.9380 C   0  0  0  0  0  3  0  0  0  0  0  0
  186.0970  178.5920  139.3110 C   0  0  0  0  0  0  0  0  0  0  0  0
  184.0330  178.7430  144.0760 C   0  0  0  0  0  0  0  0  0  0  0  0
  184.8260  178.8980  139.7860 C   0  0  0  0  0  3  0  0  0  0  0  0
  183.8710  178.6330  145.4670 C   0  0  0  0  0  3  0  0  0  0  0  0
  187.8450  177.8860  142.4720 N   0  0  0  0  0  0  0  0  0  0  0  0
  187.6620  177.8420  143.8140 C   0  0  0  0  0  0  0  0  0  0  0  0
  187.1260  178.2460  140.2180 C   0  0  0  0  0  0  0  0  0  0  0  0
  184.9270  178.2660  146.2890 C   0  0  0  0  0  3  0  0  0  0  0  0
  187.6300  178.3230  137.4550 C   0  0  0  0  0  3  0  0  0  0  0  0
  188.4010  177.9410  139.7190 C   0  0  0  0  0  3  0  0  0  0  0  0
  190.9790  176.4020  144.9760 C   0  0  0  0  0  0  0  0  0  0  0  0
  192.0550  175.6830  144.4730 O   0  0  0  0  0  1  0  0  0  0  0  0
  188.8230  177.4790  144.6560 C   0  0  0  0  0  0  0  0  0  0  0  0
  190.9660  176.7780  146.3210 C   0  0  0  0  0  3  0  0  0  0  0  0
  188.8140  177.8350  146.0100 C   0  0  0  0  0  3  0  0  0  0  0  0
  189.9080  176.7430  144.1410 C   0  0  0  0  0  0  0  0  0  0  0  0
  189.9110  176.3290  142.8480 F   0  0  0  0  0  0  0  0  0  0  0  0
  189.8800  177.4950  146.8460 C   0  0  0  0  0  0  0  0  0  0  0  0
  188.6300  178.2520  148.8420 C   0  0  0  0  0  1  0  0  0  0  0  0
  189.8360  177.8770  148.1900 O   0  0  0  0  0  0  0  0  0  0  0  0
  181.6720  178.9550  143.6280 C   0  0  0  0  0  3  0  0  0  0  0  0
  182.9050  179.1270  143.2710 N   0  0  0  0  0  0  0  0  0  0  0  0
  180.5720  179.3830  142.7270 C   0  0  0  0  0  2  0  0  0  0  0  0
  180.9130  179.0060  141.3010 C   0  0  0  0  0  1  0  0  0  0  0  0
  1  3  2  0  0  0  0
  2  7  1  0  0  0  0
  2 13  1  0  0  0  0
  3 16  1  0  0  0  0
  4 10  2  0  0  0  0
  4  1  1  0  0  0  0
  5  7  2  0  0  0  0
  6 18  2  0  0  0  0
  7  4  1  0  0  0  0
  8  9  1  0  0  0  0
  9 11  2  0  0  0  0
  9 15  1  0  0  0  0
 10 12  1  0  0  0  0
 11  5  1  0  0  0  0
 12 16  2  0  0  0  0
 13 14  2  0  0  0  0
 14  1  1  0  0  0  0
 14 21  1  0  0  0  0
 15  2  2  0  0  0  0
 17  8  2  0  0  0  0
 17  6  1  0  0  0  0
 18 15  1  0  0  0  0
 19 22  1  0  0  0  0
 20 19  1  0  0  0  0
 21 23  2  0  0  0  0
 22 26  2  0  0  0  0
 23 26  1  0  0  0  0
 24 21  1  0  0  0  0
 24 19  2  0  0  0  0
 25 24  1  0  0  0  0
 26 28  1  0  0  0  0
 28 27  1  0  0  0  0
 30 29  2  0  0  0  0
 30 10  1  0  0  0  0
 31 29  1  0  0  0  0
 32 31  1  0  0  0  0
M  END
>  <MODEL>
9

>  <REMARK>
 VINA RESULT:      -9.9      2.672      6.502
  Name = 
  4 active torsions:
  status: ('A' for Active; 'I' for Inactive)
    1  A    between atoms: C_13  and  C_18
    2  A    between atoms: C_14  and  N_29
    3  A    between atoms: O_15  and  C_26
    4  A    between atoms: C_16  and  C_27
                            x       y       z     vdW  Elec       q    Type
                         _______ _______ _______ _____ _____    ______ ____

>  <TORSDO>
F 4

$$$$
