=
 OpenBabel10262419233D

 31 35  0  0  1  0  0  0  0  0999 V2000
  185.7610  178.6740  139.5600 C   0  0  0  0  0  0  0  0  0  0  0  0
  189.2110  177.6150  139.7000 C   0  0  0  0  0  0  0  0  0  0  0  0
  189.5430  177.3290  138.2480 C   0  0  0  0  0  0  0  0  0  0  0  0
  188.8950  175.7940  136.4150 C   0  0  0  0  0  3  0  0  0  0  0  0
  187.9990  178.0750  140.0970 C   0  0  0  0  0  0  0  0  0  0  0  0
  185.5130  178.9930  140.8930 C   0  0  0  0  0  3  0  0  0  0  0  0
  188.5460  176.4540  137.5260 C   0  0  0  0  0  3  0  0  0  0  0  0
  190.0180  177.9040  142.0570 N   0  0  0  0  0  0  0  0  0  0  0  0
  184.8510  178.7980  138.6990 O   0  0  0  0  0  0  0  0  0  0  0  0
  191.8510  176.7970  139.0130 C   0  0  0  0  0  3  0  0  0  0  0  0
  190.6050  175.2360  134.6630 N   0  0  0  0  0  1  0  0  0  0  0  0
  188.6940  178.3350  142.3900 C   0  0  0  0  0  3  0  0  0  0  0  0
  190.3070  177.5510  140.6970 C   0  0  0  0  0  0  0  0  0  0  0  0
  186.9890  178.2270  139.1940 N   0  0  0  0  0  2  0  0  0  0  0  0
  190.2940  175.8070  135.9280 C   0  0  0  0  0  0  0  0  0  0  0  0
  187.7440  178.4190  141.4520 C   0  0  0  0  0  0  0  0  0  0  0  0
  186.5070  178.8590  141.8060 N   0  0  0  0  0  0  0  0  0  0  0  0
  191.5110  177.1970  140.3470 N   0  0  0  0  0  0  0  0  0  0  0  0
  190.9500  176.8120  138.0320 C   0  0  0  0  0  0  0  0  0  0  0  0
  191.2810  176.2480  136.7160 C   0  0  0  0  0  2  0  0  0  0  0  0
  191.0130  177.7790  143.1140 C   0  0  0  0  0  2  0  0  0  0  0  0
  191.6580  175.4920  143.8050 C   0  0  0  0  0  1  0  0  0  0  0  0
  190.6680  176.6170  144.0310 C   0  0  1  0  0  3  0  0  0  0  0  0
  190.7220  177.0490  145.4210 N   0  0  0  0  0  2  0  0  0  0  0  0
  187.1910  177.8850  146.3490 C   0  0  0  0  0  0  0  0  0  0  0  0
  188.5570  177.8430  148.3470 C   0  0  0  0  0  3  0  0  0  0  0  0
  185.8720  178.0810  145.6950 C   0  0  0  0  0  1  0  0  0  0  0  0
  188.3120  177.5600  145.5770 C   0  0  0  0  0  3  0  0  0  0  0  0
  189.6770  177.5180  147.5760 C   0  0  0  0  0  3  0  0  0  0  0  0
  189.5600  177.3740  146.1890 C   0  0  0  0  0  0  0  0  0  0  0  0
  187.3140  178.0260  147.7340 C   0  0  0  0  0  3  0  0  0  0  0  0
  1  6  1  0  0  0  0
  2  5  2  0  0  0  0
  2 13  1  0  0  0  0
  3  2  1  0  0  0  0
  4  7  1  0  0  0  0
  5 16  1  0  0  0  0
  6 17  2  0  0  0  0
  7  3  2  0  0  0  0
  8 12  1  0  0  0  0
  8 21  1  0  0  0  0
  9  1  2  0  0  0  0
 10 18  1  0  0  0  0
 11 15  1  0  0  0  0
 13  8  1  0  0  0  0
 14  1  1  0  0  0  0
 14  5  1  0  0  0  0
 15  4  2  0  0  0  0
 15 20  1  0  0  0  0
 16 17  1  0  0  0  0
 16 12  2  0  0  0  0
 18 13  2  0  0  0  0
 19  3  1  0  0  0  0
 19 10  2  0  0  0  0
 20 19  1  0  0  0  0
 21 23  1  0  0  0  0
 23 22  1  1  0  0  0
 23 24  1  0  0  0  0
 24 30  1  0  0  0  0
 25 31  1  0  0  0  0
 27 25  1  0  0  0  0
 28 30  1  0  0  0  0
 28 25  2  0  0  0  0
 29 26  1  0  0  0  0
 30 29  2  0  0  0  0
 31 26  2  0  0  0  0
M  END
>  <MODEL>
1

>  <REMARK>
 VINA RESULT:      -9.7      0.000      0.000
  Name = 
  4 active torsions:
  status: ('A' for Active; 'I' for Inactive)
    1  A    between atoms: N_3  and  C_9
    2  A    between atoms: N_3  and  C_22
    3  A    between atoms: C_9  and  C_23
    4  A    between atoms: N_15  and  C_23
                            x       y       z     vdW  Elec       q    Type
                         _______ _______ _______ _____ _____    ______ ____

>  <TORSDO>
F 4

$$$$
=
 OpenBabel10262419233D

 31 35  0  0  1  0  0  0  0  0999 V2000
  185.3200  178.3790  144.1280 C   0  0  0  0  0  0  0  0  0  0  0  0
  188.6550  177.5470  143.0190 C   0  0  0  0  0  0  0  0  0  0  0  0
  189.3050  176.9860  144.2700 C   0  0  2  0  0  3  0  0  0  0  0  0
  189.9790  177.6970  146.5450 C   0  0  0  0  0  3  0  0  0  0  0  0
  187.3650  177.9620  142.9870 C   0  0  0  0  0  0  0  0  0  0  0  0
  184.7360  178.8230  142.9450 C   0  0  0  0  0  3  0  0  0  0  0  0
  189.1450  177.8370  145.5080 C   0  0  0  0  0  3  0  0  0  0  0  0
  188.7690  177.9280  140.5430 N   0  0  0  0  0  0  0  0  0  0  0  0
  184.6560  178.3680  145.1970 O   0  0  0  0  0  0  0  0  0  0  0  0
  191.3300  176.5790  142.8810 C   0  0  0  0  0  3  0  0  0  0  0  0
  191.9230  176.5390  147.6320 N   0  0  0  0  0  1  0  0  0  0  0  0
  187.4170  178.3930  140.6160 C   0  0  0  0  0  3  0  0  0  0  0  0
  189.4110  177.4780  141.7450 C   0  0  0  0  0  0  0  0  0  0  0  0
  186.6110  177.9600  144.1230 N   0  0  0  0  0  2  0  0  0  0  0  0
  191.1500  176.7930  146.4660 C   0  0  0  0  0  0  0  0  0  0  0  0
  186.7560  178.3990  141.7790 C   0  0  0  0  0  0  0  0  0  0  0  0
  185.4640  178.8220  141.8000 N   0  0  0  0  0  0  0  0  0  0  0  0
  190.6250  177.0070  141.7100 N   0  0  0  0  0  0  0  0  0  0  0  0
  190.7560  176.5960  144.0840 C   0  0  0  0  0  0  0  0  0  0  0  0
  191.5500  176.3050  145.2850 C   0  0  0  0  0  3  0  0  0  0  0  0
  189.4710  177.9810  139.2670 C   0  0  0  0  0  2  0  0  0  0  0  0
  189.0300  179.3020  137.2210 C   0  0  0  0  0  1  0  0  0  0  0  0
  188.4890  178.2190  138.1320 C   0  0  1  0  0  3  0  0  0  0  0  0
  188.2990  176.9880  137.3750 N   0  0  0  0  0  2  0  0  0  0  0  0
  185.7500  174.2550  137.1410 C   0  0  0  0  0  0  0  0  0  0  0  0
  184.6270  176.4000  137.1520 C   0  0  0  0  0  3  0  0  0  0  0  0
  185.6910  172.7720  137.0840 C   0  0  0  0  0  1  0  0  0  0  0  0
  186.9860  174.9020  137.2340 C   0  0  0  0  0  3  0  0  0  0  0  0
  185.8630  177.0470  137.2450 C   0  0  0  0  0  3  0  0  0  0  0  0
  187.0470  176.3030  137.2880 C   0  0  0  0  0  0  0  0  0  0  0  0
  184.5710  175.0040  137.1000 C   0  0  0  0  0  3  0  0  0  0  0  0
  1  9  2  0  0  0  0
  2  3  1  0  0  0  0
  3  7  1  1  0  0  0
  5  2  2  0  0  0  0
  5 14  1  0  0  0  0
  6  1  1  0  0  0  0
  7  4  2  0  0  0  0
  8 12  1  0  0  0  0
  8 13  1  0  0  0  0
 10 19  2  0  0  0  0
 12 16  2  0  0  0  0
 13  2  1  0  0  0  0
 14  1  1  0  0  0  0
 15  4  1  0  0  0  0
 15 11  1  0  0  0  0
 16 17  1  0  0  0  0
 16  5  1  0  0  0  0
 17  6  2  0  0  0  0
 18 13  2  0  0  0  0
 18 10  1  0  0  0  0
 19  3  1  0  0  0  0
 19 20  1  0  0  0  0
 20 15  2  0  0  0  0
 21  8  1  0  0  0  0
 23 22  1  6  0  0  0
 23 21  1  0  0  0  0
 24 23  1  0  0  0  0
 25 28  1  0  0  0  0
 26 29  2  0  0  0  0
 27 25  1  0  0  0  0
 28 30  2  0  0  0  0
 29 30  1  0  0  0  0
 30 24  1  0  0  0  0
 31 25  2  0  0  0  0
 31 26  1  0  0  0  0
M  END
>  <MODEL>
2

>  <REMARK>
 VINA RESULT:      -9.4      2.397      7.415
  Name = 
  4 active torsions:
  status: ('A' for Active; 'I' for Inactive)
    1  A    between atoms: N_3  and  C_9
    2  A    between atoms: N_3  and  C_22
    3  A    between atoms: C_9  and  C_23
    4  A    between atoms: N_15  and  C_23
                            x       y       z     vdW  Elec       q    Type
                         _______ _______ _______ _____ _____    ______ ____

>  <TORSDO>
F 4

$$$$
=
 OpenBabel10262419233D

 31 35  0  0  1  0  0  0  0  0999 V2000
  187.5390  178.2250  136.7260 C   0  0  0  0  0  0  0  0  0  0  0  0
  186.5990  178.3410  140.2120 C   0  0  0  0  0  0  0  0  0  0  0  0
  185.0840  178.3060  140.1620 C   0  0  2  0  0  3  0  0  0  0  0  0
  183.1750  179.6610  139.3530 C   0  0  0  0  0  3  0  0  0  0  0  0
  187.3700  178.2840  139.0980 C   0  0  0  0  0  0  0  0  0  0  0  0
  188.9280  178.1890  136.8140 C   0  0  0  0  0  3  0  0  0  0  0  0
  184.4540  179.2940  139.2090 C   0  0  0  0  0  3  0  0  0  0  0  0
  188.6930  178.2100  141.5860 N   0  0  0  0  0  0  0  0  0  0  0  0
  186.9740  178.2170  135.6020 O   0  0  0  0  0  0  0  0  0  0  0  0
  185.1280  178.3170  142.6510 C   0  0  0  0  0  3  0  0  0  0  0  0
  180.9810  179.4750  140.5590 N   0  0  0  0  0  1  0  0  0  0  0  0
  189.4250  178.2010  140.3560 C   0  0  0  0  0  3  0  0  0  0  0  0
  187.2600  178.2630  141.5370 C   0  0  0  0  0  0  0  0  0  0  0  0
  186.7960  178.2700  137.8610 N   0  0  0  0  0  2  0  0  0  0  0  0
  182.3760  179.2050  140.5140 C   0  0  0  0  0  0  0  0  0  0  0  0
  188.7880  178.2300  139.1800 C   0  0  0  0  0  0  0  0  0  0  0  0
  189.5200  178.1910  138.0340 N   0  0  0  0  0  0  0  0  0  0  0  0
  186.5590  178.2290  142.6350 N   0  0  0  0  0  0  0  0  0  0  0  0
  184.4240  178.3930  141.5220 C   0  0  0  0  0  0  0  0  0  0  0  0
  182.9770  178.6430  141.5700 C   0  0  0  0  0  3  0  0  0  0  0  0
  189.4220  178.2250  142.8480 C   0  0  0  0  0  2  0  0  0  0  0  0
  190.1230  175.8520  142.8030 C   0  0  0  0  0  1  0  0  0  0  0  0
  189.2980  176.8810  143.5470 C   0  0  1  0  0  3  0  0  0  0  0  0
  189.7700  176.9920  144.9210 N   0  0  0  0  0  2  0  0  0  0  0  0
  186.7880  178.1110  146.8910 C   0  0  0  0  0  0  0  0  0  0  0  0
  188.6760  177.8370  148.3810 C   0  0  0  0  0  3  0  0  0  0  0  0
  185.3620  178.4650  146.6720 C   0  0  0  0  0  1  0  0  0  0  0  0
  187.5850  177.7210  145.8100 C   0  0  0  0  0  3  0  0  0  0  0  0
  189.4730  177.4470  147.3000 C   0  0  0  0  0  3  0  0  0  0  0  0
  188.9320  177.3850  146.0120 C   0  0  0  0  0  0  0  0  0  0  0  0
  187.3340  178.1680  148.1760 C   0  0  0  0  0  3  0  0  0  0  0  0
  1  6  1  0  0  0  0
  1 14  1  0  0  0  0
  2 13  1  0  0  0  0
  3  7  1  6  0  0  0
  3  2  1  0  0  0  0
  3 19  1  0  0  0  0
  4 15  1  0  0  0  0
  5 16  1  0  0  0  0
  5  2  2  0  0  0  0
  6 17  2  0  0  0  0
  7  4  2  0  0  0  0
  8 21  1  0  0  0  0
  9  1  2  0  0  0  0
 12  8  1  0  0  0  0
 13  8  1  0  0  0  0
 13 18  2  0  0  0  0
 14  5  1  0  0  0  0
 15 11  1  0  0  0  0
 15 20  2  0  0  0  0
 16 12  2  0  0  0  0
 17 16  1  0  0  0  0
 18 10  1  0  0  0  0
 19 20  1  0  0  0  0
 19 10  2  0  0  0  0
 21 23  1  0  0  0  0
 23 22  1  6  0  0  0
 23 24  1  0  0  0  0
 24 30  1  0  0  0  0
 25 31  1  0  0  0  0
 27 25  1  0  0  0  0
 28 30  1  0  0  0  0
 28 25  2  0  0  0  0
 29 26  1  0  0  0  0
 30 29  2  0  0  0  0
 31 26  2  0  0  0  0
M  END
>  <MODEL>
3

>  <REMARK>
 VINA RESULT:      -9.4      1.944      4.826
  Name = 
  4 active torsions:
  status: ('A' for Active; 'I' for Inactive)
    1  A    between atoms: N_3  and  C_9
    2  A    between atoms: N_3  and  C_22
    3  A    between atoms: C_9  and  C_23
    4  A    between atoms: N_15  and  C_23
                            x       y       z     vdW  Elec       q    Type
                         _______ _______ _______ _____ _____    ______ ____

>  <TORSDO>
F 4

$$$$
=
 OpenBabel10262419233D

 31 35  0  0  1  0  0  0  0  0999 V2000
  182.9110  178.6510  143.1100 C   0  0  0  0  0  0  0  0  0  0  0  0
  186.4750  178.1090  143.3290 C   0  0  0  0  0  0  0  0  0  0  0  0
  186.6730  177.6950  144.7750 C   0  0  2  0  0  3  0  0  0  0  0  0
  186.4260  178.6050  147.0660 C   0  0  0  0  0  3  0  0  0  0  0  0
  185.2540  178.3830  142.8070 C   0  0  0  0  0  0  0  0  0  0  0  0
  182.7590  178.9600  141.7610 C   0  0  0  0  0  3  0  0  0  0  0  0
  186.0130  178.5960  145.7930 C   0  0  0  0  0  3  0  0  0  0  0  0
  187.4420  178.3530  141.0290 N   0  0  0  0  0  0  0  0  0  0  0  0
  181.9100  178.6330  143.8730 O   0  0  0  0  0  0  0  0  0  0  0  0
  189.0870  177.4210  144.2340 C   0  0  0  0  0  3  0  0  0  0  0  0
  187.9330  177.7240  148.8700 N   0  0  0  0  0  1  0  0  0  0  0  0
  186.1230  178.6770  140.5770 C   0  0  0  0  0  3  0  0  0  0  0  0
  187.6420  178.0450  142.4160 C   0  0  0  0  0  0  0  0  0  0  0  0
  184.1460  178.3700  143.5990 N   0  0  0  0  0  2  0  0  0  0  0  0
  187.6130  177.8260  147.4880 C   0  0  0  0  0  0  0  0  0  0  0  0
  185.0900  178.6830  141.4270 C   0  0  0  0  0  0  0  0  0  0  0  0
  183.8480  178.9680  140.9510 N   0  0  0  0  0  0  0  0  0  0  0  0
  188.8190  177.7030  142.8550 N   0  0  0  0  0  0  0  0  0  0  0  0
  188.1190  177.4490  145.1500 C   0  0  0  0  0  0  0  0  0  0  0  0
  188.4470  177.3140  146.5760 C   0  0  0  0  0  3  0  0  0  0  0  0
  188.5500  178.4040  140.0830 C   0  0  0  0  0  2  0  0  0  0  0  0
  188.7560  178.9370  137.6750 C   0  0  0  0  0  1  0  0  0  0  0  0
  188.0720  178.0400  138.6870 C   0  0  1  0  0  3  0  0  0  0  0  0
  188.3860  176.6460  138.4030 N   0  0  0  0  0  2  0  0  0  0  0  0
  191.9310  175.9350  137.4280 C   0  0  0  0  0  0  0  0  0  0  0  0
  190.4610  175.3340  135.6010 C   0  0  0  0  0  3  0  0  0  0  0  0
  193.2980  176.0440  137.9970 C   0  0  0  0  0  1  0  0  0  0  0  0
  190.8250  176.3360  138.1850 C   0  0  0  0  0  3  0  0  0  0  0  0
  189.3550  175.7340  136.3580 C   0  0  0  0  0  3  0  0  0  0  0  0
  189.5310  176.2350  137.6520 C   0  0  0  0  0  0  0  0  0  0  0  0
  191.7480  175.4340  136.1360 C   0  0  0  0  0  3  0  0  0  0  0  0
  1 14  1  0  0  0  0
  1  9  2  0  0  0  0
  2  3  1  0  0  0  0
  3 19  1  0  0  0  0
  3  7  1  1  0  0  0
  4 15  1  0  0  0  0
  5  2  2  0  0  0  0
  5 14  1  0  0  0  0
  6  1  1  0  0  0  0
  7  4  2  0  0  0  0
  8 13  1  0  0  0  0
 10 19  2  0  0  0  0
 12  8  1  0  0  0  0
 12 16  2  0  0  0  0
 13 18  2  0  0  0  0
 13  2  1  0  0  0  0
 15 11  1  0  0  0  0
 16  5  1  0  0  0  0
 17 16  1  0  0  0  0
 17  6  2  0  0  0  0
 18 10  1  0  0  0  0
 19 20  1  0  0  0  0
 20 15  2  0  0  0  0
 21  8  1  0  0  0  0
 23 22  1  6  0  0  0
 23 21  1  0  0  0  0
 24 23  1  0  0  0  0
 25 27  1  0  0  0  0
 25 28  1  0  0  0  0
 26 31  1  0  0  0  0
 26 29  2  0  0  0  0
 29 30  1  0  0  0  0
 30 28  2  0  0  0  0
 30 24  1  0  0  0  0
 31 25  2  0  0  0  0
M  END
>  <MODEL>
4

>  <REMARK>
 VINA RESULT:      -9.3      2.081      8.017
  Name = 
  4 active torsions:
  status: ('A' for Active; 'I' for Inactive)
    1  A    between atoms: N_3  and  C_9
    2  A    between atoms: N_3  and  C_22
    3  A    between atoms: C_9  and  C_23
    4  A    between atoms: N_15  and  C_23
                            x       y       z     vdW  Elec       q    Type
                         _______ _______ _______ _____ _____    ______ ____

>  <TORSDO>
F 4

$$$$
=
 OpenBabel10262419233D

 31 35  0  0  1  0  0  0  0  0999 V2000
  183.0570  178.6540  143.1020 C   0  0  0  0  0  0  0  0  0  0  0  0
  186.6130  178.0670  143.3250 C   0  0  0  0  0  0  0  0  0  0  0  0
  186.8080  177.6750  144.7770 C   0  0  2  0  0  3  0  0  0  0  0  0
  186.5790  178.6290  147.0520 C   0  0  0  0  0  3  0  0  0  0  0  0
  185.3950  178.3490  142.8000 C   0  0  0  0  0  0  0  0  0  0  0  0
  182.9060  178.9410  141.7480 C   0  0  0  0  0  3  0  0  0  0  0  0
  186.1630  178.6030  145.7800 C   0  0  0  0  0  3  0  0  0  0  0  0
  187.5790  178.2570  141.0180 N   0  0  0  0  0  0  0  0  0  0  0  0
  182.0570  178.6630  143.8670 O   0  0  0  0  0  0  0  0  0  0  0  0
  189.2170  177.3590  144.2370 C   0  0  0  0  0  3  0  0  0  0  0  0
  188.0770  177.7590  148.8690 N   0  0  0  0  0  1  0  0  0  0  0  0
  186.2630  178.5910  140.5630 C   0  0  0  0  0  3  0  0  0  0  0  0
  187.7770  177.9710  142.4100 C   0  0  0  0  0  0  0  0  0  0  0  0
  184.2880  178.3650  143.5940 N   0  0  0  0  0  2  0  0  0  0  0  0
  187.7560  177.8420  147.4860 C   0  0  0  0  0  0  0  0  0  0  0  0
  185.2320  178.6260  141.4150 C   0  0  0  0  0  0  0  0  0  0  0  0
  183.9930  178.9200  140.9370 N   0  0  0  0  0  0  0  0  0  0  0  0
  188.9500  177.6200  142.8530 N   0  0  0  0  0  0  0  0  0  0  0  0
  188.2510  177.4160  145.1530 C   0  0  0  0  0  0  0  0  0  0  0  0
  188.5810  177.3020  146.5810 C   0  0  0  0  0  3  0  0  0  0  0  0
  188.6860  178.2760  140.0700 C   0  0  0  0  0  2  0  0  0  0  0  0
  189.0550  179.0050  137.7340 C   0  0  0  0  0  1  0  0  0  0  0  0
  188.1630  178.1870  138.6450 C   0  0  1  0  0  3  0  0  0  0  0  0
  188.1520  176.7970  138.2070 N   0  0  0  0  0  2  0  0  0  0  0  0
  184.9450  176.3770  136.3190 C   0  0  0  0  0  0  0  0  0  0  0  0
  186.3020  174.3910  136.0470 C   0  0  0  0  0  3  0  0  0  0  0  0
  183.6960  177.1300  136.0410 C   0  0  0  0  0  1  0  0  0  0  0  0
  185.9410  176.9470  137.1190 C   0  0  0  0  0  3  0  0  0  0  0  0
  187.2980  174.9610  136.8470 C   0  0  0  0  0  3  0  0  0  0  0  0
  187.1230  176.2400  137.3850 C   0  0  0  0  0  0  0  0  0  0  0  0
  185.1260  175.1000  135.7830 C   0  0  0  0  0  3  0  0  0  0  0  0
  1 14  1  0  0  0  0
  1  9  2  0  0  0  0
  2  3  1  0  0  0  0
  3 19  1  0  0  0  0
  3  7  1  1  0  0  0
  4 15  1  0  0  0  0
  5  2  2  0  0  0  0
  5 14  1  0  0  0  0
  6  1  1  0  0  0  0
  7  4  2  0  0  0  0
  8 13  1  0  0  0  0
 10 19  2  0  0  0  0
 12  8  1  0  0  0  0
 12 16  2  0  0  0  0
 13 18  2  0  0  0  0
 13  2  1  0  0  0  0
 15 11  1  0  0  0  0
 16  5  1  0  0  0  0
 17 16  1  0  0  0  0
 17  6  2  0  0  0  0
 18 10  1  0  0  0  0
 19 20  1  0  0  0  0
 20 15  2  0  0  0  0
 21  8  1  0  0  0  0
 23 22  1  6  0  0  0
 23 21  1  0  0  0  0
 24 23  1  0  0  0  0
 25 28  1  0  0  0  0
 26 29  2  0  0  0  0
 27 25  1  0  0  0  0
 28 30  2  0  0  0  0
 29 30  1  0  0  0  0
 30 24  1  0  0  0  0
 31 26  1  0  0  0  0
 31 25  2  0  0  0  0
M  END
>  <MODEL>
5

>  <REMARK>
 VINA RESULT:      -9.2      2.485      7.984
  Name = 
  4 active torsions:
  status: ('A' for Active; 'I' for Inactive)
    1  A    between atoms: N_3  and  C_9
    2  A    between atoms: N_3  and  C_22
    3  A    between atoms: C_9  and  C_23
    4  A    between atoms: N_15  and  C_23
                            x       y       z     vdW  Elec       q    Type
                         _______ _______ _______ _____ _____    ______ ____

>  <TORSDO>
F 4

$$$$
=
 OpenBabel10262419233D

 31 35  0  0  1  0  0  0  0  0999 V2000
  182.4680  178.8140  143.9740 C   0  0  0  0  0  0  0  0  0  0  0  0
  184.4710  178.5140  140.9840 C   0  0  0  0  0  0  0  0  0  0  0  0
  183.4350  178.4880  139.8760 C   0  0  0  0  0  0  0  0  0  0  0  0
  181.5640  177.0890  139.0530 C   0  0  0  0  0  3  0  0  0  0  0  0
  184.1400  178.6490  142.2920 C   0  0  0  0  0  0  0  0  0  0  0  0
  183.4490  178.9040  144.9580 C   0  0  0  0  0  3  0  0  0  0  0  0
  182.2990  177.5150  140.0870 C   0  0  0  0  0  3  0  0  0  0  0  0
  186.8840  178.6750  141.6450 N   0  0  0  0  0  0  0  0  0  0  0  0
  181.2500  178.8450  144.2890 O   0  0  0  0  0  0  0  0  0  0  0  0
  185.3370  178.3750  138.2740 C   0  0  0  0  0  3  0  0  0  0  0  0
  181.0260  177.1340  136.6010 N   0  0  0  0  0  1  0  0  0  0  0  0
  186.4410  178.7660  143.0030 C   0  0  0  0  0  3  0  0  0  0  0  0
  185.9040  178.5640  140.6040 C   0  0  0  0  0  0  0  0  0  0  0  0
  182.8320  178.6910  142.6730 N   0  0  0  0  0  2  0  0  0  0  0  0
  181.9130  177.4620  137.6630 C   0  0  0  0  0  0  0  0  0  0  0  0
  185.1370  178.7590  143.3000 C   0  0  0  0  0  0  0  0  0  0  0  0
  184.7570  178.8760  144.6010 N   0  0  0  0  0  0  0  0  0  0  0  0
  186.2670  178.5240  139.3540 N   0  0  0  0  0  0  0  0  0  0  0  0
  184.0230  178.3170  138.4920 C   0  0  0  0  0  0  0  0  0  0  0  0
  183.1050  178.0050  137.3870 C   0  0  0  0  0  2  0  0  0  0  0  0
  188.3140  178.6380  141.3640 C   0  0  0  0  0  2  0  0  0  0  0  0
  189.8890  176.7290  141.4070 C   0  0  0  0  0  1  0  0  0  0  0  0
  189.0020  177.6170  142.2550 C   0  0  1  0  0  3  0  0  0  0  0  0
  189.8050  178.2990  143.2620 N   0  0  0  0  0  2  0  0  0  0  0  0
  189.3480  177.2710  146.8340 C   0  0  0  0  0  0  0  0  0  0  0  0
  191.5830  176.6850  146.1100 C   0  0  0  0  0  3  0  0  0  0  0  0
  188.3060  177.3070  147.8910 C   0  0  0  0  0  1  0  0  0  0  0  0
  189.0760  177.7940  145.5660 C   0  0  0  0  0  3  0  0  0  0  0  0
  191.3110  177.2080  144.8420 C   0  0  0  0  0  3  0  0  0  0  0  0
  190.0570  177.7630  144.5630 C   0  0  0  0  0  0  0  0  0  0  0  0
  190.6020  176.7170  147.1050 C   0  0  0  0  0  3  0  0  0  0  0  0
  1  9  2  0  0  0  0
  1  6  1  0  0  0  0
  2  5  2  0  0  0  0
  3  7  2  0  0  0  0
  3  2  1  0  0  0  0
  4  7  1  0  0  0  0
  5 14  1  0  0  0  0
  5 16  1  0  0  0  0
  8 12  1  0  0  0  0
 10 19  2  0  0  0  0
 10 18  1  0  0  0  0
 11 15  1  0  0  0  0
 12 16  2  0  0  0  0
 13  2  1  0  0  0  0
 13  8  1  0  0  0  0
 14  1  1  0  0  0  0
 15  4  2  0  0  0  0
 16 17  1  0  0  0  0
 17  6  2  0  0  0  0
 18 13  2  0  0  0  0
 19  3  1  0  0  0  0
 20 15  1  0  0  0  0
 20 19  1  0  0  0  0
 21  8  1  0  0  0  0
 21 23  1  0  0  0  0
 23 22  1  6  0  0  0
 23 24  1  0  0  0  0
 24 30  1  0  0  0  0
 25 31  1  0  0  0  0
 25 27  1  0  0  0  0
 26 31  2  0  0  0  0
 28 25  2  0  0  0  0
 29 26  1  0  0  0  0
 30 29  2  0  0  0  0
 30 28  1  0  0  0  0
M  END
>  <MODEL>
6

>  <REMARK>
 VINA RESULT:      -9.2      2.986      5.219
  Name = 
  4 active torsions:
  status: ('A' for Active; 'I' for Inactive)
    1  A    between atoms: N_3  and  C_9
    2  A    between atoms: N_3  and  C_22
    3  A    between atoms: C_9  and  C_23
    4  A    between atoms: N_15  and  C_23
                            x       y       z     vdW  Elec       q    Type
                         _______ _______ _______ _____ _____    ______ ____

>  <TORSDO>
F 4

$$$$
=
 OpenBabel10262419233D

 31 35  0  0  1  0  0  0  0  0999 V2000
  187.2390  178.5030  139.0110 C   0  0  0  0  0  0  0  0  0  0  0  0
  184.3960  178.7280  141.2270 C   0  0  0  0  0  0  0  0  0  0  0  0
  183.2230  178.8440  140.2720 C   0  0  0  0  0  0  0  0  0  0  0  0
  182.3130  180.3800  138.5550 C   0  0  0  0  0  3  0  0  0  0  0  0
  185.6760  178.5890  140.8010 C   0  0  0  0  0  0  0  0  0  0  0  0
  188.2840  178.3280  139.9160 C   0  0  0  0  0  3  0  0  0  0  0  0
  183.3820  179.8860  139.1900 C   0  0  0  0  0  3  0  0  0  0  0  0
  185.2110  178.3930  143.5740 N   0  0  0  0  0  0  0  0  0  0  0  0
  187.4730  178.5470  137.7760 O   0  0  0  0  0  0  0  0  0  0  0  0
  181.7530  178.8610  142.2800 C   0  0  0  0  0  3  0  0  0  0  0  0
  179.8300  180.4190  138.1820 N   0  0  0  0  0  1  0  0  0  0  0  0
  186.5340  178.3060  143.0360 C   0  0  0  0  0  3  0  0  0  0  0  0
  184.1100  178.5900  142.6750 C   0  0  0  0  0  0  0  0  0  0  0  0
  185.9680  178.6270  139.4700 N   0  0  0  0  0  2  0  0  0  0  0  0
  180.9400  180.0110  138.9720 C   0  0  0  0  0  0  0  0  0  0  0  0
  186.7440  178.3940  141.7180 C   0  0  0  0  0  0  0  0  0  0  0  0
  188.0140  178.2770  141.2450 N   0  0  0  0  0  0  0  0  0  0  0  0
  182.8880  178.6300  143.1240 N   0  0  0  0  0  0  0  0  0  0  0  0
  181.8850  179.0020  140.9620 C   0  0  0  0  0  0  0  0  0  0  0  0
  180.7300  179.3960  140.1420 C   0  0  0  0  0  2  0  0  0  0  0  0
  185.0250  178.3410  145.0190 C   0  0  0  0  0  2  0  0  0  0  0  0
  186.0550  179.3640  147.0240 C   0  0  0  0  0  1  0  0  0  0  0  0
  186.3380  178.6260  145.7310 C   0  0  1  0  0  3  0  0  0  0  0  0
  187.0280  177.3750  146.0180 N   0  0  0  0  0  2  0  0  0  0  0  0
  190.6340  177.3640  145.0090 C   0  0  0  0  0  0  0  0  0  0  0  0
  190.4530  176.7520  147.3440 C   0  0  0  0  0  3  0  0  0  0  0  0
  191.4670  177.6190  143.8060 C   0  0  0  0  0  1  0  0  0  0  0  0
  189.2440  177.4950  144.9360 C   0  0  0  0  0  3  0  0  0  0  0  0
  189.0630  176.8830  147.2720 C   0  0  0  0  0  3  0  0  0  0  0  0
  188.4520  177.2560  146.0700 C   0  0  0  0  0  0  0  0  0  0  0  0
  191.2390  176.9930  146.2130 C   0  0  0  0  0  3  0  0  0  0  0  0
  1 14  1  0  0  0  0
  1  6  1  0  0  0  0
  2 13  1  0  0  0  0
  3 19  1  0  0  0  0
  3  2  1  0  0  0  0
  4 15  2  0  0  0  0
  4  7  1  0  0  0  0
  5  2  2  0  0  0  0
  5 16  1  0  0  0  0
  6 17  2  0  0  0  0
  7  3  2  0  0  0  0
  8 21  1  0  0  0  0
  9  1  2  0  0  0  0
 10 18  1  0  0  0  0
 11 15  1  0  0  0  0
 12  8  1  0  0  0  0
 13 18  2  0  0  0  0
 13  8  1  0  0  0  0
 14  5  1  0  0  0  0
 15 20  1  0  0  0  0
 16 12  2  0  0  0  0
 17 16  1  0  0  0  0
 19 10  2  0  0  0  0
 20 19  1  0  0  0  0
 21 23  1  0  0  0  0
 23 24  1  0  0  0  0
 23 22  1  1  0  0  0
 24 30  1  0  0  0  0
 25 31  1  0  0  0  0
 27 25  1  0  0  0  0
 28 25  2  0  0  0  0
 28 30  1  0  0  0  0
 29 26  1  0  0  0  0
 30 29  2  0  0  0  0
 31 26  2  0  0  0  0
M  END
>  <MODEL>
7

>  <REMARK>
 VINA RESULT:      -9.1      2.792      6.224
  Name = 
  4 active torsions:
  status: ('A' for Active; 'I' for Inactive)
    1  A    between atoms: N_3  and  C_9
    2  A    between atoms: N_3  and  C_22
    3  A    between atoms: C_9  and  C_23
    4  A    between atoms: N_15  and  C_23
                            x       y       z     vdW  Elec       q    Type
                         _______ _______ _______ _____ _____    ______ ____

>  <TORSDO>
F 4

$$$$
=
 OpenBabel10262419233D

 31 35  0  0  1  0  0  0  0  0999 V2000
  185.0530  178.3610  144.6100 C   0  0  0  0  0  0  0  0  0  0  0  0
  188.2180  177.6700  143.0130 C   0  0  0  0  0  0  0  0  0  0  0  0
  189.0340  177.0380  144.1250 C   0  0  2  0  0  3  0  0  0  0  0  0
  189.9980  177.6060  146.3350 C   0  0  0  0  0  3  0  0  0  0  0  0
  186.9310  178.0610  143.1820 C   0  0  0  0  0  0  0  0  0  0  0  0
  184.3110  178.8730  143.5470 C   0  0  0  0  0  3  0  0  0  0  0  0
  189.0320  177.8000  145.4300 C   0  0  0  0  0  3  0  0  0  0  0  0
  187.9970  178.2200  140.5770 N   0  0  0  0  0  0  0  0  0  0  0  0
  184.5370  178.2640  145.7530 O   0  0  0  0  0  0  0  0  0  0  0  0
  190.8610  176.7650  142.4560 C   0  0  0  0  0  3  0  0  0  0  0  0
  192.0810  176.4140  147.0720 N   0  0  0  0  0  1  0  0  0  0  0  0
  186.6620  178.6530  140.8600 C   0  0  0  0  0  3  0  0  0  0  0  0
  188.7980  177.7020  141.6490 C   0  0  0  0  0  0  0  0  0  0  0  0
  186.3350  177.9680  144.4040 N   0  0  0  0  0  2  0  0  0  0  0  0
  191.1570  176.7320  146.0390 C   0  0  0  0  0  0  0  0  0  0  0  0
  186.1620  178.5680  142.0980 C   0  0  0  0  0  0  0  0  0  0  0  0
  184.8800  178.9640  142.3190 N   0  0  0  0  0  0  0  0  0  0  0  0
  190.0010  177.2580  141.4210 N   0  0  0  0  0  0  0  0  0  0  0  0
  190.4510  176.6890  143.7220 C   0  0  0  0  0  0  0  0  0  0  0  0
  191.4010  176.3330  144.7850 C   0  0  0  0  0  3  0  0  0  0  0  0
  188.5230  178.3720  139.2260 C   0  0  0  0  0  2  0  0  0  0  0  0
  187.5370  178.4900  136.9580 C   0  0  0  0  0  1  0  0  0  0  0  0
  187.6240  177.6630  138.2250 C   0  0  1  0  0  3  0  0  0  0  0  0
  188.1660  176.3460  137.9190 N   0  0  0  0  0  2  0  0  0  0  0  0
  191.8280  176.2050  137.1460 C   0  0  0  0  0  0  0  0  0  0  0  0
  190.5700  175.5030  135.2000 C   0  0  0  0  0  3  0  0  0  0  0  0
  193.1300  176.4750  137.8080 C   0  0  0  0  0  1  0  0  0  0  0  0
  190.6340  176.4000  137.8470 C   0  0  0  0  0  3  0  0  0  0  0  0
  189.3760  175.6990  135.9010 C   0  0  0  0  0  3  0  0  0  0  0  0
  189.4010  176.1460  137.2260 C   0  0  0  0  0  0  0  0  0  0  0  0
  191.7960  175.7560  135.8230 C   0  0  0  0  0  3  0  0  0  0  0  0
  1  9  2  0  0  0  0
  2  5  2  0  0  0  0
  2  3  1  0  0  0  0
  3  7  1  1  0  0  0
  5 14  1  0  0  0  0
  6  1  1  0  0  0  0
  7  4  2  0  0  0  0
  8 12  1  0  0  0  0
  8 13  1  0  0  0  0
 10 19  2  0  0  0  0
 12 16  2  0  0  0  0
 13  2  1  0  0  0  0
 14  1  1  0  0  0  0
 15  4  1  0  0  0  0
 15 11  1  0  0  0  0
 16 17  1  0  0  0  0
 16  5  1  0  0  0  0
 17  6  2  0  0  0  0
 18 13  2  0  0  0  0
 18 10  1  0  0  0  0
 19  3  1  0  0  0  0
 19 20  1  0  0  0  0
 20 15  2  0  0  0  0
 21  8  1  0  0  0  0
 23 22  1  6  0  0  0
 23 21  1  0  0  0  0
 24 23  1  0  0  0  0
 25 27  1  0  0  0  0
 25 28  1  0  0  0  0
 26 31  1  0  0  0  0
 26 29  2  0  0  0  0
 29 30  1  0  0  0  0
 30 28  2  0  0  0  0
 30 24  1  0  0  0  0
 31 25  2  0  0  0  0
M  END
>  <MODEL>
8

>  <REMARK>
 VINA RESULT:      -9.1      2.046      7.621
  Name = 
  4 active torsions:
  status: ('A' for Active; 'I' for Inactive)
    1  A    between atoms: N_3  and  C_9
    2  A    between atoms: N_3  and  C_22
    3  A    between atoms: C_9  and  C_23
    4  A    between atoms: N_15  and  C_23
                            x       y       z     vdW  Elec       q    Type
                         _______ _______ _______ _____ _____    ______ ____

>  <TORSDO>
F 4

$$$$
=
 OpenBabel10262419233D

 31 35  0  0  1  0  0  0  0  0999 V2000
  187.9160  178.3700  140.4500 C   0  0  0  0  0  0  0  0  0  0  0  0
  185.4380  178.5900  143.0680 C   0  0  0  0  0  0  0  0  0  0  0  0
  186.2740  178.6030  144.3340 C   0  0  2  0  0  3  0  0  0  0  0  0
  187.8320  177.1510  145.5990 C   0  0  0  0  0  3  0  0  0  0  0  0
  185.9860  178.5450  141.8290 C   0  0  0  0  0  0  0  0  0  0  0  0
  187.1200  178.4320  139.3080 C   0  0  0  0  0  3  0  0  0  0  0  0
  187.3210  177.5170  144.4170 C   0  0  0  0  0  3  0  0  0  0  0  0
  183.1920  178.8830  141.9920 N   0  0  0  0  0  0  0  0  0  0  0  0
  189.1650  178.2600  140.3460 O   0  0  0  0  0  0  0  0  0  0  0  0
  184.1380  178.8400  145.5910 C   0  0  0  0  0  3  0  0  0  0  0  0
  187.9700  177.4310  148.0900 N   0  0  0  0  0  1  0  0  0  0  0  0
  183.8550  178.7780  140.7270 C   0  0  0  0  0  3  0  0  0  0  0  0
  183.9760  178.8080  143.1910 C   0  0  0  0  0  0  0  0  0  0  0  0
  187.3360  178.4300  141.6750 N   0  0  0  0  0  2  0  0  0  0  0  0
  187.3050  177.7110  146.8650 C   0  0  0  0  0  0  0  0  0  0  0  0
  185.1820  178.6240  140.6600 C   0  0  0  0  0  0  0  0  0  0  0  0
  185.7750  178.5570  139.4380 N   0  0  0  0  0  0  0  0  0  0  0  0
  183.4140  178.9430  144.3580 N   0  0  0  0  0  0  0  0  0  0  0  0
  185.4560  178.6440  145.6070 C   0  0  0  0  0  0  0  0  0  0  0  0
  186.1470  178.3820  146.8780 C   0  0  0  0  0  3  0  0  0  0  0  0
  181.7400  179.0020  142.0260 C   0  0  0  0  0  2  0  0  0  0  0  0
  180.1980  177.6150  140.6750 C   0  0  0  0  0  1  0  0  0  0  0  0
  181.1580  178.7860  140.6380 C   0  0  1  0  0  3  0  0  0  0  0  0
  180.4550  179.9870  140.2040 N   0  0  0  0  0  2  0  0  0  0  0  0
  180.8080  182.4420  137.3990 C   0  0  0  0  0  0  0  0  0  0  0  0
  180.6870  180.2010  136.4920 C   0  0  0  0  0  3  0  0  0  0  0  0
  180.9310  183.9080  137.1950 C   0  0  0  0  0  1  0  0  0  0  0  0
  180.6960  181.9240  138.6930 C   0  0  0  0  0  3  0  0  0  0  0  0
  180.5750  179.6830  137.7860 C   0  0  0  0  0  3  0  0  0  0  0  0
  180.5800  180.5400  138.8920 C   0  0  0  0  0  0  0  0  0  0  0  0
  180.8040  181.5810  136.2990 C   0  0  0  0  0  3  0  0  0  0  0  0
  1 14  1  0  0  0  0
  2 13  1  0  0  0  0
  2  3  1  0  0  0  0
  3  7  1  1  0  0  0
  3 19  1  0  0  0  0
  4 15  1  0  0  0  0
  5  2  2  0  0  0  0
  6 17  2  0  0  0  0
  6  1  1  0  0  0  0
  7  4  2  0  0  0  0
  8 21  1  0  0  0  0
  8 13  1  0  0  0  0
  9  1  2  0  0  0  0
 10 19  2  0  0  0  0
 12  8  1  0  0  0  0
 13 18  2  0  0  0  0
 14  5  1  0  0  0  0
 15 20  2  0  0  0  0
 15 11  1  0  0  0  0
 16 12  2  0  0  0  0
 16  5  1  0  0  0  0
 17 16  1  0  0  0  0
 18 10  1  0  0  0  0
 19 20  1  0  0  0  0
 23 22  1  1  0  0  0
 23 21  1  0  0  0  0
 24 23  1  0  0  0  0
 25 28  1  0  0  0  0
 26 29  2  0  0  0  0
 27 25  1  0  0  0  0
 28 30  2  0  0  0  0
 29 30  1  0  0  0  0
 30 24  1  0  0  0  0
 31 26  1  0  0  0  0
 31 25  2  0  0  0  0
M  END
>  <MODEL>
9

>  <REMARK>
 VINA RESULT:      -8.9      3.936      9.394
  Name = 
  4 active torsions:
  status: ('A' for Active; 'I' for Inactive)
    1  A    between atoms: N_3  and  C_9
    2  A    between atoms: N_3  and  C_22
    3  A    between atoms: C_9  and  C_23
    4  A    between atoms: N_15  and  C_23
                            x       y       z     vdW  Elec       q    Type
                         _______ _______ _______ _____ _____    ______ ____

>  <TORSDO>
F 4

$$$$
