=
 OpenBabel10262420473D

 28 31  0  0  1  0  0  0  0  0999 V2000
  188.1910  177.9030  139.6520 C   0  0  1  0  0  3  0  0  0  0  0  0
  184.7940  178.9840  139.6030 C   0  0  0  0  0  3  0  0  0  0  0  0
  186.7860  178.2000  139.3860 N   0  0  0  0  0  0  0  0  0  0  0  0
  184.8410  178.3560  138.3670 C   0  0  0  0  0  3  0  0  0  0  0  0
  185.9950  178.8770  140.1980 N   0  0  0  0  0  0  0  0  0  0  0  0
  186.1330  177.8720  138.2600 C   0  0  0  0  0  3  0  0  0  0  0  0
  189.0350  179.7030  138.3200 O   0  0  0  0  0  0  0  0  0  0  0  0
  190.0110  177.6410  137.8900 N   0  0  0  0  0  2  0  0  0  0  0  0
  189.0770  178.4720  138.5840 C   0  0  0  0  0  0  0  0  0  0  0  0
  190.1630  176.2190  138.1600 C   0  0  2  0  0  3  0  0  0  0  0  0
  191.7600  173.9970  137.3420 C   0  0  0  0  0  2  0  0  0  0  0  0
  191.6360  175.9230  138.4780 C   0  0  0  0  0  2  0  0  0  0  0  0
  188.1550  175.2740  136.9740 C   0  0  0  0  0  1  0  0  0  0  0  0
  189.6660  175.3940  136.9620 C   0  0  2  0  0  3  0  0  0  0  0  0
  190.2840  173.9920  136.9160 C   0  0  0  0  0  2  0  0  0  0  0  0
  192.2770  175.3040  137.3920 O   0  0  0  0  0  0  0  0  0  0  0  0
  188.6120  178.4050  141.0330 C   0  0  0  0  0  2  0  0  0  0  0  0
  186.3390  177.6180  143.1530 C   0  0  0  0  0  3  0  0  0  0  0  0
  188.3720  177.8670  144.4300 C   0  0  0  0  0  0  0  0  0  0  0  0
  188.6390  177.3000  142.0970 C   0  0  2  0  0  3  0  0  0  0  0  0
  186.2420  178.1750  145.5160 C   0  0  0  0  0  0  0  0  0  0  0  0
  187.7350  177.6080  143.2350 C   0  0  0  0  0  0  0  0  0  0  0  0
  190.3650  175.6080  142.7040 C   0  0  0  0  0  1  0  0  0  0  0  0
  187.6410  178.1490  145.5860 C   0  0  0  0  0  3  0  0  0  0  0  0
  190.1430  177.7700  144.3760 S   0  0  0  0  0  0  0  0  0  0  0  0
  185.4440  178.4830  146.7320 C   0  0  0  0  0  1  0  0  0  0  0  0
  185.5920  177.9060  144.3020 C   0  0  0  0  0  3  0  0  0  0  0  0
  190.0460  177.0890  142.6720 C   0  0  2  0  0  3  0  0  0  0  0  0
  1 17  1  1  0  0  0
  2  5  2  0  0  0  0
  3  1  1  0  0  0  0
  3  5  1  0  0  0  0
  4  2  1  0  0  0  0
  6  4  2  0  0  0  0
  6  3  1  0  0  0  0
  7  9  2  0  0  0  0
  8  9  1  0  0  0  0
  9  1  1  0  0  0  0
 10  8  1  6  0  0  0
 10 12  1  0  0  0  0
 11 16  1  0  0  0  0
 14 13  1  1  0  0  0
 14 10  1  0  0  0  0
 15 14  1  0  0  0  0
 15 11  1  0  0  0  0
 16 12  1  0  0  0  0
 18 22  2  0  0  0  0
 18 27  1  0  0  0  0
 19 24  2  0  0  0  0
 20 17  1  6  0  0  0
 20 28  1  0  0  0  0
 20 22  1  0  0  0  0
 21 24  1  0  0  0  0
 21 26  1  0  0  0  0
 22 19  1  0  0  0  0
 25 19  1  0  0  0  0
 27 21  2  0  0  0  0
 28 23  1  1  0  0  0
 28 25  1  0  0  0  0
M  END
>  <MODEL>
1

>  <REMARK>
 VINA RESULT:      -8.0      0.000      0.000
  Name = 
  5 active torsions:
  status: ('A' for Active; 'I' for Inactive)
    1  A    between atoms: N_2  and  C_3
    2  A    between atoms: C_10  and  C_17
    3  A    between atoms: N_16  and  C_27
    4  A    between atoms: C_17  and  C_27
    5  A    between atoms: C_26  and  C_27
                            x       y       z     vdW  Elec       q    Type
                         _______ _______ _______ _____ _____    ______ ____

>  <TORSDO>
F 5

$$$$
=
 OpenBabel10262420473D

 28 31  0  0  1  0  0  0  0  0999 V2000
  185.9590  178.3850  140.9980 C   0  0  1  0  0  3  0  0  0  0  0  0
  183.0130  178.4690  143.0050 C   0  0  0  0  0  3  0  0  0  0  0  0
  184.8830  178.6360  141.9530 N   0  0  0  0  0  0  0  0  0  0  0  0
  183.7580  179.4320  143.6690 C   0  0  0  0  0  3  0  0  0  0  0  0
  183.7270  177.9990  141.9670 N   0  0  0  0  0  0  0  0  0  0  0  0
  184.9500  179.5070  142.9720 C   0  0  0  0  0  3  0  0  0  0  0  0
  184.7880  179.9300  139.5960 O   0  0  0  0  0  0  0  0  0  0  0  0
  186.4390  178.7060  138.5180 N   0  0  0  0  0  2  0  0  0  0  0  0
  185.6760  179.0410  139.6790 C   0  0  0  0  0  0  0  0  0  0  0  0
  187.5160  177.7250  138.5300 C   0  0  2  0  0  3  0  0  0  0  0  0
  189.9170  177.0990  137.1170 C   0  0  0  0  0  2  0  0  0  0  0  0
  188.8640  178.4610  138.5490 C   0  0  0  0  0  2  0  0  0  0  0  0
  186.3610  175.7130  137.5580 C   0  0  0  0  0  1  0  0  0  0  0  0
  187.3980  176.7910  137.3150 C   0  0  2  0  0  3  0  0  0  0  0  0
  188.7330  176.1350  136.9460 C   0  0  0  0  0  2  0  0  0  0  0  0
  189.4810  178.4250  137.2880 O   0  0  0  0  0  0  0  0  0  0  0  0
  187.3100  178.8370  141.5520 C   0  0  0  0  0  2  0  0  0  0  0  0
  186.8130  177.2530  144.2960 C   0  0  0  0  0  3  0  0  0  0  0  0
  189.1250  177.9430  144.3440 C   0  0  0  0  0  0  0  0  0  0  0  0
  188.1310  177.6910  142.1560 C   0  0  2  0  0  3  0  0  0  0  0  0
  187.9620  177.5410  146.4170 C   0  0  0  0  0  0  0  0  0  0  0  0
  187.9860  177.6270  143.6340 C   0  0  0  0  0  0  0  0  0  0  0  0
  190.1720  176.5000  141.3640 C   0  0  0  0  0  1  0  0  0  0  0  0
  189.1340  177.9010  145.7390 C   0  0  0  0  0  3  0  0  0  0  0  0
  190.5410  178.3510  143.3550 S   0  0  0  0  0  0  0  0  0  0  0  0
  187.9470  177.5000  147.9030 C   0  0  0  0  0  1  0  0  0  0  0  0
  186.8040  177.2140  145.6960 C   0  0  0  0  0  3  0  0  0  0  0  0
  189.6280  177.8300  141.8470 C   0  0  2  0  0  3  0  0  0  0  0  0
  1 17  1  1  0  0  0
  1  3  1  0  0  0  0
  2  4  1  0  0  0  0
  3  5  1  0  0  0  0
  3  6  1  0  0  0  0
  5  2  2  0  0  0  0
  6  4  2  0  0  0  0
  7  9  2  0  0  0  0
  8  9  1  0  0  0  0
  9  1  1  0  0  0  0
 10  8  1  6  0  0  0
 10 12  1  0  0  0  0
 11 16  1  0  0  0  0
 14 13  1  1  0  0  0
 14 10  1  0  0  0  0
 15 11  1  0  0  0  0
 15 14  1  0  0  0  0
 16 12  1  0  0  0  0
 18 27  1  0  0  0  0
 19 24  2  0  0  0  0
 20 17  1  1  0  0  0
 20 22  1  0  0  0  0
 21 26  1  0  0  0  0
 22 18  2  0  0  0  0
 22 19  1  0  0  0  0
 24 21  1  0  0  0  0
 25 19  1  0  0  0  0
 27 21  2  0  0  0  0
 28 23  1  1  0  0  0
 28 20  1  0  0  0  0
 28 25  1  0  0  0  0
M  END
>  <MODEL>
2

>  <REMARK>
 VINA RESULT:      -7.5      1.856      2.970
  Name = 
  5 active torsions:
  status: ('A' for Active; 'I' for Inactive)
    1  A    between atoms: N_2  and  C_3
    2  A    between atoms: C_10  and  C_17
    3  A    between atoms: N_16  and  C_27
    4  A    between atoms: C_17  and  C_27
    5  A    between atoms: C_26  and  C_27
                            x       y       z     vdW  Elec       q    Type
                         _______ _______ _______ _____ _____    ______ ____

>  <TORSDO>
F 5

$$$$
=
 OpenBabel10262420473D

 28 31  0  0  1  0  0  0  0  0999 V2000
  189.4550  177.9390  143.3040 C   0  0  1  0  0  3  0  0  0  0  0  0
  190.8740  177.1280  140.1360 C   0  0  0  0  0  3  0  0  0  0  0  0
  189.7680  177.6360  141.9100 N   0  0  0  0  0  0  0  0  0  0  0  0
  189.5380  177.1770  139.7700 C   0  0  0  0  0  3  0  0  0  0  0  0
  190.9830  177.4070  141.4470 N   0  0  0  0  0  0  0  0  0  0  0  0
  188.8600  177.4990  140.9320 C   0  0  0  0  0  3  0  0  0  0  0  0
  190.7930  179.9160  143.4630 O   0  0  0  0  0  0  0  0  0  0  0  0
  191.2290  178.3210  145.0920 N   0  0  0  0  0  2  0  0  0  0  0  0
  190.5290  178.7770  143.9310 C   0  0  0  0  0  0  0  0  0  0  0  0
  190.9590  177.0400  145.7300 C   0  0  2  0  0  3  0  0  0  0  0  0
  191.9600  175.3940  147.8370 C   0  0  0  0  0  2  0  0  0  0  0  0
  190.8520  177.2490  147.2480 C   0  0  0  0  0  2  0  0  0  0  0  0
  191.8230  175.4340  143.9980 C   0  0  0  0  0  1  0  0  0  0  0  0
  192.0570  176.0260  145.3730 C   0  0  2  0  0  3  0  0  0  0  0  0
  192.1670  174.8940  146.4000 C   0  0  0  0  0  2  0  0  0  0  0  0
  192.0080  176.7980  147.9050 O   0  0  0  0  0  0  0  0  0  0  0  0
  188.0910  178.6180  143.4310 C   0  0  0  0  0  2  0  0  0  0  0  0
  185.0610  177.8630  142.7010 C   0  0  0  0  0  3  0  0  0  0  0  0
  184.9880  178.8030  144.9230 C   0  0  0  0  0  0  0  0  0  0  0  0
  187.0840  177.8050  144.2540 C   0  0  2  0  0  3  0  0  0  0  0  0
  183.0230  178.8940  143.5290 C   0  0  0  0  0  0  0  0  0  0  0  0
  185.6810  178.1620  143.9180 C   0  0  0  0  0  0  0  0  0  0  0  0
  187.2590  176.6830  146.4720 C   0  0  0  0  0  1  0  0  0  0  0  0
  183.6530  179.1750  144.7480 C   0  0  0  0  0  3  0  0  0  0  0  0
  185.9030  179.0660  146.4200 S   0  0  0  0  0  0  0  0  0  0  0  0
  181.6060  179.2900  143.3180 C   0  0  0  0  0  1  0  0  0  0  0  0
  183.7250  178.2360  142.5080 C   0  0  0  0  0  3  0  0  0  0  0  0
  187.2650  178.0220  145.7620 C   0  0  2  0  0  3  0  0  0  0  0  0
  1 17  1  6  0  0  0
  1  9  1  0  0  0  0
  2  5  2  0  0  0  0
  3  1  1  0  0  0  0
  4  2  1  0  0  0  0
  4  6  2  0  0  0  0
  5  3  1  0  0  0  0
  6  3  1  0  0  0  0
  7  9  2  0  0  0  0
  9  8  1  0  0  0  0
 10  8  1  6  0  0  0
 10 12  1  0  0  0  0
 11 16  1  0  0  0  0
 12 16  1  0  0  0  0
 14 13  1  6  0  0  0
 14 10  1  0  0  0  0
 14 15  1  0  0  0  0
 15 11  1  0  0  0  0
 18 22  1  0  0  0  0
 19 25  1  0  0  0  0
 20 17  1  6  0  0  0
 20 28  1  0  0  0  0
 21 24  2  0  0  0  0
 22 20  1  0  0  0  0
 22 19  2  0  0  0  0
 24 19  1  0  0  0  0
 26 21  1  0  0  0  0
 27 18  2  0  0  0  0
 27 21  1  0  0  0  0
 28 25  1  0  0  0  0
 28 23  1  1  0  0  0
M  END
>  <MODEL>
3

>  <REMARK>
 VINA RESULT:      -7.4      3.732      6.027
  Name = 
  5 active torsions:
  status: ('A' for Active; 'I' for Inactive)
    1  A    between atoms: N_2  and  C_3
    2  A    between atoms: C_10  and  C_17
    3  A    between atoms: N_16  and  C_27
    4  A    between atoms: C_17  and  C_27
    5  A    between atoms: C_26  and  C_27
                            x       y       z     vdW  Elec       q    Type
                         _______ _______ _______ _____ _____    ______ ____

>  <TORSDO>
F 5

$$$$
=
 OpenBabel10262420473D

 28 31  0  0  1  0  0  0  0  0999 V2000
  187.5660  177.9840  138.7430 C   0  0  1  0  0  3  0  0  0  0  0  0
  184.2800  179.2420  139.3180 C   0  0  0  0  0  3  0  0  0  0  0  0
  186.3010  178.5050  139.2530 N   0  0  0  0  0  0  0  0  0  0  0  0
  184.7050  179.1330  140.6330 C   0  0  0  0  0  3  0  0  0  0  0  0
  185.2720  178.8480  138.5000 N   0  0  0  0  0  0  0  0  0  0  0  0
  186.0000  178.6520  140.5530 C   0  0  0  0  0  3  0  0  0  0  0  0
  188.3710  179.6600  137.2360 O   0  0  0  0  0  0  0  0  0  0  0  0
  187.6070  177.7230  136.2100 N   0  0  0  0  0  2  0  0  0  0  0  0
  187.8580  178.5170  137.3720 C   0  0  0  0  0  0  0  0  0  0  0  0
  187.0600  176.3740  136.2720 C   0  0  2  0  0  3  0  0  0  0  0  0
  187.1240  173.9200  134.8130 C   0  0  0  0  0  2  0  0  0  0  0  0
  188.2070  175.3610  136.1430 C   0  0  0  0  0  2  0  0  0  0  0  0
  184.6740  176.7780  135.5820 C   0  0  0  0  0  1  0  0  0  0  0  0
  186.0040  176.1780  135.1720 C   0  0  2  0  0  3  0  0  0  0  0  0
  185.8030  174.7030  134.8080 C   0  0  0  0  0  2  0  0  0  0  0  0
  188.2330  174.7840  134.8630 O   0  0  0  0  0  0  0  0  0  0  0  0
  188.7180  178.2880  139.7010 C   0  0  0  0  0  2  0  0  0  0  0  0
  189.0360  176.6820  142.4580 C   0  0  0  0  0  3  0  0  0  0  0  0
  191.2800  177.1840  141.7270 C   0  0  0  0  0  0  0  0  0  0  0  0
  189.5950  177.0660  139.9990 C   0  0  2  0  0  3  0  0  0  0  0  0
  190.8470  176.8250  144.0710 C   0  0  0  0  0  0  0  0  0  0  0  0
  189.9480  176.9780  141.4410 C   0  0  0  0  0  0  0  0  0  0  0  0
  191.1490  175.7370  138.5730 C   0  0  0  0  0  1  0  0  0  0  0  0
  191.7510  177.1080  143.0390 C   0  0  0  0  0  3  0  0  0  0  0  0
  192.3130  177.5030  140.3200 S   0  0  0  0  0  0  0  0  0  0  0  0
  191.3250  176.7490  145.4760 C   0  0  0  0  0  1  0  0  0  0  0  0
  189.4910  176.6080  143.7810 C   0  0  0  0  0  3  0  0  0  0  0  0
  190.9090  177.0940  139.2060 C   0  0  2  0  0  3  0  0  0  0  0  0
  1  3  1  0  0  0  0
  1 17  1  1  0  0  0
  2  4  1  0  0  0  0
  3  6  1  0  0  0  0
  5  3  1  0  0  0  0
  5  2  2  0  0  0  0
  6  4  2  0  0  0  0
  7  9  2  0  0  0  0
  8  9  1  0  0  0  0
  9  1  1  0  0  0  0
 10  8  1  6  0  0  0
 11 16  1  0  0  0  0
 12 10  1  0  0  0  0
 14 13  1  1  0  0  0
 14 10  1  0  0  0  0
 15 11  1  0  0  0  0
 15 14  1  0  0  0  0
 16 12  1  0  0  0  0
 18 27  1  0  0  0  0
 19 24  2  0  0  0  0
 20 17  1  1  0  0  0
 20 22  1  0  0  0  0
 21 26  1  0  0  0  0
 22 19  1  0  0  0  0
 22 18  2  0  0  0  0
 24 21  1  0  0  0  0
 25 19  1  0  0  0  0
 27 21  2  0  0  0  0
 28 23  1  1  0  0  0
 28 20  1  0  0  0  0
 28 25  1  0  0  0  0
M  END
>  <MODEL>
4

>  <REMARK>
 VINA RESULT:      -6.8      2.454      3.628
  Name = 
  5 active torsions:
  status: ('A' for Active; 'I' for Inactive)
    1  A    between atoms: N_2  and  C_3
    2  A    between atoms: C_10  and  C_17
    3  A    between atoms: N_16  and  C_27
    4  A    between atoms: C_17  and  C_27
    5  A    between atoms: C_26  and  C_27
                            x       y       z     vdW  Elec       q    Type
                         _______ _______ _______ _____ _____    ______ ____

>  <TORSDO>
F 5

$$$$
=
 OpenBabel10262420473D

 28 31  0  0  1  0  0  0  0  0999 V2000
  189.5030  177.6890  143.2600 C   0  0  1  0  0  3  0  0  0  0  0  0
  191.6290  177.0050  146.0390 C   0  0  0  0  0  3  0  0  0  0  0  0
  190.4880  177.2110  144.2260 N   0  0  0  0  0  0  0  0  0  0  0  0
  192.0490  175.9940  145.1890 C   0  0  0  0  0  3  0  0  0  0  0  0
  190.6730  177.7270  145.4270 N   0  0  0  0  0  0  0  0  0  0  0  0
  191.2930  176.1530  144.0410 C   0  0  0  0  0  3  0  0  0  0  0  0
  188.3120  175.6140  143.2180 O   0  0  0  0  0  0  0  0  0  0  0  0
  188.7480  176.5210  141.1260 N   0  0  0  0  0  2  0  0  0  0  0  0
  188.8380  176.5450  142.5530 C   0  0  0  0  0  0  0  0  0  0  0  0
  189.2850  177.5750  140.2780 C   0  0  2  0  0  3  0  0  0  0  0  0
  188.6560  178.9760  137.8700 C   0  0  0  0  0  2  0  0  0  0  0  0
  188.1930  178.6280  140.0340 C   0  0  0  0  0  2  0  0  0  0  0  0
  191.1820  176.3760  139.1420 C   0  0  0  0  0  1  0  0  0  0  0  0
  189.8060  176.9830  138.9590 C   0  0  2  0  0  3  0  0  0  0  0  0
  189.8550  178.0170  137.8290 C   0  0  0  0  0  2  0  0  0  0  0  0
  187.6550  178.5110  138.7410 O   0  0  0  0  0  0  0  0  0  0  0  0
  188.4660  178.5940  143.9260 C   0  0  0  0  0  2  0  0  0  0  0  0
  185.4920  177.8660  142.9750 C   0  0  0  0  0  3  0  0  0  0  0  0
  185.2580  178.8650  145.1590 C   0  0  0  0  0  0  0  0  0  0  0  0
  187.3830  177.8180  144.6850 C   0  0  2  0  0  3  0  0  0  0  0  0
  183.4120  178.9490  143.6110 C   0  0  0  0  0  0  0  0  0  0  0  0
  186.0180  178.1870  144.2300 C   0  0  0  0  0  0  0  0  0  0  0  0
  187.3620  176.7530  146.9390 C   0  0  0  0  0  1  0  0  0  0  0  0
  183.9480  179.2520  144.8690 C   0  0  0  0  0  3  0  0  0  0  0  0
  186.0560  179.1550  146.7180 S   0  0  0  0  0  0  0  0  0  0  0  0
  182.0230  179.3600  143.2770 C   0  0  0  0  0  1  0  0  0  0  0  0
  184.1820  178.2530  142.6660 C   0  0  0  0  0  3  0  0  0  0  0  0
  187.4470  178.0730  146.1970 C   0  0  2  0  0  3  0  0  0  0  0  0
  1 17  1  1  0  0  0
  1  3  1  0  0  0  0
  3  5  1  0  0  0  0
  4  2  1  0  0  0  0
  5  2  2  0  0  0  0
  6  3  1  0  0  0  0
  6  4  2  0  0  0  0
  8  9  1  0  0  0  0
  9  7  2  0  0  0  0
  9  1  1  0  0  0  0
 10  8  1  1  0  0  0
 11 16  1  0  0  0  0
 12 10  1  0  0  0  0
 14 13  1  1  0  0  0
 14 10  1  0  0  0  0
 15 11  1  0  0  0  0
 15 14  1  0  0  0  0
 16 12  1  0  0  0  0
 18 22  1  0  0  0  0
 19 25  1  0  0  0  0
 20 17  1  6  0  0  0
 20 28  1  0  0  0  0
 21 24  2  0  0  0  0
 22 20  1  0  0  0  0
 22 19  2  0  0  0  0
 24 19  1  0  0  0  0
 26 21  1  0  0  0  0
 27 18  2  0  0  0  0
 27 21  1  0  0  0  0
 28 25  1  0  0  0  0
 28 23  1  1  0  0  0
M  END
>  <MODEL>
5

>  <REMARK>
 VINA RESULT:      -6.6      2.942      5.123
  Name = 
  5 active torsions:
  status: ('A' for Active; 'I' for Inactive)
    1  A    between atoms: N_2  and  C_3
    2  A    between atoms: C_10  and  C_17
    3  A    between atoms: N_16  and  C_27
    4  A    between atoms: C_17  and  C_27
    5  A    between atoms: C_26  and  C_27
                            x       y       z     vdW  Elec       q    Type
                         _______ _______ _______ _____ _____    ______ ____

>  <TORSDO>
F 5

$$$$
=
 OpenBabel10262420473D

 28 31  0  0  1  0  0  0  0  0999 V2000
  187.0860  178.2170  143.3480 C   0  0  1  0  0  3  0  0  0  0  0  0
  183.9370  179.5590  144.3430 C   0  0  0  0  0  3  0  0  0  0  0  0
  185.6920  178.6020  143.5460 N   0  0  0  0  0  0  0  0  0  0  0  0
  183.5230  178.8230  143.2440 C   0  0  0  0  0  3  0  0  0  0  0  0
  185.2640  179.4090  144.5000 N   0  0  0  0  0  0  0  0  0  0  0  0
  184.6730  178.2290  142.7560 C   0  0  0  0  0  3  0  0  0  0  0  0
  187.1800  175.8290  143.2180 O   0  0  0  0  0  0  0  0  0  0  0  0
  187.8750  176.7160  145.2480 N   0  0  0  0  0  2  0  0  0  0  0  0
  187.3600  176.8590  143.9220 C   0  0  0  0  0  0  0  0  0  0  0  0
  188.1590  177.8500  146.1170 C   0  0  2  0  0  3  0  0  0  0  0  0
  189.4620  178.4370  148.5890 C   0  0  0  0  0  2  0  0  0  0  0  0
  189.6620  177.8790  146.4290 C   0  0  0  0  0  2  0  0  0  0  0  0
  185.9030  178.2530  147.1540 C   0  0  0  0  0  1  0  0  0  0  0  0
  187.3150  177.7610  147.3990 C   0  0  2  0  0  3  0  0  0  0  0  0
  187.9300  178.5470  148.5620 C   0  0  0  0  0  2  0  0  0  0  0  0
  189.9190  177.4200  147.7320 O   0  0  0  0  0  0  0  0  0  0  0  0
  187.4720  178.2710  141.8690 C   0  0  0  0  0  2  0  0  0  0  0  0
  189.0540  178.5340  139.0930 C   0  0  0  0  0  3  0  0  0  0  0  0
  190.3200  176.9700  140.4260 C   0  0  0  0  0  0  0  0  0  0  0  0
  188.9610  178.5560  141.6410 C   0  0  2  0  0  3  0  0  0  0  0  0
  190.4790  176.8820  138.0220 C   0  0  0  0  0  0  0  0  0  0  0  0
  189.4320  178.0220  140.3370 C   0  0  0  0  0  0  0  0  0  0  0  0
  190.8450  178.9590  143.2230 C   0  0  0  0  0  1  0  0  0  0  0  0
  190.8580  176.3880  139.2760 C   0  0  0  0  0  3  0  0  0  0  0  0
  190.7320  176.4690  142.0780 S   0  0  0  0  0  0  0  0  0  0  0  0
  191.0320  176.2710  136.7850 C   0  0  0  0  0  1  0  0  0  0  0  0
  189.5810  177.9570  137.9300 C   0  0  0  0  0  3  0  0  0  0  0  0
  189.8390  177.9340  142.7360 C   0  0  2  0  0  3  0  0  0  0  0  0
  1 17  1  6  0  0  0
  1  3  1  0  0  0  0
  1  9  1  0  0  0  0
  2  5  2  0  0  0  0
  3  5  1  0  0  0  0
  4  2  1  0  0  0  0
  6  4  2  0  0  0  0
  6  3  1  0  0  0  0
  7  9  2  0  0  0  0
  9  8  1  0  0  0  0
 10  8  1  6  0  0  0
 10 12  1  0  0  0  0
 10 14  1  0  0  0  0
 12 16  1  0  0  0  0
 14 13  1  6  0  0  0
 14 15  1  0  0  0  0
 15 11  1  0  0  0  0
 16 11  1  0  0  0  0
 18 22  1  0  0  0  0
 19 25  1  0  0  0  0
 20 17  1  1  0  0  0
 20 28  1  0  0  0  0
 21 24  2  0  0  0  0
 22 19  2  0  0  0  0
 22 20  1  0  0  0  0
 24 19  1  0  0  0  0
 25 28  1  0  0  0  0
 26 21  1  0  0  0  0
 27 21  1  0  0  0  0
 27 18  2  0  0  0  0
 28 23  1  6  0  0  0
M  END
>  <MODEL>
6

>  <REMARK>
 VINA RESULT:      -6.6      3.147      7.248
  Name = 
  5 active torsions:
  status: ('A' for Active; 'I' for Inactive)
    1  A    between atoms: N_2  and  C_3
    2  A    between atoms: C_10  and  C_17
    3  A    between atoms: N_16  and  C_27
    4  A    between atoms: C_17  and  C_27
    5  A    between atoms: C_26  and  C_27
                            x       y       z     vdW  Elec       q    Type
                         _______ _______ _______ _____ _____    ______ ____

>  <TORSDO>
F 5

$$$$
=
 OpenBabel10262420473D

 28 31  0  0  1  0  0  0  0  0999 V2000
  185.0030  178.4330  140.7830 C   0  0  1  0  0  3  0  0  0  0  0  0
  182.9360  179.2750  143.5630 C   0  0  0  0  0  3  0  0  0  0  0  0
  183.9450  178.6720  141.7610 N   0  0  0  0  0  0  0  0  0  0  0  0
  181.9540  178.8520  142.6810 C   0  0  0  0  0  3  0  0  0  0  0  0
  184.1390  179.1590  142.9720 N   0  0  0  0  0  0  0  0  0  0  0  0
  182.6360  178.4790  141.5370 C   0  0  0  0  0  3  0  0  0  0  0  0
  184.4260  180.2830  139.3780 O   0  0  0  0  0  0  0  0  0  0  0  0
  184.6570  178.2580  138.2650 N   0  0  0  0  0  2  0  0  0  0  0  0
  184.6640  179.0480  139.4570 C   0  0  0  0  0  0  0  0  0  0  0  0
  184.9670  176.8350  138.2530 C   0  0  2  0  0  3  0  0  0  0  0  0
  185.3290  174.6930  136.3990 C   0  0  0  0  0  2  0  0  0  0  0  0
  186.1360  176.5840  137.2890 C   0  0  0  0  0  2  0  0  0  0  0  0
  182.7890  175.8510  139.0400 C   0  0  0  0  0  1  0  0  0  0  0  0
  183.7220  176.0240  137.8580 C   0  0  2  0  0  3  0  0  0  0  0  0
  184.0750  174.6470  137.2860 C   0  0  0  0  0  2  0  0  0  0  0  0
  185.6880  176.0160  136.0850 O   0  0  0  0  0  0  0  0  0  0  0  0
  186.3530  178.9420  141.2900 C   0  0  0  0  0  2  0  0  0  0  0  0
  186.4920  177.2340  144.0000 C   0  0  0  0  0  3  0  0  0  0  0  0
  188.7360  178.0310  143.6080 C   0  0  0  0  0  0  0  0  0  0  0  0
  187.3240  177.8140  141.6600 C   0  0  2  0  0  3  0  0  0  0  0  0
  188.0410  177.4960  145.8540 C   0  0  0  0  0  0  0  0  0  0  0  0
  187.4890  177.6880  143.1310 C   0  0  0  0  0  0  0  0  0  0  0  0
  189.2040  176.7540  140.4130 C   0  0  0  0  0  1  0  0  0  0  0  0
  189.0330  177.9370  144.9690 C   0  0  0  0  0  3  0  0  0  0  0  0
  189.9010  178.5440  142.3710 S   0  0  0  0  0  0  0  0  0  0  0  0
  188.3330  177.3980  147.3080 C   0  0  0  0  0  1  0  0  0  0  0  0
  186.7730  177.1410  145.3690 C   0  0  0  0  0  3  0  0  0  0  0  0
  188.7190  178.0370  141.0590 C   0  0  2  0  0  3  0  0  0  0  0  0
  1 17  1  1  0  0  0
  1  3  1  0  0  0  0
  3  5  1  0  0  0  0
  4  2  1  0  0  0  0
  5  2  2  0  0  0  0
  6  3  1  0  0  0  0
  6  4  2  0  0  0  0
  7  9  2  0  0  0  0
  8  9  1  0  0  0  0
  9  1  1  0  0  0  0
 10  8  1  6  0  0  0
 11 15  1  0  0  0  0
 12 10  1  0  0  0  0
 14 10  1  0  0  0  0
 14 13  1  1  0  0  0
 15 14  1  0  0  0  0
 16 11  1  0  0  0  0
 16 12  1  0  0  0  0
 18 27  1  0  0  0  0
 19 24  2  0  0  0  0
 20 17  1  1  0  0  0
 20 22  1  0  0  0  0
 21 26  1  0  0  0  0
 22 19  1  0  0  0  0
 22 18  2  0  0  0  0
 24 21  1  0  0  0  0
 25 19  1  0  0  0  0
 27 21  2  0  0  0  0
 28 23  1  1  0  0  0
 28 20  1  0  0  0  0
 28 25  1  0  0  0  0
M  END
>  <MODEL>
7

>  <REMARK>
 VINA RESULT:      -6.5      2.875      4.151
  Name = 
  5 active torsions:
  status: ('A' for Active; 'I' for Inactive)
    1  A    between atoms: N_2  and  C_3
    2  A    between atoms: C_10  and  C_17
    3  A    between atoms: N_16  and  C_27
    4  A    between atoms: C_17  and  C_27
    5  A    between atoms: C_26  and  C_27
                            x       y       z     vdW  Elec       q    Type
                         _______ _______ _______ _____ _____    ______ ____

>  <TORSDO>
F 5

$$$$
=
 OpenBabel10262420473D

 28 31  0  0  1  0  0  0  0  0999 V2000
  190.1310  176.8460  139.9850 C   0  0  1  0  0  3  0  0  0  0  0  0
  187.4250  177.4470  137.7430 C   0  0  0  0  0  3  0  0  0  0  0  0
  189.1350  177.3550  139.0470 N   0  0  0  0  0  0  0  0  0  0  0  0
  187.9600  178.7250  137.7870 C   0  0  0  0  0  3  0  0  0  0  0  0
  188.1590  176.6340  138.5240 N   0  0  0  0  0  0  0  0  0  0  0  0
  189.0480  178.6290  138.6360 C   0  0  0  0  0  3  0  0  0  0  0  0
  192.4310  177.5020  140.0520 O   0  0  0  0  0  0  0  0  0  0  0  0
  191.8170  176.3230  138.1490 N   0  0  0  0  0  2  0  0  0  0  0  0
  191.5120  176.9300  139.4070 C   0  0  0  0  0  0  0  0  0  0  0  0
  190.8320  175.6010  137.3560 C   0  0  2  0  0  3  0  0  0  0  0  0
  190.6870  173.4630  135.4680 C   0  0  0  0  0  2  0  0  0  0  0  0
  191.0030  174.0930  137.5940 C   0  0  0  0  0  2  0  0  0  0  0  0
  190.3130  177.2860  135.5620 C   0  0  0  0  0  1  0  0  0  0  0  0
  190.9800  175.9600  135.8690 C   0  0  2  0  0  3  0  0  0  0  0  0
  190.4090  174.8800  134.9440 C   0  0  0  0  0  2  0  0  0  0  0  0
  191.6380  173.4750  136.5040 O   0  0  0  0  0  0  0  0  0  0  0  0
  190.0560  177.5790  141.3250 C   0  0  0  0  0  2  0  0  0  0  0  0
  187.5460  176.9420  143.2170 C   0  0  0  0  0  3  0  0  0  0  0  0
  189.3670  177.4910  144.7020 C   0  0  0  0  0  0  0  0  0  0  0  0
  189.9830  176.6320  142.5300 C   0  0  2  0  0  3  0  0  0  0  0  0
  187.0940  177.8070  145.4420 C   0  0  0  0  0  0  0  0  0  0  0  0
  188.9160  177.0330  143.4830 C   0  0  0  0  0  0  0  0  0  0  0  0
  191.6810  175.1510  143.5950 C   0  0  0  0  0  1  0  0  0  0  0  0
  188.4700  177.8800  145.6990 C   0  0  0  0  0  3  0  0  0  0  0  0
  191.1310  177.5020  144.8980 S   0  0  0  0  0  0  0  0  0  0  0  0
  186.1220  178.2250  146.4850 C   0  0  0  0  0  1  0  0  0  0  0  0
  186.6330  177.3350  144.2040 C   0  0  0  0  0  3  0  0  0  0  0  0
  191.3040  176.5910  143.3100 C   0  0  2  0  0  3  0  0  0  0  0  0
  1 17  1  1  0  0  0
  2  4  1  0  0  0  0
  2  5  2  0  0  0  0
  3  1  1  0  0  0  0
  4  6  2  0  0  0  0
  5  3  1  0  0  0  0
  6  3  1  0  0  0  0
  8  9  1  0  0  0  0
  9  1  1  0  0  0  0
  9  7  2  0  0  0  0
 10 12  1  0  0  0  0
 10  8  1  1  0  0  0
 11 16  1  0  0  0  0
 14 13  1  1  0  0  0
 14 10  1  0  0  0  0
 15 11  1  0  0  0  0
 15 14  1  0  0  0  0
 16 12  1  0  0  0  0
 18 22  2  0  0  0  0
 18 27  1  0  0  0  0
 19 25  1  0  0  0  0
 19 24  2  0  0  0  0
 20 17  1  6  0  0  0
 20 28  1  0  0  0  0
 20 22  1  0  0  0  0
 21 24  1  0  0  0  0
 21 26  1  0  0  0  0
 22 19  1  0  0  0  0
 27 21  2  0  0  0  0
 28 23  1  1  0  0  0
 28 25  1  0  0  0  0
M  END
>  <MODEL>
8

>  <REMARK>
 VINA RESULT:      -6.5      1.843      2.265
  Name = 
  5 active torsions:
  status: ('A' for Active; 'I' for Inactive)
    1  A    between atoms: N_2  and  C_3
    2  A    between atoms: C_10  and  C_17
    3  A    between atoms: N_16  and  C_27
    4  A    between atoms: C_17  and  C_27
    5  A    between atoms: C_26  and  C_27
                            x       y       z     vdW  Elec       q    Type
                         _______ _______ _______ _____ _____    ______ ____

>  <TORSDO>
F 5

$$$$
=
 OpenBabel10262420473D

 28 31  0  0  1  0  0  0  0  0999 V2000
  183.2530  177.6490  138.9260 C   0  0  1  0  0  3  0  0  0  0  0  0
  180.2740  177.0550  137.0600 C   0  0  0  0  0  3  0  0  0  0  0  0
  182.2030  177.4400  137.9340 N   0  0  0  0  0  0  0  0  0  0  0  0
  181.1340  177.3460  136.0120 C   0  0  0  0  0  3  0  0  0  0  0  0
  180.9530  177.1250  138.2200 N   0  0  0  0  0  0  0  0  0  0  0  0
  182.3570  177.5930  136.6100 C   0  0  0  0  0  3  0  0  0  0  0  0
  183.0900  180.0330  138.8080 O   0  0  0  0  0  0  0  0  0  0  0  0
  185.2590  179.2090  138.7520 N   0  0  0  0  0  2  0  0  0  0  0  0
  183.8430  179.0230  138.8100 C   0  0  0  0  0  0  0  0  0  0  0  0
  186.2080  178.1050  138.7970 C   0  0  2  0  0  3  0  0  0  0  0  0
  189.0260  177.6450  138.8400 C   0  0  0  0  0  2  0  0  0  0  0  0
  187.2050  178.3450  139.9400 C   0  0  0  0  0  2  0  0  0  0  0  0
  186.0520  177.2260  136.4440 C   0  0  0  0  0  1  0  0  0  0  0  0
  186.9220  177.9630  137.4430 C   0  0  2  0  0  3  0  0  0  0  0  0
  188.2720  177.2470  137.5630 C   0  0  0  0  0  2  0  0  0  0  0  0
  188.4490  178.7740  139.4480 O   0  0  0  0  0  0  0  0  0  0  0  0
  182.7370  177.3960  140.3430 C   0  0  0  0  0  2  0  0  0  0  0  0
  184.6010  178.9160  142.4640 C   0  0  0  0  0  3  0  0  0  0  0  0
  182.4540  178.6640  143.5360 C   0  0  0  0  0  0  0  0  0  0  0  0
  182.4450  178.6850  141.1200 C   0  0  2  0  0  3  0  0  0  0  0  0
  184.4380  178.8880  144.8880 C   0  0  0  0  0  0  0  0  0  0  0  0
  183.2150  178.7510  142.3900 C   0  0  0  0  0  0  0  0  0  0  0  0
  180.4770  180.2130  141.1390 C   0  0  0  0  0  1  0  0  0  0  0  0
  183.0490  178.7350  144.7980 C   0  0  0  0  0  3  0  0  0  0  0  0
  180.7070  178.5030  143.2710 S   0  0  0  0  0  0  0  0  0  0  0  0
  185.0930  178.9560  146.2200 C   0  0  0  0  0  1  0  0  0  0  0  0
  185.2130  178.9820  143.7220 C   0  0  0  0  0  3  0  0  0  0  0  0
  180.9580  178.8160  141.4780 C   0  0  2  0  0  3  0  0  0  0  0  0
  1 17  1  1  0  0  0
  2  5  2  0  0  0  0
  3  5  1  0  0  0  0
  3  1  1  0  0  0  0
  4  6  2  0  0  0  0
  4  2  1  0  0  0  0
  6  3  1  0  0  0  0
  7  9  2  0  0  0  0
  8  9  1  0  0  0  0
  9  1  1  0  0  0  0
 10  8  1  6  0  0  0
 10 12  1  0  0  0  0
 11 16  1  0  0  0  0
 14 13  1  6  0  0  0
 14 15  1  0  0  0  0
 14 10  1  0  0  0  0
 15 11  1  0  0  0  0
 16 12  1  0  0  0  0
 18 27  1  0  0  0  0
 19 24  2  0  0  0  0
 20 17  1  1  0  0  0
 20 28  1  0  0  0  0
 20 22  1  0  0  0  0
 21 26  1  0  0  0  0
 22 18  2  0  0  0  0
 22 19  1  0  0  0  0
 24 21  1  0  0  0  0
 25 19  1  0  0  0  0
 27 21  2  0  0  0  0
 28 23  1  1  0  0  0
 28 25  1  0  0  0  0
M  END
>  <MODEL>
9

>  <REMARK>
 VINA RESULT:      -6.4      3.536      5.498
  Name = 
  5 active torsions:
  status: ('A' for Active; 'I' for Inactive)
    1  A    between atoms: N_2  and  C_3
    2  A    between atoms: C_10  and  C_17
    3  A    between atoms: N_16  and  C_27
    4  A    between atoms: C_17  and  C_27
    5  A    between atoms: C_26  and  C_27
                            x       y       z     vdW  Elec       q    Type
                         _______ _______ _______ _____ _____    ______ ____

>  <TORSDO>
F 5

$$$$
