=
 OpenBabel10262419503D

 25 28  0  0  1  0  0  0  0  0999 V2000
  185.8270  177.9700  144.1650 C   0  0  0  0  0  0  0  0  0  0  0  0
  186.9680  177.7070  144.9440 C   0  0  0  0  0  0  0  0  0  0  0  0
  184.5710  178.6900  146.1060 C   0  0  0  0  0  3  0  0  0  0  0  0
  185.5740  177.8290  142.7050 C   0  0  1  0  0  3  0  0  0  0  0  0
  184.5340  179.2670  140.4680 C   0  0  0  0  0  3  0  0  0  0  0  0
  185.7150  178.4990  146.8970 C   0  0  0  0  0  3  0  0  0  0  0  0
  184.1660  178.3450  142.6360 C   0  0  0  0  0  0  0  0  0  0  0  0
  183.6380  178.8370  141.3640 C   0  0  0  0  0  3  0  0  0  0  0  0
  189.3580  177.9470  146.4720 C   0  0  0  0  0  2  0  0  0  0  0  0
  188.0690  177.9240  147.0890 O   0  0  0  0  0  0  0  0  0  0  0  0
  188.2320  177.1050  144.4310 C   0  0  0  0  0  0  0  0  0  0  0  0
  185.9450  179.2830  140.7790 N   0  0  0  0  0  0  0  0  0  0  0  0
  184.6590  178.4160  144.7430 C   0  0  0  0  0  0  0  0  0  0  0  0
  183.6500  178.6710  143.7800 N   0  0  0  0  0  0  0  0  0  0  0  0
  189.3440  177.2020  145.1650 C   0  0  0  0  0  3  0  0  0  0  0  0
  186.4450  178.6860  141.8270 C   0  0  0  0  0  3  0  0  0  0  0  0
  186.9110  178.0410  146.3150 C   0  0  0  0  0  0  0  0  0  0  0  0
  188.2980  176.3620  143.2480 O   0  0  0  0  0  0  0  0  0  0  0  0
  189.4840  176.2490  142.4690 C   0  0  0  0  0  2  0  0  0  0  0  0
  189.6800  177.4800  141.5850 C   0  0  0  0  0  2  0  0  0  0  0  0
  189.5870  177.1790  140.0880 C   0  0  1  0  0  3  0  0  0  0  0  0
  189.0810  178.3730  139.2920 C   0  0  0  0  0  1  0  0  0  0  0  0
  190.8550  176.6130  139.5280 C   0  0  0  0  0  0  0  0  0  0  0  0
  191.9720  177.1300  139.8020 O   0  0  0  0  0  1  0  0  0  0  0  0
  190.8030  175.4770  138.7320 O   0  0  0  0  0  0  0  0  0  0  0  0
  1 13  2  0  0  0  0
  1  2  1  0  0  0  0
  2 17  2  0  0  0  0
  3  6  2  0  0  0  0
  4 16  1  6  0  0  0
  4  1  1  0  0  0  0
  5 12  1  0  0  0  0
  5  8  2  0  0  0  0
  7  4  1  0  0  0  0
  7 14  2  0  0  0  0
  8  7  1  0  0  0  0
  9 10  1  0  0  0  0
 11  2  1  0  0  0  0
 11 15  2  0  0  0  0
 12 16  2  0  0  0  0
 13  3  1  0  0  0  0
 14 13  1  0  0  0  0
 15  9  1  0  0  0  0
 17  6  1  0  0  0  0
 17 10  1  0  0  0  0
 18 11  1  0  0  0  0
 19 18  1  0  0  0  0
 20 19  1  0  0  0  0
 21 22  1  6  0  0  0
 21 20  1  0  0  0  0
 23 24  1  0  0  0  0
 23 21  1  0  0  0  0
 25 23  2  0  0  0  0
M  END
>  <MODEL>
1

>  <REMARK>
 VINA RESULT:      -8.7      0.000      0.000
  Name = 
  5 active torsions:
  status: ('A' for Active; 'I' for Inactive)
    1  A    between atoms: C_2  and  C_21
    2  A    between atoms: C_6  and  C_15
    3  A    between atoms: C_6  and  O_23
    4  A    between atoms: C_15  and  C_21
    5  A    between atoms: C_16  and  O_23
                            x       y       z     vdW  Elec       q    Type
                         _______ _______ _______ _____ _____    ______ ____

>  <TORSDO>
F 5

$$$$
=
 OpenBabel10262419503D

 25 28  0  0  1  0  0  0  0  0999 V2000
  187.1650  177.7800  145.9010 C   0  0  0  0  0  0  0  0  0  0  0  0
  188.5190  177.4280  145.7620 C   0  0  0  0  0  0  0  0  0  0  0  0
  187.4510  178.2670  148.2560 C   0  0  0  0  0  3  0  0  0  0  0  0
  186.0460  177.8110  144.9190 C   0  0  1  0  0  3  0  0  0  0  0  0
  183.9470  179.5020  143.9760 C   0  0  0  0  0  3  0  0  0  0  0  0
  188.8200  177.9840  148.1310 C   0  0  0  0  0  3  0  0  0  0  0  0
  184.9450  178.3310  145.7980 C   0  0  0  0  0  0  0  0  0  0  0  0
  183.7770  178.9690  145.1920 C   0  0  0  0  0  3  0  0  0  0  0  0
  191.3490  177.4870  145.4630 C   0  0  0  0  0  2  0  0  0  0  0  0
  190.7290  177.3910  146.7480 O   0  0  0  0  0  0  0  0  0  0  0  0
  189.1380  176.8900  144.5160 C   0  0  0  0  0  0  0  0  0  0  0  0
  185.2400  179.4810  143.3320 N   0  0  0  0  0  0  0  0  0  0  0  0
  186.6490  178.1550  147.1230 C   0  0  0  0  0  0  0  0  0  0  0  0
  185.2820  178.5210  147.0360 N   0  0  0  0  0  0  0  0  0  0  0  0
  190.4690  176.9010  144.3940 C   0  0  0  0  0  3  0  0  0  0  0  0
  186.2390  178.7660  143.7720 C   0  0  0  0  0  3  0  0  0  0  0  0
  189.3540  177.5980  146.8880 C   0  0  0  0  0  0  0  0  0  0  0  0
  188.3960  176.2920  143.4930 O   0  0  0  0  0  0  0  0  0  0  0  0
  188.7810  176.3470  142.1230 C   0  0  0  0  0  2  0  0  0  0  0  0
  188.6350  177.7620  141.5680 C   0  0  0  0  0  2  0  0  0  0  0  0
  189.3820  177.9840  140.2520 C   0  0  1  0  0  3  0  0  0  0  0  0
  190.1690  176.7540  139.8220 C   0  0  0  0  0  1  0  0  0  0  0  0
  188.5000  178.5110  139.1630 C   0  0  0  0  0  0  0  0  0  0  0  0
  187.2510  178.3400  139.2020 O   0  0  0  0  0  1  0  0  0  0  0  0
  189.0600  179.2330  138.1180 O   0  0  0  0  0  0  0  0  0  0  0  0
  1 13  1  0  0  0  0
  2  1  2  0  0  0  0
  2 17  1  0  0  0  0
  4 16  1  6  0  0  0
  4  7  1  0  0  0  0
  4  1  1  0  0  0  0
  5  8  2  0  0  0  0
  6  3  1  0  0  0  0
  7 14  2  0  0  0  0
  8  7  1  0  0  0  0
  9 10  1  0  0  0  0
 10 17  1  0  0  0  0
 11  2  1  0  0  0  0
 12 16  2  0  0  0  0
 12  5  1  0  0  0  0
 13  3  2  0  0  0  0
 14 13  1  0  0  0  0
 15 11  2  0  0  0  0
 15  9  1  0  0  0  0
 17  6  2  0  0  0  0
 18 11  1  0  0  0  0
 19 18  1  0  0  0  0
 20 19  1  0  0  0  0
 21 22  1  6  0  0  0
 21 20  1  0  0  0  0
 23 24  1  0  0  0  0
 23 21  1  0  0  0  0
 25 23  2  0  0  0  0
M  END
>  <MODEL>
2

>  <REMARK>
 VINA RESULT:      -8.5      1.900      2.750
  Name = 
  5 active torsions:
  status: ('A' for Active; 'I' for Inactive)
    1  A    between atoms: C_2  and  C_21
    2  A    between atoms: C_6  and  C_15
    3  A    between atoms: C_6  and  O_23
    4  A    between atoms: C_15  and  C_21
    5  A    between atoms: C_16  and  O_23
                            x       y       z     vdW  Elec       q    Type
                         _______ _______ _______ _____ _____    ______ ____

>  <TORSDO>
F 5

$$$$
=
 OpenBabel10262419503D

 25 28  0  0  1  0  0  0  0  0999 V2000
  188.0000  177.7920  144.3780 C   0  0  0  0  0  0  0  0  0  0  0  0
  186.7580  178.1540  143.8260 C   0  0  0  0  0  0  0  0  0  0  0  0
  187.0950  177.8030  146.6240 C   0  0  0  0  0  3  0  0  0  0  0  0
  189.3210  177.5250  143.7460 C   0  0  1  0  0  3  0  0  0  0  0  0
  191.4390  175.6090  143.7180 C   0  0  0  0  0  3  0  0  0  0  0  0
  185.8290  178.1000  146.0950 C   0  0  0  0  0  3  0  0  0  0  0  0
  190.1200  177.1580  144.9630 C   0  0  0  0  0  0  0  0  0  0  0  0
  191.3440  176.3710  144.8140 C   0  0  0  0  0  3  0  0  0  0  0  0
  184.0970  178.1300  142.8140 C   0  0  0  0  0  2  0  0  0  0  0  0
  184.3830  178.4640  144.1740 O   0  0  0  0  0  0  0  0  0  0  0  0
  186.5180  178.4480  142.3840 C   0  0  0  0  0  0  0  0  0  0  0  0
  190.3530  175.5420  142.7660 N   0  0  0  0  0  0  0  0  0  0  0  0
  188.1610  177.6560  145.7400 C   0  0  0  0  0  0  0  0  0  0  0  0
  189.4700  177.2340  146.0830 N   0  0  0  0  0  0  0  0  0  0  0  0
  185.2630  178.4580  141.9220 C   0  0  0  0  0  3  0  0  0  0  0  0
  189.3400  176.3650  142.7880 C   0  0  0  0  0  3  0  0  0  0  0  0
  185.6570  178.2430  144.7050 C   0  0  0  0  0  0  0  0  0  0  0  0
  187.5390  178.8020  141.4970 O   0  0  0  0  0  0  0  0  0  0  0  0
  187.6270  178.2870  140.1720 C   0  0  0  0  0  2  0  0  0  0  0  0
  189.0510  178.4000  139.6320 C   0  0  0  0  0  2  0  0  0  0  0  0
  189.4300  177.2760  138.6660 C   0  0  1  0  0  3  0  0  0  0  0  0
  189.5240  177.7620  137.2270 C   0  0  0  0  0  1  0  0  0  0  0  0
  190.6500  176.5240  139.0990 C   0  0  0  0  0  0  0  0  0  0  0  0
  190.9070  175.3820  138.6300 O   0  0  0  0  0  0  0  0  0  0  0  0
  191.5320  177.1100  139.9960 O   0  0  0  0  0  1  0  0  0  0  0  0
  1 13  1  0  0  0  0
  2  1  2  0  0  0  0
  2 17  1  0  0  0  0
  4 16  1  6  0  0  0
  4  1  1  0  0  0  0
  4  7  1  0  0  0  0
  5  8  2  0  0  0  0
  6  3  1  0  0  0  0
  7 14  2  0  0  0  0
  8  7  1  0  0  0  0
  9 10  1  0  0  0  0
 10 17  1  0  0  0  0
 11  2  1  0  0  0  0
 12 16  2  0  0  0  0
 12  5  1  0  0  0  0
 13 14  1  0  0  0  0
 13  3  2  0  0  0  0
 15 11  2  0  0  0  0
 15  9  1  0  0  0  0
 17  6  2  0  0  0  0
 18 11  1  0  0  0  0
 19 18  1  0  0  0  0
 20 19  1  0  0  0  0
 21 22  1  6  0  0  0
 21 23  1  0  0  0  0
 21 20  1  0  0  0  0
 23 25  1  0  0  0  0
 24 23  2  0  0  0  0
M  END
>  <MODEL>
3

>  <REMARK>
 VINA RESULT:      -8.4      2.354      4.375
  Name = 
  5 active torsions:
  status: ('A' for Active; 'I' for Inactive)
    1  A    between atoms: C_2  and  C_21
    2  A    between atoms: C_6  and  C_15
    3  A    between atoms: C_6  and  O_23
    4  A    between atoms: C_15  and  C_21
    5  A    between atoms: C_16  and  O_23
                            x       y       z     vdW  Elec       q    Type
                         _______ _______ _______ _____ _____    ______ ____

>  <TORSDO>
F 5

$$$$
=
 OpenBabel10262419503D

 25 28  0  0  1  0  0  0  0  0999 V2000
  185.1040  178.1280  143.6670 C   0  0  0  0  0  0  0  0  0  0  0  0
  186.0730  177.8750  144.6540 C   0  0  0  0  0  0  0  0  0  0  0  0
  183.5230  178.9370  145.3130 C   0  0  0  0  0  3  0  0  0  0  0  0
  185.1250  177.9380  142.1910 C   0  0  1  0  0  3  0  0  0  0  0  0
  184.5550  179.3120  139.7520 C   0  0  0  0  0  3  0  0  0  0  0  0
  184.4940  178.7560  146.3100 C   0  0  0  0  0  3  0  0  0  0  0  0
  183.7670  178.4740  141.8420 C   0  0  0  0  0  0  0  0  0  0  0  0
  183.4970  178.9290  140.4780 C   0  0  0  0  0  3  0  0  0  0  0  0
  188.1390  178.1300  146.5960 C   0  0  0  0  0  2  0  0  0  0  0  0
  186.7570  178.1500  146.9590 O   0  0  0  0  0  0  0  0  0  0  0  0
  187.3970  177.2340  144.4070 C   0  0  0  0  0  0  0  0  0  0  0  0
  185.8830  179.3160  140.3230 N   0  0  0  0  0  0  0  0  0  0  0  0
  183.8580  178.6130  144.0010 C   0  0  0  0  0  0  0  0  0  0  0  0
  183.0530  178.8490  142.8580 N   0  0  0  0  0  0  0  0  0  0  0  0
  188.3540  177.3390  145.3340 C   0  0  0  0  0  3  0  0  0  0  0  0
  186.1640  178.7490  141.4650 C   0  0  0  0  0  3  0  0  0  0  0  0
  185.7680  178.2580  145.9780 C   0  0  0  0  0  0  0  0  0  0  0  0
  187.6660  176.4490  143.2820 O   0  0  0  0  0  0  0  0  0  0  0  0
  188.9620  175.9410  142.9840 C   0  0  0  0  0  2  0  0  0  0  0  0
  189.6810  176.8300  141.9710 C   0  0  0  0  0  2  0  0  0  0  0  0
  191.1800  176.9780  142.2390 C   0  0  1  0  0  3  0  0  0  0  0  0
  191.9250  177.5500  141.0420 C   0  0  0  0  0  1  0  0  0  0  0  0
  191.4730  177.7200  143.5070 C   0  0  0  0  0  0  0  0  0  0  0  0
  191.3950  178.9770  143.5540 O   0  0  0  0  0  0  0  0  0  0  0  0
  191.7940  177.0100  144.6560 O   0  0  0  0  0  1  0  0  0  0  0  0
  1 13  2  0  0  0  0
  1  2  1  0  0  0  0
  2 17  2  0  0  0  0
  3  6  2  0  0  0  0
  4 16  1  6  0  0  0
  4  1  1  0  0  0  0
  5 12  1  0  0  0  0
  5  8  2  0  0  0  0
  7  4  1  0  0  0  0
  7 14  2  0  0  0  0
  8  7  1  0  0  0  0
  9 10  1  0  0  0  0
 11  2  1  0  0  0  0
 11 15  2  0  0  0  0
 12 16  2  0  0  0  0
 13  3  1  0  0  0  0
 14 13  1  0  0  0  0
 15  9  1  0  0  0  0
 17  6  1  0  0  0  0
 17 10  1  0  0  0  0
 18 11  1  0  0  0  0
 19 18  1  0  0  0  0
 20 21  1  0  0  0  0
 20 19  1  0  0  0  0
 21 22  1  6  0  0  0
 21 23  1  0  0  0  0
 23 24  2  0  0  0  0
 23 25  1  0  0  0  0
M  END
>  <MODEL>
4

>  <REMARK>
 VINA RESULT:      -8.3      1.815      2.115
  Name = 
  5 active torsions:
  status: ('A' for Active; 'I' for Inactive)
    1  A    between atoms: C_2  and  C_21
    2  A    between atoms: C_6  and  C_15
    3  A    between atoms: C_6  and  O_23
    4  A    between atoms: C_15  and  C_21
    5  A    between atoms: C_16  and  O_23
                            x       y       z     vdW  Elec       q    Type
                         _______ _______ _______ _____ _____    ______ ____

>  <TORSDO>
F 5

$$$$
=
 OpenBabel10262419503D

 25 28  0  0  1  0  0  0  0  0999 V2000
  188.1910  177.7110  144.4120 C   0  0  0  0  0  0  0  0  0  0  0  0
  186.9800  178.0790  143.7980 C   0  0  0  0  0  0  0  0  0  0  0  0
  187.1760  177.7370  146.6100 C   0  0  0  0  0  3  0  0  0  0  0  0
  189.5400  177.4330  143.8470 C   0  0  1  0  0  3  0  0  0  0  0  0
  191.6430  175.5020  143.9310 C   0  0  0  0  0  3  0  0  0  0  0  0
  185.9400  178.0400  146.0170 C   0  0  0  0  0  3  0  0  0  0  0  0
  190.2740  177.0640  145.1040 C   0  0  0  0  0  0  0  0  0  0  0  0
  191.4990  176.2690  145.0180 C   0  0  0  0  0  3  0  0  0  0  0  0
  184.3730  178.0700  142.6550 C   0  0  0  0  0  2  0  0  0  0  0  0
  184.5930  178.4060  144.0260 O   0  0  0  0  0  0  0  0  0  0  0  0
  186.8140  178.3700  142.3440 C   0  0  0  0  0  0  0  0  0  0  0  0
  190.6050  175.4380  142.9260 N   0  0  0  0  0  0  0  0  0  0  0  0
  188.2830  177.5790  145.7800 C   0  0  0  0  0  0  0  0  0  0  0  0
  189.5710  177.1500  146.1900 N   0  0  0  0  0  0  0  0  0  0  0  0
  185.5840  178.3860  141.8210 C   0  0  0  0  0  3  0  0  0  0  0  0
  189.5980  176.2690  142.8950 C   0  0  0  0  0  3  0  0  0  0  0  0
  185.8370  178.1800  144.6210 C   0  0  0  0  0  0  0  0  0  0  0  0
  187.8800  178.7130  141.5070 O   0  0  0  0  0  0  0  0  0  0  0  0
  187.9840  178.2630  140.1610 C   0  0  0  0  0  2  0  0  0  0  0  0
  189.4310  177.9290  139.8030 C   0  0  0  0  0  2  0  0  0  0  0  0
  189.6550  177.7000  138.3070 C   0  0  1  0  0  3  0  0  0  0  0  0
  189.5940  176.2260  137.9340 C   0  0  0  0  0  1  0  0  0  0  0  0
  188.7650  178.5460  137.4500 C   0  0  0  0  0  0  0  0  0  0  0  0
  188.9650  179.7850  137.3340 O   0  0  0  0  0  1  0  0  0  0  0  0
  187.7320  177.9500  136.7390 O   0  0  0  0  0  0  0  0  0  0  0  0
  1 13  1  0  0  0  0
  2  1  2  0  0  0  0
  2 17  1  0  0  0  0
  4 16  1  6  0  0  0
  4  1  1  0  0  0  0
  4  7  1  0  0  0  0
  5  8  2  0  0  0  0
  6  3  1  0  0  0  0
  7 14  2  0  0  0  0
  8  7  1  0  0  0  0
  9 10  1  0  0  0  0
 10 17  1  0  0  0  0
 11  2  1  0  0  0  0
 12  5  1  0  0  0  0
 13 14  1  0  0  0  0
 13  3  2  0  0  0  0
 15 11  2  0  0  0  0
 15  9  1  0  0  0  0
 16 12  2  0  0  0  0
 17  6  2  0  0  0  0
 18 11  1  0  0  0  0
 19 18  1  0  0  0  0
 20 19  1  0  0  0  0
 21 22  1  1  0  0  0
 21 20  1  0  0  0  0
 23 21  1  0  0  0  0
 24 23  1  0  0  0  0
 25 23  2  0  0  0  0
M  END
>  <MODEL>
5

>  <REMARK>
 VINA RESULT:      -8.2      2.739      4.651
  Name = 
  5 active torsions:
  status: ('A' for Active; 'I' for Inactive)
    1  A    between atoms: C_2  and  C_21
    2  A    between atoms: C_6  and  C_15
    3  A    between atoms: C_6  and  O_23
    4  A    between atoms: C_15  and  C_21
    5  A    between atoms: C_16  and  O_23
                            x       y       z     vdW  Elec       q    Type
                         _______ _______ _______ _____ _____    ______ ____

>  <TORSDO>
F 5

$$$$
=
 OpenBabel10262419503D

 25 28  0  0  1  0  0  0  0  0999 V2000
  188.1730  177.8570  145.3790 C   0  0  0  0  0  0  0  0  0  0  0  0
  186.8440  178.2560  145.6040 C   0  0  0  0  0  0  0  0  0  0  0  0
  188.6800  177.9320  147.7460 C   0  0  0  0  0  3  0  0  0  0  0  0
  188.9090  177.5320  144.1260 C   0  0  1  0  0  3  0  0  0  0  0  0
  190.6040  175.5390  142.9820 C   0  0  0  0  0  3  0  0  0  0  0  0
  187.3420  178.2680  148.0050 C   0  0  0  0  0  3  0  0  0  0  0  0
  190.2430  177.1530  144.7010 C   0  0  0  0  0  0  0  0  0  0  0  0
  191.1560  176.3200  143.9190 C   0  0  0  0  0  3  0  0  0  0  0  0
  184.0730  178.3160  146.2530 C   0  0  0  0  0  2  0  0  0  0  0  0
  185.0780  178.6580  147.2100 O   0  0  0  0  0  0  0  0  0  0  0  0
  185.8450  178.5390  144.5340 C   0  0  0  0  0  0  0  0  0  0  0  0
  189.1700  175.4990  142.8010 N   0  0  0  0  0  0  0  0  0  0  0  0
  189.0650  177.7330  146.4230 C   0  0  0  0  0  0  0  0  0  0  0  0
  190.3330  177.2690  145.9890 N   0  0  0  0  0  0  0  0  0  0  0  0
  184.5470  178.5890  144.8510 C   0  0  0  0  0  3  0  0  0  0  0  0
  188.3620  176.3590  143.3590 C   0  0  0  0  0  3  0  0  0  0  0  0
  186.4250  178.3980  146.9450 C   0  0  0  0  0  0  0  0  0  0  0  0
  186.2030  178.8430  143.2160 O   0  0  0  0  0  0  0  0  0  0  0  0
  185.2990  179.4240  142.2830 C   0  0  0  0  0  2  0  0  0  0  0  0
  185.5250  178.8660  140.8790 C   0  0  0  0  0  2  0  0  0  0  0  0
  184.2360  178.4430  140.1730 C   0  0  1  0  0  3  0  0  0  0  0  0
  183.1350  178.0730  141.1570 C   0  0  0  0  0  1  0  0  0  0  0  0
  183.7800  179.4360  139.1490 C   0  0  0  0  0  0  0  0  0  0  0  0
  184.3900  180.5270  138.9900 O   0  0  0  0  0  1  0  0  0  0  0  0
  182.6980  179.1310  138.3340 O   0  0  0  0  0  0  0  0  0  0  0  0
  1  2  2  0  0  0  0
  1 13  1  0  0  0  0
  2 17  1  0  0  0  0
  3  6  1  0  0  0  0
  4 16  1  1  0  0  0
  4  7  1  0  0  0  0
  4  1  1  0  0  0  0
  5  8  2  0  0  0  0
  7 14  2  0  0  0  0
  8  7  1  0  0  0  0
  9 10  1  0  0  0  0
 11 15  2  0  0  0  0
 11  2  1  0  0  0  0
 12  5  1  0  0  0  0
 12 16  2  0  0  0  0
 13  3  2  0  0  0  0
 14 13  1  0  0  0  0
 15  9  1  0  0  0  0
 17 10  1  0  0  0  0
 17  6  2  0  0  0  0
 18 11  1  0  0  0  0
 19 18  1  0  0  0  0
 20 19  1  0  0  0  0
 21 20  1  0  0  0  0
 21 22  1  1  0  0  0
 23 21  1  0  0  0  0
 24 23  1  0  0  0  0
 25 23  2  0  0  0  0
M  END
>  <MODEL>
6

>  <REMARK>
 VINA RESULT:      -8.2      3.182      5.418
  Name = 
  5 active torsions:
  status: ('A' for Active; 'I' for Inactive)
    1  A    between atoms: C_2  and  C_21
    2  A    between atoms: C_6  and  C_15
    3  A    between atoms: C_6  and  O_23
    4  A    between atoms: C_15  and  C_21
    5  A    between atoms: C_16  and  O_23
                            x       y       z     vdW  Elec       q    Type
                         _______ _______ _______ _____ _____    ______ ____

>  <TORSDO>
F 5

$$$$
=
 OpenBabel10262419503D

 25 28  0  0  1  0  0  0  0  0999 V2000
  187.5450  177.5820  143.9720 C   0  0  0  0  0  0  0  0  0  0  0  0
  188.9180  177.3920  144.2140 C   0  0  0  0  0  0  0  0  0  0  0  0
  187.0760  177.7930  146.3380 C   0  0  0  0  0  3  0  0  0  0  0  0
  186.7620  177.6210  142.7070 C   0  0  1  0  0  3  0  0  0  0  0  0
  184.8100  179.1910  141.3340 C   0  0  0  0  0  3  0  0  0  0  0  0
  188.4490  177.6730  146.6040 C   0  0  0  0  0  3  0  0  0  0  0  0
  185.3950  177.9090  143.2580 C   0  0  0  0  0  0  0  0  0  0  0  0
  184.3740  178.4940  142.3900 C   0  0  0  0  0  3  0  0  0  0  0  0
  191.6790  177.7820  144.7840 C   0  0  0  0  0  2  0  0  0  0  0  0
  190.7370  177.4610  145.8090 O   0  0  0  0  0  0  0  0  0  0  0  0
  189.9340  177.0840  143.1670 C   0  0  0  0  0  0  0  0  0  0  0  0
  186.2240  179.3860  141.1080 N   0  0  0  0  0  0  0  0  0  0  0  0
  186.6550  177.7440  145.0110 C   0  0  0  0  0  0  0  0  0  0  0  0
  185.3340  177.9740  144.5520 N   0  0  0  0  0  0  0  0  0  0  0  0
  191.2300  177.2470  143.4510 C   0  0  0  0  0  3  0  0  0  0  0  0
  187.1430  178.7280  141.7610 C   0  0  0  0  0  3  0  0  0  0  0  0
  189.3650  177.5040  145.5480 C   0  0  0  0  0  0  0  0  0  0  0  0
  189.6060  176.5460  141.9190 O   0  0  0  0  0  0  0  0  0  0  0  0
  190.2740  176.9150  140.7170 C   0  0  0  0  0  2  0  0  0  0  0  0
  189.3590  176.7450  139.5060 C   0  0  0  0  0  2  0  0  0  0  0  0
  189.7440  177.6300  138.3190 C   0  0  1  0  0  3  0  0  0  0  0  0
  190.2140  176.8150  137.1220 C   0  0  0  0  0  1  0  0  0  0  0  0
  188.6770  178.6170  137.9580 C   0  0  0  0  0  0  0  0  0  0  0  0
  187.4640  178.3740  138.1980 O   0  0  0  0  0  1  0  0  0  0  0  0
  189.0340  179.8330  137.3920 O   0  0  0  0  0  0  0  0  0  0  0  0
  1  2  2  0  0  0  0
  1 13  1  0  0  0  0
  2 17  1  0  0  0  0
  3  6  1  0  0  0  0
  4 16  1  6  0  0  0
  4  7  1  0  0  0  0
  4  1  1  0  0  0  0
  5  8  2  0  0  0  0
  7 14  2  0  0  0  0
  8  7  1  0  0  0  0
  9 10  1  0  0  0  0
 11 15  2  0  0  0  0
 11  2  1  0  0  0  0
 12  5  1  0  0  0  0
 12 16  2  0  0  0  0
 13  3  2  0  0  0  0
 14 13  1  0  0  0  0
 15  9  1  0  0  0  0
 17 10  1  0  0  0  0
 17  6  2  0  0  0  0
 18 11  1  0  0  0  0
 19 18  1  0  0  0  0
 20 19  1  0  0  0  0
 21 22  1  6  0  0  0
 21 20  1  0  0  0  0
 23 24  1  0  0  0  0
 23 21  1  0  0  0  0
 25 23  2  0  0  0  0
M  END
>  <MODEL>
7

>  <REMARK>
 VINA RESULT:      -8.1      1.880      2.508
  Name = 
  5 active torsions:
  status: ('A' for Active; 'I' for Inactive)
    1  A    between atoms: C_2  and  C_21
    2  A    between atoms: C_6  and  C_15
    3  A    between atoms: C_6  and  O_23
    4  A    between atoms: C_15  and  C_21
    5  A    between atoms: C_16  and  O_23
                            x       y       z     vdW  Elec       q    Type
                         _______ _______ _______ _____ _____    ______ ____

>  <TORSDO>
F 5

$$$$
=
 OpenBabel10262419503D

 25 28  0  0  1  0  0  0  0  0999 V2000
  184.4080  178.8390  143.5790 C   0  0  0  0  0  0  0  0  0  0  0  0
  184.1260  178.7570  142.2030 C   0  0  0  0  0  0  0  0  0  0  0  0
  182.0550  178.9730  144.1340 C   0  0  0  0  0  3  0  0  0  0  0  0
  185.6960  178.8390  144.3250 C   0  0  1  0  0  3  0  0  0  0  0  0
  186.9980  177.5880  146.5380 C   0  0  0  0  0  3  0  0  0  0  0  0
  181.7430  178.8260  142.7730 C   0  0  0  0  0  3  0  0  0  0  0  0
  185.1790  178.9050  145.7330 C   0  0  0  0  0  0  0  0  0  0  0  0
  186.0320  178.4640  146.8370 C   0  0  0  0  0  3  0  0  0  0  0  0
  183.4040  177.8520  139.6030 C   0  0  0  0  0  2  0  0  0  0  0  0
  182.4550  178.4670  140.4770 O   0  0  0  0  0  0  0  0  0  0  0  0
  185.1520  178.7360  141.1210 C   0  0  0  0  0  0  0  0  0  0  0  0
  187.1430  177.0750  145.1940 N   0  0  0  0  0  0  0  0  0  0  0  0
  183.3970  178.9760  144.5050 C   0  0  0  0  0  0  0  0  0  0  0  0
  183.8890  178.9850  145.8350 N   0  0  0  0  0  0  0  0  0  0  0  0
  184.7990  178.3310  139.8980 C   0  0  0  0  0  3  0  0  0  0  0  0
  186.5160  177.5870  144.1690 C   0  0  0  0  0  3  0  0  0  0  0  0
  182.7690  178.6890  141.8200 C   0  0  0  0  0  0  0  0  0  0  0  0
  186.4590  179.2020  141.2990 O   0  0  0  0  0  0  0  0  0  0  0  0
  187.5820  178.6280  140.6400 C   0  0  0  0  0  2  0  0  0  0  0  0
  188.6600  178.2220  141.6430 C   0  0  0  0  0  2  0  0  0  0  0  0
  189.5690  177.0980  141.1430 C   0  0  1  0  0  3  0  0  0  0  0  0
  190.2770  177.4640  139.8460 C   0  0  0  0  0  1  0  0  0  0  0  0
  190.5150  176.6030  142.1930 C   0  0  0  0  0  0  0  0  0  0  0  0
  191.4930  177.3050  142.5660 O   0  0  0  0  0  0  0  0  0  0  0  0
  190.2860  175.3730  142.7950 O   0  0  0  0  0  1  0  0  0  0  0  0
  1  4  1  0  0  0  0
  1 13  1  0  0  0  0
  2  1  2  0  0  0  0
  3 13  2  0  0  0  0
  4 16  1  1  0  0  0
  4  7  1  0  0  0  0
  5  8  2  0  0  0  0
  6  3  1  0  0  0  0
  7 14  2  0  0  0  0
  7  8  1  0  0  0  0
  9 15  1  0  0  0  0
  9 10  1  0  0  0  0
 10 17  1  0  0  0  0
 11 18  1  0  0  0  0
 11  2  1  0  0  0  0
 12  5  1  0  0  0  0
 13 14  1  0  0  0  0
 15 11  2  0  0  0  0
 16 12  2  0  0  0  0
 17  2  1  0  0  0  0
 17  6  2  0  0  0  0
 19 18  1  0  0  0  0
 19 20  1  0  0  0  0
 21 22  1  6  0  0  0
 21 20  1  0  0  0  0
 21 23  1  0  0  0  0
 23 24  2  0  0  0  0
 23 25  1  0  0  0  0
M  END
>  <MODEL>
8

>  <REMARK>
 VINA RESULT:      -7.8      2.264      4.612
  Name = 
  5 active torsions:
  status: ('A' for Active; 'I' for Inactive)
    1  A    between atoms: C_2  and  C_21
    2  A    between atoms: C_6  and  C_15
    3  A    between atoms: C_6  and  O_23
    4  A    between atoms: C_15  and  C_21
    5  A    between atoms: C_16  and  O_23
                            x       y       z     vdW  Elec       q    Type
                         _______ _______ _______ _____ _____    ______ ____

>  <TORSDO>
F 5

$$$$
=
 OpenBabel10262419503D

 25 28  0  0  1  0  0  0  0  0999 V2000
  187.2790  177.6110  143.9560 C   0  0  0  0  0  0  0  0  0  0  0  0
  188.6260  177.4100  144.3070 C   0  0  0  0  0  0  0  0  0  0  0  0
  186.6320  177.8750  146.2740 C   0  0  0  0  0  3  0  0  0  0  0  0
  186.5960  177.6340  142.6340 C   0  0  1  0  0  3  0  0  0  0  0  0
  184.7760  179.1980  141.0850 C   0  0  0  0  0  3  0  0  0  0  0  0
  187.9790  177.7440  146.6480 C   0  0  0  0  0  3  0  0  0  0  0  0
  185.1950  177.9480  143.0730 C   0  0  0  0  0  0  0  0  0  0  0  0
  184.2510  178.5280  142.1170 C   0  0  0  0  0  3  0  0  0  0  0  0
  191.3410  177.7790  145.0810 C   0  0  0  0  0  2  0  0  0  0  0  0
  190.3180  177.4890  146.0360 O   0  0  0  0  0  0  0  0  0  0  0  0
  189.7160  177.0690  143.3480 C   0  0  0  0  0  0  0  0  0  0  0  0
  186.2060  179.3720  140.9650 N   0  0  0  0  0  0  0  0  0  0  0  0
  186.3140  177.8040  144.9210 C   0  0  0  0  0  0  0  0  0  0  0  0
  185.0350  178.0400  144.3560 N   0  0  0  0  0  0  0  0  0  0  0  0
  190.9880  177.2230  143.7280 C   0  0  0  0  0  3  0  0  0  0  0  0
  187.0630  178.7170  141.7000 C   0  0  0  0  0  3  0  0  0  0  0  0
  188.9700  177.5440  145.6700 C   0  0  0  0  0  0  0  0  0  0  0  0
  189.4780  176.5100  142.0890 O   0  0  0  0  0  0  0  0  0  0  0  0
  190.4100  176.5930  141.0160 C   0  0  0  0  0  2  0  0  0  0  0  0
  189.9140  177.5450  139.9300 C   0  0  0  0  0  2  0  0  0  0  0  0
  189.2500  176.8350  138.7480 C   0  0  1  0  0  3  0  0  0  0  0  0
  188.3770  177.7740  137.9290 C   0  0  0  0  0  1  0  0  0  0  0  0
  190.2260  176.0750  137.9040 C   0  0  0  0  0  0  0  0  0  0  0  0
  190.5330  174.8850  138.1830 O   0  0  0  0  0  1  0  0  0  0  0  0
  190.7650  176.6740  136.7750 O   0  0  0  0  0  0  0  0  0  0  0  0
  1  2  2  0  0  0  0
  1 13  1  0  0  0  0
  2 17  1  0  0  0  0
  3  6  1  0  0  0  0
  4 16  1  6  0  0  0
  4  7  1  0  0  0  0
  4  1  1  0  0  0  0
  5  8  2  0  0  0  0
  7 14  2  0  0  0  0
  8  7  1  0  0  0  0
  9 10  1  0  0  0  0
 11 15  2  0  0  0  0
 11  2  1  0  0  0  0
 12  5  1  0  0  0  0
 12 16  2  0  0  0  0
 13  3  2  0  0  0  0
 14 13  1  0  0  0  0
 15  9  1  0  0  0  0
 17 10  1  0  0  0  0
 17  6  2  0  0  0  0
 18 11  1  0  0  0  0
 19 18  1  0  0  0  0
 20 19  1  0  0  0  0
 21 22  1  6  0  0  0
 21 20  1  0  0  0  0
 23 24  1  0  0  0  0
 23 21  1  0  0  0  0
 25 23  2  0  0  0  0
M  END
>  <MODEL>
9

>  <REMARK>
 VINA RESULT:      -7.8      1.338      1.827
  Name = 
  5 active torsions:
  status: ('A' for Active; 'I' for Inactive)
    1  A    between atoms: C_2  and  C_21
    2  A    between atoms: C_6  and  C_15
    3  A    between atoms: C_6  and  O_23
    4  A    between atoms: C_15  and  C_21
    5  A    between atoms: C_16  and  O_23
                            x       y       z     vdW  Elec       q    Type
                         _______ _______ _______ _____ _____    ______ ____

>  <TORSDO>
F 5

$$$$
