=
 OpenBabel10262420413D

 55 57  0  0  1  0  0  0  0  0999 V2000
  183.3100  177.6780  139.6350 O   0  0  0  0  0  0  0  0  0  0  0  0
  178.9490  176.3290  141.0790 O   0  0  0  0  0  1  0  0  0  0  0  0
  180.1180  176.6370  140.1720 P   0  0  2  0  0  0  0  0  0  0  0  0
  181.3390  177.6780  141.0420 C   0  0  1  0  0  3  0  0  0  0  0  0
  181.4830  179.0110  138.7780 C   0  0  2  0  0  3  0  0  0  0  0  0
  179.5780  177.4750  138.7950 O   0  0  0  0  0  0  0  0  0  0  0  0
  183.5890  178.7670  140.4840 C   0  0  2  0  0  3  0  0  0  0  0  0
  180.8630  175.1920  139.7070 O   0  0  0  0  0  0  0  0  0  0  0  0
  182.1970  178.4520  140.0320 C   0  0  2  0  0  0  0  0  0  0  0  0
  180.7480  177.8370  138.1060 C   0  0  1  0  0  3  0  0  0  0  0  0
  184.1640  179.8170  139.7610 O   0  0  0  0  0  1  0  0  0  0  0  0
  180.4080  179.9840  141.6600 C   0  0  0  0  0  1  0  0  0  0  0  0
  180.6800  178.5570  142.1220 C   0  0  2  0  0  3  0  0  0  0  0  0
  181.3620  178.5320  143.5010 C   0  0  2  0  0  3  0  0  0  0  0  0
  179.4010  178.0900  144.2720 O   0  0  0  0  0  1  0  0  0  0  0  0
  180.4550  178.8410  144.5250 O   0  0  0  0  0  0  0  0  0  0  0  0
  182.5330  179.5040  143.5630 C   0  0  0  0  0  2  0  0  0  0  0  0
  183.4170  179.2730  144.7710 C   0  0  0  0  0  2  0  0  0  0  0  0
  184.3480  178.0840  144.5510 C   0  0  0  0  0  2  0  0  0  0  0  0
  185.7580  178.5240  144.1350 C   0  0  2  0  0  3  0  0  0  0  0  0
  185.8080  178.9030  142.7930 O   0  0  0  0  0  1  0  0  0  0  0  0
  186.8660  177.5070  144.4560 C   0  0  2  0  0  3  0  0  0  0  0  0
  188.0890  178.0280  145.2300 C   0  0  0  0  0  2  0  0  0  0  0  0
  189.8630  177.1270  146.5520 O   0  0  0  0  0  1  0  0  0  0  0  0
  188.4790  177.1410  146.4130 C   0  0  1  0  0  3  0  0  0  0  0  0
  186.7850  178.6060  147.6230 N   0  0  0  0  0  1  0  0  0  0  0  0
  187.8400  177.6430  147.6740 C   0  0  0  0  0  0  0  0  0  0  0  0
  188.2670  177.2520  148.7920 O   0  0  0  0  0  0  0  0  0  0  0  0
  187.2250  176.6580  143.3640 O   0  0  0  0  0  0  0  0  0  0  0  0
  188.4880  176.6510  142.7600 C   0  0  0  0  0  0  0  0  0  0  0  0
  189.3300  175.7720  143.0760 O   0  0  0  0  0  0  0  0  0  0  0  0
  188.8760  177.7520  141.8350 C   0  0  0  0  0  2  0  0  0  0  0  0
  189.5870  177.1990  140.6940 N   0  0  0  0  0  1  0  0  0  0  0  0
  182.0980  180.9010  137.9660 O   0  0  0  0  0  1  0  0  0  0  0  0
  182.3720  179.6190  137.8830 O   0  0  0  0  0  0  0  0  0  0  0  0
  180.5410  178.0020  136.5940 C   0  0  2  0  0  3  0  0  0  0  0  0
  179.3130  178.7280  136.2850 N   0  0  0  0  0  2  0  0  0  0  0  0
  180.0070  180.6480  134.8410 C   0  0  0  0  0  3  0  0  0  0  0  0
  180.0950  182.8110  135.8720 N   0  0  0  0  0  0  0  0  0  0  0  0
  178.9310  180.9820  137.0100 C   0  0  0  0  0  3  0  0  0  0  0  0
  179.0110  182.4720  136.8040 C   0  0  0  0  0  2  0  0  0  0  0  0
  180.3800  181.9290  134.7760 C   0  0  0  0  0  3  0  0  0  0  0  0
  179.3390  180.1340  136.0560 C   0  0  0  0  0  0  0  0  0  0  0  0
  180.7000  184.1380  135.8720 C   0  0  2  0  0  3  0  0  0  0  0  0
  181.4510  184.3890  137.1720 C   0  0  0  0  0  1  0  0  0  0  0  0
  179.6720  185.1510  135.6920 N   0  0  0  0  0  1  0  0  0  0  0  0
  180.5290  176.6520  135.8760 C   0  0  0  0  0  2  0  0  0  0  0  0
  182.8660  176.9460  135.4670 O   0  0  0  0  0  0  0  0  0  0  0  0
  181.9050  176.1380  135.5990 C   0  0  0  0  0  0  0  0  0  0  0  0
  182.1060  174.7570  135.5330 O   0  0  0  0  0  0  0  0  0  0  0  0
  181.8540  173.8830  136.6280 C   0  0  1  0  0  3  0  0  0  0  0  0
  180.6210  173.0540  136.3250 C   0  0  0  0  0  1  0  0  0  0  0  0
  183.0530  172.9660  136.8740 C   0  0  0  0  0  2  0  0  0  0  0  0
  183.1290  170.5670  136.3350 C   0  0  0  0  0  2  0  0  0  0  0  0
  183.0630  171.8250  135.9050 C   0  0  0  0  0  3  0  0  0  0  0  0
  1  7  1  0  0  0  0
  3  8  2  6  0  0  0
  3  4  1  0  0  0  0
  3  2  1  0  0  0  0
  4 13  1  1  0  0  0
  5 35  1  6  0  0  0
  5  9  1  0  0  0  0
  6  3  1  0  0  0  0
  7 11  1  6  0  0  0
  9  1  1  6  0  0  0
  9  7  1  0  0  0  0
  9  4  1  0  0  0  0
 10 36  1  6  0  0  0
 10  5  1  0  0  0  0
 10  6  1  0  0  0  0
 13 12  1  6  0  0  0
 13 14  1  0  0  0  0
 14 17  1  6  0  0  0
 14 16  1  0  0  0  0
 15 16  1  0  0  0  0
 17 18  1  0  0  0  0
 19 18  1  0  0  0  0
 20 21  1  6  0  0  0
 20 22  1  0  0  0  0
 20 19  1  0  0  0  0
 22 23  1  6  0  0  0
 23 25  1  0  0  0  0
 25 24  1  1  0  0  0
 25 27  1  0  0  0  0
 26 27  1  0  0  0  0
 27 28  2  0  0  0  0
 29 22  1  0  0  0  0
 30 31  2  0  0  0  0
 30 29  1  0  0  0  0
 32 30  1  0  0  0  0
 33 32  1  0  0  0  0
 35 34  1  0  0  0  0
 36 47  1  6  0  0  0
 37 36  1  0  0  0  0
 38 43  1  0  0  0  0
 39 41  1  0  0  0  0
 41 40  1  0  0  0  0
 42 38  2  0  0  0  0
 42 39  1  0  0  0  0
 43 37  1  0  0  0  0
 43 40  2  0  0  0  0
 44 39  1  0  0  0  0
 44 45  1  1  0  0  0
 46 44  1  0  0  0  0
 48 49  2  0  0  0  0
 49 47  1  0  0  0  0
 50 49  1  0  0  0  0
 50 51  1  0  0  0  0
 51 52  1  6  0  0  0
 51 53  1  0  0  0  0
 55 54  2  0  0  0  0
 55 53  1  0  0  0  0
M  END
>  <MODEL>
1

>  <REMARK>
 VINA RESULT:      -5.6      0.000      0.000
  Name = 
  25 active torsions:
  status: ('A' for Active; 'I' for Inactive)
    1  A    between atoms: C_1  and  C_30
    2  A    between atoms: C_1  and  C_53
    3  A    between atoms: O_6  and  C_14
    4  A    between atoms: O_6  and  C_53
    5  A    between atoms: C_7  and  C_8
    6  A    between atoms: C_7  and  C_23
    7  A    between atoms: C_7  and  O_43
    8  A    between atoms: C_8  and  C_20
    9  A    between atoms: C_10  and  N_32
   10  A    between atoms: C_11  and  C_29
   11  A    between atoms: C_11  and  C_38
   12  A    between atoms: C_12  and  C_14
   13  A    between atoms: C_17  and  C_23
   14  A    between atoms: C_19  and  O_40
   15  A    between atoms: C_20  and  C_30
   16  A    between atoms: C_27  and  O_31
   17  A    between atoms: C_27  and  C_55
   18  A    between atoms: C_28  and  C_44
   19  A    between atoms: C_28  and  C_49
   20  A    between atoms: O_31  and  C_44
   21  A    between atoms: N_33  and  C_49
   22  A    between atoms: N_33  and  C_52
   23  A    between atoms: C_38  and  C_53
   24  A    between atoms: C_41  and  C_55
   25  A    between atoms: C_45  and  C_49
                            x       y       z     vdW  Elec       q    Type
                         _______ _______ _______ _____ _____    ______ ____

>  <TORSDO>
F 25

$$$$
=
 OpenBabel10262420413D

 55 57  0  0  1  0  0  0  0  0999 V2000
  188.9730  179.3510  141.4500 O   0  0  0  0  0  0  0  0  0  0  0  0
  191.6430  176.5050  144.2250 O   0  0  0  0  0  1  0  0  0  0  0  0
  191.1610  177.2700  143.0140 P   0  0  2  0  0  0  0  0  0  0  0  0
  189.4190  177.7700  143.2300 C   0  0  1  0  0  3  0  0  0  0  0  0
  189.1340  177.0510  140.7140 C   0  0  2  0  0  3  0  0  0  0  0  0
  191.2750  176.2930  141.6280 O   0  0  0  0  0  0  0  0  0  0  0  0
  187.6620  179.0340  141.8590 C   0  0  2  0  0  3  0  0  0  0  0  0
  192.1080  178.6570  142.8150 O   0  0  0  0  0  0  0  0  0  0  0  0
  188.7610  178.0170  141.8650 C   0  0  2  0  0  0  0  0  0  0  0  0
  190.6700  177.0410  140.6030 C   0  0  1  0  0  3  0  0  0  0  0  0
  186.8200  178.9080  140.7510 O   0  0  0  0  0  1  0  0  0  0  0  0
  187.5640  176.0110  143.4090 C   0  0  0  0  0  1  0  0  0  0  0  0
  188.6490  176.7940  144.1390 C   0  0  2  0  0  3  0  0  0  0  0  0
  188.1230  177.3930  145.4560 C   0  0  2  0  0  3  0  0  0  0  0  0
  189.4710  177.7010  147.1050 O   0  0  0  0  0  1  0  0  0  0  0  0
  188.7050  176.7710  146.5690 O   0  0  0  0  0  0  0  0  0  0  0  0
  186.6080  177.2760  145.5560 C   0  0  0  0  0  2  0  0  0  0  0  0
  185.9340  178.6170  145.7650 C   0  0  0  0  0  2  0  0  0  0  0  0
  184.5400  178.6340  145.1450 C   0  0  0  0  0  2  0  0  0  0  0  0
  184.5840  178.8840  143.6320 C   0  0  2  0  0  3  0  0  0  0  0  0
  184.9490  180.1990  143.3350 O   0  0  0  0  0  1  0  0  0  0  0  0
  183.3010  178.4920  142.8810 C   0  0  2  0  0  3  0  0  0  0  0  0
  183.1330  179.0370  141.4530 C   0  0  0  0  0  2  0  0  0  0  0  0
  182.9540  176.9490  140.3080 O   0  0  0  0  0  1  0  0  0  0  0  0
  183.7110  178.1140  140.3800 C   0  0  1  0  0  3  0  0  0  0  0  0
  184.1890  180.1490  138.9290 N   0  0  0  0  0  1  0  0  0  0  0  0
  183.7220  178.8040  139.0480 C   0  0  0  0  0  0  0  0  0  0  0  0
  183.2720  178.2130  138.0320 O   0  0  0  0  0  0  0  0  0  0  0  0
  182.1050  178.5970  143.6560 O   0  0  0  0  0  0  0  0  0  0  0  0
  180.8870  179.0700  143.1550 C   0  0  0  0  0  0  0  0  0  0  0  0
  180.5930  180.2880  143.2640 O   0  0  0  0  0  0  0  0  0  0  0  0
  179.8890  178.1130  142.6000 C   0  0  0  0  0  2  0  0  0  0  0  0
  179.6450  178.4230  141.2010 N   0  0  0  0  0  1  0  0  0  0  0  0
  189.2880  178.4190  139.0670 O   0  0  0  0  0  1  0  0  0  0  0  0
  188.5500  177.4210  139.4970 O   0  0  0  0  0  0  0  0  0  0  0  0
  191.2000  176.7020  139.2030 C   0  0  2  0  0  3  0  0  0  0  0  0
  190.8220  175.3560  138.7850 N   0  0  0  0  0  2  0  0  0  0  0  0
  189.7700  176.3170  136.7300 C   0  0  0  0  0  3  0  0  0  0  0  0
  188.1190  174.9780  135.6220 N   0  0  0  0  0  0  0  0  0  0  0  0
  189.5830  173.9460  137.2920 C   0  0  0  0  0  3  0  0  0  0  0  0
  188.7700  173.7290  136.0420 C   0  0  0  0  0  2  0  0  0  0  0  0
  188.8030  176.2250  135.8120 C   0  0  0  0  0  3  0  0  0  0  0  0
  190.1040  175.1480  137.5710 C   0  0  0  0  0  0  0  0  0  0  0  0
  186.9300  174.9590  134.7780 C   0  0  2  0  0  3  0  0  0  0  0  0
  186.3750  176.3640  134.5940 C   0  0  0  0  0  1  0  0  0  0  0  0
  185.9160  174.1010  135.3700 N   0  0  0  0  0  1  0  0  0  0  0  0
  192.7210  176.8510  139.1250 C   0  0  0  0  0  2  0  0  0  0  0  0
  193.2830  176.8140  136.8020 O   0  0  0  0  0  0  0  0  0  0  0  0
  193.3000  176.2050  137.9090 C   0  0  0  0  0  0  0  0  0  0  0  0
  193.8890  174.9450  138.0330 O   0  0  0  0  0  0  0  0  0  0  0  0
  195.2830  174.7180  137.8520 C   0  0  1  0  0  3  0  0  0  0  0  0
  195.8920  174.3030  139.1760 C   0  0  0  0  0  1  0  0  0  0  0  0
  195.5220  173.6320  136.8030 C   0  0  0  0  0  2  0  0  0  0  0  0
  197.6310  174.7890  136.2850 C   0  0  0  0  0  2  0  0  0  0  0  0
  196.9410  173.6520  136.3250 C   0  0  0  0  0  3  0  0  0  0  0  0
  1  7  1  0  0  0  0
  3  8  2  6  0  0  0
  3  4  1  0  0  0  0
  3  2  1  0  0  0  0
  4 13  1  6  0  0  0
  5 35  1  6  0  0  0
  5  9  1  0  0  0  0
  6  3  1  0  0  0  0
  7 11  1  6  0  0  0
  7  9  1  0  0  0  0
  9  1  1  6  0  0  0
  9  4  1  0  0  0  0
 10 36  1  6  0  0  0
 10  5  1  0  0  0  0
 10  6  1  0  0  0  0
 13 12  1  6  0  0  0
 13 14  1  0  0  0  0
 14 17  1  1  0  0  0
 14 16  1  0  0  0  0
 16 15  1  0  0  0  0
 17 18  1  0  0  0  0
 19 18  1  0  0  0  0
 20 21  1  1  0  0  0
 20 19  1  0  0  0  0
 22 23  1  6  0  0  0
 22 20  1  0  0  0  0
 22 29  1  0  0  0  0
 25 24  1  6  0  0  0
 25 23  1  0  0  0  0
 26 27  1  0  0  0  0
 27 25  1  0  0  0  0
 28 27  2  0  0  0  0
 30 31  2  0  0  0  0
 30 29  1  0  0  0  0
 32 30  1  0  0  0  0
 33 32  1  0  0  0  0
 34 35  1  0  0  0  0
 36 47  1  1  0  0  0
 37 36  1  0  0  0  0
 38 43  1  0  0  0  0
 39 42  1  0  0  0  0
 39 41  1  0  0  0  0
 40 43  2  0  0  0  0
 41 40  1  0  0  0  0
 42 38  2  0  0  0  0
 43 37  1  0  0  0  0
 44 45  1  1  0  0  0
 44 46  1  0  0  0  0
 44 39  1  0  0  0  0
 48 49  2  0  0  0  0
 49 50  1  0  0  0  0
 49 47  1  0  0  0  0
 51 50  1  0  0  0  0
 51 52  1  1  0  0  0
 53 51  1  0  0  0  0
 54 55  2  0  0  0  0
 55 53  1  0  0  0  0
M  END
>  <MODEL>
2

>  <REMARK>
 VINA RESULT:      -5.4      4.761      9.908
  Name = 
  25 active torsions:
  status: ('A' for Active; 'I' for Inactive)
    1  A    between atoms: C_1  and  C_30
    2  A    between atoms: C_1  and  C_53
    3  A    between atoms: O_6  and  C_14
    4  A    between atoms: O_6  and  C_53
    5  A    between atoms: C_7  and  C_8
    6  A    between atoms: C_7  and  C_23
    7  A    between atoms: C_7  and  O_43
    8  A    between atoms: C_8  and  C_20
    9  A    between atoms: C_10  and  N_32
   10  A    between atoms: C_11  and  C_29
   11  A    between atoms: C_11  and  C_38
   12  A    between atoms: C_12  and  C_14
   13  A    between atoms: C_17  and  C_23
   14  A    between atoms: C_19  and  O_40
   15  A    between atoms: C_20  and  C_30
   16  A    between atoms: C_27  and  O_31
   17  A    between atoms: C_27  and  C_55
   18  A    between atoms: C_28  and  C_44
   19  A    between atoms: C_28  and  C_49
   20  A    between atoms: O_31  and  C_44
   21  A    between atoms: N_33  and  C_49
   22  A    between atoms: N_33  and  C_52
   23  A    between atoms: C_38  and  C_53
   24  A    between atoms: C_41  and  C_55
   25  A    between atoms: C_45  and  C_49
                            x       y       z     vdW  Elec       q    Type
                         _______ _______ _______ _____ _____    ______ ____

>  <TORSDO>
F 25

$$$$
=
 OpenBabel10262420413D

 55 57  0  0  1  0  0  0  0  0999 V2000
  183.4520  177.4750  139.7650 O   0  0  0  0  0  0  0  0  0  0  0  0
  178.9420  176.3990  140.9590 O   0  0  0  0  0  1  0  0  0  0  0  0
  180.1670  176.6720  140.1170 P   0  0  2  0  0  0  0  0  0  0  0  0
  181.4340  177.5410  141.1020 C   0  0  1  0  0  3  0  0  0  0  0  0
  181.7750  179.0170  138.9510 C   0  0  2  0  0  3  0  0  0  0  0  0
  179.7510  177.6500  138.7900 O   0  0  0  0  0  0  0  0  0  0  0  0
  183.7860  178.4730  140.7020 C   0  0  2  0  0  3  0  0  0  0  0  0
  180.8090  175.2070  139.5690 O   0  0  0  0  0  0  0  0  0  0  0  0
  182.3920  178.3110  140.1820 C   0  0  2  0  0  0  0  0  0  0  0  0
  180.9730  177.9610  138.1690 C   0  0  1  0  0  3  0  0  0  0  0  0
  184.4730  179.5200  140.0790 O   0  0  0  0  0  1  0  0  0  0  0  0
  180.5720  179.8440  141.8230 C   0  0  0  0  0  1  0  0  0  0  0  0
  180.8080  178.3920  142.2230 C   0  0  2  0  0  3  0  0  0  0  0  0
  181.4990  178.2910  143.5940 C   0  0  2  0  0  3  0  0  0  0  0  0
  179.5430  178.0670  144.4660 O   0  0  0  0  0  1  0  0  0  0  0  0
  180.6620  178.7460  144.6240 O   0  0  0  0  0  0  0  0  0  0  0  0
  182.8000  179.0820  143.6230 C   0  0  0  0  0  2  0  0  0  0  0  0
  183.3910  179.1790  145.0150 C   0  0  0  0  0  2  0  0  0  0  0  0
  184.4910  178.1410  145.2170 C   0  0  0  0  0  2  0  0  0  0  0  0
  185.7230  178.4290  144.3500 C   0  0  2  0  0  3  0  0  0  0  0  0
  185.5740  177.9280  143.0560 O   0  0  0  0  0  1  0  0  0  0  0  0
  187.0580  177.9710  144.9610 C   0  0  2  0  0  3  0  0  0  0  0  0
  188.0060  177.1740  144.0500 C   0  0  0  0  0  2  0  0  0  0  0  0
  189.8280  178.3900  145.0020 O   0  0  0  0  0  1  0  0  0  0  0  0
  189.3420  177.8770  143.8040 C   0  0  1  0  0  3  0  0  0  0  0  0
  189.9220  175.9440  142.2550 N   0  0  0  0  0  1  0  0  0  0  0  0
  190.3350  176.9210  143.2120 C   0  0  0  0  0  0  0  0  0  0  0  0
  191.5330  176.9450  143.5950 O   0  0  0  0  0  0  0  0  0  0  0  0
  186.9470  177.4060  146.2700 O   0  0  0  0  0  0  0  0  0  0  0  0
  187.2170  178.1080  147.4500 C   0  0  0  0  0  0  0  0  0  0  0  0
  186.5000  179.0890  147.7750 O   0  0  0  0  0  0  0  0  0  0  0  0
  188.4220  177.7690  148.2570 C   0  0  0  0  0  2  0  0  0  0  0  0
  189.1090  176.6390  147.6550 N   0  0  0  0  0  1  0  0  0  0  0  0
  182.6870  180.8900  138.4300 O   0  0  0  0  0  1  0  0  0  0  0  0
  182.7450  179.6100  138.1340 O   0  0  0  0  0  0  0  0  0  0  0  0
  180.8390  178.2520  136.6670 C   0  0  2  0  0  3  0  0  0  0  0  0
  179.6120  178.9760  136.3570 N   0  0  0  0  0  2  0  0  0  0  0  0
  180.2640  181.2670  135.5960 C   0  0  0  0  0  3  0  0  0  0  0  0
  180.0720  183.0430  137.1960 N   0  0  0  0  0  0  0  0  0  0  0  0
  178.9730  180.9000  137.6400 C   0  0  0  0  0  3  0  0  0  0  0  0
  178.9420  182.3880  137.8700 C   0  0  0  0  0  2  0  0  0  0  0  0
  180.5290  182.5320  135.9350 C   0  0  0  0  0  3  0  0  0  0  0  0
  179.5360  180.3880  136.5370 C   0  0  0  0  0  0  0  0  0  0  0  0
  180.5580  184.3460  137.6360 C   0  0  2  0  0  3  0  0  0  0  0  0
  179.4790  185.4070  137.4760 C   0  0  0  0  0  1  0  0  0  0  0  0
  181.7360  184.7200  136.8690 N   0  0  0  0  0  1  0  0  0  0  0  0
  180.8980  176.9680  135.8370 C   0  0  0  0  0  2  0  0  0  0  0  0
  183.2610  177.3220  135.7560 O   0  0  0  0  0  0  0  0  0  0  0  0
  182.2990  176.5270  135.5610 C   0  0  0  0  0  0  0  0  0  0  0  0
  182.5180  175.2180  135.1280 O   0  0  0  0  0  0  0  0  0  0  0  0
  183.3130  174.2840  135.8520 C   0  0  1  0  0  3  0  0  0  0  0  0
  183.5390  173.0570  134.9910 C   0  0  0  0  0  1  0  0  0  0  0  0
  184.6560  174.9040  136.2400 C   0  0  0  0  0  2  0  0  0  0  0  0
  186.8320  175.3540  135.1850 C   0  0  0  0  0  2  0  0  0  0  0  0
  185.6720  174.7020  135.1590 C   0  0  0  0  0  3  0  0  0  0  0  0
  1  7  1  0  0  0  0
  3  8  2  6  0  0  0
  3  2  1  0  0  0  0
  3  4  1  0  0  0  0
  4 13  1  1  0  0  0
  5 35  1  6  0  0  0
  5  9  1  0  0  0  0
  6  3  1  0  0  0  0
  7 11  1  6  0  0  0
  9  1  1  6  0  0  0
  9  7  1  0  0  0  0
  9  4  1  0  0  0  0
 10 36  1  6  0  0  0
 10  6  1  0  0  0  0
 10  5  1  0  0  0  0
 13 12  1  6  0  0  0
 13 14  1  0  0  0  0
 14 17  1  6  0  0  0
 14 16  1  0  0  0  0
 15 16  1  0  0  0  0
 17 18  1  0  0  0  0
 18 19  1  0  0  0  0
 20 21  1  6  0  0  0
 20 22  1  0  0  0  0
 20 19  1  0  0  0  0
 22 23  1  6  0  0  0
 22 29  1  0  0  0  0
 25 23  1  0  0  0  0
 25 24  1  1  0  0  0
 26 27  1  0  0  0  0
 27 28  2  0  0  0  0
 27 25  1  0  0  0  0
 29 30  1  0  0  0  0
 30 31  2  0  0  0  0
 30 32  1  0  0  0  0
 33 32  1  0  0  0  0
 35 34  1  0  0  0  0
 36 47  1  6  0  0  0
 37 43  1  0  0  0  0
 37 36  1  0  0  0  0
 38 42  2  0  0  0  0
 38 43  1  0  0  0  0
 39 44  1  0  0  0  0
 39 41  1  0  0  0  0
 40 41  1  0  0  0  0
 42 39  1  0  0  0  0
 43 40  2  0  0  0  0
 44 45  1  6  0  0  0
 46 44  1  0  0  0  0
 49 48  2  0  0  0  0
 49 47  1  0  0  0  0
 50 49  1  0  0  0  0
 50 51  1  0  0  0  0
 51 52  1  6  0  0  0
 51 53  1  0  0  0  0
 55 54  2  0  0  0  0
 55 53  1  0  0  0  0
M  END
>  <MODEL>
3

>  <REMARK>
 VINA RESULT:      -5.2      1.488      2.666
  Name = 
  25 active torsions:
  status: ('A' for Active; 'I' for Inactive)
    1  A    between atoms: C_1  and  C_30
    2  A    between atoms: C_1  and  C_53
    3  A    between atoms: O_6  and  C_14
    4  A    between atoms: O_6  and  C_53
    5  A    between atoms: C_7  and  C_8
    6  A    between atoms: C_7  and  C_23
    7  A    between atoms: C_7  and  O_43
    8  A    between atoms: C_8  and  C_20
    9  A    between atoms: C_10  and  N_32
   10  A    between atoms: C_11  and  C_29
   11  A    between atoms: C_11  and  C_38
   12  A    between atoms: C_12  and  C_14
   13  A    between atoms: C_17  and  C_23
   14  A    between atoms: C_19  and  O_40
   15  A    between atoms: C_20  and  C_30
   16  A    between atoms: C_27  and  O_31
   17  A    between atoms: C_27  and  C_55
   18  A    between atoms: C_28  and  C_44
   19  A    between atoms: C_28  and  C_49
   20  A    between atoms: O_31  and  C_44
   21  A    between atoms: N_33  and  C_49
   22  A    between atoms: N_33  and  C_52
   23  A    between atoms: C_38  and  C_53
   24  A    between atoms: C_41  and  C_55
   25  A    between atoms: C_45  and  C_49
                            x       y       z     vdW  Elec       q    Type
                         _______ _______ _______ _____ _____    ______ ____

>  <TORSDO>
F 25

$$$$
=
 OpenBabel10262420413D

 55 57  0  0  1  0  0  0  0  0999 V2000
  184.5600  175.5480  137.3720 O   0  0  0  0  0  0  0  0  0  0  0  0
  185.2770  179.5060  139.9700 O   0  0  0  0  0  0  0  0  0  0  0  0
  184.5670  178.3910  139.2380 P   0  0  2  0  0  0  0  0  0  0  0  0
  185.7110  177.5550  138.0890 C   0  0  1  0  0  3  0  0  0  0  0  0
  183.6890  177.5870  136.4040 C   0  0  2  0  0  3  0  0  0  0  0  0
  183.2670  179.0220  138.3420 O   0  0  0  0  0  0  0  0  0  0  0  0
  185.5800  175.6290  136.4040 C   0  0  2  0  0  3  0  0  0  0  0  0
  183.9940  177.2610  140.3580 O   0  0  0  0  0  1  0  0  0  0  0  0
  184.9280  176.8520  136.9710 C   0  0  2  0  0  0  0  0  0  0  0  0
  182.7770  177.9360  137.5940 C   0  0  1  0  0  3  0  0  0  0  0  0
  185.0840  175.2940  135.1410 O   0  0  0  0  0  1  0  0  0  0  0  0
  186.7590  178.7680  136.0890 C   0  0  0  0  0  1  0  0  0  0  0  0
  186.8190  178.5020  137.5890 C   0  0  2  0  0  3  0  0  0  0  0  0
  188.2460  178.1470  138.0420 C   0  0  2  0  0  3  0  0  0  0  0  0
  188.6370  176.7160  136.4820 O   0  0  0  0  0  1  0  0  0  0  0  0
  188.5400  176.7980  137.7940 O   0  0  0  0  0  0  0  0  0  0  0  0
  188.4490  178.4370  139.5240 C   0  0  0  0  0  2  0  0  0  0  0  0
  189.2690  177.3690  140.2180 C   0  0  0  0  0  2  0  0  0  0  0  0
  189.5140  177.7280  141.6800 C   0  0  0  0  0  2  0  0  0  0  0  0
  188.5450  177.0040  142.6230 C   0  0  2  0  0  3  0  0  0  0  0  0
  187.2320  177.4450  142.4550 O   0  0  0  0  0  1  0  0  0  0  0  0
  188.9470  177.0420  144.1070 C   0  0  2  0  0  3  0  0  0  0  0  0
  187.8300  176.8150  145.1390 C   0  0  0  0  0  2  0  0  0  0  0  0
  185.9320  178.2590  145.2760 O   0  0  0  0  0  1  0  0  0  0  0  0
  187.2500  178.1140  145.6990 C   0  0  1  0  0  3  0  0  0  0  0  0
  188.3760  177.4450  147.8800 N   0  0  0  0  0  1  0  0  0  0  0  0
  187.3120  178.1120  147.1980 C   0  0  0  0  0  0  0  0  0  0  0  0
  186.3960  178.6580  147.8640 O   0  0  0  0  0  0  0  0  0  0  0  0
  189.8110  178.1260  144.4590 O   0  0  0  0  0  0  0  0  0  0  0  0
  191.1650  177.9740  144.7790 C   0  0  0  0  0  0  0  0  0  0  0  0
  191.9920  178.8610  144.4450 O   0  0  0  0  0  0  0  0  0  0  0  0
  191.6440  176.7120  145.4090 C   0  0  0  0  0  2  0  0  0  0  0  0
  191.2240  176.6740  146.7990 N   0  0  0  0  0  1  0  0  0  0  0  0
  182.5390  177.6980  134.5950 O   0  0  0  0  0  1  0  0  0  0  0  0
  183.0000  176.8200  135.4570 O   0  0  0  0  0  0  0  0  0  0  0  0
  181.2900  178.0610  137.2360 C   0  0  2  0  0  3  0  0  0  0  0  0
  180.6070  179.0480  138.0670 N   0  0  0  0  0  2  0  0  0  0  0  0
  180.6950  180.7040  136.1960 C   0  0  0  0  0  3  0  0  0  0  0  0
  179.9780  182.9390  136.6840 N   0  0  0  0  0  0  0  0  0  0  0  0
  179.4370  181.1340  138.2470 C   0  0  0  0  0  3  0  0  0  0  0  0
  179.0170  182.4700  137.6920 C   0  0  0  0  0  2  0  0  0  0  0  0
  180.6130  181.9840  135.8210 C   0  0  0  0  0  3  0  0  0  0  0  0
  180.1670  180.2840  137.5120 C   0  0  0  0  0  0  0  0  0  0  0  0
  180.0940  184.3560  136.3580 C   0  0  2  0  0  3  0  0  0  0  0  0
  179.7310  184.6060  134.9010 C   0  0  0  0  0  1  0  0  0  0  0  0
  181.4500  184.8140  136.6150 N   0  0  0  0  0  1  0  0  0  0  0  0
  180.5690  176.7160  137.3450 C   0  0  0  0  0  2  0  0  0  0  0  0
  178.9310  177.0050  139.0620 O   0  0  0  0  0  0  0  0  0  0  0  0
  180.0200  176.4690  138.7130 C   0  0  0  0  0  0  0  0  0  0  0  0
  180.7100  175.6080  139.5690 O   0  0  0  0  0  0  0  0  0  0  0  0
  180.1320  174.4260  140.1140 C   0  0  1  0  0  3  0  0  0  0  0  0
  179.1360  174.8140  141.1880 C   0  0  0  0  0  1  0  0  0  0  0  0
  179.4340  173.6130  139.0230 C   0  0  0  0  0  2  0  0  0  0  0  0
  180.2540  171.9930  137.3630 C   0  0  0  0  0  2  0  0  0  0  0  0
  180.4130  173.1590  137.9850 C   0  0  0  0  0  3  0  0  0  0  0  0
  3  2  2  1  0  0  0
  3  8  1  0  0  0  0
  4 13  1  6  0  0  0
  4  3  1  0  0  0  0
  5 35  1  6  0  0  0
  5  9  1  0  0  0  0
  5 10  1  0  0  0  0
  6  3  1  0  0  0  0
  7 11  1  6  0  0  0
  7  9  1  0  0  0  0
  7  1  1  0  0  0  0
  9  1  1  1  0  0  0
  9  4  1  0  0  0  0
 10 36  1  6  0  0  0
 10  6  1  0  0  0  0
 13 12  1  6  0  0  0
 13 14  1  0  0  0  0
 14 17  1  1  0  0  0
 15 16  1  0  0  0  0
 16 14  1  0  0  0  0
 17 18  1  0  0  0  0
 18 19  1  0  0  0  0
 19 20  1  0  0  0  0
 20 21  1  1  0  0  0
 20 22  1  0  0  0  0
 22 29  1  0  0  0  0
 22 23  1  1  0  0  0
 23 25  1  0  0  0  0
 25 24  1  1  0  0  0
 25 27  1  0  0  0  0
 27 28  2  0  0  0  0
 27 26  1  0  0  0  0
 29 30  1  0  0  0  0
 30 32  1  0  0  0  0
 31 30  2  0  0  0  0
 32 33  1  0  0  0  0
 34 35  1  0  0  0  0
 36 47  1  1  0  0  0
 36 37  1  0  0  0  0
 38 43  1  0  0  0  0
 39 41  1  0  0  0  0
 41 40  1  0  0  0  0
 42 38  2  0  0  0  0
 42 39  1  0  0  0  0
 43 37  1  0  0  0  0
 43 40  2  0  0  0  0
 44 45  1  6  0  0  0
 44 46  1  0  0  0  0
 44 39  1  0  0  0  0
 47 49  1  0  0  0  0
 49 48  2  0  0  0  0
 49 50  1  0  0  0  0
 50 51  1  0  0  0  0
 51 52  1  1  0  0  0
 53 51  1  0  0  0  0
 54 55  2  0  0  0  0
 55 53  1  0  0  0  0
M  END
>  <MODEL>
4

>  <REMARK>
 VINA RESULT:      -4.7      2.656      4.756
  Name = 
  25 active torsions:
  status: ('A' for Active; 'I' for Inactive)
    1  A    between atoms: C_1  and  C_30
    2  A    between atoms: C_1  and  C_53
    3  A    between atoms: O_6  and  C_14
    4  A    between atoms: O_6  and  C_53
    5  A    between atoms: C_7  and  C_8
    6  A    between atoms: C_7  and  C_23
    7  A    between atoms: C_7  and  O_43
    8  A    between atoms: C_8  and  C_20
    9  A    between atoms: C_10  and  N_32
   10  A    between atoms: C_11  and  C_29
   11  A    between atoms: C_11  and  C_38
   12  A    between atoms: C_12  and  C_14
   13  A    between atoms: C_17  and  C_23
   14  A    between atoms: C_19  and  O_40
   15  A    between atoms: C_20  and  C_30
   16  A    between atoms: C_27  and  O_31
   17  A    between atoms: C_27  and  C_55
   18  A    between atoms: C_28  and  C_44
   19  A    between atoms: C_28  and  C_49
   20  A    between atoms: O_31  and  C_44
   21  A    between atoms: N_33  and  C_49
   22  A    between atoms: N_33  and  C_52
   23  A    between atoms: C_38  and  C_53
   24  A    between atoms: C_41  and  C_55
   25  A    between atoms: C_45  and  C_49
                            x       y       z     vdW  Elec       q    Type
                         _______ _______ _______ _____ _____    ______ ____

>  <TORSDO>
F 25

$$$$
=
 OpenBabel10262420413D

 55 57  0  0  1  0  0  0  0  0999 V2000
  188.7590  179.4280  141.0880 O   0  0  0  0  0  0  0  0  0  0  0  0
  191.7560  176.2710  143.0840 O   0  0  0  0  0  1  0  0  0  0  0  0
  191.0170  177.0670  142.0330 P   0  0  2  0  0  0  0  0  0  0  0  0
  189.5370  177.8520  142.7550 C   0  0  1  0  0  3  0  0  0  0  0  0
  188.3340  177.1110  140.5350 C   0  0  2  0  0  3  0  0  0  0  0  0
  190.5230  176.0410  140.7710 O   0  0  0  0  0  0  0  0  0  0  0  0
  187.6270  179.3440  141.9220 C   0  0  2  0  0  3  0  0  0  0  0  0
  192.0340  178.2730  141.4240 O   0  0  0  0  0  0  0  0  0  0  0  0
  188.5070  178.1610  141.6600 C   0  0  2  0  0  0  0  0  0  0  0  0
  189.7270  176.8460  139.9360 C   0  0  1  0  0  3  0  0  0  0  0  0
  186.4570  179.3220  141.1590 O   0  0  0  0  0  1  0  0  0  0  0  0
  187.9820  175.9680  143.5300 C   0  0  0  0  0  1  0  0  0  0  0  0
  188.9780  177.0450  143.9430 C   0  0  2  0  0  3  0  0  0  0  0  0
  188.4480  177.8830  145.1200 C   0  0  2  0  0  3  0  0  0  0  0  0
  190.4080  177.3170  145.8080 O   0  0  0  0  0  1  0  0  0  0  0  0
  189.2360  177.7080  146.2670 O   0  0  0  0  0  0  0  0  0  0  0  0
  187.0030  177.5300  145.4490 C   0  0  0  0  0  2  0  0  0  0  0  0
  186.0510  178.6790  145.1870 C   0  0  0  0  0  2  0  0  0  0  0  0
  185.0650  178.3320  144.0750 C   0  0  0  0  0  2  0  0  0  0  0  0
  183.7630  179.1350  144.1860 C   0  0  2  0  0  3  0  0  0  0  0  0
  183.2490  179.1110  145.4840 O   0  0  0  0  0  1  0  0  0  0  0  0
  182.6820  178.7460  143.1650 C   0  0  2  0  0  3  0  0  0  0  0  0
  183.1640  178.1880  141.8150 C   0  0  0  0  0  2  0  0  0  0  0  0
  183.2940  179.4450  139.7880 O   0  0  0  0  0  1  0  0  0  0  0  0
  182.4090  178.7640  140.6170 C   0  0  1  0  0  3  0  0  0  0  0  0
  182.4930  176.7070  139.1210 N   0  0  0  0  0  1  0  0  0  0  0  0
  181.7280  177.6670  139.8520 C   0  0  0  0  0  0  0  0  0  0  0  0
  180.4710  177.6170  139.8120 O   0  0  0  0  0  0  0  0  0  0  0  0
  181.6300  179.7030  143.0210 O   0  0  0  0  0  0  0  0  0  0  0  0
  180.2970  179.4580  143.3660 C   0  0  0  0  0  0  0  0  0  0  0  0
  180.0270  178.7180  144.3470 O   0  0  0  0  0  0  0  0  0  0  0  0
  179.1980  179.9750  142.5030 C   0  0  0  0  0  2  0  0  0  0  0  0
  179.7370  180.9320  141.5510 N   0  0  0  0  0  1  0  0  0  0  0  0
  187.9750  178.6330  139.0640 O   0  0  0  0  0  1  0  0  0  0  0  0
  187.4390  177.5330  139.5440 O   0  0  0  0  0  0  0  0  0  0  0  0
  189.7100  176.3800  138.4740 C   0  0  2  0  0  3  0  0  0  0  0  0
  190.6300  175.2730  138.2400 N   0  0  0  0  0  2  0  0  0  0  0  0
  192.0110  174.4760  136.3140 C   0  0  0  0  0  3  0  0  0  0  0  0
  194.2870  175.2260  136.2200 N   0  0  0  0  0  0  0  0  0  0  0  0
  192.7110  176.3480  137.7220 C   0  0  0  0  0  3  0  0  0  0  0  0
  193.9540  176.4950  136.8840 C   0  0  0  0  0  2  0  0  0  0  0  0
  193.2260  174.3720  135.7680 C   0  0  0  0  0  3  0  0  0  0  0  0
  191.7740  175.4430  137.4070 C   0  0  0  0  0  0  0  0  0  0  0  0
  195.6450  174.9470  135.7690 C   0  0  2  0  0  3  0  0  0  0  0  0
  195.7400  173.5520  135.1690 C   0  0  0  0  0  1  0  0  0  0  0  0
  196.5720  175.0690  136.8840 N   0  0  0  0  0  1  0  0  0  0  0  0
  190.0340  177.5250  137.5140 C   0  0  0  0  0  2  0  0  0  0  0  0
  189.9260  177.4550  135.1260 O   0  0  0  0  0  0  0  0  0  0  0  0
  189.2940  177.4170  136.2200 C   0  0  0  0  0  0  0  0  0  0  0  0
  187.9100  177.2330  136.2510 O   0  0  0  0  0  0  0  0  0  0  0  0
  187.2740  176.0470  135.7860 C   0  0  1  0  0  3  0  0  0  0  0  0
  188.3360  175.0300  135.4150 C   0  0  0  0  0  1  0  0  0  0  0  0
  186.3510  175.4710  136.8600 C   0  0  0  0  0  2  0  0  0  0  0  0
  184.3280  174.4550  135.8980 C   0  0  0  0  0  2  0  0  0  0  0  0
  185.5770  174.3030  136.3320 C   0  0  0  0  0  3  0  0  0  0  0  0
  1  7  1  0  0  0  0
  3  8  2  6  0  0  0
  3  4  1  0  0  0  0
  3  2  1  0  0  0  0
  4 13  1  1  0  0  0
  5 35  1  6  0  0  0
  5  9  1  0  0  0  0
  6  3  1  0  0  0  0
  7 11  1  6  0  0  0
  9  1  1  6  0  0  0
  9  7  1  0  0  0  0
  9  4  1  0  0  0  0
 10 36  1  6  0  0  0
 10  5  1  0  0  0  0
 10  6  1  0  0  0  0
 13 12  1  6  0  0  0
 13 14  1  0  0  0  0
 14 17  1  1  0  0  0
 14 16  1  0  0  0  0
 15 16  1  0  0  0  0
 18 17  1  0  0  0  0
 19 20  1  0  0  0  0
 19 18  1  0  0  0  0
 20 21  1  1  0  0  0
 22 23  1  6  0  0  0
 22 20  1  0  0  0  0
 25 24  1  6  0  0  0
 25 23  1  0  0  0  0
 26 27  1  0  0  0  0
 27 25  1  0  0  0  0
 28 27  2  0  0  0  0
 29 22  1  0  0  0  0
 29 30  1  0  0  0  0
 30 31  2  0  0  0  0
 32 30  1  0  0  0  0
 33 32  1  0  0  0  0
 34 35  1  0  0  0  0
 36 47  1  6  0  0  0
 37 36  1  0  0  0  0
 38 43  1  0  0  0  0
 39 41  1  0  0  0  0
 41 40  1  0  0  0  0
 42 39  1  0  0  0  0
 42 38  2  0  0  0  0
 43 40  2  0  0  0  0
 43 37  1  0  0  0  0
 44 45  1  1  0  0  0
 44 39  1  0  0  0  0
 44 46  1  0  0  0  0
 48 49  2  0  0  0  0
 49 50  1  0  0  0  0
 49 47  1  0  0  0  0
 51 52  1  1  0  0  0
 51 50  1  0  0  0  0
 51 53  1  0  0  0  0
 54 55  2  0  0  0  0
 55 53  1  0  0  0  0
M  END
>  <MODEL>
5

>  <REMARK>
 VINA RESULT:      -4.5      4.464      9.857
  Name = 
  25 active torsions:
  status: ('A' for Active; 'I' for Inactive)
    1  A    between atoms: C_1  and  C_30
    2  A    between atoms: C_1  and  C_53
    3  A    between atoms: O_6  and  C_14
    4  A    between atoms: O_6  and  C_53
    5  A    between atoms: C_7  and  C_8
    6  A    between atoms: C_7  and  C_23
    7  A    between atoms: C_7  and  O_43
    8  A    between atoms: C_8  and  C_20
    9  A    between atoms: C_10  and  N_32
   10  A    between atoms: C_11  and  C_29
   11  A    between atoms: C_11  and  C_38
   12  A    between atoms: C_12  and  C_14
   13  A    between atoms: C_17  and  C_23
   14  A    between atoms: C_19  and  O_40
   15  A    between atoms: C_20  and  C_30
   16  A    between atoms: C_27  and  O_31
   17  A    between atoms: C_27  and  C_55
   18  A    between atoms: C_28  and  C_44
   19  A    between atoms: C_28  and  C_49
   20  A    between atoms: O_31  and  C_44
   21  A    between atoms: N_33  and  C_49
   22  A    between atoms: N_33  and  C_52
   23  A    between atoms: C_38  and  C_53
   24  A    between atoms: C_41  and  C_55
   25  A    between atoms: C_45  and  C_49
                            x       y       z     vdW  Elec       q    Type
                         _______ _______ _______ _____ _____    ______ ____

>  <TORSDO>
F 25

$$$$
=
 OpenBabel10262420413D

 55 57  0  0  1  0  0  0  0  0999 V2000
  185.0380  175.5630  137.5470 O   0  0  0  0  0  0  0  0  0  0  0  0
  185.4100  179.5900  140.1100 O   0  0  0  0  0  0  0  0  0  0  0  0
  184.7990  178.4070  139.3950 P   0  0  2  0  0  0  0  0  0  0  0  0
  186.0020  177.6750  138.2350 C   0  0  1  0  0  3  0  0  0  0  0  0
  183.9630  177.5030  136.5790 C   0  0  2  0  0  3  0  0  0  0  0  0
  183.4330  178.9050  138.5140 O   0  0  0  0  0  0  0  0  0  0  0  0
  186.0320  175.7340  136.5630 C   0  0  2  0  0  3  0  0  0  0  0  0
  184.3520  177.2360  140.5300 O   0  0  0  0  0  1  0  0  0  0  0  0
  185.2740  176.8930  137.1330 C   0  0  2  0  0  0  0  0  0  0  0  0
  183.0390  177.7720  137.7800 C   0  0  1  0  0  3  0  0  0  0  0  0
  185.5530  175.3430  135.3100 O   0  0  0  0  0  1  0  0  0  0  0  0
  186.8330  179.0450  136.2340 C   0  0  0  0  0  1  0  0  0  0  0  0
  187.0070  178.7200  137.7130 C   0  0  2  0  0  3  0  0  0  0  0  0
  188.4820  178.4480  138.0610 C   0  0  2  0  0  3  0  0  0  0  0  0
  189.1640  177.0790  136.5460 O   0  0  0  0  0  1  0  0  0  0  0  0
  188.8260  177.1100  137.8200 O   0  0  0  0  0  0  0  0  0  0  0  0
  188.7840  178.7860  139.5150 C   0  0  0  0  0  2  0  0  0  0  0  0
  188.7190  177.5730  140.4190 C   0  0  0  0  0  2  0  0  0  0  0  0
  188.0780  177.9190  141.7590 C   0  0  0  0  0  2  0  0  0  0  0  0
  188.7520  177.1900  142.9280 C   0  0  2  0  0  3  0  0  0  0  0  0
  188.4210  175.8340  142.9530 O   0  0  0  0  0  1  0  0  0  0  0  0
  188.5170  177.8330  144.3050 C   0  0  2  0  0  3  0  0  0  0  0  0
  189.7630  178.1550  145.1470 C   0  0  0  0  0  2  0  0  0  0  0  0
  191.9930  178.7730  144.5540 O   0  0  0  0  0  1  0  0  0  0  0  0
  191.0720  177.7330  144.4780 C   0  0  1  0  0  3  0  0  0  0  0  0
  192.0570  176.5460  146.5030 N   0  0  0  0  0  1  0  0  0  0  0  0
  191.6250  176.5060  145.1410 C   0  0  0  0  0  0  0  0  0  0  0  0
  191.7570  175.4420  144.4810 O   0  0  0  0  0  0  0  0  0  0  0  0
  187.4750  177.2260  145.0720 O   0  0  0  0  0  0  0  0  0  0  0  0
  186.2880  177.8740  145.4300 C   0  0  0  0  0  0  0  0  0  0  0  0
  186.0170  178.0650  146.6430 O   0  0  0  0  0  0  0  0  0  0  0  0
  185.2900  178.2310  144.3830 C   0  0  0  0  0  2  0  0  0  0  0  0
  184.4990  179.3640  144.8320 N   0  0  0  0  0  1  0  0  0  0  0  0
  183.1410  177.4320  134.5970 O   0  0  0  0  0  1  0  0  0  0  0  0
  183.3370  176.6660  135.6470 O   0  0  0  0  0  0  0  0  0  0  0  0
  181.5410  177.7520  137.4430 C   0  0  2  0  0  3  0  0  0  0  0  0
  180.7600  178.5630  138.3700 N   0  0  0  0  0  0  0  0  0  0  0  0
  180.2500  180.1580  136.5130 C   0  0  0  0  0  3  0  0  0  0  0  0
  179.7080  182.4110  137.1290 N   0  0  0  0  0  0  0  0  0  0  0  0
  179.6920  180.6600  138.8400 C   0  0  0  0  0  2  0  0  0  0  0  0
  179.1130  181.9790  138.4020 C   0  0  0  0  0  2  0  0  0  0  0  0
  180.0470  181.4250  136.1420 C   0  0  0  0  0  3  0  0  0  0  0  0
  180.1610  179.7830  137.9410 C   0  0  0  0  0  0  0  0  0  0  0  0
  179.7080  183.8160  136.7370 C   0  0  2  0  0  3  0  0  0  0  0  0
  181.1120  184.2740  136.3710 C   0  0  0  0  0  1  0  0  0  0  0  0
  179.1890  184.6330  137.8240 N   0  0  0  0  0  1  0  0  0  0  0  0
  180.9880  176.3270  137.4210 C   0  0  0  0  0  2  0  0  0  0  0  0
  179.5140  177.0780  135.6950 O   0  0  0  0  0  0  0  0  0  0  0  0
  179.7720  176.1960  136.5620 C   0  0  0  0  0  0  0  0  0  0  0  0
  178.9620  175.0680  136.7100 O   0  0  0  0  0  0  0  0  0  0  0  0
  179.4820  173.7480  136.8250 C   0  0  1  0  0  3  0  0  0  0  0  0
  179.3510  173.0480  135.4870 C   0  0  0  0  0  1  0  0  0  0  0  0
  180.9490  173.7810  137.2560 C   0  0  0  0  0  2  0  0  0  0  0  0
  182.6230  172.0800  136.6580 C   0  0  0  0  0  2  0  0  0  0  0  0
  181.8140  173.0620  136.2670 C   0  0  0  0  0  3  0  0  0  0  0  0
  3  2  2  1  0  0  0
  3  8  1  0  0  0  0
  4 13  1  6  0  0  0
  4  3  1  0  0  0  0
  5 35  1  6  0  0  0
  5  9  1  0  0  0  0
  5 10  1  0  0  0  0
  6  3  1  0  0  0  0
  7 11  1  6  0  0  0
  7  9  1  0  0  0  0
  7  1  1  0  0  0  0
  9  1  1  1  0  0  0
  9  4  1  0  0  0  0
 10 36  1  6  0  0  0
 10  6  1  0  0  0  0
 13 12  1  6  0  0  0
 13 14  1  0  0  0  0
 14 17  1  1  0  0  0
 15 16  1  0  0  0  0
 16 14  1  0  0  0  0
 17 18  1  0  0  0  0
 18 19  1  0  0  0  0
 19 20  1  0  0  0  0
 20 21  1  1  0  0  0
 20 22  1  0  0  0  0
 22 29  1  0  0  0  0
 22 23  1  1  0  0  0
 25 24  1  1  0  0  0
 25 27  1  0  0  0  0
 25 23  1  0  0  0  0
 27 26  1  0  0  0  0
 28 27  2  0  0  0  0
 29 30  1  0  0  0  0
 30 31  2  0  0  0  0
 32 33  1  0  0  0  0
 32 30  1  0  0  0  0
 34 35  1  0  0  0  0
 36 47  1  1  0  0  0
 36 37  1  0  0  0  0
 38 43  1  0  0  0  0
 39 41  1  0  0  0  0
 41 40  1  0  0  0  0
 42 38  2  0  0  0  0
 42 39  1  0  0  0  0
 43 37  2  0  0  0  0
 43 40  1  0  0  0  0
 44 45  1  1  0  0  0
 44 39  1  0  0  0  0
 44 46  1  0  0  0  0
 48 49  2  0  0  0  0
 49 50  1  0  0  0  0
 49 47  1  0  0  0  0
 50 51  1  0  0  0  0
 51 52  1  6  0  0  0
 51 53  1  0  0  0  0
 55 54  2  0  0  0  0
 55 53  1  0  0  0  0
M  END
>  <MODEL>
6

>  <REMARK>
 VINA RESULT:      -4.5      2.766      4.788
  Name = 
  25 active torsions:
  status: ('A' for Active; 'I' for Inactive)
    1  A    between atoms: C_1  and  C_30
    2  A    between atoms: C_1  and  C_53
    3  A    between atoms: O_6  and  C_14
    4  A    between atoms: O_6  and  C_53
    5  A    between atoms: C_7  and  C_8
    6  A    between atoms: C_7  and  C_23
    7  A    between atoms: C_7  and  O_43
    8  A    between atoms: C_8  and  C_20
    9  A    between atoms: C_10  and  N_32
   10  A    between atoms: C_11  and  C_29
   11  A    between atoms: C_11  and  C_38
   12  A    between atoms: C_12  and  C_14
   13  A    between atoms: C_17  and  C_23
   14  A    between atoms: C_19  and  O_40
   15  A    between atoms: C_20  and  C_30
   16  A    between atoms: C_27  and  O_31
   17  A    between atoms: C_27  and  C_55
   18  A    between atoms: C_28  and  C_44
   19  A    between atoms: C_28  and  C_49
   20  A    between atoms: O_31  and  C_44
   21  A    between atoms: N_33  and  C_49
   22  A    between atoms: N_33  and  C_52
   23  A    between atoms: C_38  and  C_53
   24  A    between atoms: C_41  and  C_55
   25  A    between atoms: C_45  and  C_49
                            x       y       z     vdW  Elec       q    Type
                         _______ _______ _______ _____ _____    ______ ____

>  <TORSDO>
F 25

$$$$
=
 OpenBabel10262420413D

 55 57  0  0  1  0  0  0  0  0999 V2000
  187.8060  178.8440  136.5130 O   0  0  0  0  0  0  0  0  0  0  0  0
  184.7290  175.2750  135.6600 O   0  0  0  0  0  1  0  0  0  0  0  0
  185.2960  176.5730  136.1870 P   0  0  2  0  0  0  0  0  0  0  0  0
  187.1170  176.5630  136.0780 C   0  0  1  0  0  3  0  0  0  0  0  0
  187.0450  177.6490  138.4740 C   0  0  2  0  0  3  0  0  0  0  0  0
  184.8540  176.7780  137.8160 O   0  0  0  0  0  0  0  0  0  0  0  0
  189.0270  178.1610  136.6810 C   0  0  2  0  0  3  0  0  0  0  0  0
  184.6990  177.8600  135.2670 O   0  0  0  0  0  0  0  0  0  0  0  0
  187.7190  177.5540  137.0840 C   0  0  2  0  0  0  0  0  0  0  0  0
  185.5480  177.9240  138.2420 C   0  0  1  0  0  3  0  0  0  0  0  0
  189.7350  178.6820  137.7670 O   0  0  0  0  0  1  0  0  0  0  0  0
  187.7470  174.5960  137.5950 C   0  0  0  0  0  1  0  0  0  0  0  0
  187.6910  175.1370  136.1710 C   0  0  2  0  0  3  0  0  0  0  0  0
  189.0210  174.9100  135.4290 C   0  0  2  0  0  3  0  0  0  0  0  0
  190.6490  176.0560  134.6100 O   0  0  0  0  0  1  0  0  0  0  0  0
  189.3320  175.9940  134.5950 O   0  0  0  0  0  0  0  0  0  0  0  0
  188.9850  173.6350  134.5970 C   0  0  0  0  0  2  0  0  0  0  0  0
  189.7780  172.5080  135.2270 C   0  0  0  0  0  2  0  0  0  0  0  0
  191.2740  172.6940  134.9970 C   0  0  0  0  0  2  0  0  0  0  0  0
  192.0240  173.0070  136.2980 C   0  0  2  0  0  3  0  0  0  0  0  0
  191.1730  173.5270  137.2740 O   0  0  0  0  0  1  0  0  0  0  0  0
  193.2630  173.9020  136.1230 C   0  0  2  0  0  3  0  0  0  0  0  0
  194.4780  173.5930  137.0130 C   0  0  0  0  0  2  0  0  0  0  0  0
  196.8250  174.0390  137.0450 O   0  0  0  0  0  1  0  0  0  0  0  0
  195.7980  173.5520  136.2420 C   0  0  1  0  0  3  0  0  0  0  0  0
  196.6770  171.2130  136.7220 N   0  0  0  0  0  1  0  0  0  0  0  0
  196.1060  172.1500  135.8070 C   0  0  0  0  0  0  0  0  0  0  0  0
  195.9070  171.8060  134.6130 O   0  0  0  0  0  0  0  0  0  0  0  0
  192.9770  175.3000  136.0460 O   0  0  0  0  0  0  0  0  0  0  0  0
  193.3490  176.2300  137.0240 C   0  0  0  0  0  0  0  0  0  0  0  0
  194.1900  177.1250  136.7530 O   0  0  0  0  0  0  0  0  0  0  0  0
  192.8400  176.0870  138.4170 C   0  0  0  0  0  2  0  0  0  0  0  0
  193.3250  177.1940  139.2260 N   0  0  0  0  0  1  0  0  0  0  0  0
  188.3280  177.9830  140.1630 O   0  0  0  0  0  1  0  0  0  0  0  0
  187.6150  178.6440  139.2780 O   0  0  0  0  0  0  0  0  0  0  0  0
  184.8550  178.6670  139.3930 C   0  0  2  0  0  3  0  0  0  0  0  0
  184.7600  177.8470  140.5960 N   0  0  0  0  0  2  0  0  0  0  0  0
  186.3410  177.7950  142.5310 C   0  0  0  0  0  3  0  0  0  0  0  0
  185.5780  178.7610  144.5890 N   0  0  0  0  0  0  0  0  0  0  0  0
  184.3600  179.2270  142.5170 C   0  0  0  0  0  3  0  0  0  0  0  0
  184.7360  179.7370  143.8830 C   0  0  0  0  0  2  0  0  0  0  0  0
  186.5210  177.9780  143.8430 C   0  0  0  0  0  3  0  0  0  0  0  0
  185.1530  178.3680  141.8620 C   0  0  0  0  0  0  0  0  0  0  0  0
  185.6720  178.7630  146.0450 C   0  0  2  0  0  3  0  0  0  0  0  0
  186.9760  178.1260  146.5020 C   0  0  0  0  0  1  0  0  0  0  0  0
  184.5440  178.0430  146.6150 N   0  0  0  0  0  1  0  0  0  0  0  0
  183.4600  179.1490  138.9920 C   0  0  0  0  0  2  0  0  0  0  0  0
  182.6510  176.9710  139.5570 O   0  0  0  0  0  0  0  0  0  0  0  0
  182.3840  178.1960  139.4020 C   0  0  0  0  0  0  0  0  0  0  0  0
  181.1020  178.6940  139.6460 O   0  0  0  0  0  0  0  0  0  0  0  0
  180.7960  179.5450  140.7460 C   0  0  1  0  0  3  0  0  0  0  0  0
  180.2320  180.8490  140.2200 C   0  0  0  0  0  1  0  0  0  0  0  0
  179.7870  178.8770  141.6810 C   0  0  0  0  0  2  0  0  0  0  0  0
  179.7990  178.7880  144.1400 C   0  0  0  0  0  2  0  0  0  0  0  0
  180.4210  178.5280  142.9920 C   0  0  0  0  0  3  0  0  0  0  0  0
  1  7  1  0  0  0  0
  2  3  1  0  0  0  0
  3  8  2  6  0  0  0
  3  6  1  0  0  0  0
  4 13  1  1  0  0  0
  4  3  1  0  0  0  0
  4  9  1  0  0  0  0
  5 35  1  1  0  0  0
  6 10  1  0  0  0  0
  7  9  1  0  0  0  0
  7 11  1  1  0  0  0
  9  1  1  6  0  0  0
  9  5  1  0  0  0  0
 10  5  1  0  0  0  0
 10 36  1  1  0  0  0
 13 12  1  1  0  0  0
 14 17  1  6  0  0  0
 14 13  1  0  0  0  0
 16 15  1  0  0  0  0
 16 14  1  0  0  0  0
 17 18  1  0  0  0  0
 19 18  1  0  0  0  0
 19 20  1  0  0  0  0
 20 21  1  1  0  0  0
 22 20  1  0  0  0  0
 22 23  1  1  0  0  0
 25 23  1  0  0  0  0
 25 24  1  1  0  0  0
 27 25  1  0  0  0  0
 27 26  1  0  0  0  0
 28 27  2  0  0  0  0
 29 22  1  0  0  0  0
 29 30  1  0  0  0  0
 30 32  1  0  0  0  0
 31 30  2  0  0  0  0
 32 33  1  0  0  0  0
 35 34  1  0  0  0  0
 36 47  1  6  0  0  0
 36 37  1  0  0  0  0
 37 43  1  0  0  0  0
 38 42  2  0  0  0  0
 39 44  1  0  0  0  0
 40 41  1  0  0  0  0
 41 39  1  0  0  0  0
 42 39  1  0  0  0  0
 43 40  2  0  0  0  0
 43 38  1  0  0  0  0
 44 45  1  6  0  0  0
 44 46  1  0  0  0  0
 47 49  1  0  0  0  0
 49 48  2  0  0  0  0
 49 50  1  0  0  0  0
 50 51  1  0  0  0  0
 51 52  1  6  0  0  0
 51 53  1  0  0  0  0
 53 55  1  0  0  0  0
 55 54  2  0  0  0  0
M  END
>  <MODEL>
7

>  <REMARK>
 VINA RESULT:      -4.1      5.552      9.835
  Name = 
  25 active torsions:
  status: ('A' for Active; 'I' for Inactive)
    1  A    between atoms: C_1  and  C_30
    2  A    between atoms: C_1  and  C_53
    3  A    between atoms: O_6  and  C_14
    4  A    between atoms: O_6  and  C_53
    5  A    between atoms: C_7  and  C_8
    6  A    between atoms: C_7  and  C_23
    7  A    between atoms: C_7  and  O_43
    8  A    between atoms: C_8  and  C_20
    9  A    between atoms: C_10  and  N_32
   10  A    between atoms: C_11  and  C_29
   11  A    between atoms: C_11  and  C_38
   12  A    between atoms: C_12  and  C_14
   13  A    between atoms: C_17  and  C_23
   14  A    between atoms: C_19  and  O_40
   15  A    between atoms: C_20  and  C_30
   16  A    between atoms: C_27  and  O_31
   17  A    between atoms: C_27  and  C_55
   18  A    between atoms: C_28  and  C_44
   19  A    between atoms: C_28  and  C_49
   20  A    between atoms: O_31  and  C_44
   21  A    between atoms: N_33  and  C_49
   22  A    between atoms: N_33  and  C_52
   23  A    between atoms: C_38  and  C_53
   24  A    between atoms: C_41  and  C_55
   25  A    between atoms: C_45  and  C_49
                            x       y       z     vdW  Elec       q    Type
                         _______ _______ _______ _____ _____    ______ ____

>  <TORSDO>
F 25

$$$$
=
 OpenBabel10262420413D

 55 57  0  0  1  0  0  0  0  0999 V2000
  188.8670  175.3030  142.4730 O   0  0  0  0  0  0  0  0  0  0  0  0
  186.5570  179.4960  142.5800 O   0  0  0  0  0  1  0  0  0  0  0  0
  187.2660  178.2720  142.0470 P   0  0  2  0  0  0  0  0  0  0  0  0
  188.1990  177.4470  143.3800 C   0  0  1  0  0  3  0  0  0  0  0  0
  190.1020  177.1830  141.5820 C   0  0  2  0  0  3  0  0  0  0  0  0
  188.3580  178.7240  140.8240 O   0  0  0  0  0  0  0  0  0  0  0  0
  189.7140  175.3920  143.5950 C   0  0  2  0  0  3  0  0  0  0  0  0
  186.1260  177.1900  141.4240 O   0  0  0  0  0  0  0  0  0  0  0  0
  189.3340  176.5970  142.7920 C   0  0  2  0  0  0  0  0  0  0  0  0
  189.0600  177.5470  140.5090 C   0  0  1  0  0  3  0  0  0  0  0  0
  190.9930  174.9200  143.2830 O   0  0  0  0  0  1  0  0  0  0  0  0
  190.1610  178.5670  144.5890 C   0  0  0  0  0  1  0  0  0  0  0  0
  188.6470  178.4400  144.4690 C   0  0  2  0  0  3  0  0  0  0  0  0
  187.9860  178.2530  145.8460 C   0  0  2  0  0  3  0  0  0  0  0  0
  188.2580  177.5500  147.8630 O   0  0  0  0  0  1  0  0  0  0  0  0
  188.7040  177.3460  146.6390 O   0  0  0  0  0  0  0  0  0  0  0  0
  186.5480  177.7690  145.7140 C   0  0  0  0  0  2  0  0  0  0  0  0
  185.5470  178.7650  146.2620 C   0  0  0  0  0  2  0  0  0  0  0  0
  184.1940  178.6200  145.5720 C   0  0  0  0  0  2  0  0  0  0  0  0
  184.1720  179.2930  144.1940 C   0  0  2  0  0  3  0  0  0  0  0  0
  184.2800  180.6810  144.2940 O   0  0  0  0  0  1  0  0  0  0  0  0
  182.9770  178.9010  143.3090 C   0  0  2  0  0  3  0  0  0  0  0  0
  181.6240  178.6980  144.0120 C   0  0  0  0  0  2  0  0  0  0  0  0
  179.3690  177.9540  143.7620 O   0  0  0  0  0  1  0  0  0  0  0  0
  180.4820  178.3810  143.0460 C   0  0  1  0  0  3  0  0  0  0  0  0
  180.0320  180.8770  142.8440 N   0  0  0  0  0  1  0  0  0  0  0  0
  180.1370  179.5910  142.2300 C   0  0  0  0  0  0  0  0  0  0  0  0
  179.8890  179.4690  141.0020 O   0  0  0  0  0  0  0  0  0  0  0  0
  183.2600  177.8800  142.3500 O   0  0  0  0  0  0  0  0  0  0  0  0
  183.1870  178.0650  140.9650 C   0  0  0  0  0  0  0  0  0  0  0  0
  183.0430  177.0720  140.2060 O   0  0  0  0  0  0  0  0  0  0  0  0
  183.3980  179.4190  140.3830 C   0  0  0  0  0  2  0  0  0  0  0  0
  184.5630  179.3970  139.5140 N   0  0  0  0  0  1  0  0  0  0  0  0
  192.2050  176.7610  141.4920 O   0  0  0  0  0  1  0  0  0  0  0  0
  191.0520  176.2910  141.0700 O   0  0  0  0  0  0  0  0  0  0  0  0
  189.5970  177.5220  139.0710 C   0  0  2  0  0  3  0  0  0  0  0  0
  191.0550  177.5230  139.0300 N   0  0  0  0  0  2  0  0  0  0  0  0
  190.9950  175.6950  137.3270 C   0  0  0  0  0  3  0  0  0  0  0  0
  193.0550  174.5520  136.8800 N   0  0  0  0  0  0  0  0  0  0  0  0
  193.0970  176.6750  138.0990 C   0  0  0  0  0  3  0  0  0  0  0  0
  193.8490  175.7520  137.1770 C   0  0  0  0  0  2  0  0  0  0  0  0
  191.6300  174.6660  136.7570 C   0  0  0  0  0  3  0  0  0  0  0  0
  191.7570  176.6880  138.1130 C   0  0  0  0  0  0  0  0  0  0  0  0
  193.6940  173.3160  136.4430 C   0  0  2  0  0  3  0  0  0  0  0  0
  194.6550  173.5820  135.2930 C   0  0  0  0  0  1  0  0  0  0  0  0
  192.6840  172.3550  136.0300 N   0  0  0  0  0  1  0  0  0  0  0  0
  189.0630  178.6960  138.2500 C   0  0  0  0  0  2  0  0  0  0  0  0
  187.8760  178.9130  136.1860 O   0  0  0  0  0  0  0  0  0  0  0  0
  188.0120  178.2810  137.2710 C   0  0  0  0  0  0  0  0  0  0  0  0
  187.2230  177.1670  137.5650 O   0  0  0  0  0  0  0  0  0  0  0  0
  186.7830  176.2440  136.5730 C   0  0  1  0  0  3  0  0  0  0  0  0
  186.6990  174.8620  137.1880 C   0  0  0  0  0  1  0  0  0  0  0  0
  185.4180  176.6550  136.0210 C   0  0  0  0  0  2  0  0  0  0  0  0
  183.0620  176.6360  136.7300 C   0  0  0  0  0  2  0  0  0  0  0  0
  184.3430  176.4510  137.0430 C   0  0  0  0  0  3  0  0  0  0  0  0
  1  7  1  0  0  0  0
  3  8  2  6  0  0  0
  3  2  1  0  0  0  0
  3  4  1  0  0  0  0
  4 13  1  1  0  0  0
  5 35  1  6  0  0  0
  5  9  1  0  0  0  0
  6  3  1  0  0  0  0
  7 11  1  6  0  0  0
  9  1  1  6  0  0  0
  9  4  1  0  0  0  0
  9  7  1  0  0  0  0
 10 36  1  6  0  0  0
 10  6  1  0  0  0  0
 10  5  1  0  0  0  0
 13 12  1  1  0  0  0
 13 14  1  0  0  0  0
 14 17  1  6  0  0  0
 14 16  1  0  0  0  0
 16 15  1  0  0  0  0
 17 18  1  0  0  0  0
 19 18  1  0  0  0  0
 20 21  1  1  0  0  0
 20 19  1  0  0  0  0
 22 23  1  1  0  0  0
 22 20  1  0  0  0  0
 25 24  1  1  0  0  0
 25 23  1  0  0  0  0
 27 26  1  0  0  0  0
 27 25  1  0  0  0  0
 28 27  2  0  0  0  0
 29 22  1  0  0  0  0
 30 29  1  0  0  0  0
 31 30  2  0  0  0  0
 32 30  1  0  0  0  0
 33 32  1  0  0  0  0
 35 34  1  0  0  0  0
 36 47  1  6  0  0  0
 37 36  1  0  0  0  0
 38 43  1  0  0  0  0
 39 41  1  0  0  0  0
 40 43  2  0  0  0  0
 41 40  1  0  0  0  0
 42 39  1  0  0  0  0
 42 38  2  0  0  0  0
 43 37  1  0  0  0  0
 44 45  1  6  0  0  0
 44 39  1  0  0  0  0
 46 44  1  0  0  0  0
 48 49  2  0  0  0  0
 49 50  1  0  0  0  0
 49 47  1  0  0  0  0
 51 52  1  1  0  0  0
 51 50  1  0  0  0  0
 53 51  1  0  0  0  0
 53 55  1  0  0  0  0
 54 55  2  0  0  0  0
M  END
>  <MODEL>
8

>  <REMARK>
 VINA RESULT:      -3.9      3.876      9.359
  Name = 
  25 active torsions:
  status: ('A' for Active; 'I' for Inactive)
    1  A    between atoms: C_1  and  C_30
    2  A    between atoms: C_1  and  C_53
    3  A    between atoms: O_6  and  C_14
    4  A    between atoms: O_6  and  C_53
    5  A    between atoms: C_7  and  C_8
    6  A    between atoms: C_7  and  C_23
    7  A    between atoms: C_7  and  O_43
    8  A    between atoms: C_8  and  C_20
    9  A    between atoms: C_10  and  N_32
   10  A    between atoms: C_11  and  C_29
   11  A    between atoms: C_11  and  C_38
   12  A    between atoms: C_12  and  C_14
   13  A    between atoms: C_17  and  C_23
   14  A    between atoms: C_19  and  O_40
   15  A    between atoms: C_20  and  C_30
   16  A    between atoms: C_27  and  O_31
   17  A    between atoms: C_27  and  C_55
   18  A    between atoms: C_28  and  C_44
   19  A    between atoms: C_28  and  C_49
   20  A    between atoms: O_31  and  C_44
   21  A    between atoms: N_33  and  C_49
   22  A    between atoms: N_33  and  C_52
   23  A    between atoms: C_38  and  C_53
   24  A    between atoms: C_41  and  C_55
   25  A    between atoms: C_45  and  C_49
                            x       y       z     vdW  Elec       q    Type
                         _______ _______ _______ _____ _____    ______ ____

>  <TORSDO>
F 25

$$$$
=
 OpenBabel10262420413D

 55 57  0  0  1  0  0  0  0  0999 V2000
  185.8600  179.7320  137.9580 O   0  0  0  0  0  0  0  0  0  0  0  0
  182.0330  176.9010  138.4810 O   0  0  0  0  0  0  0  0  0  0  0  0
  183.1320  177.8870  138.8060 P   0  0  2  0  0  0  0  0  0  0  0  0
  184.4510  177.8050  137.5480 C   0  0  1  0  0  3  0  0  0  0  0  0
  186.1030  177.9620  139.5900 C   0  0  2  0  0  3  0  0  0  0  0  0
  183.8080  177.5210  140.3220 O   0  0  0  0  0  0  0  0  0  0  0  0
  186.6990  178.9610  137.1300 C   0  0  2  0  0  3  0  0  0  0  0  0
  182.4930  179.4520  138.8280 O   0  0  0  0  0  1  0  0  0  0  0  0
  185.7730  178.3310  138.1240 C   0  0  2  0  0  0  0  0  0  0  0  0
  184.9030  178.3940  140.4530 C   0  0  1  0  0  3  0  0  0  0  0  0
  188.0200  179.0140  137.5850 O   0  0  0  0  0  1  0  0  0  0  0  0
  185.5370  175.4840  137.6110 C   0  0  0  0  0  1  0  0  0  0  0  0
  184.5490  176.4070  136.9070 C   0  0  2  0  0  3  0  0  0  0  0  0
  184.7530  176.3930  135.3810 C   0  0  2  0  0  3  0  0  0  0  0  0
  183.2670  174.8410  135.2410 O   0  0  0  0  0  1  0  0  0  0  0  0
  183.5820  176.0070  134.7130 O   0  0  0  0  0  0  0  0  0  0  0  0
  185.8870  175.4590  134.9790 C   0  0  0  0  0  2  0  0  0  0  0  0
  187.1630  176.2050  134.6460 C   0  0  0  0  0  2  0  0  0  0  0  0
  188.3710  175.2750  134.6960 C   0  0  0  0  0  2  0  0  0  0  0  0
  189.4540  175.7870  135.6540 C   0  0  2  0  0  3  0  0  0  0  0  0
  190.5410  176.3300  134.9660 O   0  0  0  0  0  1  0  0  0  0  0  0
  189.9280  174.7580  136.6940 C   0  0  2  0  0  3  0  0  0  0  0  0
  191.4010  174.8310  137.1290 C   0  0  0  0  0  2  0  0  0  0  0  0
  191.3020  176.3950  138.9310 O   0  0  0  0  0  1  0  0  0  0  0  0
  191.8110  176.2090  137.6500 C   0  0  1  0  0  3  0  0  0  0  0  0
  194.0660  175.8580  138.7780 N   0  0  0  0  0  1  0  0  0  0  0  0
  193.3060  176.3380  137.6660 C   0  0  0  0  0  0  0  0  0  0  0  0
  193.8960  176.9160  136.7170 O   0  0  0  0  0  0  0  0  0  0  0  0
  189.4920  173.4200  136.4440 O   0  0  0  0  0  0  0  0  0  0  0  0
  190.0710  172.5740  135.4930 C   0  0  0  0  0  0  0  0  0  0  0  0
  191.3040  172.6500  135.2510 O   0  0  0  0  0  0  0  0  0  0  0  0
  189.2120  171.6670  134.6820 C   0  0  0  0  0  2  0  0  0  0  0  0
  188.0050  171.3480  135.4260 N   0  0  0  0  0  1  0  0  0  0  0  0
  188.1670  177.5940  140.0520 O   0  0  0  0  0  1  0  0  0  0  0  0
  187.2820  178.5670  140.0410 O   0  0  0  0  0  0  0  0  0  0  0  0
  185.2560  178.7160  141.9120 C   0  0  2  0  0  3  0  0  0  0  0  0
  185.3440  177.5140  142.7340 N   0  0  0  0  0  2  0  0  0  0  0  0
  186.4490  177.6830  144.9690 C   0  0  0  0  0  3  0  0  0  0  0  0
  188.8420  177.5400  145.0160 N   0  0  0  0  0  0  0  0  0  0  0  0
  187.6350  176.8560  142.9990 C   0  0  0  0  0  3  0  0  0  0  0  0
  188.8680  176.6570  143.8410 C   0  0  0  0  0  2  0  0  0  0  0  0
  187.5880  177.8240  145.6540 C   0  0  0  0  0  3  0  0  0  0  0  0
  186.4870  177.2740  143.5490 C   0  0  0  0  0  0  0  0  0  0  0  0
  190.0730  177.9080  145.7070 C   0  0  2  0  0  3  0  0  0  0  0  0
  191.2680  177.8110  144.7700 C   0  0  0  0  0  1  0  0  0  0  0  0
  190.2750  177.0410  146.8570 N   0  0  0  0  0  1  0  0  0  0  0  0
  184.2510  179.6870  142.5340 C   0  0  0  0  0  2  0  0  0  0  0  0
  183.1210  178.6580  144.3720 O   0  0  0  0  0  0  0  0  0  0  0  0
  183.0850  178.9870  143.1530 C   0  0  0  0  0  0  0  0  0  0  0  0
  181.9530  178.7460  142.3720 O   0  0  0  0  0  0  0  0  0  0  0  0
  180.6750  178.4500  142.9260 C   0  0  1  0  0  3  0  0  0  0  0  0
  180.3590  179.4640  144.0080 C   0  0  0  0  0  1  0  0  0  0  0  0
  179.5950  178.4850  141.8450 C   0  0  0  0  0  2  0  0  0  0  0  0
  179.3380  180.7370  140.8880 C   0  0  0  0  0  2  0  0  0  0  0  0
  179.8990  179.5320  140.8180 C   0  0  0  0  0  3  0  0  0  0  0  0
  3  2  2  6  0  0  0
  3  8  1  0  0  0  0
  3  6  1  0  0  0  0
  4 13  1  1  0  0  0
  4  9  1  0  0  0  0
  4  3  1  0  0  0  0
  5 35  1  1  0  0  0
  5 10  1  0  0  0  0
  6 10  1  0  0  0  0
  7 11  1  1  0  0  0
  7  1  1  0  0  0  0
  7  9  1  0  0  0  0
  9  1  1  1  0  0  0
  9  5  1  0  0  0  0
 10 36  1  1  0  0  0
 13 12  1  1  0  0  0
 14 17  1  1  0  0  0
 14 13  1  0  0  0  0
 16 15  1  0  0  0  0
 16 14  1  0  0  0  0
 18 19  1  0  0  0  0
 18 17  1  0  0  0  0
 19 20  1  0  0  0  0
 20 21  1  6  0  0  0
 20 22  1  0  0  0  0
 22 23  1  6  0  0  0
 23 25  1  0  0  0  0
 25 27  1  0  0  0  0
 25 24  1  1  0  0  0
 27 26  1  0  0  0  0
 28 27  2  0  0  0  0
 29 22  1  0  0  0  0
 30 29  1  0  0  0  0
 31 30  2  0  0  0  0
 32 33  1  0  0  0  0
 32 30  1  0  0  0  0
 35 34  1  0  0  0  0
 36 47  1  1  0  0  0
 36 37  1  0  0  0  0
 37 43  1  0  0  0  0
 38 42  2  0  0  0  0
 39 42  1  0  0  0  0
 39 44  1  0  0  0  0
 40 43  2  0  0  0  0
 40 41  1  0  0  0  0
 41 39  1  0  0  0  0
 43 38  1  0  0  0  0
 44 45  1  6  0  0  0
 44 46  1  0  0  0  0
 47 49  1  0  0  0  0
 49 48  2  0  0  0  0
 50 51  1  0  0  0  0
 50 49  1  0  0  0  0
 51 52  1  1  0  0  0
 53 51  1  0  0  0  0
 55 54  2  0  0  0  0
 55 53  1  0  0  0  0
M  END
>  <MODEL>
9

>  <REMARK>
 VINA RESULT:      -3.8      4.188      9.447
  Name = 
  25 active torsions:
  status: ('A' for Active; 'I' for Inactive)
    1  A    between atoms: C_1  and  C_30
    2  A    between atoms: C_1  and  C_53
    3  A    between atoms: O_6  and  C_14
    4  A    between atoms: O_6  and  C_53
    5  A    between atoms: C_7  and  C_8
    6  A    between atoms: C_7  and  C_23
    7  A    between atoms: C_7  and  O_43
    8  A    between atoms: C_8  and  C_20
    9  A    between atoms: C_10  and  N_32
   10  A    between atoms: C_11  and  C_29
   11  A    between atoms: C_11  and  C_38
   12  A    between atoms: C_12  and  C_14
   13  A    between atoms: C_17  and  C_23
   14  A    between atoms: C_19  and  O_40
   15  A    between atoms: C_20  and  C_30
   16  A    between atoms: C_27  and  O_31
   17  A    between atoms: C_27  and  C_55
   18  A    between atoms: C_28  and  C_44
   19  A    between atoms: C_28  and  C_49
   20  A    between atoms: O_31  and  C_44
   21  A    between atoms: N_33  and  C_49
   22  A    between atoms: N_33  and  C_52
   23  A    between atoms: C_38  and  C_53
   24  A    between atoms: C_41  and  C_55
   25  A    between atoms: C_45  and  C_49
                            x       y       z     vdW  Elec       q    Type
                         _______ _______ _______ _____ _____    ______ ____

>  <TORSDO>
F 25

$$$$
