=
 OpenBabel10262420593D

 28 30  0  0  1  0  0  0  0  0999 V2000
  186.1460  178.9940  138.1550 O   0  0  0  0  0  0  0  0  0  0  0  0
  183.4070  177.7480  140.0550 C   0  0  1  0  0  3  0  0  0  0  0  0
  183.2640  180.0480  138.9690 C   0  0  0  0  0  1  0  0  0  0  0  0
  184.5530  177.4010  137.4170 C   0  0  2  0  0  3  0  0  0  0  0  0
  182.8680  176.7310  139.0290 C   0  0  0  0  0  2  0  0  0  0  0  0
  185.0570  178.4770  138.3440 C   0  0  0  0  0  0  0  0  0  0  0  0
  184.1850  178.9450  139.4710 C   0  0  2  0  0  3  0  0  0  0  0  0
  183.1100  177.1580  137.6410 N   0  0  2  0  0  0  0  0  0  0  0  0
  182.5680  176.1710  136.6880 C   0  0  1  0  0  3  0  0  0  0  0  0
  181.1300  175.7090  137.0750 C   0  0  1  0  0  3  0  0  0  0  0  0
  180.0050  176.6380  136.8380 N   0  0  0  0  0  0  0  0  0  0  0  0
  180.4430  178.0270  136.7130 C   0  0  0  0  0  2  0  0  0  0  0  0
  180.8950  178.3240  135.2830 C   0  0  0  0  0  2  0  0  0  0  0  0
  181.1610  177.1330  134.5950 O   0  0  0  0  0  0  0  0  0  0  0  0
  182.8020  176.7290  134.9320 S   0  0  0  0  0  0  0  0  0  0  0  0
  179.1590  176.5860  138.0180 C   0  0  0  0  0  1  0  0  0  0  0  0
  180.8130  174.2840  136.6190 C   0  0  0  0  0  2  0  0  0  0  0  0
  182.0080  173.3540  136.7460 C   0  0  0  0  0  1  0  0  0  0  0  0
  181.0350  177.9840  140.8690 C   0  0  0  0  0  3  0  0  0  0  0  0
  182.8430  178.5840  142.3750 C   0  0  0  0  0  0  0  0  0  0  0  0
  180.5360  178.7940  143.0930 C   0  0  0  0  0  0  0  0  0  0  0  0
  182.4100  178.1050  141.1230 C   0  0  0  0  0  0  0  0  0  0  0  0
  181.9030  178.9250  143.3530 C   0  0  0  0  0  3  0  0  0  0  0  0
  184.5500  178.7710  142.7470 Cl  0  0  0  0  0  0  0  0  0  0  0  0
  179.5440  179.1580  144.1380 C   0  0  0  0  0  1  0  0  0  0  0  0
  180.1020  178.3260  141.8510 C   0  0  0  0  0  3  0  0  0  0  0  0
  185.4250  176.1330  137.4620 C   0  0  0  0  0  2  0  0  0  0  0  0
  186.3220  176.0870  136.3930 O   0  0  0  0  0  1  0  0  0  0  0  0
  1  6  2  0  0  0  0
  2 22  1  6  0  0  0
  4 27  1  1  0  0  0
  4  8  1  0  0  0  0
  4  6  1  0  0  0  0
  5  2  1  0  0  0  0
  6  7  1  0  0  0  0
  7  3  1  6  0  0  0
  7  2  1  0  0  0  0
  8  5  1  1  0  0  0
  9 15  1  6  0  0  0
  9 10  1  0  0  0  0
  9  8  1  0  0  0  0
 10 17  1  6  0  0  0
 11 10  1  0  0  0  0
 11 16  1  0  0  0  0
 12 11  1  0  0  0  0
 13 12  1  0  0  0  0
 14 15  1  0  0  0  0
 14 13  1  0  0  0  0
 17 18  1  0  0  0  0
 19 22  2  0  0  0  0
 19 26  1  0  0  0  0
 20 24  1  0  0  0  0
 20 23  2  0  0  0  0
 21 23  1  0  0  0  0
 21 25  1  0  0  0  0
 22 20  1  0  0  0  0
 26 21  2  0  0  0  0
 28 27  1  0  0  0  0
M  END
>  <MODEL>
1

>  <REMARK>
 VINA RESULT:      -4.9      0.000      0.000
  Name = 
  4 active torsions:
  status: ('A' for Active; 'I' for Inactive)
    1  A    between atoms: C_1  and  N_27
    2  A    between atoms: C_2  and  C_7
    3  A    between atoms: C_10  and  C_13
    4  A    between atoms: C_16  and  C_19
                            x       y       z     vdW  Elec       q    Type
                         _______ _______ _______ _____ _____    ______ ____

>  <TORSDO>
F 4

$$$$
=
 OpenBabel10262420593D

 28 30  0  0  1  0  0  0  0  0999 V2000
  179.5690  174.2800  137.4300 O   0  0  0  0  0  0  0  0  0  0  0  0
  182.9960  174.9890  138.0780 C   0  0  1  0  0  3  0  0  0  0  0  0
  181.8340  176.0370  136.0670 C   0  0  0  0  0  1  0  0  0  0  0  0
  180.3910  175.7960  139.0560 C   0  0  2  0  0  3  0  0  0  0  0  0
  182.8030  175.9560  139.2640 C   0  0  0  0  0  2  0  0  0  0  0  0
  180.5220  174.9260  137.8330 C   0  0  0  0  0  0  0  0  0  0  0  0
  181.8210  174.9030  137.0830 C   0  0  2  0  0  3  0  0  0  0  0  0
  181.5460  176.7160  139.1650 N   0  0  2  0  0  0  0  0  0  0  0  0
  181.4020  177.6410  140.3050 C   0  0  1  0  0  3  0  0  0  0  0  0
  182.7460  178.3490  140.6600 C   0  0  1  0  0  3  0  0  0  0  0  0
  183.2260  179.4300  139.7720 N   0  0  0  0  0  0  0  0  0  0  0  0
  182.6260  179.3690  138.4410 C   0  0  0  0  0  2  0  0  0  0  0  0
  181.2640  180.0630  138.4290 C   0  0  0  0  0  2  0  0  0  0  0  0
  180.7740  180.2030  139.7340 O   0  0  0  0  0  0  0  0  0  0  0  0
  179.9260  178.7470  140.0960 S   0  0  0  0  0  0  0  0  0  0  0  0
  184.6510  179.2190  139.5840 C   0  0  0  0  0  1  0  0  0  0  0  0
  182.8590  178.7180  142.1390 C   0  0  0  0  0  2  0  0  0  0  0  0
  184.2090  178.3490  142.7290 C   0  0  0  0  0  1  0  0  0  0  0  0
  184.9290  176.3460  137.2010 C   0  0  0  0  0  3  0  0  0  0  0  0
  185.0530  173.9260  137.0610 C   0  0  0  0  0  0  0  0  0  0  0  0
  186.8760  175.2910  136.2290 C   0  0  0  0  0  0  0  0  0  0  0  0
  184.3550  175.0880  137.4410 C   0  0  0  0  0  0  0  0  0  0  0  0
  186.3100  174.0340  136.4580 C   0  0  0  0  0  3  0  0  0  0  0  0
  184.3800  172.3230  137.3220 Cl  0  0  0  0  0  0  0  0  0  0  0  0
  188.2130  175.3980  135.5880 C   0  0  0  0  0  1  0  0  0  0  0  0
  186.1850  176.4460  136.6000 C   0  0  0  0  0  3  0  0  0  0  0  0
  180.1100  174.9780  140.3300 C   0  0  0  0  0  2  0  0  0  0  0  0
  178.9310  175.3900  140.9560 O   0  0  0  0  0  1  0  0  0  0  0  0
  1  6  2  0  0  0  0
  2 22  1  6  0  0  0
  2  5  1  0  0  0  0
  4  8  1  0  0  0  0
  4 27  1  1  0  0  0
  6  4  1  0  0  0  0
  7  3  1  6  0  0  0
  7  6  1  0  0  0  0
  7  2  1  0  0  0  0
  8  5  1  1  0  0  0
  8  9  1  0  0  0  0
  9 15  1  6  0  0  0
  9 10  1  0  0  0  0
 10 17  1  1  0  0  0
 11 10  1  0  0  0  0
 12 11  1  0  0  0  0
 13 12  1  0  0  0  0
 13 14  1  0  0  0  0
 14 15  1  0  0  0  0
 16 11  1  0  0  0  0
 17 18  1  0  0  0  0
 19 22  1  0  0  0  0
 20 24  1  0  0  0  0
 20 22  2  0  0  0  0
 21 23  2  0  0  0  0
 21 26  1  0  0  0  0
 23 20  1  0  0  0  0
 25 21  1  0  0  0  0
 26 19  2  0  0  0  0
 27 28  1  0  0  0  0
M  END
>  <MODEL>
2

>  <REMARK>
 VINA RESULT:      -4.5      3.190      6.641
  Name = 
  4 active torsions:
  status: ('A' for Active; 'I' for Inactive)
    1  A    between atoms: C_1  and  N_27
    2  A    between atoms: C_2  and  C_7
    3  A    between atoms: C_10  and  C_13
    4  A    between atoms: C_16  and  C_19
                            x       y       z     vdW  Elec       q    Type
                         _______ _______ _______ _____ _____    ______ ____

>  <TORSDO>
F 4

$$$$
=
 OpenBabel10262420593D

 28 30  0  0  1  0  0  0  0  0999 V2000
  185.2620  178.1940  137.1400 O   0  0  0  0  0  0  0  0  0  0  0  0
  184.2750  177.5660  140.5000 C   0  0  1  0  0  3  0  0  0  0  0  0
  184.2700  179.9460  139.5940 C   0  0  0  0  0  1  0  0  0  0  0  0
  183.1600  177.3480  137.8350 C   0  0  2  0  0  3  0  0  0  0  0  0
  182.8810  176.9720  140.2160 C   0  0  0  0  0  2  0  0  0  0  0  0
  184.4860  178.0250  138.0660 C   0  0  0  0  0  0  0  0  0  0  0  0
  184.8230  178.5370  139.4350 C   0  0  2  0  0  3  0  0  0  0  0  0
  182.2700  177.5400  139.0020 N   0  0  2  0  0  0  0  0  0  0  0  0
  180.9330  176.9620  138.7700 C   0  0  1  0  0  3  0  0  0  0  0  0
  180.1000  176.8600  140.0850 C   0  0  1  0  0  3  0  0  0  0  0  0
  179.5280  178.0990  140.6530 N   0  0  0  0  0  0  0  0  0  0  0  0
  180.2060  179.3010  140.1720 C   0  0  0  0  0  2  0  0  0  0  0  0
  179.6340  179.7400  138.8230 C   0  0  0  0  0  2  0  0  0  0  0  0
  178.9310  178.6890  138.2220 O   0  0  0  0  0  0  0  0  0  0  0  0
  180.0870  177.7750  137.3300 S   0  0  0  0  0  0  0  0  0  0  0  0
  179.7580  178.0510  142.0870 C   0  0  0  0  0  1  0  0  0  0  0  0
  179.0960  175.7070  140.0720 C   0  0  0  0  0  2  0  0  0  0  0  0
  179.6380  174.4560  140.7420 C   0  0  0  0  0  1  0  0  0  0  0  0
  183.3260  178.3120  142.7110 C   0  0  0  0  0  3  0  0  0  0  0  0
  185.7380  178.1930  142.4660 C   0  0  0  0  0  0  0  0  0  0  0  0
  184.7590  178.9110  144.5650 C   0  0  0  0  0  0  0  0  0  0  0  0
  184.4500  178.0250  141.9210 C   0  0  0  0  0  0  0  0  0  0  0  0
  185.8850  178.6340  143.7850 C   0  0  0  0  0  3  0  0  0  0  0  0
  187.1840  177.8650  141.5230 Cl  0  0  0  0  0  0  0  0  0  0  0  0
  184.9240  179.3780  145.9660 C   0  0  0  0  0  1  0  0  0  0  0  0
  183.4800  178.7500  144.0280 C   0  0  0  0  0  3  0  0  0  0  0  0
  183.3200  175.8820  137.3930 C   0  0  0  0  0  2  0  0  0  0  0  0
  182.8420  175.6800  136.0960 O   0  0  0  0  0  1  0  0  0  0  0  0
  1  6  2  0  0  0  0
  2 22  1  1  0  0  0
  4 27  1  1  0  0  0
  4  6  1  0  0  0  0
  4  8  1  0  0  0  0
  5  2  1  0  0  0  0
  6  7  1  0  0  0  0
  7  3  1  1  0  0  0
  7  2  1  0  0  0  0
  8  5  1  1  0  0  0
  9 15  1  6  0  0  0
  9  8  1  0  0  0  0
  9 10  1  0  0  0  0
 10 17  1  6  0  0  0
 10 11  1  0  0  0  0
 11 16  1  0  0  0  0
 12 11  1  0  0  0  0
 13 12  1  0  0  0  0
 14 13  1  0  0  0  0
 15 14  1  0  0  0  0
 17 18  1  0  0  0  0
 19 26  1  0  0  0  0
 20 23  2  0  0  0  0
 21 25  1  0  0  0  0
 22 20  1  0  0  0  0
 22 19  2  0  0  0  0
 23 21  1  0  0  0  0
 24 20  1  0  0  0  0
 26 21  2  0  0  0  0
 28 27  1  0  0  0  0
M  END
>  <MODEL>
3

>  <REMARK>
 VINA RESULT:      -4.4      2.438      3.298
  Name = 
  4 active torsions:
  status: ('A' for Active; 'I' for Inactive)
    1  A    between atoms: C_1  and  N_27
    2  A    between atoms: C_2  and  C_7
    3  A    between atoms: C_10  and  C_13
    4  A    between atoms: C_16  and  C_19
                            x       y       z     vdW  Elec       q    Type
                         _______ _______ _______ _____ _____    ______ ____

>  <TORSDO>
F 4

$$$$
=
 OpenBabel10262420593D

 28 30  0  0  1  0  0  0  0  0999 V2000
  181.0910  178.7220  142.0570 O   0  0  0  0  0  0  0  0  0  0  0  0
  183.6530  179.1270  139.6210 C   0  0  1  0  0  3  0  0  0  0  0  0
  182.9980  176.7940  140.4070 C   0  0  0  0  0  1  0  0  0  0  0  0
  180.7600  179.1680  139.7520 C   0  0  2  0  0  3  0  0  0  0  0  0
  182.7600  179.4620  138.4100 C   0  0  0  0  0  2  0  0  0  0  0  0
  181.5820  178.7390  140.9400 C   0  0  0  0  0  0  0  0  0  0  0  0
  182.9950  178.2820  140.7300 C   0  0  2  0  0  3  0  0  0  0  0  0
  181.4430  178.8070  138.4900 N   0  0  2  0  0  0  0  0  0  0  0  0
  180.6220  179.1360  137.3100 C   0  0  1  0  0  3  0  0  0  0  0  0
  181.4040  178.9340  135.9760 C   0  0  1  0  0  3  0  0  0  0  0  0
  181.6360  177.5540  135.4980 N   0  0  0  0  0  0  0  0  0  0  0  0
  181.5160  176.5650  136.5670 C   0  0  0  0  0  2  0  0  0  0  0  0
  180.0530  176.1700  136.7760 C   0  0  0  0  0  2  0  0  0  0  0  0
  179.2010  177.1240  136.2060 O   0  0  0  0  0  0  0  0  0  0  0  0
  178.9500  178.3350  137.4060 S   0  0  0  0  0  0  0  0  0  0  0  0
  183.0130  177.4920  135.0420 C   0  0  0  0  0  1  0  0  0  0  0  0
  180.9340  179.8650  134.8570 C   0  0  0  0  0  2  0  0  0  0  0  0
  180.6730  181.2790  135.3490 C   0  0  0  0  0  1  0  0  0  0  0  0
  185.3030  178.2520  137.9300 C   0  0  0  0  0  3  0  0  0  0  0  0
  186.0810  178.6990  140.1860 C   0  0  0  0  0  0  0  0  0  0  0  0
  187.6160  177.8490  138.5110 C   0  0  0  0  0  0  0  0  0  0  0  0
  185.0410  178.6920  139.2370 C   0  0  0  0  0  0  0  0  0  0  0  0
  187.3630  178.2790  139.8170 C   0  0  0  0  0  3  0  0  0  0  0  0
  185.8120  179.2250  141.8410 Cl  0  0  0  0  0  0  0  0  0  0  0  0
  188.9810  177.4040  138.1280 C   0  0  0  0  0  1  0  0  0  0  0  0
  186.5860  177.8340  137.5690 C   0  0  0  0  0  3  0  0  0  0  0  0
  180.3290  180.6440  139.8400 C   0  0  0  0  0  2  0  0  0  0  0  0
  179.0640  180.7770  140.4180 O   0  0  0  0  0  1  0  0  0  0  0  0
  2 22  1  6  0  0  0
  2  7  1  0  0  0  0
  4 27  1  6  0  0  0
  4  6  1  0  0  0  0
  5  2  1  0  0  0  0
  6  1  2  0  0  0  0
  7  3  1  6  0  0  0
  7  6  1  0  0  0  0
  8  5  1  6  0  0  0
  8  4  1  0  0  0  0
  9 15  1  6  0  0  0
  9  8  1  0  0  0  0
 10 17  1  6  0  0  0
 10  9  1  0  0  0  0
 11 10  1  0  0  0  0
 11 12  1  0  0  0  0
 12 13  1  0  0  0  0
 14 13  1  0  0  0  0
 14 15  1  0  0  0  0
 16 11  1  0  0  0  0
 17 18  1  0  0  0  0
 19 22  1  0  0  0  0
 20 24  1  0  0  0  0
 21 23  2  0  0  0  0
 22 20  2  0  0  0  0
 23 20  1  0  0  0  0
 25 21  1  0  0  0  0
 26 19  2  0  0  0  0
 26 21  1  0  0  0  0
 27 28  1  0  0  0  0
M  END
>  <MODEL>
4

>  <REMARK>
 VINA RESULT:      -4.3      2.745      5.390
  Name = 
  4 active torsions:
  status: ('A' for Active; 'I' for Inactive)
    1  A    between atoms: C_1  and  N_27
    2  A    between atoms: C_2  and  C_7
    3  A    between atoms: C_10  and  C_13
    4  A    between atoms: C_16  and  C_19
                            x       y       z     vdW  Elec       q    Type
                         _______ _______ _______ _____ _____    ______ ____

>  <TORSDO>
F 4

$$$$
=
 OpenBabel10262420593D

 28 30  0  0  1  0  0  0  0  0999 V2000
  185.5380  177.9900  137.3500 O   0  0  0  0  0  0  0  0  0  0  0  0
  183.0760  177.1460  139.7770 C   0  0  1  0  0  3  0  0  0  0  0  0
  182.6540  179.0550  138.1430 C   0  0  0  0  0  1  0  0  0  0  0  0
  184.0270  176.1680  137.2210 C   0  0  2  0  0  3  0  0  0  0  0  0
  182.5410  175.8610  139.1140 C   0  0  0  0  0  2  0  0  0  0  0  0
  184.5140  177.4810  137.7770 C   0  0  0  0  0  0  0  0  0  0  0  0
  183.7010  178.1840  138.8230 C   0  0  2  0  0  3  0  0  0  0  0  0
  182.6330  175.9100  137.6450 N   0  0  2  0  0  0  0  0  0  0  0  0
  182.0980  174.6730  137.0460 C   0  0  1  0  0  3  0  0  0  0  0  0
  180.8310  174.1580  137.7930 C   0  0  1  0  0  3  0  0  0  0  0  0
  179.5530  174.8740  137.5890 N   0  0  0  0  0  0  0  0  0  0  0  0
  179.7490  176.2340  137.0920 C   0  0  0  0  0  2  0  0  0  0  0  0
  179.9090  176.2360  135.5710 C   0  0  0  0  0  2  0  0  0  0  0  0
  180.2370  174.9540  135.1110 O   0  0  0  0  0  0  0  0  0  0  0  0
  181.9530  174.8260  135.2010 S   0  0  0  0  0  0  0  0  0  0  0  0
  178.9310  175.0060  138.8950 C   0  0  0  0  0  1  0  0  0  0  0  0
  180.6640  172.6390  137.7180 C   0  0  0  0  0  2  0  0  0  0  0  0
  179.4850  172.2260  136.8550 C   0  0  0  0  0  1  0  0  0  0  0  0
  180.7560  177.5550  140.6690 C   0  0  0  0  0  3  0  0  0  0  0  0
  182.6470  178.4430  141.9050 C   0  0  0  0  0  0  0  0  0  0  0  0
  180.3860  178.8070  142.7050 C   0  0  0  0  0  0  0  0  0  0  0  0
  182.1430  177.7200  140.8070 C   0  0  0  0  0  0  0  0  0  0  0  0
  181.7660  178.9820  142.8480 C   0  0  0  0  0  3  0  0  0  0  0  0
  184.3720  178.6950  142.1250 Cl  0  0  0  0  0  0  0  0  0  0  0  0
  179.4570  179.3820  143.7130 C   0  0  0  0  0  1  0  0  0  0  0  0
  179.8820  178.0950  141.6150 C   0  0  0  0  0  3  0  0  0  0  0  0
  185.0020  175.0110  137.5110 C   0  0  0  0  0  2  0  0  0  0  0  0
  185.5960  174.5340  136.3400 O   0  0  0  0  0  1  0  0  0  0  0  0
  1  6  2  0  0  0  0
  2 22  1  6  0  0  0
  4 27  1  1  0  0  0
  4  8  1  0  0  0  0
  4  6  1  0  0  0  0
  5  2  1  0  0  0  0
  6  7  1  0  0  0  0
  7  3  1  6  0  0  0
  7  2  1  0  0  0  0
  8  5  1  1  0  0  0
  9 15  1  6  0  0  0
  9  8  1  0  0  0  0
  9 10  1  0  0  0  0
 10 17  1  6  0  0  0
 11 10  1  0  0  0  0
 11 16  1  0  0  0  0
 12 11  1  0  0  0  0
 13 12  1  0  0  0  0
 14 15  1  0  0  0  0
 14 13  1  0  0  0  0
 18 17  1  0  0  0  0
 19 22  2  0  0  0  0
 19 26  1  0  0  0  0
 20 24  1  0  0  0  0
 20 23  2  0  0  0  0
 21 23  1  0  0  0  0
 21 25  1  0  0  0  0
 22 20  1  0  0  0  0
 26 21  2  0  0  0  0
 28 27  1  0  0  0  0
M  END
>  <MODEL>
5

>  <REMARK>
 VINA RESULT:      -4.2      1.368      1.493
  Name = 
  4 active torsions:
  status: ('A' for Active; 'I' for Inactive)
    1  A    between atoms: C_1  and  N_27
    2  A    between atoms: C_2  and  C_7
    3  A    between atoms: C_10  and  C_13
    4  A    between atoms: C_16  and  C_19
                            x       y       z     vdW  Elec       q    Type
                         _______ _______ _______ _____ _____    ______ ____

>  <TORSDO>
F 4

$$$$
=
 OpenBabel10262420593D

 28 30  0  0  1  0  0  0  0  0999 V2000
  185.6180  179.6410  147.2910 O   0  0  0  0  0  0  0  0  0  0  0  0
  185.0560  178.0830  144.1410 C   0  0  1  0  0  3  0  0  0  0  0  0
  185.7470  180.5320  144.2460 C   0  0  0  0  0  1  0  0  0  0  0  0
  187.1210  178.1900  146.1710 C   0  0  2  0  0  3  0  0  0  0  0  0
  186.3520  177.2510  144.0690 C   0  0  0  0  0  2  0  0  0  0  0  0
  185.9180  179.0960  146.2410 C   0  0  0  0  0  0  0  0  0  0  0  0
  185.1240  179.3630  144.9970 C   0  0  2  0  0  3  0  0  0  0  0  0
  187.4740  177.9070  144.7620 N   0  0  2  0  0  0  0  0  0  0  0  0
  188.7000  177.0930  144.6590 C   0  0  1  0  0  3  0  0  0  0  0  0
  189.0170  176.6920  143.1850 C   0  0  1  0  0  3  0  0  0  0  0  0
  189.5600  177.7250  142.2760 N   0  0  0  0  0  0  0  0  0  0  0  0
  189.2860  179.0820  142.7440 C   0  0  0  0  0  2  0  0  0  0  0  0
  190.3380  179.5260  143.7600 C   0  0  0  0  0  2  0  0  0  0  0  0
  191.0220  178.4170  144.2760 O   0  0  0  0  0  0  0  0  0  0  0  0
  190.0970  177.8530  145.6170 S   0  0  0  0  0  0  0  0  0  0  0  0
  188.8600  177.5830  141.0120 C   0  0  0  0  0  1  0  0  0  0  0  0
  189.7680  175.3650  143.0720 C   0  0  0  0  0  2  0  0  0  0  0  0
  191.2600  175.5190  143.3100 C   0  0  0  0  0  1  0  0  0  0  0  0
  185.1280  178.1730  141.6250 C   0  0  0  0  0  3  0  0  0  0  0  0
  182.9970  178.5090  142.7360 C   0  0  0  0  0  0  0  0  0  0  0  0
  183.1380  178.5910  140.3160 C   0  0  0  0  0  0  0  0  0  0  0  0
  184.3790  178.2510  142.8090 C   0  0  0  0  0  0  0  0  0  0  0  0
  182.3840  178.6770  141.4900 C   0  0  0  0  0  3  0  0  0  0  0  0
  182.0070  178.6330  144.1830 Cl  0  0  0  0  0  0  0  0  0  0  0  0
  182.4790  178.7690  138.9960 C   0  0  0  0  0  1  0  0  0  0  0  0
  184.5100  178.3400  140.3840 C   0  0  0  0  0  3  0  0  0  0  0  0
  186.9620  176.9350  147.0490 C   0  0  0  0  0  2  0  0  0  0  0  0
  187.8200  176.9660  148.1500 O   0  0  0  0  0  1  0  0  0  0  0  0
  2 22  1  6  0  0  0
  2  7  1  0  0  0  0
  4  6  1  0  0  0  0
  4 27  1  1  0  0  0
  5  2  1  0  0  0  0
  6  1  2  0  0  0  0
  7  3  1  6  0  0  0
  7  6  1  0  0  0  0
  8  5  1  1  0  0  0
  8  4  1  0  0  0  0
  9  8  1  0  0  0  0
  9 15  1  6  0  0  0
 10 17  1  1  0  0  0
 10  9  1  0  0  0  0
 11 12  1  0  0  0  0
 11 10  1  0  0  0  0
 12 13  1  0  0  0  0
 13 14  1  0  0  0  0
 14 15  1  0  0  0  0
 16 11  1  0  0  0  0
 17 18  1  0  0  0  0
 19 22  1  0  0  0  0
 20 22  2  0  0  0  0
 20 24  1  0  0  0  0
 21 26  1  0  0  0  0
 21 23  2  0  0  0  0
 23 20  1  0  0  0  0
 25 21  1  0  0  0  0
 26 19  2  0  0  0  0
 27 28  1  0  0  0  0
M  END
>  <MODEL>
6

>  <REMARK>
 VINA RESULT:      -4.2      6.120      8.647
  Name = 
  4 active torsions:
  status: ('A' for Active; 'I' for Inactive)
    1  A    between atoms: C_1  and  N_27
    2  A    between atoms: C_2  and  C_7
    3  A    between atoms: C_10  and  C_13
    4  A    between atoms: C_16  and  C_19
                            x       y       z     vdW  Elec       q    Type
                         _______ _______ _______ _____ _____    ______ ____

>  <TORSDO>
F 4

$$$$
=
 OpenBabel10262420593D

 28 30  0  0  1  0  0  0  0  0999 V2000
  179.9690  176.8320  137.7280 O   0  0  0  0  0  0  0  0  0  0  0  0
  182.8220  178.2950  139.2730 C   0  0  1  0  0  3  0  0  0  0  0  0
  182.2820  175.8360  139.6610 C   0  0  0  0  0  1  0  0  0  0  0  0
  182.0440  177.2810  136.6730 C   0  0  2  0  0  3  0  0  0  0  0  0
  183.7360  178.3650  138.0330 C   0  0  0  0  0  2  0  0  0  0  0  0
  181.1510  177.0990  137.8730 C   0  0  0  0  0  0  0  0  0  0  0  0
  181.7390  177.1970  139.2490 C   0  0  2  0  0  3  0  0  0  0  0  0
  183.4670  177.2750  137.0800 N   0  0  2  0  0  0  0  0  0  0  0  0
  184.3690  177.3640  135.9160 C   0  0  1  0  0  3  0  0  0  0  0  0
  185.8710  177.3820  136.3360 C   0  0  1  0  0  3  0  0  0  0  0  0
  186.4900  176.1180  136.7890 N   0  0  0  0  0  0  0  0  0  0  0  0
  185.5000  175.1360  137.2260 C   0  0  0  0  0  2  0  0  0  0  0  0
  184.9500  174.3540  136.0330 C   0  0  0  0  0  2  0  0  0  0  0  0
  185.2110  175.0370  134.8370 O   0  0  0  0  0  0  0  0  0  0  0  0
  183.9020  176.1340  134.6050 S   0  0  0  0  0  0  0  0  0  0  0  0
  187.2890  176.4360  137.9600 C   0  0  0  0  0  1  0  0  0  0  0  0
  186.7600  178.1460  135.3550 C   0  0  0  0  0  2  0  0  0  0  0  0
  187.7870  177.2510  134.6830 C   0  0  0  0  0  1  0  0  0  0  0  0
  184.9620  178.2530  140.6010 C   0  0  0  0  0  3  0  0  0  0  0  0
  182.8770  178.6710  141.7730 C   0  0  0  0  0  0  0  0  0  0  0  0
  184.9730  178.6100  142.9930 C   0  0  0  0  0  0  0  0  0  0  0  0
  183.5680  178.4160  140.5730 C   0  0  0  0  0  0  0  0  0  0  0  0
  183.5840  178.7670  142.9760 C   0  0  0  0  0  3  0  0  0  0  0  0
  181.1320  178.8700  141.8050 Cl  0  0  0  0  0  0  0  0  0  0  0  0
  185.7160  178.7150  144.2760 C   0  0  0  0  0  1  0  0  0  0  0  0
  185.6610  178.3520  141.8060 C   0  0  0  0  0  3  0  0  0  0  0  0
  181.6350  178.4920  135.8150 C   0  0  0  0  0  2  0  0  0  0  0  0
  181.0810  179.5110  136.5950 O   0  0  0  0  0  1  0  0  0  0  0  0
  1  6  2  0  0  0  0
  2 22  1  1  0  0  0
  4 27  1  1  0  0  0
  4  8  1  0  0  0  0
  4  6  1  0  0  0  0
  5  2  1  0  0  0  0
  6  7  1  0  0  0  0
  7  2  1  0  0  0  0
  7  3  1  6  0  0  0
  8  5  1  1  0  0  0
  9 15  1  6  0  0  0
  9 10  1  0  0  0  0
  9  8  1  0  0  0  0
 10 17  1  6  0  0  0
 10 11  1  0  0  0  0
 11 12  1  0  0  0  0
 11 16  1  0  0  0  0
 13 12  1  0  0  0  0
 14 13  1  0  0  0  0
 15 14  1  0  0  0  0
 18 17  1  0  0  0  0
 19 26  1  0  0  0  0
 20 24  1  0  0  0  0
 20 23  2  0  0  0  0
 21 25  1  0  0  0  0
 22 19  2  0  0  0  0
 22 20  1  0  0  0  0
 23 21  1  0  0  0  0
 26 21  2  0  0  0  0
 27 28  1  0  0  0  0
M  END
>  <MODEL>
7

>  <REMARK>
 VINA RESULT:      -4.0      2.338      4.704
  Name = 
  4 active torsions:
  status: ('A' for Active; 'I' for Inactive)
    1  A    between atoms: C_1  and  N_27
    2  A    between atoms: C_2  and  C_7
    3  A    between atoms: C_10  and  C_13
    4  A    between atoms: C_16  and  C_19
                            x       y       z     vdW  Elec       q    Type
                         _______ _______ _______ _____ _____    ______ ____

>  <TORSDO>
F 4

$$$$
=
 OpenBabel10262420593D

 28 30  0  0  1  0  0  0  0  0999 V2000
  182.6080  179.8730  138.9900 O   0  0  0  0  0  0  0  0  0  0  0  0
  182.4220  176.4380  138.0760 C   0  0  1  0  0  3  0  0  0  0  0  0
  181.9150  178.2460  136.3530 C   0  0  0  0  0  1  0  0  0  0  0  0
  184.4500  178.4640  138.4990 C   0  0  2  0  0  3  0  0  0  0  0  0
  183.9330  176.1480  137.9920 C   0  0  0  0  0  2  0  0  0  0  0  0
  182.9860  178.8230  138.4960 C   0  0  0  0  0  0  0  0  0  0  0  0
  182.0040  177.9030  137.8340 C   0  0  2  0  0  3  0  0  0  0  0  0
  184.7070  177.3320  137.5810 N   0  0  2  0  0  0  0  0  0  0  0  0
  186.1450  177.0130  137.4960 C   0  0  1  0  0  3  0  0  0  0  0  0
  186.4060  175.6690  136.7500 C   0  0  1  0  0  3  0  0  0  0  0  0
  186.2560  175.6400  135.2790 N   0  0  0  0  0  0  0  0  0  0  0  0
  185.4340  176.7400  134.7790 C   0  0  0  0  0  2  0  0  0  0  0  0
  186.2760  178.0030  134.5960 C   0  0  0  0  0  2  0  0  0  0  0  0
  187.4710  177.9060  135.3210 O   0  0  0  0  0  0  0  0  0  0  0  0
  187.1270  178.4760  136.9100 S   0  0  0  0  0  0  0  0  0  0  0  0
  185.5400  174.4190  134.9520 C   0  0  0  0  0  1  0  0  0  0  0  0
  187.6760  174.9570  137.2190 C   0  0  0  0  0  2  0  0  0  0  0  0
  188.8090  175.0680  136.2130 C   0  0  0  0  0  1  0  0  0  0  0  0
  182.0420  174.8160  136.1860 C   0  0  0  0  0  3  0  0  0  0  0  0
  180.3050  175.0700  137.8630 C   0  0  0  0  0  0  0  0  0  0  0  0
  180.0010  173.5310  136.0130 C   0  0  0  0  0  0  0  0  0  0  0  0
  181.5760  175.4170  137.3660 C   0  0  0  0  0  0  0  0  0  0  0  0
  179.5250  174.1280  137.1840 C   0  0  0  0  0  3  0  0  0  0  0  0
  179.6610  175.7970  139.3270 Cl  0  0  0  0  0  0  0  0  0  0  0  0
  179.1660  172.5300  135.2980 C   0  0  0  0  0  1  0  0  0  0  0  0
  181.2590  173.8760  135.5140 C   0  0  0  0  0  3  0  0  0  0  0  0
  185.0020  178.2640  139.9220 C   0  0  0  0  0  2  0  0  0  0  0  0
  185.4670  179.4640  140.4660 O   0  0  0  0  0  1  0  0  0  0  0  0
  2 22  1  6  0  0  0
  4 27  1  1  0  0  0
  5  2  1  0  0  0  0
  6  4  1  0  0  0  0
  6  1  2  0  0  0  0
  7  3  1  6  0  0  0
  7  2  1  0  0  0  0
  7  6  1  0  0  0  0
  8  5  1  1  0  0  0
  8  4  1  0  0  0  0
  9 15  1  6  0  0  0
  9  8  1  0  0  0  0
 10 17  1  6  0  0  0
 10  9  1  0  0  0  0
 11 10  1  0  0  0  0
 12 11  1  0  0  0  0
 13 12  1  0  0  0  0
 13 14  1  0  0  0  0
 14 15  1  0  0  0  0
 16 11  1  0  0  0  0
 18 17  1  0  0  0  0
 19 22  1  0  0  0  0
 20 24  1  0  0  0  0
 21 23  2  0  0  0  0
 22 20  2  0  0  0  0
 23 20  1  0  0  0  0
 25 21  1  0  0  0  0
 26 21  1  0  0  0  0
 26 19  2  0  0  0  0
 27 28  1  0  0  0  0
M  END
>  <MODEL>
8

>  <REMARK>
 VINA RESULT:      -3.7      3.291      5.740
  Name = 
  4 active torsions:
  status: ('A' for Active; 'I' for Inactive)
    1  A    between atoms: C_1  and  N_27
    2  A    between atoms: C_2  and  C_7
    3  A    between atoms: C_10  and  C_13
    4  A    between atoms: C_16  and  C_19
                            x       y       z     vdW  Elec       q    Type
                         _______ _______ _______ _____ _____    ______ ____

>  <TORSDO>
F 4

$$$$
=
 OpenBabel10262420593D

 28 30  0  0  1  0  0  0  0  0999 V2000
  187.3820  174.3660  136.5680 O   0  0  0  0  0  0  0  0  0  0  0  0
  183.9900  173.7580  135.6790 C   0  0  1  0  0  3  0  0  0  0  0  0
  184.8590  173.0360  137.9620 C   0  0  0  0  0  1  0  0  0  0  0  0
  185.6320  175.9650  136.5860 C   0  0  2  0  0  3  0  0  0  0  0  0
  183.4570  175.1960  135.8340 C   0  0  0  0  0  2  0  0  0  0  0  0
  186.1770  174.5610  136.5450 C   0  0  0  0  0  0  0  0  0  0  0  0
  185.2250  173.4020  136.5310 C   0  0  2  0  0  3  0  0  0  0  0  0
  184.1800  175.9500  136.8730 N   0  0  2  0  0  0  0  0  0  0  0  0
  183.6340  177.3140  137.0050 C   0  0  1  0  0  3  0  0  0  0  0  0
  182.0750  177.3260  136.9950 C   0  0  1  0  0  3  0  0  0  0  0  0
  181.3600  176.8630  138.2040 N   0  0  0  0  0  0  0  0  0  0  0  0
  182.1950  176.0230  139.0600 C   0  0  0  0  0  2  0  0  0  0  0  0
  183.0570  176.8820  139.9860 C   0  0  0  0  0  2  0  0  0  0  0  0
  183.1330  178.1960  139.5060 O   0  0  0  0  0  0  0  0  0  0  0  0
  184.4500  178.2350  138.3950 S   0  0  0  0  0  0  0  0  0  0  0  0
  180.2670  176.0200  137.7510 C   0  0  0  0  0  1  0  0  0  0  0  0
  181.4870  178.6210  136.4330 C   0  0  0  0  0  2  0  0  0  0  0  0
  181.5560  178.6800  134.9160 C   0  0  0  0  0  1  0  0  0  0  0  0
  181.6280  173.0300  136.1670 C   0  0  0  0  0  3  0  0  0  0  0  0
  183.1640  171.4140  135.2070 C   0  0  0  0  0  0  0  0  0  0  0  0
  180.8780  170.7770  135.7070 C   0  0  0  0  0  0  0  0  0  0  0  0
  182.9050  172.7160  135.6770 C   0  0  0  0  0  0  0  0  0  0  0  0
  182.1490  170.4520  135.2240 C   0  0  0  0  0  3  0  0  0  0  0  0
  184.7470  170.9560  134.5950 Cl  0  0  0  0  0  0  0  0  0  0  0  0
  179.8050  169.7490  135.7210 C   0  0  0  0  0  1  0  0  0  0  0  0
  180.6190  172.0650  136.1800 C   0  0  0  0  0  3  0  0  0  0  0  0
  186.0240  176.7820  135.3410 C   0  0  0  0  0  2  0  0  0  0  0  0
  186.9120  177.8120  135.6600 O   0  0  0  0  0  1  0  0  0  0  0  0
  2 22  1  1  0  0  0
  2  5  1  0  0  0  0
  2  7  1  0  0  0  0
  4 27  1  6  0  0  0
  4  8  1  0  0  0  0
  6  1  2  0  0  0  0
  6  4  1  0  0  0  0
  7  6  1  0  0  0  0
  7  3  1  1  0  0  0
  8  5  1  6  0  0  0
  8  9  1  0  0  0  0
  9 15  1  1  0  0  0
 10 17  1  1  0  0  0
 10  9  1  0  0  0  0
 10 11  1  0  0  0  0
 11 12  1  0  0  0  0
 12 13  1  0  0  0  0
 14 13  1  0  0  0  0
 15 14  1  0  0  0  0
 16 11  1  0  0  0  0
 18 17  1  0  0  0  0
 19 26  1  0  0  0  0
 20 23  2  0  0  0  0
 20 22  1  0  0  0  0
 21 25  1  0  0  0  0
 21 26  2  0  0  0  0
 22 19  2  0  0  0  0
 23 21  1  0  0  0  0
 24 20  1  0  0  0  0
 27 28  1  0  0  0  0
M  END
>  <MODEL>
9

>  <REMARK>
 VINA RESULT:      -3.5      3.442      6.485
  Name = 
  4 active torsions:
  status: ('A' for Active; 'I' for Inactive)
    1  A    between atoms: C_1  and  N_27
    2  A    between atoms: C_2  and  C_7
    3  A    between atoms: C_10  and  C_13
    4  A    between atoms: C_16  and  C_19
                            x       y       z     vdW  Elec       q    Type
                         _______ _______ _______ _____ _____    ______ ____

>  <TORSDO>
F 4

$$$$
