=
 OpenBabel10262420133D

 27 30  0  0  1  0  0  0  0  0999 V2000
  188.4610  178.0220  142.6210 C   0  0  2  0  0  3  0  0  0  0  0  0
  187.9360  177.8280  141.1880 C   0  0  1  0  0  3  0  0  0  0  0  0
  186.4490  177.8040  136.9740 S   0  0  0  0  0  0  0  0  0  0  0  0
  187.1680  175.1670  136.9170 C   0  0  0  0  0  1  0  0  0  0  0  0
  186.6340  178.5890  140.9730 C   0  0  0  0  0  2  0  0  0  0  0  0
  188.3420  176.6060  138.4130 O   0  0  0  0  0  0  0  0  0  0  0  0
  188.4110  177.9690  138.7070 C   0  0  1  0  0  3  0  0  0  0  0  0
  187.7580  176.5440  137.1390 C   0  0  2  0  0  3  0  0  0  0  0  0
  187.0370  178.5860  138.4850 C   0  0  2  0  0  3  0  0  0  0  0  0
  188.9570  178.2120  140.1140 C   0  0  0  0  0  2  0  0  0  0  0  0
  186.0600  178.2300  139.6100 C   0  0  0  0  0  2  0  0  0  0  0  0
  190.3710  178.4770  144.1310 N   0  0  0  0  0  0  0  0  0  0  0  0
  191.4810  176.4250  143.5360 C   0  0  1  0  0  3  0  0  0  0  0  0
  191.4200  179.4920  144.0510 C   0  0  0  0  0  1  0  0  0  0  0  0
  191.2680  175.0640  143.7490 O   0  0  0  0  0  1  0  0  0  0  0  0
  189.9910  178.1730  142.7510 C   0  0  1  0  0  3  0  0  0  0  0  0
  191.8380  177.4240  145.6900 O   0  0  0  0  0  1  0  0  0  0  0  0
  191.5730  177.1470  141.2800 O   0  0  0  0  0  1  0  0  0  0  0  0
  190.6980  176.8840  142.3320 C   0  0  1  0  0  3  0  0  0  0  0  0
  190.8960  177.2200  144.6750 C   0  0  1  0  0  3  0  0  0  0  0  0
  187.8760  176.9790  143.5850 C   0  0  0  0  0  2  0  0  0  0  0  0
  185.3600  178.6850  146.6200 C   0  0  0  0  0  3  0  0  0  0  0  0
  186.9910  177.5650  144.6400 C   0  0  0  0  0  0  0  0  0  0  0  0
  187.4210  177.5910  145.9710 C   0  0  0  0  0  3  0  0  0  0  0  0
  186.6070  178.1510  146.9600 C   0  0  0  0  0  3  0  0  0  0  0  0
  184.9280  178.6590  145.2910 C   0  0  0  0  0  3  0  0  0  0  0  0
  185.7410  178.1000  144.3020 C   0  0  0  0  0  3  0  0  0  0  0  0
  1 21  1  1  0  0  0
  2  1  1  1  0  0  0
  3  8  1  0  0  0  0
  3  9  1  0  0  0  0
  5  2  1  0  0  0  0
  6  7  1  0  0  0  0
  7 10  1  1  0  0  0
  8  4  1  1  0  0  0
  8  6  1  0  0  0  0
  9  7  1  0  0  0  0
  9 11  1  1  0  0  0
 10  2  1  0  0  0  0
 11  5  1  0  0  0  0
 12 20  1  0  0  0  0
 13 15  1  1  0  0  0
 13 20  1  0  0  0  0
 14 12  1  0  0  0  0
 16  1  1  1  0  0  0
 16 12  1  0  0  0  0
 19 18  1  6  0  0  0
 19 16  1  0  0  0  0
 19 13  1  0  0  0  0
 20 17  1  1  0  0  0
 21 23  1  0  0  0  0
 22 25  1  0  0  0  0
 23 24  1  0  0  0  0
 24 25  2  0  0  0  0
 26 22  2  0  0  0  0
 27 23  2  0  0  0  0
 27 26  1  0  0  0  0
M  END
>  <MODEL>
1

>  <REMARK>
 VINA RESULT:      -8.7      0.000      0.000
  Name = 
  4 active torsions:
  status: ('A' for Active; 'I' for Inactive)
    1  A    between atoms: C_1  and  C_2
    2  A    between atoms: C_1  and  C_15
    3  A    between atoms: C_1  and  C_18
    4  A    between atoms: C_9  and  C_15
                            x       y       z     vdW  Elec       q    Type
                         _______ _______ _______ _____ _____    ______ ____

>  <TORSDO>
F 4

$$$$
=
 OpenBabel10262420133D

 27 30  0  0  1  0  0  0  0  0999 V2000
  188.8570  177.9180  142.1840 C   0  0  2  0  0  3  0  0  0  0  0  0
  188.6180  177.6710  140.6840 C   0  0  1  0  0  3  0  0  0  0  0  0
  187.9550  177.4950  136.2680 S   0  0  0  0  0  0  0  0  0  0  0  0
  188.7540  174.8850  136.4260 C   0  0  0  0  0  1  0  0  0  0  0  0
  187.3570  178.3790  140.2060 C   0  0  0  0  0  2  0  0  0  0  0  0
  189.5780  176.4000  138.0720 O   0  0  0  0  0  0  0  0  0  0  0  0
  189.5480  177.7720  138.3340 C   0  0  1  0  0  3  0  0  0  0  0  0
  189.2480  176.2880  136.7130 C   0  0  2  0  0  3  0  0  0  0  0  0
  188.2210  178.3320  137.8390 C   0  0  2  0  0  3  0  0  0  0  0  0
  189.8110  178.0670  139.8100 C   0  0  0  0  0  2  0  0  0  0  0  0
  187.0620  177.9680  138.7710 C   0  0  0  0  0  2  0  0  0  0  0  0
  190.4350  178.4530  144.0170 N   0  0  0  0  0  0  0  0  0  0  0  0
  191.6980  176.4330  143.6760 C   0  0  1  0  0  3  0  0  0  0  0  0
  191.4480  179.5010  144.1170 C   0  0  0  0  0  1  0  0  0  0  0  0
  191.4910  175.0680  143.8690 O   0  0  0  0  0  1  0  0  0  0  0  0
  190.3300  178.1210  142.5950 C   0  0  1  0  0  3  0  0  0  0  0  0
  191.6140  177.4670  145.8410 O   0  0  0  0  0  1  0  0  0  0  0  0
  192.1900  177.1310  141.4650 O   0  0  0  0  0  1  0  0  0  0  0  0
  191.1410  176.8520  142.3380 C   0  0  1  0  0  3  0  0  0  0  0  0
  190.8860  177.2200  144.6710 C   0  0  1  0  0  3  0  0  0  0  0  0
  188.1280  176.8810  143.0510 C   0  0  0  0  0  2  0  0  0  0  0  0
  185.1030  178.5530  145.6040 C   0  0  0  0  0  3  0  0  0  0  0  0
  187.0830  177.4720  143.9450 C   0  0  0  0  0  0  0  0  0  0  0  0
  185.9290  178.0350  143.3870 C   0  0  0  0  0  3  0  0  0  0  0  0
  184.9410  178.5750  144.2150 C   0  0  0  0  0  3  0  0  0  0  0  0
  186.2560  177.9920  146.1630 C   0  0  0  0  0  3  0  0  0  0  0  0
  187.2440  177.4520  145.3360 C   0  0  0  0  0  3  0  0  0  0  0  0
  1 21  1  1  0  0  0
  2  1  1  1  0  0  0
  3  8  1  0  0  0  0
  3  9  1  0  0  0  0
  5  2  1  0  0  0  0
  6  7  1  0  0  0  0
  7 10  1  1  0  0  0
  8  4  1  1  0  0  0
  8  6  1  0  0  0  0
  9  7  1  0  0  0  0
  9 11  1  1  0  0  0
 10  2  1  0  0  0  0
 11  5  1  0  0  0  0
 12 14  1  0  0  0  0
 12 20  1  0  0  0  0
 13 15  1  1  0  0  0
 13 20  1  0  0  0  0
 16  1  1  1  0  0  0
 16 12  1  0  0  0  0
 19 18  1  6  0  0  0
 19 16  1  0  0  0  0
 19 13  1  0  0  0  0
 20 17  1  1  0  0  0
 21 23  1  0  0  0  0
 22 26  1  0  0  0  0
 23 27  1  0  0  0  0
 24 23  2  0  0  0  0
 24 25  1  0  0  0  0
 25 22  2  0  0  0  0
 27 26  2  0  0  0  0
M  END
>  <MODEL>
2

>  <REMARK>
 VINA RESULT:      -8.5      0.886      1.324
  Name = 
  4 active torsions:
  status: ('A' for Active; 'I' for Inactive)
    1  A    between atoms: C_1  and  C_2
    2  A    between atoms: C_1  and  C_15
    3  A    between atoms: C_1  and  C_18
    4  A    between atoms: C_9  and  C_15
                            x       y       z     vdW  Elec       q    Type
                         _______ _______ _______ _____ _____    ______ ____

>  <TORSDO>
F 4

$$$$
=
 OpenBabel10262420133D

 27 30  0  0  1  0  0  0  0  0999 V2000
  187.5120  178.0620  143.4040 C   0  0  2  0  0  3  0  0  0  0  0  0
  186.3780  178.0640  142.3650 C   0  0  1  0  0  3  0  0  0  0  0  0
  182.9270  178.5430  139.5660 S   0  0  0  0  0  0  0  0  0  0  0  0
  184.2330  176.7860  137.9280 C   0  0  0  0  0  1  0  0  0  0  0  0
  185.0130  178.0870  143.0420 C   0  0  0  0  0  2  0  0  0  0  0  0
  185.5490  178.1010  139.4200 O   0  0  0  0  0  0  0  0  0  0  0  0
  185.3640  179.1540  140.3190 C   0  0  1  0  0  3  0  0  0  0  0  0
  184.4160  178.1340  138.5930 C   0  0  2  0  0  3  0  0  0  0  0  0
  183.9810  179.0250  140.9430 C   0  0  2  0  0  3  0  0  0  0  0  0
  186.4870  179.2090  141.3550 C   0  0  0  0  0  2  0  0  0  0  0  0
  183.9270  177.9100  141.9910 C   0  0  0  0  0  2  0  0  0  0  0  0
  189.9350  178.2160  143.8910 N   0  0  0  0  0  0  0  0  0  0  0  0
  190.4180  176.1670  142.7230 C   0  0  1  0  0  3  0  0  0  0  0  0
  190.9410  179.1570  143.4030 C   0  0  0  0  0  1  0  0  0  0  0  0
  190.1740  174.8100  142.9220 O   0  0  0  0  0  1  0  0  0  0  0  0
  188.9410  178.0900  142.8250 C   0  0  1  0  0  3  0  0  0  0  0  0
  191.8200  176.9000  144.5290 O   0  0  0  0  0  1  0  0  0  0  0  0
  189.5610  177.1200  140.7290 O   0  0  0  0  0  1  0  0  0  0  0  0
  189.2330  176.8080  142.0460 C   0  0  1  0  0  3  0  0  0  0  0  0
  190.5050  176.8730  144.0520 C   0  0  1  0  0  3  0  0  0  0  0  0
  187.3120  176.9630  144.4590 C   0  0  0  0  0  2  0  0  0  0  0  0
  187.4670  178.3800  148.5110 C   0  0  0  0  0  3  0  0  0  0  0  0
  187.3770  177.4620  145.8680 C   0  0  0  0  0  0  0  0  0  0  0  0
  186.3860  178.3280  146.3450 C   0  0  0  0  0  3  0  0  0  0  0  0
  186.4310  178.7860  147.6650 C   0  0  0  0  0  3  0  0  0  0  0  0
  188.4590  177.5160  148.0360 C   0  0  0  0  0  3  0  0  0  0  0  0
  188.4140  177.0570  146.7170 C   0  0  0  0  0  3  0  0  0  0  0  0
  1 21  1  6  0  0  0
  2  5  1  0  0  0  0
  2  1  1  1  0  0  0
  3  9  1  0  0  0  0
  6  7  1  0  0  0  0
  7  9  1  0  0  0  0
  7 10  1  1  0  0  0
  8  4  1  1  0  0  0
  8  6  1  0  0  0  0
  8  3  1  0  0  0  0
  9 11  1  1  0  0  0
 10  2  1  0  0  0  0
 11  5  1  0  0  0  0
 12 20  1  0  0  0  0
 13 15  1  1  0  0  0
 13 20  1  0  0  0  0
 14 12  1  0  0  0  0
 16  1  1  1  0  0  0
 16 12  1  0  0  0  0
 19 18  1  6  0  0  0
 19 13  1  0  0  0  0
 19 16  1  0  0  0  0
 20 17  1  6  0  0  0
 21 23  1  0  0  0  0
 23 24  2  0  0  0  0
 23 27  1  0  0  0  0
 24 25  1  0  0  0  0
 25 22  2  0  0  0  0
 26 22  1  0  0  0  0
 27 26  2  0  0  0  0
M  END
>  <MODEL>
3

>  <REMARK>
 VINA RESULT:      -8.3      1.968      2.603
  Name = 
  4 active torsions:
  status: ('A' for Active; 'I' for Inactive)
    1  A    between atoms: C_1  and  C_2
    2  A    between atoms: C_1  and  C_15
    3  A    between atoms: C_1  and  C_18
    4  A    between atoms: C_9  and  C_15
                            x       y       z     vdW  Elec       q    Type
                         _______ _______ _______ _____ _____    ______ ____

>  <TORSDO>
F 4

$$$$
=
 OpenBabel10262420133D

 27 30  0  0  1  0  0  0  0  0999 V2000
  188.4140  177.7710  140.9980 C   0  0  2  0  0  3  0  0  0  0  0  0
  189.1320  177.3920  142.3040 C   0  0  1  0  0  3  0  0  0  0  0  0
  191.6810  176.4140  145.8430 S   0  0  0  0  0  0  0  0  0  0  0  0
  189.4220  176.7530  147.3470 C   0  0  0  0  0  1  0  0  0  0  0  0
  190.1090  176.2460  142.0820 C   0  0  0  0  0  2  0  0  0  0  0  0
  189.5700  177.9380  145.2830 O   0  0  0  0  0  0  0  0  0  0  0  0
  190.5130  178.1660  144.2780 C   0  0  1  0  0  3  0  0  0  0  0  0
  190.3200  177.5030  146.3860 C   0  0  2  0  0  3  0  0  0  0  0  0
  191.3890  176.9280  144.1430 C   0  0  2  0  0  3  0  0  0  0  0  0
  189.8450  178.5750  142.9650 C   0  0  0  0  0  2  0  0  0  0  0  0
  190.6630  175.7880  143.4230 C   0  0  0  0  0  2  0  0  0  0  0  0
  189.8900  176.5100  139.4590 N   0  0  0  0  0  0  0  0  0  0  0  0
  188.6000  177.1340  137.5250 C   0  0  1  0  0  3  0  0  0  0  0  0
  191.2750  176.7530  139.0640 C   0  0  0  0  0  1  0  0  0  0  0  0
  187.3370  176.8380  137.0150 O   0  0  0  0  0  1  0  0  0  0  0  0
  189.3080  177.8220  139.7410 C   0  0  1  0  0  3  0  0  0  0  0  0
  189.8450  175.0810  137.5480 O   0  0  0  0  0  1  0  0  0  0  0  0
  189.0550  179.4160  137.9760 O   0  0  0  0  0  1  0  0  0  0  0  0
  188.4990  178.2610  138.5210 C   0  0  1  0  0  3  0  0  0  0  0  0
  189.1100  175.9730  138.3380 C   0  0  1  0  0  3  0  0  0  0  0  0
  187.5480  179.0270  141.1710 C   0  0  0  0  0  2  0  0  0  0  0  0
  183.6420  178.2530  142.7830 C   0  0  0  0  0  3  0  0  0  0  0  0
  186.1860  178.7470  141.7260 C   0  0  0  0  0  0  0  0  0  0  0  0
  186.0310  178.5000  143.0940 C   0  0  0  0  0  3  0  0  0  0  0  0
  184.7600  178.2530  143.6220 C   0  0  0  0  0  3  0  0  0  0  0  0
  183.7950  178.4980  141.4150 C   0  0  0  0  0  3  0  0  0  0  0  0
  185.0650  178.7450  140.8870 C   0  0  0  0  0  3  0  0  0  0  0  0
  1 21  1  1  0  0  0
  2  1  1  6  0  0  0
  2 10  1  0  0  0  0
  3  8  1  0  0  0  0
  5  2  1  0  0  0  0
  5 11  1  0  0  0  0
  6  8  1  0  0  0  0
  7 10  1  6  0  0  0
  7  6  1  0  0  0  0
  8  4  1  1  0  0  0
  9 11  1  6  0  0  0
  9  7  1  0  0  0  0
  9  3  1  0  0  0  0
 12 16  1  0  0  0  0
 13 15  1  1  0  0  0
 13 20  1  0  0  0  0
 13 19  1  0  0  0  0
 14 12  1  0  0  0  0
 16  1  1  1  0  0  0
 19 18  1  6  0  0  0
 19 16  1  0  0  0  0
 20 17  1  6  0  0  0
 20 12  1  0  0  0  0
 21 23  1  0  0  0  0
 22 25  1  0  0  0  0
 23 24  1  0  0  0  0
 24 25  2  0  0  0  0
 26 22  2  0  0  0  0
 27 26  1  0  0  0  0
 27 23  2  0  0  0  0
M  END
>  <MODEL>
4

>  <REMARK>
 VINA RESULT:      -7.8      2.950      5.982
  Name = 
  4 active torsions:
  status: ('A' for Active; 'I' for Inactive)
    1  A    between atoms: C_1  and  C_2
    2  A    between atoms: C_1  and  C_15
    3  A    between atoms: C_1  and  C_18
    4  A    between atoms: C_9  and  C_15
                            x       y       z     vdW  Elec       q    Type
                         _______ _______ _______ _____ _____    ______ ____

>  <TORSDO>
F 4

$$$$
=
 OpenBabel10262420133D

 27 30  0  0  1  0  0  0  0  0999 V2000
  189.9960  176.6060  138.6320 C   0  0  2  0  0  3  0  0  0  0  0  0
  191.2320  175.7890  138.2180 C   0  0  1  0  0  3  0  0  0  0  0  0
  194.6770  173.5200  136.4990 S   0  0  0  0  0  0  0  0  0  0  0  0
  195.8790  173.8390  138.9340 C   0  0  0  0  0  1  0  0  0  0  0  0
  190.8370  174.5900  137.3660 C   0  0  0  0  0  2  0  0  0  0  0  0
  194.2750  175.4710  138.2660 O   0  0  0  0  0  0  0  0  0  0  0  0
  193.5180  175.7860  137.1340 C   0  0  1  0  0  3  0  0  0  0  0  0
  195.3050  174.6470  137.7890 C   0  0  2  0  0  3  0  0  0  0  0  0
  193.1660  174.4950  136.4090 C   0  0  2  0  0  3  0  0  0  0  0  0
  192.2920  176.6250  137.4960 C   0  0  0  0  0  2  0  0  0  0  0  0
  192.0600  173.7170  137.1270 C   0  0  0  0  0  2  0  0  0  0  0  0
  188.2490  176.3770  136.8920 N   0  0  0  0  0  0  0  0  0  0  0  0
  187.0370  178.2980  137.6910 C   0  0  1  0  0  3  0  0  0  0  0  0
  188.3220  176.5710  135.4460 C   0  0  0  0  0  1  0  0  0  0  0  0
  186.2780  178.6160  138.8160 O   0  0  0  0  0  1  0  0  0  0  0  0
  189.2330  177.2870  137.4770 C   0  0  1  0  0  3  0  0  0  0  0  0
  185.8910  176.5200  136.5530 O   0  0  0  0  0  1  0  0  0  0  0  0
  188.9370  179.6510  137.2720 O   0  0  0  0  0  1  0  0  0  0  0  0
  188.4990  178.5320  137.9760 C   0  0  1  0  0  3  0  0  0  0  0  0
  186.9520  176.8180  137.4180 C   0  0  1  0  0  3  0  0  0  0  0  0
  190.3130  177.5640  139.7910 C   0  0  0  0  0  2  0  0  0  0  0  0
  188.6320  176.3750  143.5620 C   0  0  0  0  0  3  0  0  0  0  0  0
  189.7180  177.1440  141.0980 C   0  0  0  0  0  0  0  0  0  0  0  0
  190.4420  176.3050  141.9540 C   0  0  0  0  0  3  0  0  0  0  0  0
  189.8990  175.9210  143.1830 C   0  0  0  0  0  3  0  0  0  0  0  0
  187.9070  177.2130  142.7080 C   0  0  0  0  0  3  0  0  0  0  0  0
  188.4490  177.5970  141.4790 C   0  0  0  0  0  3  0  0  0  0  0  0
  1 21  1  1  0  0  0
  2  1  1  6  0  0  0
  3  8  1  0  0  0  0
  5  2  1  0  0  0  0
  7 10  1  1  0  0  0
  7  6  1  0  0  0  0
  8  6  1  0  0  0  0
  8  4  1  1  0  0  0
  9  3  1  0  0  0  0
  9 11  1  1  0  0  0
  9  7  1  0  0  0  0
 10  2  1  0  0  0  0
 11  5  1  0  0  0  0
 12 20  1  0  0  0  0
 12 16  1  0  0  0  0
 13 19  1  0  0  0  0
 13 15  1  1  0  0  0
 14 12  1  0  0  0  0
 16 19  1  0  0  0  0
 16  1  1  1  0  0  0
 19 18  1  6  0  0  0
 20 17  1  6  0  0  0
 20 13  1  0  0  0  0
 21 23  1  0  0  0  0
 23 27  2  0  0  0  0
 23 24  1  0  0  0  0
 24 25  2  0  0  0  0
 25 22  1  0  0  0  0
 26 22  2  0  0  0  0
 27 26  1  0  0  0  0
M  END
>  <MODEL>
5

>  <REMARK>
 VINA RESULT:      -7.7      4.084      6.759
  Name = 
  4 active torsions:
  status: ('A' for Active; 'I' for Inactive)
    1  A    between atoms: C_1  and  C_2
    2  A    between atoms: C_1  and  C_15
    3  A    between atoms: C_1  and  C_18
    4  A    between atoms: C_9  and  C_15
                            x       y       z     vdW  Elec       q    Type
                         _______ _______ _______ _____ _____    ______ ____

>  <TORSDO>
F 4

$$$$
=
 OpenBabel10262420133D

 27 30  0  0  1  0  0  0  0  0999 V2000
  188.9820  177.9050  141.6390 C   0  0  2  0  0  3  0  0  0  0  0  0
  187.7980  178.2300  142.5650 C   0  0  1  0  0  3  0  0  0  0  0  0
  184.0500  178.8870  144.9100 S   0  0  0  0  0  0  0  0  0  0  0  0
  185.6810  179.4450  147.0320 C   0  0  0  0  0  1  0  0  0  0  0  0
  186.7110  178.9920  141.8190 C   0  0  0  0  0  2  0  0  0  0  0  0
  186.5230  177.9960  145.3370 O   0  0  0  0  0  0  0  0  0  0  0  0
  186.0570  177.3620  144.1830 C   0  0  1  0  0  3  0  0  0  0  0  0
  185.3640  178.3370  146.0500 C   0  0  2  0  0  3  0  0  0  0  0  0
  185.0110  178.2520  143.5260 C   0  0  2  0  0  3  0  0  0  0  0  0
  187.2050  176.9920  143.2440 C   0  0  0  0  0  2  0  0  0  0  0  0
  185.6450  179.4460  142.8060 C   0  0  0  0  0  2  0  0  0  0  0  0
  190.2820  178.3800  143.6930 N   0  0  0  0  0  0  0  0  0  0  0  0
  191.5840  176.3660  143.4740 C   0  0  1  0  0  3  0  0  0  0  0  0
  191.2700  179.4210  143.9690 C   0  0  0  0  0  1  0  0  0  0  0  0
  191.3530  174.9970  143.5940 O   0  0  0  0  0  1  0  0  0  0  0  0
  190.3810  178.0910  142.2620 C   0  0  1  0  0  3  0  0  0  0  0  0
  191.1920  177.3350  145.6360 O   0  0  0  0  0  1  0  0  0  0  0  0
  192.3850  177.1310  141.3780 O   0  0  0  0  0  1  0  0  0  0  0  0
  191.2230  176.8280  142.0840 C   0  0  1  0  0  3  0  0  0  0  0  0
  190.6370  177.1260  144.3670 C   0  0  1  0  0  3  0  0  0  0  0  0
  188.8360  178.5890  140.2710 C   0  0  0  0  0  2  0  0  0  0  0  0
  188.5390  175.8650  136.9630 C   0  0  0  0  0  3  0  0  0  0  0  0
  188.7340  177.6310  139.1270 C   0  0  0  0  0  0  0  0  0  0  0  0
  187.5670  177.5920  138.3550 C   0  0  0  0  0  3  0  0  0  0  0  0
  187.4700  176.7110  137.2740 C   0  0  0  0  0  3  0  0  0  0  0  0
  189.7050  175.9010  137.7340 C   0  0  0  0  0  3  0  0  0  0  0  0
  189.8030  176.7820  138.8140 C   0  0  0  0  0  3  0  0  0  0  0  0
  1 21  1  6  0  0  0
  2  1  1  6  0  0  0
  2 10  1  0  0  0  0
  3  8  1  0  0  0  0
  5  2  1  0  0  0  0
  5 11  1  0  0  0  0
  6  8  1  0  0  0  0
  7 10  1  6  0  0  0
  7  6  1  0  0  0  0
  8  4  1  1  0  0  0
  9 11  1  1  0  0  0
  9  7  1  0  0  0  0
  9  3  1  0  0  0  0
 12 14  1  0  0  0  0
 12 20  1  0  0  0  0
 13 15  1  6  0  0  0
 13 20  1  0  0  0  0
 16  1  1  1  0  0  0
 16 12  1  0  0  0  0
 19 18  1  6  0  0  0
 19 16  1  0  0  0  0
 19 13  1  0  0  0  0
 20 17  1  1  0  0  0
 22 25  2  0  0  0  0
 22 26  1  0  0  0  0
 23 21  1  0  0  0  0
 24 23  2  0  0  0  0
 25 24  1  0  0  0  0
 26 27  2  0  0  0  0
 27 23  1  0  0  0  0
M  END
>  <MODEL>
6

>  <REMARK>
 VINA RESULT:      -7.7      2.125      5.717
  Name = 
  4 active torsions:
  status: ('A' for Active; 'I' for Inactive)
    1  A    between atoms: C_1  and  C_2
    2  A    between atoms: C_1  and  C_15
    3  A    between atoms: C_1  and  C_18
    4  A    between atoms: C_9  and  C_15
                            x       y       z     vdW  Elec       q    Type
                         _______ _______ _______ _____ _____    ______ ____

>  <TORSDO>
F 4

$$$$
=
 OpenBabel10262420133D

 27 30  0  0  1  0  0  0  0  0999 V2000
  182.3200  178.0050  141.3680 C   0  0  2  0  0  3  0  0  0  0  0  0
  182.5000  177.5200  139.9200 C   0  0  1  0  0  3  0  0  0  0  0  0
  183.5260  175.9620  135.8580 S   0  0  0  0  0  0  0  0  0  0  0  0
  180.8300  175.8160  135.4230 C   0  0  0  0  0  1  0  0  0  0  0  0
  183.6580  178.2390  139.2410 C   0  0  0  0  0  2  0  0  0  0  0  0
  181.6020  175.6480  137.6730 O   0  0  0  0  0  0  0  0  0  0  0  0
  182.8190  175.5600  138.3520 C   0  0  1  0  0  3  0  0  0  0  0  0
  181.9030  175.2870  136.3510 C   0  0  2  0  0  3  0  0  0  0  0  0
  183.8650  176.3530  137.5820 C   0  0  2  0  0  3  0  0  0  0  0  0
  182.6810  176.0040  139.8090 C   0  0  0  0  0  2  0  0  0  0  0  0
  183.6900  177.8630  137.7660 C   0  0  0  0  0  2  0  0  0  0  0  0
  180.7510  179.8600  141.8510 N   0  0  0  0  0  0  0  0  0  0  0  0
  179.1810  179.1200  140.1830 C   0  0  1  0  0  3  0  0  0  0  0  0
  179.9290  180.1210  143.0310 C   0  0  0  0  0  1  0  0  0  0  0  0
  179.1380  179.0670  138.7910 O   0  0  0  0  0  1  0  0  0  0  0  0
  180.8820  178.4050  141.7590 C   0  0  1  0  0  3  0  0  0  0  0  0
  179.3120  181.4400  140.7910 O   0  0  0  0  0  1  0  0  0  0  0  0
  178.9500  177.0610  141.3340 O   0  0  0  0  0  1  0  0  0  0  0  0
  179.8810  177.8980  140.7220 C   0  0  1  0  0  3  0  0  0  0  0  0
  180.0560  180.2660  140.6250 C   0  0  1  0  0  3  0  0  0  0  0  0
  183.3640  179.0670  141.7440 C   0  0  0  0  0  2  0  0  0  0  0  0
  185.4620  178.2540  145.4040 C   0  0  0  0  0  3  0  0  0  0  0  0
  184.0860  178.7760  143.0220 C   0  0  0  0  0  0  0  0  0  0  0  0
  185.3770  178.2370  142.9830 C   0  0  0  0  0  3  0  0  0  0  0  0
  186.0640  177.9770  144.1730 C   0  0  0  0  0  3  0  0  0  0  0  0
  184.1710  178.7910  145.4450 C   0  0  0  0  0  3  0  0  0  0  0  0
  183.4840  179.0520  144.2560 C   0  0  0  0  0  3  0  0  0  0  0  0
  1 21  1  6  0  0  0
  2  1  1  1  0  0  0
  3  8  1  0  0  0  0
  3  9  1  0  0  0  0
  5  2  1  0  0  0  0
  6  7  1  0  0  0  0
  7 10  1  1  0  0  0
  8  4  1  6  0  0  0
  8  6  1  0  0  0  0
  9 11  1  6  0  0  0
  9  7  1  0  0  0  0
 10  2  1  0  0  0  0
 11  5  1  0  0  0  0
 12 14  1  0  0  0  0
 13 15  1  6  0  0  0
 13 20  1  0  0  0  0
 13 19  1  0  0  0  0
 16  1  1  6  0  0  0
 16 12  1  0  0  0  0
 19 18  1  1  0  0  0
 19 16  1  0  0  0  0
 20 17  1  1  0  0  0
 20 12  1  0  0  0  0
 21 23  1  0  0  0  0
 22 26  1  0  0  0  0
 23 27  1  0  0  0  0
 24 23  2  0  0  0  0
 24 25  1  0  0  0  0
 25 22  2  0  0  0  0
 27 26  2  0  0  0  0
M  END
>  <MODEL>
7

>  <REMARK>
 VINA RESULT:      -7.2      5.573      7.921
  Name = 
  4 active torsions:
  status: ('A' for Active; 'I' for Inactive)
    1  A    between atoms: C_1  and  C_2
    2  A    between atoms: C_1  and  C_15
    3  A    between atoms: C_1  and  C_18
    4  A    between atoms: C_9  and  C_15
                            x       y       z     vdW  Elec       q    Type
                         _______ _______ _______ _____ _____    ______ ____

>  <TORSDO>
F 4

$$$$
=
 OpenBabel10262420133D

 27 30  0  0  1  0  0  0  0  0999 V2000
  188.3020  177.6690  142.1940 C   0  0  2  0  0  3  0  0  0  0  0  0
  186.8060  177.9050  142.4680 C   0  0  1  0  0  3  0  0  0  0  0  0
  182.6180  179.0250  143.5520 S   0  0  0  0  0  0  0  0  0  0  0  0
  181.8420  177.5120  141.4100 C   0  0  0  0  0  1  0  0  0  0  0  0
  186.5120  177.8780  143.9620 C   0  0  0  0  0  2  0  0  0  0  0  0
  184.0180  178.4870  141.3520 O   0  0  0  0  0  0  0  0  0  0  0  0
  184.7810  179.3780  142.1100 C   0  0  1  0  0  3  0  0  0  0  0  0
  182.6940  178.7160  141.7550 C   0  0  2  0  0  3  0  0  0  0  0  0
  184.4080  179.2120  143.5770 C   0  0  2  0  0  3  0  0  0  0  0  0
  186.2760  179.1990  141.8470 C   0  0  0  0  0  2  0  0  0  0  0  0
  185.0060  177.9380  144.1800 C   0  0  0  0  0  2  0  0  0  0  0  0
  189.5940  176.5670  143.9960 N   0  0  0  0  0  0  0  0  0  0  0  0
  191.6500  177.6250  143.3280 C   0  0  1  0  0  3  0  0  0  0  0  0
  189.5460  176.7530  145.4450 C   0  0  0  0  0  1  0  0  0  0  0  0
  192.5290  177.5320  142.2500 O   0  0  0  0  0  1  0  0  0  0  0  0
  189.2360  177.8570  143.4070 C   0  0  1  0  0  3  0  0  0  0  0  0
  191.6800  175.4980  144.4410 O   0  0  0  0  0  1  0  0  0  0  0  0
  190.6680  179.7470  143.7190 O   0  0  0  0  0  1  0  0  0  0  0  0
  190.5230  178.5680  142.9900 C   0  0  1  0  0  3  0  0  0  0  0  0
  190.9650  176.3010  143.5450 C   0  0  1  0  0  3  0  0  0  0  0  0
  188.7750  178.4300  140.9460 C   0  0  0  0  0  2  0  0  0  0  0  0
  189.6440  175.9130  137.5750 C   0  0  0  0  0  3  0  0  0  0  0  0
  189.0780  177.5430  139.7790 C   0  0  0  0  0  0  0  0  0  0  0  0
  188.1660  177.4510  138.7220 C   0  0  0  0  0  3  0  0  0  0  0  0
  188.4490  176.6370  137.6210 C   0  0  0  0  0  3  0  0  0  0  0  0
  190.5560  176.0030  138.6310 C   0  0  0  0  0  3  0  0  0  0  0  0
  190.2740  176.8160  139.7320 C   0  0  0  0  0  3  0  0  0  0  0  0
  1 21  1  6  0  0  0
  2  1  1  1  0  0  0
  2  5  1  0  0  0  0
  3  9  1  0  0  0  0
  5 11  1  0  0  0  0
  6  8  1  0  0  0  0
  6  7  1  0  0  0  0
  7 10  1  1  0  0  0
  7  9  1  0  0  0  0
  8  4  1  1  0  0  0
  8  3  1  0  0  0  0
  9 11  1  6  0  0  0
 10  2  1  0  0  0  0
 12 14  1  0  0  0  0
 13 15  1  6  0  0  0
 13 20  1  0  0  0  0
 16  1  1  6  0  0  0
 16 12  1  0  0  0  0
 19 13  1  0  0  0  0
 19 16  1  0  0  0  0
 19 18  1  1  0  0  0
 20 12  1  0  0  0  0
 20 17  1  1  0  0  0
 22 25  2  0  0  0  0
 22 26  1  0  0  0  0
 23 21  1  0  0  0  0
 24 23  2  0  0  0  0
 25 24  1  0  0  0  0
 26 27  2  0  0  0  0
 27 23  1  0  0  0  0
M  END
>  <MODEL>
8

>  <REMARK>
 VINA RESULT:      -7.1      2.619      5.354
  Name = 
  4 active torsions:
  status: ('A' for Active; 'I' for Inactive)
    1  A    between atoms: C_1  and  C_2
    2  A    between atoms: C_1  and  C_15
    3  A    between atoms: C_1  and  C_18
    4  A    between atoms: C_9  and  C_15
                            x       y       z     vdW  Elec       q    Type
                         _______ _______ _______ _____ _____    ______ ____

>  <TORSDO>
F 4

$$$$
=
 OpenBabel10262420133D

 27 30  0  0  1  0  0  0  0  0999 V2000
  188.8990  177.7850  142.0270 C   0  0  2  0  0  3  0  0  0  0  0  0
  187.3770  177.9140  141.8410 C   0  0  1  0  0  3  0  0  0  0  0  0
  182.9720  178.6530  141.7040 S   0  0  0  0  0  0  0  0  0  0  0  0
  183.0550  177.6390  139.1660 C   0  0  0  0  0  1  0  0  0  0  0  0
  186.6350  177.5450  143.1190 C   0  0  0  0  0  2  0  0  0  0  0  0
  185.0340  178.6580  140.0200 O   0  0  0  0  0  0  0  0  0  0  0  0
  185.4320  179.3760  141.1500 C   0  0  1  0  0  3  0  0  0  0  0  0
  183.6350  178.7570  140.0070 C   0  0  2  0  0  3  0  0  0  0  0  0
  184.6380  178.8760  142.3490 C   0  0  2  0  0  3  0  0  0  0  0  0
  186.9440  179.3000  141.3580 C   0  0  0  0  0  2  0  0  0  0  0  0
  185.1390  177.5160  142.8410 C   0  0  0  0  0  2  0  0  0  0  0  0
  190.6710  176.9070  140.5360 N   0  0  0  0  0  0  0  0  0  0  0  0
  189.2600  177.0390  138.5900 C   0  0  1  0  0  3  0  0  0  0  0  0
  191.9330  177.5080  140.1090 C   0  0  0  0  0  1  0  0  0  0  0  0
  188.1320  176.3730  138.1140 O   0  0  0  0  0  1  0  0  0  0  0  0
  189.7440  178.0170  140.7580 C   0  0  1  0  0  3  0  0  0  0  0  0
  191.0320  175.4230  138.7030 O   0  0  0  0  0  1  0  0  0  0  0  0
  189.0560  179.3780  138.9160 O   0  0  0  0  0  1  0  0  0  0  0  0
  188.8450  178.1450  139.5280 C   0  0  1  0  0  3  0  0  0  0  0  0
  190.0750  176.1130  139.4560 C   0  0  1  0  0  3  0  0  0  0  0  0
  189.2710  176.4920  142.7690 C   0  0  0  0  0  2  0  0  0  0  0  0
  190.8200  177.1280  146.7250 C   0  0  0  0  0  3  0  0  0  0  0  0
  189.8180  176.7230  144.1430 C   0  0  0  0  0  0  0  0  0  0  0  0
  188.9620  177.1320  145.1720 C   0  0  0  0  0  3  0  0  0  0  0  0
  189.4620  177.3340  146.4610 C   0  0  0  0  0  3  0  0  0  0  0  0
  191.6770  176.7210  145.6980 C   0  0  0  0  0  3  0  0  0  0  0  0
  191.1770  176.5180  144.4090 C   0  0  0  0  0  3  0  0  0  0  0  0
  1 21  1  6  0  0  0
  2  1  1  1  0  0  0
  2  5  1  0  0  0  0
  3  9  1  0  0  0  0
  6  7  1  0  0  0  0
  7 10  1  1  0  0  0
  7  9  1  0  0  0  0
  8  4  1  6  0  0  0
  8  6  1  0  0  0  0
  8  3  1  0  0  0  0
  9 11  1  6  0  0  0
 10  2  1  0  0  0  0
 11  5  1  0  0  0  0
 12 16  1  0  0  0  0
 13 15  1  1  0  0  0
 13 20  1  0  0  0  0
 13 19  1  0  0  0  0
 14 12  1  0  0  0  0
 16  1  1  1  0  0  0
 19 18  1  6  0  0  0
 19 16  1  0  0  0  0
 20 17  1  6  0  0  0
 20 12  1  0  0  0  0
 21 23  1  0  0  0  0
 23 27  2  0  0  0  0
 23 24  1  0  0  0  0
 24 25  2  0  0  0  0
 25 22  1  0  0  0  0
 26 22  2  0  0  0  0
 27 26  1  0  0  0  0
M  END
>  <MODEL>
9

>  <REMARK>
 VINA RESULT:      -7.0      2.879      4.460
  Name = 
  4 active torsions:
  status: ('A' for Active; 'I' for Inactive)
    1  A    between atoms: C_1  and  C_2
    2  A    between atoms: C_1  and  C_15
    3  A    between atoms: C_1  and  C_18
    4  A    between atoms: C_9  and  C_15
                            x       y       z     vdW  Elec       q    Type
                         _______ _______ _______ _____ _____    ______ ____

>  <TORSDO>
F 4

$$$$
