=
 OpenBabel10262420143D

 27 31  0  0  1  0  0  0  0  0999 V2000
  187.0330  178.1870  142.5210 N   0  0  0  0  0  0  0  0  0  0  0  0
  185.9850  178.5500  140.4230 C   0  0  0  0  0  0  0  0  0  0  0  0
  183.5000  179.0460  143.1140 C   0  0  0  0  0  3  0  0  0  0  0  0
  185.8460  178.6540  139.0160 N   0  0  0  0  0  0  0  0  0  0  0  0
  184.6150  178.6670  145.2450 C   0  0  0  0  0  0  0  0  0  0  0  0
  187.1410  178.2300  141.1570 C   0  0  0  0  0  0  0  0  0  0  0  0
  183.7700  179.1090  140.0150 C   0  0  1  0  0  3  0  0  0  0  0  0
  185.8630  178.4490  143.1750 C   0  0  0  0  0  0  0  0  0  0  0  0
  184.7970  178.8070  141.0530 C   0  0  0  0  0  0  0  0  0  0  0  0
  183.4610  178.9920  144.5100 C   0  0  0  0  0  3  0  0  0  0  0  0
  184.6110  178.9700  138.7690 C   0  0  0  0  0  3  0  0  0  0  0  0
  185.8110  178.3980  144.5710 C   0  0  0  0  0  3  0  0  0  0  0  0
  184.6970  178.7750  142.4440 C   0  0  0  0  0  0  0  0  0  0  0  0
  182.8540  176.7640  139.6840 C   0  0  0  0  0  3  0  0  0  0  0  0
  180.5430  176.3140  140.0830 N   0  0  0  0  0  0  0  0  0  0  0  0
  180.3200  177.6130  140.4180 C   0  0  0  0  0  3  0  0  0  0  0  0
  181.3700  178.5340  140.3950 C   0  0  0  0  0  3  0  0  0  0  0  0
  182.6490  178.1100  140.0250 C   0  0  0  0  0  0  0  0  0  0  0  0
  181.7790  175.8750  139.7210 C   0  0  0  0  0  3  0  0  0  0  0  0
  190.8680  177.1190  139.3120 C   0  0  0  0  0  3  0  0  0  0  0  0
  188.4470  177.9330  140.5170 C   0  0  0  0  0  0  0  0  0  0  0  0
  188.8600  178.5790  139.2170 C   0  0  0  0  0  2  0  0  0  0  0  0
  189.7960  177.6720  138.4170 C   0  0  0  0  0  2  0  0  0  0  0  0
  190.6150  176.8610  140.5600 N   0  0  0  0  0  0  0  0  0  0  0  0
  189.3410  177.1610  141.1530 C   0  0  0  0  0  3  0  0  0  0  0  0
  185.7830  178.6420  147.4260 C   0  0  0  0  0  1  0  0  0  0  0  0
  184.5990  178.6060  146.6420 O   0  0  0  0  0  0  0  0  0  0  0  0
  1  8  1  0  0  0  0
  2  9  2  0  0  0  0
  2  6  1  0  0  0  0
  3 10  1  0  0  0  0
  4  2  1  0  0  0  0
  5 27  1  0  0  0  0
  6  1  2  0  0  0  0
  7 18  1  6  0  0  0
  7  9  1  0  0  0  0
  8 12  2  0  0  0  0
  9 13  1  0  0  0  0
 10  5  2  0  0  0  0
 11  4  2  0  0  0  0
 11  7  1  0  0  0  0
 12  5  1  0  0  0  0
 13  3  2  0  0  0  0
 13  8  1  0  0  0  0
 14 19  2  0  0  0  0
 14 18  1  0  0  0  0
 15 16  2  0  0  0  0
 17 16  1  0  0  0  0
 18 17  2  0  0  0  0
 19 15  1  0  0  0  0
 20 24  2  0  0  0  0
 21 25  2  0  0  0  0
 21  6  1  0  0  0  0
 22 21  1  0  0  0  0
 23 22  1  0  0  0  0
 23 20  1  0  0  0  0
 24 25  1  0  0  0  0
 27 26  1  0  0  0  0
M  END
>  <MODEL>
1

>  <REMARK>
 VINA RESULT:      -8.4      0.000      0.000
  Name = 
  3 active torsions:
  status: ('A' for Active; 'I' for Inactive)
    1  A    between atoms: C_9  and  C_15
    2  A    between atoms: C_13  and  O_22
    3  A    between atoms: C_14  and  C_17
                            x       y       z     vdW  Elec       q    Type
                         _______ _______ _______ _____ _____    ______ ____

>  <TORSDO>
F 3

$$$$
=
 OpenBabel10262420143D

 27 31  0  0  1  0  0  0  0  0999 V2000
  187.4250  177.5480  143.2820 N   0  0  0  0  0  0  0  0  0  0  0  0
  188.9240  177.7120  141.4490 C   0  0  0  0  0  0  0  0  0  0  0  0
  185.5860  178.8900  140.3860 C   0  0  0  0  0  3  0  0  0  0  0  0
  190.1380  177.6190  140.7240 N   0  0  0  0  0  0  0  0  0  0  0  0
  184.0830  178.7080  142.2920 C   0  0  0  0  0  0  0  0  0  0  0  0
  188.6920  177.3730  142.7940 C   0  0  0  0  0  0  0  0  0  0  0  0
  188.4690  178.4560  139.2990 C   0  0  1  0  0  3  0  0  0  0  0  0
  186.4040  178.0390  142.5180 C   0  0  0  0  0  0  0  0  0  0  0  0
  187.9160  178.1960  140.6600 C   0  0  0  0  0  0  0  0  0  0  0  0
  184.3170  179.0510  140.9490 C   0  0  0  0  0  3  0  0  0  0  0  0
  189.9030  178.0350  139.5160 C   0  0  0  0  0  3  0  0  0  0  0  0
  185.1300  178.2040  143.0700 C   0  0  0  0  0  3  0  0  0  0  0  0
  186.6310  178.3850  141.1660 C   0  0  0  0  0  0  0  0  0  0  0  0
  186.7440  178.0870  137.4730 C   0  0  0  0  0  3  0  0  0  0  0  0
  186.6480  175.9960  136.3230 N   0  0  0  0  0  0  0  0  0  0  0  0
  187.6780  175.5090  137.0650 C   0  0  0  0  0  3  0  0  0  0  0  0
  188.2770  176.3070  138.0420 C   0  0  0  0  0  3  0  0  0  0  0  0
  187.8090  177.6070  138.2510 C   0  0  0  0  0  0  0  0  0  0  0  0
  186.1740  177.2580  136.5060 C   0  0  0  0  0  3  0  0  0  0  0  0
  191.9360  175.9150  145.2180 C   0  0  0  0  0  3  0  0  0  0  0  0
  189.7500  176.8340  143.6850 C   0  0  0  0  0  0  0  0  0  0  0  0
  189.7730  177.1360  145.1640 C   0  0  0  0  0  2  0  0  0  0  0  0
  191.2010  177.1280  145.7120 C   0  0  0  0  0  2  0  0  0  0  0  0
  191.6840  175.4260  144.0410 N   0  0  0  0  0  0  0  0  0  0  0  0
  190.6520  175.9670  143.2000 C   0  0  0  0  0  3  0  0  0  0  0  0
  182.6270  178.9110  144.2820 C   0  0  0  0  0  1  0  0  0  0  0  0
  182.8210  178.8600  142.8760 O   0  0  0  0  0  0  0  0  0  0  0  0
  2  6  2  0  0  0  0
  3 10  2  0  0  0  0
  3 13  1  0  0  0  0
  4  2  1  0  0  0  0
  5 27  1  0  0  0  0
  5 12  2  0  0  0  0
  6  1  1  0  0  0  0
  6 21  1  0  0  0  0
  7 18  1  6  0  0  0
  7 11  1  0  0  0  0
  7  9  1  0  0  0  0
  8 12  1  0  0  0  0
  8  1  2  0  0  0  0
  9 13  2  0  0  0  0
  9  2  1  0  0  0  0
 10  5  1  0  0  0  0
 11  4  2  0  0  0  0
 13  8  1  0  0  0  0
 14 18  1  0  0  0  0
 15 19  1  0  0  0  0
 15 16  2  0  0  0  0
 16 17  1  0  0  0  0
 17 18  2  0  0  0  0
 19 14  2  0  0  0  0
 20 23  1  0  0  0  0
 21 22  1  0  0  0  0
 22 23  1  0  0  0  0
 24 20  2  0  0  0  0
 25 21  2  0  0  0  0
 25 24  1  0  0  0  0
 27 26  1  0  0  0  0
M  END
>  <MODEL>
2

>  <REMARK>
 VINA RESULT:      -7.8      2.618      4.765
  Name = 
  3 active torsions:
  status: ('A' for Active; 'I' for Inactive)
    1  A    between atoms: C_9  and  C_15
    2  A    between atoms: C_13  and  O_22
    3  A    between atoms: C_14  and  C_17
                            x       y       z     vdW  Elec       q    Type
                         _______ _______ _______ _____ _____    ______ ____

>  <TORSDO>
F 3

$$$$
=
 OpenBabel10262420143D

 27 31  0  0  1  0  0  0  0  0999 V2000
  190.8050  176.3840  140.0490 N   0  0  0  0  0  0  0  0  0  0  0  0
  189.8810  177.1790  138.0130 C   0  0  0  0  0  0  0  0  0  0  0  0
  187.6910  178.1980  140.8100 C   0  0  0  0  0  3  0  0  0  0  0  0
  189.7590  177.4140  136.6200 N   0  0  0  0  0  0  0  0  0  0  0  0
  188.6740  177.3660  142.8760 C   0  0  0  0  0  0  0  0  0  0  0  0
  190.9010  176.4850  138.6870 C   0  0  0  0  0  0  0  0  0  0  0  0
  187.9230  178.3890  137.7130 C   0  0  1  0  0  3  0  0  0  0  0  0
  189.7730  176.9320  140.7560 C   0  0  0  0  0  0  0  0  0  0  0  0
  188.8310  177.7300  138.6970 C   0  0  0  0  0  0  0  0  0  0  0  0
  187.6570  178.0640  142.2010 C   0  0  0  0  0  3  0  0  0  0  0  0
  188.6680  178.0940  136.4330 C   0  0  0  0  0  3  0  0  0  0  0  0
  189.7280  176.8040  142.1480 C   0  0  0  0  0  3  0  0  0  0  0  0
  188.7450  177.6350  140.0850 C   0  0  0  0  0  0  0  0  0  0  0  0
  185.4400  178.4180  138.2420 C   0  0  0  0  0  3  0  0  0  0  0  0
  184.0640  176.5650  137.6270 N   0  0  0  0  0  0  0  0  0  0  0  0
  185.1330  175.9120  137.0960 C   0  0  0  0  0  3  0  0  0  0  0  0
  186.3990  176.5020  137.1230 C   0  0  0  0  0  3  0  0  0  0  0  0
  186.5580  177.7640  137.7000 C   0  0  0  0  0  0  0  0  0  0  0  0
  184.1920  177.7950  138.1940 C   0  0  0  0  0  3  0  0  0  0  0  0
  194.3800  174.7140  136.8740 C   0  0  0  0  0  3  0  0  0  0  0  0
  192.0530  175.8630  137.9870 C   0  0  0  0  0  0  0  0  0  0  0  0
  191.9480  174.5050  137.3350 C   0  0  0  0  0  2  0  0  0  0  0  0
  193.2950  173.7830  137.3340 C   0  0  0  0  0  2  0  0  0  0  0  0
  194.3180  175.9830  137.1490 N   0  0  0  0  0  0  0  0  0  0  0  0
  193.1890  176.5580  137.8260 C   0  0  0  0  0  3  0  0  0  0  0  0
  187.5680  177.6340  145.0720 C   0  0  0  0  0  1  0  0  0  0  0  0
  188.6610  177.2190  144.2660 O   0  0  0  0  0  0  0  0  0  0  0  0
  1  8  1  0  0  0  0
  2  6  1  0  0  0  0
  2  9  2  0  0  0  0
  3 10  1  0  0  0  0
  4  2  1  0  0  0  0
  5 27  1  0  0  0  0
  6  1  2  0  0  0  0
  7 18  1  6  0  0  0
  7  9  1  0  0  0  0
  8 12  2  0  0  0  0
  9 13  1  0  0  0  0
 10  5  2  0  0  0  0
 11  4  2  0  0  0  0
 11  7  1  0  0  0  0
 12  5  1  0  0  0  0
 13  8  1  0  0  0  0
 13  3  2  0  0  0  0
 15 19  2  0  0  0  0
 16 17  2  0  0  0  0
 16 15  1  0  0  0  0
 17 18  1  0  0  0  0
 18 14  2  0  0  0  0
 19 14  1  0  0  0  0
 20 24  2  0  0  0  0
 20 23  1  0  0  0  0
 21  6  1  0  0  0  0
 22 21  1  0  0  0  0
 23 22  1  0  0  0  0
 24 25  1  0  0  0  0
 25 21  2  0  0  0  0
 27 26  1  0  0  0  0
M  END
>  <MODEL>
3

>  <REMARK>
 VINA RESULT:      -7.4      2.912      4.848
  Name = 
  3 active torsions:
  status: ('A' for Active; 'I' for Inactive)
    1  A    between atoms: C_9  and  C_15
    2  A    between atoms: C_13  and  O_22
    3  A    between atoms: C_14  and  C_17
                            x       y       z     vdW  Elec       q    Type
                         _______ _______ _______ _____ _____    ______ ____

>  <TORSDO>
F 3

$$$$
=
 OpenBabel10262420143D

 27 31  0  0  1  0  0  0  0  0999 V2000
  186.5010  178.5810  140.8480 N   0  0  0  0  0  0  0  0  0  0  0  0
  188.5170  177.3310  140.9150 C   0  0  0  0  0  0  0  0  0  0  0  0
  187.0500  177.4340  144.3050 C   0  0  0  0  0  3  0  0  0  0  0  0
  189.7030  176.7120  140.4470 N   0  0  0  0  0  0  0  0  0  0  0  0
  184.9870  178.7210  144.1930 C   0  0  0  0  0  0  0  0  0  0  0  0
  187.5790  178.0730  140.1750 C   0  0  0  0  0  0  0  0  0  0  0  0
  189.5040  176.3150  142.7530 C   0  0  1  0  0  3  0  0  0  0  0  0
  186.3100  178.3850  142.1870 C   0  0  0  0  0  0  0  0  0  0  0  0
  188.3550  177.1280  142.2580 C   0  0  0  0  0  0  0  0  0  0  0  0
  185.9230  177.9750  144.9300 C   0  0  0  0  0  3  0  0  0  0  0  0
  190.2680  176.1340  141.4630 C   0  0  0  0  0  3  0  0  0  0  0  0
  185.1870  178.9210  142.8230 C   0  0  0  0  0  3  0  0  0  0  0  0
  187.2480  177.6370  142.9370 C   0  0  0  0  0  0  0  0  0  0  0  0
  190.5260  176.5590  145.0640 C   0  0  0  0  0  3  0  0  0  0  0  0
  191.8620  178.4680  145.5860 N   0  0  0  0  0  0  0  0  0  0  0  0
  191.6790  178.9720  144.3360 C   0  0  0  0  0  3  0  0  0  0  0  0
  190.9070  178.2740  143.4050 C   0  0  0  0  0  3  0  0  0  0  0  0
  190.3230  177.0580  143.7680 C   0  0  0  0  0  0  0  0  0  0  0  0
  191.3060  177.2860  145.9650 C   0  0  0  0  0  3  0  0  0  0  0  0
  188.1670  178.6310  135.9480 C   0  0  0  0  0  3  0  0  0  0  0  0
  187.7180  178.3280  138.7190 C   0  0  0  0  0  0  0  0  0  0  0  0
  186.5350  178.2530  137.7830 C   0  0  0  0  0  2  0  0  0  0  0  0
  186.9660  177.8380  136.3760 C   0  0  0  0  0  2  0  0  0  0  0  0
  189.0550  179.0030  136.8210 N   0  0  0  0  0  0  0  0  0  0  0  0
  188.8930  178.7440  138.2250 C   0  0  0  0  0  3  0  0  0  0  0  0
  182.5330  179.0030  144.3440 C   0  0  0  0  0  1  0  0  0  0  0  0
  183.8520  179.2720  144.7970 O   0  0  0  0  0  0  0  0  0  0  0  0
  1  8  1  0  0  0  0
  2  9  2  0  0  0  0
  3 10  1  0  0  0  0
  4  2  1  0  0  0  0
  4 11  2  0  0  0  0
  5 27  1  0  0  0  0
  5 10  2  0  0  0  0
  6  1  2  0  0  0  0
  6  2  1  0  0  0  0
  7 18  1  1  0  0  0
  8 12  2  0  0  0  0
  8 13  1  0  0  0  0
  9  7  1  0  0  0  0
  9 13  1  0  0  0  0
 11  7  1  0  0  0  0
 12  5  1  0  0  0  0
 13  3  2  0  0  0  0
 14 19  1  0  0  0  0
 15 19  2  0  0  0  0
 16 15  1  0  0  0  0
 17 18  1  0  0  0  0
 17 16  2  0  0  0  0
 18 14  2  0  0  0  0
 20 23  1  0  0  0  0
 20 24  2  0  0  0  0
 21  6  1  0  0  0  0
 22 21  1  0  0  0  0
 23 22  1  0  0  0  0
 24 25  1  0  0  0  0
 25 21  2  0  0  0  0
 26 27  1  0  0  0  0
M  END
>  <MODEL>
4

>  <REMARK>
 VINA RESULT:      -7.3      2.744      6.050
  Name = 
  3 active torsions:
  status: ('A' for Active; 'I' for Inactive)
    1  A    between atoms: C_9  and  C_15
    2  A    between atoms: C_13  and  O_22
    3  A    between atoms: C_14  and  C_17
                            x       y       z     vdW  Elec       q    Type
                         _______ _______ _______ _____ _____    ______ ____

>  <TORSDO>
F 3

$$$$
=
 OpenBabel10262420143D

 27 31  0  0  1  0  0  0  0  0999 V2000
  187.2050  178.0030  142.4470 N   0  0  0  0  0  0  0  0  0  0  0  0
  188.5770  178.0550  140.5110 C   0  0  0  0  0  0  0  0  0  0  0  0
  185.0720  178.6860  139.5220 C   0  0  0  0  0  3  0  0  0  0  0  0
  189.7540  177.9900  139.7250 N   0  0  0  0  0  0  0  0  0  0  0  0
  183.7010  178.6270  141.5330 C   0  0  0  0  0  0  0  0  0  0  0  0
  188.4560  177.8980  141.9040 C   0  0  0  0  0  0  0  0  0  0  0  0
  187.9270  178.4160  138.3130 C   0  0  1  0  0  3  0  0  0  0  0  0
  186.0950  178.2590  141.6920 C   0  0  0  0  0  0  0  0  0  0  0  0
  187.4800  178.3020  139.7320 C   0  0  0  0  0  0  0  0  0  0  0  0
  183.8240  178.7890  140.1410 C   0  0  0  0  0  3  0  0  0  0  0  0
  189.4100  178.1920  138.4890 C   0  0  0  0  0  3  0  0  0  0  0  0
  184.8400  178.3630  142.3010 C   0  0  0  0  0  3  0  0  0  0  0  0
  186.2080  178.4220  140.2920 C   0  0  0  0  0  0  0  0  0  0  0  0
  187.6350  175.9940  137.6080 C   0  0  0  0  0  3  0  0  0  0  0  0
  186.1480  175.4380  135.8240 N   0  0  0  0  0  0  0  0  0  0  0  0
  185.8270  176.7470  135.6470 C   0  0  0  0  0  3  0  0  0  0  0  0
  186.4070  177.7270  136.4560 C   0  0  0  0  0  3  0  0  0  0  0  0
  187.3190  177.3520  137.4450 C   0  0  0  0  0  0  0  0  0  0  0  0
  187.0330  175.0460  136.7800 C   0  0  0  0  0  3  0  0  0  0  0  0
  191.6810  177.1850  144.6640 C   0  0  0  0  0  3  0  0  0  0  0  0
  189.6160  177.6190  142.7880 C   0  0  0  0  0  0  0  0  0  0  0  0
  190.2370  176.2450  142.8740 C   0  0  0  0  0  2  0  0  0  0  0  0
  190.8560  176.0000  144.2500 C   0  0  0  0  0  2  0  0  0  0  0  0
  191.3340  178.3850  144.3080 N   0  0  0  0  0  0  0  0  0  0  0  0
  190.2080  178.6250  143.4490 C   0  0  0  0  0  3  0  0  0  0  0  0
  182.3350  179.0030  143.5610 C   0  0  0  0  0  1  0  0  0  0  0  0
  182.4630  178.7240  142.1740 O   0  0  0  0  0  0  0  0  0  0  0  0
  2  6  2  0  0  0  0
  3 10  2  0  0  0  0
  3 13  1  0  0  0  0
  4  2  1  0  0  0  0
  5 27  1  0  0  0  0
  5 12  2  0  0  0  0
  6  1  1  0  0  0  0
  6 21  1  0  0  0  0
  7 18  1  6  0  0  0
  7 11  1  0  0  0  0
  7  9  1  0  0  0  0
  8 12  1  0  0  0  0
  8  1  2  0  0  0  0
  9 13  2  0  0  0  0
  9  2  1  0  0  0  0
 10  5  1  0  0  0  0
 11  4  2  0  0  0  0
 13  8  1  0  0  0  0
 15 19  1  0  0  0  0
 16 15  2  0  0  0  0
 16 17  1  0  0  0  0
 17 18  2  0  0  0  0
 18 14  1  0  0  0  0
 19 14  2  0  0  0  0
 21 22  1  0  0  0  0
 21 25  2  0  0  0  0
 22 23  1  0  0  0  0
 23 20  1  0  0  0  0
 24 20  2  0  0  0  0
 25 24  1  0  0  0  0
 27 26  1  0  0  0  0
M  END
>  <MODEL>
5

>  <REMARK>
 VINA RESULT:      -7.2      2.650      4.532
  Name = 
  3 active torsions:
  status: ('A' for Active; 'I' for Inactive)
    1  A    between atoms: C_9  and  C_15
    2  A    between atoms: C_13  and  O_22
    3  A    between atoms: C_14  and  C_17
                            x       y       z     vdW  Elec       q    Type
                         _______ _______ _______ _____ _____    ______ ____

>  <TORSDO>
F 3

$$$$
=
 OpenBabel10262420143D

 27 31  0  0  1  0  0  0  0  0999 V2000
  187.3980  177.9640  142.0320 N   0  0  0  0  0  0  0  0  0  0  0  0
  188.2080  178.1430  144.2550 C   0  0  0  0  0  0  0  0  0  0  0  0
  191.0690  177.6670  141.9650 C   0  0  0  0  0  3  0  0  0  0  0  0
  188.1770  178.3020  145.6630 N   0  0  0  0  0  0  0  0  0  0  0  0
  190.1960  177.4900  139.6990 C   0  0  0  0  0  0  0  0  0  0  0  0
  187.1230  178.1360  143.3610 C   0  0  0  0  0  0  0  0  0  0  0  0
  190.4090  178.0330  144.9830 C   0  0  1  0  0  3  0  0  0  0  0  0
  188.6710  177.8110  141.5580 C   0  0  0  0  0  0  0  0  0  0  0  0
  189.4920  177.9820  143.8080 C   0  0  0  0  0  0  0  0  0  0  0  0
  191.2820  177.5030  140.5930 C   0  0  0  0  0  3  0  0  0  0  0  0
  189.4030  178.2460  146.0890 C   0  0  0  0  0  3  0  0  0  0  0  0
  188.8950  177.6450  140.1880 C   0  0  0  0  0  3  0  0  0  0  0  0
  189.7680  177.8200  142.4510 C   0  0  0  0  0  0  0  0  0  0  0  0
  191.3460  175.8380  144.1160 C   0  0  0  0  0  3  0  0  0  0  0  0
  192.5560  174.3910  145.5800 N   0  0  0  0  0  0  0  0  0  0  0  0
  192.3840  175.2530  146.6180 C   0  0  0  0  0  3  0  0  0  0  0  0
  191.6800  176.4450  146.4310 C   0  0  0  0  0  3  0  0  0  0  0  0
  191.1550  176.7430  145.1710 C   0  0  0  0  0  0  0  0  0  0  0  0
  192.0560  174.6580  144.3440 C   0  0  0  0  0  3  0  0  0  0  0  0
  183.1020  178.8340  144.7300 C   0  0  0  0  0  3  0  0  0  0  0  0
  185.7140  178.2960  143.8010 C   0  0  0  0  0  0  0  0  0  0  0  0
  184.5590  178.1410  142.8410 C   0  0  0  0  0  2  0  0  0  0  0  0
  183.3670  179.0010  143.2610 C   0  0  0  0  0  2  0  0  0  0  0  0
  184.0840  178.6280  145.5570 N   0  0  0  0  0  0  0  0  0  0  0  0
  185.4380  178.4740  145.1020 C   0  0  0  0  0  3  0  0  0  0  0  0
  190.8390  176.1090  137.7490 C   0  0  0  0  0  1  0  0  0  0  0  0
  190.3850  177.3270  138.3230 O   0  0  0  0  0  0  0  0  0  0  0  0
  1  6  1  0  0  0  0
  2  4  1  0  0  0  0
  3 13  1  0  0  0  0
  4 11  2  0  0  0  0
  5 12  2  0  0  0  0
  5 10  1  0  0  0  0
  6 21  1  0  0  0  0
  6  2  2  0  0  0  0
  7 18  1  1  0  0  0
  7 11  1  0  0  0  0
  8  1  2  0  0  0  0
  8 13  1  0  0  0  0
  9  2  1  0  0  0  0
  9  7  1  0  0  0  0
 10  3  2  0  0  0  0
 12  8  1  0  0  0  0
 13  9  2  0  0  0  0
 14 19  2  0  0  0  0
 14 18  1  0  0  0  0
 15 16  2  0  0  0  0
 17 16  1  0  0  0  0
 18 17  2  0  0  0  0
 19 15  1  0  0  0  0
 20 24  2  0  0  0  0
 21 25  2  0  0  0  0
 22 23  1  0  0  0  0
 22 21  1  0  0  0  0
 23 20  1  0  0  0  0
 25 24  1  0  0  0  0
 26 27  1  0  0  0  0
 27  5  1  0  0  0  0
M  END
>  <MODEL>
6

>  <REMARK>
 VINA RESULT:      -7.0      3.683      8.390
  Name = 
  3 active torsions:
  status: ('A' for Active; 'I' for Inactive)
    1  A    between atoms: C_9  and  C_15
    2  A    between atoms: C_13  and  O_22
    3  A    between atoms: C_14  and  C_17
                            x       y       z     vdW  Elec       q    Type
                         _______ _______ _______ _____ _____    ______ ____

>  <TORSDO>
F 3

$$$$
=
 OpenBabel10262420143D

 27 31  0  0  1  0  0  0  0  0999 V2000
  191.0840  176.4410  139.5810 N   0  0  0  0  0  0  0  0  0  0  0  0
  190.0390  177.0260  137.5320 C   0  0  0  0  0  0  0  0  0  0  0  0
  187.9690  178.2580  140.3350 C   0  0  0  0  0  3  0  0  0  0  0  0
  189.8420  177.1270  136.1320 N   0  0  0  0  0  0  0  0  0  0  0  0
  189.0760  177.6410  142.4140 C   0  0  0  0  0  0  0  0  0  0  0  0
  191.1080  176.4170  138.2130 C   0  0  0  0  0  0  0  0  0  0  0  0
  188.0400  178.1640  137.2260 C   0  0  1  0  0  3  0  0  0  0  0  0
  190.0750  177.0330  140.2890 C   0  0  0  0  0  0  0  0  0  0  0  0
  189.0120  177.6170  138.2170 C   0  0  0  0  0  0  0  0  0  0  0  0
  188.0090  178.2540  141.7320 C   0  0  0  0  0  3  0  0  0  0  0  0
  188.7270  177.7660  135.9410 C   0  0  0  0  0  3  0  0  0  0  0  0
  190.1040  177.0340  141.6860 C   0  0  0  0  0  3  0  0  0  0  0  0
  188.9980  177.6500  139.6110 C   0  0  0  0  0  0  0  0  0  0  0  0
  186.4770  176.1820  136.9590 C   0  0  0  0  0  3  0  0  0  0  0  0
  184.1850  176.3710  137.6010 N   0  0  0  0  0  0  0  0  0  0  0  0
  184.3680  177.6640  137.9790 C   0  0  0  0  0  3  0  0  0  0  0  0
  185.6260  178.2580  137.8570 C   0  0  0  0  0  3  0  0  0  0  0  0
  186.6910  177.5150  137.3420 C   0  0  0  0  0  0  0  0  0  0  0  0
  185.2050  175.6250  137.0980 C   0  0  0  0  0  3  0  0  0  0  0  0
  194.2170  174.4250  136.0020 C   0  0  0  0  0  3  0  0  0  0  0  0
  192.2380  175.7540  137.5140 C   0  0  0  0  0  0  0  0  0  0  0  0
  193.5050  176.4990  137.1680 C   0  0  0  0  0  2  0  0  0  0  0  0
  194.1650  175.9230  135.9150 C   0  0  0  0  0  2  0  0  0  0  0  0
  193.2740  173.7660  136.6060 N   0  0  0  0  0  0  0  0  0  0  0  0
  192.1930  174.4350  137.2760 C   0  0  0  0  0  3  0  0  0  0  0  0
  190.2050  177.0230  144.5260 C   0  0  0  0  0  1  0  0  0  0  0  0
  189.1360  177.6240  143.8110 O   0  0  0  0  0  0  0  0  0  0  0  0
  1  8  1  0  0  0  0
  2  6  1  0  0  0  0
  2  9  2  0  0  0  0
  3 10  1  0  0  0  0
  4  2  1  0  0  0  0
  5 27  1  0  0  0  0
  6  1  2  0  0  0  0
  7 18  1  1  0  0  0
  7  9  1  0  0  0  0
  8 12  2  0  0  0  0
  9 13  1  0  0  0  0
 10  5  2  0  0  0  0
 11  4  2  0  0  0  0
 11  7  1  0  0  0  0
 12  5  1  0  0  0  0
 13  8  1  0  0  0  0
 13  3  2  0  0  0  0
 14 19  2  0  0  0  0
 14 18  1  0  0  0  0
 15 16  2  0  0  0  0
 17 16  1  0  0  0  0
 18 17  2  0  0  0  0
 19 15  1  0  0  0  0
 20 24  2  0  0  0  0
 21  6  1  0  0  0  0
 22 21  1  0  0  0  0
 23 20  1  0  0  0  0
 23 22  1  0  0  0  0
 24 25  1  0  0  0  0
 25 21  2  0  0  0  0
 27 26  1  0  0  0  0
M  END
>  <MODEL>
7

>  <REMARK>
 VINA RESULT:      -6.9      3.442      5.199
  Name = 
  3 active torsions:
  status: ('A' for Active; 'I' for Inactive)
    1  A    between atoms: C_9  and  C_15
    2  A    between atoms: C_13  and  O_22
    3  A    between atoms: C_14  and  C_17
                            x       y       z     vdW  Elec       q    Type
                         _______ _______ _______ _____ _____    ______ ____

>  <TORSDO>
F 3

$$$$
=
 OpenBabel10262420143D

 27 31  0  0  1  0  0  0  0  0999 V2000
  187.8390  178.0680  141.6390 N   0  0  0  0  0  0  0  0  0  0  0  0
  189.6710  177.5070  140.2400 C   0  0  0  0  0  0  0  0  0  0  0  0
  186.7280  178.2510  138.1320 C   0  0  0  0  0  3  0  0  0  0  0  0
  190.9880  177.1300  139.8760 N   0  0  0  0  0  0  0  0  0  0  0  0
  184.8750  178.8230  139.6040 C   0  0  0  0  0  0  0  0  0  0  0  0
  189.1530  177.7030  141.5330 C   0  0  0  0  0  0  0  0  0  0  0  0
  189.7130  177.3960  137.9220 C   0  0  1  0  0  3  0  0  0  0  0  0
  187.0350  178.2520  140.5490 C   0  0  0  0  0  0  0  0  0  0  0  0
  188.8860  177.6750  139.1320 C   0  0  0  0  0  0  0  0  0  0  0  0
  185.3960  178.6320  138.3110 C   0  0  0  0  0  3  0  0  0  0  0  0
  191.0310  177.0650  138.5800 C   0  0  0  0  0  3  0  0  0  0  0  0
  185.7000  178.6320  140.7170 C   0  0  0  0  0  3  0  0  0  0  0  0
  187.5500  178.0600  139.2460 C   0  0  0  0  0  0  0  0  0  0  0  0
  188.3950  176.3960  135.9960 C   0  0  0  0  0  3  0  0  0  0  0  0
  188.2720  174.0260  135.7330 N   0  0  0  0  0  0  0  0  0  0  0  0
  189.0400  173.8360  136.8400 C   0  0  0  0  0  3  0  0  0  0  0  0
  189.5130  174.9330  137.5620 C   0  0  0  0  0  3  0  0  0  0  0  0
  189.1890  176.2250  137.1400 C   0  0  0  0  0  0  0  0  0  0  0  0
  187.9440  175.2730  135.3010 C   0  0  0  0  0  3  0  0  0  0  0  0
  191.6800  177.0560  144.9560 C   0  0  0  0  0  3  0  0  0  0  0  0
  189.9640  177.5220  142.7630 C   0  0  0  0  0  0  0  0  0  0  0  0
  190.3530  178.6900  143.6370 C   0  0  0  0  0  2  0  0  0  0  0  0
  191.6790  178.4320  144.3530 C   0  0  0  0  0  2  0  0  0  0  0  0
  191.0510  176.0810  144.3720 N   0  0  0  0  0  0  0  0  0  0  0  0
  190.2720  176.2860  143.1830 C   0  0  0  0  0  3  0  0  0  0  0  0
  182.7430  179.7720  138.7820 C   0  0  0  0  0  1  0  0  0  0  0  0
  183.5450  179.2030  139.8070 O   0  0  0  0  0  0  0  0  0  0  0  0
  2  6  2  0  0  0  0
  3 10  2  0  0  0  0
  3 13  1  0  0  0  0
  4  2  1  0  0  0  0
  5 27  1  0  0  0  0
  5 12  2  0  0  0  0
  6  1  1  0  0  0  0
  6 21  1  0  0  0  0
  7 18  1  1  0  0  0
  7 11  1  0  0  0  0
  7  9  1  0  0  0  0
  8 12  1  0  0  0  0
  8  1  2  0  0  0  0
  9 13  2  0  0  0  0
  9  2  1  0  0  0  0
 10  5  1  0  0  0  0
 11  4  2  0  0  0  0
 13  8  1  0  0  0  0
 14 18  1  0  0  0  0
 15 16  2  0  0  0  0
 16 17  1  0  0  0  0
 18 17  2  0  0  0  0
 19 15  1  0  0  0  0
 19 14  2  0  0  0  0
 21 25  2  0  0  0  0
 21 22  1  0  0  0  0
 22 23  1  0  0  0  0
 23 20  1  0  0  0  0
 24 20  2  0  0  0  0
 25 24  1  0  0  0  0
 26 27  1  0  0  0  0
M  END
>  <MODEL>
8

>  <REMARK>
 VINA RESULT:      -6.7      3.271      6.081
  Name = 
  3 active torsions:
  status: ('A' for Active; 'I' for Inactive)
    1  A    between atoms: C_9  and  C_15
    2  A    between atoms: C_13  and  O_22
    3  A    between atoms: C_14  and  C_17
                            x       y       z     vdW  Elec       q    Type
                         _______ _______ _______ _____ _____    ______ ____

>  <TORSDO>
F 3

$$$$
=
 OpenBabel10262420143D

 27 31  0  0  1  0  0  0  0  0999 V2000
  189.5810  176.2720  137.6270 N   0  0  0  0  0  0  0  0  0  0  0  0
  188.2420  177.5470  139.1150 C   0  0  0  0  0  0  0  0  0  0  0  0
  191.7510  177.6410  140.2700 C   0  0  0  0  0  3  0  0  0  0  0  0
  187.0800  178.1490  139.6600 N   0  0  0  0  0  0  0  0  0  0  0  0
  193.0880  176.3260  138.7180 C   0  0  0  0  0  0  0  0  0  0  0  0
  188.3420  176.7490  137.9620 C   0  0  0  0  0  0  0  0  0  0  0  0
  188.9180  178.6880  141.0190 C   0  0  1  0  0  3  0  0  0  0  0  0
  190.6990  176.5500  138.3620 C   0  0  0  0  0  0  0  0  0  0  0  0
  189.3440  177.8320  139.8740 C   0  0  0  0  0  0  0  0  0  0  0  0
  192.9870  177.1280  139.8690 C   0  0  0  0  0  3  0  0  0  0  0  0
  187.4400  178.7960  140.7270 C   0  0  0  0  0  3  0  0  0  0  0  0
  191.9410  176.0420  137.9700 C   0  0  0  0  0  3  0  0  0  0  0  0
  190.6060  177.3540  139.5210 C   0  0  0  0  0  0  0  0  0  0  0  0
  190.2220  178.3990  143.1780 C   0  0  0  0  0  3  0  0  0  0  0  0
  189.5420  176.7610  144.7770 N   0  0  0  0  0  0  0  0  0  0  0  0
  188.5060  176.3760  143.9830 C   0  0  0  0  0  3  0  0  0  0  0  0
  188.2980  177.0010  142.7520 C   0  0  0  0  0  3  0  0  0  0  0  0
  189.1610  178.0200  142.3420 C   0  0  0  0  0  0  0  0  0  0  0  0
  190.3960  177.7510  144.4020 C   0  0  0  0  0  3  0  0  0  0  0  0
  184.8310  175.6690  135.7180 C   0  0  0  0  0  3  0  0  0  0  0  0
  187.1730  176.4040  137.1140 C   0  0  0  0  0  0  0  0  0  0  0  0
  186.5320  177.4160  136.1950 C   0  0  0  0  0  2  0  0  0  0  0  0
  185.0430  177.1280  136.0030 C   0  0  0  0  0  2  0  0  0  0  0  0
  185.6070  174.7740  136.2540 N   0  0  0  0  0  0  0  0  0  0  0  0
  186.7330  175.1370  137.0690 C   0  0  0  0  0  3  0  0  0  0  0  0
  194.4910  174.4310  137.9670 C   0  0  0  0  0  1  0  0  0  0  0  0
  194.3140  175.8010  138.2980 O   0  0  0  0  0  0  0  0  0  0  0  0
  1  6  2  0  0  0  0
  1  8  1  0  0  0  0
  2  4  1  0  0  0  0
  2  9  2  0  0  0  0
  4 11  2  0  0  0  0
  5 10  2  0  0  0  0
  6  2  1  0  0  0  0
  7 18  1  1  0  0  0
  8 13  1  0  0  0  0
  9  7  1  0  0  0  0
 10  3  1  0  0  0  0
 11  7  1  0  0  0  0
 12  8  2  0  0  0  0
 12  5  1  0  0  0  0
 13  9  1  0  0  0  0
 13  3  2  0  0  0  0
 14 19  1  0  0  0  0
 16 15  1  0  0  0  0
 17 16  2  0  0  0  0
 18 17  1  0  0  0  0
 18 14  2  0  0  0  0
 19 15  2  0  0  0  0
 20 23  1  0  0  0  0
 20 24  2  0  0  0  0
 21  6  1  0  0  0  0
 22 21  1  0  0  0  0
 23 22  1  0  0  0  0
 24 25  1  0  0  0  0
 25 21  2  0  0  0  0
 26 27  1  0  0  0  0
 27  5  1  0  0  0  0
M  END
>  <MODEL>
9

>  <REMARK>
 VINA RESULT:      -6.7      4.506      7.736
  Name = 
  3 active torsions:
  status: ('A' for Active; 'I' for Inactive)
    1  A    between atoms: C_9  and  C_15
    2  A    between atoms: C_13  and  O_22
    3  A    between atoms: C_14  and  C_17
                            x       y       z     vdW  Elec       q    Type
                         _______ _______ _______ _____ _____    ______ ____

>  <TORSDO>
F 3

$$$$
