=
 OpenBabel10262420143D

 27 31  0  0  0  0  0  0  0  0999 V2000
  187.7960  177.5660  144.1520 N   0  0  0  0  0  0  0  0  0  0  0  0
  187.6190  178.0180  141.8320 C   0  0  0  0  0  0  0  0  0  0  0  0
  191.0860  176.9920  142.6050 C   0  0  0  0  0  3  0  0  0  0  0  0
  187.0540  178.4890  140.6180 N   0  0  0  0  0  0  0  0  0  0  0  0
  191.2250  176.5580  144.9950 C   0  0  0  0  0  0  0  0  0  0  0  0
  187.0200  177.9730  143.1020 C   0  0  0  0  0  0  0  0  0  0  0  0
  189.2760  177.8250  140.2760 N   0  0  0  0  0  0  0  0  0  0  0  0
  189.1110  177.2270  144.0060 C   0  0  0  0  0  0  0  0  0  0  0  0
  188.9170  177.6430  141.6440 C   0  0  0  0  0  0  0  0  0  0  0  0
  191.8330  176.6330  143.7300 C   0  0  0  0  0  3  0  0  0  0  0  0
  188.1070  178.4000  139.6020 C   0  0  0  0  0  3  0  0  0  0  0  0
  189.8650  176.8620  145.1250 C   0  0  0  0  0  3  0  0  0  0  0  0
  189.7220  177.2730  142.7290 C   0  0  0  0  0  0  0  0  0  0  0  0
  191.6330  177.4740  139.6990 C   0  0  0  0  0  3  0  0  0  0  0  0
  192.2780  175.8110  138.0630 C   0  0  0  0  0  3  0  0  0  0  0  0
  190.9370  175.4590  137.8920 C   0  0  0  0  0  3  0  0  0  0  0  0
  189.9440  176.1130  138.6270 C   0  0  0  0  0  3  0  0  0  0  0  0
  190.2870  177.1150  139.5470 C   0  0  0  0  0  0  0  0  0  0  0  0
  192.6260  176.8200  138.9650 C   0  0  0  0  0  3  0  0  0  0  0  0
  182.9360  179.0690  143.8740 C   0  0  0  0  0  3  0  0  0  0  0  0
  185.6050  178.3520  143.3510 C   0  0  0  0  0  0  0  0  0  0  0  0
  184.6470  178.3430  142.3240 C   0  0  0  0  0  3  0  0  0  0  0  0
  183.3200  178.7000  142.5830 C   0  0  0  0  0  3  0  0  0  0  0  0
  183.8780  179.0800  144.9050 C   0  0  0  0  0  3  0  0  0  0  0  0
  185.2040  178.7230  144.6440 C   0  0  0  0  0  3  0  0  0  0  0  0
  191.5310  176.5380  147.4480 C   0  0  0  0  0  1  0  0  0  0  0  0
  191.9470  176.1940  146.1350 O   0  0  0  0  0  0  0  0  0  0  0  0
  2  6  1  0  0  0  0
  3 13  2  0  0  0  0
  3 10  1  0  0  0  0
  4  2  1  0  0  0  0
  5 12  1  0  0  0  0
  5 27  1  0  0  0  0
  6 21  1  0  0  0  0
  6  1  2  0  0  0  0
  7  9  1  0  0  0  0
  8  1  1  0  0  0  0
  8 12  2  0  0  0  0
  9  2  2  0  0  0  0
  9 13  1  0  0  0  0
 10  5  2  0  0  0  0
 11  7  1  0  0  0  0
 11  4  2  0  0  0  0
 13  8  1  0  0  0  0
 15 19  1  0  0  0  0
 16 15  2  0  0  0  0
 16 17  1  0  0  0  0
 17 18  2  0  0  0  0
 18 14  1  0  0  0  0
 18  7  1  0  0  0  0
 19 14  2  0  0  0  0
 20 24  1  0  0  0  0
 21 25  1  0  0  0  0
 22 23  1  0  0  0  0
 22 21  2  0  0  0  0
 23 20  2  0  0  0  0
 25 24  2  0  0  0  0
 27 26  1  0  0  0  0
M  END
>  <MODEL>
1

>  <REMARK>
 VINA RESULT:      -9.4      0.000      0.000
  Name = 
  3 active torsions:
  status: ('A' for Active; 'I' for Inactive)
    1  A    between atoms: C_9  and  C_15
    2  A    between atoms: C_13  and  O_22
    3  A    between atoms: C_14  and  N_17
                            x       y       z     vdW  Elec       q    Type
                         _______ _______ _______ _____ _____    ______ ____

>  <TORSDO>
F 3

$$$$
=
 OpenBabel10262420143D

 27 31  0  0  0  0  0  0  0  0999 V2000
  187.4910  177.9080  141.2190 N   0  0  0  0  0  0  0  0  0  0  0  0
  189.8240  177.5030  141.3270 C   0  0  0  0  0  0  0  0  0  0  0  0
  188.4690  177.7050  144.7610 C   0  0  0  0  0  3  0  0  0  0  0  0
  191.1660  177.3840  140.8780 N   0  0  0  0  0  0  0  0  0  0  0  0
  186.0810  178.1400  144.6000 C   0  0  0  0  0  0  0  0  0  0  0  0
  188.6730  177.7320  140.5530 C   0  0  0  0  0  0  0  0  0  0  0  0
  191.0730  177.2290  143.2150 N   0  0  0  0  0  0  0  0  0  0  0  0
  187.4030  177.8840  142.5810 C   0  0  0  0  0  0  0  0  0  0  0  0
  189.7640  177.4270  142.6870 C   0  0  0  0  0  0  0  0  0  0  0  0
  187.2370  177.9410  145.3750 C   0  0  0  0  0  3  0  0  0  0  0  0
  191.9970  177.2310  142.0760 C   0  0  0  0  0  3  0  0  0  0  0  0
  186.1740  178.1150  143.2040 C   0  0  0  0  0  3  0  0  0  0  0  0
  188.5600  177.6560  143.3660 C   0  0  0  0  0  0  0  0  0  0  0  0
  191.3420  177.3270  145.6510 C   0  0  0  0  0  3  0  0  0  0  0  0
  192.1740  175.4200  146.8880 C   0  0  0  0  0  3  0  0  0  0  0  0
  192.2670  174.6910  145.7000 C   0  0  0  0  0  3  0  0  0  0  0  0
  191.8970  175.2790  144.4870 C   0  0  0  0  0  3  0  0  0  0  0  0
  191.4170  176.5970  144.4570 C   0  0  0  0  0  0  0  0  0  0  0  0
  191.7130  176.7390  146.8630 C   0  0  0  0  0  3  0  0  0  0  0  0
  188.7170  177.8770  136.2580 C   0  0  0  0  0  3  0  0  0  0  0  0
  188.6880  177.8010  139.0690 C   0  0  0  0  0  0  0  0  0  0  0  0
  188.8990  179.0110  138.3880 C   0  0  0  0  0  3  0  0  0  0  0  0
  188.9120  179.0500  136.9910 C   0  0  0  0  0  3  0  0  0  0  0  0
  188.5080  176.6670  136.9220 C   0  0  0  0  0  3  0  0  0  0  0  0
  188.4940  176.6300  138.3190 C   0  0  0  0  0  3  0  0  0  0  0  0
  183.8270  179.1560  144.5690 C   0  0  0  0  0  1  0  0  0  0  0  0
  184.8350  178.3710  145.1900 O   0  0  0  0  0  0  0  0  0  0  0  0
  1  8  1  0  0  0  0
  2  9  2  0  0  0  0
  3 10  1  0  0  0  0
  4  2  1  0  0  0  0
  4 11  2  0  0  0  0
  5 27  1  0  0  0  0
  5 10  2  0  0  0  0
  6  1  2  0  0  0  0
  6  2  1  0  0  0  0
  7 18  1  0  0  0  0
  8 12  2  0  0  0  0
  8 13  1  0  0  0  0
  9  7  1  0  0  0  0
  9 13  1  0  0  0  0
 11  7  1  0  0  0  0
 12  5  1  0  0  0  0
 13  3  2  0  0  0  0
 14 19  1  0  0  0  0
 16 15  1  0  0  0  0
 17 16  2  0  0  0  0
 18 17  1  0  0  0  0
 18 14  2  0  0  0  0
 19 15  2  0  0  0  0
 20 24  2  0  0  0  0
 20 23  1  0  0  0  0
 21  6  1  0  0  0  0
 22 21  1  0  0  0  0
 23 22  2  0  0  0  0
 24 25  1  0  0  0  0
 25 21  2  0  0  0  0
 26 27  1  0  0  0  0
M  END
>  <MODEL>
2

>  <REMARK>
 VINA RESULT:      -9.3      2.228      5.995
  Name = 
  3 active torsions:
  status: ('A' for Active; 'I' for Inactive)
    1  A    between atoms: C_9  and  C_15
    2  A    between atoms: C_13  and  O_22
    3  A    between atoms: C_14  and  N_17
                            x       y       z     vdW  Elec       q    Type
                         _______ _______ _______ _____ _____    ______ ____

>  <TORSDO>
F 3

$$$$
=
 OpenBabel10262420143D

 27 31  0  0  0  0  0  0  0  0999 V2000
  188.7050  177.6120  143.2670 N   0  0  0  0  0  0  0  0  0  0  0  0
  186.4460  178.2660  143.5690 C   0  0  0  0  0  0  0  0  0  0  0  0
  187.2420  178.2890  139.9580 C   0  0  0  0  0  3  0  0  0  0  0  0
  185.2720  178.6810  144.2490 N   0  0  0  0  0  0  0  0  0  0  0  0
  189.5690  177.6320  139.6990 C   0  0  0  0  0  0  0  0  0  0  0  0
  187.6770  177.8810  144.1280 C   0  0  0  0  0  0  0  0  0  0  0  0
  184.9490  178.7910  141.9300 N   0  0  0  0  0  0  0  0  0  0  0  0
  188.5760  177.7210  141.9120 C   0  0  0  0  0  0  0  0  0  0  0  0
  186.2710  178.3410  142.2190 C   0  0  0  0  0  0  0  0  0  0  0  0
  188.3480  178.0460  139.1400 C   0  0  0  0  0  3  0  0  0  0  0  0
  184.2970  179.0500  143.2190 C   0  0  0  0  0  3  0  0  0  0  0  0
  189.6760  177.4770  141.0850 C   0  0  0  0  0  3  0  0  0  0  0  0
  187.3390  178.1120  141.3420 C   0  0  0  0  0  0  0  0  0  0  0  0
  184.1570  179.4760  139.7130 C   0  0  0  0  0  3  0  0  0  0  0  0
  182.6280  178.0840  138.4550 C   0  0  0  0  0  3  0  0  0  0  0  0
  182.6390  177.1410  139.4860 C   0  0  0  0  0  3  0  0  0  0  0  0
  183.4100  177.3650  140.6300 C   0  0  0  0  0  3  0  0  0  0  0  0
  184.1870  178.5280  140.7440 C   0  0  0  0  0  0  0  0  0  0  0  0
  183.3850  179.2530  138.5690 C   0  0  0  0  0  3  0  0  0  0  0  0
  188.3860  177.5150  148.3510 C   0  0  0  0  0  3  0  0  0  0  0  0
  187.9080  177.7660  145.5910 C   0  0  0  0  0  0  0  0  0  0  0  0
  186.9770  178.2460  146.5260 C   0  0  0  0  0  3  0  0  0  0  0  0
  187.2140  178.1230  147.8980 C   0  0  0  0  0  3  0  0  0  0  0  0
  189.3210  177.0300  147.4330 C   0  0  0  0  0  3  0  0  0  0  0  0
  189.0810  177.1550  146.0620 C   0  0  0  0  0  3  0  0  0  0  0  0
  190.9210  176.1170  138.2860 C   0  0  0  0  0  1  0  0  0  0  0  0
  190.6890  177.3750  138.9030 O   0  0  0  0  0  0  0  0  0  0  0  0
  1  6  1  0  0  0  0
  2  6  2  0  0  0  0
  2  4  1  0  0  0  0
  3 13  1  0  0  0  0
  5 12  2  0  0  0  0
  6 21  1  0  0  0  0
  7  9  1  0  0  0  0
  7 11  1  0  0  0  0
  8  1  2  0  0  0  0
  9  2  1  0  0  0  0
 10  5  1  0  0  0  0
 10  3  2  0  0  0  0
 11  4  2  0  0  0  0
 12  8  1  0  0  0  0
 13  8  1  0  0  0  0
 13  9  2  0  0  0  0
 14 18  1  0  0  0  0
 15 19  1  0  0  0  0
 15 16  2  0  0  0  0
 16 17  1  0  0  0  0
 17 18  2  0  0  0  0
 18  7  1  0  0  0  0
 19 14  2  0  0  0  0
 21 25  2  0  0  0  0
 21 22  1  0  0  0  0
 22 23  2  0  0  0  0
 23 20  1  0  0  0  0
 24 20  2  0  0  0  0
 25 24  1  0  0  0  0
 26 27  1  0  0  0  0
 27  5  1  0  0  0  0
M  END
>  <MODEL>
3

>  <REMARK>
 VINA RESULT:      -8.9      2.636      5.916
  Name = 
  3 active torsions:
  status: ('A' for Active; 'I' for Inactive)
    1  A    between atoms: C_9  and  C_15
    2  A    between atoms: C_13  and  O_22
    3  A    between atoms: C_14  and  N_17
                            x       y       z     vdW  Elec       q    Type
                         _______ _______ _______ _____ _____    ______ ____

>  <TORSDO>
F 3

$$$$
=
 OpenBabel10262420143D

 27 31  0  0  0  0  0  0  0  0999 V2000
  187.3280  177.9790  144.4540 N   0  0  0  0  0  0  0  0  0  0  0  0
  188.9430  177.3390  142.8390 C   0  0  0  0  0  0  0  0  0  0  0  0
  185.8040  178.2620  141.1150 C   0  0  0  0  0  3  0  0  0  0  0  0
  190.1450  176.7940  142.3190 N   0  0  0  0  0  0  0  0  0  0  0  0
  184.1760  178.8910  142.8090 C   0  0  0  0  0  0  0  0  0  0  0  0
  188.5900  177.5210  144.1880 C   0  0  0  0  0  0  0  0  0  0  0  0
  188.6710  177.3210  140.5750 N   0  0  0  0  0  0  0  0  0  0  0  0
  186.4190  178.2420  143.4690 C   0  0  0  0  0  0  0  0  0  0  0  0
  188.0740  177.6350  141.8310 C   0  0  0  0  0  0  0  0  0  0  0  0
  184.5170  178.6800  141.4620 C   0  0  0  0  0  3  0  0  0  0  0  0
  189.9900  176.7460  140.8620 C   0  0  0  0  0  3  0  0  0  0  0  0
  185.1310  178.6640  143.8060 C   0  0  0  0  0  3  0  0  0  0  0  0
  186.7670  178.0570  142.1080 C   0  0  0  0  0  0  0  0  0  0  0  0
  187.2260  177.5240  138.6040 C   0  0  0  0  0  3  0  0  0  0  0  0
  187.8190  178.9940  136.7740 C   0  0  0  0  0  3  0  0  0  0  0  0
  188.9750  179.3780  137.4580 C   0  0  0  0  0  3  0  0  0  0  0  0
  189.2560  178.8360  138.7150 C   0  0  0  0  0  3  0  0  0  0  0  0
  188.3750  177.9170  139.3040 C   0  0  0  0  0  0  0  0  0  0  0  0
  186.9450  178.0640  137.3460 C   0  0  0  0  0  3  0  0  0  0  0  0
  191.2160  176.7070  147.4910 C   0  0  0  0  0  3  0  0  0  0  0  0
  189.5100  177.2320  145.3180 C   0  0  0  0  0  0  0  0  0  0  0  0
  190.8330  176.8120  145.1040 C   0  0  0  0  0  3  0  0  0  0  0  0
  191.6810  176.5490  146.1840 C   0  0  0  0  0  3  0  0  0  0  0  0
  189.9030  177.1270  147.7180 C   0  0  0  0  0  3  0  0  0  0  0  0
  189.0570  177.3880  146.6370 C   0  0  0  0  0  3  0  0  0  0  0  0
  181.7340  179.0020  142.4290 C   0  0  0  0  0  1  0  0  0  0  0  0
  182.8970  179.3160  143.1820 O   0  0  0  0  0  0  0  0  0  0  0  0
  2  6  2  0  0  0  0
  3 10  2  0  0  0  0
  3 13  1  0  0  0  0
  4  2  1  0  0  0  0
  5 27  1  0  0  0  0
  5 12  2  0  0  0  0
  6  1  1  0  0  0  0
  6 21  1  0  0  0  0
  7 11  1  0  0  0  0
  7  9  1  0  0  0  0
  8 12  1  0  0  0  0
  8  1  2  0  0  0  0
  9 13  2  0  0  0  0
  9  2  1  0  0  0  0
 10  5  1  0  0  0  0
 11  4  2  0  0  0  0
 13  8  1  0  0  0  0
 14 18  1  0  0  0  0
 15 19  1  0  0  0  0
 15 16  2  0  0  0  0
 16 17  1  0  0  0  0
 17 18  2  0  0  0  0
 18  7  1  0  0  0  0
 19 14  2  0  0  0  0
 20 24  1  0  0  0  0
 21 25  1  0  0  0  0
 22 21  2  0  0  0  0
 22 23  1  0  0  0  0
 23 20  2  0  0  0  0
 25 24  2  0  0  0  0
 26 27  1  0  0  0  0
M  END
>  <MODEL>
4

>  <REMARK>
 VINA RESULT:      -8.7      2.530      5.749
  Name = 
  3 active torsions:
  status: ('A' for Active; 'I' for Inactive)
    1  A    between atoms: C_9  and  C_15
    2  A    between atoms: C_13  and  O_22
    3  A    between atoms: C_14  and  N_17
                            x       y       z     vdW  Elec       q    Type
                         _______ _______ _______ _____ _____    ______ ____

>  <TORSDO>
F 3

$$$$
=
 OpenBabel10262420143D

 27 31  0  0  0  0  0  0  0  0999 V2000
  186.1890  178.3250  142.4860 N   0  0  0  0  0  0  0  0  0  0  0  0
  184.0860  178.6210  143.5400 C   0  0  0  0  0  0  0  0  0  0  0  0
  183.6670  178.9620  139.8820 C   0  0  0  0  0  3  0  0  0  0  0  0
  183.1520  178.8200  144.5900 N   0  0  0  0  0  0  0  0  0  0  0  0
  185.8480  178.6710  138.8470 C   0  0  0  0  0  0  0  0  0  0  0  0
  185.4680  178.3910  143.6470 C   0  0  0  0  0  0  0  0  0  0  0  0
  182.0890  179.0110  142.5100 N   0  0  0  0  0  0  0  0  0  0  0  0
  185.6180  178.4900  141.2570 C   0  0  0  0  0  0  0  0  0  0  0  0
  183.4780  178.7450  142.3260 C   0  0  0  0  0  0  0  0  0  0  0  0
  184.4720  178.9320  138.7410 C   0  0  0  0  0  3  0  0  0  0  0  0
  181.8600  179.0980  143.9560 C   0  0  0  0  0  3  0  0  0  0  0  0
  186.4150  178.4570  140.1090 C   0  0  0  0  0  3  0  0  0  0  0  0
  184.2260  178.7250  141.1420 C   0  0  0  0  0  0  0  0  0  0  0  0
  180.7840  177.3720  141.2350 C   0  0  0  0  0  3  0  0  0  0  0  0
  179.0100  178.0820  139.7480 C   0  0  0  0  0  3  0  0  0  0  0  0
  179.2540  179.4130  140.0930 C   0  0  0  0  0  3  0  0  0  0  0  0
  180.2620  179.7240  141.0100 C   0  0  0  0  0  3  0  0  0  0  0  0
  181.0230  178.7040  141.5990 C   0  0  0  0  0  0  0  0  0  0  0  0
  179.7770  177.0610  140.3170 C   0  0  0  0  0  3  0  0  0  0  0  0
  187.4640  177.9590  147.4290 C   0  0  0  0  0  3  0  0  0  0  0  0
  186.1700  178.2300  144.9460 C   0  0  0  0  0  0  0  0  0  0  0  0
  187.3950  177.5500  145.0450 C   0  0  0  0  0  3  0  0  0  0  0  0
  188.0390  177.4140  146.2790 C   0  0  0  0  0  3  0  0  0  0  0  0
  186.2470  178.6400  147.3460 C   0  0  0  0  0  3  0  0  0  0  0  0
  185.6060  178.7730  146.1110 C   0  0  0  0  0  3  0  0  0  0  0  0
  187.8590  177.8450  137.6680 C   0  0  0  0  0  1  0  0  0  0  0  0
  186.6750  178.6280  137.7200 O   0  0  0  0  0  0  0  0  0  0  0  0
  1  6  1  0  0  0  0
  2  6  2  0  0  0  0
  2  4  1  0  0  0  0
  3 13  1  0  0  0  0
  5 12  2  0  0  0  0
  6 21  1  0  0  0  0
  7 11  1  0  0  0  0
  8  1  2  0  0  0  0
  9  7  1  0  0  0  0
  9  2  1  0  0  0  0
 10  5  1  0  0  0  0
 10  3  2  0  0  0  0
 11  4  2  0  0  0  0
 12  8  1  0  0  0  0
 13  8  1  0  0  0  0
 13  9  2  0  0  0  0
 14 18  1  0  0  0  0
 15 16  2  0  0  0  0
 15 19  1  0  0  0  0
 16 17  1  0  0  0  0
 17 18  2  0  0  0  0
 18  7  1  0  0  0  0
 19 14  2  0  0  0  0
 21 22  2  0  0  0  0
 21 25  1  0  0  0  0
 22 23  1  0  0  0  0
 23 20  2  0  0  0  0
 24 20  1  0  0  0  0
 25 24  2  0  0  0  0
 26 27  1  0  0  0  0
 27  5  1  0  0  0  0
M  END
>  <MODEL>
5

>  <REMARK>
 VINA RESULT:      -8.4      3.574      7.874
  Name = 
  3 active torsions:
  status: ('A' for Active; 'I' for Inactive)
    1  A    between atoms: C_9  and  C_15
    2  A    between atoms: C_13  and  O_22
    3  A    between atoms: C_14  and  N_17
                            x       y       z     vdW  Elec       q    Type
                         _______ _______ _______ _____ _____    ______ ____

>  <TORSDO>
F 3

$$$$
=
 OpenBabel10262420143D

 27 31  0  0  0  0  0  0  0  0999 V2000
  187.8800  177.9670  142.5990 N   0  0  0  0  0  0  0  0  0  0  0  0
  186.0460  178.4300  141.1700 C   0  0  0  0  0  0  0  0  0  0  0  0
  189.0780  177.9080  139.1200 C   0  0  0  0  0  3  0  0  0  0  0  0
  184.7410  178.8350  140.7860 N   0  0  0  0  0  0  0  0  0  0  0  0
  190.9340  177.4570  140.6260 C   0  0  0  0  0  0  0  0  0  0  0  0
  186.5530  178.2750  142.4710 C   0  0  0  0  0  0  0  0  0  0  0  0
  186.0810  178.5080  138.8900 N   0  0  0  0  0  0  0  0  0  0  0  0
  188.7090  177.8270  141.5230 C   0  0  0  0  0  0  0  0  0  0  0  0
  186.8360  178.2520  140.0730 C   0  0  0  0  0  0  0  0  0  0  0  0
  190.4340  177.6420  139.3260 C   0  0  0  0  0  3  0  0  0  0  0  0
  184.7400  178.9180  139.3220 C   0  0  0  0  0  3  0  0  0  0  0  0
  190.0660  177.5560  141.7190 C   0  0  0  0  0  3  0  0  0  0  0  0
  188.2050  177.9850  140.2080 C   0  0  0  0  0  0  0  0  0  0  0  0
  185.9090  176.6570  137.2910 C   0  0  0  0  0  3  0  0  0  0  0  0
  186.8430  176.8460  135.0660 C   0  0  0  0  0  3  0  0  0  0  0  0
  187.2670  178.1460  135.3540 C   0  0  0  0  0  3  0  0  0  0  0  0
  187.0100  178.7020  136.6110 C   0  0  0  0  0  3  0  0  0  0  0  0
  186.3140  177.9660  137.5820 C   0  0  0  0  0  0  0  0  0  0  0  0
  186.1660  176.1010  136.0350 C   0  0  0  0  0  3  0  0  0  0  0  0
  184.1970  178.7230  146.0370 C   0  0  0  0  0  3  0  0  0  0  0  0
  185.7260  178.4390  143.6940 C   0  0  0  0  0  0  0  0  0  0  0  0
  184.3960  178.8850  143.6320 C   0  0  0  0  0  3  0  0  0  0  0  0
  183.6350  179.0270  144.7960 C   0  0  0  0  0  3  0  0  0  0  0  0
  185.5180  178.2760  146.1150 C   0  0  0  0  0  3  0  0  0  0  0  0
  186.2760  178.1350  144.9490 C   0  0  0  0  0  3  0  0  0  0  0  0
  193.2640  177.2210  139.8320 C   0  0  0  0  0  1  0  0  0  0  0  0
  192.2840  177.1820  140.8600 O   0  0  0  0  0  0  0  0  0  0  0  0
  2  6  2  0  0  0  0
  3 10  2  0  0  0  0
  3 13  1  0  0  0  0
  4  2  1  0  0  0  0
  5 27  1  0  0  0  0
  5 12  2  0  0  0  0
  6  1  1  0  0  0  0
  6 21  1  0  0  0  0
  7 11  1  0  0  0  0
  7  9  1  0  0  0  0
  8 12  1  0  0  0  0
  8  1  2  0  0  0  0
  9 13  2  0  0  0  0
  9  2  1  0  0  0  0
 10  5  1  0  0  0  0
 11  4  2  0  0  0  0
 13  8  1  0  0  0  0
 14 18  1  0  0  0  0
 15 16  2  0  0  0  0
 15 19  1  0  0  0  0
 16 17  1  0  0  0  0
 17 18  2  0  0  0  0
 18  7  1  0  0  0  0
 19 14  2  0  0  0  0
 20 24  1  0  0  0  0
 21 25  1  0  0  0  0
 22 21  2  0  0  0  0
 22 23  1  0  0  0  0
 23 20  2  0  0  0  0
 25 24  2  0  0  0  0
 26 27  1  0  0  0  0
M  END
>  <MODEL>
6

>  <REMARK>
 VINA RESULT:      -8.3      2.459      4.026
  Name = 
  3 active torsions:
  status: ('A' for Active; 'I' for Inactive)
    1  A    between atoms: C_9  and  C_15
    2  A    between atoms: C_13  and  O_22
    3  A    between atoms: C_14  and  N_17
                            x       y       z     vdW  Elec       q    Type
                         _______ _______ _______ _____ _____    ______ ____

>  <TORSDO>
F 3

$$$$
=
 OpenBabel10262420143D

 27 31  0  0  0  0  0  0  0  0999 V2000
  187.1320  177.9100  143.0180 N   0  0  0  0  0  0  0  0  0  0  0  0
  186.1450  178.3430  140.9060 C   0  0  0  0  0  0  0  0  0  0  0  0
  189.7270  177.5590  140.4330 C   0  0  0  0  0  3  0  0  0  0  0  0
  185.1710  178.7710  139.9670 N   0  0  0  0  0  0  0  0  0  0  0  0
  190.7000  177.1420  142.6230 C   0  0  0  0  0  0  0  0  0  0  0  0
  186.0190  178.2600  142.3040 C   0  0  0  0  0  0  0  0  0  0  0  0
  187.1810  178.2600  138.8760 N   0  0  0  0  0  0  0  0  0  0  0  0
  188.3360  177.6620  142.4270 C   0  0  0  0  0  0  0  0  0  0  0  0
  187.3220  178.0570  140.2810 C   0  0  0  0  0  0  0  0  0  0  0  0
  190.8340  177.2550  141.2290 C   0  0  0  0  0  3  0  0  0  0  0  0
  185.8170  178.7510  138.6520 C   0  0  0  0  0  3  0  0  0  0  0  0
  189.4490  177.3520  143.2140 C   0  0  0  0  0  3  0  0  0  0  0  0
  188.4720  177.7470  141.0190 C   0  0  0  0  0  0  0  0  0  0  0  0
  188.7300  178.3890  136.9790 C   0  0  0  0  0  3  0  0  0  0  0  0
  189.3220  176.4070  135.7210 C   0  0  0  0  0  3  0  0  0  0  0  0
  188.5100  175.6350  136.5560 C   0  0  0  0  0  3  0  0  0  0  0  0
  187.8090  176.2390  137.6030 C   0  0  0  0  0  3  0  0  0  0  0  0
  187.9270  177.6180  137.8320 C   0  0  0  0  0  0  0  0  0  0  0  0
  189.4300  177.7850  135.9320 C   0  0  0  0  0  3  0  0  0  0  0  0
  182.3280  179.0830  144.3470 C   0  0  0  0  0  3  0  0  0  0  0  0
  184.7520  178.5420  143.0270 C   0  0  0  0  0  0  0  0  0  0  0  0
  184.7210  178.7350  144.4170 C   0  0  0  0  0  3  0  0  0  0  0  0
  183.5170  179.0030  145.0740 C   0  0  0  0  0  3  0  0  0  0  0  0
  182.3430  178.8960  142.9630 C   0  0  0  0  0  3  0  0  0  0  0  0
  183.5490  178.6280  142.3080 C   0  0  0  0  0  3  0  0  0  0  0  0
  191.6770  176.7000  144.8510 C   0  0  0  0  0  1  0  0  0  0  0  0
  191.7890  176.8310  143.4410 O   0  0  0  0  0  0  0  0  0  0  0  0
  2  6  1  0  0  0  0
  3 13  2  0  0  0  0
  3 10  1  0  0  0  0
  4  2  1  0  0  0  0
  5 12  1  0  0  0  0
  5 27  1  0  0  0  0
  6  1  2  0  0  0  0
  6 21  1  0  0  0  0
  7  9  1  0  0  0  0
  8  1  1  0  0  0  0
  8 12  2  0  0  0  0
  9  2  2  0  0  0  0
  9 13  1  0  0  0  0
 10  5  2  0  0  0  0
 11  7  1  0  0  0  0
 11  4  2  0  0  0  0
 13  8  1  0  0  0  0
 14 18  1  0  0  0  0
 15 19  1  0  0  0  0
 15 16  2  0  0  0  0
 16 17  1  0  0  0  0
 17 18  2  0  0  0  0
 18  7  1  0  0  0  0
 19 14  2  0  0  0  0
 20 23  1  0  0  0  0
 21 22  1  0  0  0  0
 22 23  2  0  0  0  0
 24 20  2  0  0  0  0
 25 24  1  0  0  0  0
 25 21  2  0  0  0  0
 27 26  1  0  0  0  0
M  END
>  <MODEL>
7

>  <REMARK>
 VINA RESULT:      -8.2      1.715      2.552
  Name = 
  3 active torsions:
  status: ('A' for Active; 'I' for Inactive)
    1  A    between atoms: C_9  and  C_15
    2  A    between atoms: C_13  and  O_22
    3  A    between atoms: C_14  and  N_17
                            x       y       z     vdW  Elec       q    Type
                         _______ _______ _______ _____ _____    ______ ____

>  <TORSDO>
F 3

$$$$
=
 OpenBabel10262420143D

 27 31  0  0  0  0  0  0  0  0999 V2000
  187.7990  177.9760  143.1420 N   0  0  0  0  0  0  0  0  0  0  0  0
  187.5690  177.4910  145.4520 C   0  0  0  0  0  0  0  0  0  0  0  0
  191.0220  176.7090  144.3860 C   0  0  0  0  0  3  0  0  0  0  0  0
  186.9240  177.2700  146.6960 N   0  0  0  0  0  0  0  0  0  0  0  0
  191.2050  177.2040  142.0120 C   0  0  0  0  0  0  0  0  0  0  0  0
  186.9930  177.9290  144.2470 C   0  0  0  0  0  0  0  0  0  0  0  0
  189.1950  176.7090  146.8470 N   0  0  0  0  0  0  0  0  0  0  0  0
  189.1110  177.6020  143.1740 C   0  0  0  0  0  0  0  0  0  0  0  0
  188.8880  177.1530  145.5270 C   0  0  0  0  0  0  0  0  0  0  0  0
  191.7740  176.7360  143.2090 C   0  0  0  0  0  3  0  0  0  0  0  0
  187.9420  176.7420  147.6090 C   0  0  0  0  0  3  0  0  0  0  0  0
  189.8720  177.6300  142.0020 C   0  0  0  0  0  3  0  0  0  0  0  0
  189.6980  177.1560  144.3840 C   0  0  0  0  0  0  0  0  0  0  0  0
  191.3930  175.7230  147.3060 C   0  0  0  0  0  3  0  0  0  0  0  0
  192.9350  176.7830  148.8400 C   0  0  0  0  0  3  0  0  0  0  0  0
  192.0150  177.8120  149.0540 C   0  0  0  0  0  3  0  0  0  0  0  0
  190.7840  177.7970  148.3920 C   0  0  0  0  0  3  0  0  0  0  0  0
  190.4710  176.7600  147.5010 C   0  0  0  0  0  0  0  0  0  0  0  0
  192.6230  175.7370  147.9670 C   0  0  0  0  0  3  0  0  0  0  0  0
  182.8730  179.0810  143.8320 C   0  0  0  0  0  3  0  0  0  0  0  0
  185.5670  178.3270  144.1220 C   0  0  0  0  0  0  0  0  0  0  0  0
  184.8050  178.7050  145.2390 C   0  0  0  0  0  3  0  0  0  0  0  0
  183.4660  179.0790  145.0960 C   0  0  0  0  0  3  0  0  0  0  0  0
  183.6190  178.7090  142.7110 C   0  0  0  0  0  3  0  0  0  0  0  0
  184.9580  178.3350  142.8570 C   0  0  0  0  0  3  0  0  0  0  0  0
  191.3330  177.1020  139.5440 C   0  0  0  0  0  1  0  0  0  0  0  0
  191.9370  177.2480  140.8210 O   0  0  0  0  0  0  0  0  0  0  0  0
  1  8  2  0  0  0  0
  1  6  1  0  0  0  0
  2  9  1  0  0  0  0
  2  4  1  0  0  0  0
  4 11  2  0  0  0  0
  5 10  1  0  0  0  0
  6  2  2  0  0  0  0
  7 18  1  0  0  0  0
  7 11  1  0  0  0  0
  8 13  1  0  0  0  0
  9  7  1  0  0  0  0
 10  3  2  0  0  0  0
 12  5  2  0  0  0  0
 12  8  1  0  0  0  0
 13  3  1  0  0  0  0
 13  9  2  0  0  0  0
 14 18  2  0  0  0  0
 14 19  1  0  0  0  0
 15 16  1  0  0  0  0
 17 16  2  0  0  0  0
 18 17  1  0  0  0  0
 19 15  2  0  0  0  0
 20 23  1  0  0  0  0
 21  6  1  0  0  0  0
 21 22  1  0  0  0  0
 23 22  2  0  0  0  0
 24 25  1  0  0  0  0
 24 20  2  0  0  0  0
 25 21  2  0  0  0  0
 26 27  1  0  0  0  0
 27  5  1  0  0  0  0
M  END
>  <MODEL>
8

>  <REMARK>
 VINA RESULT:      -8.2      1.797      5.704
  Name = 
  3 active torsions:
  status: ('A' for Active; 'I' for Inactive)
    1  A    between atoms: C_9  and  C_15
    2  A    between atoms: C_13  and  O_22
    3  A    between atoms: C_14  and  N_17
                            x       y       z     vdW  Elec       q    Type
                         _______ _______ _______ _____ _____    ______ ____

>  <TORSDO>
F 3

$$$$
=
 OpenBabel10262420143D

 27 31  0  0  0  0  0  0  0  0999 V2000
  190.1230  177.1650  141.9400 N   0  0  0  0  0  0  0  0  0  0  0  0
  187.9530  177.8880  141.3130 C   0  0  0  0  0  0  0  0  0  0  0  0
  190.0160  177.4680  138.2740 C   0  0  0  0  0  3  0  0  0  0  0  0
  186.6380  178.4000  141.4620 N   0  0  0  0  0  0  0  0  0  0  0  0
  192.2330  176.7470  138.9650 C   0  0  0  0  0  0  0  0  0  0  0  0
  188.8680  177.5510  142.3260 C   0  0  0  0  0  0  0  0  0  0  0  0
  187.1940  178.2390  139.1910 N   0  0  0  0  0  0  0  0  0  0  0  0
  190.5060  177.1150  140.6300 C   0  0  0  0  0  0  0  0  0  0  0  0
  188.2900  177.8040  139.9940 C   0  0  0  0  0  0  0  0  0  0  0  0
  191.3290  177.1120  137.9540 C   0  0  0  0  0  3  0  0  0  0  0  0
  186.1320  178.6590  140.1110 C   0  0  0  0  0  3  0  0  0  0  0  0
  191.8160  176.7560  140.3010 C   0  0  0  0  0  3  0  0  0  0  0  0
  189.5890  177.4560  139.6050 C   0  0  0  0  0  0  0  0  0  0  0  0
  186.3430  176.5900  137.5880 C   0  0  0  0  0  3  0  0  0  0  0  0
  186.4190  177.0180  135.2070 C   0  0  0  0  0  3  0  0  0  0  0  0
  186.9970  178.2670  135.4490 C   0  0  0  0  0  3  0  0  0  0  0  0
  187.2460  178.6780  136.7620 C   0  0  0  0  0  3  0  0  0  0  0  0
  186.9050  177.8480  137.8410 C   0  0  0  0  0  0  0  0  0  0  0  0
  186.0940  176.1780  136.2760 C   0  0  0  0  0  3  0  0  0  0  0  0
  187.9700  177.7090  146.5260 C   0  0  0  0  0  3  0  0  0  0  0  0
  188.5400  177.6070  143.7740 C   0  0  0  0  0  0  0  0  0  0  0  0
  187.2230  177.4590  144.2380 C   0  0  0  0  0  3  0  0  0  0  0  0
  186.9390  177.5110  145.6060 C   0  0  0  0  0  3  0  0  0  0  0  0
  189.2850  177.8560  146.0780 C   0  0  0  0  0  3  0  0  0  0  0  0
  189.5660  177.8040  144.7100 C   0  0  0  0  0  3  0  0  0  0  0  0
  193.8710  175.3230  137.7790 C   0  0  0  0  0  1  0  0  0  0  0  0
  193.5500  176.3800  138.6730 O   0  0  0  0  0  0  0  0  0  0  0  0
  1  6  1  0  0  0  0
  2  4  1  0  0  0  0
  2  6  2  0  0  0  0
  3 13  1  0  0  0  0
  5 12  2  0  0  0  0
  6 21  1  0  0  0  0
  7  9  1  0  0  0  0
  7 11  1  0  0  0  0
  8  1  2  0  0  0  0
  9  2  1  0  0  0  0
 10  3  2  0  0  0  0
 10  5  1  0  0  0  0
 11  4  2  0  0  0  0
 12  8  1  0  0  0  0
 13  9  2  0  0  0  0
 13  8  1  0  0  0  0
 14 18  1  0  0  0  0
 15 16  2  0  0  0  0
 15 19  1  0  0  0  0
 16 17  1  0  0  0  0
 17 18  2  0  0  0  0
 18  7  1  0  0  0  0
 19 14  2  0  0  0  0
 21 22  2  0  0  0  0
 21 25  1  0  0  0  0
 22 23  1  0  0  0  0
 23 20  2  0  0  0  0
 24 20  1  0  0  0  0
 25 24  2  0  0  0  0
 26 27  1  0  0  0  0
 27  5  1  0  0  0  0
M  END
>  <MODEL>
9

>  <REMARK>
 VINA RESULT:      -8.2      2.617      4.902
  Name = 
  3 active torsions:
  status: ('A' for Active; 'I' for Inactive)
    1  A    between atoms: C_9  and  C_15
    2  A    between atoms: C_13  and  O_22
    3  A    between atoms: C_14  and  N_17
                            x       y       z     vdW  Elec       q    Type
                         _______ _______ _______ _____ _____    ______ ____

>  <TORSDO>
F 3

$$$$
