=
 OpenBabel10262421053D

 32 34  0  0  1  0  0  0  0  0999 V2000
  185.1740  179.6370  143.2910 C   0  0  1  0  0  3  0  0  0  0  0  0
  186.1700  177.2890  143.8270 C   0  0  0  0  0  2  0  0  0  0  0  0
  183.8410  179.9240  143.6840 O   0  0  0  0  0  0  0  0  0  0  0  0
  186.0020  178.7520  144.2740 C   0  0  2  0  0  3  0  0  0  0  0  0
  188.3330  177.2810  146.3230 C   0  0  0  0  0  3  0  0  0  0  0  0
  189.2580  177.5470  143.8950 C   0  0  0  0  0  0  0  0  0  0  0  0
  185.3490  178.8330  145.6700 C   0  0  2  0  0  3  0  0  0  0  0  0
  188.7980  177.4060  145.1130 C   0  0  0  0  0  0  0  0  0  0  0  0
  186.0330  177.9940  146.7480 C   0  0  0  0  0  2  0  0  0  0  0  0
  183.8550  178.4950  145.6270 C   0  0  0  0  0  2  0  0  0  0  0  0
  187.0920  177.1720  142.7000 N   0  0  0  0  0  0  0  0  0  0  0  0
  187.4990  178.3650  146.9070 C   0  0  1  0  0  3  0  0  0  0  0  0
  183.2660  178.7670  144.2420 C   0  0  0  0  0  2  0  0  0  0  0  0
  188.3900  177.2960  142.7140 C   0  0  0  0  0  3  0  0  0  0  0  0
  191.1500  179.2030  144.0140 C   0  0  0  0  0  1  0  0  0  0  0  0
  190.6480  177.8770  143.6890 N   0  0  0  0  0  0  0  0  0  0  0  0
  191.7140  175.6870  143.9060 C   0  0  0  0  0  1  0  0  0  0  0  0
  191.5870  176.9470  143.0670 C   0  0  0  0  0  2  0  0  0  0  0  0
  187.8480  178.5230  148.3760 C   0  0  0  0  0  2  0  0  0  0  0  0
  189.3090  178.1890  148.6130 C   0  0  0  0  0  1  0  0  0  0  0  0
  186.3110  179.6390  141.1990 O   0  0  0  0  0  0  0  0  0  0  0  0
  185.2710  179.3180  141.8330 C   0  0  0  0  0  0  0  0  0  0  0  0
  184.2170  178.6530  141.2010 O   0  0  0  0  0  0  0  0  0  0  0  0
  184.2570  180.3740  139.1950 O   0  0  0  0  0  0  0  0  0  0  0  0
  183.7210  179.0190  139.5960 P   0  0  2  0  0  0  0  0  0  0  0  0
  182.0320  179.0360  139.5180 O   0  0  0  0  0  1  0  0  0  0  0  0
  183.3920  177.5440  137.3030 C   0  0  0  0  0  2  0  0  0  0  0  0
  184.3700  177.7540  138.4690 C   0  0  0  0  0  3  0  0  0  0  0  0
  184.0660  177.0400  136.0220 C   0  0  0  0  0  2  0  0  0  0  0  0
  186.3620  177.0820  137.0670 C   0  0  0  0  0  2  0  0  0  0  0  0
  185.7490  178.1660  137.9630 C   0  0  0  0  0  2  0  0  0  0  0  0
  185.3200  176.2320  136.3290 C   0  0  0  0  0  2  0  0  0  0  0  0
  1 22  1  6  0  0  0
  1  3  1  0  0  0  0
  1  4  1  0  0  0  0
  3 13  1  0  0  0  0
  4  2  1  6  0  0  0
  4  7  1  0  0  0  0
  5 12  1  0  0  0  0
  6  8  2  0  0  0  0
  7 10  1  6  0  0  0
  7  9  1  0  0  0  0
  8  5  2  0  0  0  0
  9 12  1  0  0  0  0
 11 14  2  0  0  0  0
 11  2  1  0  0  0  0
 12 19  1  1  0  0  0
 13 10  1  0  0  0  0
 14  6  1  0  0  0  0
 16  6  1  0  0  0  0
 16 15  1  0  0  0  0
 18 16  1  0  0  0  0
 18 17  1  0  0  0  0
 19 20  1  0  0  0  0
 21 22  2  0  0  0  0
 23 22  1  0  0  0  0
 25 24  2  6  0  0  0
 25 23  1  0  0  0  0
 26 25  1  0  0  0  0
 27 28  1  0  0  0  0
 28 25  1  0  0  0  0
 29 32  1  0  0  0  0
 29 27  1  0  0  0  0
 30 31  1  0  0  0  0
 31 28  1  0  0  0  0
 32 30  1  0  0  0  0
M  END
>  <MODEL>
1

>  <REMARK>
 VINA RESULT:      -8.8      0.000      0.000
  Name = 
  7 active torsions:
  status: ('A' for Active; 'I' for Inactive)
    1  A    between atoms: C_1  and  C_27
    2  A    between atoms: C_7  and  P_22
    3  A    between atoms: C_10  and  N_12
    4  A    between atoms: N_12  and  C_31
    5  A    between atoms: C_13  and  C_29
    6  A    between atoms: O_16  and  P_22
    7  A    between atoms: O_16  and  C_27
                            x       y       z     vdW  Elec       q    Type
                         _______ _______ _______ _____ _____    ______ ____

>  <TORSDO>
F 7

$$$$
=
 OpenBabel10262421053D

 32 34  0  0  1  0  0  0  0  0999 V2000
  185.2000  179.5890  143.4130 C   0  0  1  0  0  3  0  0  0  0  0  0
  186.2360  177.2550  143.9410 C   0  0  0  0  0  2  0  0  0  0  0  0
  183.8720  179.8600  143.8290 O   0  0  0  0  0  0  0  0  0  0  0  0
  186.0570  178.7180  144.3850 C   0  0  2  0  0  3  0  0  0  0  0  0
  188.4430  177.2850  146.3980 C   0  0  0  0  0  3  0  0  0  0  0  0
  189.3210  177.5520  143.9520 C   0  0  0  0  0  0  0  0  0  0  0  0
  185.4290  178.7960  145.7930 C   0  0  2  0  0  3  0  0  0  0  0  0
  188.8850  177.4110  145.1790 C   0  0  0  0  0  0  0  0  0  0  0  0
  186.1420  177.9700  146.8610 C   0  0  0  0  0  2  0  0  0  0  0  0
  183.9380  178.4400  145.7780 C   0  0  0  0  0  2  0  0  0  0  0  0
  187.1390  177.1450  142.7980 N   0  0  0  0  0  0  0  0  0  0  0  0
  187.6060  178.3610  146.9920 C   0  0  1  0  0  3  0  0  0  0  0  0
  183.3210  178.6980  144.4020 C   0  0  0  0  0  2  0  0  0  0  0  0
  188.4350  177.2850  142.7880 C   0  0  0  0  0  3  0  0  0  0  0  0
  191.1870  179.2410  144.0040 C   0  0  0  0  0  1  0  0  0  0  0  0
  190.7030  177.8990  143.7200 N   0  0  0  0  0  0  0  0  0  0  0  0
  191.6610  175.6540  143.8750 C   0  0  0  0  0  1  0  0  0  0  0  0
  191.6490  176.9670  143.1120 C   0  0  0  0  0  2  0  0  0  0  0  0
  187.9790  178.5290  148.4540 C   0  0  0  0  0  2  0  0  0  0  0  0
  189.4490  178.2190  148.6650 C   0  0  0  0  0  1  0  0  0  0  0  0
  186.2270  179.7250  141.2690 O   0  0  0  0  0  0  0  0  0  0  0  0
  185.2760  179.2640  141.9550 C   0  0  0  0  0  0  0  0  0  0  0  0
  184.3030  178.4430  141.3810 O   0  0  0  0  0  0  0  0  0  0  0  0
  184.1480  177.6510  138.8630 O   0  0  0  0  0  0  0  0  0  0  0  0
  183.6630  178.7250  139.8100 P   0  0  2  0  0  0  0  0  0  0  0  0
  184.1760  180.2380  139.2560 O   0  0  0  0  0  1  0  0  0  0  0  0
  181.3440  177.2700  139.5870 C   0  0  0  0  0  2  0  0  0  0  0  0
  181.8510  178.6880  139.8890 C   0  0  0  0  0  3  0  0  0  0  0  0
  179.9890  176.9530  140.2280 C   0  0  0  0  0  2  0  0  0  0  0  0
  179.8490  179.2140  141.3400 C   0  0  0  0  0  2  0  0  0  0  0  0
  181.3810  179.1590  141.2620 C   0  0  0  0  0  2  0  0  0  0  0  0
  179.1490  178.2110  140.4140 C   0  0  0  0  0  2  0  0  0  0  0  0
  1 22  1  6  0  0  0
  1  3  1  0  0  0  0
  1  4  1  0  0  0  0
  3 13  1  0  0  0  0
  4  2  1  6  0  0  0
  4  7  1  0  0  0  0
  5 12  1  0  0  0  0
  6  8  2  0  0  0  0
  7 10  1  6  0  0  0
  7  9  1  0  0  0  0
  8  5  2  0  0  0  0
  9 12  1  0  0  0  0
 11  2  1  0  0  0  0
 12 19  1  1  0  0  0
 13 10  1  0  0  0  0
 14 11  2  0  0  0  0
 14  6  1  0  0  0  0
 16  6  1  0  0  0  0
 16 15  1  0  0  0  0
 18 16  1  0  0  0  0
 18 17  1  0  0  0  0
 19 20  1  0  0  0  0
 21 22  2  0  0  0  0
 23 22  1  0  0  0  0
 25 24  2  6  0  0  0
 25 28  1  0  0  0  0
 25 23  1  0  0  0  0
 26 25  1  0  0  0  0
 27 28  1  0  0  0  0
 27 29  1  0  0  0  0
 28 31  1  0  0  0  0
 29 32  1  0  0  0  0
 31 30  1  0  0  0  0
 32 30  1  0  0  0  0
M  END
>  <MODEL>
2

>  <REMARK>
 VINA RESULT:      -8.7      1.939      2.635
  Name = 
  7 active torsions:
  status: ('A' for Active; 'I' for Inactive)
    1  A    between atoms: C_1  and  C_27
    2  A    between atoms: C_7  and  P_22
    3  A    between atoms: C_10  and  N_12
    4  A    between atoms: N_12  and  C_31
    5  A    between atoms: C_13  and  C_29
    6  A    between atoms: O_16  and  P_22
    7  A    between atoms: O_16  and  C_27
                            x       y       z     vdW  Elec       q    Type
                         _______ _______ _______ _____ _____    ______ ____

>  <TORSDO>
F 7

$$$$
=
 OpenBabel10262421053D

 32 34  0  0  1  0  0  0  0  0999 V2000
  186.7100  179.1020  141.7160 C   0  0  1  0  0  3  0  0  0  0  0  0
  187.1250  176.8390  142.9420 C   0  0  0  0  0  2  0  0  0  0  0  0
  185.3810  179.4680  141.3840 O   0  0  0  0  0  0  0  0  0  0  0  0
  186.8950  178.3550  143.0740 C   0  0  2  0  0  3  0  0  0  0  0  0
  187.8410  177.1560  146.1510 C   0  0  0  0  0  3  0  0  0  0  0  0
  189.8230  177.0440  144.4530 C   0  0  0  0  0  0  0  0  0  0  0  0
  185.6690  178.6530  143.9650 C   0  0  2  0  0  3  0  0  0  0  0  0
  188.8320  177.0930  145.3080 C   0  0  0  0  0  0  0  0  0  0  0  0
  185.6860  177.9680  145.3300 C   0  0  0  0  0  2  0  0  0  0  0  0
  184.3500  178.3410  143.2500 C   0  0  0  0  0  2  0  0  0  0  0  0
  188.4560  176.5400  142.4200 N   0  0  0  0  0  0  0  0  0  0  0  0
  186.9290  178.3310  146.1280 C   0  0  1  0  0  3  0  0  0  0  0  0
  184.5110  178.4180  141.7310 C   0  0  0  0  0  2  0  0  0  0  0  0
  189.5980  176.6390  143.0400 C   0  0  0  0  0  3  0  0  0  0  0  0
  191.7200  176.6150  146.0520 C   0  0  0  0  0  1  0  0  0  0  0  0
  191.1680  177.3140  144.9020 N   0  0  0  0  0  0  0  0  0  0  0  0
  191.1940  179.6220  144.0930 C   0  0  0  0  0  1  0  0  0  0  0  0
  192.0000  178.3510  144.2950 C   0  0  0  0  0  2  0  0  0  0  0  0
  186.5550  178.6960  147.5520 C   0  0  0  0  0  2  0  0  0  0  0  0
  187.6880  178.3570  148.5020 C   0  0  0  0  0  1  0  0  0  0  0  0
  188.7030  178.7410  140.4630 O   0  0  0  0  0  0  0  0  0  0  0  0
  187.4570  178.5690  140.5350 C   0  0  0  0  0  0  0  0  0  0  0  0
  186.7660  177.8750  139.5390 O   0  0  0  0  0  0  0  0  0  0  0  0
  187.8150  179.0630  137.4220 O   0  0  0  0  0  1  0  0  0  0  0  0
  187.3660  177.7140  137.9350 P   0  0  2  0  0  0  0  0  0  0  0  0
  186.1460  177.1090  136.9340 O   0  0  0  0  0  0  0  0  0  0  0  0
  188.4820  175.3810  137.0120 C   0  0  0  0  0  2  0  0  0  0  0  0
  188.7740  176.5700  137.9390 C   0  0  0  0  0  3  0  0  0  0  0  0
  189.7430  174.7300  136.4330 C   0  0  0  0  0  2  0  0  0  0  0  0
  191.2690  176.3830  137.5770 C   0  0  0  0  0  2  0  0  0  0  0  0
  190.0420  177.3030  137.5110 C   0  0  0  0  0  2  0  0  0  0  0  0
  190.9380  174.9010  137.3630 C   0  0  0  0  0  2  0  0  0  0  0  0
  1 22  1  6  0  0  0
  1  4  1  0  0  0  0
  3  1  1  0  0  0  0
  3 13  1  0  0  0  0
  4  2  1  6  0  0  0
  4  7  1  0  0  0  0
  6 16  1  0  0  0  0
  6  8  2  0  0  0  0
  7 10  1  6  0  0  0
  7  9  1  0  0  0  0
  8  5  2  0  0  0  0
  9 12  1  0  0  0  0
 11  2  1  0  0  0  0
 11 14  2  0  0  0  0
 12  5  1  0  0  0  0
 12 19  1  1  0  0  0
 13 10  1  0  0  0  0
 14  6  1  0  0  0  0
 16 15  1  0  0  0  0
 17 18  1  0  0  0  0
 18 16  1  0  0  0  0
 19 20  1  0  0  0  0
 21 22  2  0  0  0  0
 23 22  1  0  0  0  0
 24 25  1  0  0  0  0
 25 26  2  6  0  0  0
 25 28  1  0  0  0  0
 25 23  1  0  0  0  0
 27 28  1  0  0  0  0
 29 27  1  0  0  0  0
 29 32  1  0  0  0  0
 31 30  1  0  0  0  0
 31 28  1  0  0  0  0
 32 30  1  0  0  0  0
M  END
>  <MODEL>
3

>  <REMARK>
 VINA RESULT:      -8.2      2.495      3.237
  Name = 
  7 active torsions:
  status: ('A' for Active; 'I' for Inactive)
    1  A    between atoms: C_1  and  C_27
    2  A    between atoms: C_7  and  P_22
    3  A    between atoms: C_10  and  N_12
    4  A    between atoms: N_12  and  C_31
    5  A    between atoms: C_13  and  C_29
    6  A    between atoms: O_16  and  P_22
    7  A    between atoms: O_16  and  C_27
                            x       y       z     vdW  Elec       q    Type
                         _______ _______ _______ _____ _____    ______ ____

>  <TORSDO>
F 7

$$$$
=
 OpenBabel10262421053D

 32 34  0  0  1  0  0  0  0  0999 V2000
  186.7420  179.0710  141.6720 C   0  0  1  0  0  3  0  0  0  0  0  0
  187.1530  176.8200  142.9220 C   0  0  0  0  0  2  0  0  0  0  0  0
  185.4140  179.4330  141.3300 O   0  0  0  0  0  0  0  0  0  0  0  0
  186.9210  178.3370  143.0380 C   0  0  2  0  0  3  0  0  0  0  0  0
  187.8530  177.1690  146.1300 C   0  0  0  0  0  3  0  0  0  0  0  0
  189.8440  177.0420  144.4430 C   0  0  0  0  0  0  0  0  0  0  0  0
  185.6910  178.6420  143.9200 C   0  0  2  0  0  3  0  0  0  0  0  0
  188.8490  177.0990  145.2930 C   0  0  0  0  0  0  0  0  0  0  0  0
  185.7020  177.9710  145.2910 C   0  0  0  0  0  2  0  0  0  0  0  0
  184.3750  178.3230  143.2020 C   0  0  0  0  0  2  0  0  0  0  0  0
  188.4860  176.5170  142.4080 N   0  0  0  0  0  0  0  0  0  0  0  0
  186.9410  178.3420  146.0920 C   0  0  1  0  0  3  0  0  0  0  0  0
  184.5430  178.3850  141.6830 C   0  0  0  0  0  2  0  0  0  0  0  0
  189.6260  176.6230  143.0330 C   0  0  0  0  0  3  0  0  0  0  0  0
  191.7440  176.6080  146.0360 C   0  0  0  0  0  1  0  0  0  0  0  0
  191.1860  177.3180  144.8960 N   0  0  0  0  0  0  0  0  0  0  0  0
  191.1930  179.6380  144.1220 C   0  0  0  0  0  1  0  0  0  0  0  0
  192.0090  178.3700  144.3030 C   0  0  0  0  0  2  0  0  0  0  0  0
  186.5590  178.7210  147.5110 C   0  0  0  0  0  2  0  0  0  0  0  0
  187.6880  178.3920  148.4700 C   0  0  0  0  0  1  0  0  0  0  0  0
  188.7530  178.5900  140.4900 O   0  0  0  0  0  0  0  0  0  0  0  0
  187.4950  178.5270  140.4990 C   0  0  0  0  0  0  0  0  0  0  0  0
  186.7940  177.9440  139.4410 O   0  0  0  0  0  0  0  0  0  0  0  0
  188.4040  176.6520  137.7890 O   0  0  0  0  0  1  0  0  0  0  0  0
  187.4460  177.8200  137.8550 P   0  0  2  0  0  0  0  0  0  0  0  0
  188.2700  179.2460  137.4710 O   0  0  0  0  0  0  0  0  0  0  0  0
  186.4430  176.4020  135.7280 C   0  0  0  0  0  2  0  0  0  0  0  0
  186.0940  177.5610  136.6730 C   0  0  0  0  0  3  0  0  0  0  0  0
  185.2140  175.6830  135.1600 C   0  0  0  0  0  2  0  0  0  0  0  0
  183.6120  177.1420  136.4540 C   0  0  0  0  0  2  0  0  0  0  0  0
  184.7940  177.2890  137.4220 C   0  0  0  0  0  2  0  0  0  0  0  0
  184.0120  176.6150  135.0700 C   0  0  0  0  0  2  0  0  0  0  0  0
  1 22  1  6  0  0  0
  1  4  1  0  0  0  0
  3  1  1  0  0  0  0
  3 13  1  0  0  0  0
  4  2  1  6  0  0  0
  4  7  1  0  0  0  0
  6 16  1  0  0  0  0
  6  8  2  0  0  0  0
  7 10  1  6  0  0  0
  7  9  1  0  0  0  0
  8  5  2  0  0  0  0
  9 12  1  0  0  0  0
 11  2  1  0  0  0  0
 11 14  2  0  0  0  0
 12  5  1  0  0  0  0
 12 19  1  1  0  0  0
 13 10  1  0  0  0  0
 14  6  1  0  0  0  0
 16 15  1  0  0  0  0
 17 18  1  0  0  0  0
 18 16  1  0  0  0  0
 19 20  1  0  0  0  0
 21 22  2  0  0  0  0
 23 22  1  0  0  0  0
 24 25  1  0  0  0  0
 25 26  2  6  0  0  0
 25 23  1  0  0  0  0
 27 28  1  0  0  0  0
 28 31  1  0  0  0  0
 28 25  1  0  0  0  0
 29 27  1  0  0  0  0
 30 31  1  0  0  0  0
 32 29  1  0  0  0  0
 32 30  1  0  0  0  0
M  END
>  <MODEL>
4

>  <REMARK>
 VINA RESULT:      -7.9      1.922      2.735
  Name = 
  7 active torsions:
  status: ('A' for Active; 'I' for Inactive)
    1  A    between atoms: C_1  and  C_27
    2  A    between atoms: C_7  and  P_22
    3  A    between atoms: C_10  and  N_12
    4  A    between atoms: N_12  and  C_31
    5  A    between atoms: C_13  and  C_29
    6  A    between atoms: O_16  and  P_22
    7  A    between atoms: O_16  and  C_27
                            x       y       z     vdW  Elec       q    Type
                         _______ _______ _______ _____ _____    ______ ____

>  <TORSDO>
F 7

$$$$
=
 OpenBabel10262421053D

 32 34  0  0  1  0  0  0  0  0999 V2000
  186.9910  177.0560  143.5130 C   0  0  1  0  0  3  0  0  0  0  0  0
  186.6710  179.1420  141.9810 C   0  0  0  0  0  2  0  0  0  0  0  0
  186.6900  177.1670  144.8940 O   0  0  0  0  0  0  0  0  0  0  0  0
  186.0570  177.8470  142.5440 C   0  0  2  0  0  3  0  0  0  0  0  0
  184.0060  178.9880  140.0370 C   0  0  0  0  0  3  0  0  0  0  0  0
  186.2830  178.1470  139.0720 C   0  0  0  0  0  0  0  0  0  0  0  0
  184.7290  178.1370  143.2750 C   0  0  2  0  0  3  0  0  0  0  0  0
  185.1410  178.5750  139.5490 C   0  0  0  0  0  0  0  0  0  0  0  0
  183.7090  178.9330  142.4630 C   0  0  0  0  0  2  0  0  0  0  0  0
  184.9540  178.8200  144.6280 C   0  0  0  0  0  2  0  0  0  0  0  0
  187.7120  178.8600  140.9970 N   0  0  0  0  0  0  0  0  0  0  0  0
  183.3670  178.2410  141.1520 C   0  0  1  0  0  3  0  0  0  0  0  0
  186.3420  178.4990  145.1860 C   0  0  0  0  0  2  0  0  0  0  0  0
  187.5620  178.4260  139.7770 C   0  0  0  0  0  3  0  0  0  0  0  0
  185.0890  176.9490  137.2070 C   0  0  0  0  0  1  0  0  0  0  0  0
  186.3130  177.4590  137.8030 N   0  0  0  0  0  0  0  0  0  0  0  0
  187.8110  178.1780  136.0080 C   0  0  0  0  0  1  0  0  0  0  0  0
  187.5640  177.1610  137.1080 C   0  0  0  0  0  2  0  0  0  0  0  0
  181.8650  178.2210  140.9410 C   0  0  0  0  0  2  0  0  0  0  0  0
  181.5250  177.5910  139.6030 C   0  0  0  0  0  1  0  0  0  0  0  0
  189.0390  176.1410  142.7140 O   0  0  0  0  0  0  0  0  0  0  0  0
  188.4620  177.1230  143.2520 C   0  0  0  0  0  0  0  0  0  0  0  0
  189.1710  178.2770  143.5940 O   0  0  0  0  0  0  0  0  0  0  0  0
  191.3760  179.7260  143.7550 O   0  0  0  0  0  1  0  0  0  0  0  0
  190.8820  178.2980  143.7590 P   0  0  2  0  0  0  0  0  0  0  0  0
  191.5830  177.4570  142.4700 O   0  0  0  0  0  0  0  0  0  0  0  0
  190.1670  177.5840  146.3120 C   0  0  0  0  0  2  0  0  0  0  0  0
  191.3400  177.5040  145.3250 C   0  0  0  0  0  3  0  0  0  0  0  0
  190.1620  176.4560  147.3510 C   0  0  0  0  0  2  0  0  0  0  0  0
  192.2180  175.3740  146.3660 C   0  0  0  0  0  2  0  0  0  0  0  0
  191.7500  176.0560  145.0730 C   0  0  0  0  0  2  0  0  0  0  0  0
  191.5710  175.9470  147.6320 C   0  0  0  0  0  2  0  0  0  0  0  0
  1 22  1  1  0  0  0
  1  3  1  0  0  0  0
  3 13  1  0  0  0  0
  4  2  1  1  0  0  0
  4  7  1  0  0  0  0
  4  1  1  0  0  0  0
  5 12  1  0  0  0  0
  6  8  2  0  0  0  0
  6 14  1  0  0  0  0
  7  9  1  6  0  0  0
  7 10  1  0  0  0  0
  8  5  2  0  0  0  0
 10 13  1  0  0  0  0
 11  2  1  0  0  0  0
 12 19  1  6  0  0  0
 12  9  1  0  0  0  0
 14 11  2  0  0  0  0
 15 16  1  0  0  0  0
 16  6  1  0  0  0  0
 17 18  1  0  0  0  0
 18 16  1  0  0  0  0
 20 19  1  0  0  0  0
 21 22  2  0  0  0  0
 22 23  1  0  0  0  0
 23 25  1  0  0  0  0
 24 25  1  0  0  0  0
 25 26  2  6  0  0  0
 25 28  1  0  0  0  0
 27 29  1  0  0  0  0
 28 27  1  0  0  0  0
 29 32  1  0  0  0  0
 30 32  1  0  0  0  0
 31 28  1  0  0  0  0
 31 30  1  0  0  0  0
M  END
>  <MODEL>
5

>  <REMARK>
 VINA RESULT:      -7.8      3.145      7.669
  Name = 
  7 active torsions:
  status: ('A' for Active; 'I' for Inactive)
    1  A    between atoms: C_1  and  C_27
    2  A    between atoms: C_7  and  P_22
    3  A    between atoms: C_10  and  N_12
    4  A    between atoms: N_12  and  C_31
    5  A    between atoms: C_13  and  C_29
    6  A    between atoms: O_16  and  P_22
    7  A    between atoms: O_16  and  C_27
                            x       y       z     vdW  Elec       q    Type
                         _______ _______ _______ _____ _____    ______ ____

>  <TORSDO>
F 7

$$$$
=
 OpenBabel10262421053D

 32 34  0  0  1  0  0  0  0  0999 V2000
  186.3960  177.4450  143.8450 C   0  0  1  0  0  3  0  0  0  0  0  0
  185.2940  179.5110  142.6990 C   0  0  0  0  0  2  0  0  0  0  0  0
  186.7220  177.5180  145.2240 O   0  0  0  0  0  0  0  0  0  0  0  0
  185.0800  178.1650  143.4140 C   0  0  2  0  0  3  0  0  0  0  0  0
  182.0660  179.1570  142.1000 C   0  0  0  0  0  3  0  0  0  0  0  0
  183.7460  178.5150  140.2050 C   0  0  0  0  0  0  0  0  0  0  0  0
  184.1870  178.3370  144.6610 C   0  0  2  0  0  3  0  0  0  0  0  0
  182.9000  178.8420  141.1500 C   0  0  0  0  0  0  0  0  0  0  0  0
  182.8630  179.0540  144.4090 C   0  0  0  0  0  2  0  0  0  0  0  0
  184.9330  179.0250  145.8110 C   0  0  0  0  0  2  0  0  0  0  0  0
  185.8190  179.3250  141.3480 N   0  0  0  0  0  0  0  0  0  0  0  0
  182.0330  178.3480  143.3470 C   0  0  1  0  0  3  0  0  0  0  0  0
  186.4430  178.8140  145.6960 C   0  0  0  0  0  2  0  0  0  0  0  0
  185.1820  178.8910  140.2960 C   0  0  0  0  0  3  0  0  0  0  0  0
  184.0980  177.7630  137.8290 C   0  0  0  0  0  1  0  0  0  0  0  0
  183.2680  177.8430  139.0200 N   0  0  0  0  0  0  0  0  0  0  0  0
  181.8800  175.8750  139.4490 C   0  0  0  0  0  1  0  0  0  0  0  0
  181.9160  177.3000  138.9240 C   0  0  0  0  0  2  0  0  0  0  0  0
  180.5940  178.2070  143.8090 C   0  0  0  0  0  2  0  0  0  0  0  0
  179.8040  179.4590  143.4720 C   0  0  0  0  0  1  0  0  0  0  0  0
  187.7400  176.9120  141.9530 O   0  0  0  0  0  0  0  0  0  0  0  0
  187.5980  177.6350  142.9750 C   0  0  0  0  0  0  0  0  0  0  0  0
  188.5330  178.6200  143.2980 O   0  0  0  0  0  0  0  0  0  0  0  0
  190.9210  179.5320  143.9770 O   0  0  0  0  0  1  0  0  0  0  0  0
  190.1770  178.2570  143.6490 P   0  0  2  0  0  0  0  0  0  0  0  0
  190.8900  177.5190  142.3060 O   0  0  0  0  0  0  0  0  0  0  0  0
  191.6640  176.5540  145.2070 C   0  0  0  0  0  2  0  0  0  0  0  0
  190.2480  177.1320  145.0710 C   0  0  0  0  0  3  0  0  0  0  0  0
  192.0250  176.1490  146.6410 C   0  0  0  0  0  2  0  0  0  0  0  0
  189.8040  176.9290  147.5510 C   0  0  0  0  0  2  0  0  0  0  0  0
  189.8310  177.8700  146.3390 C   0  0  0  0  0  2  0  0  0  0  0  0
  190.7890  175.7580  147.4410 C   0  0  0  0  0  2  0  0  0  0  0  0
  1 22  1  6  0  0  0
  1  3  1  0  0  0  0
  3 13  1  0  0  0  0
  4  2  1  1  0  0  0
  4  1  1  0  0  0  0
  4  7  1  0  0  0  0
  5 12  1  0  0  0  0
  6 14  1  0  0  0  0
  6  8  2  0  0  0  0
  7  9  1  6  0  0  0
  7 10  1  0  0  0  0
  8  5  2  0  0  0  0
 11  2  1  0  0  0  0
 12 19  1  1  0  0  0
 12  9  1  0  0  0  0
 13 10  1  0  0  0  0
 14 11  2  0  0  0  0
 15 16  1  0  0  0  0
 16  6  1  0  0  0  0
 18 16  1  0  0  0  0
 18 17  1  0  0  0  0
 20 19  1  0  0  0  0
 21 22  2  0  0  0  0
 22 23  1  0  0  0  0
 23 25  1  0  0  0  0
 25 26  2  6  0  0  0
 25 24  1  0  0  0  0
 25 28  1  0  0  0  0
 27 29  1  0  0  0  0
 28 27  1  0  0  0  0
 28 31  1  0  0  0  0
 29 32  1  0  0  0  0
 31 30  1  0  0  0  0
 32 30  1  0  0  0  0
M  END
>  <MODEL>
6

>  <REMARK>
 VINA RESULT:      -7.8      2.951      7.676
  Name = 
  7 active torsions:
  status: ('A' for Active; 'I' for Inactive)
    1  A    between atoms: C_1  and  C_27
    2  A    between atoms: C_7  and  P_22
    3  A    between atoms: C_10  and  N_12
    4  A    between atoms: N_12  and  C_31
    5  A    between atoms: C_13  and  C_29
    6  A    between atoms: O_16  and  P_22
    7  A    between atoms: O_16  and  C_27
                            x       y       z     vdW  Elec       q    Type
                         _______ _______ _______ _____ _____    ______ ____

>  <TORSDO>
F 7

$$$$
=
 OpenBabel10262421053D

 32 34  0  0  1  0  0  0  0  0999 V2000
  190.1270  176.2190  142.5050 C   0  0  1  0  0  3  0  0  0  0  0  0
  189.1320  178.6150  142.7610 C   0  0  0  0  0  2  0  0  0  0  0  0
  191.2130  175.8350  143.3320 O   0  0  0  0  0  0  0  0  0  0  0  0
  189.0510  177.1340  143.1700 C   0  0  2  0  0  3  0  0  0  0  0  0
  186.2240  178.7070  144.3240 C   0  0  0  0  0  3  0  0  0  0  0  0
  186.2150  178.5620  141.7150 C   0  0  0  0  0  0  0  0  0  0  0  0
  189.1560  176.9760  144.7020 C   0  0  2  0  0  3  0  0  0  0  0  0
  186.2160  178.6420  143.0220 C   0  0  0  0  0  0  0  0  0  0  0  0
  188.1780  177.8330  145.5040 C   0  0  0  0  0  2  0  0  0  0  0  0
  190.5830  177.2140  145.2080 C   0  0  0  0  0  2  0  0  0  0  0  0
  188.6820  178.8200  141.3870 N   0  0  0  0  0  0  0  0  0  0  0  0
  186.7340  177.5560  145.1140 C   0  0  1  0  0  3  0  0  0  0  0  0
  191.6130  176.9380  144.1110 C   0  0  0  0  0  2  0  0  0  0  0  0
  187.4600  178.7830  140.9330 C   0  0  0  0  0  3  0  0  0  0  0  0
  184.8580  178.6290  139.5960 C   0  0  0  0  0  1  0  0  0  0  0  0
  184.9750  178.3300  141.0140 N   0  0  0  0  0  0  0  0  0  0  0  0
  182.5520  178.6290  141.1770 C   0  0  0  0  0  1  0  0  0  0  0  0
  183.7650  177.8780  141.6980 C   0  0  0  0  0  2  0  0  0  0  0  0
  185.8760  177.3860  146.3540 C   0  0  0  0  0  2  0  0  0  0  0  0
  185.0370  178.6280  146.5930 C   0  0  0  0  0  1  0  0  0  0  0  0
  191.5310  177.3860  140.9760 O   0  0  0  0  0  0  0  0  0  0  0  0
  190.5740  176.5800  141.1240 C   0  0  0  0  0  0  0  0  0  0  0  0
  189.9370  176.0060  140.0220 O   0  0  0  0  0  0  0  0  0  0  0  0
  190.8020  174.5820  137.9680 O   0  0  0  0  0  0  0  0  0  0  0  0
  190.6300  176.0050  138.4480 P   0  0  2  0  0  0  0  0  0  0  0  0
  192.1370  176.7690  138.4960 O   0  0  0  0  0  1  0  0  0  0  0  0
  188.2040  176.1400  137.1690 C   0  0  0  0  0  2  0  0  0  0  0  0
  189.5310  176.8970  137.3120 C   0  0  0  0  0  3  0  0  0  0  0  0
  187.0190  177.0420  136.8050 C   0  0  0  0  0  2  0  0  0  0  0  0
  188.4390  179.1280  136.8420 C   0  0  0  0  0  2  0  0  0  0  0  0
  189.3020  178.3180  137.8190 C   0  0  0  0  0  2  0  0  0  0  0  0
  187.4690  178.2690  136.0220 C   0  0  0  0  0  2  0  0  0  0  0  0
  1 22  1  6  0  0  0
  1  4  1  0  0  0  0
  1  3  1  0  0  0  0
  3 13  1  0  0  0  0
  4  2  1  1  0  0  0
  4  7  1  0  0  0  0
  5 12  1  0  0  0  0
  6  8  2  0  0  0  0
  7 10  1  1  0  0  0
  7  9  1  0  0  0  0
  8  5  2  0  0  0  0
 11  2  1  0  0  0  0
 12  9  1  0  0  0  0
 12 19  1  1  0  0  0
 13 10  1  0  0  0  0
 14 11  2  0  0  0  0
 14  6  1  0  0  0  0
 15 16  1  0  0  0  0
 16 18  1  0  0  0  0
 16  6  1  0  0  0  0
 17 18  1  0  0  0  0
 19 20  1  0  0  0  0
 21 22  2  0  0  0  0
 23 22  1  0  0  0  0
 25 24  2  6  0  0  0
 25 26  1  0  0  0  0
 25 23  1  0  0  0  0
 27 28  1  0  0  0  0
 28 31  1  0  0  0  0
 28 25  1  0  0  0  0
 29 27  1  0  0  0  0
 30 31  1  0  0  0  0
 32 29  1  0  0  0  0
 32 30  1  0  0  0  0
M  END
>  <MODEL>
7

>  <REMARK>
 VINA RESULT:      -7.8      3.591      5.798
  Name = 
  7 active torsions:
  status: ('A' for Active; 'I' for Inactive)
    1  A    between atoms: C_1  and  C_27
    2  A    between atoms: C_7  and  P_22
    3  A    between atoms: C_10  and  N_12
    4  A    between atoms: N_12  and  C_31
    5  A    between atoms: C_13  and  C_29
    6  A    between atoms: O_16  and  P_22
    7  A    between atoms: O_16  and  C_27
                            x       y       z     vdW  Elec       q    Type
                         _______ _______ _______ _____ _____    ______ ____

>  <TORSDO>
F 7

$$$$
=
 OpenBabel10262421053D

 32 34  0  0  1  0  0  0  0  0999 V2000
  186.7340  177.2250  137.6340 C   0  0  1  0  0  3  0  0  0  0  0  0
  188.9720  178.4530  138.1640 C   0  0  0  0  0  2  0  0  0  0  0  0
  186.2960  177.1470  136.2870 O   0  0  0  0  0  0  0  0  0  0  0  0
  188.2740  177.1150  137.8610 C   0  0  2  0  0  3  0  0  0  0  0  0
  191.4820  176.4290  138.8780 C   0  0  0  0  0  3  0  0  0  0  0  0
  190.0520  177.3610  140.8560 C   0  0  0  0  0  0  0  0  0  0  0  0
  188.9010  176.4320  136.6260 C   0  0  2  0  0  3  0  0  0  0  0  0
  190.7760  176.8970  139.8680 C   0  0  0  0  0  0  0  0  0  0  0  0
  190.4190  176.2720  136.6830 C   0  0  0  0  0  2  0  0  0  0  0  0
  188.5060  177.1300  135.3200 C   0  0  0  0  0  2  0  0  0  0  0  0
  188.6520  178.9340  139.5060 N   0  0  0  0  0  0  0  0  0  0  0  0
  190.8580  175.4880  137.9100 C   0  0  1  0  0  3  0  0  0  0  0  0
  187.1810  177.8780  135.4710 C   0  0  0  0  0  2  0  0  0  0  0  0
  189.0870  178.4720  140.6450 C   0  0  0  0  0  3  0  0  0  0  0  0
  191.5640  176.8380  142.8000 C   0  0  0  0  0  1  0  0  0  0  0  0
  190.2450  176.8400  142.1880 N   0  0  0  0  0  0  0  0  0  0  0  0
  189.0950  176.7880  144.3470 C   0  0  0  0  0  1  0  0  0  0  0  0
  189.1630  176.2120  142.9440 C   0  0  0  0  0  2  0  0  0  0  0  0
  191.8730  174.4280  137.5240 C   0  0  0  0  0  2  0  0  0  0  0  0
  193.2720  175.0150  137.5020 C   0  0  0  0  0  1  0  0  0  0  0  0
  185.6560  179.3410  137.8140 O   0  0  0  0  0  0  0  0  0  0  0  0
  186.0020  178.2810  138.4000 C   0  0  0  0  0  0  0  0  0  0  0  0
  185.7000  178.0690  139.7470 O   0  0  0  0  0  0  0  0  0  0  0  0
  183.2070  177.4270  140.3520 O   0  0  0  0  0  1  0  0  0  0  0  0
  184.2070  178.5560  140.4490 P   0  0  2  0  0  0  0  0  0  0  0  0
  183.6120  179.9070  139.6250 O   0  0  0  0  0  0  0  0  0  0  0  0
  183.1350  178.9950  142.9380 C   0  0  0  0  0  2  0  0  0  0  0  0
  184.4770  178.9770  142.1930 C   0  0  0  0  0  3  0  0  0  0  0  0
  183.2610  178.6930  144.4360 C   0  0  0  0  0  2  0  0  0  0  0  0
  185.7560  178.3510  144.2800 C   0  0  0  0  0  2  0  0  0  0  0  0
  185.4440  177.9810  142.8240 C   0  0  0  0  0  2  0  0  0  0  0  0
  184.6220  179.1120  144.9790 C   0  0  0  0  0  2  0  0  0  0  0  0
  1  4  1  0  0  0  0
  1 22  1  6  0  0  0
  2 11  1  0  0  0  0
  3  1  1  0  0  0  0
  4  2  1  6  0  0  0
  5  8  2  0  0  0  0
  6 16  1  0  0  0  0
  7 10  1  6  0  0  0
  7  9  1  0  0  0  0
  7  4  1  0  0  0  0
  8  6  2  0  0  0  0
  9 12  1  0  0  0  0
 10 13  1  0  0  0  0
 11 14  2  0  0  0  0
 12 19  1  6  0  0  0
 12  5  1  0  0  0  0
 13  3  1  0  0  0  0
 14  6  1  0  0  0  0
 16 15  1  0  0  0  0
 16 18  1  0  0  0  0
 18 17  1  0  0  0  0
 20 19  1  0  0  0  0
 21 22  2  0  0  0  0
 22 23  1  0  0  0  0
 23 25  1  0  0  0  0
 24 25  1  0  0  0  0
 25 26  2  6  0  0  0
 25 28  1  0  0  0  0
 27 29  1  0  0  0  0
 28 31  1  0  0  0  0
 28 27  1  0  0  0  0
 29 32  1  0  0  0  0
 30 32  1  0  0  0  0
 31 30  1  0  0  0  0
M  END
>  <MODEL>
8

>  <REMARK>
 VINA RESULT:      -7.5      2.827      6.918
  Name = 
  7 active torsions:
  status: ('A' for Active; 'I' for Inactive)
    1  A    between atoms: C_1  and  C_27
    2  A    between atoms: C_7  and  P_22
    3  A    between atoms: C_10  and  N_12
    4  A    between atoms: N_12  and  C_31
    5  A    between atoms: C_13  and  C_29
    6  A    between atoms: O_16  and  P_22
    7  A    between atoms: O_16  and  C_27
                            x       y       z     vdW  Elec       q    Type
                         _______ _______ _______ _____ _____    ______ ____

>  <TORSDO>
F 7

$$$$
=
 OpenBabel10262421053D

 32 34  0  0  1  0  0  0  0  0999 V2000
  189.7350  176.3460  141.9950 C   0  0  1  0  0  3  0  0  0  0  0  0
  188.7840  178.7010  142.5840 C   0  0  0  0  0  2  0  0  0  0  0  0
  190.9210  175.9050  142.6350 O   0  0  0  0  0  0  0  0  0  0  0  0
  188.7570  177.1890  142.8720 C   0  0  2  0  0  3  0  0  0  0  0  0
  186.1090  178.6270  144.5200 C   0  0  0  0  0  3  0  0  0  0  0  0
  185.7540  178.7050  141.9330 C   0  0  0  0  0  0  0  0  0  0  0  0
  189.0640  176.9030  144.3570 C   0  0  2  0  0  3  0  0  0  0  0  0
  185.9280  178.6730  143.2310 C   0  0  0  0  0  0  0  0  0  0  0  0
  188.2030  177.6780  145.3520 C   0  0  0  0  0  2  0  0  0  0  0  0
  190.5460  177.1130  144.6890 C   0  0  0  0  0  2  0  0  0  0  0  0
  188.1560  179.0170  141.3040 N   0  0  0  0  0  0  0  0  0  0  0  0
  186.7200  177.4190  145.1350 C   0  0  1  0  0  3  0  0  0  0  0  0
  191.4210  176.9410  143.4460 C   0  0  0  0  0  2  0  0  0  0  0  0
  186.8840  179.0050  141.0150 C   0  0  0  0  0  3  0  0  0  0  0  0
  183.2580  178.5930  142.2400 C   0  0  0  0  0  1  0  0  0  0  0  0
  184.4320  178.5190  141.3850 N   0  0  0  0  0  0  0  0  0  0  0  0
  183.6530  179.3470  139.2190 C   0  0  0  0  0  1  0  0  0  0  0  0
  184.2110  178.1610  139.9860 C   0  0  0  0  0  2  0  0  0  0  0  0
  186.0330  177.1350  146.4580 C   0  0  0  0  0  2  0  0  0  0  0  0
  185.3110  178.3730  146.9570 C   0  0  0  0  0  1  0  0  0  0  0  0
  191.0960  177.3790  140.3360 O   0  0  0  0  0  0  0  0  0  0  0  0
  189.9950  176.8270  140.6030 C   0  0  0  0  0  0  0  0  0  0  0  0
  189.0230  176.6430  139.6170 O   0  0  0  0  0  0  0  0  0  0  0  0
  190.4550  176.9290  137.4140 O   0  0  0  0  0  0  0  0  0  0  0  0
  189.1480  177.3410  138.0510 P   0  0  2  0  0  0  0  0  0  0  0  0
  189.0910  179.0260  138.1780 O   0  0  0  0  0  1  0  0  0  0  0  0
  187.6030  175.2420  137.1850 C   0  0  0  0  0  2  0  0  0  0  0  0
  187.7670  176.7600  137.0270 C   0  0  0  0  0  3  0  0  0  0  0  0
  186.1740  174.7500  136.9320 C   0  0  0  0  0  2  0  0  0  0  0  0
  185.3130  177.0850  136.5170 C   0  0  0  0  0  2  0  0  0  0  0  0
  186.4880  177.4950  137.4150 C   0  0  0  0  0  2  0  0  0  0  0  0
  185.4320  175.6600  135.9620 C   0  0  0  0  0  2  0  0  0  0  0  0
  1 22  1  6  0  0  0
  1  3  1  0  0  0  0
  1  4  1  0  0  0  0
  3 13  1  0  0  0  0
  4  2  1  1  0  0  0
  4  7  1  0  0  0  0
  5 12  1  0  0  0  0
  6  8  2  0  0  0  0
  7 10  1  1  0  0  0
  7  9  1  0  0  0  0
  8  5  2  0  0  0  0
 11  2  1  0  0  0  0
 12  9  1  0  0  0  0
 12 19  1  1  0  0  0
 13 10  1  0  0  0  0
 14 11  2  0  0  0  0
 14  6  1  0  0  0  0
 16  6  1  0  0  0  0
 16 15  1  0  0  0  0
 17 18  1  0  0  0  0
 18 16  1  0  0  0  0
 19 20  1  0  0  0  0
 21 22  2  0  0  0  0
 23 22  1  0  0  0  0
 25 24  2  6  0  0  0
 25 26  1  0  0  0  0
 25 23  1  0  0  0  0
 28 27  1  0  0  0  0
 28 31  1  0  0  0  0
 28 25  1  0  0  0  0
 29 27  1  0  0  0  0
 30 31  1  0  0  0  0
 32 30  1  0  0  0  0
 32 29  1  0  0  0  0
M  END
>  <MODEL>
9

>  <REMARK>
 VINA RESULT:      -7.5      3.023      5.333
  Name = 
  7 active torsions:
  status: ('A' for Active; 'I' for Inactive)
    1  A    between atoms: C_1  and  C_27
    2  A    between atoms: C_7  and  P_22
    3  A    between atoms: C_10  and  N_12
    4  A    between atoms: N_12  and  C_31
    5  A    between atoms: C_13  and  C_29
    6  A    between atoms: O_16  and  P_22
    7  A    between atoms: O_16  and  C_27
                            x       y       z     vdW  Elec       q    Type
                         _______ _______ _______ _____ _____    ______ ____

>  <TORSDO>
F 7

$$$$
