=
 OpenBabel10262419553D

 25 27  0  0  1  0  0  0  0  0999 V2000
  184.5300  178.0860  143.0040 N   0  0  0  0  0  0  0  0  0  0  0  0
  185.5640  178.0680  143.9940 C   0  0  0  0  0  0  0  0  0  0  0  0
  183.1200  179.4780  144.4150 C   0  0  0  0  0  2  0  0  0  0  0  0
  184.7230  178.1530  141.5660 C   0  0  1  0  0  3  0  0  0  0  0  0
  184.0170  179.1750  145.4920 O   0  0  0  0  0  0  0  0  0  0  0  0
  183.3710  178.3090  140.9930 N   0  0  0  0  0  0  0  0  0  0  0  0
  186.2600  178.5550  146.2550 C   0  0  0  0  0  0  0  0  0  0  0  0
  185.9940  179.0930  147.6170 C   0  0  0  0  0  1  0  0  0  0  0  0
  186.7910  177.5450  143.7280 N   0  0  0  0  0  0  0  0  0  0  0  0
  183.1560  178.3640  143.3700 C   0  0  1  0  0  3  0  0  0  0  0  0
  182.4990  178.7910  142.0710 C   0  0  0  0  0  2  0  0  0  0  0  0
  187.5110  178.0070  145.9630 C   0  0  0  0  0  3  0  0  0  0  0  0
  187.7650  177.5120  144.6780 C   0  0  0  0  0  0  0  0  0  0  0  0
  185.2790  178.6030  145.2570 C   0  0  0  0  0  0  0  0  0  0  0  0
  183.4400  178.2490  138.4770 C   0  0  0  0  0  1  0  0  0  0  0  0
  183.2710  179.0840  139.7440 C   0  0  0  0  0  2  0  0  0  0  0  0
  186.8150  178.7610  140.5000 O   0  0  0  0  0  1  0  0  0  0  0  0
  185.7150  179.2710  141.1940 C   0  0  0  0  0  2  0  0  0  0  0  0
  189.0890  176.9120  144.3630 C   0  0  0  0  0  2  0  0  0  0  0  0
  190.1990  177.7700  144.9470 C   0  0  0  0  0  2  0  0  0  0  0  0
  191.4280  176.9240  145.2370 C   0  0  2  0  0  3  0  0  0  0  0  0
  191.6340  175.6870  143.9160 S   0  0  0  0  0  1  0  0  0  0  0  0
  191.3320  176.2740  146.6180 C   0  0  2  0  0  3  0  0  0  0  0  0
  190.6450  177.1970  147.6060 C   0  0  0  0  0  1  0  0  0  0  0  0
  192.5950  175.9180  147.0970 O   0  0  0  0  0  1  0  0  0  0  0  0
  1 10  1  0  0  0  0
  1  2  1  0  0  0  0
  2 14  1  0  0  0  0
  3  5  1  0  0  0  0
  4 18  1  1  0  0  0
  4  1  1  0  0  0  0
  6  4  1  0  0  0  0
  6 11  1  0  0  0  0
  7  8  1  0  0  0  0
  9  2  2  0  0  0  0
  9 13  1  0  0  0  0
 10 11  1  6  0  0  0
 10  3  1  0  0  0  0
 12  7  1  0  0  0  0
 13 12  2  0  0  0  0
 14  5  1  0  0  0  0
 14  7  2  0  0  0  0
 15 16  1  0  0  0  0
 16  6  1  0  0  0  0
 17 18  1  0  0  0  0
 19 13  1  0  0  0  0
 19 20  1  0  0  0  0
 20 21  1  0  0  0  0
 21 22  1  6  0  0  0
 21 23  1  0  0  0  0
 23 25  1  0  0  0  0
 23 24  1  1  0  0  0
M  END
>  <MODEL>
1

>  <REMARK>
 VINA RESULT:      -7.4      0.000      0.000
  Name = 
  6 active torsions:
  status: ('A' for Active; 'I' for Inactive)
    1  A    between atoms: C_2  and  C_21
    2  A    between atoms: C_5  and  C_22
    3  A    between atoms: C_6  and  C_15
    4  A    between atoms: C_6  and  C_23
    5  A    between atoms: N_10  and  C_11
    6  A    between atoms: C_15  and  C_21
                            x       y       z     vdW  Elec       q    Type
                         _______ _______ _______ _____ _____    ______ ____

>  <TORSDO>
F 6

$$$$
=
 OpenBabel10262419553D

 25 27  0  0  1  0  0  0  0  0999 V2000
  184.1090  178.1550  142.7570 N   0  0  0  0  0  0  0  0  0  0  0  0
  185.2440  178.0690  143.6250 C   0  0  0  0  0  0  0  0  0  0  0  0
  182.9370  179.5880  144.3350 C   0  0  0  0  0  2  0  0  0  0  0  0
  184.1440  178.2380  141.3070 C   0  0  1  0  0  3  0  0  0  0  0  0
  183.9320  179.2230  145.3000 O   0  0  0  0  0  0  0  0  0  0  0  0
  182.7460  178.4690  140.8920 N   0  0  0  0  0  0  0  0  0  0  0  0
  186.2120  178.4810  145.7990 C   0  0  0  0  0  0  0  0  0  0  0  0
  186.1270  179.0070  147.1880 C   0  0  0  0  0  1  0  0  0  0  0  0
  186.4070  177.4920  143.2160 N   0  0  0  0  0  0  0  0  0  0  0  0
  182.8000  178.4930  143.2790 C   0  0  1  0  0  3  0  0  0  0  0  0
  182.0250  178.9740  142.0670 C   0  0  0  0  0  2  0  0  0  0  0  0
  187.3930  177.8780  145.3620 C   0  0  0  0  0  3  0  0  0  0  0  0
  187.4780  177.3940  144.0500 C   0  0  0  0  0  0  0  0  0  0  0  0
  185.1290  178.5950  144.9180 C   0  0  0  0  0  0  0  0  0  0  0  0
  182.4650  178.4440  138.3900 C   0  0  0  0  0  1  0  0  0  0  0  0
  182.5460  179.2710  139.6710 C   0  0  0  0  0  2  0  0  0  0  0  0
  186.0220  178.8030  139.8810 O   0  0  0  0  0  1  0  0  0  0  0  0
  185.1430  179.3130  140.8400 C   0  0  0  0  0  2  0  0  0  0  0  0
  188.7260  176.7370  143.5820 C   0  0  0  0  0  2  0  0  0  0  0  0
  188.8810  176.9270  142.0820 C   0  0  0  0  0  2  0  0  0  0  0  0
  190.3080  176.6250  141.6530 C   0  0  2  0  0  3  0  0  0  0  0  0
  191.4680  177.4440  142.7940 S   0  0  0  0  0  1  0  0  0  0  0  0
  190.5440  177.0440  140.2010 C   0  0  2  0  0  3  0  0  0  0  0  0
  189.4030  177.9050  139.6940 C   0  0  0  0  0  1  0  0  0  0  0  0
  190.7030  175.9300  139.3740 O   0  0  0  0  0  1  0  0  0  0  0  0
  1 10  1  0  0  0  0
  1  2  1  0  0  0  0
  2 14  1  0  0  0  0
  3  5  1  0  0  0  0
  4 18  1  1  0  0  0
  4  1  1  0  0  0  0
  6  4  1  0  0  0  0
  6 11  1  0  0  0  0
  7  8  1  0  0  0  0
  9  2  2  0  0  0  0
  9 13  1  0  0  0  0
 10 11  1  6  0  0  0
 10  3  1  0  0  0  0
 12  7  1  0  0  0  0
 13 12  2  0  0  0  0
 14  5  1  0  0  0  0
 14  7  2  0  0  0  0
 15 16  1  0  0  0  0
 16  6  1  0  0  0  0
 17 18  1  0  0  0  0
 19 13  1  0  0  0  0
 20 19  1  0  0  0  0
 21 20  1  0  0  0  0
 21 22  1  1  0  0  0
 23 24  1  6  0  0  0
 23 21  1  0  0  0  0
 25 23  1  0  0  0  0
M  END
>  <MODEL>
2

>  <REMARK>
 VINA RESULT:      -7.3      2.214      2.877
  Name = 
  6 active torsions:
  status: ('A' for Active; 'I' for Inactive)
    1  A    between atoms: C_2  and  C_21
    2  A    between atoms: C_5  and  C_22
    3  A    between atoms: C_6  and  C_15
    4  A    between atoms: C_6  and  C_23
    5  A    between atoms: N_10  and  C_11
    6  A    between atoms: C_15  and  C_21
                            x       y       z     vdW  Elec       q    Type
                         _______ _______ _______ _____ _____    ______ ____

>  <TORSDO>
F 6

$$$$
=
 OpenBabel10262419553D

 25 27  0  0  1  0  0  0  0  0999 V2000
  189.7600  176.8070  143.1060 N   0  0  0  0  0  0  0  0  0  0  0  0
  188.9020  177.4310  142.1460 C   0  0  0  0  0  0  0  0  0  0  0  0
  191.6890  177.0840  141.6510 C   0  0  0  0  0  2  0  0  0  0  0  0
  189.6830  176.9570  144.5490 C   0  0  1  0  0  3  0  0  0  0  0  0
  190.7650  177.4000  140.6010 O   0  0  0  0  0  0  0  0  0  0  0  0
  190.8670  176.2550  145.0830 N   0  0  0  0  0  0  0  0  0  0  0  0
  188.5860  178.2720  139.9040 C   0  0  0  0  0  0  0  0  0  0  0  0
  189.0890  178.5600  138.5340 C   0  0  0  0  0  1  0  0  0  0  0  0
  187.6150  177.7530  142.4490 N   0  0  0  0  0  0  0  0  0  0  0  0
  191.0140  176.2030  142.7010 C   0  0  1  0  0  3  0  0  0  0  0  0
  191.8270  176.1280  143.9790 C   0  0  0  0  0  2  0  0  0  0  0  0
  187.2660  178.5870  140.2340 C   0  0  0  0  0  3  0  0  0  0  0  0
  186.7960  178.3280  141.5270 C   0  0  0  0  0  0  0  0  0  0  0  0
  189.4210  177.7030  140.8740 C   0  0  0  0  0  0  0  0  0  0  0  0
  192.1720  175.7540  147.1770 C   0  0  0  0  0  1  0  0  0  0  0  0
  191.4470  176.7940  146.3260 C   0  0  0  0  0  2  0  0  0  0  0  0
  190.5390  179.2100  144.2840 O   0  0  0  0  0  1  0  0  0  0  0  0
  189.5780  178.4410  144.9460 C   0  0  0  0  0  2  0  0  0  0  0  0
  185.3870  178.6450  141.8810 C   0  0  0  0  0  2  0  0  0  0  0  0
  185.3400  179.3810  143.2090 C   0  0  0  0  0  2  0  0  0  0  0  0
  184.6430  178.5340  144.2620 C   0  0  2  0  0  3  0  0  0  0  0  0
  182.8650  178.9350  144.2780 S   0  0  0  0  0  1  0  0  0  0  0  0
  185.2840  178.7300  145.6360 C   0  0  2  0  0  3  0  0  0  0  0  0
  186.2720  177.6190  145.9360 C   0  0  0  0  0  1  0  0  0  0  0  0
  184.3160  178.7910  146.6410 O   0  0  0  0  0  1  0  0  0  0  0  0
  1  4  1  0  0  0  0
  2  9  1  0  0  0  0
  2  1  1  0  0  0  0
  4 18  1  6  0  0  0
  4  6  1  0  0  0  0
  5 14  1  0  0  0  0
  5  3  1  0  0  0  0
  6 16  1  0  0  0  0
  7 12  2  0  0  0  0
  7 14  1  0  0  0  0
  8  7  1  0  0  0  0
 10  3  1  6  0  0  0
 10  1  1  0  0  0  0
 10 11  1  0  0  0  0
 11  6  1  0  0  0  0
 12 13  1  0  0  0  0
 13 19  1  0  0  0  0
 13  9  2  0  0  0  0
 14  2  2  0  0  0  0
 16 15  1  0  0  0  0
 17 18  1  0  0  0  0
 19 20  1  0  0  0  0
 20 21  1  0  0  0  0
 21 22  1  1  0  0  0
 21 23  1  0  0  0  0
 23 24  1  1  0  0  0
 23 25  1  0  0  0  0
M  END
>  <MODEL>
3

>  <REMARK>
 VINA RESULT:      -7.3      3.139      7.392
  Name = 
  6 active torsions:
  status: ('A' for Active; 'I' for Inactive)
    1  A    between atoms: C_2  and  C_21
    2  A    between atoms: C_5  and  C_22
    3  A    between atoms: C_6  and  C_15
    4  A    between atoms: C_6  and  C_23
    5  A    between atoms: N_10  and  C_11
    6  A    between atoms: C_15  and  C_21
                            x       y       z     vdW  Elec       q    Type
                         _______ _______ _______ _____ _____    ______ ____

>  <TORSDO>
F 6

$$$$
=
 OpenBabel10262419553D

 25 27  0  0  1  0  0  0  0  0999 V2000
  189.3650  178.1550  144.0770 N   0  0  0  0  0  0  0  0  0  0  0  0
  188.3630  178.1360  145.0990 C   0  0  0  0  0  0  0  0  0  0  0  0
  191.0110  177.1970  145.5900 C   0  0  0  0  0  2  0  0  0  0  0  0
  189.1560  177.8740  142.6680 C   0  0  1  0  0  3  0  0  0  0  0  0
  190.0990  177.4900  146.6570 O   0  0  0  0  0  0  0  0  0  0  0  0
  190.5030  177.8620  142.0630 N   0  0  0  0  0  0  0  0  0  0  0  0
  187.8020  177.8400  147.4290 C   0  0  0  0  0  0  0  0  0  0  0  0
  188.1790  177.5290  148.8350 C   0  0  0  0  0  1  0  0  0  0  0  0
  187.0620  178.4190  144.8210 N   0  0  0  0  0  0  0  0  0  0  0  0
  190.7740  178.1480  144.4180 C   0  0  1  0  0  3  0  0  0  0  0  0
  191.4640  177.6670  143.1560 C   0  0  0  0  0  2  0  0  0  0  0  0
  186.4730  178.1400  147.1230 C   0  0  0  0  0  3  0  0  0  0  0  0
  186.1150  178.4190  145.7980 C   0  0  0  0  0  0  0  0  0  0  0  0
  188.7570  177.8190  146.4060 C   0  0  0  0  0  0  0  0  0  0  0  0
  190.2720  177.5500  139.5760 C   0  0  0  0  0  1  0  0  0  0  0  0
  190.7030  176.9590  140.9160 C   0  0  0  0  0  2  0  0  0  0  0  0
  188.8970  175.5280  143.2250 O   0  0  0  0  0  1  0  0  0  0  0  0
  188.3510  176.5740  142.4770 C   0  0  0  0  0  2  0  0  0  0  0  0
  184.7050  178.7560  145.4670 C   0  0  0  0  0  2  0  0  0  0  0  0
  184.6470  179.4900  144.1380 C   0  0  0  0  0  2  0  0  0  0  0  0
  183.9690  178.6290  143.0850 C   0  0  2  0  0  3  0  0  0  0  0  0
  184.9910  178.6030  141.5770 S   0  0  0  0  0  1  0  0  0  0  0  0
  182.5490  179.1230  142.8030 C   0  0  2  0  0  3  0  0  0  0  0  0
  181.5980  178.6920  143.9030 C   0  0  0  0  0  1  0  0  0  0  0  0
  182.0900  178.6600  141.5680 O   0  0  0  0  0  1  0  0  0  0  0  0
  1 10  1  0  0  0  0
  1  2  1  0  0  0  0
  2 14  1  0  0  0  0
  3  5  1  0  0  0  0
  4 18  1  1  0  0  0
  4  1  1  0  0  0  0
  6  4  1  0  0  0  0
  6 11  1  0  0  0  0
  7  8  1  0  0  0  0
  9  2  2  0  0  0  0
  9 13  1  0  0  0  0
 10 11  1  6  0  0  0
 10  3  1  0  0  0  0
 12  7  1  0  0  0  0
 13 12  2  0  0  0  0
 14  5  1  0  0  0  0
 14  7  2  0  0  0  0
 15 16  1  0  0  0  0
 16  6  1  0  0  0  0
 18 17  1  0  0  0  0
 19 13  1  0  0  0  0
 20 19  1  0  0  0  0
 21 22  1  6  0  0  0
 21 20  1  0  0  0  0
 23 21  1  0  0  0  0
 23 24  1  1  0  0  0
 25 23  1  0  0  0  0
M  END
>  <MODEL>
4

>  <REMARK>
 VINA RESULT:      -7.2      2.899      6.537
  Name = 
  6 active torsions:
  status: ('A' for Active; 'I' for Inactive)
    1  A    between atoms: C_2  and  C_21
    2  A    between atoms: C_5  and  C_22
    3  A    between atoms: C_6  and  C_15
    4  A    between atoms: C_6  and  C_23
    5  A    between atoms: N_10  and  C_11
    6  A    between atoms: C_15  and  C_21
                            x       y       z     vdW  Elec       q    Type
                         _______ _______ _______ _____ _____    ______ ____

>  <TORSDO>
F 6

$$$$
=
 OpenBabel10262419553D

 25 27  0  0  1  0  0  0  0  0999 V2000
  189.4970  176.8960  139.9770 N   0  0  0  0  0  0  0  0  0  0  0  0
  188.6000  177.2980  141.0170 C   0  0  0  0  0  0  0  0  0  0  0  0
  188.4520  178.4270  138.4020 C   0  0  0  0  0  2  0  0  0  0  0  0
  190.9060  176.5790  140.1370 C   0  0  1  0  0  3  0  0  0  0  0  0
  187.3850  178.5640  139.3500 O   0  0  0  0  0  0  0  0  0  0  0  0
  191.4240  176.3820  138.7680 N   0  0  0  0  0  0  0  0  0  0  0  0
  186.6050  178.4940  141.6690 C   0  0  0  0  0  0  0  0  0  0  0  0
  185.4340  179.3550  141.3490 C   0  0  0  0  0  1  0  0  0  0  0  0
  188.7780  176.8930  142.3040 N   0  0  0  0  0  0  0  0  0  0  0  0
  189.1470  177.0780  138.5830 C   0  0  1  0  0  3  0  0  0  0  0  0
  190.4760  177.0270  137.8520 C   0  0  0  0  0  2  0  0  0  0  0  0
  186.8030  178.0600  142.9820 C   0  0  0  0  0  3  0  0  0  0  0  0
  187.9120  177.2610  143.2860 C   0  0  0  0  0  0  0  0  0  0  0  0
  187.5220  178.1250  140.6770 C   0  0  0  0  0  0  0  0  0  0  0  0
  193.3750  176.3150  137.1790 C   0  0  0  0  0  1  0  0  0  0  0  0
  192.8310  176.7520  138.5370 C   0  0  0  0  0  2  0  0  0  0  0  0
  192.0770  177.1710  142.1760 O   0  0  0  0  0  1  0  0  0  0  0  0
  191.6280  177.6690  140.9500 C   0  0  0  0  0  2  0  0  0  0  0  0
  188.1200  176.7810  144.6780 C   0  0  0  0  0  2  0  0  0  0  0  0
  189.1760  177.6290  145.3660 C   0  0  0  0  0  2  0  0  0  0  0  0
  189.5790  177.0030  146.6920 C   0  0  2  0  0  3  0  0  0  0  0  0
  188.9420  178.0250  148.0590 S   0  0  0  0  0  1  0  0  0  0  0  0
  191.0950  176.8210  146.7740 C   0  0  2  0  0  3  0  0  0  0  0  0
  191.6840  176.5490  145.4030 C   0  0  0  0  0  1  0  0  0  0  0  0
  191.4330  175.7880  147.6510 O   0  0  0  0  0  1  0  0  0  0  0  0
  1  4  1  0  0  0  0
  1  2  1  0  0  0  0
  2  9  1  0  0  0  0
  3 10  1  0  0  0  0
  3  5  1  0  0  0  0
  4 18  1  6  0  0  0
  5 14  1  0  0  0  0
  6  4  1  0  0  0  0
  7 12  2  0  0  0  0
  8  7  1  0  0  0  0
  9 13  2  0  0  0  0
 10 11  1  6  0  0  0
 10  1  1  0  0  0  0
 11  6  1  0  0  0  0
 12 13  1  0  0  0  0
 13 19  1  0  0  0  0
 14  2  2  0  0  0  0
 14  7  1  0  0  0  0
 15 16  1  0  0  0  0
 16  6  1  0  0  0  0
 18 17  1  0  0  0  0
 19 20  1  0  0  0  0
 20 21  1  0  0  0  0
 21 23  1  0  0  0  0
 21 22  1  1  0  0  0
 23 24  1  6  0  0  0
 23 25  1  0  0  0  0
M  END
>  <MODEL>
5

>  <REMARK>
 VINA RESULT:      -7.1      3.979      5.846
  Name = 
  6 active torsions:
  status: ('A' for Active; 'I' for Inactive)
    1  A    between atoms: C_2  and  C_21
    2  A    between atoms: C_5  and  C_22
    3  A    between atoms: C_6  and  C_15
    4  A    between atoms: C_6  and  C_23
    5  A    between atoms: N_10  and  C_11
    6  A    between atoms: C_15  and  C_21
                            x       y       z     vdW  Elec       q    Type
                         _______ _______ _______ _____ _____    ______ ____

>  <TORSDO>
F 6

$$$$
=
 OpenBabel10262419553D

 25 27  0  0  1  0  0  0  0  0999 V2000
  189.1090  177.8110  144.9190 N   0  0  0  0  0  0  0  0  0  0  0  0
  187.9690  177.9790  144.0710 C   0  0  0  0  0  0  0  0  0  0  0  0
  187.6870  177.4050  146.8500 C   0  0  0  0  0  2  0  0  0  0  0  0
  190.3570  177.1610  144.5570 C   0  0  1  0  0  3  0  0  0  0  0  0
  186.5940  177.8920  146.0610 O   0  0  0  0  0  0  0  0  0  0  0  0
  191.1450  177.0970  145.8040 N   0  0  0  0  0  0  0  0  0  0  0  0
  185.5780  178.2520  143.8630 C   0  0  0  0  0  0  0  0  0  0  0  0
  184.2170  178.3440  144.4570 C   0  0  0  0  0  1  0  0  0  0  0  0
  188.0980  178.0810  142.7200 N   0  0  0  0  0  0  0  0  0  0  0  0
  189.0030  178.0000  146.3520 C   0  0  1  0  0  3  0  0  0  0  0  0
  190.2030  177.2640  146.9190 C   0  0  0  0  0  2  0  0  0  0  0  0
  185.7340  178.3600  142.4790 C   0  0  0  0  0  3  0  0  0  0  0  0
  187.0140  178.2600  141.9180 C   0  0  0  0  0  0  0  0  0  0  0  0
  186.7030  178.0410  144.6690 C   0  0  0  0  0  0  0  0  0  0  0  0
  192.4240  175.6270  147.3970 C   0  0  0  0  0  1  0  0  0  0  0  0
  192.0540  175.9470  145.9510 C   0  0  0  0  0  2  0  0  0  0  0  0
  190.5560  175.7870  142.5690 O   0  0  0  0  0  1  0  0  0  0  0  0
  190.0960  175.7990  143.8880 C   0  0  0  0  0  2  0  0  0  0  0  0
  187.1910  178.3910  140.4480 C   0  0  0  0  0  2  0  0  0  0  0  0
  188.6690  178.3450  140.0980 C   0  0  0  0  0  2  0  0  0  0  0  0
  188.9050  177.4250  138.9110 C   0  0  2  0  0  3  0  0  0  0  0  0
  190.5840  176.7280  139.0110 S   0  0  0  0  0  1  0  0  0  0  0  0
  188.6710  178.1630  137.5910 C   0  0  2  0  0  3  0  0  0  0  0  0
  189.4210  177.4930  136.4560 C   0  0  0  0  0  1  0  0  0  0  0  0
  189.0530  179.5030  137.6880 O   0  0  0  0  0  1  0  0  0  0  0  0
  1 10  1  0  0  0  0
  2 14  1  0  0  0  0
  2  1  1  0  0  0  0
  4 18  1  1  0  0  0
  4  1  1  0  0  0  0
  4  6  1  0  0  0  0
  5  3  1  0  0  0  0
  6 16  1  0  0  0  0
  6 11  1  0  0  0  0
  7  8  1  0  0  0  0
  7 14  2  0  0  0  0
  9  2  2  0  0  0  0
 10  3  1  1  0  0  0
 10 11  1  0  0  0  0
 12  7  1  0  0  0  0
 13 12  2  0  0  0  0
 13  9  1  0  0  0  0
 14  5  1  0  0  0  0
 16 15  1  0  0  0  0
 17 18  1  0  0  0  0
 19 13  1  0  0  0  0
 20 19  1  0  0  0  0
 21 22  1  6  0  0  0
 21 20  1  0  0  0  0
 23 24  1  6  0  0  0
 23 25  1  0  0  0  0
 23 21  1  0  0  0  0
M  END
>  <MODEL>
6

>  <REMARK>
 VINA RESULT:      -7.0      2.975      6.887
  Name = 
  6 active torsions:
  status: ('A' for Active; 'I' for Inactive)
    1  A    between atoms: C_2  and  C_21
    2  A    between atoms: C_5  and  C_22
    3  A    between atoms: C_6  and  C_15
    4  A    between atoms: C_6  and  C_23
    5  A    between atoms: N_10  and  C_11
    6  A    between atoms: C_15  and  C_21
                            x       y       z     vdW  Elec       q    Type
                         _______ _______ _______ _____ _____    ______ ____

>  <TORSDO>
F 6

$$$$
=
 OpenBabel10262419553D

 25 27  0  0  1  0  0  0  0  0999 V2000
  186.4810  177.6130  144.2490 N   0  0  0  0  0  0  0  0  0  0  0  0
  187.8530  177.4230  143.8900 C   0  0  0  0  0  0  0  0  0  0  0  0
  187.0980  178.2310  146.5190 C   0  0  0  0  0  2  0  0  0  0  0  0
  185.4460  178.1810  143.4030 C   0  0  1  0  0  3  0  0  0  0  0  0
  188.4080  177.7260  146.2270 O   0  0  0  0  0  0  0  0  0  0  0  0
  184.2570  178.3130  144.2690 N   0  0  0  0  0  0  0  0  0  0  0  0
  190.1570  177.2310  144.5870 C   0  0  0  0  0  0  0  0  0  0  0  0
  191.2100  177.2420  145.6400 C   0  0  0  0  0  1  0  0  0  0  0  0
  188.2250  177.2080  142.6000 N   0  0  0  0  0  0  0  0  0  0  0  0
  186.0590  177.5450  145.6340 C   0  0  1  0  0  3  0  0  0  0  0  0
  184.7290  178.2750  145.6590 C   0  0  0  0  0  2  0  0  0  0  0  0
  190.5170  177.0050  143.2570 C   0  0  0  0  0  3  0  0  0  0  0  0
  189.5290  177.0080  142.2640 C   0  0  0  0  0  0  0  0  0  0  0  0
  188.8140  177.4600  144.9090 C   0  0  0  0  0  0  0  0  0  0  0  0
  181.9310  179.0050  143.5980 C   0  0  0  0  0  1  0  0  0  0  0  0
  183.3470  179.4350  143.9730 C   0  0  0  0  0  2  0  0  0  0  0  0
  185.7370  179.4700  141.3690 O   0  0  0  0  0  1  0  0  0  0  0  0
  185.9210  179.4940  142.7540 C   0  0  0  0  0  2  0  0  0  0  0  0
  189.9010  176.7510  140.8480 C   0  0  0  0  0  2  0  0  0  0  0  0
  189.1580  177.7120  139.9350 C   0  0  0  0  0  2  0  0  0  0  0  0
  188.6870  176.9950  138.6800 C   0  0  2  0  0  3  0  0  0  0  0  0
  190.0890  176.1030  137.9320 S   0  0  0  0  0  1  0  0  0  0  0  0
  188.0460  177.9760  137.6970 C   0  0  2  0  0  3  0  0  0  0  0  0
  189.0550  179.0010  137.2170 C   0  0  0  0  0  1  0  0  0  0  0  0
  186.9480  178.6210  138.2710 O   0  0  0  0  0  1  0  0  0  0  0  0
  1 10  1  0  0  0  0
  2  1  1  0  0  0  0
  2 14  1  0  0  0  0
  4 18  1  1  0  0  0
  4  1  1  0  0  0  0
  4  6  1  0  0  0  0
  5  3  1  0  0  0  0
  6 11  1  0  0  0  0
  7 14  2  0  0  0  0
  7  8  1  0  0  0  0
  9  2  2  0  0  0  0
 10 11  1  6  0  0  0
 10  3  1  0  0  0  0
 12  7  1  0  0  0  0
 13  9  1  0  0  0  0
 13 12  2  0  0  0  0
 14  5  1  0  0  0  0
 15 16  1  0  0  0  0
 16  6  1  0  0  0  0
 17 18  1  0  0  0  0
 19 13  1  0  0  0  0
 20 19  1  0  0  0  0
 21 22  1  6  0  0  0
 21 20  1  0  0  0  0
 23 24  1  1  0  0  0
 23 25  1  0  0  0  0
 23 21  1  0  0  0  0
M  END
>  <MODEL>
7

>  <REMARK>
 VINA RESULT:      -6.9      2.728      5.311
  Name = 
  6 active torsions:
  status: ('A' for Active; 'I' for Inactive)
    1  A    between atoms: C_2  and  C_21
    2  A    between atoms: C_5  and  C_22
    3  A    between atoms: C_6  and  C_15
    4  A    between atoms: C_6  and  C_23
    5  A    between atoms: N_10  and  C_11
    6  A    between atoms: C_15  and  C_21
                            x       y       z     vdW  Elec       q    Type
                         _______ _______ _______ _____ _____    ______ ____

>  <TORSDO>
F 6

$$$$
=
 OpenBabel10262419553D

 25 27  0  0  1  0  0  0  0  0999 V2000
  186.5310  178.5500  145.1690 N   0  0  0  0  0  0  0  0  0  0  0  0
  185.6060  178.6340  144.0800 C   0  0  0  0  0  0  0  0  0  0  0  0
  184.7170  178.3060  146.7710 C   0  0  0  0  0  2  0  0  0  0  0  0
  187.8200  177.8810  145.1470 C   0  0  1  0  0  3  0  0  0  0  0  0
  183.8280  178.7120  145.7220 O   0  0  0  0  0  0  0  0  0  0  0  0
  188.3160  177.9340  146.5370 N   0  0  0  0  0  0  0  0  0  0  0  0
  183.3220  178.8680  143.3320 C   0  0  0  0  0  0  0  0  0  0  0  0
  181.8650  179.0020  143.6030 C   0  0  0  0  0  1  0  0  0  0  0  0
  186.0290  178.6170  142.7870 N   0  0  0  0  0  0  0  0  0  0  0  0
  186.1170  178.8650  146.5220 C   0  0  1  0  0  3  0  0  0  0  0  0
  187.1560  178.1920  147.3990 C   0  0  0  0  0  2  0  0  0  0  0  0
  183.7780  178.8550  142.0120 C   0  0  0  0  0  3  0  0  0  0  0  0
  185.1480  178.7160  141.7550 C   0  0  0  0  0  0  0  0  0  0  0  0
  184.2410  178.7390  144.3800 C   0  0  0  0  0  0  0  0  0  0  0  0
  190.6430  176.9840  146.6740 C   0  0  0  0  0  1  0  0  0  0  0  0
  189.1580  176.8080  146.9800 C   0  0  0  0  0  2  0  0  0  0  0  0
  188.5110  176.3090  143.4350 O   0  0  0  0  0  1  0  0  0  0  0  0
  187.6960  176.4630  144.5600 C   0  0  0  0  0  2  0  0  0  0  0  0
  185.6430  178.7180  140.3530 C   0  0  0  0  0  2  0  0  0  0  0  0
  187.1420  178.4700  140.3330 C   0  0  0  0  0  2  0  0  0  0  0  0
  187.5610  177.8520  139.0090 C   0  0  2  0  0  3  0  0  0  0  0  0
  189.2450  178.4050  138.5900 S   0  0  0  0  0  1  0  0  0  0  0  0
  186.5580  178.1890  137.9050 C   0  0  2  0  0  3  0  0  0  0  0  0
  186.1600  176.9450  137.1350 C   0  0  0  0  0  1  0  0  0  0  0  0
  187.0750  179.1460  137.0290 O   0  0  0  0  0  1  0  0  0  0  0  0
  1 10  1  0  0  0  0
  2 14  1  0  0  0  0
  2  1  1  0  0  0  0
  4 18  1  1  0  0  0
  4  1  1  0  0  0  0
  4  6  1  0  0  0  0
  5  3  1  0  0  0  0
  6 16  1  0  0  0  0
  6 11  1  0  0  0  0
  7  8  1  0  0  0  0
  7 14  2  0  0  0  0
  9  2  2  0  0  0  0
 10  3  1  1  0  0  0
 10 11  1  0  0  0  0
 12  7  1  0  0  0  0
 13 12  2  0  0  0  0
 13  9  1  0  0  0  0
 14  5  1  0  0  0  0
 15 16  1  0  0  0  0
 17 18  1  0  0  0  0
 19 13  1  0  0  0  0
 20 19  1  0  0  0  0
 21 22  1  6  0  0  0
 21 20  1  0  0  0  0
 23 24  1  6  0  0  0
 23 21  1  0  0  0  0
 25 23  1  0  0  0  0
M  END
>  <MODEL>
8

>  <REMARK>
 VINA RESULT:      -6.8      2.367      6.495
  Name = 
  6 active torsions:
  status: ('A' for Active; 'I' for Inactive)
    1  A    between atoms: C_2  and  C_21
    2  A    between atoms: C_5  and  C_22
    3  A    between atoms: C_6  and  C_15
    4  A    between atoms: C_6  and  C_23
    5  A    between atoms: N_10  and  C_11
    6  A    between atoms: C_15  and  C_21
                            x       y       z     vdW  Elec       q    Type
                         _______ _______ _______ _____ _____    ______ ____

>  <TORSDO>
F 6

$$$$
=
 OpenBabel10262419553D

 25 27  0  0  1  0  0  0  0  0999 V2000
  186.3880  177.6380  144.4340 N   0  0  0  0  0  0  0  0  0  0  0  0
  187.7640  177.3930  144.1240 C   0  0  0  0  0  0  0  0  0  0  0  0
  186.9600  178.3560  146.6860 C   0  0  0  0  0  2  0  0  0  0  0  0
  185.3920  178.1880  143.5310 C   0  0  1  0  0  3  0  0  0  0  0  0
  188.2630  177.8020  146.4570 O   0  0  0  0  0  0  0  0  0  0  0  0
  184.1850  178.3970  144.3540 N   0  0  0  0  0  0  0  0  0  0  0  0
  190.0420  177.1770  144.8960 C   0  0  0  0  0  0  0  0  0  0  0  0
  191.0650  177.2150  145.9760 C   0  0  0  0  0  1  0  0  0  0  0  0
  188.1650  177.1020  142.8570 N   0  0  0  0  0  0  0  0  0  0  0  0
  185.9270  177.6530  145.8080 C   0  0  1  0  0  3  0  0  0  0  0  0
  184.6180  178.4180  145.7570 C   0  0  0  0  0  2  0  0  0  0  0  0
  190.4310  176.8730  143.5890 C   0  0  0  0  0  3  0  0  0  0  0  0
  189.4710  176.8510  142.5700 C   0  0  0  0  0  0  0  0  0  0  0  0
  188.6980  177.4580  145.1670 C   0  0  0  0  0  0  0  0  0  0  0  0
  181.9950  179.1040  143.3340 C   0  0  0  0  0  1  0  0  0  0  0  0
  183.3150  179.5240  143.9750 C   0  0  0  0  0  2  0  0  0  0  0  0
  185.6520  179.4220  141.4590 O   0  0  0  0  0  1  0  0  0  0  0  0
  185.9220  179.4530  142.8290 C   0  0  0  0  0  2  0  0  0  0  0  0
  189.8740  176.5110  141.1790 C   0  0  0  0  0  2  0  0  0  0  0  0
  189.4610  177.6260  140.2340 C   0  0  0  0  0  2  0  0  0  0  0  0
  189.8450  177.2800  138.8040 C   0  0  2  0  0  3  0  0  0  0  0  0
  188.3430  176.8840  137.8540 S   0  0  0  0  0  1  0  0  0  0  0  0
  190.8600  176.1360  138.7710 C   0  0  2  0  0  3  0  0  0  0  0  0
  192.1630  176.5850  138.1390 C   0  0  0  0  0  1  0  0  0  0  0  0
  190.3520  175.0310  138.0830 O   0  0  0  0  0  1  0  0  0  0  0  0
  1 10  1  0  0  0  0
  2  1  1  0  0  0  0
  2 14  1  0  0  0  0
  4 18  1  1  0  0  0
  4  6  1  0  0  0  0
  4  1  1  0  0  0  0
  5  3  1  0  0  0  0
  6 11  1  0  0  0  0
  7 14  2  0  0  0  0
  7  8  1  0  0  0  0
  9  2  2  0  0  0  0
 10 11  1  6  0  0  0
 10  3  1  0  0  0  0
 12  7  1  0  0  0  0
 13  9  1  0  0  0  0
 13 12  2  0  0  0  0
 14  5  1  0  0  0  0
 15 16  1  0  0  0  0
 16  6  1  0  0  0  0
 17 18  1  0  0  0  0
 19 13  1  0  0  0  0
 20 19  1  0  0  0  0
 21 22  1  6  0  0  0
 21 20  1  0  0  0  0
 23 24  1  6  0  0  0
 23 21  1  0  0  0  0
 25 23  1  0  0  0  0
M  END
>  <MODEL>
9

>  <REMARK>
 VINA RESULT:      -6.7      3.256      4.934
  Name = 
  6 active torsions:
  status: ('A' for Active; 'I' for Inactive)
    1  A    between atoms: C_2  and  C_21
    2  A    between atoms: C_5  and  C_22
    3  A    between atoms: C_6  and  C_15
    4  A    between atoms: C_6  and  C_23
    5  A    between atoms: N_10  and  C_11
    6  A    between atoms: C_15  and  C_21
                            x       y       z     vdW  Elec       q    Type
                         _______ _______ _______ _____ _____    ______ ____

>  <TORSDO>
F 6

$$$$
