=
 OpenBabel10262420013D

 27 31  0  0  1  0  0  0  0  0999 V2000
  187.5000  176.5990  143.0700 C   0  0  0  0  0  2  0  0  0  0  0  0
  189.9130  176.3590  143.6610 C   0  0  0  0  0  0  0  0  0  0  0  0
  189.1380  178.0000  145.3090 N   0  0  0  0  0  2  0  0  0  0  0  0
  192.6750  175.0040  146.3800 O   0  0  0  0  0  0  0  0  0  0  0  0
  192.6850  175.3050  148.6800 O   0  0  0  0  0  0  0  0  0  0  0  0
  190.8880  175.5770  143.2710 N   0  0  0  0  0  0  0  0  0  0  0  0
  191.1670  176.6340  147.3110 C   0  0  1  0  0  3  0  0  0  0  0  0
  186.2810  178.2730  147.6790 C   0  0  0  0  0  3  0  0  0  0  0  0
  191.5530  177.9070  147.8930 N   0  0  0  0  0  1  0  0  0  0  0  0
  185.1940  178.2330  146.8040 C   0  0  0  0  0  3  0  0  0  0  0  0
  191.1600  176.7540  145.7830 C   0  0  1  0  0  3  0  0  0  0  0  0
  188.9080  176.7560  142.7100 N   0  0  0  0  0  0  0  0  0  0  0  0
  192.2420  175.6150  147.5430 C   0  0  0  0  0  0  0  0  0  0  0  0
  191.9520  175.5750  145.3570 C   0  0  0  0  0  0  0  0  0  0  0  0
  186.8970  177.9460  143.4400 C   0  0  0  0  0  2  0  0  0  0  0  0
  189.7750  176.7040  145.1410 C   0  0  2  0  0  3  0  0  0  0  0  0
  187.5840  178.2010  147.1780 C   0  0  0  0  0  3  0  0  0  0  0  0
  191.8540  175.0730  144.1680 N   0  0  0  0  0  0  0  0  0  0  0  0
  185.4060  178.1220  145.4280 C   0  0  0  0  0  3  0  0  0  0  0  0
  186.7070  178.0500  144.9180 C   0  0  0  0  0  0  0  0  0  0  0  0
  187.8020  178.0880  145.8000 C   0  0  0  0  0  0  0  0  0  0  0  0
  189.9540  178.0670  138.7960 C   0  0  0  0  0  3  0  0  0  0  0  0
  189.2660  177.2110  141.3870 C   0  0  0  0  0  0  0  0  0  0  0  0
  188.3420  177.9140  140.5950 C   0  0  0  0  0  3  0  0  0  0  0  0
  188.6840  178.3410  139.3080 C   0  0  0  0  0  3  0  0  0  0  0  0
  190.8810  177.3640  139.5690 C   0  0  0  0  0  3  0  0  0  0  0  0
  190.5380  176.9380  140.8560 C   0  0  0  0  0  3  0  0  0  0  0  0
  1 15  1  0  0  0  0
  3 21  1  0  0  0  0
  4 13  1  0  0  0  0
  6  2  2  0  0  0  0
  6 18  1  0  0  0  0
  7 13  1  0  0  0  0
  7  9  1  1  0  0  0
 10  8  2  0  0  0  0
 11 14  1  6  0  0  0
 11  7  1  0  0  0  0
 12  1  1  0  0  0  0
 12  2  1  0  0  0  0
 13  5  2  0  0  0  0
 14  4  1  0  0  0  0
 15 20  1  0  0  0  0
 16  2  1  6  0  0  0
 16  3  1  0  0  0  0
 16 11  1  0  0  0  0
 17  8  1  0  0  0  0
 18 14  2  0  0  0  0
 19 10  1  0  0  0  0
 20 19  2  0  0  0  0
 20 21  1  0  0  0  0
 21 17  2  0  0  0  0
 22 25  2  0  0  0  0
 22 26  1  0  0  0  0
 23 12  1  0  0  0  0
 24 23  2  0  0  0  0
 25 24  1  0  0  0  0
 26 27  2  0  0  0  0
 27 23  1  0  0  0  0
M  END
>  <MODEL>
1

>  <REMARK>
 VINA RESULT:      -9.4      0.000      0.000
  Name = 
  1 active torsions:
  status: ('A' for Active; 'I' for Inactive)
    1  A    between atoms: C_9  and  N_15
                            x       y       z     vdW  Elec       q    Type
                         _______ _______ _______ _____ _____    ______ ____

>  <TORSDO>
F 1

$$$$
=
 OpenBabel10262420013D

 27 31  0  0  1  0  0  0  0  0999 V2000
  189.1140  178.6130  139.2320 C   0  0  0  0  0  2  0  0  0  0  0  0
  186.8510  178.5260  140.2830 C   0  0  0  0  0  0  0  0  0  0  0  0
  188.1630  177.0760  141.7610 N   0  0  0  0  0  2  0  0  0  0  0  0
  184.4950  179.5730  143.4780 O   0  0  0  0  0  0  0  0  0  0  0  0
  184.9730  179.3610  145.7380 O   0  0  0  0  0  0  0  0  0  0  0  0
  185.7150  179.1460  140.0840 N   0  0  0  0  0  0  0  0  0  0  0  0
  186.3780  178.2120  144.1090 C   0  0  1  0  0  3  0  0  0  0  0  0
  191.4310  177.3060  143.5280 C   0  0  0  0  0  3  0  0  0  0  0  0
  186.3040  176.9200  144.7680 N   0  0  0  0  0  1  0  0  0  0  0  0
  192.3120  177.4680  142.4570 C   0  0  0  0  0  3  0  0  0  0  0  0
  186.1080  178.0370  142.6110 C   0  0  1  0  0  3  0  0  0  0  0  0
  187.7020  178.2420  139.1570 N   0  0  0  0  0  0  0  0  0  0  0  0
  185.2290  179.0740  144.5390 C   0  0  0  0  0  0  0  0  0  0  0  0
  185.0840  179.0740  142.3380 C   0  0  0  0  0  0  0  0  0  0  0  0
  189.9690  177.3810  139.4890 C   0  0  0  0  0  2  0  0  0  0  0  0
  187.3210  178.2600  141.7100 C   0  0  2  0  0  3  0  0  0  0  0  0
  190.0600  177.1710  143.2910 C   0  0  0  0  0  3  0  0  0  0  0  0
  184.8760  179.5390  141.1480 N   0  0  0  0  0  0  0  0  0  0  0  0
  191.8240  177.4950  141.1480 C   0  0  0  0  0  3  0  0  0  0  0  0
  190.4540  177.3610  140.9020 C   0  0  0  0  0  0  0  0  0  0  0  0
  189.5670  177.1990  141.9820 C   0  0  0  0  0  0  0  0  0  0  0  0
  186.1580  176.6060  135.5410 C   0  0  0  0  0  3  0  0  0  0  0  0
  187.1670  177.6900  137.9330 C   0  0  0  0  0  0  0  0  0  0  0  0
  186.6370  176.3890  137.9040 C   0  0  0  0  0  3  0  0  0  0  0  0
  186.1340  175.8510  136.7150 C   0  0  0  0  0  3  0  0  0  0  0  0
  186.6870  177.8990  135.5540 C   0  0  0  0  0  3  0  0  0  0  0  0
  187.1900  178.4360  136.7420 C   0  0  0  0  0  3  0  0  0  0  0  0
  1 15  1  0  0  0  0
  3 21  1  0  0  0  0
  4 13  1  0  0  0  0
  6  2  2  0  0  0  0
  6 18  1  0  0  0  0
  7 13  1  0  0  0  0
  7  9  1  1  0  0  0
 10  8  2  0  0  0  0
 11 14  1  6  0  0  0
 11  7  1  0  0  0  0
 12  1  1  0  0  0  0
 12  2  1  0  0  0  0
 13  5  2  0  0  0  0
 14  4  1  0  0  0  0
 15 20  1  0  0  0  0
 16  2  1  6  0  0  0
 16  3  1  0  0  0  0
 16 11  1  0  0  0  0
 17  8  1  0  0  0  0
 18 14  2  0  0  0  0
 19 10  1  0  0  0  0
 20 19  2  0  0  0  0
 20 21  1  0  0  0  0
 21 17  2  0  0  0  0
 22 26  2  0  0  0  0
 22 25  1  0  0  0  0
 23 12  1  0  0  0  0
 24 23  1  0  0  0  0
 25 24  2  0  0  0  0
 26 27  1  0  0  0  0
 27 23  2  0  0  0  0
M  END
>  <MODEL>
2

>  <REMARK>
 VINA RESULT:      -8.6      3.675      6.287
  Name = 
  1 active torsions:
  status: ('A' for Active; 'I' for Inactive)
    1  A    between atoms: C_9  and  N_15
                            x       y       z     vdW  Elec       q    Type
                         _______ _______ _______ _____ _____    ______ ____

>  <TORSDO>
F 1

$$$$
=
 OpenBabel10262420013D

 27 31  0  0  1  0  0  0  0  0999 V2000
  188.8300  178.7110  139.7650 C   0  0  0  0  0  2  0  0  0  0  0  0
  190.9300  177.3600  139.7970 C   0  0  0  0  0  0  0  0  0  0  0  0
  189.5470  176.1290  138.1900 N   0  0  0  0  0  2  0  0  0  0  0  0
  194.2850  176.1630  137.7570 O   0  0  0  0  0  0  0  0  0  0  0  0
  194.4290  175.3640  135.5830 O   0  0  0  0  0  0  0  0  0  0  0  0
  192.1130  177.5020  140.3400 N   0  0  0  0  0  0  0  0  0  0  0  0
  192.2410  175.5370  136.6470 C   0  0  1  0  0  3  0  0  0  0  0  0
  187.4990  176.9920  135.2050 C   0  0  0  0  0  3  0  0  0  0  0  0
  191.8370  174.1800  136.3240 N   0  0  0  0  0  1  0  0  0  0  0  0
  186.5590  177.8640  135.7590 C   0  0  0  0  0  3  0  0  0  0  0  0
  191.9480  175.8180  138.1250 C   0  0  1  0  0  3  0  0  0  0  0  0
  189.7730  177.8620  140.4920 N   0  0  0  0  0  0  0  0  0  0  0  0
  193.7350  175.6540  136.5940 C   0  0  0  0  0  0  0  0  0  0  0  0
  193.2300  176.3830  138.6130 C   0  0  0  0  0  0  0  0  0  0  0  0
  187.5840  177.9190  139.3990 C   0  0  0  0  0  2  0  0  0  0  0  0
  190.8170  176.8120  138.3770 C   0  0  2  0  0  3  0  0  0  0  0  0
  188.4820  176.4170  136.0160 C   0  0  0  0  0  3  0  0  0  0  0  0
  193.2970  177.1190  139.6760 N   0  0  0  0  0  0  0  0  0  0  0  0
  186.5990  178.1610  137.1230 C   0  0  0  0  0  3  0  0  0  0  0  0
  187.5800  177.5890  137.9410 C   0  0  0  0  0  0  0  0  0  0  0  0
  188.5280  176.7130  137.3820 C   0  0  0  0  0  0  0  0  0  0  0  0
  189.1910  177.1770  144.6540 C   0  0  0  0  0  3  0  0  0  0  0  0
  189.5840  177.6220  141.9040 C   0  0  0  0  0  0  0  0  0  0  0  0
  188.7580  176.5760  142.3500 C   0  0  0  0  0  3  0  0  0  0  0  0
  188.5640  176.3540  143.7170 C   0  0  0  0  0  3  0  0  0  0  0  0
  190.0100  178.2230  144.2260 C   0  0  0  0  0  3  0  0  0  0  0  0
  190.2040  178.4450  142.8600 C   0  0  0  0  0  3  0  0  0  0  0  0
  1 12  1  0  0  0  0
  2  6  2  0  0  0  0
  2 12  1  0  0  0  0
  4 14  1  0  0  0  0
  5 13  2  0  0  0  0
  7  9  1  1  0  0  0
  7 11  1  0  0  0  0
  8 10  2  0  0  0  0
  8 17  1  0  0  0  0
 10 19  1  0  0  0  0
 11 16  1  0  0  0  0
 11 14  1  6  0  0  0
 12 23  1  0  0  0  0
 13  7  1  0  0  0  0
 13  4  1  0  0  0  0
 14 18  2  0  0  0  0
 15  1  1  0  0  0  0
 16  3  1  1  0  0  0
 16  2  1  0  0  0  0
 17 21  2  0  0  0  0
 18  6  1  0  0  0  0
 19 20  2  0  0  0  0
 20 15  1  0  0  0  0
 21 20  1  0  0  0  0
 21  3  1  0  0  0  0
 23 24  2  0  0  0  0
 23 27  1  0  0  0  0
 24 25  1  0  0  0  0
 25 22  2  0  0  0  0
 26 22  1  0  0  0  0
 27 26  2  0  0  0  0
M  END
>  <MODEL>
3

>  <REMARK>
 VINA RESULT:      -8.5      4.146      7.805
  Name = 
  1 active torsions:
  status: ('A' for Active; 'I' for Inactive)
    1  A    between atoms: C_9  and  N_15
                            x       y       z     vdW  Elec       q    Type
                         _______ _______ _______ _____ _____    ______ ____

>  <TORSDO>
F 1

$$$$
=
 OpenBabel10262420013D

 27 31  0  0  1  0  0  0  0  0999 V2000
  185.9760  179.3690  142.2550 C   0  0  0  0  0  2  0  0  0  0  0  0
  185.6230  178.9300  144.6870 C   0  0  0  0  0  0  0  0  0  0  0  0
  187.2050  177.1630  144.0670 N   0  0  0  0  0  2  0  0  0  0  0  0
  187.2310  178.9810  148.4640 O   0  0  0  0  0  0  0  0  0  0  0  0
  189.2880  178.1610  149.1540 O   0  0  0  0  0  0  0  0  0  0  0  0
  184.9980  179.5480  145.6570 N   0  0  0  0  0  0  0  0  0  0  0  0
  188.4400  177.5510  146.9510 C   0  0  1  0  0  3  0  0  0  0  0  0
  190.4290  176.9830  142.2170 C   0  0  0  0  0  3  0  0  0  0  0  0
  188.6540  176.1250  147.1240 N   0  0  0  0  0  1  0  0  0  0  0  0
  190.0530  177.4620  140.9600 C   0  0  0  0  0  3  0  0  0  0  0  0
  187.0310  177.7910  146.4000 C   0  0  1  0  0  3  0  0  0  0  0  0
  185.0860  178.9940  143.3520 N   0  0  0  0  0  0  0  0  0  0  0  0
  188.3770  178.2270  148.2870 C   0  0  0  0  0  0  0  0  0  0  0  0
  186.4960  178.8340  147.3090 C   0  0  0  0  0  0  0  0  0  0  0  0
  186.3640  178.1380  141.4480 C   0  0  0  0  0  2  0  0  0  0  0  0
  186.9820  178.2910  144.9570 C   0  0  2  0  0  3  0  0  0  0  0  0
  189.4820  176.8820  143.2390 C   0  0  0  0  0  3  0  0  0  0  0  0
  185.5140  179.6060  146.9690 N   0  0  0  0  0  0  0  0  0  0  0  0
  188.7280  177.8380  140.7230 C   0  0  0  0  0  3  0  0  0  0  0  0
  187.7740  177.7390  141.7410 C   0  0  0  0  0  0  0  0  0  0  0  0
  188.1550  177.2590  143.0070 C   0  0  0  0  0  0  0  0  0  0  0  0
  180.9320  178.4280  142.6080 C   0  0  0  0  0  3  0  0  0  0  0  0
  183.6780  178.7900  143.1000 C   0  0  0  0  0  0  0  0  0  0  0  0
  183.2030  178.6030  141.7910 C   0  0  0  0  0  3  0  0  0  0  0  0
  181.8380  178.4210  141.5460 C   0  0  0  0  0  3  0  0  0  0  0  0
  181.3890  178.6180  143.9140 C   0  0  0  0  0  3  0  0  0  0  0  0
  182.7530  178.8000  144.1580 C   0  0  0  0  0  3  0  0  0  0  0  0
  1 12  1  0  0  0  0
  2 16  1  0  0  0  0
  2  6  2  0  0  0  0
  6 18  1  0  0  0  0
  7  9  1  1  0  0  0
  7 13  1  0  0  0  0
  8 17  1  0  0  0  0
 10  8  2  0  0  0  0
 11  7  1  0  0  0  0
 11 14  1  1  0  0  0
 12  2  1  0  0  0  0
 13  4  1  0  0  0  0
 13  5  2  0  0  0  0
 14  4  1  0  0  0  0
 15 20  1  0  0  0  0
 15  1  1  0  0  0  0
 16  3  1  6  0  0  0
 16 11  1  0  0  0  0
 18 14  2  0  0  0  0
 19 10  1  0  0  0  0
 19 20  2  0  0  0  0
 20 21  1  0  0  0  0
 21 17  2  0  0  0  0
 21  3  1  0  0  0  0
 22 26  1  0  0  0  0
 23 12  1  0  0  0  0
 23 27  1  0  0  0  0
 24 23  2  0  0  0  0
 25 24  1  0  0  0  0
 25 22  2  0  0  0  0
 26 27  2  0  0  0  0
M  END
>  <MODEL>
4

>  <REMARK>
 VINA RESULT:      -8.4      3.121      5.953
  Name = 
  1 active torsions:
  status: ('A' for Active; 'I' for Inactive)
    1  A    between atoms: C_9  and  N_15
                            x       y       z     vdW  Elec       q    Type
                         _______ _______ _______ _____ _____    ______ ____

>  <TORSDO>
F 1

$$$$
=
 OpenBabel10262420013D

 27 31  0  0  1  0  0  0  0  0999 V2000
  187.6290  176.6750  143.2770 C   0  0  0  0  0  2  0  0  0  0  0  0
  185.4970  177.9560  143.0620 C   0  0  0  0  0  0  0  0  0  0  0  0
  186.8690  178.9330  141.2810 N   0  0  0  0  0  2  0  0  0  0  0  0
  182.1390  178.7030  140.8230 O   0  0  0  0  0  0  0  0  0  0  0  0
  182.0020  179.1180  138.5450 O   0  0  0  0  0  0  0  0  0  0  0  0
  184.3120  177.8780  143.6130 N   0  0  0  0  0  0  0  0  0  0  0  0
  184.1800  179.1850  139.6390 C   0  0  1  0  0  3  0  0  0  0  0  0
  188.9730  177.6300  138.5010 C   0  0  0  0  0  3  0  0  0  0  0  0
  184.5560  180.4770  139.0930 N   0  0  0  0  0  1  0  0  0  0  0  0
  189.9270  176.8890  139.2020 C   0  0  0  0  0  3  0  0  0  0  0  0
  184.4620  179.1660  141.1450 C   0  0  1  0  0  3  0  0  0  0  0  0
  186.6580  177.6100  143.8420 N   0  0  0  0  0  0  0  0  0  0  0  0
  182.6900  179.0220  139.5950 C   0  0  0  0  0  0  0  0  0  0  0  0
  183.1890  178.6590  141.7120 C   0  0  0  0  0  0  0  0  0  0  0  0
  188.8610  177.4250  142.7910 C   0  0  0  0  0  2  0  0  0  0  0  0
  185.6140  178.2580  141.5710 C   0  0  2  0  0  3  0  0  0  0  0  0
  187.9670  178.3080  139.1950 C   0  0  0  0  0  3  0  0  0  0  0  0
  183.1270  178.1120  142.8840 N   0  0  0  0  0  0  0  0  0  0  0  0
  189.8780  176.8270  140.5970 C   0  0  0  0  0  3  0  0  0  0  0  0
  188.8740  177.5030  141.2980 C   0  0  0  0  0  0  0  0  0  0  0  0
  187.9120  178.2470  140.5910 C   0  0  0  0  0  0  0  0  0  0  0  0
  187.1250  179.0030  147.8380 C   0  0  0  0  0  3  0  0  0  0  0  0
  186.8240  178.0910  145.1940 C   0  0  0  0  0  0  0  0  0  0  0  0
  187.8920  177.6420  145.9890 C   0  0  0  0  0  3  0  0  0  0  0  0
  188.0430  178.0970  147.3030 C   0  0  0  0  0  3  0  0  0  0  0  0
  186.0550  179.4530  147.0610 C   0  0  0  0  0  3  0  0  0  0  0  0
  185.9050  178.9980  145.7480 C   0  0  0  0  0  3  0  0  0  0  0  0
  1 12  1  0  0  0  0
  2  6  2  0  0  0  0
  2 12  1  0  0  0  0
  4 14  1  0  0  0  0
  5 13  2  0  0  0  0
  7  9  1  1  0  0  0
  7 11  1  0  0  0  0
  8 17  2  0  0  0  0
  8 10  1  0  0  0  0
 10 19  2  0  0  0  0
 11 16  1  0  0  0  0
 11 14  1  1  0  0  0
 12 23  1  0  0  0  0
 13  7  1  0  0  0  0
 13  4  1  0  0  0  0
 14 18  2  0  0  0  0
 15  1  1  0  0  0  0
 16  3  1  1  0  0  0
 16  2  1  0  0  0  0
 17 21  1  0  0  0  0
 18  6  1  0  0  0  0
 19 20  1  0  0  0  0
 20 15  1  0  0  0  0
 21  3  1  0  0  0  0
 21 20  2  0  0  0  0
 23 27  2  0  0  0  0
 23 24  1  0  0  0  0
 24 25  2  0  0  0  0
 25 22  1  0  0  0  0
 26 22  2  0  0  0  0
 27 26  1  0  0  0  0
M  END
>  <MODEL>
5

>  <REMARK>
 VINA RESULT:      -8.3      4.603      8.308
  Name = 
  1 active torsions:
  status: ('A' for Active; 'I' for Inactive)
    1  A    between atoms: C_9  and  N_15
                            x       y       z     vdW  Elec       q    Type
                         _______ _______ _______ _____ _____    ______ ____

>  <TORSDO>
F 1

$$$$
=
 OpenBabel10262420013D

 27 31  0  0  1  0  0  0  0  0999 V2000
  182.9790  178.0210  140.9690 C   0  0  0  0  0  2  0  0  0  0  0  0
  184.0850  178.2190  138.7390 C   0  0  0  0  0  0  0  0  0  0  0  0
  185.8260  179.0450  140.2540 N   0  0  0  0  0  2  0  0  0  0  0  0
  187.0070  176.8360  136.2090 O   0  0  0  0  0  0  0  0  0  0  0  0
  189.2390  176.4240  136.6900 O   0  0  0  0  0  0  0  0  0  0  0  0
  183.7780  177.8560  137.5190 N   0  0  0  0  0  0  0  0  0  0  0  0
  187.8890  177.6850  138.2830 C   0  0  1  0  0  3  0  0  0  0  0  0
  187.3940  177.8780  143.4210 C   0  0  0  0  0  3  0  0  0  0  0  0
  188.8360  178.7780  138.4130 N   0  0  0  0  0  1  0  0  0  0  0  0
  186.2900  177.8350  144.2750 C   0  0  0  0  0  3  0  0  0  0  0  0
  186.4830  178.2540  138.0610 C   0  0  1  0  0  3  0  0  0  0  0  0
  183.0340  178.6230  139.6370 N   0  0  0  0  0  0  0  0  0  0  0  0
  188.1350  176.9430  137.0030 C   0  0  0  0  0  0  0  0  0  0  0  0
  186.0020  177.4910  136.8840 C   0  0  0  0  0  0  0  0  0  0  0  0
  183.4950  179.0030  142.0110 C   0  0  0  0  0  2  0  0  0  0  0  0
  185.5200  178.0580  139.2310 C   0  0  2  0  0  3  0  0  0  0  0  0
  187.2350  178.2840  142.0940 C   0  0  0  0  0  3  0  0  0  0  0  0
  184.7420  177.3620  136.6160 N   0  0  0  0  0  0  0  0  0  0  0  0
  185.0260  178.1990  143.8040 C   0  0  0  0  0  3  0  0  0  0  0  0
  184.8590  178.6070  142.4760 C   0  0  0  0  0  0  0  0  0  0  0  0
  185.9710  178.6480  141.6160 C   0  0  0  0  0  0  0  0  0  0  0  0
  179.9570  181.3020  138.4190 C   0  0  0  0  0  3  0  0  0  0  0  0
  181.9910  179.5280  139.2130 C   0  0  0  0  0  0  0  0  0  0  0  0
  182.3070  180.8050  138.7190 C   0  0  0  0  0  3  0  0  0  0  0  0
  181.2960  181.6870  138.3220 C   0  0  0  0  0  3  0  0  0  0  0  0
  179.6280  180.0380  138.9140 C   0  0  0  0  0  3  0  0  0  0  0  0
  180.6390  179.1580  139.3090 C   0  0  0  0  0  3  0  0  0  0  0  0
  1 15  1  0  0  0  0
  2 12  1  0  0  0  0
  3 21  1  0  0  0  0
  4 14  1  0  0  0  0
  4 13  1  0  0  0  0
  5 13  2  0  0  0  0
  6  2  2  0  0  0  0
  7  9  1  6  0  0  0
  8 10  1  0  0  0  0
 11 14  1  6  0  0  0
 11  7  1  0  0  0  0
 11 16  1  0  0  0  0
 12  1  1  0  0  0  0
 13  7  1  0  0  0  0
 15 20  1  0  0  0  0
 16  2  1  6  0  0  0
 16  3  1  0  0  0  0
 17  8  2  0  0  0  0
 18 14  2  0  0  0  0
 18  6  1  0  0  0  0
 19 10  2  0  0  0  0
 20 19  1  0  0  0  0
 21 17  1  0  0  0  0
 21 20  2  0  0  0  0
 22 26  1  0  0  0  0
 23 27  1  0  0  0  0
 23 12  1  0  0  0  0
 24 23  2  0  0  0  0
 25 22  2  0  0  0  0
 25 24  1  0  0  0  0
 26 27  2  0  0  0  0
M  END
>  <MODEL>
6

>  <REMARK>
 VINA RESULT:      -8.3      5.895      8.325
  Name = 
  1 active torsions:
  status: ('A' for Active; 'I' for Inactive)
    1  A    between atoms: C_9  and  N_15
                            x       y       z     vdW  Elec       q    Type
                         _______ _______ _______ _____ _____    ______ ____

>  <TORSDO>
F 1

$$$$
=
 OpenBabel10262420013D

 27 31  0  0  1  0  0  0  0  0999 V2000
  189.2610  178.3400  144.9450 C   0  0  0  0  0  2  0  0  0  0  0  0
  190.4280  177.4840  142.9090 C   0  0  0  0  0  0  0  0  0  0  0  0
  188.0980  176.8640  142.4690 N   0  0  0  0  0  2  0  0  0  0  0  0
  191.0380  177.8790  138.8690 O   0  0  0  0  0  0  0  0  0  0  0  0
  189.4480  178.1450  137.2010 O   0  0  0  0  0  0  0  0  0  0  0  0
  191.6450  177.5720  142.4360 N   0  0  0  0  0  0  0  0  0  0  0  0
  188.7340  177.4660  139.4320 C   0  0  1  0  0  3  0  0  0  0  0  0
  184.8000  178.5850  142.5880 C   0  0  0  0  0  3  0  0  0  0  0  0
  187.9400  176.3400  138.9730 N   0  0  0  0  0  1  0  0  0  0  0  0
  184.7310  178.9560  143.9320 C   0  0  0  0  0  3  0  0  0  0  0  0
  189.6250  177.0210  140.5960 C   0  0  1  0  0  3  0  0  0  0  0  0
  190.2310  177.4300  144.3350 N   0  0  0  0  0  0  0  0  0  0  0  0
  189.7420  177.8440  138.3880 C   0  0  0  0  0  0  0  0  0  0  0  0
  190.9620  177.5230  140.1970 C   0  0  0  0  0  0  0  0  0  0  0  0
  187.9840  177.5900  145.2940 C   0  0  0  0  0  2  0  0  0  0  0  0
  189.2420  177.6000  141.9560 C   0  0  2  0  0  3  0  0  0  0  0  0
  185.9130  177.8880  142.1110 C   0  0  0  0  0  3  0  0  0  0  0  0
  191.9080  177.7220  141.0580 N   0  0  0  0  0  0  0  0  0  0  0  0
  185.7750  178.6300  144.8020 C   0  0  0  0  0  3  0  0  0  0  0  0
  186.8930  177.9330  144.3320 C   0  0  0  0  0  0  0  0  0  0  0  0
  186.9620  177.5620  142.9770 C   0  0  0  0  0  0  0  0  0  0  0  0
  192.5750  174.8780  146.8090 C   0  0  0  0  0  3  0  0  0  0  0  0
  191.0360  176.5710  145.1710 C   0  0  0  0  0  0  0  0  0  0  0  0
  191.6640  175.4330  144.6360 C   0  0  0  0  0  3  0  0  0  0  0  0
  192.4310  174.5920  145.4490 C   0  0  0  0  0  3  0  0  0  0  0  0
  191.9520  176.0010  147.3550 C   0  0  0  0  0  3  0  0  0  0  0  0
  191.1860  176.8410  146.5420 C   0  0  0  0  0  3  0  0  0  0  0  0
  1 15  1  0  0  0  0
  2 12  1  0  0  0  0
  3 21  1  0  0  0  0
  4 14  1  0  0  0  0
  5 13  2  0  0  0  0
  6  2  2  0  0  0  0
  7  9  1  6  0  0  0
  7 11  1  0  0  0  0
  8 10  1  0  0  0  0
 10 19  2  0  0  0  0
 11 14  1  6  0  0  0
 11 16  1  0  0  0  0
 12  1  1  0  0  0  0
 12 23  1  0  0  0  0
 13  4  1  0  0  0  0
 13  7  1  0  0  0  0
 14 18  2  0  0  0  0
 16  3  1  1  0  0  0
 16  2  1  0  0  0  0
 17  8  2  0  0  0  0
 17 21  1  0  0  0  0
 18  6  1  0  0  0  0
 20 19  1  0  0  0  0
 20 15  1  0  0  0  0
 21 20  2  0  0  0  0
 22 26  1  0  0  0  0
 23 27  1  0  0  0  0
 24 23  2  0  0  0  0
 24 25  1  0  0  0  0
 25 22  2  0  0  0  0
 27 26  2  0  0  0  0
M  END
>  <MODEL>
7

>  <REMARK>
 VINA RESULT:      -8.2      2.949      6.003
  Name = 
  1 active torsions:
  status: ('A' for Active; 'I' for Inactive)
    1  A    between atoms: C_9  and  N_15
                            x       y       z     vdW  Elec       q    Type
                         _______ _______ _______ _____ _____    ______ ____

>  <TORSDO>
F 1

$$$$
=
 OpenBabel10262420013D

 27 31  0  0  1  0  0  0  0  0999 V2000
  190.6930  178.0260  142.2560 C   0  0  0  0  0  2  0  0  0  0  0  0
  188.2430  178.2110  141.8140 C   0  0  0  0  0  0  0  0  0  0  0  0
  188.3000  176.8350  143.8410 N   0  0  0  0  0  2  0  0  0  0  0  0
  184.6340  179.7530  143.0190 O   0  0  0  0  0  0  0  0  0  0  0  0
  183.7140  179.7450  145.1480 O   0  0  0  0  0  0  0  0  0  0  0  0
  187.5030  178.8860  140.9700 N   0  0  0  0  0  0  0  0  0  0  0  0
  185.6480  178.3350  144.6800 C   0  0  1  0  0  3  0  0  0  0  0  0
  189.9860  177.0160  147.1550 C   0  0  0  0  0  3  0  0  0  0  0  0
  185.0600  177.1280  145.2330 N   0  0  0  0  0  1  0  0  0  0  0  0
  191.3310  177.0020  146.7800 C   0  0  0  0  0  3  0  0  0  0  0  0
  186.2580  178.0230  143.3090 C   0  0  1  0  0  3  0  0  0  0  0  0
  189.5420  177.7500  141.3970 N   0  0  0  0  0  0  0  0  0  0  0  0
  184.5700  179.3170  144.3300 C   0  0  0  0  0  0  0  0  0  0  0  0
  185.7010  179.0950  142.4500 C   0  0  0  0  0  0  0  0  0  0  0  0
  191.0980  176.7700  143.0130 C   0  0  0  0  0  2  0  0  0  0  0  0
  187.7840  178.0640  143.2620 C   0  0  2  0  0  3  0  0  0  0  0  0
  188.9880  176.9550  146.1780 C   0  0  0  0  0  3  0  0  0  0  0  0
  186.2630  179.4470  141.3370 N   0  0  0  0  0  0  0  0  0  0  0  0
  191.6810  176.9260  145.4300 C   0  0  0  0  0  3  0  0  0  0  0  0
  190.6870  176.8640  144.4470 C   0  0  0  0  0  0  0  0  0  0  0  0
  189.3330  176.8810  144.8240 C   0  0  0  0  0  0  0  0  0  0  0  0
  190.1180  175.9030  137.6040 C   0  0  0  0  0  3  0  0  0  0  0  0
  189.7360  177.1130  140.1160 C   0  0  0  0  0  0  0  0  0  0  0  0
  191.0020  176.6370  139.7350 C   0  0  0  0  0  3  0  0  0  0  0  0
  191.1920  176.0340  138.4870 C   0  0  0  0  0  3  0  0  0  0  0  0
  188.8550  176.3770  137.9670 C   0  0  0  0  0  3  0  0  0  0  0  0
  188.6660  176.9790  139.2140 C   0  0  0  0  0  3  0  0  0  0  0  0
  1 15  1  0  0  0  0
  3 21  1  0  0  0  0
  4 13  1  0  0  0  0
  6 18  1  0  0  0  0
  6  2  2  0  0  0  0
  7  9  1  6  0  0  0
 10  8  1  0  0  0  0
 11 14  1  6  0  0  0
 11  7  1  0  0  0  0
 12  2  1  0  0  0  0
 12  1  1  0  0  0  0
 13  7  1  0  0  0  0
 13  5  2  0  0  0  0
 14  4  1  0  0  0  0
 15 20  1  0  0  0  0
 16  2  1  6  0  0  0
 16 11  1  0  0  0  0
 16  3  1  0  0  0  0
 17  8  2  0  0  0  0
 18 14  2  0  0  0  0
 19 10  2  0  0  0  0
 20 21  2  0  0  0  0
 20 19  1  0  0  0  0
 21 17  1  0  0  0  0
 22 26  2  0  0  0  0
 22 25  1  0  0  0  0
 23 12  1  0  0  0  0
 24 23  1  0  0  0  0
 25 24  2  0  0  0  0
 26 27  1  0  0  0  0
 27 23  2  0  0  0  0
M  END
>  <MODEL>
8

>  <REMARK>
 VINA RESULT:      -8.2      3.407      5.396
  Name = 
  1 active torsions:
  status: ('A' for Active; 'I' for Inactive)
    1  A    between atoms: C_9  and  N_15
                            x       y       z     vdW  Elec       q    Type
                         _______ _______ _______ _____ _____    ______ ____

>  <TORSDO>
F 1

$$$$
=
 OpenBabel10262420013D

 27 31  0  0  1  0  0  0  0  0999 V2000
  189.4510  176.4420  140.9120 C   0  0  0  0  0  2  0  0  0  0  0  0
  187.5360  177.6580  141.9540 C   0  0  0  0  0  0  0  0  0  0  0  0
  187.6900  178.7260  139.7530 N   0  0  0  0  0  2  0  0  0  0  0  0
  183.4900  178.3540  141.9560 O   0  0  0  0  0  0  0  0  0  0  0  0
  182.1180  178.8240  140.1460 O   0  0  0  0  0  0  0  0  0  0  0  0
  186.8490  177.5260  143.0610 N   0  0  0  0  0  0  0  0  0  0  0  0
  184.5390  178.9330  139.8670 C   0  0  1  0  0  3  0  0  0  0  0  0
  187.9380  177.5670  136.2250 C   0  0  0  0  0  3  0  0  0  0  0  0
  184.5360  180.2510  139.2580 N   0  0  0  0  0  1  0  0  0  0  0  0
  189.1290  176.8400  136.2570 C   0  0  0  0  0  3  0  0  0  0  0  0
  185.6020  178.8840  140.9700 C   0  0  1  0  0  3  0  0  0  0  0  0
  188.9380  177.3290  141.9550 N   0  0  0  0  0  0  0  0  0  0  0  0
  183.2720  178.7230  140.6410 C   0  0  0  0  0  0  0  0  0  0  0  0
  184.8570  178.3200  142.1210 C   0  0  0  0  0  0  0  0  0  0  0  0
  190.2030  177.2450  139.8610 C   0  0  0  0  0  2  0  0  0  0  0  0
  186.8110  178.0030  140.6570 C   0  0  2  0  0  3  0  0  0  0  0  0
  187.4700  178.1930  137.3830 C   0  0  0  0  0  3  0  0  0  0  0  0
  185.4560  177.7400  143.1110 N   0  0  0  0  0  0  0  0  0  0  0  0
  189.8550  176.7390  137.4460 C   0  0  0  0  0  3  0  0  0  0  0  0
  189.3940  177.3630  138.6100 C   0  0  0  0  0  0  0  0  0  0  0  0
  188.1920  178.0930  138.5780 C   0  0  0  0  0  0  0  0  0  0  0  0
  191.5460  178.6450  145.0530 C   0  0  0  0  0  3  0  0  0  0  0  0
  189.8130  177.7790  143.0120 C   0  0  0  0  0  0  0  0  0  0  0  0
  190.2600  179.1110  143.0560 C   0  0  0  0  0  3  0  0  0  0  0  0
  191.1190  179.5420  144.0710 C   0  0  0  0  0  3  0  0  0  0  0  0
  191.1150  177.3170  145.0180 C   0  0  0  0  0  3  0  0  0  0  0  0
  190.2560  176.8870  144.0030 C   0  0  0  0  0  3  0  0  0  0  0  0
  1 12  1  0  0  0  0
  2 12  1  0  0  0  0
  2  6  2  0  0  0  0
  4 14  1  0  0  0  0
  5 13  2  0  0  0  0
  6 18  1  0  0  0  0
  7  9  1  1  0  0  0
  7 13  1  0  0  0  0
  7 11  1  0  0  0  0
  8 10  2  0  0  0  0
  8 17  1  0  0  0  0
 10 19  1  0  0  0  0
 11 14  1  1  0  0  0
 12 23  1  0  0  0  0
 13  4  1  0  0  0  0
 14 18  2  0  0  0  0
 15  1  1  0  0  0  0
 16  3  1  6  0  0  0
 16 11  1  0  0  0  0
 16  2  1  0  0  0  0
 17 21  2  0  0  0  0
 19 20  2  0  0  0  0
 20 15  1  0  0  0  0
 21 20  1  0  0  0  0
 21  3  1  0  0  0  0
 23 24  2  0  0  0  0
 23 27  1  0  0  0  0
 24 25  1  0  0  0  0
 25 22  2  0  0  0  0
 26 22  1  0  0  0  0
 27 26  2  0  0  0  0
M  END
>  <MODEL>
9

>  <REMARK>
 VINA RESULT:      -8.0      4.184      7.837
  Name = 
  1 active torsions:
  status: ('A' for Active; 'I' for Inactive)
    1  A    between atoms: C_9  and  N_15
                            x       y       z     vdW  Elec       q    Type
                         _______ _______ _______ _____ _____    ______ ____

>  <TORSDO>
F 1

$$$$
