=
 OpenBabel10262422033D

 30 32  0  0  1  0  0  0  0  0999 V2000
  187.4580  177.8110  143.5520 C   0  0  2  0  0  3  0  0  0  0  0  0
  185.9330  177.7490  143.5170 C   0  0  2  0  0  3  0  0  0  0  0  0
  185.4530  178.5740  142.3990 N   0  0  0  0  0  0  0  0  0  0  0  0
  185.3410  179.0550  143.7810 C   0  0  0  0  0  2  0  0  0  0  0  0
  184.1560  178.0390  142.0150 C   0  0  0  0  0  2  0  0  0  0  0  0
  185.3090  179.2270  138.9140 O   0  0  0  0  0  0  0  0  0  0  0  0
  183.6640  178.7350  140.7880 C   0  0  0  0  0  0  0  0  0  0  0  0
  184.5070  178.9870  139.8280 C   0  0  0  0  0  0  0  0  0  0  0  0
  182.2850  179.0780  140.6210 N   0  0  0  0  0  2  0  0  0  0  0  0
  181.2110  178.3480  141.2700 C   0  0  0  0  0  2  0  0  0  0  0  0
  180.4750  179.2620  142.2290 C   0  0  0  0  0  2  0  0  0  0  0  0
  180.7020  178.7690  143.6440 C   0  0  0  0  0  1  0  0  0  0  0  0
  188.7950  175.8760  142.9190 O   0  0  0  0  0  1  0  0  0  0  0  0
  188.0280  176.9380  142.4210 C   0  0  2  0  0  3  0  0  0  0  0  0
  190.6050  176.1470  140.8890 O   0  0  0  0  0  0  0  0  0  0  0  0
  190.2270  177.1320  138.7570 C   0  0  0  0  0  2  0  0  0  0  0  0
  188.5830  179.0850  141.5580 O   0  0  0  0  0  1  0  0  0  0  0  0
  189.1120  179.2550  138.8380 O   0  0  0  0  0  1  0  0  0  0  0  0
  191.0200  177.2220  140.0690 C   0  0  1  0  0  3  0  0  0  0  0  0
  188.9040  177.8710  138.7840 C   0  0  2  0  0  3  0  0  0  0  0  0
  190.2890  177.4330  141.3630 C   0  0  1  0  0  3  0  0  0  0  0  0
  188.7640  177.7200  141.3180 C   0  0  1  0  0  0  0  0  0  0  0  0
  188.0920  177.3920  139.9790 C   0  0  0  0  0  2  0  0  0  0  0  0
  187.1180  177.5020  146.1030 C   0  0  0  0  0  1  0  0  0  0  0  0
  188.0800  177.4720  144.9230 C   0  0  2  0  0  3  0  0  0  0  0  0
  189.3730  178.2320  145.2080 C   0  0  0  0  0  2  0  0  0  0  0  0
  190.5630  177.3300  145.3050 C   0  0  0  0  0  3  0  0  0  0  0  0
  190.9170  176.8130  146.4800 C   0  0  0  0  0  3  0  0  0  0  0  0
  192.0840  175.8840  146.5920 C   0  0  0  0  0  2  0  0  0  0  0  0
  192.5290  175.7790  148.0370 C   0  0  0  0  0  1  0  0  0  0  0  0
  1 14  1  6  0  0  0
  1 25  1  0  0  0  0
  2  1  1  6  0  0  0
  2  4  1  0  0  0  0
  3  2  1  0  0  0  0
  3  4  1  0  0  0  0
  5  3  1  0  0  0  0
  6  8  2  0  0  0  0
  7  5  1  0  0  0  0
  8  7  2  0  0  0  0
  9  7  1  0  0  0  0
  9 10  1  0  0  0  0
 10 11  1  0  0  0  0
 11 12  1  0  0  0  0
 14 13  1  1  0  0  0
 16 20  1  0  0  0  0
 19 16  1  6  0  0  0
 19 15  1  0  0  0  0
 19 21  1  0  0  0  0
 20 18  1  1  0  0  0
 20 23  1  0  0  0  0
 21 15  1  1  0  0  0
 22 21  1  0  0  0  0
 22 17  1  1  0  0  0
 22 14  1  0  0  0  0
 23 22  1  0  0  0  0
 25 26  1  0  0  0  0
 25 24  1  1  0  0  0
 26 27  1  0  0  0  0
 27 28  2  0  0  0  0
 28 29  1  0  0  0  0
 29 30  1  0  0  0  0
M  END
>  <MODEL>
1

>  <REMARK>
 VINA RESULT:      -7.2      0.000      0.000
  Name = 
  12 active torsions:
  status: ('A' for Active; 'I' for Inactive)
    1  A    between atoms: C_4  and  C_19
    2  A    between atoms: N_6  and  CA_8
    3  A    between atoms: N_6  and  C_21
    4  A    between atoms: C_7  and  C_26
    5  A    between atoms: CA_8  and  C_30
    6  A    between atoms: C_9  and  C_21
    7  A    between atoms: C_10  and  C_15
    8  A    between atoms: C_10  and  C_25
    9  A    between atoms: N_13  and  C_30
   10  A    between atoms: C_19  and  C_24
   11  A    between atoms: C_19  and  C_25
   12  A    between atoms: C_24  and  C_28
                            x       y       z     vdW  Elec       q    Type
                         _______ _______ _______ _____ _____    ______ ____

>  <TORSDO>
F 12

$$$$
=
 OpenBabel10262422033D

 30 32  0  0  1  0  0  0  0  0999 V2000
  187.4680  177.8510  143.8510 C   0  0  2  0  0  3  0  0  0  0  0  0
  185.9460  177.8660  143.9750 C   0  0  2  0  0  3  0  0  0  0  0  0
  185.3930  178.6760  142.8810 N   0  0  0  0  0  0  0  0  0  0  0  0
  185.4480  179.2090  144.2480 C   0  0  0  0  0  2  0  0  0  0  0  0
  184.0390  178.1960  142.6530 C   0  0  0  0  0  2  0  0  0  0  0  0
  180.9970  178.8920  141.0330 O   0  0  0  0  0  0  0  0  0  0  0  0
  183.5130  178.7520  141.3690 C   0  0  0  0  0  0  0  0  0  0  0  0
  182.2240  178.8230  141.1970 C   0  0  0  0  0  0  0  0  0  0  0  0
  184.3870  179.2550  140.3540 N   0  0  0  0  0  2  0  0  0  0  0  0
  183.9590  179.4580  138.9820 C   0  0  0  0  0  2  0  0  0  0  0  0
  184.0820  178.1620  138.2070 C   0  0  0  0  0  2  0  0  0  0  0  0
  185.5070  178.0220  137.7130 C   0  0  0  0  0  1  0  0  0  0  0  0
  188.5000  175.7940  143.0530 O   0  0  0  0  0  1  0  0  0  0  0  0
  187.8720  176.9800  142.6490 C   0  0  2  0  0  3  0  0  0  0  0  0
  190.5490  176.1520  141.3230 O   0  0  0  0  0  0  0  0  0  0  0  0
  190.2990  177.0360  139.1280 C   0  0  0  0  0  2  0  0  0  0  0  0
  188.4610  179.0930  141.7270 O   0  0  0  0  0  1  0  0  0  0  0  0
  189.1620  179.1460  139.0420 O   0  0  0  0  0  1  0  0  0  0  0  0
  191.0050  177.1940  140.4830 C   0  0  1  0  0  3  0  0  0  0  0  0
  188.9700  177.7600  139.0370 C   0  0  2  0  0  3  0  0  0  0  0  0
  190.1910  177.4550  141.7160 C   0  0  1  0  0  3  0  0  0  0  0  0
  188.6700  177.7200  141.5610 C   0  0  1  0  0  0  0  0  0  0  0  0
  188.0880  177.3240  140.1980 C   0  0  0  0  0  2  0  0  0  0  0  0
  187.3780  177.4910  146.4160 C   0  0  0  0  0  1  0  0  0  0  0  0
  188.2110  177.4460  145.1420 C   0  0  2  0  0  3  0  0  0  0  0  0
  189.5630  178.1360  145.3070 C   0  0  0  0  0  2  0  0  0  0  0  0
  190.6940  177.1640  145.4320 C   0  0  0  0  0  3  0  0  0  0  0  0
  191.0690  176.7260  146.6320 C   0  0  0  0  0  3  0  0  0  0  0  0
  192.1770  175.7300  146.7760 C   0  0  0  0  0  2  0  0  0  0  0  0
  192.7270  175.7650  148.1870 C   0  0  0  0  0  1  0  0  0  0  0  0
  1 14  1  6  0  0  0
  1 25  1  0  0  0  0
  2  1  1  6  0  0  0
  2  4  1  0  0  0  0
  3  2  1  0  0  0  0
  3  4  1  0  0  0  0
  5  3  1  0  0  0  0
  6  8  2  0  0  0  0
  7  5  1  0  0  0  0
  8  7  2  0  0  0  0
  9  7  1  0  0  0  0
 10  9  1  0  0  0  0
 11 10  1  0  0  0  0
 12 11  1  0  0  0  0
 14 13  1  1  0  0  0
 19 16  1  6  0  0  0
 19 15  1  0  0  0  0
 19 21  1  0  0  0  0
 20 18  1  1  0  0  0
 20 16  1  0  0  0  0
 20 23  1  0  0  0  0
 21 15  1  1  0  0  0
 22 21  1  0  0  0  0
 22 17  1  1  0  0  0
 22 14  1  0  0  0  0
 23 22  1  0  0  0  0
 25 26  1  0  0  0  0
 25 24  1  1  0  0  0
 26 27  1  0  0  0  0
 27 28  2  0  0  0  0
 28 29  1  0  0  0  0
 29 30  1  0  0  0  0
M  END
>  <MODEL>
2

>  <REMARK>
 VINA RESULT:      -7.2      1.203      2.171
  Name = 
  12 active torsions:
  status: ('A' for Active; 'I' for Inactive)
    1  A    between atoms: C_4  and  C_19
    2  A    between atoms: N_6  and  CA_8
    3  A    between atoms: N_6  and  C_21
    4  A    between atoms: C_7  and  C_26
    5  A    between atoms: CA_8  and  C_30
    6  A    between atoms: C_9  and  C_21
    7  A    between atoms: C_10  and  C_15
    8  A    between atoms: C_10  and  C_25
    9  A    between atoms: N_13  and  C_30
   10  A    between atoms: C_19  and  C_24
   11  A    between atoms: C_19  and  C_25
   12  A    between atoms: C_24  and  C_28
                            x       y       z     vdW  Elec       q    Type
                         _______ _______ _______ _____ _____    ______ ____

>  <TORSDO>
F 12

$$$$
=
 OpenBabel10262422033D

 30 32  0  0  1  0  0  0  0  0999 V2000
  189.3820  177.4820  141.9010 C   0  0  2  0  0  3  0  0  0  0  0  0
  188.1380  176.8610  142.5320 C   0  0  2  0  0  3  0  0  0  0  0  0
  187.4840  177.8710  143.3750 N   0  0  0  0  0  0  0  0  0  0  0  0
  188.2590  176.7830  143.9830 C   0  0  0  0  0  2  0  0  0  0  0  0
  186.0790  177.5020  143.4510 C   0  0  0  0  0  2  0  0  0  0  0  0
  183.8460  180.1310  144.1320 O   0  0  0  0  0  0  0  0  0  0  0  0
  185.4310  178.2000  144.6020 C   0  0  0  0  0  0  0  0  0  0  0  0
  184.6190  179.1900  144.3600 C   0  0  0  0  0  0  0  0  0  0  0  0
  185.6390  177.7740  145.9520 N   0  0  0  0  0  2  0  0  0  0  0  0
  186.4740  178.5070  146.8860 C   0  0  0  0  0  2  0  0  0  0  0  0
  187.5600  177.5980  147.4270 C   0  0  0  0  0  2  0  0  0  0  0  0
  188.2170  178.2750  148.6130 C   0  0  0  0  0  1  0  0  0  0  0  0
  190.7330  177.0630  139.9190 O   0  0  0  0  0  1  0  0  0  0  0  0
  189.4200  177.1360  140.4030 C   0  0  2  0  0  3  0  0  0  0  0  0
  189.8530  177.9790  137.4510 O   0  0  0  0  0  0  0  0  0  0  0  0
  187.6150  178.1270  136.6540 C   0  0  0  0  0  2  0  0  0  0  0  0
  187.8880  178.9550  140.3420 O   0  0  0  0  0  1  0  0  0  0  0  0
  186.0550  178.9930  138.2570 O   0  0  0  0  0  1  0  0  0  0  0  0
  188.8630  178.9170  137.0750 C   0  0  1  0  0  3  0  0  0  0  0  0
  186.6650  177.8210  137.7940 C   0  0  2  0  0  3  0  0  0  0  0  0
  189.3700  178.8050  138.4830 C   0  0  1  0  0  3  0  0  0  0  0  0
  188.5220  178.0200  139.5190 C   0  0  1  0  0  0  0  0  0  0  0  0
  187.4350  177.1270  138.9080 C   0  0  0  0  0  2  0  0  0  0  0  0
  190.8260  175.6900  143.0940 C   0  0  0  0  0  1  0  0  0  0  0  0
  190.7050  177.1300  142.6170 C   0  0  2  0  0  3  0  0  0  0  0  0
  191.0970  178.1360  143.6960 C   0  0  0  0  0  2  0  0  0  0  0  0
  191.6280  177.4790  144.9310 C   0  0  0  0  0  3  0  0  0  0  0  0
  190.8630  177.3800  146.0170 C   0  0  0  0  0  3  0  0  0  0  0  0
  191.3630  176.6980  147.2510 C   0  0  0  0  0  2  0  0  0  0  0  0
  192.2620  175.5370  146.8750 C   0  0  0  0  0  1  0  0  0  0  0  0
  1 14  1  6  0  0  0
  1 25  1  0  0  0  0
  2  1  1  6  0  0  0
  2  3  1  0  0  0  0
  2  4  1  0  0  0  0
  3  5  1  0  0  0  0
  3  4  1  0  0  0  0
  5  7  1  0  0  0  0
  6  8  2  0  0  0  0
  7  9  1  0  0  0  0
  8  7  2  0  0  0  0
  9 10  1  0  0  0  0
 10 11  1  0  0  0  0
 11 12  1  0  0  0  0
 14 13  1  6  0  0  0
 16 20  1  0  0  0  0
 19 16  1  1  0  0  0
 19 15  1  0  0  0  0
 19 21  1  0  0  0  0
 20 18  1  1  0  0  0
 20 23  1  0  0  0  0
 21 15  1  6  0  0  0
 21 22  1  0  0  0  0
 22 17  1  1  0  0  0
 22 14  1  0  0  0  0
 23 22  1  0  0  0  0
 25 24  1  1  0  0  0
 25 26  1  0  0  0  0
 26 27  1  0  0  0  0
 27 28  2  0  0  0  0
 28 29  1  0  0  0  0
 30 29  1  0  0  0  0
M  END
>  <MODEL>
3

>  <REMARK>
 VINA RESULT:      -6.4      2.424      4.149
  Name = 
  12 active torsions:
  status: ('A' for Active; 'I' for Inactive)
    1  A    between atoms: C_4  and  C_19
    2  A    between atoms: N_6  and  CA_8
    3  A    between atoms: N_6  and  C_21
    4  A    between atoms: C_7  and  C_26
    5  A    between atoms: CA_8  and  C_30
    6  A    between atoms: C_9  and  C_21
    7  A    between atoms: C_10  and  C_15
    8  A    between atoms: C_10  and  C_25
    9  A    between atoms: N_13  and  C_30
   10  A    between atoms: C_19  and  C_24
   11  A    between atoms: C_19  and  C_25
   12  A    between atoms: C_24  and  C_28
                            x       y       z     vdW  Elec       q    Type
                         _______ _______ _______ _____ _____    ______ ____

>  <TORSDO>
F 12

$$$$
=
 OpenBabel10262422033D

 30 32  0  0  1  0  0  0  0  0999 V2000
  188.1380  178.0380  142.5300 C   0  0  2  0  0  3  0  0  0  0  0  0
  186.7080  177.6180  142.8620 C   0  0  2  0  0  3  0  0  0  0  0  0
  185.7830  178.6150  142.3050 N   0  0  0  0  0  0  0  0  0  0  0  0
  186.0610  178.5800  143.7450 C   0  0  0  0  0  2  0  0  0  0  0  0
  184.5170  177.9320  142.0870 C   0  0  0  0  0  2  0  0  0  0  0  0
  184.9090  179.7760  139.1200 O   0  0  0  0  0  0  0  0  0  0  0  0
  183.7100  178.6710  141.0700 C   0  0  0  0  0  0  0  0  0  0  0  0
  184.3250  179.2380  140.0710 C   0  0  0  0  0  0  0  0  0  0  0  0
  182.2820  178.7240  141.1380 N   0  0  0  0  0  2  0  0  0  0  0  0
  181.4660  179.2820  140.0750 C   0  0  0  0  0  2  0  0  0  0  0  0
  180.4350  178.2640  139.6300 C   0  0  0  0  0  2  0  0  0  0  0  0
  180.1400  177.3310  140.7860 C   0  0  0  0  0  1  0  0  0  0  0  0
  189.8300  176.3910  141.9340 O   0  0  0  0  0  1  0  0  0  0  0  0
  188.7120  177.0910  141.4620 C   0  0  2  0  0  3  0  0  0  0  0  0
  190.4730  176.0600  139.1280 O   0  0  0  0  0  0  0  0  0  0  0  0
  189.3090  176.9000  137.2310 C   0  0  0  0  0  2  0  0  0  0  0  0
  188.9220  179.1380  140.2660 O   0  0  0  0  0  1  0  0  0  0  0  0
  188.3500  179.0760  137.5500 O   0  0  0  0  0  1  0  0  0  0  0  0
  190.5530  177.0490  138.1200 C   0  0  1  0  0  3  0  0  0  0  0  0
  188.1140  177.7050  137.7030 C   0  0  2  0  0  3  0  0  0  0  0  0
  190.3880  177.3930  139.5720 C   0  0  1  0  0  3  0  0  0  0  0  0
  188.9720  177.7500  140.0960 C   0  0  1  0  0  0  0  0  0  0  0  0
  187.8250  177.3570  139.1560 C   0  0  0  0  0  2  0  0  0  0  0  0
  190.4960  178.5940  143.4520 C   0  0  0  0  0  1  0  0  0  0  0  0
  189.0660  178.1680  143.7570 C   0  0  2  0  0  3  0  0  0  0  0  0
  189.0060  176.9640  144.6950 C   0  0  0  0  0  2  0  0  0  0  0  0
  188.9810  177.3590  146.1380 C   0  0  0  0  0  3  0  0  0  0  0  0
  187.8180  177.5060  146.7710 C   0  0  0  0  0  3  0  0  0  0  0  0
  187.7720  177.8690  148.2220 C   0  0  0  0  0  2  0  0  0  0  0  0
  189.1530  178.2680  148.7020 C   0  0  0  0  0  1  0  0  0  0  0  0
  1 14  1  6  0  0  0
  1 25  1  0  0  0  0
  2  1  1  6  0  0  0
  2  4  1  0  0  0  0
  3  2  1  0  0  0  0
  3  4  1  0  0  0  0
  5  3  1  0  0  0  0
  6  8  2  0  0  0  0
  7  9  1  0  0  0  0
  7  5  1  0  0  0  0
  8  7  2  0  0  0  0
 10  9  1  0  0  0  0
 11 10  1  0  0  0  0
 11 12  1  0  0  0  0
 14 13  1  1  0  0  0
 16 20  1  0  0  0  0
 19 16  1  6  0  0  0
 19 15  1  0  0  0  0
 19 21  1  0  0  0  0
 20 18  1  1  0  0  0
 20 23  1  0  0  0  0
 21 15  1  1  0  0  0
 21 22  1  0  0  0  0
 22 17  1  1  0  0  0
 22 14  1  0  0  0  0
 23 22  1  0  0  0  0
 25 24  1  6  0  0  0
 25 26  1  0  0  0  0
 26 27  1  0  0  0  0
 27 28  2  0  0  0  0
 28 29  1  0  0  0  0
 29 30  1  0  0  0  0
M  END
>  <MODEL>
4

>  <REMARK>
 VINA RESULT:      -6.4      1.626      2.097
  Name = 
  12 active torsions:
  status: ('A' for Active; 'I' for Inactive)
    1  A    between atoms: C_4  and  C_19
    2  A    between atoms: N_6  and  CA_8
    3  A    between atoms: N_6  and  C_21
    4  A    between atoms: C_7  and  C_26
    5  A    between atoms: CA_8  and  C_30
    6  A    between atoms: C_9  and  C_21
    7  A    between atoms: C_10  and  C_15
    8  A    between atoms: C_10  and  C_25
    9  A    between atoms: N_13  and  C_30
   10  A    between atoms: C_19  and  C_24
   11  A    between atoms: C_19  and  C_25
   12  A    between atoms: C_24  and  C_28
                            x       y       z     vdW  Elec       q    Type
                         _______ _______ _______ _____ _____    ______ ____

>  <TORSDO>
F 12

$$$$
=
 OpenBabel10262422033D

 30 32  0  0  1  0  0  0  0  0999 V2000
  188.8920  177.2550  140.4190 C   0  0  2  0  0  3  0  0  0  0  0  0
  190.1820  176.6280  140.9400 C   0  0  2  0  0  3  0  0  0  0  0  0
  191.0080  177.6820  141.5440 N   0  0  0  0  0  0  0  0  0  0  0  0
  191.3470  177.1350  140.2250 C   0  0  0  0  0  2  0  0  0  0  0  0
  191.8650  177.0310  142.5220 C   0  0  0  0  0  2  0  0  0  0  0  0
  191.1180  180.0850  144.0930 O   0  0  0  0  0  0  0  0  0  0  0  0
  191.6110  177.6010  143.8790 C   0  0  0  0  0  0  0  0  0  0  0  0
  191.3590  178.8750  143.9880 C   0  0  0  0  0  0  0  0  0  0  0  0
  191.5850  176.7760  145.0480 N   0  0  0  0  0  2  0  0  0  0  0  0
  190.5980  176.9390  146.1000 C   0  0  0  0  0  2  0  0  0  0  0  0
  191.2500  176.7360  147.4530 C   0  0  0  0  0  2  0  0  0  0  0  0
  192.3030  175.6540  147.3300 C   0  0  0  0  0  1  0  0  0  0  0  0
  188.8440  179.3530  139.1830 O   0  0  0  0  0  1  0  0  0  0  0  0
  189.1810  177.9950  139.1020 C   0  0  2  0  0  3  0  0  0  0  0  0
  186.5710  178.6970  137.5820 O   0  0  0  0  0  0  0  0  0  0  0  0
  187.1480  178.1430  135.3410 C   0  0  0  0  0  2  0  0  0  0  0  0
  188.9500  175.9710  137.8720 O   0  0  0  0  0  1  0  0  0  0  0  0
  188.5380  176.1980  135.1360 O   0  0  0  0  0  1  0  0  0  0  0  0
  186.3330  177.7310  136.5760 C   0  0  1  0  0  3  0  0  0  0  0  0
  188.5580  177.5850  135.3200 C   0  0  2  0  0  3  0  0  0  0  0  0
  187.0440  177.4000  137.8560 C   0  0  1  0  0  3  0  0  0  0  0  0
  188.5940  177.3230  137.8480 C   0  0  1  0  0  0  0  0  0  0  0  0
  189.2580  177.9560  136.6190 C   0  0  0  0  0  2  0  0  0  0  0  0
  188.1550  177.6320  142.8750 C   0  0  0  0  0  1  0  0  0  0  0  0
  188.1560  178.1470  141.4430 C   0  0  2  0  0  3  0  0  0  0  0  0
  186.7690  178.5860  140.9800 C   0  0  0  0  0  2  0  0  0  0  0  0
  185.8570  178.9100  142.1210 C   0  0  0  0  0  3  0  0  0  0  0  0
  184.6500  178.3490  142.1920 C   0  0  0  0  0  3  0  0  0  0  0  0
  183.7360  178.6350  143.3420 C   0  0  0  0  0  2  0  0  0  0  0  0
  184.4860  179.3760  144.4300 C   0  0  0  0  0  1  0  0  0  0  0  0
  1 14  1  6  0  0  0
  1 25  1  0  0  0  0
  2  1  1  6  0  0  0
  2  3  1  0  0  0  0
  3  5  1  0  0  0  0
  4  2  1  0  0  0  0
  4  3  1  0  0  0  0
  5  7  1  0  0  0  0
  7  8  2  0  0  0  0
  7  9  1  0  0  0  0
  8  6  2  0  0  0  0
  9 10  1  0  0  0  0
 10 11  1  0  0  0  0
 12 11  1  0  0  0  0
 14 13  1  1  0  0  0
 19 16  1  6  0  0  0
 19 15  1  0  0  0  0
 19 21  1  0  0  0  0
 20 18  1  1  0  0  0
 20 16  1  0  0  0  0
 20 23  1  0  0  0  0
 21 15  1  1  0  0  0
 22 21  1  0  0  0  0
 22 17  1  1  0  0  0
 22 14  1  0  0  0  0
 23 22  1  0  0  0  0
 25 24  1  1  0  0  0
 26 25  1  0  0  0  0
 26 27  1  0  0  0  0
 27 28  2  0  0  0  0
 28 29  1  0  0  0  0
 29 30  1  0  0  0  0
M  END
>  <MODEL>
5

>  <REMARK>
 VINA RESULT:      -6.3      2.780      7.011
  Name = 
  12 active torsions:
  status: ('A' for Active; 'I' for Inactive)
    1  A    between atoms: C_4  and  C_19
    2  A    between atoms: N_6  and  CA_8
    3  A    between atoms: N_6  and  C_21
    4  A    between atoms: C_7  and  C_26
    5  A    between atoms: CA_8  and  C_30
    6  A    between atoms: C_9  and  C_21
    7  A    between atoms: C_10  and  C_15
    8  A    between atoms: C_10  and  C_25
    9  A    between atoms: N_13  and  C_30
   10  A    between atoms: C_19  and  C_24
   11  A    between atoms: C_19  and  C_25
   12  A    between atoms: C_24  and  C_28
                            x       y       z     vdW  Elec       q    Type
                         _______ _______ _______ _____ _____    ______ ____

>  <TORSDO>
F 12

$$$$
=
 OpenBabel10262422033D

 30 32  0  0  1  0  0  0  0  0999 V2000
  189.1690  177.5580  140.4090 C   0  0  2  0  0  3  0  0  0  0  0  0
  188.1090  178.6550  140.4610 C   0  0  2  0  0  3  0  0  0  0  0  0
  186.9040  178.1140  141.1060 N   0  0  0  0  0  0  0  0  0  0  0  0
  186.9460  178.3100  139.6520 C   0  0  0  0  0  2  0  0  0  0  0  0
  186.1950  179.2460  141.6810 C   0  0  0  0  0  2  0  0  0  0  0  0
  182.7860  178.3960  141.5880 O   0  0  0  0  0  0  0  0  0  0  0  0
  185.1000  178.7610  142.5740 C   0  0  0  0  0  0  0  0  0  0  0  0
  183.9140  178.5740  142.0680 C   0  0  0  0  0  0  0  0  0  0  0  0
  185.3370  178.4450  143.9490 N   0  0  0  0  0  2  0  0  0  0  0  0
  184.5610  179.0240  145.0310 C   0  0  0  0  0  2  0  0  0  0  0  0
  184.8380  178.2770  146.3200 C   0  0  0  0  0  2  0  0  0  0  0  0
  185.9730  178.9660  147.0490 C   0  0  0  0  0  1  0  0  0  0  0  0
  191.4920  177.4370  141.1320 O   0  0  0  0  0  1  0  0  0  0  0  0
  190.1950  177.7870  141.5320 C   0  0  2  0  0  3  0  0  0  0  0  0
  191.9610  177.4250  144.0540 O   0  0  0  0  0  0  0  0  0  0  0  0
  190.3620  177.6350  145.8030 C   0  0  0  0  0  2  0  0  0  0  0  0
  188.8620  176.1630  142.6490 O   0  0  0  0  0  1  0  0  0  0  0  0
  188.2260  176.6630  145.3050 O   0  0  0  0  0  1  0  0  0  0  0  0
  191.2600  176.6660  145.0200 C   0  0  1  0  0  3  0  0  0  0  0  0
  188.9880  177.8320  145.1930 C   0  0  2  0  0  3  0  0  0  0  0  0
  191.0450  176.4850  143.5460 C   0  0  1  0  0  3  0  0  0  0  0  0
  189.8140  177.1600  142.8850 C   0  0  1  0  0  0  0  0  0  0  0  0
  189.1470  178.2460  143.7380 C   0  0  0  0  0  2  0  0  0  0  0  0
  189.4980  178.4510  137.9970 C   0  0  0  0  0  1  0  0  0  0  0  0
  189.8410  177.3850  139.0290 C   0  0  2  0  0  3  0  0  0  0  0  0
  189.7190  175.9700  138.4680 C   0  0  0  0  0  2  0  0  0  0  0  0
  190.9680  175.5120  137.7840 C   0  0  0  0  0  3  0  0  0  0  0  0
  192.1360  176.0870  138.0680 C   0  0  0  0  0  3  0  0  0  0  0  0
  193.4010  175.6210  137.4180 C   0  0  0  0  0  2  0  0  0  0  0  0
  193.5050  174.1120  137.5050 C   0  0  0  0  0  1  0  0  0  0  0  0
  1 25  1  6  0  0  0
  1 14  1  0  0  0  0
  2  1  1  6  0  0  0
  2  3  1  0  0  0  0
  3  5  1  0  0  0  0
  4  2  1  0  0  0  0
  4  3  1  0  0  0  0
  5  7  1  0  0  0  0
  6  8  2  0  0  0  0
  7  9  1  0  0  0  0
  8  7  2  0  0  0  0
  9 10  1  0  0  0  0
 10 11  1  0  0  0  0
 11 12  1  0  0  0  0
 14 13  1  6  0  0  0
 14 22  1  0  0  0  0
 15 19  1  0  0  0  0
 19 16  1  1  0  0  0
 20 18  1  6  0  0  0
 20 16  1  0  0  0  0
 21 15  1  6  0  0  0
 21 19  1  0  0  0  0
 22 17  1  6  0  0  0
 22 21  1  0  0  0  0
 22 23  1  0  0  0  0
 23 20  1  0  0  0  0
 25 24  1  6  0  0  0
 26 25  1  0  0  0  0
 27 28  2  0  0  0  0
 27 26  1  0  0  0  0
 29 30  1  0  0  0  0
 29 28  1  0  0  0  0
M  END
>  <MODEL>
6

>  <REMARK>
 VINA RESULT:      -6.1      2.198      5.578
  Name = 
  12 active torsions:
  status: ('A' for Active; 'I' for Inactive)
    1  A    between atoms: C_4  and  C_19
    2  A    between atoms: N_6  and  CA_8
    3  A    between atoms: N_6  and  C_21
    4  A    between atoms: C_7  and  C_26
    5  A    between atoms: CA_8  and  C_30
    6  A    between atoms: C_9  and  C_21
    7  A    between atoms: C_10  and  C_15
    8  A    between atoms: C_10  and  C_25
    9  A    between atoms: N_13  and  C_30
   10  A    between atoms: C_19  and  C_24
   11  A    between atoms: C_19  and  C_25
   12  A    between atoms: C_24  and  C_28
                            x       y       z     vdW  Elec       q    Type
                         _______ _______ _______ _____ _____    ______ ____

>  <TORSDO>
F 12

$$$$
=
 OpenBabel10262422033D

 30 32  0  0  1  0  0  0  0  0999 V2000
  186.1150  178.7340  143.4190 C   0  0  2  0  0  3  0  0  0  0  0  0
  185.4020  179.2850  142.1870 C   0  0  2  0  0  3  0  0  0  0  0  0
  184.5990  178.2100  141.5880 N   0  0  0  0  0  0  0  0  0  0  0  0
  185.8610  178.6290  140.9680 C   0  0  0  0  0  2  0  0  0  0  0  0
  183.5170  178.8550  140.8590 C   0  0  0  0  0  2  0  0  0  0  0  0
  183.0530  175.8440  139.1060 O   0  0  0  0  0  0  0  0  0  0  0  0
  182.4540  177.8560  140.5390 C   0  0  0  0  0  0  0  0  0  0  0  0
  182.7610  176.8250  139.8040 C   0  0  0  0  0  0  0  0  0  0  0  0
  181.1280  177.9750  141.0640 N   0  0  0  0  0  2  0  0  0  0  0  0
  180.7030  179.1050  141.8700 C   0  0  0  0  0  2  0  0  0  0  0  0
  179.5310  178.7020  142.7430 C   0  0  0  0  0  2  0  0  0  0  0  0
  180.0420  178.4020  144.1370 C   0  0  0  0  0  1  0  0  0  0  0  0
  186.5780  176.3740  143.8050 O   0  0  0  0  0  1  0  0  0  0  0  0
  186.9230  177.4860  143.0240 C   0  0  2  0  0  3  0  0  0  0  0  0
  189.0300  177.0380  145.2540 O   0  0  0  0  0  0  0  0  0  0  0  0
  190.9380  176.3780  143.9950 C   0  0  0  0  0  2  0  0  0  0  0  0
  188.6970  178.7550  142.0730 O   0  0  0  0  0  1  0  0  0  0  0  0
  191.1780  177.5220  141.9000 O   0  0  0  0  0  1  0  0  0  0  0  0
  190.2920  177.5040  144.8150 C   0  0  1  0  0  3  0  0  0  0  0  0
  190.5910  176.4120  142.5200 C   0  0  2  0  0  3  0  0  0  0  0  0
  189.0030  178.1150  144.3480 C   0  0  1  0  0  3  0  0  0  0  0  0
  188.4450  177.7020  142.9590 C   0  0  1  0  0  0  0  0  0  0  0  0
  189.0770  176.4370  142.3670 C   0  0  0  0  0  2  0  0  0  0  0  0
  183.7040  178.6580  144.3660 C   0  0  0  0  0  1  0  0  0  0  0  0
  185.1920  178.4750  144.6290 C   0  0  2  0  0  3  0  0  0  0  0  0
  185.6490  179.1820  145.9040 C   0  0  0  0  0  2  0  0  0  0  0  0
  186.3520  178.2620  146.8520 C   0  0  0  0  0  3  0  0  0  0  0  0
  187.2460  178.7460  147.7130 C   0  0  0  0  0  3  0  0  0  0  0  0
  187.9360  177.8480  148.6910 C   0  0  0  0  0  2  0  0  0  0  0  0
  189.4340  177.8910  148.4690 C   0  0  0  0  0  1  0  0  0  0  0  0
  1 14  1  6  0  0  0
  1 25  1  0  0  0  0
  2  1  1  1  0  0  0
  3  2  1  0  0  0  0
  4  3  1  0  0  0  0
  4  2  1  0  0  0  0
  5  3  1  0  0  0  0
  6  8  2  0  0  0  0
  7  5  1  0  0  0  0
  7  9  1  0  0  0  0
  8  7  2  0  0  0  0
  9 10  1  0  0  0  0
 10 11  1  0  0  0  0
 11 12  1  0  0  0  0
 14 13  1  1  0  0  0
 19 16  1  6  0  0  0
 19 15  1  0  0  0  0
 20 18  1  1  0  0  0
 20 16  1  0  0  0  0
 21 19  1  0  0  0  0
 21 15  1  1  0  0  0
 22 17  1  6  0  0  0
 22 14  1  0  0  0  0
 22 21  1  0  0  0  0
 23 20  1  0  0  0  0
 23 22  1  0  0  0  0
 25 24  1  6  0  0  0
 25 26  1  0  0  0  0
 26 27  1  0  0  0  0
 27 28  2  0  0  0  0
 28 29  1  0  0  0  0
 30 29  1  0  0  0  0
M  END
>  <MODEL>
7

>  <REMARK>
 VINA RESULT:      -6.1      2.092      3.222
  Name = 
  12 active torsions:
  status: ('A' for Active; 'I' for Inactive)
    1  A    between atoms: C_4  and  C_19
    2  A    between atoms: N_6  and  CA_8
    3  A    between atoms: N_6  and  C_21
    4  A    between atoms: C_7  and  C_26
    5  A    between atoms: CA_8  and  C_30
    6  A    between atoms: C_9  and  C_21
    7  A    between atoms: C_10  and  C_15
    8  A    between atoms: C_10  and  C_25
    9  A    between atoms: N_13  and  C_30
   10  A    between atoms: C_19  and  C_24
   11  A    between atoms: C_19  and  C_25
   12  A    between atoms: C_24  and  C_28
                            x       y       z     vdW  Elec       q    Type
                         _______ _______ _______ _____ _____    ______ ____

>  <TORSDO>
F 12

$$$$
=
 OpenBabel10262422033D

 30 32  0  0  1  0  0  0  0  0999 V2000
  188.9590  177.1040  141.6470 C   0  0  2  0  0  3  0  0  0  0  0  0
  190.2170  176.5290  142.2920 C   0  0  2  0  0  3  0  0  0  0  0  0
  190.5500  177.3350  143.4750 N   0  0  0  0  0  0  0  0  0  0  0  0
  191.3240  177.4770  142.2370 C   0  0  0  0  0  2  0  0  0  0  0  0
  191.3060  176.4700  144.3680 C   0  0  0  0  0  2  0  0  0  0  0  0
  192.4290  175.8390  147.6390 O   0  0  0  0  0  0  0  0  0  0  0  0
  190.9620  176.7810  145.7880 C   0  0  0  0  0  0  0  0  0  0  0  0
  191.7140  176.2980  146.7360 C   0  0  0  0  0  0  0  0  0  0  0  0
  189.8670  177.6370  146.1260 N   0  0  0  0  0  2  0  0  0  0  0  0
  188.5650  177.1280  146.5170 C   0  0  0  0  0  2  0  0  0  0  0  0
  188.1080  177.8090  147.7920 C   0  0  0  0  0  2  0  0  0  0  0  0
  189.3250  178.3130  148.5400 C   0  0  0  0  0  1  0  0  0  0  0  0
  188.6800  179.4570  141.0830 O   0  0  0  0  0  1  0  0  0  0  0  0
  189.3470  178.2760  140.7290 C   0  0  2  0  0  3  0  0  0  0  0  0
  190.7000  176.0000  139.1160 O   0  0  0  0  0  0  0  0  0  0  0  0
  189.0750  175.5640  137.4320 C   0  0  0  0  0  2  0  0  0  0  0  0
  189.0550  179.1860  138.5500 O   0  0  0  0  0  1  0  0  0  0  0  0
  187.9460  177.5210  136.6250 O   0  0  0  0  0  1  0  0  0  0  0  0
  190.4480  176.1820  137.7360 C   0  0  1  0  0  3  0  0  0  0  0  0
  187.9150  176.5240  137.6080 C   0  0  2  0  0  3  0  0  0  0  0  0
  190.5470  177.3340  138.6930 C   0  0  1  0  0  3  0  0  0  0  0  0
  189.2370  177.9740  139.2240 C   0  0  1  0  0  0  0  0  0  0  0  0
  187.9770  177.1280  139.0030 C   0  0  0  0  0  2  0  0  0  0  0  0
  187.4090  176.3780  143.5940 C   0  0  0  0  0  1  0  0  0  0  0  0
  187.8460  177.4870  142.6470 C   0  0  2  0  0  3  0  0  0  0  0  0
  186.6620  178.1970  141.9950 C   0  0  0  0  0  2  0  0  0  0  0  0
  185.4760  178.2920  142.9030 C   0  0  0  0  0  3  0  0  0  0  0  0
  184.3180  178.7630  142.4430 C   0  0  0  0  0  3  0  0  0  0  0  0
  183.1120  178.8350  143.3270 C   0  0  0  0  0  2  0  0  0  0  0  0
  183.5360  179.0030  144.7720 C   0  0  0  0  0  1  0  0  0  0  0  0
  1 14  1  1  0  0  0
  1 25  1  0  0  0  0
  2  1  1  6  0  0  0
  2  3  1  0  0  0  0
  3  5  1  0  0  0  0
  4  2  1  0  0  0  0
  4  3  1  0  0  0  0
  5  7  1  0  0  0  0
  7  9  1  0  0  0  0
  7  8  2  0  0  0  0
  8  6  2  0  0  0  0
  9 10  1  0  0  0  0
 10 11  1  0  0  0  0
 11 12  1  0  0  0  0
 14 13  1  1  0  0  0
 16 20  1  0  0  0  0
 19 16  1  1  0  0  0
 19 21  1  0  0  0  0
 19 15  1  0  0  0  0
 20 18  1  6  0  0  0
 20 23  1  0  0  0  0
 21 15  1  1  0  0  0
 21 22  1  0  0  0  0
 22 17  1  6  0  0  0
 22 14  1  0  0  0  0
 23 22  1  0  0  0  0
 25 24  1  6  0  0  0
 26 25  1  0  0  0  0
 26 27  1  0  0  0  0
 28 27  2  0  0  0  0
 28 29  1  0  0  0  0
 29 30  1  0  0  0  0
M  END
>  <MODEL>
8

>  <REMARK>
 VINA RESULT:      -6.0      2.569      6.452
  Name = 
  12 active torsions:
  status: ('A' for Active; 'I' for Inactive)
    1  A    between atoms: C_4  and  C_19
    2  A    between atoms: N_6  and  CA_8
    3  A    between atoms: N_6  and  C_21
    4  A    between atoms: C_7  and  C_26
    5  A    between atoms: CA_8  and  C_30
    6  A    between atoms: C_9  and  C_21
    7  A    between atoms: C_10  and  C_15
    8  A    between atoms: C_10  and  C_25
    9  A    between atoms: N_13  and  C_30
   10  A    between atoms: C_19  and  C_24
   11  A    between atoms: C_19  and  C_25
   12  A    between atoms: C_24  and  C_28
                            x       y       z     vdW  Elec       q    Type
                         _______ _______ _______ _____ _____    ______ ____

>  <TORSDO>
F 12

$$$$
=
 OpenBabel10262422033D

 30 32  0  0  1  0  0  0  0  0999 V2000
  189.6470  177.5990  141.1320 C   0  0  2  0  0  3  0  0  0  0  0  0
  188.4550  177.2720  142.0290 C   0  0  2  0  0  3  0  0  0  0  0  0
  187.5390  178.4210  142.0330 N   0  0  0  0  0  0  0  0  0  0  0  0
  188.4030  178.1550  143.1880 C   0  0  0  0  0  2  0  0  0  0  0  0
  186.2180  177.8980  142.3440 C   0  0  0  0  0  2  0  0  0  0  0  0
  184.6660  179.7530  139.7920 O   0  0  0  0  0  0  0  0  0  0  0  0
  185.1910  178.9660  142.1520 C   0  0  0  0  0  0  0  0  0  0  0  0
  184.9230  179.3690  140.9420 C   0  0  0  0  0  0  0  0  0  0  0  0
  184.4610  179.5140  143.2540 N   0  0  0  0  0  2  0  0  0  0  0  0
  183.8290  178.6850  144.2650 C   0  0  0  0  0  2  0  0  0  0  0  0
  182.3490  179.0030  144.3380 C   0  0  0  0  0  2  0  0  0  0  0  0
  181.7130  178.6780  143.0030 C   0  0  0  0  0  1  0  0  0  0  0  0
  190.6640  176.0020  139.6000 O   0  0  0  0  0  1  0  0  0  0  0  0
  189.5330  176.7990  139.8230 C   0  0  2  0  0  3  0  0  0  0  0  0
  189.7320  176.0210  136.8290 O   0  0  0  0  0  0  0  0  0  0  0  0
  187.9010  177.2170  135.8920 C   0  0  0  0  0  2  0  0  0  0  0  0
  189.3910  178.9850  138.8950 O   0  0  0  0  0  1  0  0  0  0  0  0
  187.5350  179.3780  136.8680 O   0  0  0  0  0  1  0  0  0  0  0  0
  189.4290  177.1440  136.0250 C   0  0  1  0  0  3  0  0  0  0  0  0
  187.2240  178.0180  136.9870 C   0  0  2  0  0  3  0  0  0  0  0  0
  190.0610  177.2730  137.3800 C   0  0  1  0  0  3  0  0  0  0  0  0
  189.1610  177.6400  138.5890 C   0  0  1  0  0  0  0  0  0  0  0  0
  187.6570  177.4730  138.3400 C   0  0  0  0  0  2  0  0  0  0  0  0
  192.2240  177.5030  140.8760 C   0  0  0  0  0  1  0  0  0  0  0  0
  191.0230  177.4220  141.8090 C   0  0  2  0  0  3  0  0  0  0  0  0
  191.0910  176.2150  142.7420 C   0  0  0  0  0  2  0  0  0  0  0  0
  191.6470  176.5580  144.0880 C   0  0  0  0  0  3  0  0  0  0  0  0
  190.8580  176.5430  145.1610 C   0  0  0  0  0  3  0  0  0  0  0  0
  191.4010  176.8510  146.5200 C   0  0  0  0  0  2  0  0  0  0  0  0
  192.0900  175.6300  147.0940 C   0  0  0  0  0  1  0  0  0  0  0  0
  1 14  1  6  0  0  0
  1 25  1  0  0  0  0
  2  1  1  6  0  0  0
  2  3  1  0  0  0  0
  2  4  1  0  0  0  0
  3  5  1  0  0  0  0
  3  4  1  0  0  0  0
  6  8  2  0  0  0  0
  7  5  1  0  0  0  0
  7  9  1  0  0  0  0
  8  7  2  0  0  0  0
  9 10  1  0  0  0  0
 10 11  1  0  0  0  0
 12 11  1  0  0  0  0
 14 13  1  6  0  0  0
 16 20  1  0  0  0  0
 19 16  1  1  0  0  0
 19 15  1  0  0  0  0
 19 21  1  0  0  0  0
 20 18  1  1  0  0  0
 20 23  1  0  0  0  0
 21 15  1  1  0  0  0
 21 22  1  0  0  0  0
 22 17  1  1  0  0  0
 22 14  1  0  0  0  0
 23 22  1  0  0  0  0
 25 24  1  6  0  0  0
 25 26  1  0  0  0  0
 26 27  1  0  0  0  0
 27 28  2  0  0  0  0
 28 29  1  0  0  0  0
 29 30  1  0  0  0  0
M  END
>  <MODEL>
9

>  <REMARK>
 VINA RESULT:      -6.0      1.709      3.140
  Name = 
  12 active torsions:
  status: ('A' for Active; 'I' for Inactive)
    1  A    between atoms: C_4  and  C_19
    2  A    between atoms: N_6  and  CA_8
    3  A    between atoms: N_6  and  C_21
    4  A    between atoms: C_7  and  C_26
    5  A    between atoms: CA_8  and  C_30
    6  A    between atoms: C_9  and  C_21
    7  A    between atoms: C_10  and  C_15
    8  A    between atoms: C_10  and  C_25
    9  A    between atoms: N_13  and  C_30
   10  A    between atoms: C_19  and  C_24
   11  A    between atoms: C_19  and  C_25
   12  A    between atoms: C_24  and  C_28
                            x       y       z     vdW  Elec       q    Type
                         _______ _______ _______ _____ _____    ______ ____

>  <TORSDO>
F 12

$$$$
