=
 OpenBabel10262420033D

 27 32  0  0  1  0  0  0  0  0999 V2000
  188.4470  177.1270  146.2130 C   0  0  1  0  0  3  0  0  0  0  0  0
  190.0560  178.4270  145.0510 N   0  0  0  0  0  0  0  0  0  0  0  0
  188.0970  177.1260  144.6980 C   0  0  2  0  0  3  0  0  0  0  0  0
  191.7330  177.8420  141.2450 C   0  0  0  0  0  2  0  0  0  0  0  0
  190.1380  176.4970  139.7780 C   0  0  0  0  0  2  0  0  0  0  0  0
  191.3410  178.8930  144.7160 N   0  0  0  0  0  0  0  0  0  0  0  0
  188.8540  177.1510  141.7840 N   0  0  0  0  0  2  0  0  0  0  0  0
  184.6460  178.5530  143.8420 C   0  0  0  0  0  3  0  0  0  0  0  0
  189.4030  176.0280  141.0370 C   0  0  0  0  0  2  0  0  0  0  0  0
  184.2810  178.9360  145.1480 C   0  0  0  0  0  3  0  0  0  0  0  0
  189.8050  177.4460  142.8510 C   0  0  1  0  0  3  0  0  0  0  0  0
  189.7310  177.9290  146.3760 C   0  0  2  0  0  3  0  0  0  0  0  0
  190.9410  177.7920  139.9450 C   0  0  0  0  0  2  0  0  0  0  0  0
  190.8750  178.4360  142.3570 C   0  0  1  0  0  3  0  0  0  0  0  0
  187.3640  177.7900  146.8660 O   0  0  0  0  0  0  0  0  0  0  0  0
  189.0820  178.0790  144.0330 C   0  0  2  0  0  3  0  0  0  0  0  0
  185.8870  177.9420  143.6010 C   0  0  0  0  0  3  0  0  0  0  0  0
  191.7580  178.8970  143.4840 C   0  0  0  0  0  3  0  0  0  0  0  0
  185.1560  178.7090  146.2230 C   0  0  0  0  0  3  0  0  0  0  0  0
  186.3800  178.0990  145.9530 C   0  0  0  0  0  0  0  0  0  0  0  0
  186.7370  177.7280  144.6870 C   0  0  0  0  0  0  0  0  0  0  0  0
  192.8640  175.4400  147.9560 C   0  0  0  0  0  3  0  0  0  0  0  0
  190.8220  177.0510  146.9130 C   0  0  0  0  0  0  0  0  0  0  0  0
  191.2930  175.9440  146.1850 C   0  0  0  0  0  3  0  0  0  0  0  0
  192.3110  175.1420  146.7060 C   0  0  0  0  0  3  0  0  0  0  0  0
  192.3980  176.5390  148.6830 C   0  0  0  0  0  3  0  0  0  0  0  0
  191.3790  177.3420  148.1620 C   0  0  0  0  0  3  0  0  0  0  0  0
  1 12  1  0  0  0  0
  1 15  1  1  0  0  0
  2 12  1  0  0  0  0
  3 21  1  1  0  0  0
  3  1  1  0  0  0  0
  5 13  1  0  0  0  0
  5  9  1  0  0  0  0
  6  2  1  0  0  0  0
  8 10  1  0  0  0  0
  9  7  1  0  0  0  0
 10 19  2  0  0  0  0
 11  7  1  6  0  0  0
 11 16  1  0  0  0  0
 12 23  1  6  0  0  0
 13  4  1  0  0  0  0
 14  4  1  6  0  0  0
 14 11  1  0  0  0  0
 14 18  1  0  0  0  0
 16  3  1  0  0  0  0
 16  2  1  1  0  0  0
 17  8  2  0  0  0  0
 17 21  1  0  0  0  0
 18  6  2  0  0  0  0
 20 19  1  0  0  0  0
 20 15  1  0  0  0  0
 21 20  2  0  0  0  0
 22 26  1  0  0  0  0
 23 27  1  0  0  0  0
 24 25  1  0  0  0  0
 24 23  2  0  0  0  0
 25 22  2  0  0  0  0
 27 26  2  0  0  0  0
M  END
>  <MODEL>
1

>  <REMARK>
 VINA RESULT:      -7.3      0.000      0.000
  Name = 
  1 active torsions:
  status: ('A' for Active; 'I' for Inactive)
    1  A    between atoms: C_9  and  C_15
                            x       y       z     vdW  Elec       q    Type
                         _______ _______ _______ _____ _____    ______ ____

>  <TORSDO>
F 1

$$$$
=
 OpenBabel10262420033D

 27 32  0  0  1  0  0  0  0  0999 V2000
  188.7450  177.8150  138.9950 C   0  0  1  0  0  3  0  0  0  0  0  0
  189.0740  175.6280  138.1370 N   0  0  0  0  0  0  0  0  0  0  0  0
  190.2540  177.4550  139.0990 C   0  0  2  0  0  3  0  0  0  0  0  0
  192.2880  174.0730  135.9240 C   0  0  0  0  0  2  0  0  0  0  0  0
  194.4140  175.3950  136.4130 C   0  0  0  0  0  2  0  0  0  0  0  0
  188.9190  174.5590  137.2350 N   0  0  0  0  0  0  0  0  0  0  0  0
  192.7510  176.1060  138.0950 N   0  0  0  0  0  2  0  0  0  0  0  0
  191.6800  177.5090  142.6550 C   0  0  0  0  0  3  0  0  0  0  0  0
  193.5560  176.5390  136.9620 C   0  0  0  0  0  2  0  0  0  0  0  0
  190.4760  177.7980  143.3270 C   0  0  0  0  0  3  0  0  0  0  0  0
  191.4230  175.8030  137.5710 C   0  0  1  0  0  3  0  0  0  0  0  0
  188.0470  176.6370  138.3290 C   0  0  2  0  0  3  0  0  0  0  0  0
  193.7320  174.0230  136.4080 C   0  0  0  0  0  2  0  0  0  0  0  0
  191.3530  174.3400  137.0990 C   0  0  1  0  0  3  0  0  0  0  0  0
  188.2840  177.9680  140.3380 O   0  0  0  0  0  0  0  0  0  0  0  0
  190.3760  176.0010  138.6600 C   0  0  2  0  0  3  0  0  0  0  0  0
  191.7010  177.3840  141.2570 C   0  0  0  0  0  3  0  0  0  0  0  0
  189.9490  173.9500  136.7240 C   0  0  0  0  0  3  0  0  0  0  0  0
  189.2830  177.9650  142.6040 C   0  0  0  0  0  3  0  0  0  0  0  0
  189.3360  177.8360  141.2170 C   0  0  0  0  0  0  0  0  0  0  0  0
  190.5020  177.5540  140.5630 C   0  0  0  0  0  0  0  0  0  0  0  0
  186.2870  177.8410  134.5940 C   0  0  0  0  0  3  0  0  0  0  0  0
  187.4490  177.0650  137.0220 C   0  0  0  0  0  0  0  0  0  0  0  0
  188.2100  177.7520  136.0610 C   0  0  0  0  0  3  0  0  0  0  0  0
  187.6290  178.1390  134.8510 C   0  0  0  0  0  3  0  0  0  0  0  0
  185.5260  177.1590  135.5480 C   0  0  0  0  0  3  0  0  0  0  0  0
  186.1060  176.7720  136.7590 C   0  0  0  0  0  3  0  0  0  0  0  0
  1  3  1  0  0  0  0
  1 15  1  1  0  0  0
  2 12  1  0  0  0  0
  3 21  1  1  0  0  0
  4 13  1  0  0  0  0
  5  9  1  0  0  0  0
  6  2  1  0  0  0  0
  8 10  1  0  0  0  0
  9  7  1  0  0  0  0
 11  7  1  1  0  0  0
 11 16  1  0  0  0  0
 12 23  1  6  0  0  0
 12  1  1  0  0  0  0
 13  5  1  0  0  0  0
 14  4  1  6  0  0  0
 14 11  1  0  0  0  0
 15 20  1  0  0  0  0
 16  2  1  6  0  0  0
 16  3  1  0  0  0  0
 17  8  2  0  0  0  0
 18 14  1  0  0  0  0
 18  6  2  0  0  0  0
 19 10  2  0  0  0  0
 20 19  1  0  0  0  0
 21 20  2  0  0  0  0
 21 17  1  0  0  0  0
 22 25  2  0  0  0  0
 22 26  1  0  0  0  0
 24 23  2  0  0  0  0
 25 24  1  0  0  0  0
 26 27  2  0  0  0  0
 27 23  1  0  0  0  0
M  END
>  <MODEL>
2

>  <REMARK>
 VINA RESULT:      -6.6      4.213      8.447
  Name = 
  1 active torsions:
  status: ('A' for Active; 'I' for Inactive)
    1  A    between atoms: C_9  and  C_15
                            x       y       z     vdW  Elec       q    Type
                         _______ _______ _______ _____ _____    ______ ____

>  <TORSDO>
F 1

$$$$
=
 OpenBabel10262420033D

 27 32  0  0  1  0  0  0  0  0999 V2000
  183.2140  178.4300  143.0570 C   0  0  1  0  0  3  0  0  0  0  0  0
  184.5520  179.1490  141.2340 N   0  0  0  0  0  0  0  0  0  0  0  0
  182.5540  177.9590  141.7300 C   0  0  2  0  0  3  0  0  0  0  0  0
  185.3880  177.2190  137.5990 C   0  0  0  0  0  2  0  0  0  0  0  0
  183.5110  175.5950  137.0130 C   0  0  0  0  0  2  0  0  0  0  0  0
  185.7420  179.3770  140.5170 N   0  0  0  0  0  0  0  0  0  0  0  0
  182.6820  176.9680  138.8910 N   0  0  0  0  0  2  0  0  0  0  0  0
  179.0100  179.2890  141.1350 C   0  0  0  0  0  3  0  0  0  0  0  0
  183.0540  175.6230  138.4740 C   0  0  0  0  0  2  0  0  0  0  0  0
  178.9310  180.1070  142.2800 C   0  0  0  0  0  3  0  0  0  0  0  0
  183.8370  177.5220  139.5880 C   0  0  1  0  0  3  0  0  0  0  0  0
  184.5100  179.1400  142.6860 C   0  0  2  0  0  3  0  0  0  0  0  0
  184.3400  176.8060  136.5730 C   0  0  0  0  0  2  0  0  0  0  0  0
  184.7870  178.2100  138.5900 C   0  0  1  0  0  3  0  0  0  0  0  0
  182.2970  179.3530  143.6460 O   0  0  0  0  0  0  0  0  0  0  0  0
  183.3830  178.5620  140.6040 C   0  0  2  0  0  3  0  0  0  0  0  0
  180.1690  178.5390  140.8770 C   0  0  0  0  0  3  0  0  0  0  0  0
  185.8910  178.9450  139.3000 C   0  0  0  0  0  3  0  0  0  0  0  0
  180.0100  180.1780  143.1760 C   0  0  0  0  0  3  0  0  0  0  0  0
  181.1450  179.4210  142.8930 C   0  0  0  0  0  0  0  0  0  0  0  0
  181.2260  178.6290  141.7830 C   0  0  0  0  0  0  0  0  0  0  0  0
  187.8560  177.0400  144.3890 C   0  0  0  0  0  3  0  0  0  0  0  0
  185.6820  178.4040  143.2630 C   0  0  0  0  0  0  0  0  0  0  0  0
  186.6910  177.8760  142.4390 C   0  0  0  0  0  3  0  0  0  0  0  0
  187.7730  177.1950  143.0010 C   0  0  0  0  0  3  0  0  0  0  0  0
  186.8540  177.5630  145.2120 C   0  0  0  0  0  3  0  0  0  0  0  0
  185.7700  178.2430  144.6500 C   0  0  0  0  0  3  0  0  0  0  0  0
  1 15  1  6  0  0  0
  2 12  1  0  0  0  0
  3 21  1  1  0  0  0
  3  1  1  0  0  0  0
  5  9  1  0  0  0  0
  6  2  1  0  0  0  0
  8 10  1  0  0  0  0
  9  7  1  0  0  0  0
 10 19  2  0  0  0  0
 11  7  1  6  0  0  0
 11 16  1  0  0  0  0
 12  1  1  0  0  0  0
 12 23  1  1  0  0  0
 13  5  1  0  0  0  0
 13  4  1  0  0  0  0
 14  4  1  6  0  0  0
 14 18  1  0  0  0  0
 14 11  1  0  0  0  0
 16  2  1  1  0  0  0
 16  3  1  0  0  0  0
 17  8  2  0  0  0  0
 17 21  1  0  0  0  0
 18  6  2  0  0  0  0
 20 19  1  0  0  0  0
 20 15  1  0  0  0  0
 21 20  2  0  0  0  0
 22 26  1  0  0  0  0
 23 27  1  0  0  0  0
 24 25  1  0  0  0  0
 24 23  2  0  0  0  0
 25 22  2  0  0  0  0
 27 26  2  0  0  0  0
M  END
>  <MODEL>
3

>  <REMARK>
 VINA RESULT:      -6.5      4.491      6.630
  Name = 
  1 active torsions:
  status: ('A' for Active; 'I' for Inactive)
    1  A    between atoms: C_9  and  C_15
                            x       y       z     vdW  Elec       q    Type
                         _______ _______ _______ _____ _____    ______ ____

>  <TORSDO>
F 1

$$$$
=
 OpenBabel10262420033D

 27 32  0  0  1  0  0  0  0  0999 V2000
  185.5500  177.9320  141.2610 C   0  0  1  0  0  3  0  0  0  0  0  0
  184.3500  179.6050  140.0820 N   0  0  0  0  0  0  0  0  0  0  0  0
  184.0950  177.9880  141.8070 C   0  0  2  0  0  3  0  0  0  0  0  0
  180.3320  179.6600  138.8580 C   0  0  0  0  0  2  0  0  0  0  0  0
  178.9310  178.1600  140.3720 C   0  0  0  0  0  2  0  0  0  0  0  0
  183.9160  180.3320  138.9570 N   0  0  0  0  0  0  0  0  0  0  0  0
  181.1320  178.3930  141.4680 N   0  0  0  0  0  2  0  0  0  0  0  0
  183.8070  178.7980  145.5410 C   0  0  0  0  0  3  0  0  0  0  0  0
  180.2110  177.4590  140.8340 C   0  0  0  0  0  2  0  0  0  0  0  0
  185.1800  178.9970  145.7880 C   0  0  0  0  0  3  0  0  0  0  0  0
  182.1040  178.7760  140.4500 C   0  0  1  0  0  3  0  0  0  0  0  0
  185.6450  178.9490  140.1300 C   0  0  2  0  0  3  0  0  0  0  0  0
  179.1370  179.5650  139.7980 C   0  0  0  0  0  2  0  0  0  0  0  0
  181.5930  179.9880  139.6500 C   0  0  1  0  0  3  0  0  0  0  0  0
  186.3920  178.3230  142.3470 O   0  0  0  0  0  0  0  0  0  0  0  0
  183.4230  179.1620  141.1080 C   0  0  2  0  0  3  0  0  0  0  0  0
  183.3590  178.4550  144.2550 C   0  0  0  0  0  3  0  0  0  0  0  0
  182.6510  180.5150  138.7180 C   0  0  0  0  0  3  0  0  0  0  0  0
  186.1150  178.8550  144.7490 C   0  0  0  0  0  3  0  0  0  0  0  0
  185.6400  178.5130  143.4850 C   0  0  0  0  0  0  0  0  0  0  0  0
  184.3090  178.3200  143.2410 C   0  0  0  0  0  0  0  0  0  0  0  0
  186.5800  176.9680  136.4280 C   0  0  0  0  0  3  0  0  0  0  0  0
  185.9530  178.2530  138.8380 C   0  0  0  0  0  0  0  0  0  0  0  0
  184.9450  177.6250  138.0880 C   0  0  0  0  0  3  0  0  0  0  0  0
  185.2590  176.9840  136.8870 C   0  0  0  0  0  3  0  0  0  0  0  0
  187.5860  177.5900  137.1720 C   0  0  0  0  0  3  0  0  0  0  0  0
  187.2730  178.2310  138.3750 C   0  0  0  0  0  3  0  0  0  0  0  0
  1  3  1  0  0  0  0
  1 15  1  1  0  0  0
  2 12  1  0  0  0  0
  3 21  1  1  0  0  0
  4 14  1  0  0  0  0
  4 13  1  0  0  0  0
  5  9  1  0  0  0  0
  6  2  1  0  0  0  0
  8 10  1  0  0  0  0
  9  7  1  0  0  0  0
 11 16  1  0  0  0  0
 11  7  1  1  0  0  0
 12 23  1  6  0  0  0
 12  1  1  0  0  0  0
 13  5  1  0  0  0  0
 14 18  1  6  0  0  0
 14 11  1  0  0  0  0
 15 20  1  0  0  0  0
 16  2  1  6  0  0  0
 16  3  1  0  0  0  0
 17  8  2  0  0  0  0
 18  6  2  0  0  0  0
 19 10  2  0  0  0  0
 20 19  1  0  0  0  0
 21 20  2  0  0  0  0
 21 17  1  0  0  0  0
 22 25  2  0  0  0  0
 22 26  1  0  0  0  0
 24 23  2  0  0  0  0
 25 24  1  0  0  0  0
 26 27  2  0  0  0  0
 27 23  1  0  0  0  0
M  END
>  <MODEL>
4

>  <REMARK>
 VINA RESULT:      -6.4      5.010      8.565
  Name = 
  1 active torsions:
  status: ('A' for Active; 'I' for Inactive)
    1  A    between atoms: C_9  and  C_15
                            x       y       z     vdW  Elec       q    Type
                         _______ _______ _______ _____ _____    ______ ____

>  <TORSDO>
F 1

$$$$
=
 OpenBabel10262420033D

 27 32  0  0  1  0  0  0  0  0999 V2000
  189.2680  174.9750  136.7750 C   0  0  1  0  0  3  0  0  0  0  0  0
  188.2740  176.9220  137.6970 N   0  0  0  0  0  0  0  0  0  0  0  0
  190.1650  175.5000  137.9320 C   0  0  2  0  0  3  0  0  0  0  0  0
  188.1390  178.2300  141.6860 C   0  0  0  0  0  2  0  0  0  0  0  0
  190.1140  177.2800  142.9900 C   0  0  0  0  0  2  0  0  0  0  0  0
  187.2310  177.7300  138.1890 N   0  0  0  0  0  0  0  0  0  0  0  0
  190.5690  176.8200  140.6060 N   0  0  0  0  0  2  0  0  0  0  0  0
  193.7390  176.4230  136.9050 C   0  0  0  0  0  3  0  0  0  0  0  0
  190.2980  176.2160  141.9040 C   0  0  0  0  0  2  0  0  0  0  0  0
  193.5970  176.1800  135.5240 C   0  0  0  0  0  3  0  0  0  0  0  0
  189.2980  176.8560  139.8910 C   0  0  1  0  0  3  0  0  0  0  0  0
  188.0520  175.8890  136.7000 C   0  0  2  0  0  3  0  0  0  0  0  0
  189.3620  178.5370  142.5410 C   0  0  0  0  0  2  0  0  0  0  0  0
  188.5370  178.1540  140.2150 C   0  0  1  0  0  3  0  0  0  0  0  0
  190.0500  175.0960  135.5860 O   0  0  0  0  0  0  0  0  0  0  0  0
  189.5460  176.8150  138.3880 C   0  0  2  0  0  3  0  0  0  0  0  0
  192.6570  176.2190  137.7770 C   0  0  0  0  0  3  0  0  0  0  0  0
  187.3120  178.3020  139.3540 C   0  0  0  0  0  3  0  0  0  0  0  0
  192.3720  175.7300  135.0060 C   0  0  0  0  0  3  0  0  0  0  0  0
  191.3180  175.5350  135.8960 C   0  0  0  0  0  0  0  0  0  0  0  0
  191.4510  175.7710  137.2360 C   0  0  0  0  0  0  0  0  0  0  0  0
  184.5010  173.6090  137.5370 C   0  0  0  0  0  3  0  0  0  0  0  0
  186.8040  175.1090  136.9900 C   0  0  0  0  0  0  0  0  0  0  0  0
  185.5350  175.7110  136.9290 C   0  0  0  0  0  3  0  0  0  0  0  0
  184.3880  174.9620  137.2030 C   0  0  0  0  0  3  0  0  0  0  0  0
  185.7610  173.0060  137.5990 C   0  0  0  0  0  3  0  0  0  0  0  0
  186.9090  173.7550  137.3270 C   0  0  0  0  0  3  0  0  0  0  0  0
  1 15  1  6  0  0  0
  1  3  1  0  0  0  0
  2  6  1  0  0  0  0
  3 21  1  6  0  0  0
  3 16  1  0  0  0  0
  4 13  1  0  0  0  0
  6 18  2  0  0  0  0
  7  9  1  0  0  0  0
  8 17  1  0  0  0  0
  9  5  1  0  0  0  0
 10  8  2  0  0  0  0
 11 14  1  0  0  0  0
 11  7  1  1  0  0  0
 12  1  1  0  0  0  0
 12 23  1  1  0  0  0
 12  2  1  0  0  0  0
 13  5  1  0  0  0  0
 14 18  1  6  0  0  0
 14  4  1  0  0  0  0
 15 20  1  0  0  0  0
 16  2  1  6  0  0  0
 16 11  1  0  0  0  0
 19 10  1  0  0  0  0
 19 20  2  0  0  0  0
 20 21  1  0  0  0  0
 21 17  2  0  0  0  0
 22 26  1  0  0  0  0
 23 27  1  0  0  0  0
 24 23  2  0  0  0  0
 24 25  1  0  0  0  0
 25 22  2  0  0  0  0
 27 26  2  0  0  0  0
M  END
>  <MODEL>
5

>  <REMARK>
 VINA RESULT:      -6.2      4.483      9.324
  Name = 
  1 active torsions:
  status: ('A' for Active; 'I' for Inactive)
    1  A    between atoms: C_9  and  C_15
                            x       y       z     vdW  Elec       q    Type
                         _______ _______ _______ _____ _____    ______ ____

>  <TORSDO>
F 1

$$$$
=
 OpenBabel10262420033D

 27 32  0  0  1  0  0  0  0  0999 V2000
  183.4660  179.3390  140.7570 C   0  0  1  0  0  3  0  0  0  0  0  0
  183.3570  177.5940  139.1520 N   0  0  0  0  0  0  0  0  0  0  0  0
  184.9050  179.0150  140.2650 C   0  0  2  0  0  3  0  0  0  0  0  0
  185.6350  177.0060  135.6740 C   0  0  0  0  0  2  0  0  0  0  0  0
  187.9040  178.1480  135.9050 C   0  0  0  0  0  2  0  0  0  0  0  0
  182.8580  176.8970  138.0360 N   0  0  0  0  0  0  0  0  0  0  0  0
  186.8780  178.1790  138.1510 N   0  0  0  0  0  2  0  0  0  0  0  0
  187.3280  177.8870  143.0110 C   0  0  0  0  0  3  0  0  0  0  0  0
  187.3390  179.0030  137.0420 C   0  0  0  0  0  2  0  0  0  0  0  0
  186.4040  177.8860  144.0760 C   0  0  0  0  0  3  0  0  0  0  0  0
  185.4350  178.0320  137.9890 C   0  0  1  0  0  3  0  0  0  0  0  0
  182.5130  178.4400  139.9800 C   0  0  2  0  0  3  0  0  0  0  0  0
  187.1490  176.8400  135.6450 C   0  0  0  0  0  2  0  0  0  0  0  0
  185.1170  176.8190  137.0960 C   0  0  1  0  0  3  0  0  0  0  0  0
  183.4400  179.0030  142.1450 O   0  0  0  0  0  0  0  0  0  0  0  0
  184.7790  177.8070  139.3460 C   0  0  2  0  0  3  0  0  0  0  0  0
  186.9200  178.2530  141.7180 C   0  0  0  0  0  3  0  0  0  0  0  0
  183.6400  176.5370  137.0610 C   0  0  0  0  0  3  0  0  0  0  0  0
  185.0660  178.2530  143.8540 C   0  0  0  0  0  3  0  0  0  0  0  0
  184.6930  178.6120  142.5600 C   0  0  0  0  0  0  0  0  0  0  0  0
  185.5850  178.6120  141.5250 C   0  0  0  0  0  0  0  0  0  0  0  0
  179.8150  180.7970  137.5980 C   0  0  0  0  0  3  0  0  0  0  0  0
  181.5860  179.2720  139.1440 C   0  0  0  0  0  0  0  0  0  0  0  0
  182.0650  180.3420  138.3690 C   0  0  0  0  0  3  0  0  0  0  0  0
  181.1800  181.1020  137.5990 C   0  0  0  0  0  3  0  0  0  0  0  0
  179.3360  179.7340  138.3690 C   0  0  0  0  0  3  0  0  0  0  0  0
  180.2190  178.9740  139.1400 C   0  0  0  0  0  3  0  0  0  0  0  0
  1 15  1  1  0  0  0
  2 12  1  0  0  0  0
  3  1  1  0  0  0  0
  3 21  1  1  0  0  0
  5  9  1  0  0  0  0
  6  2  1  0  0  0  0
  8 10  1  0  0  0  0
  9  7  1  0  0  0  0
 11  7  1  1  0  0  0
 11 16  1  0  0  0  0
 12 23  1  6  0  0  0
 12  1  1  0  0  0  0
 13  4  1  0  0  0  0
 13  5  1  0  0  0  0
 14  4  1  6  0  0  0
 14 11  1  0  0  0  0
 15 20  1  0  0  0  0
 16  2  1  6  0  0  0
 16  3  1  0  0  0  0
 17  8  2  0  0  0  0
 18 14  1  0  0  0  0
 18  6  2  0  0  0  0
 19 10  2  0  0  0  0
 20 19  1  0  0  0  0
 21 17  1  0  0  0  0
 21 20  2  0  0  0  0
 22 25  2  0  0  0  0
 22 26  1  0  0  0  0
 24 23  2  0  0  0  0
 25 24  1  0  0  0  0
 26 27  2  0  0  0  0
 27 23  1  0  0  0  0
M  END
>  <MODEL>
6

>  <REMARK>
 VINA RESULT:      -6.1      5.228      9.173
  Name = 
  1 active torsions:
  status: ('A' for Active; 'I' for Inactive)
    1  A    between atoms: C_9  and  C_15
                            x       y       z     vdW  Elec       q    Type
                         _______ _______ _______ _____ _____    ______ ____

>  <TORSDO>
F 1

$$$$
=
 OpenBabel10262420033D

 27 32  0  0  1  0  0  0  0  0999 V2000
  183.0820  178.9770  139.5630 C   0  0  1  0  0  3  0  0  0  0  0  0
  185.2470  178.6730  138.6410 N   0  0  0  0  0  0  0  0  0  0  0  0
  182.9870  177.9850  138.3700 C   0  0  2  0  0  3  0  0  0  0  0  0
  187.0120  175.2190  137.0310 C   0  0  0  0  0  2  0  0  0  0  0  0
  185.2120  173.6350  136.1610 C   0  0  0  0  0  2  0  0  0  0  0  0
  186.6380  178.4620  138.6560 N   0  0  0  0  0  0  0  0  0  0  0  0
  184.0800  175.7770  136.6420 N   0  0  0  0  0  2  0  0  0  0  0  0
  180.6830  179.1100  135.5220 C   0  0  0  0  0  3  0  0  0  0  0  0
  184.1760  174.3710  137.0130 C   0  0  0  0  0  2  0  0  0  0  0  0
  180.3440  180.3710  136.0530 C   0  0  0  0  0  3  0  0  0  0  0  0
  184.9020  176.5160  137.5940 C   0  0  1  0  0  3  0  0  0  0  0  0
  184.5510  179.3460  139.7240 C   0  0  2  0  0  3  0  0  0  0  0  0
  186.4720  174.4440  135.8350 C   0  0  0  0  0  2  0  0  0  0  0  0
  186.3570  176.5940  137.0990 C   0  0  1  0  0  3  0  0  0  0  0  0
  182.3240  180.1260  139.1810 O   0  0  0  0  0  0  0  0  0  0  0  0
  184.3740  177.9370  137.7440 C   0  0  2  0  0  3  0  0  0  0  0  0
  181.5460  178.2530  136.2240 C   0  0  0  0  0  3  0  0  0  0  0  0
  187.1840  177.5030  137.9680 C   0  0  0  0  0  3  0  0  0  0  0  0
  180.8670  180.7820  137.2900 C   0  0  0  0  0  3  0  0  0  0  0  0
  181.7180  179.9090  137.9630 C   0  0  0  0  0  0  0  0  0  0  0  0
  182.0500  178.6860  137.4510 C   0  0  0  0  0  0  0  0  0  0  0  0
  185.9400  178.0420  143.5810 C   0  0  0  0  0  3  0  0  0  0  0  0
  185.0520  178.8900  141.0620 C   0  0  0  0  0  0  0  0  0  0  0  0
  186.4220  178.6760  141.2950 C   0  0  0  0  0  3  0  0  0  0  0  0
  186.8630  178.2530  142.5510 C   0  0  0  0  0  3  0  0  0  0  0  0
  184.5770  178.2530  143.3530 C   0  0  0  0  0  3  0  0  0  0  0  0
  184.1350  178.6760  142.0960 C   0  0  0  0  0  3  0  0  0  0  0  0
  1 15  1  6  0  0  0
  1 12  1  0  0  0  0
  2  6  1  0  0  0  0
  2 12  1  0  0  0  0
  3 21  1  6  0  0  0
  3  1  1  0  0  0  0
  5  9  1  0  0  0  0
  7  9  1  0  0  0  0
  8 10  2  0  0  0  0
  8 17  1  0  0  0  0
 10 19  1  0  0  0  0
 11  7  1  6  0  0  0
 11 16  1  0  0  0  0
 12 23  1  1  0  0  0
 13  5  1  0  0  0  0
 13  4  1  0  0  0  0
 14  4  1  1  0  0  0
 14 11  1  0  0  0  0
 14 18  1  0  0  0  0
 16  3  1  0  0  0  0
 16  2  1  1  0  0  0
 17 21  2  0  0  0  0
 18  6  2  0  0  0  0
 19 20  2  0  0  0  0
 20 15  1  0  0  0  0
 21 20  1  0  0  0  0
 23 24  2  0  0  0  0
 23 27  1  0  0  0  0
 24 25  1  0  0  0  0
 25 22  2  0  0  0  0
 26 22  1  0  0  0  0
 27 26  2  0  0  0  0
M  END
>  <MODEL>
7

>  <REMARK>
 VINA RESULT:      -6.1      5.811      8.282
  Name = 
  1 active torsions:
  status: ('A' for Active; 'I' for Inactive)
    1  A    between atoms: C_9  and  C_15
                            x       y       z     vdW  Elec       q    Type
                         _______ _______ _______ _____ _____    ______ ____

>  <TORSDO>
F 1

$$$$
=
 OpenBabel10262420033D

 27 32  0  0  1  0  0  0  0  0999 V2000
  188.6830  177.1420  139.6030 C   0  0  1  0  0  3  0  0  0  0  0  0
  190.9940  177.6680  139.4900 N   0  0  0  0  0  0  0  0  0  0  0  0
  189.3070  176.4140  138.3790 C   0  0  2  0  0  3  0  0  0  0  0  0
  194.2370  175.2590  138.3430 C   0  0  0  0  0  2  0  0  0  0  0  0
  193.4500  173.4160  136.7670 C   0  0  0  0  0  2  0  0  0  0  0  0
  192.2960  177.8760  139.9820 N   0  0  0  0  0  0  0  0  0  0  0  0
  191.5660  174.9980  136.9820 N   0  0  0  0  0  2  0  0  0  0  0  0
  187.7610  177.3400  134.9970 C   0  0  0  0  0  3  0  0  0  0  0  0
  192.0150  173.6380  137.2510 C   0  0  0  0  0  2  0  0  0  0  0  0
  186.8660  178.3200  135.4710 C   0  0  0  0  0  3  0  0  0  0  0  0
  191.7480  175.7480  138.2200 C   0  0  1  0  0  3  0  0  0  0  0  0
  189.8110  177.8870  140.3040 C   0  0  2  0  0  3  0  0  0  0  0  0
  194.3930  174.6050  136.9760 C   0  0  0  0  0  2  0  0  0  0  0  0
  193.1660  176.3430  138.2840 C   0  0  1  0  0  3  0  0  0  0  0  0
  187.7370  178.0700  139.0690 O   0  0  0  0  0  0  0  0  0  0  0  0
  190.7480  176.8960  138.2850 C   0  0  2  0  0  3  0  0  0  0  0  0
  188.6010  176.6550  135.8890 C   0  0  0  0  0  3  0  0  0  0  0  0
  193.3210  177.2690  139.4600 C   0  0  0  0  0  3  0  0  0  0  0  0
  186.8060  178.6210  136.8420 C   0  0  0  0  0  3  0  0  0  0  0  0
  187.6510  177.9230  137.7020 C   0  0  0  0  0  0  0  0  0  0  0  0
  188.5210  176.9730  137.2450 C   0  0  0  0  0  0  0  0  0  0  0  0
  190.3350  176.3950  144.3050 C   0  0  0  0  0  3  0  0  0  0  0  0
  189.9970  177.3500  141.6930 C   0  0  0  0  0  0  0  0  0  0  0  0
  190.3500  176.0080  141.9160 C   0  0  0  0  0  3  0  0  0  0  0  0
  190.5180  175.5340  143.2190 C   0  0  0  0  0  3  0  0  0  0  0  0
  189.9820  177.7300  144.0880 C   0  0  0  0  0  3  0  0  0  0  0  0
  189.8130  178.2060  142.7840 C   0  0  0  0  0  3  0  0  0  0  0  0
  1 15  1  6  0  0  0
  1 12  1  0  0  0  0
  2  6  1  0  0  0  0
  2 12  1  0  0  0  0
  3 21  1  6  0  0  0
  3  1  1  0  0  0  0
  5 13  1  0  0  0  0
  5  9  1  0  0  0  0
  7  9  1  0  0  0  0
  8 10  2  0  0  0  0
  8 17  1  0  0  0  0
 10 19  1  0  0  0  0
 11  7  1  6  0  0  0
 11 14  1  0  0  0  0
 11 16  1  0  0  0  0
 12 23  1  1  0  0  0
 13  4  1  0  0  0  0
 14  4  1  1  0  0  0
 14 18  1  0  0  0  0
 16  3  1  0  0  0  0
 16  2  1  1  0  0  0
 17 21  2  0  0  0  0
 18  6  2  0  0  0  0
 19 20  2  0  0  0  0
 20 15  1  0  0  0  0
 21 20  1  0  0  0  0
 23 24  2  0  0  0  0
 23 27  1  0  0  0  0
 24 25  1  0  0  0  0
 25 22  2  0  0  0  0
 26 22  1  0  0  0  0
 27 26  2  0  0  0  0
M  END
>  <MODEL>
8

>  <REMARK>
 VINA RESULT:      -5.9      3.788      6.437
  Name = 
  1 active torsions:
  status: ('A' for Active; 'I' for Inactive)
    1  A    between atoms: C_9  and  C_15
                            x       y       z     vdW  Elec       q    Type
                         _______ _______ _______ _____ _____    ______ ____

>  <TORSDO>
F 1

$$$$
=
 OpenBabel10262420033D

 27 32  0  0  1  0  0  0  0  0999 V2000
  184.2120  179.0580  140.3630 C   0  0  1  0  0  3  0  0  0  0  0  0
  182.9570  177.0630  140.0900 N   0  0  0  0  0  0  0  0  0  0  0  0
  184.4070  178.5340  138.9120 C   0  0  2  0  0  3  0  0  0  0  0  0
  180.8420  175.6640  136.7430 C   0  0  0  0  0  2  0  0  0  0  0  0
  181.8310  176.6420  134.6050 C   0  0  0  0  0  2  0  0  0  0  0  0
  181.8390  176.2150  140.2070 N   0  0  0  0  0  0  0  0  0  0  0  0
  183.4280  177.1670  136.4150 N   0  0  0  0  0  2  0  0  0  0  0  0
  188.0320  177.7370  137.9600 C   0  0  0  0  0  3  0  0  0  0  0  0
  182.5080  177.7340  135.4380 C   0  0  0  0  0  2  0  0  0  0  0  0
  188.6100  178.0070  139.2170 C   0  0  0  0  0  3  0  0  0  0  0  0
  182.7070  177.1100  137.6820 C   0  0  1  0  0  3  0  0  0  0  0  0
  183.2410  178.1110  141.0550 C   0  0  2  0  0  3  0  0  0  0  0  0
  181.4630  175.3730  135.3820 C   0  0  0  0  0  2  0  0  0  0  0  0
  181.9340  175.7840  137.8000 C   0  0  1  0  0  3  0  0  0  0  0  0
  185.4970  178.9860  140.9820 O   0  0  0  0  0  0  0  0  0  0  0  0
  183.6890  177.1920  138.8440 C   0  0  2  0  0  3  0  0  0  0  0  0
  186.6490  177.8910  137.7680 C   0  0  0  0  0  3  0  0  0  0  0  0
  181.3320  175.6200  139.1690 C   0  0  0  0  0  3  0  0  0  0  0  0
  187.8090  178.4330  140.2890 C   0  0  0  0  0  3  0  0  0  0  0  0
  186.4410  178.5770  140.0660 C   0  0  0  0  0  0  0  0  0  0  0  0
  185.8770  178.3150  138.8490 C   0  0  0  0  0  0  0  0  0  0  0  0
  179.6580  180.2410  142.1220 C   0  0  0  0  0  3  0  0  0  0  0  0
  181.9940  178.8490  141.4450 C   0  0  0  0  0  0  0  0  0  0  0  0
  181.5690  178.9110  142.7830 C   0  0  0  0  0  3  0  0  0  0  0  0
  180.4050  179.6050  143.1190 C   0  0  0  0  0  3  0  0  0  0  0  0
  180.0770  180.1810  140.7890 C   0  0  0  0  0  3  0  0  0  0  0  0
  181.2410  179.4860  140.4520 C   0  0  0  0  0  3  0  0  0  0  0  0
  1 15  1  1  0  0  0
  1 12  1  0  0  0  0
  2  6  1  0  0  0  0
  2 12  1  0  0  0  0
  3 21  1  1  0  0  0
  3  1  1  0  0  0  0
  5 13  1  0  0  0  0
  5  9  1  0  0  0  0
  8 10  1  0  0  0  0
  9  7  1  0  0  0  0
 10 19  2  0  0  0  0
 11  7  1  6  0  0  0
 11 14  1  0  0  0  0
 11 16  1  0  0  0  0
 12 23  1  6  0  0  0
 13  4  1  0  0  0  0
 14  4  1  6  0  0  0
 14 18  1  0  0  0  0
 16  3  1  0  0  0  0
 16  2  1  1  0  0  0
 17  8  2  0  0  0  0
 17 21  1  0  0  0  0
 18  6  2  0  0  0  0
 20 19  1  0  0  0  0
 20 15  1  0  0  0  0
 21 20  2  0  0  0  0
 22 25  1  0  0  0  0
 23 24  1  0  0  0  0
 24 25  2  0  0  0  0
 26 22  2  0  0  0  0
 27 26  1  0  0  0  0
 27 23  2  0  0  0  0
M  END
>  <MODEL>
9

>  <REMARK>
 VINA RESULT:      -5.6      6.111      9.738
  Name = 
  1 active torsions:
  status: ('A' for Active; 'I' for Inactive)
    1  A    between atoms: C_9  and  C_15
                            x       y       z     vdW  Elec       q    Type
                         _______ _______ _______ _____ _____    ______ ____

>  <TORSDO>
F 1

$$$$
