=
 OpenBabel10262419463D

 25 27  0  0  1  0  0  0  0  0999 V2000
  183.1180  178.7000  140.8010 C   0  0  1  0  0  3  0  0  0  0  0  0
  181.8840  175.9200  138.3730 S   0  0  0  0  0  0  0  0  0  0  0  0
  182.1270  178.6010  137.5510 C   0  0  0  0  0  3  0  0  0  0  0  0
  182.7560  176.5620  139.8400 C   0  0  0  0  0  2  0  0  0  0  0  0
  181.0530  178.4240  139.9000 C   0  0  1  0  0  0  0  0  0  0  0  0
  180.3470  179.3590  140.8840 C   0  0  0  0  0  1  0  0  0  0  0  0
  182.3170  177.2950  137.2700 C   0  0  0  0  0  0  0  0  0  0  0  0
  183.1170  179.5920  139.5620 C   0  0  0  0  0  2  0  0  0  0  0  0
  180.0420  177.6310  139.3490 O   0  0  0  0  0  1  0  0  0  0  0  0
  181.7970  179.2720  138.8690 C   0  0  1  0  0  3  0  0  0  0  0  0
  182.0980  177.6520  140.6110 N   0  0  2  0  0  0  0  0  0  0  0  0
  184.4860  178.2360  141.3410 C   0  0  1  0  0  3  0  0  0  0  0  0
  185.6810  178.8760  140.6390 C   0  0  0  0  0  1  0  0  0  0  0  0
  184.5690  178.3730  142.8320 C   0  0  0  0  0  0  0  0  0  0  0  0
  184.6370  178.7120  145.6160 C   0  0  0  0  0  3  0  0  0  0  0  0
  185.7000  177.9660  143.5690 C   0  0  0  0  0  0  0  0  0  0  0  0
  185.7260  178.1360  144.9560 C   0  0  0  0  0  3  0  0  0  0  0  0
  183.5170  179.1210  144.8880 C   0  0  0  0  0  3  0  0  0  0  0  0
  186.7680  177.4020  142.9550 F   0  0  0  0  0  0  0  0  0  0  0  0
  183.4840  178.9520  143.5020 C   0  0  0  0  0  3  0  0  0  0  0  0
  182.8150  176.9750  135.8930 C   0  0  1  0  0  3  0  0  0  0  0  0
  182.1790  177.8740  134.8470 C   0  0  0  0  0  1  0  0  0  0  0  0
  184.3080  177.0250  135.8200 C   0  0  0  0  0  0  0  0  0  0  0  0
  185.0810  176.8390  136.9590 O   0  0  0  0  0  1  0  0  0  0  0  0
  184.8690  177.2120  134.7100 O   0  0  0  0  0  0  0  0  0  0  0  0
  1 12  1  6  0  0  0
  2  4  1  0  0  0  0
  5 11  1  0  0  0  0
  5  6  1  1  0  0  0
  7  3  2  0  0  0  0
  7  2  1  0  0  0  0
  8  1  1  0  0  0  0
  9  5  1  0  0  0  0
 10  3  1  6  0  0  0
 10  8  1  0  0  0  0
 10  5  1  0  0  0  0
 11  4  1  6  0  0  0
 11  1  1  0  0  0  0
 12 13  1  6  0  0  0
 12 14  1  0  0  0  0
 14 20  2  0  0  0  0
 14 16  1  0  0  0  0
 16 17  2  0  0  0  0
 17 15  1  0  0  0  0
 18 15  2  0  0  0  0
 19 16  1  0  0  0  0
 20 18  1  0  0  0  0
 21 22  1  6  0  0  0
 21  7  1  0  0  0  0
 23 21  1  0  0  0  0
 23 24  1  0  0  0  0
 25 23  2  0  0  0  0
M  END
>  <MODEL>
1

>  <REMARK>
 VINA RESULT:      -6.2      0.000      0.000
  Name = 
  4 active torsions:
  status: ('A' for Active; 'I' for Inactive)
    1  A    between atoms: C_1  and  C_3
    2  A    between atoms: C_1  and  C_5
    3  A    between atoms: C_2  and  C_21
    4  A    between atoms: C_15  and  C_21
                            x       y       z     vdW  Elec       q    Type
                         _______ _______ _______ _____ _____    ______ ____

>  <TORSDO>
F 4

$$$$
=
 OpenBabel10262419463D

 25 27  0  0  1  0  0  0  0  0999 V2000
  189.0850  177.3110  143.6140 C   0  0  1  0  0  3  0  0  0  0  0  0
  189.1970  178.9050  140.0660 S   0  0  0  0  0  0  0  0  0  0  0  0
  189.6280  176.1520  140.4650 C   0  0  0  0  0  3  0  0  0  0  0  0
  188.7160  178.8200  141.8220 C   0  0  0  0  0  2  0  0  0  0  0  0
  190.8710  177.5720  142.2370 C   0  0  1  0  0  0  0  0  0  0  0  0
  191.9200  177.3400  143.3270 C   0  0  0  0  0  1  0  0  0  0  0  0
  189.0460  177.1270  139.7350 C   0  0  0  0  0  0  0  0  0  0  0  0
  189.1950  175.9810  142.8710 C   0  0  0  0  0  2  0  0  0  0  0  0
  191.5460  178.2250  141.2030 O   0  0  0  0  0  1  0  0  0  0  0  0
  190.2830  176.2210  141.8290 C   0  0  1  0  0  3  0  0  0  0  0  0
  189.7390  178.3480  142.7950 N   0  0  2  0  0  0  0  0  0  0  0  0
  187.7120  177.6750  144.2160 C   0  0  1  0  0  3  0  0  0  0  0  0
  186.5750  176.7620  143.7690 C   0  0  0  0  0  1  0  0  0  0  0  0
  187.7790  177.8020  145.7090 C   0  0  0  0  0  0  0  0  0  0  0  0
  187.9830  177.9510  148.5030 C   0  0  0  0  0  3  0  0  0  0  0  0
  186.7600  178.4180  146.4640 C   0  0  0  0  0  0  0  0  0  0  0  0
  186.8700  178.4910  147.8550 C   0  0  0  0  0  3  0  0  0  0  0  0
  188.9930  177.3360  147.7590 C   0  0  0  0  0  3  0  0  0  0  0  0
  185.6700  178.9530  145.8600 F   0  0  0  0  0  0  0  0  0  0  0  0
  188.8900  177.2610  146.3680 C   0  0  0  0  0  3  0  0  0  0  0  0
  188.3230  176.6900  138.4960 C   0  0  1  0  0  3  0  0  0  0  0  0
  187.4350  177.7950  137.9500 C   0  0  0  0  0  1  0  0  0  0  0  0
  189.2680  176.1840  137.4540 C   0  0  0  0  0  0  0  0  0  0  0  0
  190.1820  177.0390  136.8490 O   0  0  0  0  0  0  0  0  0  0  0  0
  189.2510  174.9670  137.1380 O   0  0  0  0  0  1  0  0  0  0  0  0
  1 12  1  6  0  0  0
  2  4  1  0  0  0  0
  5 11  1  0  0  0  0
  5  6  1  1  0  0  0
  7  2  1  0  0  0  0
  7  3  2  0  0  0  0
  8  1  1  0  0  0  0
  9  5  1  0  0  0  0
 10  3  1  6  0  0  0
 10  5  1  0  0  0  0
 10  8  1  0  0  0  0
 11  4  1  6  0  0  0
 11  1  1  0  0  0  0
 12 13  1  1  0  0  0
 12 14  1  0  0  0  0
 14 20  2  0  0  0  0
 14 16  1  0  0  0  0
 16 17  2  0  0  0  0
 17 15  1  0  0  0  0
 18 15  2  0  0  0  0
 19 16  1  0  0  0  0
 20 18  1  0  0  0  0
 21 22  1  6  0  0  0
 21  7  1  0  0  0  0
 23 21  1  0  0  0  0
 24 23  2  0  0  0  0
 25 23  1  0  0  0  0
M  END
>  <MODEL>
2

>  <REMARK>
 VINA RESULT:      -5.8      5.300      6.985
  Name = 
  4 active torsions:
  status: ('A' for Active; 'I' for Inactive)
    1  A    between atoms: C_1  and  C_3
    2  A    between atoms: C_1  and  C_5
    3  A    between atoms: C_2  and  C_21
    4  A    between atoms: C_15  and  C_21
                            x       y       z     vdW  Elec       q    Type
                         _______ _______ _______ _____ _____    ______ ____

>  <TORSDO>
F 4

$$$$
=
 OpenBabel10262419463D

 25 27  0  0  1  0  0  0  0  0999 V2000
  186.8680  178.0530  142.4090 C   0  0  1  0  0  3  0  0  0  0  0  0
  189.9770  175.8310  143.1460 S   0  0  0  0  0  0  0  0  0  0  0  0
  190.2120  178.5980  142.6890 C   0  0  0  0  0  3  0  0  0  0  0  0
  188.2030  176.2500  143.1780 C   0  0  0  0  0  2  0  0  0  0  0  0
  188.5720  177.4980  141.0150 C   0  0  1  0  0  0  0  0  0  0  0  0
  187.8380  177.9010  139.7340 C   0  0  0  0  0  1  0  0  0  0  0  0
  190.5830  177.5200  143.4120 C   0  0  0  0  0  0  0  0  0  0  0  0
  187.8480  179.2210  142.5150 C   0  0  0  0  0  2  0  0  0  0  0  0
  189.6020  176.6490  140.6040 O   0  0  0  0  0  1  0  0  0  0  0  0
  189.0640  178.7650  141.7150 C   0  0  1  0  0  3  0  0  0  0  0  0
  187.6180  176.8670  141.9560 N   0  0  2  0  0  0  0  0  0  0  0  0
  185.8880  177.8410  143.5810 C   0  0  1  0  0  3  0  0  0  0  0  0
  186.3310  178.4920  144.8880 C   0  0  0  0  0  1  0  0  0  0  0  0
  184.4870  178.2230  143.2070 C   0  0  0  0  0  0  0  0  0  0  0  0
  181.9040  178.9600  142.3980 C   0  0  0  0  0  3  0  0  0  0  0  0
  183.5240  178.6030  144.1640 C   0  0  0  0  0  0  0  0  0  0  0  0
  182.2390  178.9670  143.7540 C   0  0  0  0  0  3  0  0  0  0  0  0
  182.8570  178.5890  141.4460 C   0  0  0  0  0  3  0  0  0  0  0  0
  183.8210  178.6150  145.4870 F   0  0  0  0  0  0  0  0  0  0  0  0
  184.1430  178.2230  141.8500 C   0  0  0  0  0  3  0  0  0  0  0  0
  191.6620  177.7390  144.4290 C   0  0  1  0  0  3  0  0  0  0  0  0
  192.0690  179.2010  144.5040 C   0  0  0  0  0  1  0  0  0  0  0  0
  191.2720  177.2120  145.7720 C   0  0  0  0  0  0  0  0  0  0  0  0
  190.0080  177.4620  146.2930 O   0  0  0  0  0  0  0  0  0  0  0  0
  192.0870  176.5140  146.4270 O   0  0  0  0  0  1  0  0  0  0  0  0
  1  8  1  0  0  0  0
  1 12  1  1  0  0  0
  2  4  1  0  0  0  0
  2  7  1  0  0  0  0
  3  7  2  0  0  0  0
  5  6  1  6  0  0  0
  5 10  1  0  0  0  0
  5 11  1  0  0  0  0
  7 21  1  0  0  0  0
  9  5  1  0  0  0  0
 10  8  1  1  0  0  0
 10  3  1  0  0  0  0
 11  1  1  0  0  0  0
 11  4  1  1  0  0  0
 12 13  1  1  0  0  0
 14 12  1  0  0  0  0
 14 16  1  0  0  0  0
 15 17  1  0  0  0  0
 16 19  1  0  0  0  0
 17 16  2  0  0  0  0
 18 20  1  0  0  0  0
 18 15  2  0  0  0  0
 20 14  2  0  0  0  0
 21 22  1  1  0  0  0
 21 23  1  0  0  0  0
 23 24  2  0  0  0  0
 23 25  1  0  0  0  0
M  END
>  <MODEL>
3

>  <REMARK>
 VINA RESULT:      -5.7      5.034      7.929
  Name = 
  4 active torsions:
  status: ('A' for Active; 'I' for Inactive)
    1  A    between atoms: C_1  and  C_3
    2  A    between atoms: C_1  and  C_5
    3  A    between atoms: C_2  and  C_21
    4  A    between atoms: C_15  and  C_21
                            x       y       z     vdW  Elec       q    Type
                         _______ _______ _______ _____ _____    ______ ____

>  <TORSDO>
F 4

$$$$
=
 OpenBabel10262419463D

 25 27  0  0  1  0  0  0  0  0999 V2000
  190.1570  177.3210  142.5050 C   0  0  1  0  0  3  0  0  0  0  0  0
  187.1310  176.3790  144.7640 S   0  0  0  0  0  0  0  0  0  0  0  0
  188.4650  178.8430  145.0300 C   0  0  0  0  0  3  0  0  0  0  0  0
  188.1730  176.2720  143.2720 C   0  0  0  0  0  2  0  0  0  0  0  0
  190.1370  176.8880  144.7330 C   0  0  1  0  0  0  0  0  0  0  0  0
  191.6480  176.6780  144.8470 C   0  0  0  0  0  1  0  0  0  0  0  0
  187.2950  178.1730  144.9890 C   0  0  0  0  0  0  0  0  0  0  0  0
  190.0450  178.6960  143.1620 C   0  0  0  0  0  2  0  0  0  0  0  0
  189.5900  176.2830  145.8680 O   0  0  0  0  0  1  0  0  0  0  0  0
  189.8580  178.3890  144.6440 C   0  0  1  0  0  3  0  0  0  0  0  0
  189.6500  176.3160  143.4570 N   0  0  2  0  0  0  0  0  0  0  0  0
  189.6740  177.1910  141.0460 C   0  0  1  0  0  3  0  0  0  0  0  0
  188.7530  178.3200  140.5930 C   0  0  0  0  0  1  0  0  0  0  0  0
  190.8190  176.9840  140.1000 C   0  0  0  0  0  0  0  0  0  0  0  0
  193.0220  176.6780  138.3910 C   0  0  0  0  0  3  0  0  0  0  0  0
  190.6510  176.4160  138.8210 C   0  0  0  0  0  0  0  0  0  0  0  0
  191.7540  176.2640  137.9750 C   0  0  0  0  0  3  0  0  0  0  0  0
  193.1910  177.2450  139.6560 C   0  0  0  0  0  3  0  0  0  0  0  0
  189.4330  176.0030  138.3930 F   0  0  0  0  0  0  0  0  0  0  0  0
  192.0930  177.3980  140.5060 C   0  0  0  0  0  3  0  0  0  0  0  0
  186.0580  178.9730  145.2670 C   0  0  1  0  0  3  0  0  0  0  0  0
  184.9330  178.6090  144.3130 C   0  0  0  0  0  1  0  0  0  0  0  0
  185.6270  178.8460  146.6930 C   0  0  0  0  0  0  0  0  0  0  0  0
  186.3850  179.4030  147.7150 O   0  0  0  0  0  1  0  0  0  0  0  0
  184.5530  178.2510  146.9670 O   0  0  0  0  0  0  0  0  0  0  0  0
  1 12  1  6  0  0  0
  1  8  1  0  0  0  0
  1 11  1  0  0  0  0
  2  7  1  0  0  0  0
  4  2  1  0  0  0  0
  5  6  1  1  0  0  0
  5  9  1  0  0  0  0
  7  3  2  0  0  0  0
  7 21  1  0  0  0  0
 10  8  1  6  0  0  0
 10  5  1  0  0  0  0
 10  3  1  0  0  0  0
 11  4  1  1  0  0  0
 11  5  1  0  0  0  0
 12 13  1  6  0  0  0
 14 20  1  0  0  0  0
 14 12  1  0  0  0  0
 15 18  1  0  0  0  0
 16 14  2  0  0  0  0
 17 15  2  0  0  0  0
 17 16  1  0  0  0  0
 18 20  2  0  0  0  0
 19 16  1  0  0  0  0
 21 22  1  6  0  0  0
 21 23  1  0  0  0  0
 23 25  2  0  0  0  0
 23 24  1  0  0  0  0
M  END
>  <MODEL>
4

>  <REMARK>
 VINA RESULT:      -5.4      6.288      9.289
  Name = 
  4 active torsions:
  status: ('A' for Active; 'I' for Inactive)
    1  A    between atoms: C_1  and  C_3
    2  A    between atoms: C_1  and  C_5
    3  A    between atoms: C_2  and  C_21
    4  A    between atoms: C_15  and  C_21
                            x       y       z     vdW  Elec       q    Type
                         _______ _______ _______ _____ _____    ______ ____

>  <TORSDO>
F 4

$$$$
=
 OpenBabel10262419463D

 25 27  0  0  1  0  0  0  0  0999 V2000
  188.8960  177.5060  138.7860 C   0  0  1  0  0  3  0  0  0  0  0  0
  188.9050  174.4890  136.3270 S   0  0  0  0  0  0  0  0  0  0  0  0
  190.1290  176.9370  135.6690 C   0  0  0  0  0  3  0  0  0  0  0  0
  188.7910  175.2840  137.9630 C   0  0  0  0  0  2  0  0  0  0  0  0
  187.8260  177.3020  136.7940 C   0  0  1  0  0  0  0  0  0  0  0  0
  186.8670  178.4700  137.0330 C   0  0  0  0  0  1  0  0  0  0  0  0
  190.1890  175.5890  135.6640 C   0  0  0  0  0  0  0  0  0  0  0  0
  189.8390  178.1570  137.7750 C   0  0  0  0  0  2  0  0  0  0  0  0
  187.2400  176.5390  135.7810 O   0  0  0  0  0  1  0  0  0  0  0  0
  189.1990  177.8650  136.4220 C   0  0  1  0  0  3  0  0  0  0  0  0
  188.0300  176.5590  138.0600 N   0  0  2  0  0  0  0  0  0  0  0  0
  189.5130  176.9990  140.1050 C   0  0  1  0  0  3  0  0  0  0  0  0
  190.9310  177.5000  140.3630 C   0  0  0  0  0  1  0  0  0  0  0  0
  188.6060  177.2500  141.2730 C   0  0  0  0  0  0  0  0  0  0  0  0
  186.8810  177.8250  143.4090 C   0  0  0  0  0  3  0  0  0  0  0  0
  188.7370  176.5610  142.4960 C   0  0  0  0  0  0  0  0  0  0  0  0
  187.8720  176.8510  143.5550 C   0  0  0  0  0  3  0  0  0  0  0  0
  186.7510  178.5120  142.2000 C   0  0  0  0  0  3  0  0  0  0  0  0
  189.6880  175.6100  142.6640 F   0  0  0  0  0  0  0  0  0  0  0  0
  187.6110  178.2260  141.1370 C   0  0  0  0  0  3  0  0  0  0  0  0
  191.3550  174.9750  134.9500 C   0  0  1  0  0  3  0  0  0  0  0  0
  192.4010  176.0170  134.5940 C   0  0  0  0  0  1  0  0  0  0  0  0
  191.9510  173.8480  135.7310 C   0  0  0  0  0  0  0  0  0  0  0  0
  192.4870  174.0660  136.9950 O   0  0  0  0  0  1  0  0  0  0  0  0
  191.9450  172.6870  135.2490 O   0  0  0  0  0  0  0  0  0  0  0  0
  1 12  1  1  0  0  0
  2  4  1  0  0  0  0
  5  6  1  1  0  0  0
  5 11  1  0  0  0  0
  7  3  2  0  0  0  0
  7  2  1  0  0  0  0
  8  1  1  0  0  0  0
  9  5  1  0  0  0  0
 10  3  1  1  0  0  0
 10  5  1  0  0  0  0
 10  8  1  0  0  0  0
 11  4  1  6  0  0  0
 11  1  1  0  0  0  0
 12 13  1  1  0  0  0
 12 14  1  0  0  0  0
 14 16  1  0  0  0  0
 15 17  1  0  0  0  0
 16 19  1  0  0  0  0
 16 17  2  0  0  0  0
 18 15  2  0  0  0  0
 20 14  2  0  0  0  0
 20 18  1  0  0  0  0
 21 22  1  1  0  0  0
 21  7  1  0  0  0  0
 21 23  1  0  0  0  0
 23 24  1  0  0  0  0
 25 23  2  0  0  0  0
M  END
>  <MODEL>
5

>  <REMARK>
 VINA RESULT:      -5.3      5.340      6.813
  Name = 
  4 active torsions:
  status: ('A' for Active; 'I' for Inactive)
    1  A    between atoms: C_1  and  C_3
    2  A    between atoms: C_1  and  C_5
    3  A    between atoms: C_2  and  C_21
    4  A    between atoms: C_15  and  C_21
                            x       y       z     vdW  Elec       q    Type
                         _______ _______ _______ _____ _____    ______ ____

>  <TORSDO>
F 4

$$$$
=
 OpenBabel10262419463D

 25 27  0  0  1  0  0  0  0  0999 V2000
  189.2320  177.2060  143.6280 C   0  0  1  0  0  3  0  0  0  0  0  0
  189.1860  178.9270  140.1390 S   0  0  0  0  0  0  0  0  0  0  0  0
  189.6830  176.1720  140.4220 C   0  0  0  0  0  3  0  0  0  0  0  0
  188.7700  178.7700  141.9060 C   0  0  0  0  0  2  0  0  0  0  0  0
  190.9620  177.5530  142.2000 C   0  0  1  0  0  0  0  0  0  0  0  0
  192.0530  177.3020  143.2430 C   0  0  0  0  0  1  0  0  0  0  0  0
  189.0570  177.1600  139.7490 C   0  0  0  0  0  0  0  0  0  0  0  0
  189.3400  175.9060  142.8340 C   0  0  0  0  0  2  0  0  0  0  0  0
  191.5870  178.2550  141.1670 O   0  0  0  0  0  1  0  0  0  0  0  0
  190.3850  176.2050  141.7640 C   0  0  1  0  0  3  0  0  0  0  0  0
  189.8360  178.2850  142.8250 N   0  0  2  0  0  0  0  0  0  0  0  0
  187.8750  177.5200  144.2910 C   0  0  1  0  0  3  0  0  0  0  0  0
  186.7600  176.5470  143.9200 C   0  0  0  0  0  1  0  0  0  0  0  0
  188.0090  177.6840  145.7760 C   0  0  0  0  0  0  0  0  0  0  0  0
  188.1730  178.0700  148.5500 C   0  0  0  0  0  3  0  0  0  0  0  0
  189.1730  177.3090  146.4780 C   0  0  0  0  0  0  0  0  0  0  0  0
  189.2470  177.5020  147.8600 C   0  0  0  0  0  3  0  0  0  0  0  0
  187.0190  178.4470  147.8580 C   0  0  0  0  0  3  0  0  0  0  0  0
  190.2280  176.7530  145.8340 F   0  0  0  0  0  0  0  0  0  0  0  0
  186.9390  178.2550  146.4760 C   0  0  0  0  0  3  0  0  0  0  0  0
  188.2980  176.7530  138.5210 C   0  0  1  0  0  3  0  0  0  0  0  0
  187.4080  177.8770  138.0180 C   0  0  0  0  0  1  0  0  0  0  0  0
  189.2110  176.2570  137.4460 C   0  0  0  0  0  0  0  0  0  0  0  0
  190.1630  177.0970  136.8800 O   0  0  0  0  0  0  0  0  0  0  0  0
  189.1330  175.0610  137.0670 O   0  0  0  0  0  1  0  0  0  0  0  0
  1 12  1  6  0  0  0
  2  4  1  0  0  0  0
  5 11  1  0  0  0  0
  5  6  1  1  0  0  0
  7  2  1  0  0  0  0
  7  3  2  0  0  0  0
  8  1  1  0  0  0  0
  9  5  1  0  0  0  0
 10  3  1  6  0  0  0
 10  5  1  0  0  0  0
 10  8  1  0  0  0  0
 11  4  1  6  0  0  0
 11  1  1  0  0  0  0
 12 13  1  1  0  0  0
 12 14  1  0  0  0  0
 14 20  2  0  0  0  0
 14 16  1  0  0  0  0
 16 17  2  0  0  0  0
 17 15  1  0  0  0  0
 18 15  2  0  0  0  0
 19 16  1  0  0  0  0
 20 18  1  0  0  0  0
 21 22  1  6  0  0  0
 21  7  1  0  0  0  0
 23 21  1  0  0  0  0
 24 23  2  0  0  0  0
 25 23  1  0  0  0  0
M  END
>  <MODEL>
6

>  <REMARK>
 VINA RESULT:      -5.2      5.374      7.018
  Name = 
  4 active torsions:
  status: ('A' for Active; 'I' for Inactive)
    1  A    between atoms: C_1  and  C_3
    2  A    between atoms: C_1  and  C_5
    3  A    between atoms: C_2  and  C_21
    4  A    between atoms: C_15  and  C_21
                            x       y       z     vdW  Elec       q    Type
                         _______ _______ _______ _____ _____    ______ ____

>  <TORSDO>
F 4

$$$$
=
 OpenBabel10262419463D

 25 27  0  0  1  0  0  0  0  0999 V2000
  180.1030  180.6040  138.5440 C   0  0  1  0  0  3  0  0  0  0  0  0
  182.4040  178.1480  140.4980 S   0  0  0  0  0  0  0  0  0  0  0  0
  179.7190  177.5260  139.9320 C   0  0  0  0  0  3  0  0  0  0  0  0
  182.0530  179.5280  139.3600 C   0  0  0  0  0  2  0  0  0  0  0  0
  179.9760  179.9780  140.7220 C   0  0  1  0  0  0  0  0  0  0  0  0
  179.0530  181.1240  141.1410 C   0  0  0  0  0  1  0  0  0  0  0  0
  181.0020  177.1140  139.9900 C   0  0  0  0  0  0  0  0  0  0  0  0
  179.0970  179.4550  138.5550 C   0  0  0  0  0  2  0  0  0  0  0  0
  180.5500  179.5080  141.9060 O   0  0  0  0  0  1  0  0  0  0  0  0
  179.1450  178.9270  139.9840 C   0  0  1  0  0  3  0  0  0  0  0  0
  180.9630  180.4710  139.7340 N   0  0  2  0  0  0  0  0  0  0  0  0
  180.8170  180.9090  137.2110 C   0  0  1  0  0  3  0  0  0  0  0  0
  180.3300  180.0650  136.0370 C   0  0  0  0  0  1  0  0  0  0  0  0
  180.8000  182.3750  136.8960 C   0  0  0  0  0  0  0  0  0  0  0  0
  180.7160  185.0930  136.2040 C   0  0  0  0  0  3  0  0  0  0  0  0
  181.6450  183.3000  137.5440 C   0  0  0  0  0  0  0  0  0  0  0  0
  181.5960  184.6520  137.1950 C   0  0  0  0  0  3  0  0  0  0  0  0
  179.8800  184.1790  135.5560 C   0  0  0  0  0  3  0  0  0  0  0  0
  182.5060  182.9000  138.5110 F   0  0  0  0  0  0  0  0  0  0  0  0
  179.9230  182.8260  135.9020 C   0  0  0  0  0  3  0  0  0  0  0  0
  181.2490  175.6590  139.7240 C   0  0  1  0  0  3  0  0  0  0  0  0
  179.9560  174.8620  139.7450 C   0  0  0  0  0  1  0  0  0  0  0  0
  181.9970  175.4500  138.4470 C   0  0  0  0  0  0  0  0  0  0  0  0
  181.3450  175.5290  137.2210 O   0  0  0  0  0  0  0  0  0  0  0  0
  183.2330  175.2250  138.4800 O   0  0  0  0  0  1  0  0  0  0  0  0
  1 12  1  6  0  0  0
  1  8  1  0  0  0  0
  1 11  1  0  0  0  0
  3 10  1  0  0  0  0
  3  7  2  0  0  0  0
  4  2  1  0  0  0  0
  5  6  1  1  0  0  0
  5  9  1  0  0  0  0
  7  2  1  0  0  0  0
 10  8  1  6  0  0  0
 10  5  1  0  0  0  0
 11  4  1  6  0  0  0
 11  5  1  0  0  0  0
 12 13  1  6  0  0  0
 14 12  1  0  0  0  0
 14 16  1  0  0  0  0
 15 17  1  0  0  0  0
 16 19  1  0  0  0  0
 17 16  2  0  0  0  0
 18 20  1  0  0  0  0
 18 15  2  0  0  0  0
 20 14  2  0  0  0  0
 21 22  1  6  0  0  0
 21  7  1  0  0  0  0
 23 25  1  0  0  0  0
 23 21  1  0  0  0  0
 24 23  2  0  0  0  0
M  END
>  <MODEL>
7

>  <REMARK>
 VINA RESULT:      -5.2      4.022      6.329
  Name = 
  4 active torsions:
  status: ('A' for Active; 'I' for Inactive)
    1  A    between atoms: C_1  and  C_3
    2  A    between atoms: C_1  and  C_5
    3  A    between atoms: C_2  and  C_21
    4  A    between atoms: C_15  and  C_21
                            x       y       z     vdW  Elec       q    Type
                         _______ _______ _______ _____ _____    ______ ____

>  <TORSDO>
F 4

$$$$
=
 OpenBabel10262419463D

 25 27  0  0  1  0  0  0  0  0999 V2000
  189.2630  178.0680  141.1840 C   0  0  1  0  0  3  0  0  0  0  0  0
  189.2150  175.9450  144.4450 S   0  0  0  0  0  0  0  0  0  0  0  0
  190.1240  178.6080  144.4280 C   0  0  0  0  0  3  0  0  0  0  0  0
  188.6930  176.3850  142.7550 C   0  0  0  0  0  2  0  0  0  0  0  0
  191.0210  177.2880  142.3890 C   0  0  1  0  0  0  0  0  0  0  0  0
  192.0540  177.5020  141.2810 C   0  0  0  0  0  1  0  0  0  0  0  0
  189.4030  177.6480  145.0430 C   0  0  0  0  0  0  0  0  0  0  0  0
  189.6410  179.2260  142.1060 C   0  0  0  0  0  2  0  0  0  0  0  0
  191.6050  176.3740  143.2710 O   0  0  0  0  0  1  0  0  0  0  0  0
  190.7040  178.6400  143.0290 C   0  0  1  0  0  3  0  0  0  0  0  0
  189.7470  176.8180  141.7980 N   0  0  2  0  0  0  0  0  0  0  0  0
  187.8260  178.0470  140.6250 C   0  0  1  0  0  3  0  0  0  0  0  0
  186.8690  179.0030  141.3310 C   0  0  0  0  0  1  0  0  0  0  0  0
  187.8080  178.2300  139.1360 C   0  0  0  0  0  0  0  0  0  0  0  0
  187.8800  178.6290  136.3610 C   0  0  0  0  0  3  0  0  0  0  0  0
  186.6230  178.1510  138.3770 C   0  0  0  0  0  0  0  0  0  0  0  0
  186.6670  178.3480  136.9940 C   0  0  0  0  0  3  0  0  0  0  0  0
  189.0550  178.7120  137.1100 C   0  0  0  0  0  3  0  0  0  0  0  0
  185.4330  177.8770  138.9660 F   0  0  0  0  0  0  0  0  0  0  0  0
  189.0190  178.5140  138.4930 C   0  0  0  0  0  3  0  0  0  0  0  0
  188.8180  178.0050  146.3760 C   0  0  1  0  0  3  0  0  0  0  0  0
  187.2990  177.9830  146.3420 C   0  0  0  0  0  1  0  0  0  0  0  0
  189.3510  177.1320  147.4660 C   0  0  0  0  0  0  0  0  0  0  0  0
  190.7180  177.0480  147.7030 O   0  0  0  0  0  0  0  0  0  0  0  0
  188.5530  176.4860  148.1920 O   0  0  0  0  0  1  0  0  0  0  0  0
  1 12  1  1  0  0  0
  1 11  1  0  0  0  0
  1  8  1  0  0  0  0
  2  7  1  0  0  0  0
  3  7  2  0  0  0  0
  4  2  1  0  0  0  0
  5  6  1  6  0  0  0
  5 10  1  0  0  0  0
  5  9  1  0  0  0  0
  7 21  1  0  0  0  0
 10  8  1  6  0  0  0
 10  3  1  0  0  0  0
 11  5  1  0  0  0  0
 11  4  1  1  0  0  0
 12 13  1  1  0  0  0
 14 12  1  0  0  0  0
 15 17  2  0  0  0  0
 15 18  1  0  0  0  0
 16 19  1  0  0  0  0
 16 14  2  0  0  0  0
 17 16  1  0  0  0  0
 18 20  2  0  0  0  0
 20 14  1  0  0  0  0
 21 22  1  6  0  0  0
 21 23  1  0  0  0  0
 23 24  2  0  0  0  0
 23 25  1  0  0  0  0
M  END
>  <MODEL>
8

>  <REMARK>
 VINA RESULT:      -5.1      5.781      9.382
  Name = 
  4 active torsions:
  status: ('A' for Active; 'I' for Inactive)
    1  A    between atoms: C_1  and  C_3
    2  A    between atoms: C_1  and  C_5
    3  A    between atoms: C_2  and  C_21
    4  A    between atoms: C_15  and  C_21
                            x       y       z     vdW  Elec       q    Type
                         _______ _______ _______ _____ _____    ______ ____

>  <TORSDO>
F 4

$$$$
=
 OpenBabel10262419463D

 25 27  0  0  1  0  0  0  0  0999 V2000
  188.3210  177.4840  144.1800 C   0  0  1  0  0  3  0  0  0  0  0  0
  191.7280  178.9970  143.0660 S   0  0  0  0  0  0  0  0  0  0  0  0
  191.0050  176.3540  142.4270 C   0  0  0  0  0  3  0  0  0  0  0  0
  189.9880  179.0690  143.6030 C   0  0  0  0  0  2  0  0  0  0  0  0
  190.4090  176.9320  144.8790 C   0  0  1  0  0  0  0  0  0  0  0  0
  189.9420  176.1800  146.1270 C   0  0  0  0  0  1  0  0  0  0  0  0
  191.5520  177.5200  142.0260 C   0  0  0  0  0  0  0  0  0  0  0  0
  188.7170  176.2960  143.3050 C   0  0  0  0  0  2  0  0  0  0  0  0
  191.7540  177.2340  145.1060 O   0  0  0  0  0  1  0  0  0  0  0  0
  190.1790  176.0410  143.6570 C   0  0  1  0  0  3  0  0  0  0  0  0
  189.5550  178.1240  144.6690 N   0  0  2  0  0  0  0  0  0  0  0  0
  187.2240  178.4260  143.6430 C   0  0  1  0  0  3  0  0  0  0  0  0
  186.8320  178.1610  142.1920 C   0  0  0  0  0  1  0  0  0  0  0  0
  186.0310  178.4620  144.5510 C   0  0  0  0  0  0  0  0  0  0  0  0
  183.7380  178.5820  146.1620 C   0  0  0  0  0  3  0  0  0  0  0  0
  186.1430  178.3700  145.9530 C   0  0  0  0  0  0  0  0  0  0  0  0
  184.9960  178.4280  146.7500 C   0  0  0  0  0  3  0  0  0  0  0  0
  183.6230  178.6790  144.7730 C   0  0  0  0  0  3  0  0  0  0  0  0
  187.3510  178.2170  146.5490 F   0  0  0  0  0  0  0  0  0  0  0  0
  184.7660  178.6200  143.9720 C   0  0  0  0  0  3  0  0  0  0  0  0
  192.1590  177.5360  140.6550 C   0  0  1  0  0  3  0  0  0  0  0  0
  193.4380  176.7200  140.6020 C   0  0  0  0  0  1  0  0  0  0  0  0
  191.1830  177.0900  139.6140 C   0  0  0  0  0  0  0  0  0  0  0  0
  189.9820  177.7650  139.4310 O   0  0  0  0  0  1  0  0  0  0  0  0
  191.4640  176.1090  138.8790 O   0  0  0  0  0  0  0  0  0  0  0  0
  1 12  1  6  0  0  0
  1 11  1  0  0  0  0
  2  4  1  0  0  0  0
  5  9  1  0  0  0  0
  5  6  1  1  0  0  0
  7  3  2  0  0  0  0
  7  2  1  0  0  0  0
  8 10  1  0  0  0  0
  8  1  1  0  0  0  0
 10  3  1  6  0  0  0
 10  5  1  0  0  0  0
 11  4  1  6  0  0  0
 11  5  1  0  0  0  0
 12 13  1  6  0  0  0
 12 14  1  0  0  0  0
 14 16  1  0  0  0  0
 15 17  1  0  0  0  0
 16 19  1  0  0  0  0
 16 17  2  0  0  0  0
 18 15  2  0  0  0  0
 20 14  2  0  0  0  0
 20 18  1  0  0  0  0
 21 22  1  1  0  0  0
 21  7  1  0  0  0  0
 23 21  1  0  0  0  0
 24 23  1  0  0  0  0
 25 23  2  0  0  0  0
M  END
>  <MODEL>
9

>  <REMARK>
 VINA RESULT:      -5.0      5.771      7.948
  Name = 
  4 active torsions:
  status: ('A' for Active; 'I' for Inactive)
    1  A    between atoms: C_1  and  C_3
    2  A    between atoms: C_1  and  C_5
    3  A    between atoms: C_2  and  C_21
    4  A    between atoms: C_15  and  C_21
                            x       y       z     vdW  Elec       q    Type
                         _______ _______ _______ _____ _____    ______ ____

>  <TORSDO>
F 4

$$$$
