=
 OpenBabel10262423243D

 34 39  0  0  1  0  0  0  0  0999 V2000
  181.9880  177.8810  140.2160 C   0  0  2  0  0  3  0  0  0  0  0  0
  180.0470  174.7770  139.1870 C   0  0  0  0  0  3  0  0  0  0  0  0
  179.2910  176.5570  140.6370 C   0  0  0  0  0  2  0  0  0  0  0  0
  184.0580  179.0020  141.0370 C   0  0  0  0  0  2  0  0  0  0  0  0
  183.4530  177.6750  140.5870 C   0  0  0  0  0  2  0  0  0  0  0  0
  181.3730  179.2260  142.2540 C   0  0  1  0  0  3  0  0  0  0  0  0
  179.8560  179.5230  143.2090 S   0  0  0  0  0  0  0  0  0  0  0  0
  182.5480  179.0030  143.1920 C   0  0  0  0  0  2  0  0  0  0  0  0
  183.9140  179.2850  142.5430 C   0  0  1  0  0  3  0  0  0  0  0  0
  179.6750  177.9470  141.1350 C   0  0  2  0  0  3  0  0  0  0  0  0
  181.1370  177.9580  141.4830 C   0  0  1  0  0  3  0  0  0  0  0  0
  178.9310  178.2830  142.3340 N   0  0  0  0  0  2  0  0  0  0  0  0
  180.9850  174.0330  138.2990 C   0  0  0  0  0  2  0  0  0  0  0  0
  181.1390  174.7180  136.9800 C   0  0  0  0  0  0  0  0  0  0  0  0
  181.6780  175.9390  136.8990 C   0  0  0  0  0  3  0  0  0  0  0  0
  180.2750  176.0140  139.6310 C   0  0  0  0  0  0  0  0  0  0  0  0
  182.0460  176.7970  138.0430 C   0  0  0  0  0  3  0  0  0  0  0  0
  181.4980  176.8070  139.2700 C   0  0  0  0  0  0  0  0  0  0  0  0
  187.1580  177.5160  143.4600 C   0  0  0  0  0  3  0  0  0  0  0  0
  184.9260  178.6340  144.7320 C   0  0  0  0  0  3  0  0  0  0  0  0
  188.3170  177.5700  146.9470 N   0  0  0  0  0  0  0  0  0  0  0  0
  189.6130  177.5710  147.5680 C   0  0  0  0  0  0  0  0  0  0  0  0
  188.1250  176.8450  145.6820 C   0  0  0  0  0  2  0  0  0  0  0  0
  189.8060  178.2170  148.6320 O   0  0  0  0  0  0  0  0  0  0  0  0
  187.0630  177.4960  144.8540 C   0  0  0  0  0  0  0  0  0  0  0  0
  190.7530  176.8160  146.9740 C   0  0  0  0  0  1  0  0  0  0  0  0
  185.8430  177.9780  146.9760 C   0  0  0  0  0  2  0  0  0  0  0  0
  185.9490  178.0570  145.4890 C   0  0  0  0  0  0  0  0  0  0  0  0
  187.2030  178.2530  147.6290 C   0  0  0  0  0  2  0  0  0  0  0  0
  185.0210  178.6660  143.3360 C   0  0  0  0  0  0  0  0  0  0  0  0
  186.1410  178.1040  142.7020 C   0  0  0  0  0  3  0  0  0  0  0  0
  180.7800  173.9910  135.7520 C   0  0  0  0  0  0  0  0  0  0  0  0
  181.7600  173.6730  134.8190 O   0  0  0  0  0  0  0  0  0  0  0  0
  179.5880  173.6410  135.5370 O   0  0  0  0  0  1  0  0  0  0  0  0
  1  5  1  1  0  0  0
  1 11  1  0  0  0  0
  2 16  2  0  0  0  0
  4  9  1  0  0  0  0
  5  4  1  0  0  0  0
  6  8  1  1  0  0  0
  6  7  1  0  0  0  0
  9  8  1  0  0  0  0
  9 30  1  1  0  0  0
 10  3  1  1  0  0  0
 10 11  1  0  0  0  0
 10 12  1  0  0  0  0
 11  6  1  0  0  0  0
 12  7  1  0  0  0  0
 13  2  1  0  0  0  0
 14 13  1  0  0  0  0
 15 14  2  0  0  0  0
 15 17  1  0  0  0  0
 16  3  1  0  0  0  0
 17 18  2  0  0  0  0
 18 16  1  0  0  0  0
 18  1  1  0  0  0  0
 19 25  1  0  0  0  0
 20 28  1  0  0  0  0
 21 22  1  0  0  0  0
 21 29  1  0  0  0  0
 22 24  2  0  0  0  0
 23 21  1  0  0  0  0
 25 28  2  0  0  0  0
 25 23  1  0  0  0  0
 26 22  1  0  0  0  0
 27 29  1  0  0  0  0
 28 27  1  0  0  0  0
 30 20  2  0  0  0  0
 31 30  1  0  0  0  0
 31 19  2  0  0  0  0
 32 14  1  0  0  0  0
 33 32  2  0  0  0  0
 34 32  1  0  0  0  0
M  END
>  <MODEL>
1

>  <REMARK>
 VINA RESULT:      -9.5      0.000      0.000
  Name = 
  2 active torsions:
  status: ('A' for Active; 'I' for Inactive)
    1  A    between atoms: C_3  and  C_25
    2  A    between atoms: C_18  and  C_30
                            x       y       z     vdW  Elec       q    Type
                         _______ _______ _______ _____ _____    ______ ____

>  <TORSDO>
F 2

$$$$
=
 OpenBabel10262423243D

 34 39  0  0  1  0  0  0  0  0999 V2000
  190.5100  176.7400  137.4100 C   0  0  2  0  0  3  0  0  0  0  0  0
  192.1800  173.4560  136.4690 C   0  0  0  0  0  3  0  0  0  0  0  0
  190.0500  174.2870  135.6860 C   0  0  0  0  0  2  0  0  0  0  0  0
  189.7900  178.4310  139.0940 C   0  0  0  0  0  2  0  0  0  0  0  0
  190.5600  177.1310  138.8840 C   0  0  0  0  0  2  0  0  0  0  0  0
  188.0390  177.1160  137.1080 C   0  0  1  0  0  3  0  0  0  0  0  0
  186.7450  176.4540  136.0180 S   0  0  0  0  0  0  0  0  0  0  0  0
  187.5210  177.2220  138.5330 C   0  0  0  0  0  2  0  0  0  0  0  0
  188.2930  178.2390  139.3930 C   0  0  1  0  0  3  0  0  0  0  0  0
  189.1670  175.5300  135.6990 C   0  0  2  0  0  3  0  0  0  0  0  0
  189.1560  176.1110  137.0850 C   0  0  1  0  0  3  0  0  0  0  0  0
  187.8000  175.1890  135.3500 N   0  0  0  0  0  2  0  0  0  0  0  0
  193.4570  173.4580  137.2380 C   0  0  0  0  0  2  0  0  0  0  0  0
  194.4290  174.4400  136.6700 C   0  0  0  0  0  0  0  0  0  0  0  0
  194.1640  175.7500  136.6760 C   0  0  0  0  0  3  0  0  0  0  0  0
  191.3690  174.5110  136.3820 C   0  0  0  0  0  0  0  0  0  0  0  0
  192.8900  176.3710  137.0890 C   0  0  0  0  0  3  0  0  0  0  0  0
  191.6610  175.8310  137.0360 C   0  0  0  0  0  0  0  0  0  0  0  0
  188.7810  177.2840  143.0450 C   0  0  0  0  0  3  0  0  0  0  0  0
  186.7700  178.2880  141.3720 C   0  0  0  0  0  3  0  0  0  0  0  0
  186.2870  178.3340  145.5320 N   0  0  0  0  0  0  0  0  0  0  0  0
  186.3530  178.6910  146.9220 C   0  0  0  0  0  0  0  0  0  0  0  0
  187.2060  177.3140  145.0050 C   0  0  0  0  0  2  0  0  0  0  0  0
  185.5990  179.5890  147.3830 O   0  0  0  0  0  0  0  0  0  0  0  0
  187.5170  177.5730  143.5650 C   0  0  0  0  0  0  0  0  0  0  0  0
  187.3070  178.0140  147.8470 C   0  0  0  0  0  1  0  0  0  0  0  0
  185.1540  178.3290  143.2950 C   0  0  0  0  0  2  0  0  0  0  0  0
  186.5130  178.0770  142.7290 C   0  0  0  0  0  0  0  0  0  0  0  0
  185.2590  178.9660  144.6860 C   0  0  0  0  0  2  0  0  0  0  0  0
  188.0380  178.0100  140.8480 C   0  0  0  0  0  0  0  0  0  0  0  0
  189.0430  177.5060  141.6900 C   0  0  0  0  0  3  0  0  0  0  0  0
  195.7340  173.9560  136.1890 C   0  0  0  0  0  0  0  0  0  0  0  0
  196.8860  174.6920  136.4430 O   0  0  0  0  0  1  0  0  0  0  0  0
  195.8230  172.8720  135.5530 O   0  0  0  0  0  0  0  0  0  0  0  0
  1  5  1  1  0  0  0
  2 13  1  0  0  0  0
  3 16  1  0  0  0  0
  4  9  1  0  0  0  0
  5  4  1  0  0  0  0
  6  8  1  1  0  0  0
  7  6  1  0  0  0  0
  8  9  1  0  0  0  0
  9 30  1  1  0  0  0
 10  3  1  1  0  0  0
 10 11  1  0  0  0  0
 11  6  1  0  0  0  0
 11  1  1  0  0  0  0
 12 10  1  0  0  0  0
 12  7  1  0  0  0  0
 14 15  2  0  0  0  0
 14 13  1  0  0  0  0
 15 17  1  0  0  0  0
 16  2  2  0  0  0  0
 16 18  1  0  0  0  0
 18 17  2  0  0  0  0
 18  1  1  0  0  0  0
 19 25  1  0  0  0  0
 20 28  1  0  0  0  0
 21 22  1  0  0  0  0
 22 24  2  0  0  0  0
 22 26  1  0  0  0  0
 23 21  1  0  0  0  0
 25 23  1  0  0  0  0
 27 29  1  0  0  0  0
 28 27  1  0  0  0  0
 28 25  2  0  0  0  0
 29 21  1  0  0  0  0
 30 20  2  0  0  0  0
 30 31  1  0  0  0  0
 31 19  2  0  0  0  0
 32 33  1  0  0  0  0
 32 14  1  0  0  0  0
 34 32  2  0  0  0  0
M  END
>  <MODEL>
2

>  <REMARK>
 VINA RESULT:      -8.7      7.285      9.071
  Name = 
  2 active torsions:
  status: ('A' for Active; 'I' for Inactive)
    1  A    between atoms: C_3  and  C_25
    2  A    between atoms: C_18  and  C_30
                            x       y       z     vdW  Elec       q    Type
                         _______ _______ _______ _____ _____    ______ ____

>  <TORSDO>
F 2

$$$$
=
 OpenBabel10262423243D

 34 39  0  0  1  0  0  0  0  0999 V2000
  188.5250  178.0840  140.9770 C   0  0  2  0  0  3  0  0  0  0  0  0
  187.6930  177.1740  144.5740 C   0  0  0  0  0  3  0  0  0  0  0  0
  189.8920  177.4770  143.6160 C   0  0  0  0  0  2  0  0  0  0  0  0
  188.2300  177.8000  138.5180 C   0  0  0  0  0  2  0  0  0  0  0  0
  187.7250  177.3700  139.8920 C   0  0  0  0  0  2  0  0  0  0  0  0
  190.7950  177.6460  139.9800 C   0  0  1  0  0  3  0  0  0  0  0  0
  192.4880  177.4810  140.6190 S   0  0  0  0  0  0  0  0  0  0  0  0
  190.5220  176.5750  138.9360 C   0  0  0  0  0  2  0  0  0  0  0  0
  189.3810  176.9380  137.9690 C   0  0  1  0  0  3  0  0  0  0  0  0
  190.5960  177.9610  142.3530 C   0  0  2  0  0  3  0  0  0  0  0  0
  189.8840  177.4080  141.1510 C   0  0  1  0  0  3  0  0  0  0  0  0
  191.9650  177.4830  142.3170 N   0  0  0  0  0  2  0  0  0  0  0  0
  186.2040  177.1180  144.6060 C   0  0  0  0  0  2  0  0  0  0  0  0
  185.6090  178.4850  144.5170 C   0  0  0  0  0  0  0  0  0  0  0  0
  185.7800  179.2390  143.4260 C   0  0  0  0  0  3  0  0  0  0  0  0
  188.3930  177.6280  143.5330 C   0  0  0  0  0  0  0  0  0  0  0  0
  186.6470  178.9110  142.2770 C   0  0  0  0  0  3  0  0  0  0  0  0
  187.7570  178.1540  142.2790 C   0  0  0  0  0  0  0  0  0  0  0  0
  189.1670  173.4280  136.5100 C   0  0  0  0  0  3  0  0  0  0  0  0
  187.6300  175.7690  136.6240 C   0  0  0  0  0  3  0  0  0  0  0  0
  185.9380  172.1840  135.2720 N   0  0  0  0  0  0  0  0  0  0  0  0
  185.3240  170.8870  135.2150 C   0  0  0  0  0  0  0  0  0  0  0  0
  187.3960  172.2990  135.1270 C   0  0  0  0  0  2  0  0  0  0  0  0
  184.0800  170.7660  135.3750 O   0  0  0  0  0  0  0  0  0  0  0  0
  187.9150  173.4760  135.8910 C   0  0  0  0  0  0  0  0  0  0  0  0
  186.1350  169.6600  134.9680 C   0  0  0  0  0  1  0  0  0  0  0  0
  185.8350  174.6900  135.2380 C   0  0  0  0  0  2  0  0  0  0  0  0
  187.1470  174.6440  135.9500 C   0  0  0  0  0  0  0  0  0  0  0  0
  185.0760  173.3710  135.4220 C   0  0  0  0  0  2  0  0  0  0  0  0
  188.8790  175.7230  137.2550 C   0  0  0  0  0  0  0  0  0  0  0  0
  189.6470  174.5480  137.1940 C   0  0  0  0  0  3  0  0  0  0  0  0
  184.7440  178.9600  145.6090 C   0  0  0  0  0  0  0  0  0  0  0  0
  185.3060  179.3770  146.8110 O   0  0  0  0  0  1  0  0  0  0  0  0
  183.4930  179.0020  145.4670 O   0  0  0  0  0  0  0  0  0  0  0  0
  1  5  1  6  0  0  0
  1 11  1  0  0  0  0
  1 18  1  0  0  0  0
  2 13  1  0  0  0  0
  4  5  1  0  0  0  0
  6  8  1  6  0  0  0
  6  7  1  0  0  0  0
  6 11  1  0  0  0  0
  7 12  1  0  0  0  0
  9 30  1  1  0  0  0
  9  4  1  0  0  0  0
  9  8  1  0  0  0  0
 10  3  1  1  0  0  0
 11 10  1  0  0  0  0
 12 10  1  0  0  0  0
 14 13  1  0  0  0  0
 14 32  1  0  0  0  0
 15 14  2  0  0  0  0
 16  3  1  0  0  0  0
 16  2  2  0  0  0  0
 17 18  2  0  0  0  0
 17 15  1  0  0  0  0
 18 16  1  0  0  0  0
 19 31  1  0  0  0  0
 20 30  1  0  0  0  0
 21 29  1  0  0  0  0
 22 21  1  0  0  0  0
 22 24  2  0  0  0  0
 23 21  1  0  0  0  0
 23 25  1  0  0  0  0
 25 28  1  0  0  0  0
 25 19  2  0  0  0  0
 26 22  1  0  0  0  0
 27 29  1  0  0  0  0
 27 28  1  0  0  0  0
 28 20  2  0  0  0  0
 31 30  2  0  0  0  0
 32 33  1  0  0  0  0
 34 32  2  0  0  0  0
M  END
>  <MODEL>
3

>  <REMARK>
 VINA RESULT:      -8.2      5.544     10.515
  Name = 
  2 active torsions:
  status: ('A' for Active; 'I' for Inactive)
    1  A    between atoms: C_3  and  C_25
    2  A    between atoms: C_18  and  C_30
                            x       y       z     vdW  Elec       q    Type
                         _______ _______ _______ _____ _____    ______ ____

>  <TORSDO>
F 2

$$$$
=
 OpenBabel10262423243D

 34 39  0  0  1  0  0  0  0  0999 V2000
  193.0210  175.6650  137.7440 C   0  0  2  0  0  3  0  0  0  0  0  0
  194.2670  172.1690  136.9130 C   0  0  0  0  0  3  0  0  0  0  0  0
  192.2350  173.2190  136.1300 C   0  0  0  0  0  2  0  0  0  0  0  0
  192.5420  177.4940  139.3680 C   0  0  0  0  0  2  0  0  0  0  0  0
  193.1470  176.1040  139.1990 C   0  0  0  0  0  2  0  0  0  0  0  0
  190.6060  176.3220  137.4660 C   0  0  1  0  0  3  0  0  0  0  0  0
  189.2210  175.7780  136.4240 S   0  0  0  0  0  0  0  0  0  0  0  0
  190.1340  176.5450  138.8930 C   0  0  0  0  0  2  0  0  0  0  0  0
  191.0390  177.4950  139.6980 C   0  0  1  0  0  3  0  0  0  0  0  0
  191.5080  174.5590  136.1060 C   0  0  2  0  0  3  0  0  0  0  0  0
  191.5950  175.1910  137.4660 C   0  0  1  0  0  3  0  0  0  0  0  0
  190.1030  174.3710  135.7930 N   0  0  0  0  0  2  0  0  0  0  0  0
  195.5510  172.0480  137.6610 C   0  0  0  0  0  2  0  0  0  0  0  0
  196.6210  172.8830  137.0380 C   0  0  0  0  0  0  0  0  0  0  0  0
  196.5150  174.2150  136.9940 C   0  0  0  0  0  3  0  0  0  0  0  0
  193.5860  173.3100  136.7960 C   0  0  0  0  0  0  0  0  0  0  0  0
  195.3320  175.0000  137.4010 C   0  0  0  0  0  3  0  0  0  0  0  0
  194.0460  174.6100  137.3900 C   0  0  0  0  0  0  0  0  0  0  0  0
  191.5610  177.4370  143.4680 C   0  0  0  0  0  3  0  0  0  0  0  0
  189.5180  176.9680  141.6090 C   0  0  0  0  0  3  0  0  0  0  0  0
  188.6380  177.2830  145.6910 N   0  0  0  0  0  0  0  0  0  0  0  0
  188.3540  177.7950  147.0030 C   0  0  0  0  0  0  0  0  0  0  0  0
  190.0090  176.8650  145.3610 C   0  0  0  0  0  2  0  0  0  0  0  0
  187.1940  178.1940  147.2910 O   0  0  0  0  0  0  0  0  0  0  0  0
  190.2880  177.0620  143.9050 C   0  0  0  0  0  0  0  0  0  0  0  0
  189.4150  177.8680  148.0480 C   0  0  0  0  0  1  0  0  0  0  0  0
  187.9300  176.3780  143.4630 C   0  0  0  0  0  2  0  0  0  0  0  0
  189.2680  176.8290  142.9760 C   0  0  0  0  0  0  0  0  0  0  0  0
  187.5300  177.1430  144.7290 C   0  0  0  0  0  2  0  0  0  0  0  0
  190.7890  177.3550  141.1660 C   0  0  0  0  0  0  0  0  0  0  0  0
  191.8100  177.5880  142.1010 C   0  0  0  0  0  3  0  0  0  0  0  0
  197.8490  172.2290  136.5570 C   0  0  0  0  0  0  0  0  0  0  0  0
  198.3620  171.1280  137.2330 O   0  0  0  0  0  1  0  0  0  0  0  0
  198.4400  172.6490  135.5270 O   0  0  0  0  0  0  0  0  0  0  0  0
  1  5  1  1  0  0  0
  2 13  1  0  0  0  0
  3 16  1  0  0  0  0
  4  9  1  0  0  0  0
  5  4  1  0  0  0  0
  6  8  1  1  0  0  0
  7  6  1  0  0  0  0
  8  9  1  0  0  0  0
  9 30  1  1  0  0  0
 10  3  1  1  0  0  0
 10 11  1  0  0  0  0
 11  6  1  0  0  0  0
 11  1  1  0  0  0  0
 12 10  1  0  0  0  0
 12  7  1  0  0  0  0
 14 13  1  0  0  0  0
 15 14  2  0  0  0  0
 15 17  1  0  0  0  0
 16  2  2  0  0  0  0
 16 18  1  0  0  0  0
 18 17  2  0  0  0  0
 18  1  1  0  0  0  0
 19 25  1  0  0  0  0
 20 28  1  0  0  0  0
 21 22  1  0  0  0  0
 22 24  2  0  0  0  0
 22 26  1  0  0  0  0
 23 21  1  0  0  0  0
 25 23  1  0  0  0  0
 27 29  1  0  0  0  0
 28 27  1  0  0  0  0
 28 25  2  0  0  0  0
 29 21  1  0  0  0  0
 30 20  2  0  0  0  0
 30 31  1  0  0  0  0
 31 19  2  0  0  0  0
 32 14  1  0  0  0  0
 32 33  1  0  0  0  0
 34 32  2  0  0  0  0
M  END
>  <MODEL>
4

>  <REMARK>
 VINA RESULT:      -8.2      8.511     10.830
  Name = 
  2 active torsions:
  status: ('A' for Active; 'I' for Inactive)
    1  A    between atoms: C_3  and  C_25
    2  A    between atoms: C_18  and  C_30
                            x       y       z     vdW  Elec       q    Type
                         _______ _______ _______ _____ _____    ______ ____

>  <TORSDO>
F 2

$$$$
=
 OpenBabel10262423243D

 34 39  0  0  1  0  0  0  0  0999 V2000
  186.1310  178.6180  140.5600 C   0  0  2  0  0  3  0  0  0  0  0  0
  187.6950  177.2100  143.7290 C   0  0  0  0  0  3  0  0  0  0  0  0
  188.8390  177.8680  141.7030 C   0  0  0  0  0  2  0  0  0  0  0  0
  184.3970  178.5880  138.7700 C   0  0  0  0  0  2  0  0  0  0  0  0
  184.8480  177.9480  140.0800 C   0  0  0  0  0  2  0  0  0  0  0  0
  187.3220  178.5570  138.3430 C   0  0  1  0  0  3  0  0  0  0  0  0
  189.0540  178.5110  137.7970 S   0  0  0  0  0  0  0  0  0  0  0  0
  186.4870  177.5900  137.5200 C   0  0  0  0  0  2  0  0  0  0  0  0
  184.9860  177.9300  137.5090 C   0  0  1  0  0  3  0  0  0  0  0  0
  188.6130  178.5710  140.3700 C   0  0  2  0  0  3  0  0  0  0  0  0
  187.3240  178.0830  139.7690 C   0  0  1  0  0  3  0  0  0  0  0  0
  189.6820  178.2580  139.4400 N   0  0  0  0  0  2  0  0  0  0  0  0
  186.5380  176.9830  144.6410 C   0  0  0  0  0  2  0  0  0  0  0  0
  185.9880  178.2760  145.1500 C   0  0  0  0  0  0  0  0  0  0  0  0
  185.4410  179.1650  144.3150 C   0  0  0  0  0  3  0  0  0  0  0  0
  187.6020  177.8580  142.5660 C   0  0  0  0  0  0  0  0  0  0  0  0
  185.4290  179.0710  142.8410 C   0  0  0  0  0  3  0  0  0  0  0  0
  186.3210  178.4500  142.0520 C   0  0  0  0  0  0  0  0  0  0  0  0
  184.0170  174.5080  136.1520 C   0  0  0  0  0  3  0  0  0  0  0  0
  182.7780  176.8370  137.0980 C   0  0  0  0  0  3  0  0  0  0  0  0
  180.5560  173.3330  136.5320 N   0  0  0  0  0  0  0  0  0  0  0  0
  179.9540  172.0400  136.7070 C   0  0  0  0  0  0  0  0  0  0  0  0
  181.7740  173.4570  135.7190 C   0  0  0  0  0  2  0  0  0  0  0  0
  178.9310  171.9090  137.4310 O   0  0  0  0  0  0  0  0  0  0  0  0
  182.6230  174.5890  136.2040 C   0  0  0  0  0  0  0  0  0  0  0  0
  180.5200  170.8300  136.0440 C   0  0  0  0  0  1  0  0  0  0  0  0
  180.5140  175.8360  136.6750 C   0  0  0  0  0  2  0  0  0  0  0  0
  182.0050  175.7520  136.6780 C   0  0  0  0  0  0  0  0  0  0  0  0
  179.8980  174.5090  137.1310 C   0  0  0  0  0  2  0  0  0  0  0  0
  184.1760  176.7570  137.0590 C   0  0  0  0  0  0  0  0  0  0  0  0
  184.7920  175.5880  136.5830 C   0  0  0  0  0  3  0  0  0  0  0  0
  185.9650  178.5200  146.6010 C   0  0  0  0  0  0  0  0  0  0  0  0
  187.0890  178.2450  147.3710 O   0  0  0  0  0  1  0  0  0  0  0  0
  184.9360  178.9890  147.1580 O   0  0  0  0  0  0  0  0  0  0  0  0
  1  5  1  6  0  0  0
  1 18  1  0  0  0  0
  2 13  1  0  0  0  0
  3 16  1  0  0  0  0
  4  5  1  0  0  0  0
  6  8  1  6  0  0  0
  6 11  1  0  0  0  0
  7  6  1  0  0  0  0
  7 12  1  0  0  0  0
  9 30  1  1  0  0  0
  9  8  1  0  0  0  0
  9  4  1  0  0  0  0
 10  3  1  1  0  0  0
 11 10  1  0  0  0  0
 11  1  1  0  0  0  0
 12 10  1  0  0  0  0
 13 14  1  0  0  0  0
 14 32  1  0  0  0  0
 15 14  2  0  0  0  0
 16  2  2  0  0  0  0
 17 15  1  0  0  0  0
 18 16  1  0  0  0  0
 18 17  2  0  0  0  0
 19 25  2  0  0  0  0
 19 31  1  0  0  0  0
 21 22  1  0  0  0  0
 21 29  1  0  0  0  0
 22 24  2  0  0  0  0
 23 25  1  0  0  0  0
 23 21  1  0  0  0  0
 25 28  1  0  0  0  0
 26 22  1  0  0  0  0
 27 28  1  0  0  0  0
 27 29  1  0  0  0  0
 28 20  2  0  0  0  0
 30 20  1  0  0  0  0
 31 30  2  0  0  0  0
 32 34  2  0  0  0  0
 32 33  1  0  0  0  0
M  END
>  <MODEL>
5

>  <REMARK>
 VINA RESULT:      -8.0      3.591     10.188
  Name = 
  2 active torsions:
  status: ('A' for Active; 'I' for Inactive)
    1  A    between atoms: C_3  and  C_25
    2  A    between atoms: C_18  and  C_30
                            x       y       z     vdW  Elec       q    Type
                         _______ _______ _______ _____ _____    ______ ____

>  <TORSDO>
F 2

$$$$
=
 OpenBabel10262423243D

 34 39  0  0  1  0  0  0  0  0999 V2000
  191.5240  176.0300  137.1780 C   0  0  2  0  0  3  0  0  0  0  0  0
  194.0260  173.1910  136.7930 C   0  0  0  0  0  3  0  0  0  0  0  0
  191.6700  173.1450  136.2530 C   0  0  0  0  0  2  0  0  0  0  0  0
  190.5000  177.8880  138.4860 C   0  0  0  0  0  2  0  0  0  0  0  0
  191.6100  176.8420  138.4670 C   0  0  0  0  0  2  0  0  0  0  0  0
  189.0420  175.6180  137.2760 C   0  0  1  0  0  3  0  0  0  0  0  0
  187.9100  174.3380  136.6610 S   0  0  0  0  0  0  0  0  0  0  0  0
  188.6760  176.0020  138.7000 C   0  0  0  0  0  2  0  0  0  0  0  0
  189.1800  177.3980  139.1090 C   0  0  1  0  0  3  0  0  0  0  0  0
  190.4490  174.0490  136.1220 C   0  0  2  0  0  3  0  0  0  0  0  0
  190.4080  174.9920  137.2910 C   0  0  1  0  0  3  0  0  0  0  0  0
  189.2280  173.2640  136.1430 N   0  0  0  0  0  2  0  0  0  0  0  0
  195.3140  173.7670  137.2740 C   0  0  0  0  0  2  0  0  0  0  0  0
  195.8610  174.7580  136.2990 C   0  0  0  0  0  0  0  0  0  0  0  0
  195.2010  175.8880  136.0240 C   0  0  0  0  0  3  0  0  0  0  0  0
  192.9200  173.9130  136.6010 C   0  0  0  0  0  0  0  0  0  0  0  0
  193.8500  176.2360  136.5060 C   0  0  0  0  0  3  0  0  0  0  0  0
  192.8530  175.3950  136.8310 C   0  0  0  0  0  0  0  0  0  0  0  0
  187.9840  177.9230  142.6840 C   0  0  0  0  0  3  0  0  0  0  0  0
  190.3820  177.5120  141.2950 C   0  0  0  0  0  3  0  0  0  0  0  0
  190.2750  177.2280  145.4720 N   0  0  0  0  0  0  0  0  0  0  0  0
  190.0960  176.7520  146.8160 C   0  0  0  0  0  0  0  0  0  0  0  0
  189.2350  178.0680  144.8600 C   0  0  0  0  0  2  0  0  0  0  0  0
  190.9590  176.0000  147.3430 O   0  0  0  0  0  0  0  0  0  0  0  0
  189.1950  177.8680  143.3780 C   0  0  0  0  0  0  0  0  0  0  0  0
  188.8950  177.1310  147.6150 C   0  0  0  0  0  1  0  0  0  0  0  0
  191.6800  177.6580  143.4400 C   0  0  0  0  0  2  0  0  0  0  0  0
  190.3920  177.6610  142.6840 C   0  0  0  0  0  0  0  0  0  0  0  0
  191.5260  176.9010  144.7650 C   0  0  0  0  0  2  0  0  0  0  0  0
  189.1700  177.5550  140.5960 C   0  0  0  0  0  0  0  0  0  0  0  0
  187.9700  177.7630  141.2960 C   0  0  0  0  0  3  0  0  0  0  0  0
  197.1900  174.5230  135.7130 C   0  0  0  0  0  0  0  0  0  0  0  0
  198.2480  175.3700  136.0220 O   0  0  0  0  0  1  0  0  0  0  0  0
  197.3870  173.5500  134.9350 O   0  0  0  0  0  0  0  0  0  0  0  0
  1 11  1  0  0  0  0
  1  5  1  1  0  0  0
  2 13  1  0  0  0  0
  3 16  1  0  0  0  0
  4  9  1  0  0  0  0
  5  4  1  0  0  0  0
  6 11  1  0  0  0  0
  6  8  1  1  0  0  0
  7  6  1  0  0  0  0
  8  9  1  0  0  0  0
  9 30  1  1  0  0  0
 10 12  1  0  0  0  0
 10  3  1  1  0  0  0
 10 11  1  0  0  0  0
 12  7  1  0  0  0  0
 14 13  1  0  0  0  0
 15 14  2  0  0  0  0
 15 17  1  0  0  0  0
 16  2  2  0  0  0  0
 16 18  1  0  0  0  0
 17 18  2  0  0  0  0
 18  1  1  0  0  0  0
 19 25  1  0  0  0  0
 20 28  1  0  0  0  0
 21 22  1  0  0  0  0
 22 24  2  0  0  0  0
 22 26  1  0  0  0  0
 23 21  1  0  0  0  0
 25 23  1  0  0  0  0
 27 29  1  0  0  0  0
 28 25  2  0  0  0  0
 28 27  1  0  0  0  0
 29 21  1  0  0  0  0
 30 20  2  0  0  0  0
 30 31  1  0  0  0  0
 31 19  2  0  0  0  0
 32 33  1  0  0  0  0
 32 14  1  0  0  0  0
 34 32  2  0  0  0  0
M  END
>  <MODEL>
6

>  <REMARK>
 VINA RESULT:      -8.0      8.089     10.179
  Name = 
  2 active torsions:
  status: ('A' for Active; 'I' for Inactive)
    1  A    between atoms: C_3  and  C_25
    2  A    between atoms: C_18  and  C_30
                            x       y       z     vdW  Elec       q    Type
                         _______ _______ _______ _____ _____    ______ ____

>  <TORSDO>
F 2

$$$$
=
 OpenBabel10262423243D

 34 39  0  0  1  0  0  0  0  0999 V2000
  189.3310  175.8670  137.4380 C   0  0  2  0  0  3  0  0  0  0  0  0
  186.5730  173.6130  136.1070 C   0  0  0  0  0  3  0  0  0  0  0  0
  186.7340  176.0140  135.8770 C   0  0  0  0  0  2  0  0  0  0  0  0
  190.8720  176.6120  139.2510 C   0  0  0  0  0  2  0  0  0  0  0  0
  189.8200  175.5800  138.8540 C   0  0  0  0  0  2  0  0  0  0  0  0
  188.9960  178.3420  137.7580 C   0  0  1  0  0  3  0  0  0  0  0  0
  187.9320  179.6170  137.0210 S   0  0  0  0  0  0  0  0  0  0  0  0
  189.0530  178.5140  139.2680 C   0  0  0  0  0  2  0  0  0  0  0  0
  190.2970  177.8790  139.9110 C   0  0  1  0  0  3  0  0  0  0  0  0
  187.6870  177.1820  136.1110 C   0  0  2  0  0  3  0  0  0  0  0  0
  188.3350  177.0260  137.4570 C   0  0  1  0  0  3  0  0  0  0  0  0
  186.9620  178.4390  136.1110 N   0  0  0  0  0  2  0  0  0  0  0  0
  186.9760  172.2440  136.5360 C   0  0  0  0  0  2  0  0  0  0  0  0
  188.1460  171.7520  135.7470 C   0  0  0  0  0  0  0  0  0  0  0  0
  189.3310  172.3660  135.8200 C   0  0  0  0  0  3  0  0  0  0  0  0
  187.3580  174.6850  136.2260 C   0  0  0  0  0  0  0  0  0  0  0  0
  189.6060  173.6280  136.5370 C   0  0  0  0  0  3  0  0  0  0  0  0
  188.7480  174.6310  136.7900 C   0  0  0  0  0  0  0  0  0  0  0  0
  190.9820  177.6920  143.6510 C   0  0  0  0  0  3  0  0  0  0  0  0
  188.8450  177.3480  141.8730 C   0  0  0  0  0  3  0  0  0  0  0  0
  188.1570  177.5730  145.9980 N   0  0  0  0  0  0  0  0  0  0  0  0
  187.9490  178.0550  147.3350 C   0  0  0  0  0  0  0  0  0  0  0  0
  189.4960  177.1170  145.5950 C   0  0  0  0  0  2  0  0  0  0  0  0
  186.8180  178.4840  147.6860 O   0  0  0  0  0  0  0  0  0  0  0  0
  189.7170  177.3470  144.1340 C   0  0  0  0  0  0  0  0  0  0  0  0
  189.0570  178.0610  148.3330 C   0  0  0  0  0  1  0  0  0  0  0  0
  187.3190  176.7580  143.7790 C   0  0  0  0  0  2  0  0  0  0  0  0
  188.6490  177.1770  143.2460 C   0  0  0  0  0  0  0  0  0  0  0  0
  187.0030  177.4990  145.0830 C   0  0  0  0  0  2  0  0  0  0  0  0
  190.1070  177.7040  141.3840 C   0  0  0  0  0  0  0  0  0  0  0  0
  191.1760  177.8740  142.2790 C   0  0  0  0  0  3  0  0  0  0  0  0
  188.0060  170.5180  134.9570 C   0  0  0  0  0  0  0  0  0  0  0  0
  186.7440  170.0620  134.5950 O   0  0  0  0  0  1  0  0  0  0  0  0
  189.0230  169.8690  134.5940 O   0  0  0  0  0  0  0  0  0  0  0  0
  1 11  1  0  0  0  0
  1  5  1  1  0  0  0
  2 16  2  0  0  0  0
  2 13  1  0  0  0  0
  3 16  1  0  0  0  0
  4  9  1  0  0  0  0
  5  4  1  0  0  0  0
  6  8  1  1  0  0  0
  7  6  1  0  0  0  0
  8  9  1  0  0  0  0
  9 30  1  1  0  0  0
 10  3  1  1  0  0  0
 10 12  1  0  0  0  0
 10 11  1  0  0  0  0
 11  6  1  0  0  0  0
 12  7  1  0  0  0  0
 14 15  2  0  0  0  0
 14 13  1  0  0  0  0
 15 17  1  0  0  0  0
 16 18  1  0  0  0  0
 17 18  2  0  0  0  0
 18  1  1  0  0  0  0
 19 25  1  0  0  0  0
 20 28  1  0  0  0  0
 21 22  1  0  0  0  0
 22 24  2  0  0  0  0
 22 26  1  0  0  0  0
 23 21  1  0  0  0  0
 25 23  1  0  0  0  0
 27 29  1  0  0  0  0
 28 27  1  0  0  0  0
 28 25  2  0  0  0  0
 29 21  1  0  0  0  0
 30 20  2  0  0  0  0
 30 31  1  0  0  0  0
 31 19  2  0  0  0  0
 32 14  1  0  0  0  0
 33 32  1  0  0  0  0
 34 32  2  0  0  0  0
M  END
>  <MODEL>
7

>  <REMARK>
 VINA RESULT:      -7.7      5.642      6.839
  Name = 
  2 active torsions:
  status: ('A' for Active; 'I' for Inactive)
    1  A    between atoms: C_3  and  C_25
    2  A    between atoms: C_18  and  C_30
                            x       y       z     vdW  Elec       q    Type
                         _______ _______ _______ _____ _____    ______ ____

>  <TORSDO>
F 2

$$$$
=
 OpenBabel10262423243D

 34 39  0  0  1  0  0  0  0  0999 V2000
  187.9100  178.2420  140.7820 C   0  0  2  0  0  3  0  0  0  0  0  0
  187.5530  177.0850  144.3870 C   0  0  0  0  0  3  0  0  0  0  0  0
  189.6040  177.3490  143.1340 C   0  0  0  0  0  2  0  0  0  0  0  0
  187.2430  178.1770  138.3810 C   0  0  0  0  0  2  0  0  0  0  0  0
  186.9160  177.6630  139.7800 C   0  0  0  0  0  2  0  0  0  0  0  0
  189.9780  177.7690  139.4260 C   0  0  1  0  0  3  0  0  0  0  0  0
  191.7310  177.4630  139.7900 S   0  0  0  0  0  0  0  0  0  0  0  0
  189.4870  176.8030  138.3590 C   0  0  0  0  0  2  0  0  0  0  0  0
  188.2440  177.3040  137.6040 C   0  0  1  0  0  3  0  0  0  0  0  0
  190.1460  177.8980  141.8190 C   0  0  2  0  0  3  0  0  0  0  0  0
  189.2330  177.4830  140.7000 C   0  0  1  0  0  3  0  0  0  0  0  0
  191.4630  177.3530  141.5430 N   0  0  0  0  0  2  0  0  0  0  0  0
  186.0840  177.1040  144.6370 C   0  0  0  0  0  2  0  0  0  0  0  0
  185.5710  178.5040  144.7390 C   0  0  0  0  0  0  0  0  0  0  0  0
  185.6300  179.3350  143.6940 C   0  0  0  0  0  3  0  0  0  0  0  0
  188.1220  177.5860  143.2890 C   0  0  0  0  0  0  0  0  0  0  0  0
  186.2980  179.0570  142.4070 C   0  0  0  0  0  3  0  0  0  0  0  0
  187.3460  178.2450  142.1860 C   0  0  0  0  0  0  0  0  0  0  0  0
  187.5810  173.9260  135.9770 C   0  0  0  0  0  3  0  0  0  0  0  0
  186.2600  176.3580  136.4160 C   0  0  0  0  0  3  0  0  0  0  0  0
  184.1410  173.0050  135.0720 N   0  0  0  0  0  0  0  0  0  0  0  0
  183.4230  171.7620  135.0130 C   0  0  0  0  0  0  0  0  0  0  0  0
  185.5770  173.0240  134.7560 C   0  0  0  0  0  2  0  0  0  0  0  0
  182.2010  171.7200  135.3170 O   0  0  0  0  0  0  0  0  0  0  0  0
  186.2730  174.1060  135.5190 C   0  0  0  0  0  0  0  0  0  0  0  0
  184.1000  170.5000  134.5970 C   0  0  0  0  0  1  0  0  0  0  0  0
  184.2350  175.5080  135.1980 C   0  0  0  0  0  2  0  0  0  0  0  0
  185.6130  175.3200  135.7410 C   0  0  0  0  0  0  0  0  0  0  0  0
  183.3990  174.2380  135.3950 C   0  0  0  0  0  2  0  0  0  0  0  0
  187.5670  176.1800  136.8860 C   0  0  0  0  0  0  0  0  0  0  0  0
  188.2260  174.9600  136.6630 C   0  0  0  0  0  3  0  0  0  0  0  0
  184.9070  178.9320  145.9810 C   0  0  0  0  0  0  0  0  0  0  0  0
  185.6640  179.3740  147.0590 O   0  0  0  0  0  1  0  0  0  0  0  0
  183.6500  178.9110  146.0780 O   0  0  0  0  0  0  0  0  0  0  0  0
  1  5  1  6  0  0  0
  1 18  1  0  0  0  0
  2 13  1  0  0  0  0
  3 16  1  0  0  0  0
  4  5  1  0  0  0  0
  6  8  1  6  0  0  0
  6  7  1  0  0  0  0
  6 11  1  0  0  0  0
  7 12  1  0  0  0  0
  9 30  1  1  0  0  0
  9  8  1  0  0  0  0
  9  4  1  0  0  0  0
 10  3  1  1  0  0  0
 11  1  1  0  0  0  0
 11 10  1  0  0  0  0
 12 10  1  0  0  0  0
 13 14  1  0  0  0  0
 14 32  1  0  0  0  0
 15 14  2  0  0  0  0
 16  2  2  0  0  0  0
 17 15  1  0  0  0  0
 18 17  2  0  0  0  0
 18 16  1  0  0  0  0
 19 31  1  0  0  0  0
 20 30  1  0  0  0  0
 21 29  1  0  0  0  0
 22 21  1  0  0  0  0
 22 24  2  0  0  0  0
 23 21  1  0  0  0  0
 23 25  1  0  0  0  0
 25 28  1  0  0  0  0
 25 19  2  0  0  0  0
 26 22  1  0  0  0  0
 27 29  1  0  0  0  0
 27 28  1  0  0  0  0
 28 20  2  0  0  0  0
 31 30  2  0  0  0  0
 32 34  2  0  0  0  0
 32 33  1  0  0  0  0
M  END
>  <MODEL>
8

>  <REMARK>
 VINA RESULT:      -7.5      4.825     10.457
  Name = 
  2 active torsions:
  status: ('A' for Active; 'I' for Inactive)
    1  A    between atoms: C_3  and  C_25
    2  A    between atoms: C_18  and  C_30
                            x       y       z     vdW  Elec       q    Type
                         _______ _______ _______ _____ _____    ______ ____

>  <TORSDO>
F 2

$$$$
=
 OpenBabel10262423243D

 34 39  0  0  1  0  0  0  0  0999 V2000
  188.1170  178.2690  140.1890 C   0  0  2  0  0  3  0  0  0  0  0  0
  190.3180  176.0000  142.3030 C   0  0  0  0  0  3  0  0  0  0  0  0
  190.6610  176.6290  139.9940 C   0  0  0  0  0  2  0  0  0  0  0  0
  185.8860  179.0040  139.3550 C   0  0  0  0  0  2  0  0  0  0  0  0
  186.6110  178.0650  140.3150 C   0  0  0  0  0  2  0  0  0  0  0  0
  188.1920  178.2350  137.6730 C   0  0  1  0  0  3  0  0  0  0  0  0
  189.4270  177.8000  136.4130 S   0  0  0  0  0  0  0  0  0  0  0  0
  186.8300  177.6800  137.2860 C   0  0  0  0  0  2  0  0  0  0  0  0
  185.6560  178.4190  137.9500 C   0  0  1  0  0  3  0  0  0  0  0  0
  190.1380  177.5700  138.9150 C   0  0  2  0  0  3  0  0  0  0  0  0
  188.6350  177.5590  138.9390 C   0  0  1  0  0  3  0  0  0  0  0  0
  190.5640  177.1250  137.6000 N   0  0  0  0  0  2  0  0  0  0  0  0
  189.6390  175.9590  143.6290 C   0  0  0  0  0  2  0  0  0  0  0  0
  189.7920  177.2550  144.3560 C   0  0  0  0  0  0  0  0  0  0  0  0
  189.2620  178.3820  143.8700 C   0  0  0  0  0  3  0  0  0  0  0  0
  189.9620  176.8240  141.3160 C   0  0  0  0  0  0  0  0  0  0  0  0
  188.6100  178.5300  142.5530 C   0  0  0  0  0  3  0  0  0  0  0  0
  188.8450  177.8200  141.4370 C   0  0  0  0  0  0  0  0  0  0  0  0
  183.0770  175.8300  136.8820 C   0  0  0  0  0  3  0  0  0  0  0  0
  183.3550  177.8870  138.7640 C   0  0  0  0  0  3  0  0  0  0  0  0
  180.1880  175.1610  139.0520 N   0  0  0  0  0  0  0  0  0  0  0  0
  179.3950  173.9950  139.3270 C   0  0  0  0  0  0  0  0  0  0  0  0
  180.7520  175.3490  137.7070 C   0  0  0  0  0  2  0  0  0  0  0  0
  178.9350  173.7990  140.4830 O   0  0  0  0  0  0  0  0  0  0  0  0
  182.0370  176.1100  137.7720 C   0  0  0  0  0  0  0  0  0  0  0  0
  179.0990  172.9950  138.2610 C   0  0  0  0  0  1  0  0  0  0  0  0
  181.0340  177.4530  139.6200 C   0  0  0  0  0  2  0  0  0  0  0  0
  182.1770  177.1360  138.7140 C   0  0  0  0  0  0  0  0  0  0  0  0
  180.3670  176.1650  140.1170 C   0  0  0  0  0  2  0  0  0  0  0  0
  184.4050  177.6030  137.8820 C   0  0  0  0  0  0  0  0  0  0  0  0
  184.2610  176.5720  136.9390 C   0  0  0  0  0  3  0  0  0  0  0  0
  190.4530  177.2620  145.6710 C   0  0  0  0  0  0  0  0  0  0  0  0
  191.7890  176.8940  145.7810 O   0  0  0  0  0  0  0  0  0  0  0  0
  189.8230  177.6090  146.7060 O   0  0  0  0  0  1  0  0  0  0  0  0
  1  5  1  1  0  0  0
  1 18  1  0  0  0  0
  2 13  1  0  0  0  0
  3 16  1  0  0  0  0
  4  5  1  0  0  0  0
  6  8  1  6  0  0  0
  6 11  1  0  0  0  0
  7 12  1  0  0  0  0
  7  6  1  0  0  0  0
  8  9  1  0  0  0  0
  9 30  1  1  0  0  0
  9  4  1  0  0  0  0
 10 11  1  0  0  0  0
 10  3  1  1  0  0  0
 11  1  1  0  0  0  0
 12 10  1  0  0  0  0
 13 14  1  0  0  0  0
 14 32  1  0  0  0  0
 15 14  2  0  0  0  0
 16 18  1  0  0  0  0
 16  2  2  0  0  0  0
 17 15  1  0  0  0  0
 18 17  2  0  0  0  0
 19 31  2  0  0  0  0
 19 25  1  0  0  0  0
 21 22  1  0  0  0  0
 21 29  1  0  0  0  0
 22 24  2  0  0  0  0
 23 25  1  0  0  0  0
 23 21  1  0  0  0  0
 25 28  2  0  0  0  0
 26 22  1  0  0  0  0
 27 29  1  0  0  0  0
 28 20  1  0  0  0  0
 28 27  1  0  0  0  0
 30 20  2  0  0  0  0
 31 30  1  0  0  0  0
 32 33  2  0  0  0  0
 32 34  1  0  0  0  0
M  END
>  <MODEL>
9

>  <REMARK>
 VINA RESULT:      -7.3      3.997     10.216
  Name = 
  2 active torsions:
  status: ('A' for Active; 'I' for Inactive)
    1  A    between atoms: C_3  and  C_25
    2  A    between atoms: C_18  and  C_30
                            x       y       z     vdW  Elec       q    Type
                         _______ _______ _______ _____ _____    ______ ____

>  <TORSDO>
F 2

$$$$
