=
 OpenBabel10262423383D

 34 35  0  0  1  0  0  0  0  0999 V2000
  183.2660  178.1650  140.8040 C   0  0  0  0  0  2  0  0  0  0  0  0
  181.9450  179.3020  138.9310 C   0  0  1  0  0  3  0  0  0  0  0  0
  180.5610  176.5130  140.5340 S   0  0  0  0  0  0  0  0  0  0  0  0
  181.9950  178.1960  136.0930 C   0  0  0  0  0  2  0  0  0  0  0  0
  180.9450  179.1600  141.3600 C   0  0  2  0  0  3  0  0  0  0  0  0
  182.1890  179.1890  140.4450 C   0  0  1  0  0  3  0  0  0  0  0  0
  181.5220  175.7060  136.6380 C   0  0  2  0  0  3  0  0  0  0  0  0
  180.6980  178.5680  136.8140 C   0  0  0  0  0  2  0  0  0  0  0  0
  181.9930  174.4310  136.3210 O   0  0  0  0  0  1  0  0  0  0  0  0
  180.8260  178.4130  138.3400 C   0  0  1  0  0  3  0  0  0  0  0  0
  181.3240  179.0210  142.6980 O   0  0  0  0  0  1  0  0  0  0  0  0
  178.9340  177.9910  142.0120 O   0  0  0  0  0  1  0  0  0  0  0  0
  182.0440  176.7340  135.6270 C   0  0  0  0  0  2  0  0  0  0  0  0
  181.8300  176.0590  138.0640 C   0  0  0  0  0  0  0  0  0  0  0  0
  180.8200  176.9230  138.7610 C   0  0  1  0  0  3  0  0  0  0  0  0
  183.0690  175.9230  138.5440 C   0  0  0  0  0  2  0  0  0  0  0  0
  179.8650  178.1360  140.9820 C   0  0  2  0  0  3  0  0  0  0  0  0
  181.6990  180.7630  138.5940 C   0  0  0  0  0  1  0  0  0  0  0  0
  184.6650  178.7130  140.5450 C   0  0  0  0  0  2  0  0  0  0  0  0
  185.3640  179.1050  141.8430 C   0  0  0  0  0  2  0  0  0  0  0  0
  185.4530  177.9460  142.8280 C   0  0  0  0  0  2  0  0  0  0  0  0
  185.1170  178.3940  144.2400 C   0  0  0  0  0  2  0  0  0  0  0  0
  186.1240  177.8310  145.2270 C   0  0  0  0  0  2  0  0  0  0  0  0
  187.5430  178.1680  144.7890 C   0  0  0  0  0  2  0  0  0  0  0  0
  188.4510  176.9490  144.9040 C   0  0  1  0  0  3  0  0  0  0  0  0
  188.7510  176.3740  143.5290 C   0  0  0  0  0  1  0  0  0  0  0  0
  189.7260  177.3010  145.6150 C   0  0  0  0  0  0  0  0  0  0  0  0
  190.5830  177.9620  145.0480 O   0  0  0  0  0  0  0  0  0  0  0  0
  189.9540  176.8740  147.0370 C   0  0  1  0  0  3  0  0  0  0  0  0
  191.3940  176.5540  147.2730 C   0  0  0  0  0  0  0  0  0  0  0  0
  192.0170  175.5300  146.5700 O   0  0  0  0  0  0  0  0  0  0  0  0
  192.0420  177.1980  148.1390 O   0  0  0  0  0  1  0  0  0  0  0  0
  189.4560  177.9090  148.0410 C   0  0  0  0  0  2  0  0  0  0  0  0
  188.0420  177.5830  148.4810 C   0  0  0  0  0  1  0  0  0  0  0  0
  2 18  1  1  0  0  0
  2  6  1  0  0  0  0
  3 17  1  0  0  0  0
  4  8  1  0  0  0  0
  5 11  1  1  0  0  0
  6  1  1  6  0  0  0
  6  5  1  0  0  0  0
  7  9  1  6  0  0  0
  7 14  1  0  0  0  0
 10  8  1  6  0  0  0
 10 15  1  0  0  0  0
 10  2  1  0  0  0  0
 13  4  1  0  0  0  0
 13  7  1  0  0  0  0
 14 16  2  0  0  0  0
 15 14  1  1  0  0  0
 15  3  1  0  0  0  0
 17  5  1  0  0  0  0
 17 12  1  1  0  0  0
 19  1  1  0  0  0  0
 19 20  1  0  0  0  0
 20 21  1  0  0  0  0
 21 22  1  0  0  0  0
 22 23  1  0  0  0  0
 24 25  1  0  0  0  0
 24 23  1  0  0  0  0
 25 26  1  6  0  0  0
 25 27  1  0  0  0  0
 27 29  1  0  0  0  0
 28 27  2  0  0  0  0
 29 30  1  0  0  0  0
 29 33  1  1  0  0  0
 30 32  1  0  0  0  0
 31 30  2  0  0  0  0
 33 34  1  0  0  0  0
M  END
>  <MODEL>
1

>  <REMARK>
 VINA RESULT:      -7.1      0.000      0.000
  Name = 
  12 active torsions:
  status: ('A' for Active; 'I' for Inactive)
    1  A    between atoms: C_1  and  C_9
    2  A    between atoms: C_1  and  C_20
    3  A    between atoms: C_2  and  C_25
    4  A    between atoms: C_2  and  C_32
    5  A    between atoms: C_3  and  C_25
    6  A    between atoms: C_5  and  C_19
    7  A    between atoms: C_5  and  C_32
    8  A    between atoms: C_10  and  C_12
    9  A    between atoms: C_10  and  C_20
   10  A    between atoms: C_12  and  C_22
   11  A    between atoms: C_19  and  C_22
   12  A    between atoms: C_25  and  C_27
                            x       y       z     vdW  Elec       q    Type
                         _______ _______ _______ _____ _____    ______ ____

>  <TORSDO>
F 12

$$$$
=
 OpenBabel10262423383D

 34 35  0  0  1  0  0  0  0  0999 V2000
  183.3130  177.9040  140.7780 C   0  0  0  0  0  2  0  0  0  0  0  0
  182.1550  179.1200  138.8480 C   0  0  1  0  0  3  0  0  0  0  0  0
  180.5030  176.4600  140.4150 S   0  0  0  0  0  0  0  0  0  0  0  0
  182.2290  177.9870  136.0220 C   0  0  0  0  0  2  0  0  0  0  0  0
  181.0560  179.0780  141.2380 C   0  0  2  0  0  3  0  0  0  0  0  0
  182.3320  179.0030  140.3710 C   0  0  1  0  0  3  0  0  0  0  0  0
  181.5460  175.5460  136.5640 C   0  0  2  0  0  3  0  0  0  0  0  0
  180.9370  178.4630  136.6900 C   0  0  0  0  0  2  0  0  0  0  0  0
  181.9310  174.2350  136.2740 O   0  0  0  0  0  1  0  0  0  0  0  0
  180.9950  178.3140  138.2200 C   0  0  1  0  0  3  0  0  0  0  0  0
  181.3720  178.9230  142.5910 O   0  0  0  0  0  1  0  0  0  0  0  0
  178.9380  178.0710  141.8190 O   0  0  0  0  0  1  0  0  0  0  0  0
  182.1840  176.5210  135.5680 C   0  0  0  0  0  2  0  0  0  0  0  0
  181.8260  175.8870  137.9990 C   0  0  0  0  0  0  0  0  0  0  0  0
  180.8600  176.8330  138.6510 C   0  0  1  0  0  3  0  0  0  0  0  0
  183.0320  175.6620  138.5280 C   0  0  0  0  0  2  0  0  0  0  0  0
  179.9160  178.1350  140.8250 C   0  0  2  0  0  3  0  0  0  0  0  0
  182.0350  180.5920  138.4930 C   0  0  0  0  0  1  0  0  0  0  0  0
  184.7320  178.4460  140.9200 C   0  0  0  0  0  2  0  0  0  0  0  0
  184.9220  179.1820  142.2430 C   0  0  0  0  0  2  0  0  0  0  0  0
  185.2470  178.2380  143.3930 C   0  0  0  0  0  2  0  0  0  0  0  0
  184.8060  178.8170  144.7260 C   0  0  0  0  0  2  0  0  0  0  0  0
  185.6940  178.3040  145.8450 C   0  0  0  0  0  2  0  0  0  0  0  0
  186.8320  177.4640  145.2780 C   0  0  0  0  0  2  0  0  0  0  0  0
  188.1510  177.8040  145.9610 C   0  0  1  0  0  3  0  0  0  0  0  0
  188.1660  177.2780  147.3870 C   0  0  0  0  0  1  0  0  0  0  0  0
  189.3100  177.2500  145.1850 C   0  0  0  0  0  0  0  0  0  0  0  0
  189.1210  176.4210  144.3080 O   0  0  0  0  0  0  0  0  0  0  0  0
  190.7100  177.7250  145.4510 C   0  0  1  0  0  3  0  0  0  0  0  0
  191.4890  176.6960  146.2040 C   0  0  0  0  0  0  0  0  0  0  0  0
  191.6840  176.8180  147.5740 O   0  0  0  0  0  1  0  0  0  0  0  0
  191.9990  175.7260  145.5860 O   0  0  0  0  0  0  0  0  0  0  0  0
  191.4390  178.1310  144.1740 C   0  0  0  0  0  2  0  0  0  0  0  0
  191.2440  179.6100  143.8990 C   0  0  0  0  0  1  0  0  0  0  0  0
  1 19  1  0  0  0  0
  2 18  1  1  0  0  0
  2  6  1  0  0  0  0
  3 17  1  0  0  0  0
  4  8  1  0  0  0  0
  5 11  1  1  0  0  0
  6  1  1  6  0  0  0
  6  5  1  0  0  0  0
  7  9  1  6  0  0  0
  7 14  1  0  0  0  0
 10  8  1  6  0  0  0
 10 15  1  0  0  0  0
 10  2  1  0  0  0  0
 13  4  1  0  0  0  0
 13  7  1  0  0  0  0
 14 16  2  0  0  0  0
 15 14  1  1  0  0  0
 15  3  1  0  0  0  0
 17  5  1  0  0  0  0
 17 12  1  1  0  0  0
 19 20  1  0  0  0  0
 20 21  1  0  0  0  0
 21 22  1  0  0  0  0
 22 23  1  0  0  0  0
 24 23  1  0  0  0  0
 24 25  1  0  0  0  0
 25 26  1  1  0  0  0
 27 29  1  0  0  0  0
 27 25  1  0  0  0  0
 28 27  2  0  0  0  0
 29 33  1  6  0  0  0
 29 30  1  0  0  0  0
 30 31  1  0  0  0  0
 32 30  2  0  0  0  0
 34 33  1  0  0  0  0
M  END
>  <MODEL>
2

>  <REMARK>
 VINA RESULT:      -7.0      0.982      1.704
  Name = 
  12 active torsions:
  status: ('A' for Active; 'I' for Inactive)
    1  A    between atoms: C_1  and  C_9
    2  A    between atoms: C_1  and  C_20
    3  A    between atoms: C_2  and  C_25
    4  A    between atoms: C_2  and  C_32
    5  A    between atoms: C_3  and  C_25
    6  A    between atoms: C_5  and  C_19
    7  A    between atoms: C_5  and  C_32
    8  A    between atoms: C_10  and  C_12
    9  A    between atoms: C_10  and  C_20
   10  A    between atoms: C_12  and  C_22
   11  A    between atoms: C_19  and  C_22
   12  A    between atoms: C_25  and  C_27
                            x       y       z     vdW  Elec       q    Type
                         _______ _______ _______ _____ _____    ______ ____

>  <TORSDO>
F 12

$$$$
=
 OpenBabel10262423383D

 34 35  0  0  1  0  0  0  0  0999 V2000
  182.5280  178.4900  140.4190 C   0  0  0  0  0  2  0  0  0  0  0  0
  183.9880  177.9580  138.3870 C   0  0  1  0  0  3  0  0  0  0  0  0
  180.5290  178.2840  137.9540 S   0  0  0  0  0  0  0  0  0  0  0  0
  184.2880  175.0960  137.3880 C   0  0  0  0  0  2  0  0  0  0  0  0
  182.5490  180.1590  138.4440 C   0  0  2  0  0  3  0  0  0  0  0  0
  183.2920  179.0480  139.2180 C   0  0  1  0  0  3  0  0  0  0  0  0
  181.7820  174.4350  137.3470 C   0  0  2  0  0  3  0  0  0  0  0  0
  183.9620  176.2680  136.4590 C   0  0  0  0  0  2  0  0  0  0  0  0
  180.9420  173.3930  137.7430 O   0  0  0  0  0  1  0  0  0  0  0  0
  183.1940  177.3830  137.1920 C   0  0  1  0  0  3  0  0  0  0  0  0
  181.9410  181.0520  139.3310 O   0  0  0  0  0  1  0  0  0  0  0  0
  180.7410  180.7240  136.9450 O   0  0  0  0  0  1  0  0  0  0  0  0
  183.2440  173.9720  137.3520 C   0  0  0  0  0  2  0  0  0  0  0  0
  181.5420  175.6670  138.1690 C   0  0  0  0  0  0  0  0  0  0  0  0
  181.7240  176.9770  137.4590 C   0  0  1  0  0  3  0  0  0  0  0  0
  181.5320  175.6020  139.5030 C   0  0  0  0  0  2  0  0  0  0  0  0
  181.5540  179.6750  137.3790 C   0  0  2  0  0  3  0  0  0  0  0  0
  185.3330  178.4950  137.9250 C   0  0  0  0  0  1  0  0  0  0  0  0
  183.4450  177.6970  141.3450 C   0  0  0  0  0  2  0  0  0  0  0  0
  184.3190  178.6170  142.1910 C   0  0  0  0  0  2  0  0  0  0  0  0
  183.6170  179.0800  143.4620 C   0  0  0  0  0  2  0  0  0  0  0  0
  184.5140  178.9210  144.6780 C   0  0  0  0  0  2  0  0  0  0  0  0
  185.6070  177.9050  144.3980 C   0  0  0  0  0  2  0  0  0  0  0  0
  186.7870  178.1220  145.3360 C   0  0  0  0  0  2  0  0  0  0  0  0
  187.9340  177.1780  144.9940 C   0  0  1  0  0  3  0  0  0  0  0  0
  188.0840  177.0420  143.4880 C   0  0  0  0  0  1  0  0  0  0  0  0
  189.2180  177.6560  145.6080 C   0  0  0  0  0  0  0  0  0  0  0  0
  189.8370  178.5760  145.0970 O   0  0  0  0  0  0  0  0  0  0  0  0
  189.7420  177.0350  146.8720 C   0  0  1  0  0  3  0  0  0  0  0  0
  191.1910  176.6990  146.7390 C   0  0  0  0  0  0  0  0  0  0  0  0
  191.6940  176.1870  145.5500 O   0  0  0  0  0  0  0  0  0  0  0  0
  191.9590  176.8520  147.7250 O   0  0  0  0  0  1  0  0  0  0  0  0
  189.4970  177.9120  148.0960 C   0  0  0  0  0  2  0  0  0  0  0  0
  188.0880  177.7090  148.6210 C   0  0  0  0  0  1  0  0  0  0  0  0
  1 19  1  0  0  0  0
  2 18  1  6  0  0  0
  2  6  1  0  0  0  0
  5  6  1  0  0  0  0
  5 11  1  1  0  0  0
  6  1  1  1  0  0  0
  7 13  1  0  0  0  0
  7  9  1  1  0  0  0
  7 14  1  0  0  0  0
  8  4  1  0  0  0  0
 10  8  1  1  0  0  0
 10 15  1  0  0  0  0
 10  2  1  0  0  0  0
 13  4  1  0  0  0  0
 14 16  2  0  0  0  0
 15  3  1  1  0  0  0
 15 14  1  0  0  0  0
 17 12  1  1  0  0  0
 17  3  1  0  0  0  0
 17  5  1  0  0  0  0
 19 20  1  0  0  0  0
 20 21  1  0  0  0  0
 21 22  1  0  0  0  0
 23 22  1  0  0  0  0
 23 24  1  0  0  0  0
 25 26  1  6  0  0  0
 25 24  1  0  0  0  0
 25 27  1  0  0  0  0
 27 29  1  0  0  0  0
 28 27  2  0  0  0  0
 29 33  1  1  0  0  0
 30 29  1  0  0  0  0
 30 32  1  0  0  0  0
 31 30  2  0  0  0  0
 33 34  1  0  0  0  0
M  END
>  <MODEL>
3

>  <REMARK>
 VINA RESULT:      -6.9      1.873      2.446
  Name = 
  12 active torsions:
  status: ('A' for Active; 'I' for Inactive)
    1  A    between atoms: C_1  and  C_9
    2  A    between atoms: C_1  and  C_20
    3  A    between atoms: C_2  and  C_25
    4  A    between atoms: C_2  and  C_32
    5  A    between atoms: C_3  and  C_25
    6  A    between atoms: C_5  and  C_19
    7  A    between atoms: C_5  and  C_32
    8  A    between atoms: C_10  and  C_12
    9  A    between atoms: C_10  and  C_20
   10  A    between atoms: C_12  and  C_22
   11  A    between atoms: C_19  and  C_22
   12  A    between atoms: C_25  and  C_27
                            x       y       z     vdW  Elec       q    Type
                         _______ _______ _______ _____ _____    ______ ____

>  <TORSDO>
F 12

$$$$
=
 OpenBabel10262423383D

 34 35  0  0  1  0  0  0  0  0999 V2000
  182.5280  178.2980  140.3650 C   0  0  0  0  0  2  0  0  0  0  0  0
  184.0380  177.8530  138.3480 C   0  0  1  0  0  3  0  0  0  0  0  0
  180.5790  178.0980  137.8600 S   0  0  0  0  0  0  0  0  0  0  0  0
  184.4310  175.0250  137.2880 C   0  0  0  0  0  2  0  0  0  0  0  0
  182.5390  180.0130  138.4300 C   0  0  2  0  0  3  0  0  0  0  0  0
  183.2980  178.9050  139.1910 C   0  0  1  0  0  3  0  0  0  0  0  0
  181.9450  174.2980  137.1870 C   0  0  2  0  0  3  0  0  0  0  0  0
  184.0900  176.2090  136.3810 C   0  0  0  0  0  2  0  0  0  0  0  0
  181.1270  173.2250  137.5440 O   0  0  0  0  0  1  0  0  0  0  0  0
  183.2800  177.2850  137.1250 C   0  0  1  0  0  3  0  0  0  0  0  0
  181.8920  180.8690  139.3260 O   0  0  0  0  0  1  0  0  0  0  0  0
  180.7430  180.5650  136.9110 O   0  0  0  0  0  1  0  0  0  0  0  0
  183.4180  173.8740  137.2080 C   0  0  0  0  0  2  0  0  0  0  0  0
  181.6570  175.5040  138.0330 C   0  0  0  0  0  0  0  0  0  0  0  0
  181.8170  176.8350  137.3570 C   0  0  1  0  0  3  0  0  0  0  0  0
  181.6260  175.4080  139.3650 C   0  0  0  0  0  2  0  0  0  0  0  0
  181.5760  179.5290  137.3360 C   0  0  2  0  0  3  0  0  0  0  0  0
  185.3750  178.4360  137.9220 C   0  0  0  0  0  1  0  0  0  0  0  0
  183.4740  177.7290  141.4170 C   0  0  0  0  0  2  0  0  0  0  0  0
  184.1280  178.8340  142.2410 C   0  0  0  0  0  2  0  0  0  0  0  0
  183.9090  178.6510  143.7380 C   0  0  0  0  0  2  0  0  0  0  0  0
  184.9440  179.4160  144.5450 C   0  0  0  0  0  2  0  0  0  0  0  0
  185.6130  178.4980  145.5520 C   0  0  0  0  0  2  0  0  0  0  0  0
  186.4290  177.4290  144.8360 C   0  0  0  0  0  2  0  0  0  0  0  0
  187.9100  177.7900  144.8300 C   0  0  1  0  0  3  0  0  0  0  0  0
  188.5840  177.3070  146.1030 C   0  0  0  0  0  1  0  0  0  0  0  0
  188.5930  177.2130  143.6230 C   0  0  0  0  0  0  0  0  0  0  0  0
  188.5030  176.0200  143.3800 O   0  0  0  0  0  0  0  0  0  0  0  0
  189.3670  178.0950  142.6840 C   0  0  1  0  0  3  0  0  0  0  0  0
  190.8370  177.9000  142.8610 C   0  0  0  0  0  0  0  0  0  0  0  0
  191.5880  177.2530  141.8870 O   0  0  0  0  0  0  0  0  0  0  0  0
  191.3960  178.2970  143.9160 O   0  0  0  0  0  1  0  0  0  0  0  0
  188.9620  177.8900  141.2280 C   0  0  0  0  0  2  0  0  0  0  0  0
  187.6000  178.5040  140.9650 C   0  0  0  0  0  1  0  0  0  0  0  0
  1 19  1  0  0  0  0
  2 18  1  6  0  0  0
  2  6  1  0  0  0  0
  5  6  1  0  0  0  0
  5 11  1  1  0  0  0
  6  1  1  6  0  0  0
  7 13  1  0  0  0  0
  7  9  1  1  0  0  0
  7 14  1  0  0  0  0
  8  4  1  0  0  0  0
 10  8  1  1  0  0  0
 10 15  1  0  0  0  0
 10  2  1  0  0  0  0
 13  4  1  0  0  0  0
 14 16  2  0  0  0  0
 15  3  1  1  0  0  0
 15 14  1  0  0  0  0
 17 12  1  1  0  0  0
 17  3  1  0  0  0  0
 17  5  1  0  0  0  0
 19 20  1  0  0  0  0
 20 21  1  0  0  0  0
 21 22  1  0  0  0  0
 22 23  1  0  0  0  0
 24 23  1  0  0  0  0
 25 24  1  0  0  0  0
 25 26  1  1  0  0  0
 27 25  1  0  0  0  0
 28 27  2  0  0  0  0
 29 33  1  6  0  0  0
 29 30  1  0  0  0  0
 29 27  1  0  0  0  0
 30 32  1  0  0  0  0
 31 30  2  0  0  0  0
 34 33  1  0  0  0  0
M  END
>  <MODEL>
4

>  <REMARK>
 VINA RESULT:      -6.6      2.209      3.503
  Name = 
  12 active torsions:
  status: ('A' for Active; 'I' for Inactive)
    1  A    between atoms: C_1  and  C_9
    2  A    between atoms: C_1  and  C_20
    3  A    between atoms: C_2  and  C_25
    4  A    between atoms: C_2  and  C_32
    5  A    between atoms: C_3  and  C_25
    6  A    between atoms: C_5  and  C_19
    7  A    between atoms: C_5  and  C_32
    8  A    between atoms: C_10  and  C_12
    9  A    between atoms: C_10  and  C_20
   10  A    between atoms: C_12  and  C_22
   11  A    between atoms: C_19  and  C_22
   12  A    between atoms: C_25  and  C_27
                            x       y       z     vdW  Elec       q    Type
                         _______ _______ _______ _____ _____    ______ ____

>  <TORSDO>
F 12

$$$$
=
 OpenBabel10262423383D

 34 35  0  0  1  0  0  0  0  0999 V2000
  180.7190  178.7650  141.1490 C   0  0  0  0  0  2  0  0  0  0  0  0
  182.4980  178.8470  139.3120 C   0  0  1  0  0  3  0  0  0  0  0  0
  179.1300  178.5450  138.4020 S   0  0  0  0  0  0  0  0  0  0  0  0
  183.5320  176.2860  138.0260 C   0  0  0  0  0  2  0  0  0  0  0  0
  180.6200  180.6850  139.4200 C   0  0  2  0  0  3  0  0  0  0  0  0
  181.4860  179.6390  140.1550 C   0  0  1  0  0  3  0  0  0  0  0  0
  181.2530  175.1560  137.5240 C   0  0  2  0  0  3  0  0  0  0  0  0
  183.0750  177.4970  137.2090 C   0  0  0  0  0  2  0  0  0  0  0  0
  180.6170  173.9210  137.6580 O   0  0  0  0  0  1  0  0  0  0  0  0
  182.0010  178.3140  137.9480 C   0  0  1  0  0  3  0  0  0  0  0  0
  179.7290  181.2960  140.3070 O   0  0  0  0  0  1  0  0  0  0  0  0
  178.9310  181.1020  137.7440 O   0  0  0  0  0  1  0  0  0  0  0  0
  182.7680  174.9960  137.6940 C   0  0  0  0  0  2  0  0  0  0  0  0
  180.6520  176.1780  138.4450 C   0  0  0  0  0  0  0  0  0  0  0  0
  180.6320  177.5900  137.9380 C   0  0  1  0  0  3  0  0  0  0  0  0
  180.4930  175.9110  139.7440 C   0  0  0  0  0  2  0  0  0  0  0  0
  179.8920  180.1820  138.1650 C   0  0  2  0  0  3  0  0  0  0  0  0
  183.7410  179.7020  139.1280 C   0  0  0  0  0  1  0  0  0  0  0  0
  181.6540  178.1420  142.1800 C   0  0  0  0  0  2  0  0  0  0  0  0
  182.2180  179.1910  143.1330 C   0  0  0  0  0  2  0  0  0  0  0  0
  183.6070  178.8280  143.6440 C   0  0  0  0  0  2  0  0  0  0  0  0
  184.5390  178.4680  142.5000 C   0  0  0  0  0  2  0  0  0  0  0  0
  185.9710  178.3710  142.9960 C   0  0  0  0  0  2  0  0  0  0  0  0
  186.0320  177.5670  144.2890 C   0  0  0  0  0  2  0  0  0  0  0  0
  187.2060  178.0150  145.1520 C   0  0  1  0  0  3  0  0  0  0  0  0
  186.9330  177.7240  146.6190 C   0  0  0  0  0  1  0  0  0  0  0  0
  188.4750  177.3450  144.7110 C   0  0  0  0  0  0  0  0  0  0  0  0
  188.4310  176.3290  144.0350 O   0  0  0  0  0  0  0  0  0  0  0  0
  189.8140  177.9280  145.0670 C   0  0  1  0  0  3  0  0  0  0  0  0
  190.5950  176.9860  145.9230 C   0  0  0  0  0  0  0  0  0  0  0  0
  190.1780  176.6900  147.2150 O   0  0  0  0  0  1  0  0  0  0  0  0
  191.6590  176.4790  145.4800 O   0  0  0  0  0  0  0  0  0  0  0  0
  190.6150  178.3360  143.8350 C   0  0  0  0  0  2  0  0  0  0  0  0
  191.3450  179.6430  144.0850 C   0  0  0  0  0  1  0  0  0  0  0  0
  1 19  1  0  0  0  0
  2 18  1  6  0  0  0
  2  6  1  0  0  0  0
  5  6  1  0  0  0  0
  5 11  1  1  0  0  0
  6  1  1  6  0  0  0
  7  9  1  1  0  0  0
  7 13  1  0  0  0  0
  7 14  1  0  0  0  0
  8  4  1  0  0  0  0
 10  8  1  1  0  0  0
 10  2  1  0  0  0  0
 13  4  1  0  0  0  0
 14 16  2  0  0  0  0
 15 10  1  0  0  0  0
 15  3  1  1  0  0  0
 15 14  1  0  0  0  0
 17 12  1  1  0  0  0
 17  3  1  0  0  0  0
 17  5  1  0  0  0  0
 19 20  1  0  0  0  0
 20 21  1  0  0  0  0
 22 23  1  0  0  0  0
 22 21  1  0  0  0  0
 23 24  1  0  0  0  0
 24 25  1  0  0  0  0
 25 26  1  1  0  0  0
 27 29  1  0  0  0  0
 27 25  1  0  0  0  0
 28 27  2  0  0  0  0
 29 33  1  6  0  0  0
 29 30  1  0  0  0  0
 30 31  1  0  0  0  0
 32 30  2  0  0  0  0
 33 34  1  0  0  0  0
M  END
>  <MODEL>
5

>  <REMARK>
 VINA RESULT:      -6.5      1.926      2.811
  Name = 
  12 active torsions:
  status: ('A' for Active; 'I' for Inactive)
    1  A    between atoms: C_1  and  C_9
    2  A    between atoms: C_1  and  C_20
    3  A    between atoms: C_2  and  C_25
    4  A    between atoms: C_2  and  C_32
    5  A    between atoms: C_3  and  C_25
    6  A    between atoms: C_5  and  C_19
    7  A    between atoms: C_5  and  C_32
    8  A    between atoms: C_10  and  C_12
    9  A    between atoms: C_10  and  C_20
   10  A    between atoms: C_12  and  C_22
   11  A    between atoms: C_19  and  C_22
   12  A    between atoms: C_25  and  C_27
                            x       y       z     vdW  Elec       q    Type
                         _______ _______ _______ _____ _____    ______ ____

>  <TORSDO>
F 12

$$$$
=
 OpenBabel10262423383D

 34 35  0  0  1  0  0  0  0  0999 V2000
  183.4010  178.0610  140.0990 C   0  0  0  0  0  2  0  0  0  0  0  0
  180.8860  178.2620  140.5220 C   0  0  1  0  0  3  0  0  0  0  0  0
  182.0410  178.0450  137.2240 S   0  0  0  0  0  0  0  0  0  0  0  0
  179.4800  180.9570  140.3190 C   0  0  0  0  0  2  0  0  0  0  0  0
  181.8560  176.1560  139.2810 C   0  0  2  0  0  3  0  0  0  0  0  0
  182.0750  177.3200  140.2720 C   0  0  1  0  0  3  0  0  0  0  0  0
  180.4400  181.7240  138.0360 C   0  0  2  0  0  3  0  0  0  0  0  0
  178.9520  179.6930  139.6360 C   0  0  0  0  0  2  0  0  0  0  0  0
  181.0170  182.8460  137.4380 O   0  0  0  0  0  1  0  0  0  0  0  0
  180.0870  178.7170  139.2790 C   0  0  1  0  0  3  0  0  0  0  0  0
  183.0300  175.4110  139.1320 O   0  0  0  0  0  1  0  0  0  0  0  0
  181.3780  175.4900  137.0090 O   0  0  0  0  0  1  0  0  0  0  0  0
  179.7500  182.1150  139.3480 C   0  0  0  0  0  2  0  0  0  0  0  0
  181.4430  180.6180  138.1940 C   0  0  0  0  0  0  0  0  0  0  0  0
  180.9080  179.2210  138.0670 C   0  0  1  0  0  3  0  0  0  0  0  0
  182.6270  180.8520  138.7650 C   0  0  0  0  0  2  0  0  0  0  0  0
  181.2720  176.5460  137.9160 C   0  0  2  0  0  3  0  0  0  0  0  0
  179.9650  177.6090  141.5390 C   0  0  0  0  0  1  0  0  0  0  0  0
  184.2280  178.0310  141.3800 C   0  0  0  0  0  2  0  0  0  0  0  0
  183.5420  178.7930  142.5100 C   0  0  0  0  0  2  0  0  0  0  0  0
  184.4860  179.0920  143.6670 C   0  0  0  0  0  2  0  0  0  0  0  0
  185.4420  177.9380  143.9140 C   0  0  0  0  0  2  0  0  0  0  0  0
  186.0830  178.0670  145.2840 C   0  0  0  0  0  2  0  0  0  0  0  0
  187.4140  177.3260  145.3200 C   0  0  0  0  0  2  0  0  0  0  0  0
  188.3520  177.9430  146.3500 C   0  0  1  0  0  3  0  0  0  0  0  0
  187.8780  177.6310  147.7600 C   0  0  0  0  0  1  0  0  0  0  0  0
  189.7580  177.4560  146.1490 C   0  0  0  0  0  0  0  0  0  0  0  0
  190.5030  177.3220  147.1070 O   0  0  0  0  0  0  0  0  0  0  0  0
  190.2570  177.0980  144.7780 C   0  0  1  0  0  3  0  0  0  0  0  0
  190.3400  178.3090  143.9080 C   0  0  0  0  0  0  0  0  0  0  0  0
  189.5710  178.4080  142.7550 O   0  0  0  0  0  0  0  0  0  0  0  0
  191.1380  179.2360  144.2060 O   0  0  0  0  0  1  0  0  0  0  0  0
  191.5950  176.3660  144.8200 C   0  0  0  0  0  2  0  0  0  0  0  0
  191.6440  175.2870  143.7550 C   0  0  0  0  0  1  0  0  0  0  0  0
  1 19  1  0  0  0  0
  2 18  1  1  0  0  0
  3 17  1  0  0  0  0
  5 11  1  6  0  0  0
  5  6  1  0  0  0  0
  6  1  1  6  0  0  0
  6  2  1  0  0  0  0
  7  9  1  1  0  0  0
  7 14  1  0  0  0  0
  7 13  1  0  0  0  0
  8  4  1  0  0  0  0
 10  8  1  1  0  0  0
 10  2  1  0  0  0  0
 13  4  1  0  0  0  0
 14 16  2  0  0  0  0
 15  3  1  1  0  0  0
 15 14  1  0  0  0  0
 15 10  1  0  0  0  0
 17 12  1  6  0  0  0
 17  5  1  0  0  0  0
 19 20  1  0  0  0  0
 20 21  1  0  0  0  0
 21 22  1  0  0  0  0
 22 23  1  0  0  0  0
 23 24  1  0  0  0  0
 24 25  1  0  0  0  0
 25 26  1  1  0  0  0
 27 25  1  0  0  0  0
 27 28  2  0  0  0  0
 29 33  1  1  0  0  0
 29 27  1  0  0  0  0
 30 32  1  0  0  0  0
 30 29  1  0  0  0  0
 31 30  2  0  0  0  0
 34 33  1  0  0  0  0
M  END
>  <MODEL>
6

>  <REMARK>
 VINA RESULT:      -6.4      2.059      4.070
  Name = 
  12 active torsions:
  status: ('A' for Active; 'I' for Inactive)
    1  A    between atoms: C_1  and  C_9
    2  A    between atoms: C_1  and  C_20
    3  A    between atoms: C_2  and  C_25
    4  A    between atoms: C_2  and  C_32
    5  A    between atoms: C_3  and  C_25
    6  A    between atoms: C_5  and  C_19
    7  A    between atoms: C_5  and  C_32
    8  A    between atoms: C_10  and  C_12
    9  A    between atoms: C_10  and  C_20
   10  A    between atoms: C_12  and  C_22
   11  A    between atoms: C_19  and  C_22
   12  A    between atoms: C_25  and  C_27
                            x       y       z     vdW  Elec       q    Type
                         _______ _______ _______ _____ _____    ______ ____

>  <TORSDO>
F 12

$$$$
=
 OpenBabel10262423383D

 34 35  0  0  1  0  0  0  0  0999 V2000
  183.4640  177.9740  139.7990 C   0  0  0  0  0  2  0  0  0  0  0  0
  180.9920  178.1630  140.4330 C   0  0  1  0  0  3  0  0  0  0  0  0
  181.8600  177.8400  137.0560 S   0  0  0  0  0  0  0  0  0  0  0  0
  179.5380  180.8340  140.2590 C   0  0  0  0  0  2  0  0  0  0  0  0
  181.8800  176.0240  139.1860 C   0  0  2  0  0  3  0  0  0  0  0  0
  182.1680  177.2250  140.1130 C   0  0  1  0  0  3  0  0  0  0  0  0
  180.2850  181.5280  137.8760 C   0  0  2  0  0  3  0  0  0  0  0  0
  178.9690  179.5410  139.6700 C   0  0  0  0  0  2  0  0  0  0  0  0
  180.7920  182.6340  137.1910 O   0  0  0  0  0  1  0  0  0  0  0  0
  180.0820  178.5650  139.2490 C   0  0  1  0  0  3  0  0  0  0  0  0
  183.0470  175.2870  138.9610 O   0  0  0  0  0  1  0  0  0  0  0  0
  181.2160  175.2720  136.9880 O   0  0  0  0  0  1  0  0  0  0  0  0
  179.7060  181.9590  139.2290 C   0  0  0  0  0  2  0  0  0  0  0  0
  181.3130  180.4390  137.9840 C   0  0  0  0  0  0  0  0  0  0  0  0
  180.7880  179.0340  137.9530 C   0  0  1  0  0  3  0  0  0  0  0  0
  182.5390  180.7070  138.4410 C   0  0  0  0  0  2  0  0  0  0  0  0
  181.1740  176.3590  137.8640 C   0  0  2  0  0  3  0  0  0  0  0  0
  180.1720  177.5370  141.5480 C   0  0  0  0  0  1  0  0  0  0  0  0
  183.7210  179.0900  140.8060 C   0  0  0  0  0  2  0  0  0  0  0  0
  184.8720  178.7450  141.7460 C   0  0  0  0  0  2  0  0  0  0  0  0
  184.3880  178.3140  143.1250 C   0  0  0  0  0  2  0  0  0  0  0  0
  185.5540  178.0160  144.0510 C   0  0  0  0  0  2  0  0  0  0  0  0
  186.7880  177.6510  143.2460 C   0  0  0  0  0  2  0  0  0  0  0  0
  187.6850  176.7120  144.0420 C   0  0  0  0  0  2  0  0  0  0  0  0
  189.1560  177.0350  143.8080 C   0  0  1  0  0  3  0  0  0  0  0  0
  189.3140  177.9810  142.6290 C   0  0  0  0  0  1  0  0  0  0  0  0
  189.7730  177.6270  145.0430 C   0  0  0  0  0  0  0  0  0  0  0  0
  190.1470  178.7900  145.0450 O   0  0  0  0  0  0  0  0  0  0  0  0
  189.9120  176.8120  146.2970 C   0  0  1  0  0  3  0  0  0  0  0  0
  191.3490  176.5350  146.5960 C   0  0  0  0  0  0  0  0  0  0  0  0
  192.0620  175.6050  145.8500 O   0  0  0  0  0  0  0  0  0  0  0  0
  191.9110  177.1270  147.5550 O   0  0  0  0  0  1  0  0  0  0  0  0
  189.2230  177.4640  147.4920 C   0  0  0  0  0  2  0  0  0  0  0  0
  187.8060  177.8660  147.1330 C   0  0  0  0  0  1  0  0  0  0  0  0
  1 19  1  0  0  0  0
  2 18  1  1  0  0  0
  3 17  1  0  0  0  0
  5 11  1  6  0  0  0
  5  6  1  0  0  0  0
  6  1  1  6  0  0  0
  6  2  1  0  0  0  0
  7  9  1  1  0  0  0
  7 14  1  0  0  0  0
  7 13  1  0  0  0  0
  8  4  1  0  0  0  0
 10  8  1  1  0  0  0
 10  2  1  0  0  0  0
 13  4  1  0  0  0  0
 14 16  2  0  0  0  0
 15  3  1  1  0  0  0
 15 14  1  0  0  0  0
 15 10  1  0  0  0  0
 17 12  1  6  0  0  0
 17  5  1  0  0  0  0
 19 20  1  0  0  0  0
 20 21  1  0  0  0  0
 21 22  1  0  0  0  0
 23 24  1  0  0  0  0
 23 22  1  0  0  0  0
 25 26  1  6  0  0  0
 25 24  1  0  0  0  0
 25 27  1  0  0  0  0
 27 28  2  0  0  0  0
 27 29  1  0  0  0  0
 29 30  1  0  0  0  0
 29 33  1  1  0  0  0
 30 32  1  0  0  0  0
 31 30  2  0  0  0  0
 34 33  1  0  0  0  0
M  END
>  <MODEL>
7

>  <REMARK>
 VINA RESULT:      -6.4      1.922      3.475
  Name = 
  12 active torsions:
  status: ('A' for Active; 'I' for Inactive)
    1  A    between atoms: C_1  and  C_9
    2  A    between atoms: C_1  and  C_20
    3  A    between atoms: C_2  and  C_25
    4  A    between atoms: C_2  and  C_32
    5  A    between atoms: C_3  and  C_25
    6  A    between atoms: C_5  and  C_19
    7  A    between atoms: C_5  and  C_32
    8  A    between atoms: C_10  and  C_12
    9  A    between atoms: C_10  and  C_20
   10  A    between atoms: C_12  and  C_22
   11  A    between atoms: C_19  and  C_22
   12  A    between atoms: C_25  and  C_27
                            x       y       z     vdW  Elec       q    Type
                         _______ _______ _______ _____ _____    ______ ____

>  <TORSDO>
F 12

$$$$
=
 OpenBabel10262423383D

 34 35  0  0  1  0  0  0  0  0999 V2000
  183.2540  177.6250  140.0960 C   0  0  0  0  0  2  0  0  0  0  0  0
  181.7900  178.4910  138.1850 C   0  0  1  0  0  3  0  0  0  0  0  0
  180.8010  175.6090  139.9110 S   0  0  0  0  0  0  0  0  0  0  0  0
  181.9920  177.2840  135.3950 C   0  0  0  0  0  2  0  0  0  0  0  0
  180.8190  178.3160  140.6230 C   0  0  2  0  0  3  0  0  0  0  0  0
  182.0470  178.4760  139.7010 C   0  0  1  0  0  3  0  0  0  0  0  0
  181.8640  174.7780  136.0460 C   0  0  2  0  0  3  0  0  0  0  0  0
  180.6560  177.5050  136.1070 C   0  0  0  0  0  2  0  0  0  0  0  0
  182.5050  173.5670  135.7800 O   0  0  0  0  0  1  0  0  0  0  0  0
  180.8030  177.4340  137.6380 C   0  0  1  0  0  3  0  0  0  0  0  0
  181.2130  178.2870  141.9640 O   0  0  0  0  0  1  0  0  0  0  0  0
  178.9870  176.9110  141.3350 O   0  0  0  0  0  1  0  0  0  0  0  0
  182.2410  175.8240  134.9910 C   0  0  0  0  0  2  0  0  0  0  0  0
  182.1200  175.2290  137.4550 C   0  0  0  0  0  0  0  0  0  0  0  0
  181.0020  175.9760  138.1210 C   0  0  1  0  0  3  0  0  0  0  0  0
  183.3660  175.2840  137.9330 C   0  0  0  0  0  2  0  0  0  0  0  0
  179.8900  177.1390  140.2940 C   0  0  2  0  0  3  0  0  0  0  0  0
  181.3470  179.8890  137.7890 C   0  0  0  0  0  1  0  0  0  0  0  0
  184.5660  178.3140  139.7340 C   0  0  0  0  0  2  0  0  0  0  0  0
  185.2110  178.9690  140.9510 C   0  0  0  0  0  2  0  0  0  0  0  0
  184.7170  178.3720  142.2630 C   0  0  0  0  0  2  0  0  0  0  0  0
  184.4040  179.4560  143.2800 C   0  0  0  0  0  2  0  0  0  0  0  0
  184.4990  178.9000  144.6900 C   0  0  0  0  0  2  0  0  0  0  0  0
  185.7100  179.4800  145.4100 C   0  0  0  0  0  2  0  0  0  0  0  0
  186.0250  178.6840  146.6710 C   0  0  1  0  0  3  0  0  0  0  0  0
  184.8480  177.8030  147.0550 C   0  0  0  0  0  1  0  0  0  0  0  0
  187.2610  177.8530  146.4800 C   0  0  0  0  0  0  0  0  0  0  0  0
  187.6660  177.1390  147.3840 O   0  0  0  0  0  0  0  0  0  0  0  0
  187.9990  177.8650  145.1710 C   0  0  1  0  0  3  0  0  0  0  0  0
  189.4760  177.8520  145.3920 C   0  0  0  0  0  0  0  0  0  0  0  0
  190.2960  178.7730  144.7520 O   0  0  0  0  0  0  0  0  0  0  0  0
  189.9860  176.9770  146.1400 O   0  0  0  0  0  1  0  0  0  0  0  0
  187.5760  176.7200  144.2560 C   0  0  0  0  0  2  0  0  0  0  0  0
  187.9400  177.0280  142.8160 C   0  0  0  0  0  1  0  0  0  0  0  0
  2 18  1  1  0  0  0
  2  6  1  0  0  0  0
  3 17  1  0  0  0  0
  4  8  1  0  0  0  0
  5 11  1  1  0  0  0
  6  1  1  6  0  0  0
  6  5  1  0  0  0  0
  7  9  1  6  0  0  0
  7 14  1  0  0  0  0
 10  8  1  6  0  0  0
 10 15  1  0  0  0  0
 10  2  1  0  0  0  0
 13  4  1  0  0  0  0
 13  7  1  0  0  0  0
 14 16  2  0  0  0  0
 15 14  1  1  0  0  0
 15  3  1  0  0  0  0
 17  5  1  0  0  0  0
 17 12  1  1  0  0  0
 19  1  1  0  0  0  0
 19 20  1  0  0  0  0
 20 21  1  0  0  0  0
 21 22  1  0  0  0  0
 22 23  1  0  0  0  0
 23 24  1  0  0  0  0
 24 25  1  0  0  0  0
 25 26  1  6  0  0  0
 27 25  1  0  0  0  0
 27 28  2  0  0  0  0
 29 33  1  6  0  0  0
 29 30  1  0  0  0  0
 29 27  1  0  0  0  0
 30 32  1  0  0  0  0
 31 30  2  0  0  0  0
 34 33  1  0  0  0  0
M  END
>  <MODEL>
8

>  <REMARK>
 VINA RESULT:      -6.0      1.438      2.396
  Name = 
  12 active torsions:
  status: ('A' for Active; 'I' for Inactive)
    1  A    between atoms: C_1  and  C_9
    2  A    between atoms: C_1  and  C_20
    3  A    between atoms: C_2  and  C_25
    4  A    between atoms: C_2  and  C_32
    5  A    between atoms: C_3  and  C_25
    6  A    between atoms: C_5  and  C_19
    7  A    between atoms: C_5  and  C_32
    8  A    between atoms: C_10  and  C_12
    9  A    between atoms: C_10  and  C_20
   10  A    between atoms: C_12  and  C_22
   11  A    between atoms: C_19  and  C_22
   12  A    between atoms: C_25  and  C_27
                            x       y       z     vdW  Elec       q    Type
                         _______ _______ _______ _____ _____    ______ ____

>  <TORSDO>
F 12

$$$$
=
 OpenBabel10262423383D

 34 35  0  0  1  0  0  0  0  0999 V2000
  181.2240  178.6410  140.9820 C   0  0  0  0  0  2  0  0  0  0  0  0
  182.9850  178.5670  139.1280 C   0  0  1  0  0  3  0  0  0  0  0  0
  179.5950  178.4760  138.2560 S   0  0  0  0  0  0  0  0  0  0  0  0
  183.8290  175.9180  137.8830 C   0  0  0  0  0  2  0  0  0  0  0  0
  181.2360  180.5300  139.2170 C   0  0  2  0  0  3  0  0  0  0  0  0
  182.0370  179.4420  139.9650 C   0  0  1  0  0  3  0  0  0  0  0  0
  181.4740  174.9360  137.4260 C   0  0  2  0  0  3  0  0  0  0  0  0
  183.4470  177.1410  137.0470 C   0  0  0  0  0  2  0  0  0  0  0  0
  180.7570  173.7490  137.5890 O   0  0  0  0  0  1  0  0  0  0  0  0
  182.4380  178.0430  137.7800 C   0  0  1  0  0  3  0  0  0  0  0  0
  180.3980  181.2170  140.1000 O   0  0  0  0  0  1  0  0  0  0  0  0
  179.5610  181.0290  137.5490 O   0  0  0  0  0  1  0  0  0  0  0  0
  182.9770  174.6770  137.5850 C   0  0  0  0  0  2  0  0  0  0  0  0
  180.9530  176.0130  138.3320 C   0  0  0  0  0  0  0  0  0  0  0  0
  181.0230  177.4140  137.7970 C   0  0  1  0  0  3  0  0  0  0  0  0
  180.7900  175.7820  139.6370 C   0  0  0  0  0  2  0  0  0  0  0  0
  180.4630  180.0530  137.9790 C   0  0  2  0  0  3  0  0  0  0  0  0
  184.2800  179.3330  138.9160 C   0  0  0  0  0  1  0  0  0  0  0  0
  181.4350  179.1630  142.4000 C   0  0  0  0  0  2  0  0  0  0  0  0
  182.5110  178.3700  143.1350 C   0  0  0  0  0  2  0  0  0  0  0  0
  183.8300  179.1270  143.2310 C   0  0  0  0  0  2  0  0  0  0  0  0
  185.0160  178.1800  143.1810 C   0  0  0  0  0  2  0  0  0  0  0  0
  185.8790  178.3510  144.4190 C   0  0  0  0  0  2  0  0  0  0  0  0
  186.9930  177.3120  144.4370 C   0  0  0  0  0  2  0  0  0  0  0  0
  188.3250  177.9500  144.8150 C   0  0  1  0  0  3  0  0  0  0  0  0
  189.0290  177.1290  145.8830 C   0  0  0  0  0  1  0  0  0  0  0  0
  189.2030  178.1020  143.6060 C   0  0  0  0  0  0  0  0  0  0  0  0
  190.0940  178.9380  143.5960 O   0  0  0  0  0  0  0  0  0  0  0  0
  189.0210  177.2120  142.4090 C   0  0  1  0  0  3  0  0  0  0  0  0
  188.6060  178.0060  141.2140 C   0  0  0  0  0  0  0  0  0  0  0  0
  187.6090  178.9680  141.3130 O   0  0  0  0  0  1  0  0  0  0  0  0
  189.1440  177.7790  140.0980 O   0  0  0  0  0  0  0  0  0  0  0  0
  190.2660  176.3840  142.1060 C   0  0  0  0  0  2  0  0  0  0  0  0
  190.5480  175.4160  143.2390 C   0  0  0  0  0  1  0  0  0  0  0  0
  1 19  1  0  0  0  0
  2 18  1  6  0  0  0
  2  6  1  0  0  0  0
  5  6  1  0  0  0  0
  5 11  1  1  0  0  0
  6  1  1  6  0  0  0
  7 13  1  0  0  0  0
  7  9  1  1  0  0  0
  7 14  1  0  0  0  0
  8  4  1  0  0  0  0
 10  8  1  1  0  0  0
 10 15  1  0  0  0  0
 10  2  1  0  0  0  0
 13  4  1  0  0  0  0
 14 16  2  0  0  0  0
 15  3  1  1  0  0  0
 15 14  1  0  0  0  0
 17 12  1  1  0  0  0
 17  3  1  0  0  0  0
 17  5  1  0  0  0  0
 19 20  1  0  0  0  0
 20 21  1  0  0  0  0
 22 21  1  0  0  0  0
 22 23  1  0  0  0  0
 23 24  1  0  0  0  0
 24 25  1  0  0  0  0
 25 26  1  1  0  0  0
 27 25  1  0  0  0  0
 28 27  2  0  0  0  0
 29 33  1  6  0  0  0
 29 27  1  0  0  0  0
 30 31  1  0  0  0  0
 30 29  1  0  0  0  0
 32 30  2  0  0  0  0
 33 34  1  0  0  0  0
M  END
>  <MODEL>
9

>  <REMARK>
 VINA RESULT:      -5.9      2.233      3.673
  Name = 
  12 active torsions:
  status: ('A' for Active; 'I' for Inactive)
    1  A    between atoms: C_1  and  C_9
    2  A    between atoms: C_1  and  C_20
    3  A    between atoms: C_2  and  C_25
    4  A    between atoms: C_2  and  C_32
    5  A    between atoms: C_3  and  C_25
    6  A    between atoms: C_5  and  C_19
    7  A    between atoms: C_5  and  C_32
    8  A    between atoms: C_10  and  C_12
    9  A    between atoms: C_10  and  C_20
   10  A    between atoms: C_12  and  C_22
   11  A    between atoms: C_19  and  C_22
   12  A    between atoms: C_25  and  C_27
                            x       y       z     vdW  Elec       q    Type
                         _______ _______ _______ _____ _____    ______ ____

>  <TORSDO>
F 12

$$$$
