=
 OpenBabel10262423363D

 34 39  0  0  1  0  0  0  0  0999 V2000
  188.5350  178.1390  143.4510 C   0  0  0  0  0  0  0  0  0  0  0  0
  188.8280  177.2930  145.8020 C   0  0  0  0  0  0  0  0  0  0  0  0
  186.3670  177.8090  145.6320 C   0  0  0  0  0  3  0  0  0  0  0  0
  188.1490  178.3960  141.1980 C   0  0  2  0  0  3  0  0  0  0  0  0
  189.1400  178.2280  142.2070 O   0  0  0  0  0  0  0  0  0  0  0  0
  186.8170  178.1110  141.8950 C   0  0  2  0  0  3  0  0  0  0  0  0
  184.7310  178.7970  142.4240 C   0  0  0  0  0  2  0  0  0  0  0  0
  185.9040  179.1700  141.7280 O   0  0  0  0  0  0  0  0  0  0  0  0
  186.2160  178.2210  144.3700 C   0  0  0  0  0  0  0  0  0  0  0  0
  187.2280  178.0470  143.3230 C   0  0  0  0  0  0  0  0  0  0  0  0
  184.9330  178.8850  143.9520 C   0  0  0  0  0  2  0  0  0  0  0  0
  189.8560  176.5360  146.5320 C   0  0  0  0  0  3  0  0  0  0  0  0
  191.1600  176.7180  146.2980 C   0  0  0  0  0  0  0  0  0  0  0  0
  191.6050  177.6950  145.2860 C   0  0  0  0  0  3  0  0  0  0  0  0
  187.5610  177.1500  146.2040 C   0  0  0  0  0  3  0  0  0  0  0  0
  190.7380  178.4200  144.5770 C   0  0  0  0  0  3  0  0  0  0  0  0
  189.2440  178.3150  144.7610 C   0  0  1  0  0  3  0  0  0  0  0  0
  192.1620  175.9350  147.0400 C   0  0  0  0  0  0  0  0  0  0  0  0
  192.6130  174.8560  146.5690 O   0  0  0  0  0  0  0  0  0  0  0  0
  192.6250  176.3830  148.2720 O   0  0  0  0  0  1  0  0  0  0  0  0
  188.3900  177.5170  139.9640 C   0  0  0  0  0  2  0  0  0  0  0  0
  188.0010  177.0370  137.5480 N   0  0  0  0  0  0  0  0  0  0  0  0
  186.4200  178.3550  138.7450 O   0  0  0  0  0  0  0  0  0  0  0  0
  184.9390  176.4040  135.3830 C   0  0  1  0  0  3  0  0  0  0  0  0
  183.9740  176.8330  136.4220 N   0  0  0  0  0  0  0  0  0  0  0  0
  186.3220  176.0380  135.9700 C   0  0  1  0  0  3  0  0  0  0  0  0
  182.8880  177.3310  135.7850 O   0  0  0  0  0  1  0  0  0  0  0  0
  186.7810  177.2160  136.8110 C   0  0  1  0  0  3  0  0  0  0  0  0
  184.3880  175.2260  134.5940 C   0  0  0  0  0  1  0  0  0  0  0  0
  184.5170  177.9370  137.2290 C   0  0  0  0  0  2  0  0  0  0  0  0
  185.7950  177.4580  137.8820 C   0  0  2  0  0  3  0  0  0  0  0  0
  186.2440  174.8950  136.7440 F   0  0  0  0  0  0  0  0  0  0  0  0
  187.7920  178.0020  138.6360 C   0  0  1  0  0  3  0  0  0  0  0  0
  189.0780  177.5570  136.7220 C   0  0  0  0  0  1  0  0  0  0  0  0
  1 17  1  0  0  0  0
  2 15  2  0  0  0  0
  2 12  1  0  0  0  0
  3 15  1  0  0  0  0
  4 21  1  6  0  0  0
  4  6  1  0  0  0  0
  4  5  1  0  0  0  0
  5  1  1  0  0  0  0
  6  8  1  1  0  0  0
  6 10  1  0  0  0  0
  7 11  1  0  0  0  0
  8  7  1  0  0  0  0
  9  3  2  0  0  0  0
 10  1  2  0  0  0  0
 10  9  1  0  0  0  0
 11  9  1  0  0  0  0
 13 12  2  0  0  0  0
 13 18  1  0  0  0  0
 14 13  1  0  0  0  0
 16 14  2  0  0  0  0
 17 16  1  6  0  0  0
 17  2  1  0  0  0  0
 18 20  1  0  0  0  0
 19 18  2  0  0  0  0
 22 33  1  0  0  0  0
 24 29  1  1  0  0  0
 24 26  1  0  0  0  0
 24 25  1  0  0  0  0
 25 30  1  0  0  0  0
 26 32  1  1  0  0  0
 26 28  1  0  0  0  0
 27 25  1  0  0  0  0
 28 22  1  1  0  0  0
 28 31  1  0  0  0  0
 31 30  1  6  0  0  0
 31 23  1  0  0  0  0
 33 23  1  0  0  0  0
 33 21  1  1  0  0  0
 34 22  1  0  0  0  0
M  END
>  <MODEL>
1

>  <REMARK>
 VINA RESULT:     -10.0      0.000      0.000
  Name = 
  3 active torsions:
  status: ('A' for Active; 'I' for Inactive)
    1  A    between atoms: C_3  and  C_25
    2  A    between atoms: C_8  and  C_18
    3  A    between atoms: C_18  and  C_30
                            x       y       z     vdW  Elec       q    Type
                         _______ _______ _______ _____ _____    ______ ____

>  <TORSDO>
F 3

$$$$
=
 OpenBabel10262423363D

 34 39  0  0  1  0  0  0  0  0999 V2000
  189.1450  177.9860  142.2790 C   0  0  0  0  0  0  0  0  0  0  0  0
  188.8680  177.5940  144.7480 C   0  0  0  0  0  0  0  0  0  0  0  0
  186.5400  178.1200  143.9410 C   0  0  0  0  0  3  0  0  0  0  0  0
  189.2730  177.8210  139.9880 C   0  0  2  0  0  3  0  0  0  0  0  0
  190.0100  177.8260  141.2070 O   0  0  0  0  0  0  0  0  0  0  0  0
  187.8060  177.7010  140.4080 C   0  0  2  0  0  3  0  0  0  0  0  0
  185.7020  178.5190  140.3230 C   0  0  0  0  0  2  0  0  0  0  0  0
  187.0200  178.7280  139.8530 O   0  0  0  0  0  0  0  0  0  0  0  0
  186.6910  178.2900  142.6240 C   0  0  0  0  0  0  0  0  0  0  0  0
  187.8940  177.9000  141.8790 C   0  0  0  0  0  0  0  0  0  0  0  0
  185.5740  178.8900  141.8170 C   0  0  0  0  0  2  0  0  0  0  0  0
  189.6640  176.9670  145.8150 C   0  0  0  0  0  3  0  0  0  0  0  0
  190.9960  177.0740  145.8510 C   0  0  0  0  0  0  0  0  0  0  0  0
  191.7100  177.8320  144.8060 C   0  0  0  0  0  3  0  0  0  0  0  0
  187.5370  177.5560  144.8750 C   0  0  0  0  0  3  0  0  0  0  0  0
  191.0640  178.4280  143.8010 C   0  0  0  0  0  3  0  0  0  0  0  0
  189.5630  178.3920  143.6620 C   0  0  1  0  0  3  0  0  0  0  0  0
  191.7630  176.4240  146.9260 C   0  0  0  0  0  0  0  0  0  0  0  0
  191.9050  176.9850  148.0450 O   0  0  0  0  0  1  0  0  0  0  0  0
  192.3390  175.1760  146.7150 O   0  0  0  0  0  0  0  0  0  0  0  0
  189.7200  176.7200  139.0190 C   0  0  0  0  0  2  0  0  0  0  0  0
  189.5340  175.5840  136.8060 N   0  0  0  0  0  0  0  0  0  0  0  0
  187.5960  176.5660  137.7790 O   0  0  0  0  0  0  0  0  0  0  0  0
  186.8730  173.5070  135.0560 C   0  0  1  0  0  3  0  0  0  0  0  0
  185.8100  173.8340  136.0350 N   0  0  0  0  0  0  0  0  0  0  0  0
  188.2940  173.7550  135.6140 C   0  0  1  0  0  3  0  0  0  0  0  0
  184.6270  173.7910  135.3770 O   0  0  0  0  0  1  0  0  0  0  0  0
  188.3300  175.1820  136.1330 C   0  0  1  0  0  3  0  0  0  0  0  0
  186.7480  172.0630  134.5940 C   0  0  0  0  0  1  0  0  0  0  0  0
  185.9520  175.2120  136.5320 C   0  0  0  0  0  2  0  0  0  0  0  0
  187.3090  175.3380  137.1870 C   0  0  2  0  0  3  0  0  0  0  0  0
  188.5880  172.8640  136.6300 F   0  0  0  0  0  0  0  0  0  0  0  0
  189.0080  176.6580  137.6590 C   0  0  1  0  0  3  0  0  0  0  0  0
  190.3880  176.2120  135.8120 C   0  0  0  0  0  1  0  0  0  0  0  0
  1 17  1  0  0  0  0
  2 15  2  0  0  0  0
  2 12  1  0  0  0  0
  3 15  1  0  0  0  0
  4 21  1  6  0  0  0
  4  6  1  0  0  0  0
  4  5  1  0  0  0  0
  5  1  1  0  0  0  0
  6  8  1  6  0  0  0
  6 10  1  0  0  0  0
  7 11  1  0  0  0  0
  8  7  1  0  0  0  0
  9  3  2  0  0  0  0
 10  1  2  0  0  0  0
 10  9  1  0  0  0  0
 11  9  1  0  0  0  0
 12 13  2  0  0  0  0
 13 18  1  0  0  0  0
 14 13  1  0  0  0  0
 16 14  2  0  0  0  0
 17 16  1  6  0  0  0
 17  2  1  0  0  0  0
 18 19  1  0  0  0  0
 20 18  2  0  0  0  0
 22 33  1  0  0  0  0
 24 29  1  1  0  0  0
 24 26  1  0  0  0  0
 24 25  1  0  0  0  0
 25 30  1  0  0  0  0
 26 28  1  0  0  0  0
 26 32  1  1  0  0  0
 27 25  1  0  0  0  0
 28 22  1  1  0  0  0
 28 31  1  0  0  0  0
 31 30  1  6  0  0  0
 31 23  1  0  0  0  0
 33 23  1  0  0  0  0
 33 21  1  1  0  0  0
 34 22  1  0  0  0  0
M  END
>  <MODEL>
2

>  <REMARK>
 VINA RESULT:      -9.4      1.877      2.262
  Name = 
  3 active torsions:
  status: ('A' for Active; 'I' for Inactive)
    1  A    between atoms: C_3  and  C_25
    2  A    between atoms: C_8  and  C_18
    3  A    between atoms: C_18  and  C_30
                            x       y       z     vdW  Elec       q    Type
                         _______ _______ _______ _____ _____    ______ ____

>  <TORSDO>
F 3

$$$$
=
 OpenBabel10262423363D

 34 39  0  0  1  0  0  0  0  0999 V2000
  185.9110  178.3940  141.6270 C   0  0  0  0  0  0  0  0  0  0  0  0
  188.2130  177.6460  142.3130 C   0  0  0  0  0  0  0  0  0  0  0  0
  186.9850  177.9450  144.4920 C   0  0  0  0  0  3  0  0  0  0  0  0
  183.6960  178.5520  141.0290 C   0  0  2  0  0  3  0  0  0  0  0  0
  185.0380  178.4990  140.5550 O   0  0  0  0  0  0  0  0  0  0  0  0
  183.7790  178.1750  142.5100 C   0  0  2  0  0  3  0  0  0  0  0  0
  183.3300  178.6950  144.6610 C   0  0  0  0  0  2  0  0  0  0  0  0
  183.1750  179.1470  143.3300 O   0  0  0  0  0  0  0  0  0  0  0  0
  185.7540  178.3050  144.1170 C   0  0  0  0  0  0  0  0  0  0  0  0
  185.2480  178.1880  142.7440 C   0  0  2  0  0  3  0  0  0  0  0  0
  184.7910  178.8450  145.1380 C   0  0  0  0  0  2  0  0  0  0  0  0
  189.3560  177.0010  141.6490 C   0  0  0  0  0  3  0  0  0  0  0  0
  189.6860  177.2860  140.3850 C   0  0  0  0  0  0  0  0  0  0  0  0
  188.8990  178.2680  139.6140 C   0  0  0  0  0  3  0  0  0  0  0  0
  188.0490  177.4070  143.6180 C   0  0  0  0  0  3  0  0  0  0  0  0
  187.8450  178.8950  140.1400 C   0  0  0  0  0  3  0  0  0  0  0  0
  187.3850  178.6680  141.5590 C   0  0  0  0  0  0  0  0  0  0  0  0
  190.8300  176.6130  139.7470 C   0  0  0  0  0  0  0  0  0  0  0  0
  190.6560  175.5990  139.0200 O   0  0  0  0  0  0  0  0  0  0  0  0
  192.1190  177.0960  139.9410 O   0  0  0  0  0  1  0  0  0  0  0  0
  182.7390  177.6610  140.2270 C   0  0  0  0  0  2  0  0  0  0  0  0
  181.3820  179.7450  140.0350 N   0  0  0  0  0  0  0  0  0  0  0  0
  181.3760  178.1800  138.2400 O   0  0  0  0  0  0  0  0  0  0  0  0
  180.4380  182.0950  137.1970 C   0  0  1  0  0  3  0  0  0  0  0  0
  180.9170  181.1850  136.1310 N   0  0  0  0  0  0  0  0  0  0  0  0
  181.0470  181.7640  138.5800 C   0  0  1  0  0  3  0  0  0  0  0  0
  180.1660  181.4210  135.0300 O   0  0  0  0  0  1  0  0  0  0  0  0
  180.7910  180.2910  138.8440 C   0  0  1  0  0  3  0  0  0  0  0  0
  180.7340  183.5430  136.8390 C   0  0  0  0  0  1  0  0  0  0  0  0
  180.6870  179.7770  136.4900 C   0  0  0  0  0  2  0  0  0  0  0  0
  181.4270  179.4920  137.7780 C   0  0  2  0  0  3  0  0  0  0  0  0
  182.4040  182.0300  138.5990 F   0  0  0  0  0  0  0  0  0  0  0  0
  181.4840  178.3310  139.6490 C   0  0  1  0  0  3  0  0  0  0  0  0
  180.3810  179.8270  141.0840 C   0  0  0  0  0  1  0  0  0  0  0  0
  2 15  2  0  0  0  0
  4 21  1  6  0  0  0
  4  6  1  0  0  0  0
  5  4  1  0  0  0  0
  5  1  1  0  0  0  0
  6 10  1  0  0  0  0
  6  8  1  1  0  0  0
  7 11  1  0  0  0  0
  8  7  1  0  0  0  0
  9  3  2  0  0  0  0
  9 11  1  0  0  0  0
 10  1  1  6  0  0  0
 10  9  1  0  0  0  0
 12  2  1  0  0  0  0
 13 12  2  0  0  0  0
 14 16  2  0  0  0  0
 14 13  1  0  0  0  0
 15  3  1  0  0  0  0
 16 17  1  0  0  0  0
 17  1  2  0  0  0  0
 17  2  1  0  0  0  0
 18 20  1  0  0  0  0
 18 13  1  0  0  0  0
 19 18  2  0  0  0  0
 22 34  1  0  0  0  0
 23 33  1  0  0  0  0
 24 29  1  6  0  0  0
 24 26  1  0  0  0  0
 25 30  1  0  0  0  0
 25 24  1  0  0  0  0
 26 32  1  6  0  0  0
 26 28  1  0  0  0  0
 27 25  1  0  0  0  0
 28 22  1  1  0  0  0
 31 30  1  6  0  0  0
 31 23  1  0  0  0  0
 31 28  1  0  0  0  0
 33 22  1  0  0  0  0
 33 21  1  6  0  0  0
M  END
>  <MODEL>
3

>  <REMARK>
 VINA RESULT:      -9.2      4.023      5.726
  Name = 
  3 active torsions:
  status: ('A' for Active; 'I' for Inactive)
    1  A    between atoms: C_3  and  C_25
    2  A    between atoms: C_8  and  C_18
    3  A    between atoms: C_18  and  C_30
                            x       y       z     vdW  Elec       q    Type
                         _______ _______ _______ _____ _____    ______ ____

>  <TORSDO>
F 3

$$$$
=
 OpenBabel10262423363D

 34 39  0  0  1  0  0  0  0  0999 V2000
  188.4120  178.2910  142.0800 C   0  0  0  0  0  0  0  0  0  0  0  0
  188.6390  177.3630  144.4070 C   0  0  0  0  0  0  0  0  0  0  0  0
  186.1810  177.8740  144.1810 C   0  0  0  0  0  3  0  0  0  0  0  0
  188.0930  178.6280  139.8270 C   0  0  2  0  0  3  0  0  0  0  0  0
  189.0540  178.4280  140.8590 O   0  0  0  0  0  0  0  0  0  0  0  0
  186.7420  178.3120  140.4720 C   0  0  2  0  0  3  0  0  0  0  0  0
  184.6370  178.9690  140.9620 C   0  0  0  0  0  2  0  0  0  0  0  0
  185.8290  179.3720  140.3160 O   0  0  0  0  0  0  0  0  0  0  0  0
  186.0650  178.3300  142.9300 C   0  0  0  0  0  0  0  0  0  0  0  0
  187.1100  178.1990  141.9090 C   0  0  0  0  0  0  0  0  0  0  0  0
  184.7930  179.0030  142.4980 C   0  0  0  0  0  2  0  0  0  0  0  0
  189.6480  176.5850  145.1410 C   0  0  0  0  0  3  0  0  0  0  0  0
  190.9570  176.7810  144.9540 C   0  0  0  0  0  0  0  0  0  0  0  0
  191.4270  177.7960  143.9910 C   0  0  0  0  0  3  0  0  0  0  0  0
  187.3600  177.2000  144.7650 C   0  0  0  0  0  3  0  0  0  0  0  0
  190.5780  178.5420  143.2820 C   0  0  0  0  0  3  0  0  0  0  0  0
  189.0800  178.4230  143.4170 C   0  0  1  0  0  3  0  0  0  0  0  0
  191.9410  175.9760  145.6970 C   0  0  0  0  0  0  0  0  0  0  0  0
  192.4300  174.9300  145.1920 O   0  0  0  0  0  0  0  0  0  0  0  0
  192.3440  176.3680  146.9690 O   0  0  0  0  0  1  0  0  0  0  0  0
  188.3760  177.7950  138.5710 C   0  0  0  0  0  2  0  0  0  0  0  0
  189.5070  175.8630  137.4700 N   0  0  0  0  0  0  0  0  0  0  0  0
  190.6000  176.9880  139.2610 O   0  0  0  0  0  0  0  0  0  0  0  0
  193.1060  174.9680  136.6270 C   0  0  1  0  0  3  0  0  0  0  0  0
  193.6890  176.0520  137.4520 N   0  0  0  0  0  0  0  0  0  0  0  0
  191.6210  175.2210  136.2770 C   0  0  1  0  0  3  0  0  0  0  0  0
  194.9030  175.6280  137.8770 O   0  0  0  0  0  1  0  0  0  0  0  0
  190.8890  175.4860  137.5800 C   0  0  1  0  0  3  0  0  0  0  0  0
  193.9100  174.7760  135.3500 C   0  0  0  0  0  1  0  0  0  0  0  0
  192.8900  176.2860  138.6650 C   0  0  0  0  0  2  0  0  0  0  0  0
  191.4880  176.6640  138.2390 C   0  0  2  0  0  3  0  0  0  0  0  0
  191.4920  176.3010  135.4220 F   0  0  0  0  0  0  0  0  0  0  0  0
  189.3400  176.6090  138.7250 C   0  0  1  0  0  3  0  0  0  0  0  0
  188.7230  174.6460  137.5930 C   0  0  0  0  0  1  0  0  0  0  0  0
  1 17  1  0  0  0  0
  2 15  2  0  0  0  0
  2 12  1  0  0  0  0
  3 15  1  0  0  0  0
  4 21  1  6  0  0  0
  4  6  1  0  0  0  0
  4  5  1  0  0  0  0
  5  1  1  0  0  0  0
  6  8  1  1  0  0  0
  6 10  1  0  0  0  0
  7 11  1  0  0  0  0
  8  7  1  0  0  0  0
  9  3  2  0  0  0  0
 10  1  2  0  0  0  0
 10  9  1  0  0  0  0
 11  9  1  0  0  0  0
 13 12  2  0  0  0  0
 13 18  1  0  0  0  0
 14 13  1  0  0  0  0
 16 14  2  0  0  0  0
 17 16  1  6  0  0  0
 17  2  1  0  0  0  0
 18 20  1  0  0  0  0
 19 18  2  0  0  0  0
 22 34  1  0  0  0  0
 22 33  1  0  0  0  0
 24 29  1  6  0  0  0
 24 25  1  0  0  0  0
 25 27  1  0  0  0  0
 25 30  1  0  0  0  0
 26 32  1  6  0  0  0
 26 24  1  0  0  0  0
 26 28  1  0  0  0  0
 28 22  1  6  0  0  0
 28 31  1  0  0  0  0
 31 30  1  1  0  0  0
 31 23  1  0  0  0  0
 33 21  1  6  0  0  0
 33 23  1  0  0  0  0
M  END
>  <MODEL>
4

>  <REMARK>
 VINA RESULT:      -9.0      2.894      4.460
  Name = 
  3 active torsions:
  status: ('A' for Active; 'I' for Inactive)
    1  A    between atoms: C_3  and  C_25
    2  A    between atoms: C_8  and  C_18
    3  A    between atoms: C_18  and  C_30
                            x       y       z     vdW  Elec       q    Type
                         _______ _______ _______ _____ _____    ______ ____

>  <TORSDO>
F 3

$$$$
=
 OpenBabel10262423363D

 34 39  0  0  1  0  0  0  0  0999 V2000
  187.7880  177.6840  142.7070 C   0  0  0  0  0  0  0  0  0  0  0  0
  189.5190  177.6840  144.5330 C   0  0  0  0  0  0  0  0  0  0  0  0
  190.8650  177.6130  142.4030 C   0  0  0  0  0  3  0  0  0  0  0  0
  186.2840  178.2170  141.0510 C   0  0  2  0  0  3  0  0  0  0  0  0
  186.4480  177.9090  142.4320 O   0  0  0  0  0  0  0  0  0  0  0  0
  187.7000  178.4560  140.5230 C   0  0  2  0  0  3  0  0  0  0  0  0
  189.3110  177.9480  139.0240 C   0  0  0  0  0  2  0  0  0  0  0  0
  187.9820  177.6500  139.4040 O   0  0  0  0  0  0  0  0  0  0  0  0
  189.9390  177.6510  141.4410 C   0  0  0  0  0  0  0  0  0  0  0  0
  188.5320  178.0000  141.6690 C   0  0  0  0  0  0  0  0  0  0  0  0
  190.3270  177.3490  140.0210 C   0  0  0  0  0  2  0  0  0  0  0  0
  189.5430  178.0110  145.9670 C   0  0  0  0  0  3  0  0  0  0  0  0
  188.5120  177.7250  146.7680 C   0  0  0  0  0  0  0  0  0  0  0  0
  187.3070  177.0680  146.2260 C   0  0  0  0  0  3  0  0  0  0  0  0
  190.6480  177.8750  143.8430 C   0  0  0  0  0  3  0  0  0  0  0  0
  187.2030  176.7420  144.9360 C   0  0  0  0  0  3  0  0  0  0  0  0
  188.3040  176.9980  143.9380 C   0  0  1  0  0  3  0  0  0  0  0  0
  188.5640  178.0770  148.1970 C   0  0  0  0  0  0  0  0  0  0  0  0
  187.5550  177.9220  148.9360 O   0  0  0  0  0  1  0  0  0  0  0  0
  189.7360  178.5850  148.7480 O   0  0  0  0  0  0  0  0  0  0  0  0
  185.3370  179.3980  140.8060 C   0  0  0  0  0  2  0  0  0  0  0  0
  184.3220  177.8920  139.0960 N   0  0  0  0  0  0  0  0  0  0  0  0
  182.9870  179.5950  140.0910 O   0  0  0  0  0  0  0  0  0  0  0  0
  180.8890  176.3450  138.5640 C   0  0  1  0  0  3  0  0  0  0  0  0
  180.2250  177.1840  139.5880 N   0  0  0  0  0  0  0  0  0  0  0  0
  182.4240  176.2860  138.7460 C   0  0  1  0  0  3  0  0  0  0  0  0
  178.9340  177.3410  139.2080 O   0  0  0  0  0  1  0  0  0  0  0  0
  182.9240  177.7180  138.8110 C   0  0  1  0  0  3  0  0  0  0  0  0
  180.3160  174.9350  138.5740 C   0  0  0  0  0  1  0  0  0  0  0  0
  180.8070  178.5350  139.6270 C   0  0  0  0  0  2  0  0  0  0  0  0
  182.2790  178.4040  139.9470 C   0  0  2  0  0  3  0  0  0  0  0  0
  182.7580  175.6050  139.9020 F   0  0  0  0  0  0  0  0  0  0  0  0
  184.3010  179.2390  139.6840 C   0  0  1  0  0  3  0  0  0  0  0  0
  185.0070  177.9980  137.8200 C   0  0  0  0  0  1  0  0  0  0  0  0
  1 17  1  0  0  0  0
  2 12  1  0  0  0  0
  3 15  1  0  0  0  0
  4 21  1  1  0  0  0
  4  5  1  0  0  0  0
  5  1  1  0  0  0  0
  6  8  1  6  0  0  0
  6  4  1  0  0  0  0
  6 10  1  0  0  0  0
  7  8  1  0  0  0  0
  7 11  1  0  0  0  0
  9 10  1  0  0  0  0
  9  3  2  0  0  0  0
 10  1  2  0  0  0  0
 11  9  1  0  0  0  0
 12 13  2  0  0  0  0
 13 18  1  0  0  0  0
 14 13  1  0  0  0  0
 15  2  2  0  0  0  0
 16 14  2  0  0  0  0
 17  2  1  0  0  0  0
 17 16  1  1  0  0  0
 18 20  2  0  0  0  0
 18 19  1  0  0  0  0
 22 33  1  0  0  0  0
 24 29  1  1  0  0  0
 24 26  1  0  0  0  0
 24 25  1  0  0  0  0
 25 30  1  0  0  0  0
 26 28  1  0  0  0  0
 26 32  1  1  0  0  0
 27 25  1  0  0  0  0
 28 22  1  1  0  0  0
 28 31  1  0  0  0  0
 31 30  1  6  0  0  0
 31 23  1  0  0  0  0
 33 23  1  0  0  0  0
 33 21  1  1  0  0  0
 34 22  1  0  0  0  0
M  END
>  <MODEL>
5

>  <REMARK>
 VINA RESULT:      -9.0      2.854      4.187
  Name = 
  3 active torsions:
  status: ('A' for Active; 'I' for Inactive)
    1  A    between atoms: C_3  and  C_25
    2  A    between atoms: C_8  and  C_18
    3  A    between atoms: C_18  and  C_30
                            x       y       z     vdW  Elec       q    Type
                         _______ _______ _______ _____ _____    ______ ____

>  <TORSDO>
F 3

$$$$
=
 OpenBabel10262423363D

 34 39  0  0  1  0  0  0  0  0999 V2000
  186.6460  177.9640  138.6590 C   0  0  0  0  0  0  0  0  0  0  0  0
  184.3840  176.9930  138.1440 C   0  0  0  0  0  0  0  0  0  0  0  0
  185.8890  176.0300  136.3680 C   0  0  0  0  0  3  0  0  0  0  0  0
  188.7790  178.3950  139.4080 C   0  0  2  0  0  3  0  0  0  0  0  0
  187.3900  178.6280  139.6230 O   0  0  0  0  0  0  0  0  0  0  0  0
  188.8390  177.2670  138.3740 C   0  0  2  0  0  3  0  0  0  0  0  0
  189.5920  176.5160  136.3820 C   0  0  0  0  0  2  0  0  0  0  0  0
  189.6280  177.6210  137.2630 O   0  0  0  0  0  0  0  0  0  0  0  0
  187.0940  176.5210  136.6720 C   0  0  0  0  0  0  0  0  0  0  0  0
  187.4180  177.1690  137.9480 C   0  0  0  0  0  0  0  0  0  0  0  0
  188.2200  176.3990  135.6830 C   0  0  0  0  0  2  0  0  0  0  0  0
  183.1130  176.8330  138.8670 C   0  0  0  0  0  3  0  0  0  0  0  0
  182.6610  177.7700  139.7080 C   0  0  0  0  0  0  0  0  0  0  0  0
  183.4400  179.0030  139.9350 C   0  0  0  0  0  3  0  0  0  0  0  0
  184.6810  176.0740  137.2190 C   0  0  0  0  0  3  0  0  0  0  0  0
  184.6040  179.2240  139.3220 C   0  0  0  0  0  3  0  0  0  0  0  0
  185.2080  178.2500  138.3420 C   0  0  1  0  0  3  0  0  0  0  0  0
  181.3900  177.5730  140.4240 C   0  0  0  0  0  0  0  0  0  0  0  0
  180.6260  176.6160  140.1290 O   0  0  0  0  0  0  0  0  0  0  0  0
  181.0210  178.4470  141.4410 O   0  0  0  0  0  1  0  0  0  0  0  0
  189.5430  178.0770  140.6990 C   0  0  0  0  0  2  0  0  0  0  0  0
  189.6410  176.9790  142.9370 N   0  0  0  0  0  0  0  0  0  0  0  0
  187.5390  177.7030  142.0840 O   0  0  0  0  0  0  0  0  0  0  0  0
  187.7740  177.3850  146.2240 C   0  0  1  0  0  3  0  0  0  0  0  0
  186.7190  178.2530  145.6500 N   0  0  0  0  0  0  0  0  0  0  0  0
  189.0490  177.3400  145.3490 C   0  0  1  0  0  3  0  0  0  0  0  0
  185.5900  178.0480  146.3690 O   0  0  0  0  0  1  0  0  0  0  0  0
  188.6170  176.9630  143.9430 C   0  0  1  0  0  3  0  0  0  0  0  0
  188.1320  177.8380  147.6310 C   0  0  0  0  0  1  0  0  0  0  0  0
  186.4010  177.8600  144.2680 C   0  0  0  0  0  2  0  0  0  0  0  0
  187.6640  177.9740  143.4440 C   0  0  2  0  0  3  0  0  0  0  0  0
  189.6890  178.5650  145.3460 F   0  0  0  0  0  0  0  0  0  0  0  0
  188.8230  177.2030  141.7370 C   0  0  1  0  0  3  0  0  0  0  0  0
  190.1680  175.6280  142.8430 C   0  0  0  0  0  1  0  0  0  0  0  0
  1  5  1  0  0  0  0
  2 17  1  0  0  0  0
  2 12  1  0  0  0  0
  3  9  2  0  0  0  0
  3 15  1  0  0  0  0
  4  5  1  0  0  0  0
  4 21  1  1  0  0  0
  6  8  1  6  0  0  0
  6  4  1  0  0  0  0
  7  8  1  0  0  0  0
  9 10  1  0  0  0  0
 10  6  1  0  0  0  0
 10  1  2  0  0  0  0
 11  7  1  0  0  0  0
 11  9  1  0  0  0  0
 12 13  2  0  0  0  0
 13 14  1  0  0  0  0
 13 18  1  0  0  0  0
 15  2  2  0  0  0  0
 16 14  2  0  0  0  0
 17  1  1  0  0  0  0
 17 16  1  1  0  0  0
 18 20  1  0  0  0  0
 19 18  2  0  0  0  0
 23 31  1  0  0  0  0
 24 29  1  1  0  0  0
 25 24  1  0  0  0  0
 25 27  1  0  0  0  0
 26 32  1  6  0  0  0
 26 24  1  0  0  0  0
 28 22  1  6  0  0  0
 28 26  1  0  0  0  0
 30 25  1  0  0  0  0
 31 28  1  0  0  0  0
 31 30  1  1  0  0  0
 33 21  1  6  0  0  0
 33 23  1  0  0  0  0
 33 22  1  0  0  0  0
 34 22  1  0  0  0  0
M  END
>  <MODEL>
6

>  <REMARK>
 VINA RESULT:      -9.0      3.515      8.649
  Name = 
  3 active torsions:
  status: ('A' for Active; 'I' for Inactive)
    1  A    between atoms: C_3  and  C_25
    2  A    between atoms: C_8  and  C_18
    3  A    between atoms: C_18  and  C_30
                            x       y       z     vdW  Elec       q    Type
                         _______ _______ _______ _____ _____    ______ ____

>  <TORSDO>
F 3

$$$$
=
 OpenBabel10262423363D

 34 39  0  0  1  0  0  0  0  0999 V2000
  188.9790  177.2930  142.1210 C   0  0  0  0  0  0  0  0  0  0  0  0
  189.4870  177.6920  144.5520 C   0  0  0  0  0  0  0  0  0  0  0  0
  191.7540  177.5220  143.4660 C   0  0  0  0  0  3  0  0  0  0  0  0
  188.5580  177.4650  139.8660 C   0  0  2  0  0  3  0  0  0  0  0  0
  187.9790  177.3380  141.1610 O   0  0  0  0  0  0  0  0  0  0  0  0
  190.0320  177.7930  140.1170 C   0  0  2  0  0  3  0  0  0  0  0  0
  192.2060  177.2930  139.7660 C   0  0  0  0  0  2  0  0  0  0  0  0
  190.8870  176.8990  139.4450 O   0  0  0  0  0  0  0  0  0  0  0  0
  191.4740  177.3480  142.1710 C   0  0  0  0  0  0  0  0  0  0  0  0
  190.1480  177.5660  141.5820 C   0  0  0  0  0  0  0  0  0  0  0  0
  192.5630  176.9270  141.2240 C   0  0  0  0  0  2  0  0  0  0  0  0
  188.7410  178.1840  145.7210 C   0  0  0  0  0  3  0  0  0  0  0  0
  187.4510  177.8830  145.9070 C   0  0  0  0  0  0  0  0  0  0  0  0
  186.7350  177.0400  144.9300 C   0  0  0  0  0  3  0  0  0  0  0  0
  190.8040  177.9230  144.5250 C   0  0  0  0  0  3  0  0  0  0  0  0
  187.3370  176.5570  143.8410 C   0  0  0  0  0  3  0  0  0  0  0  0
  188.7900  176.8150  143.5300 C   0  0  1  0  0  3  0  0  0  0  0  0
  186.7320  178.4010  147.0820 C   0  0  0  0  0  0  0  0  0  0  0  0
  187.3120  178.5150  148.1950 O   0  0  0  0  0  1  0  0  0  0  0  0
  185.3960  178.7730  146.9730 O   0  0  0  0  0  0  0  0  0  0  0  0
  187.8460  178.5010  138.9870 C   0  0  0  0  0  2  0  0  0  0  0  0
  188.0010  176.7380  137.2290 N   0  0  0  0  0  0  0  0  0  0  0  0
  186.0540  178.1040  137.3430 O   0  0  0  0  0  0  0  0  0  0  0  0
  185.5300  174.3950  135.5350 C   0  0  1  0  0  3  0  0  0  0  0  0
  184.3330  175.0860  136.0690 N   0  0  0  0  0  0  0  0  0  0  0  0
  186.8100  174.7130  136.3430 C   0  0  1  0  0  3  0  0  0  0  0  0
  183.3330  174.9150  135.1720 O   0  0  0  0  0  1  0  0  0  0  0  0
  186.9330  176.2240  136.4170 C   0  0  1  0  0  3  0  0  0  0  0  0
  185.3060  172.8910  135.4960 C   0  0  0  0  0  1  0  0  0  0  0  0
  184.5550  176.5370  136.1640 C   0  0  0  0  0  2  0  0  0  0  0  0
  185.7350  176.7740  137.0800 C   0  0  2  0  0  3  0  0  0  0  0  0
  186.7390  174.1720  137.6140 F   0  0  0  0  0  0  0  0  0  0  0  0
  187.4560  178.0590  137.5690 C   0  0  1  0  0  3  0  0  0  0  0  0
  189.1360  176.9610  136.3500 C   0  0  0  0  0  1  0  0  0  0  0  0
  1 17  1  0  0  0  0
  2 12  1  0  0  0  0
  3 15  1  0  0  0  0
  4 21  1  6  0  0  0
  4  6  1  0  0  0  0
  4  5  1  0  0  0  0
  5  1  1  0  0  0  0
  6  8  1  6  0  0  0
  6 10  1  0  0  0  0
  7 11  1  0  0  0  0
  8  7  1  0  0  0  0
  9  3  2  0  0  0  0
 10  1  2  0  0  0  0
 10  9  1  0  0  0  0
 11  9  1  0  0  0  0
 12 13  2  0  0  0  0
 13 18  1  0  0  0  0
 14 13  1  0  0  0  0
 15  2  2  0  0  0  0
 16 14  2  0  0  0  0
 17 16  1  1  0  0  0
 17  2  1  0  0  0  0
 18 19  1  0  0  0  0
 20 18  2  0  0  0  0
 22 33  1  0  0  0  0
 23 33  1  0  0  0  0
 24 29  1  1  0  0  0
 24 25  1  0  0  0  0
 24 26  1  0  0  0  0
 25 30  1  0  0  0  0
 26 28  1  0  0  0  0
 26 32  1  1  0  0  0
 27 25  1  0  0  0  0
 28 31  1  0  0  0  0
 28 22  1  1  0  0  0
 31 30  1  6  0  0  0
 31 23  1  0  0  0  0
 33 21  1  1  0  0  0
 34 22  1  0  0  0  0
M  END
>  <MODEL>
7

>  <REMARK>
 VINA RESULT:      -9.0      2.260      3.936
  Name = 
  3 active torsions:
  status: ('A' for Active; 'I' for Inactive)
    1  A    between atoms: C_3  and  C_25
    2  A    between atoms: C_8  and  C_18
    3  A    between atoms: C_18  and  C_30
                            x       y       z     vdW  Elec       q    Type
                         _______ _______ _______ _____ _____    ______ ____

>  <TORSDO>
F 3

$$$$
=
 OpenBabel10262423363D

 34 39  0  0  1  0  0  0  0  0999 V2000
  186.9860  178.6330  140.6170 C   0  0  0  0  0  0  0  0  0  0  0  0
  184.4970  178.5790  140.9780 C   0  0  0  0  0  0  0  0  0  0  0  0
  184.7720  178.1680  138.5070 C   0  0  0  0  0  3  0  0  0  0  0  0
  189.2190  178.1490  140.3540 C   0  0  2  0  0  3  0  0  0  0  0  0
  188.2140  178.5950  141.2590 O   0  0  0  0  0  0  0  0  0  0  0  0
  188.4550  177.6210  139.1370 C   0  0  2  0  0  3  0  0  0  0  0  0
  188.1100  177.6730  136.9050 C   0  0  0  0  0  2  0  0  0  0  0  0
  188.8940  178.2260  137.9440 O   0  0  0  0  0  0  0  0  0  0  0  0
  186.0970  178.1610  138.3320 C   0  0  0  0  0  0  0  0  0  0  0  0
  187.0690  178.0740  139.4280 C   0  0  0  0  0  0  0  0  0  0  0  0
  186.6650  178.2190  136.9420 C   0  0  0  0  0  2  0  0  0  0  0  0
  183.5990  178.4320  142.1340 C   0  0  0  0  0  3  0  0  0  0  0  0
  183.8890  178.9770  143.3200 C   0  0  0  0  0  0  0  0  0  0  0  0
  185.1340  179.7480  143.5010 C   0  0  0  0  0  3  0  0  0  0  0  0
  184.0560  178.1250  139.8000 C   0  0  0  0  0  3  0  0  0  0  0  0
  186.0040  179.9250  142.5050 C   0  0  0  0  0  3  0  0  0  0  0  0
  185.7810  179.3730  141.1190 C   0  0  1  0  0  3  0  0  0  0  0  0
  182.9740  178.8010  144.4600 C   0  0  0  0  0  0  0  0  0  0  0  0
  181.7730  178.4670  144.2770 O   0  0  0  0  0  0  0  0  0  0  0  0
  183.4310  179.0020  145.7580 O   0  0  0  0  0  1  0  0  0  0  0  0
  190.1690  177.1140  140.9700 C   0  0  0  0  0  2  0  0  0  0  0  0
  190.5220  176.6500  143.3960 N   0  0  0  0  0  0  0  0  0  0  0  0
  188.3090  176.6350  142.5150 O   0  0  0  0  0  0  0  0  0  0  0  0
  188.6030  177.4020  146.5920 C   0  0  1  0  0  3  0  0  0  0  0  0
  187.3730  177.8330  145.8880 N   0  0  0  0  0  0  0  0  0  0  0  0
  189.8540  177.4410  145.6830 C   0  0  1  0  0  3  0  0  0  0  0  0
  186.3240  177.5540  146.6980 O   0  0  0  0  0  1  0  0  0  0  0  0
  189.5280  176.6430  144.4330 C   0  0  1  0  0  3  0  0  0  0  0  0
  188.8400  178.2550  147.8290 C   0  0  0  0  0  1  0  0  0  0  0  0
  187.1620  177.0520  144.6590 C   0  0  0  0  0  2  0  0  0  0  0  0
  188.3630  177.2520  143.7620 C   0  0  2  0  0  3  0  0  0  0  0  0
  190.1840  178.7430  145.3520 F   0  0  0  0  0  0  0  0  0  0  0  0
  189.6760  176.3780  142.2250 C   0  0  1  0  0  3  0  0  0  0  0  0
  191.3560  175.4770  143.5970 C   0  0  0  0  0  1  0  0  0  0  0  0
  1 17  1  0  0  0  0
  1  5  1  0  0  0  0
  2 17  1  0  0  0  0
  2 12  1  0  0  0  0
  3 15  1  0  0  0  0
  4 21  1  1  0  0  0
  4  5  1  0  0  0  0
  6  8  1  6  0  0  0
  6 10  1  0  0  0  0
  6  4  1  0  0  0  0
  7 11  1  0  0  0  0
  7  8  1  0  0  0  0
  9  3  2  0  0  0  0
  9 10  1  0  0  0  0
 10  1  2  0  0  0  0
 11  9  1  0  0  0  0
 12 13  2  0  0  0  0
 13 14  1  0  0  0  0
 13 18  1  0  0  0  0
 15  2  2  0  0  0  0
 16 14  2  0  0  0  0
 17 16  1  1  0  0  0
 18 20  1  0  0  0  0
 19 18  2  0  0  0  0
 22 34  1  0  0  0  0
 23 31  1  0  0  0  0
 24 29  1  1  0  0  0
 25 24  1  0  0  0  0
 25 27  1  0  0  0  0
 26 32  1  6  0  0  0
 26 24  1  0  0  0  0
 28 22  1  6  0  0  0
 28 26  1  0  0  0  0
 30 25  1  0  0  0  0
 31 28  1  0  0  0  0
 31 30  1  1  0  0  0
 33 21  1  6  0  0  0
 33 23  1  0  0  0  0
 33 22  1  0  0  0  0
M  END
>  <MODEL>
8

>  <REMARK>
 VINA RESULT:      -8.9      3.647      7.701
  Name = 
  3 active torsions:
  status: ('A' for Active; 'I' for Inactive)
    1  A    between atoms: C_3  and  C_25
    2  A    between atoms: C_8  and  C_18
    3  A    between atoms: C_18  and  C_30
                            x       y       z     vdW  Elec       q    Type
                         _______ _______ _______ _____ _____    ______ ____

>  <TORSDO>
F 3

$$$$
=
 OpenBabel10262423363D

 34 39  0  0  1  0  0  0  0  0999 V2000
  183.7160  178.2050  141.3490 C   0  0  0  0  0  0  0  0  0  0  0  0
  184.8260  178.4030  143.5980 C   0  0  0  0  0  0  0  0  0  0  0  0
  182.4540  179.1470  144.0100 C   0  0  0  0  0  3  0  0  0  0  0  0
  182.5630  177.5350  139.4750 C   0  0  2  0  0  3  0  0  0  0  0  0
  183.8470  177.6700  140.0770 O   0  0  0  0  0  0  0  0  0  0  0  0
  181.5630  177.7680  140.6100 C   0  0  2  0  0  3  0  0  0  0  0  0
  179.7840  178.9070  141.4100 C   0  0  0  0  0  2  0  0  0  0  0  0
  180.6340  178.7760  140.2870 O   0  0  0  0  0  0  0  0  0  0  0  0
  181.8640  179.0020  142.8200 C   0  0  0  0  0  0  0  0  0  0  0  0
  182.4490  178.2570  141.7000 C   0  0  0  0  0  0  0  0  0  0  0  0
  180.5070  179.6050  142.5830 C   0  0  0  0  0  2  0  0  0  0  0  0
  186.0550  177.8870  144.2200 C   0  0  0  0  0  3  0  0  0  0  0  0
  187.1920  177.7620  143.5270 C   0  0  0  0  0  0  0  0  0  0  0  0
  187.2400  178.1430  142.1020 C   0  0  0  0  0  3  0  0  0  0  0  0
  183.7810  178.6280  144.4030 C   0  0  0  0  0  3  0  0  0  0  0  0
  186.1690  178.6150  141.4620 C   0  0  0  0  0  3  0  0  0  0  0  0
  184.8370  178.8150  142.1390 C   0  0  1  0  0  3  0  0  0  0  0  0
  188.4020  177.2310  144.1770 C   0  0  0  0  0  0  0  0  0  0  0  0
  189.1240  176.3780  143.5950 O   0  0  0  0  0  0  0  0  0  0  0  0
  188.7610  177.6720  145.4460 O   0  0  0  0  0  1  0  0  0  0  0  0
  182.3700  176.1920  138.7610 C   0  0  0  0  0  2  0  0  0  0  0  0
  183.8200  177.1670  136.9810 N   0  0  0  0  0  0  0  0  0  0  0  0
  184.2480  174.9550  137.7520 O   0  0  0  0  0  0  0  0  0  0  0  0
  187.5030  176.9200  136.0670 C   0  0  1  0  0  3  0  0  0  0  0  0
  187.7710  175.7820  136.9760 N   0  0  0  0  0  0  0  0  0  0  0  0
  186.2150  177.6910  136.4410 C   0  0  1  0  0  3  0  0  0  0  0  0
  188.7800  175.0590  136.4340 O   0  0  0  0  0  1  0  0  0  0  0  0
  185.0910  176.6740  136.5280 C   0  0  1  0  0  3  0  0  0  0  0  0
  188.6860  177.8770  136.0450 C   0  0  0  0  0  1  0  0  0  0  0  0
  186.6130  174.8770  137.0500 C   0  0  0  0  0  2  0  0  0  0  0  0
  185.4280  175.6690  137.5550 C   0  0  2  0  0  3  0  0  0  0  0  0
  186.3660  178.3480  137.6490 F   0  0  0  0  0  0  0  0  0  0  0  0
  183.2410  175.9300  137.5230 C   0  0  1  0  0  3  0  0  0  0  0  0
  183.0510  177.5110  135.7970 C   0  0  0  0  0  1  0  0  0  0  0  0
  1 10  2  0  0  0  0
  1 17  1  0  0  0  0
  2 12  1  0  0  0  0
  2 15  2  0  0  0  0
  3 15  1  0  0  0  0
  4 21  1  1  0  0  0
  4  5  1  0  0  0  0
  4  6  1  0  0  0  0
  5  1  1  0  0  0  0
  6  8  1  6  0  0  0
  6 10  1  0  0  0  0
  7 11  1  0  0  0  0
  8  7  1  0  0  0  0
  9  3  2  0  0  0  0
 10  9  1  0  0  0  0
 11  9  1  0  0  0  0
 13 18  1  0  0  0  0
 13 12  2  0  0  0  0
 14 13  1  0  0  0  0
 16 14  2  0  0  0  0
 17 16  1  6  0  0  0
 17  2  1  0  0  0  0
 18 20  1  0  0  0  0
 19 18  2  0  0  0  0
 22 33  1  0  0  0  0
 24 29  1  1  0  0  0
 24 26  1  0  0  0  0
 24 25  1  0  0  0  0
 25 30  1  0  0  0  0
 26 28  1  0  0  0  0
 26 32  1  1  0  0  0
 27 25  1  0  0  0  0
 28 22  1  1  0  0  0
 28 31  1  0  0  0  0
 31 30  1  6  0  0  0
 31 23  1  0  0  0  0
 33 23  1  0  0  0  0
 33 21  1  1  0  0  0
 34 22  1  0  0  0  0
M  END
>  <MODEL>
9

>  <REMARK>
 VINA RESULT:      -8.9      2.581      4.793
  Name = 
  3 active torsions:
  status: ('A' for Active; 'I' for Inactive)
    1  A    between atoms: C_3  and  C_25
    2  A    between atoms: C_8  and  C_18
    3  A    between atoms: C_18  and  C_30
                            x       y       z     vdW  Elec       q    Type
                         _______ _______ _______ _____ _____    ______ ____

>  <TORSDO>
F 3

$$$$
