=
 OpenBabel10262419183D

 34 39  0  0  1  0  0  0  0  0999 V2000
  190.5850  177.0540  146.4520 C   0  0  0  0  0  0  0  0  0  0  0  0
  191.7260  175.7190  144.8000 C   0  0  0  0  0  0  0  0  0  0  0  0
  190.0460  177.5960  144.0710 C   0  0  2  0  0  3  0  0  0  0  0  0
  188.9720  177.1140  141.8360 C   0  0  0  0  0  0  0  0  0  0  0  0
  191.3300  176.4550  147.4150 N   0  0  0  0  0  0  0  0  0  0  0  0
  192.4550  175.1640  145.8050 N   0  0  0  0  0  2  0  0  0  0  0  0
  191.4210  177.4720  141.9830 C   0  0  0  0  0  2  0  0  0  0  0  0
  190.7850  176.7300  145.0910 C   0  0  0  0  0  0  0  0  0  0  0  0
  191.4720  176.7400  140.6450 C   0  0  0  0  0  2  0  0  0  0  0  0
  189.1010  176.6640  140.4100 C   0  0  0  0  0  2  0  0  0  0  0  0
  192.2690  175.5280  147.0990 C   0  0  0  0  0  3  0  0  0  0  0  0
  188.6450  177.9100  144.5510 C   0  0  0  0  0  0  0  0  0  0  0  0
  189.4690  177.9400  146.8510 C   0  0  0  0  0  3  0  0  0  0  0  0
  191.8940  175.2920  143.6280 O   0  0  0  0  0  0  0  0  0  0  0  0
  187.7680  177.3940  142.3290 C   0  0  0  0  0  3  0  0  0  0  0  0
  187.5730  177.8250  143.7280 C   0  0  0  0  0  0  0  0  0  0  0  0
  190.3440  177.1820  139.8240 N   0  0  2  0  0  0  0  0  0  0  0  0
  190.1490  177.2040  142.6580 N   0  0  0  0  0  0  0  0  0  0  0  0
  188.5410  178.3250  145.9670 C   0  0  0  0  0  3  0  0  0  0  0  0
  184.5660  178.3370  145.9770 C   0  0  0  0  0  0  0  0  0  0  0  0
  183.5740  178.6790  145.0530 C   0  0  0  0  0  3  0  0  0  0  0  0
  186.1760  178.0770  144.1700 C   0  0  0  0  0  0  0  0  0  0  0  0
  183.8780  178.7310  143.6920 C   0  0  0  0  0  3  0  0  0  0  0  0
  185.8610  178.0430  145.5380 C   0  0  0  0  0  3  0  0  0  0  0  0
  185.1740  178.4400  143.2560 C   0  0  0  0  0  3  0  0  0  0  0  0
  184.2730  178.3090  147.3010 F   0  0  0  0  0  0  0  0  0  0  0  0
  190.4960  176.6370  138.4720 C   0  0  1  0  0  0  0  0  0  0  0  0
  189.2370  175.7100  136.5520 O   0  0  0  0  0  1  0  0  0  0  0  0
  190.3580  177.7050  137.3910 C   0  0  0  0  0  2  0  0  0  0  0  0
  191.8080  175.4010  138.1410 S   0  0  0  0  0  1  0  0  0  0  0  0
  189.2670  176.6610  137.5770 C   0  0  2  0  0  0  0  0  0  0  0  0
  187.6540  178.5680  137.7100 C   0  0  0  0  0  1  0  0  0  0  0  0
  187.9440  177.1480  138.1570 C   0  0  1  0  0  3  0  0  0  0  0  0
  186.9110  176.3120  137.7280 O   0  0  0  0  0  1  0  0  0  0  0  0
  1 13  1  0  0  0  0
  1  5  1  0  0  0  0
  2  8  1  0  0  0  0
  2  6  1  0  0  0  0
  3 12  1  1  0  0  0
  3  8  1  0  0  0  0
  4 15  2  0  0  0  0
  4 18  1  0  0  0  0
  6 11  1  0  0  0  0
  7 18  1  0  0  0  0
  8  1  2  0  0  0  0
  9  7  1  0  0  0  0
 10  4  1  0  0  0  0
 11  5  2  0  0  0  0
 12 19  1  0  0  0  0
 14  2  2  0  0  0  0
 15 16  1  0  0  0  0
 16 22  1  0  0  0  0
 16 12  2  0  0  0  0
 17 10  1  1  0  0  0
 17  9  1  0  0  0  0
 18  3  1  0  0  0  0
 19 13  2  0  0  0  0
 20 26  1  0  0  0  0
 21 20  2  0  0  0  0
 22 24  2  0  0  0  0
 23 21  1  0  0  0  0
 24 20  1  0  0  0  0
 25 23  2  0  0  0  0
 25 22  1  0  0  0  0
 27 30  1  6  0  0  0
 27 17  1  0  0  0  0
 29 31  1  0  0  0  0
 29 27  1  0  0  0  0
 31 28  1  6  0  0  0
 31 33  1  0  0  0  0
 31 27  1  0  0  0  0
 33 32  1  6  0  0  0
 34 33  1  0  0  0  0
M  END
>  <MODEL>
1

>  <REMARK>
 VINA RESULT:      -9.7      0.000      0.000
  Name = 
  3 active torsions:
  status: ('A' for Active; 'I' for Inactive)
    1  A    between atoms: C_3  and  N_29
    2  A    between atoms: C_12  and  C_28
    3  A    between atoms: C_20  and  C_33
                            x       y       z     vdW  Elec       q    Type
                         _______ _______ _______ _____ _____    ______ ____

>  <TORSDO>
F 3

$$$$
=
 OpenBabel10262419183D

 34 39  0  0  1  0  0  0  0  0999 V2000
  186.9260  177.7760  145.4270 C   0  0  0  0  0  0  0  0  0  0  0  0
  185.0360  179.1920  144.9410 C   0  0  0  0  0  0  0  0  0  0  0  0
  186.0410  177.6270  143.0930 C   0  0  2  0  0  3  0  0  0  0  0  0
  185.6670  178.5240  140.7620 C   0  0  0  0  0  0  0  0  0  0  0  0
  186.8430  178.1530  146.7280 N   0  0  0  0  0  0  0  0  0  0  0  0
  184.9900  179.5210  146.2600 N   0  0  0  0  0  2  0  0  0  0  0  0
  183.7290  177.8850  142.1690 C   0  0  0  0  0  2  0  0  0  0  0  0
  185.9920  178.2600  144.4840 C   0  0  0  0  0  0  0  0  0  0  0  0
  182.9250  178.7820  141.2330 C   0  0  0  0  0  2  0  0  0  0  0  0
  184.7530  179.1480  139.7480 C   0  0  0  0  0  2  0  0  0  0  0  0
  185.8760  179.0070  147.1500 C   0  0  0  0  0  3  0  0  0  0  0  0
  187.4740  177.4050  142.6570 C   0  0  0  0  0  0  0  0  0  0  0  0
  188.0850  176.9710  144.9830 C   0  0  0  0  0  3  0  0  0  0  0  0
  184.2330  179.7550  144.1520 O   0  0  0  0  0  0  0  0  0  0  0  0
  186.9450  178.3110  140.4510 C   0  0  0  0  0  3  0  0  0  0  0  0
  187.8970  177.7180  141.4100 C   0  0  0  0  0  0  0  0  0  0  0  0
  183.4030  178.5820  139.8640 N   0  0  2  0  0  0  0  0  0  0  0  0
  185.1570  178.1940  142.0660 N   0  0  0  0  0  0  0  0  0  0  0  0
  188.3610  176.8140  143.6830 C   0  0  0  0  0  3  0  0  0  0  0  0
  190.9010  177.2800  139.1400 C   0  0  0  0  0  0  0  0  0  0  0  0
  191.9600  177.3950  140.0440 C   0  0  0  0  0  3  0  0  0  0  0  0
  189.3040  177.5610  140.9560 C   0  0  0  0  0  0  0  0  0  0  0  0
  191.7000  177.6020  141.3990 C   0  0  0  0  0  3  0  0  0  0  0  0
  189.5810  177.3680  139.5920 C   0  0  0  0  0  3  0  0  0  0  0  0
  190.3800  177.6930  141.8500 C   0  0  0  0  0  3  0  0  0  0  0  0
  191.1570  177.1010  137.8200 F   0  0  0  0  0  0  0  0  0  0  0  0
  182.5100  179.2870  138.9400 C   0  0  1  0  0  0  0  0  0  0  0  0
  181.6800  179.3040  136.6080 O   0  0  0  0  0  1  0  0  0  0  0  0
  181.1140  178.6750  138.8930 C   0  0  0  0  0  2  0  0  0  0  0  0
  182.5290  181.1190  138.8910 S   0  0  0  0  0  1  0  0  0  0  0  0
  182.0540  178.5240  137.7060 C   0  0  2  0  0  0  0  0  0  0  0  0
  181.6050  176.2670  136.7250 C   0  0  0  0  0  1  0  0  0  0  0  0
  182.6190  177.1310  137.4520 C   0  0  1  0  0  3  0  0  0  0  0  0
  183.7760  177.2320  136.6770 O   0  0  0  0  0  1  0  0  0  0  0  0
  1  5  1  0  0  0  0
  2  6  1  0  0  0  0
  3 12  1  6  0  0  0
  3  8  1  0  0  0  0
  4 18  1  0  0  0  0
  5 11  2  0  0  0  0
  6 11  1  0  0  0  0
  8  2  1  0  0  0  0
  8  1  2  0  0  0  0
  9  7  1  0  0  0  0
 10  4  1  0  0  0  0
 12 19  1  0  0  0  0
 13  1  1  0  0  0  0
 14  2  2  0  0  0  0
 15  4  2  0  0  0  0
 15 16  1  0  0  0  0
 16 12  2  0  0  0  0
 17 10  1  1  0  0  0
 17  9  1  0  0  0  0
 18  7  1  0  0  0  0
 18  3  1  0  0  0  0
 19 13  2  0  0  0  0
 20 24  2  0  0  0  0
 20 21  1  0  0  0  0
 21 23  2  0  0  0  0
 22 16  1  0  0  0  0
 22 25  2  0  0  0  0
 23 25  1  0  0  0  0
 24 22  1  0  0  0  0
 26 20  1  0  0  0  0
 27 30  1  6  0  0  0
 27 17  1  0  0  0  0
 29 27  1  0  0  0  0
 31 28  1  6  0  0  0
 31 29  1  0  0  0  0
 31 27  1  0  0  0  0
 33 32  1  6  0  0  0
 33 31  1  0  0  0  0
 34 33  1  0  0  0  0
M  END
>  <MODEL>
2

>  <REMARK>
 VINA RESULT:      -8.9      4.611      6.874
  Name = 
  3 active torsions:
  status: ('A' for Active; 'I' for Inactive)
    1  A    between atoms: C_3  and  N_29
    2  A    between atoms: C_12  and  C_28
    3  A    between atoms: C_20  and  C_33
                            x       y       z     vdW  Elec       q    Type
                         _______ _______ _______ _____ _____    ______ ____

>  <TORSDO>
F 3

$$$$
=
 OpenBabel10262419183D

 34 39  0  0  1  0  0  0  0  0999 V2000
  186.7310  177.7480  145.2150 C   0  0  0  0  0  0  0  0  0  0  0  0
  184.8300  179.1710  144.7980 C   0  0  0  0  0  0  0  0  0  0  0  0
  185.8220  177.6740  142.8870 C   0  0  2  0  0  3  0  0  0  0  0  0
  185.4190  178.6480  140.5920 C   0  0  0  0  0  0  0  0  0  0  0  0
  186.6600  178.0800  146.5290 N   0  0  0  0  0  0  0  0  0  0  0  0
  184.7970  179.4550  146.1270 N   0  0  0  0  0  2  0  0  0  0  0  0
  183.4990  177.9530  141.9970 C   0  0  0  0  0  2  0  0  0  0  0  0
  185.7850  178.2590  144.2990 C   0  0  0  0  0  0  0  0  0  0  0  0
  182.6810  178.8770  141.1000 C   0  0  0  0  0  2  0  0  0  0  0  0
  184.4920  179.3020  139.6090 C   0  0  0  0  0  2  0  0  0  0  0  0
  185.6950  178.9150  146.9900 C   0  0  0  0  0  3  0  0  0  0  0  0
  187.2510  177.4740  142.4290 C   0  0  0  0  0  0  0  0  0  0  0  0
  187.8890  176.9640  144.7320 C   0  0  0  0  0  3  0  0  0  0  0  0
  184.0160  179.7560  144.0370 O   0  0  0  0  0  0  0  0  0  0  0  0
  186.6940  178.4530  140.2610 C   0  0  0  0  0  3  0  0  0  0  0  0
  187.6590  177.8310  141.1880 C   0  0  0  0  0  0  0  0  0  0  0  0
  183.1460  178.7260  139.7210 N   0  0  2  0  0  0  0  0  0  0  0  0
  184.9240  178.2720  141.8890 N   0  0  0  0  0  0  0  0  0  0  0  0
  188.1520  176.8530  143.4250 C   0  0  0  0  0  3  0  0  0  0  0  0
  191.4260  177.4100  141.2230 C   0  0  0  0  0  0  0  0  0  0  0  0
  191.7140  177.3080  139.8590 C   0  0  0  0  0  3  0  0  0  0  0  0
  189.0620  177.6970  140.7150 C   0  0  0  0  0  0  0  0  0  0  0  0
  190.6840  177.3900  138.9220 C   0  0  0  0  0  3  0  0  0  0  0  0
  190.1070  177.5980  141.6490 C   0  0  0  0  0  3  0  0  0  0  0  0
  189.3650  177.5740  139.3490 C   0  0  0  0  0  3  0  0  0  0  0  0
  192.4270  177.3090  142.1330 F   0  0  0  0  0  0  0  0  0  0  0  0
  182.2400  179.4580  138.8300 C   0  0  1  0  0  0  0  0  0  0  0  0
  181.3690  179.5370  136.5140 O   0  0  0  0  0  1  0  0  0  0  0  0
  180.8400  178.8530  138.7930 C   0  0  0  0  0  2  0  0  0  0  0  0
  182.2650  181.2900  138.8270 S   0  0  0  0  0  1  0  0  0  0  0  0
  181.7580  178.7280  137.5860 C   0  0  2  0  0  0  0  0  0  0  0  0
  181.2850  176.5010  136.5490 C   0  0  0  0  0  1  0  0  0  0  0  0
  182.3120  177.3390  137.2870 C   0  0  1  0  0  3  0  0  0  0  0  0
  183.4600  177.4550  136.5010 O   0  0  0  0  0  1  0  0  0  0  0  0
  1  5  1  0  0  0  0
  2  6  1  0  0  0  0
  3 12  1  6  0  0  0
  3  8  1  0  0  0  0
  4 18  1  0  0  0  0
  5 11  2  0  0  0  0
  6 11  1  0  0  0  0
  8  2  1  0  0  0  0
  8  1  2  0  0  0  0
  9  7  1  0  0  0  0
 10  4  1  0  0  0  0
 12 19  1  0  0  0  0
 13  1  1  0  0  0  0
 14  2  2  0  0  0  0
 15  4  2  0  0  0  0
 15 16  1  0  0  0  0
 16 12  2  0  0  0  0
 17 10  1  1  0  0  0
 17  9  1  0  0  0  0
 18  7  1  0  0  0  0
 18  3  1  0  0  0  0
 19 13  2  0  0  0  0
 20 24  1  0  0  0  0
 20 26  1  0  0  0  0
 21 20  2  0  0  0  0
 22 16  1  0  0  0  0
 22 24  2  0  0  0  0
 23 25  2  0  0  0  0
 23 21  1  0  0  0  0
 25 22  1  0  0  0  0
 27 30  1  6  0  0  0
 27 17  1  0  0  0  0
 29 27  1  0  0  0  0
 31 28  1  6  0  0  0
 31 29  1  0  0  0  0
 31 27  1  0  0  0  0
 33 32  1  6  0  0  0
 33 31  1  0  0  0  0
 34 33  1  0  0  0  0
M  END
>  <MODEL>
3

>  <REMARK>
 VINA RESULT:      -8.9      4.607      6.898
  Name = 
  3 active torsions:
  status: ('A' for Active; 'I' for Inactive)
    1  A    between atoms: C_3  and  N_29
    2  A    between atoms: C_12  and  C_28
    3  A    between atoms: C_20  and  C_33
                            x       y       z     vdW  Elec       q    Type
                         _______ _______ _______ _____ _____    ______ ____

>  <TORSDO>
F 3

$$$$
=
 OpenBabel10262419183D

 34 39  0  0  1  0  0  0  0  0999 V2000
  180.4350  179.8370  142.0810 C   0  0  0  0  0  0  0  0  0  0  0  0
  181.0060  180.4520  139.8210 C   0  0  0  0  0  0  0  0  0  0  0  0
  182.3250  178.5560  141.0620 C   0  0  2  0  0  3  0  0  0  0  0  0
  184.6960  178.3210  140.2210 C   0  0  0  0  0  0  0  0  0  0  0  0
  179.3710  180.6760  142.0150 N   0  0  0  0  0  0  0  0  0  0  0  0
  179.9160  181.2650  139.8060 N   0  0  0  0  0  2  0  0  0  0  0  0
  182.7910  177.8710  138.7010 C   0  0  0  0  0  2  0  0  0  0  0  0
  181.2790  179.6660  140.9610 C   0  0  0  0  0  0  0  0  0  0  0  0
  183.8040  178.0980  137.5830 C   0  0  0  0  0  2  0  0  0  0  0  0
  185.6580  178.2490  139.0720 C   0  0  0  0  0  2  0  0  0  0  0  0
  179.1000  181.3760  140.8840 C   0  0  0  0  0  3  0  0  0  0  0  0
  182.9320  178.5190  142.4490 C   0  0  0  0  0  0  0  0  0  0  0  0
  180.7830  179.2170  143.3790 C   0  0  0  0  0  3  0  0  0  0  0  0
  181.7640  180.4430  138.8170 O   0  0  0  0  0  0  0  0  0  0  0  0
  185.1610  178.3070  141.4690 C   0  0  0  0  0  3  0  0  0  0  0  0
  184.2670  178.3910  142.6410 C   0  0  0  0  0  0  0  0  0  0  0  0
  185.0740  177.4810  137.9670 N   0  0  2  0  0  0  0  0  0  0  0  0
  183.2860  178.4360  139.9570 N   0  0  0  0  0  0  0  0  0  0  0  0
  181.9650  178.6180  143.5640 C   0  0  0  0  0  3  0  0  0  0  0  0
  186.8460  177.9320  145.3790 C   0  0  0  0  0  0  0  0  0  0  0  0
  186.2060  178.5180  146.4750 C   0  0  0  0  0  3  0  0  0  0  0  0
  184.9080  178.3990  143.9820 C   0  0  0  0  0  0  0  0  0  0  0  0
  184.9260  179.0540  146.3290 C   0  0  0  0  0  3  0  0  0  0  0  0
  186.2030  177.8770  144.1390 C   0  0  0  0  0  3  0  0  0  0  0  0
  184.2860  179.0020  145.0870 C   0  0  0  0  0  3  0  0  0  0  0  0
  188.0990  177.4320  145.5190 F   0  0  0  0  0  0  0  0  0  0  0  0
  185.9890  177.5220  136.8220 C   0  0  1  0  0  0  0  0  0  0  0  0
  187.5400  176.1450  135.4700 O   0  0  0  0  0  1  0  0  0  0  0  0
  185.3090  177.1270  135.5150 C   0  0  0  0  0  2  0  0  0  0  0  0
  187.1690  178.9140  136.6630 S   0  0  0  0  0  1  0  0  0  0  0  0
  186.3240  176.1950  136.1600 C   0  0  2  0  0  0  0  0  0  0  0  0
  184.9750  174.1280  135.7520 C   0  0  0  0  0  1  0  0  0  0  0  0
  185.7820  174.9090  136.7730 C   0  0  1  0  0  3  0  0  0  0  0  0
  186.8450  174.1200  137.2180 O   0  0  0  0  0  1  0  0  0  0  0  0
  1 13  1  0  0  0  0
  2  8  1  0  0  0  0
  3  8  1  6  0  0  0
  3 12  1  0  0  0  0
  4 15  2  0  0  0  0
  5  1  1  0  0  0  0
  6  2  1  0  0  0  0
  6 11  1  0  0  0  0
  7 18  1  0  0  0  0
  8  1  2  0  0  0  0
  9  7  1  0  0  0  0
 10  4  1  0  0  0  0
 11  5  2  0  0  0  0
 12 16  2  0  0  0  0
 12 19  1  0  0  0  0
 13 19  2  0  0  0  0
 14  2  2  0  0  0  0
 15 16  1  0  0  0  0
 16 22  1  0  0  0  0
 17  9  1  6  0  0  0
 17 10  1  0  0  0  0
 18  4  1  0  0  0  0
 18  3  1  0  0  0  0
 20 26  1  0  0  0  0
 20 21  1  0  0  0  0
 22 24  1  0  0  0  0
 22 25  2  0  0  0  0
 23 21  2  0  0  0  0
 24 20  2  0  0  0  0
 25 23  1  0  0  0  0
 27 30  1  6  0  0  0
 27 17  1  0  0  0  0
 29 31  1  0  0  0  0
 29 27  1  0  0  0  0
 31 28  1  6  0  0  0
 31 33  1  0  0  0  0
 31 27  1  0  0  0  0
 33 32  1  6  0  0  0
 33 34  1  0  0  0  0
M  END
>  <MODEL>
4

>  <REMARK>
 VINA RESULT:      -8.6      4.732      7.623
  Name = 
  3 active torsions:
  status: ('A' for Active; 'I' for Inactive)
    1  A    between atoms: C_3  and  N_29
    2  A    between atoms: C_12  and  C_28
    3  A    between atoms: C_20  and  C_33
                            x       y       z     vdW  Elec       q    Type
                         _______ _______ _______ _____ _____    ______ ____

>  <TORSDO>
F 3

$$$$
=
 OpenBabel10262419183D

 34 39  0  0  1  0  0  0  0  0999 V2000
  186.9690  178.2760  146.5460 C   0  0  0  0  0  0  0  0  0  0  0  0
  188.7140  177.0250  145.4490 C   0  0  0  0  0  0  0  0  0  0  0  0
  187.1750  178.6500  144.0820 C   0  0  2  0  0  3  0  0  0  0  0  0
  186.9360  177.9480  141.6670 C   0  0  0  0  0  0  0  0  0  0  0  0
  187.4200  177.8130  147.7380 N   0  0  0  0  0  0  0  0  0  0  0  0
  189.1320  176.6060  146.6720 N   0  0  0  0  0  2  0  0  0  0  0  0
  189.1540  178.6100  142.5510 C   0  0  0  0  0  2  0  0  0  0  0  0
  187.6300  177.9230  145.3480 C   0  0  0  0  0  0  0  0  0  0  0  0
  189.7110  177.8370  141.3600 C   0  0  0  0  0  2  0  0  0  0  0  0
  187.5640  177.4600  140.3940 C   0  0  0  0  0  2  0  0  0  0  0  0
  188.5010  176.9960  147.8090 C   0  0  0  0  0  3  0  0  0  0  0  0
  185.6690  178.8080  144.0690 C   0  0  0  0  0  0  0  0  0  0  0  0
  185.6980  179.0330  146.5010 C   0  0  0  0  0  3  0  0  0  0  0  0
  189.2940  176.5750  144.4270 O   0  0  0  0  0  0  0  0  0  0  0  0
  185.6140  178.0990  141.7310 C   0  0  0  0  0  3  0  0  0  0  0  0
  184.9350  178.5580  142.9580 C   0  0  0  0  0  0  0  0  0  0  0  0
  188.8680  178.1030  140.1930 N   0  0  2  0  0  0  0  0  0  0  0  0
  187.7680  178.2170  142.8090 N   0  0  0  0  0  0  0  0  0  0  0  0
  185.0710  179.2650  145.3420 C   0  0  0  0  0  3  0  0  0  0  0  0
  181.3880  178.6280  141.6250 C   0  0  0  0  0  0  0  0  0  0  0  0
  180.6410  178.6980  142.8040 C   0  0  0  0  0  3  0  0  0  0  0  0
  183.4520  178.6540  142.9150 C   0  0  0  0  0  0  0  0  0  0  0  0
  181.2910  178.7370  144.0390 C   0  0  0  0  0  3  0  0  0  0  0  0
  182.7850  178.6010  141.6800 C   0  0  0  0  0  3  0  0  0  0  0  0
  182.6880  178.7060  144.0920 C   0  0  0  0  0  3  0  0  0  0  0  0
  180.7530  178.5680  140.4270 F   0  0  0  0  0  0  0  0  0  0  0  0
  189.5050  177.5270  139.0040 C   0  0  1  0  0  0  0  0  0  0  0  0
  189.0390  176.3380  136.8830 O   0  0  0  0  0  1  0  0  0  0  0  0
  189.5780  178.5120  137.8430 C   0  0  0  0  0  2  0  0  0  0  0  0
  190.9990  176.4840  139.2000 S   0  0  0  0  0  1  0  0  0  0  0  0
  188.6250  177.3280  137.7800 C   0  0  2  0  0  0  0  0  0  0  0  0
  186.7830  178.8520  137.0440 C   0  0  0  0  0  1  0  0  0  0  0  0
  187.1370  177.6400  137.8850 C   0  0  1  0  0  3  0  0  0  0  0  0
  186.3980  176.5410  137.4390 O   0  0  0  0  0  1  0  0  0  0  0  0
  1  5  1  0  0  0  0
  2  6  1  0  0  0  0
  3 12  1  6  0  0  0
  3  8  1  0  0  0  0
  4 15  2  0  0  0  0
  4 18  1  0  0  0  0
  5 11  2  0  0  0  0
  6 11  1  0  0  0  0
  7 18  1  0  0  0  0
  8  2  1  0  0  0  0
  8  1  2  0  0  0  0
  9  7  1  0  0  0  0
 10  4  1  0  0  0  0
 12 19  1  0  0  0  0
 13  1  1  0  0  0  0
 14  2  2  0  0  0  0
 15 16  1  0  0  0  0
 16 12  2  0  0  0  0
 17 10  1  1  0  0  0
 17  9  1  0  0  0  0
 18  3  1  0  0  0  0
 19 13  2  0  0  0  0
 20 24  2  0  0  0  0
 20 21  1  0  0  0  0
 21 23  2  0  0  0  0
 22 16  1  0  0  0  0
 22 25  2  0  0  0  0
 23 25  1  0  0  0  0
 24 22  1  0  0  0  0
 26 20  1  0  0  0  0
 27 30  1  1  0  0  0
 27 17  1  0  0  0  0
 29 27  1  0  0  0  0
 31 28  1  6  0  0  0
 31 29  1  0  0  0  0
 31 33  1  0  0  0  0
 31 27  1  0  0  0  0
 33 32  1  6  0  0  0
 34 33  1  0  0  0  0
M  END
>  <MODEL>
5

>  <REMARK>
 VINA RESULT:      -8.3      2.277      3.190
  Name = 
  3 active torsions:
  status: ('A' for Active; 'I' for Inactive)
    1  A    between atoms: C_3  and  N_29
    2  A    between atoms: C_12  and  C_28
    3  A    between atoms: C_20  and  C_33
                            x       y       z     vdW  Elec       q    Type
                         _______ _______ _______ _____ _____    ______ ____

>  <TORSDO>
F 3

$$$$
=
 OpenBabel10262419183D

 34 39  0  0  1  0  0  0  0  0999 V2000
  190.8700  176.5070  145.6120 C   0  0  0  0  0  0  0  0  0  0  0  0
  188.9940  177.8740  146.2660 C   0  0  0  0  0  0  0  0  0  0  0  0
  189.0030  176.6370  143.9540 C   0  0  0  0  0  0  0  0  0  0  0  0
  187.6090  177.8290  142.2170 C   0  0  0  0  0  0  0  0  0  0  0  0
  191.4040  176.6940  146.8450 N   0  0  0  0  0  2  0  0  0  0  0  0
  189.5700  178.0140  147.4900 N   0  0  0  0  0  0  0  0  0  0  0  0
  186.5310  176.8980  144.2450 C   0  0  0  0  0  2  0  0  0  0  0  0
  189.6140  177.0670  145.2880 C   0  0  0  0  0  0  0  0  0  0  0  0
  185.4010  177.8720  143.9290 C   0  0  0  0  0  2  0  0  0  0  0  0
  186.3410  178.5380  141.8420 C   0  0  0  0  0  2  0  0  0  0  0  0
  190.7580  177.4280  147.7850 C   0  0  0  0  0  3  0  0  0  0  0  0
  190.0680  176.5550  142.8800 C   0  0  0  0  0  0  0  0  0  0  0  0
  191.6780  175.8350  144.5710 C   0  0  0  0  0  3  0  0  0  0  0  0
  187.9280  178.4970  146.0270 O   0  0  0  0  0  0  0  0  0  0  0  0
  188.5940  177.7300  141.3260 C   0  0  0  0  0  3  0  0  0  0  0  0
  189.8710  177.0600  141.6400 C   0  0  0  0  0  0  0  0  0  0  0  0
  185.1880  177.8900  142.4810 N   0  0  2  0  0  0  0  0  0  0  0  0
  187.7540  177.2940  143.5440 N   0  0  0  0  0  0  0  0  0  0  0  0
  191.3190  175.8750  143.2830 C   0  0  0  0  0  2  0  0  0  0  0  0
  191.5040  176.6900  138.2390 C   0  0  0  0  0  0  0  0  0  0  0  0
  192.8050  177.1280  138.4990 C   0  0  0  0  0  3  0  0  0  0  0  0
  190.9060  177.0440  140.5730 C   0  0  0  0  0  0  0  0  0  0  0  0
  193.1610  177.5330  139.7860 C   0  0  0  0  0  3  0  0  0  0  0  0
  190.5580  176.6530  139.2690 C   0  0  0  0  0  3  0  0  0  0  0  0
  192.2130  177.4990  140.8130 C   0  0  0  0  0  3  0  0  0  0  0  0
  191.1550  176.3180  136.9820 F   0  0  0  0  0  0  0  0  0  0  0  0
  183.9810  178.6680  142.1860 C   0  0  1  0  0  0  0  0  0  0  0  0
  182.9250  180.1250  140.4860 O   0  0  0  0  0  1  0  0  0  0  0  0
  182.9450  177.8680  141.4040 C   0  0  0  0  0  2  0  0  0  0  0  0
  183.2710  179.7530  143.4810 S   0  0  0  0  0  1  0  0  0  0  0  0
  183.7110  178.9940  140.7260 C   0  0  2  0  0  0  0  0  0  0  0  0
  184.1880  177.5000  138.7770 C   0  0  0  0  0  1  0  0  0  0  0  0
  184.7420  178.5880  139.6780 C   0  0  1  0  0  3  0  0  0  0  0  0
  185.0800  179.6990  138.9020 O   0  0  0  0  0  1  0  0  0  0  0  0
  1  5  1  0  0  0  0
  2  6  1  0  0  0  0
  3  8  2  0  0  0  0
  4 18  1  0  0  0  0
  5 11  1  0  0  0  0
  6 11  2  0  0  0  0
  8  1  1  0  0  0  0
  8  2  1  0  0  0  0
  9  7  1  0  0  0  0
 10  4  1  0  0  0  0
 12 19  1  0  0  0  0
 12  3  1  0  0  0  0
 13  1  2  0  0  0  0
 14  2  2  0  0  0  0
 15 16  1  0  0  0  0
 15  4  2  0  0  0  0
 16 12  2  0  0  0  0
 17 10  1  6  0  0  0
 17  9  1  0  0  0  0
 18  3  1  0  0  0  0
 18  7  1  0  0  0  0
 19 13  1  0  0  0  0
 20 21  2  0  0  0  0
 20 24  1  0  0  0  0
 21 23  1  0  0  0  0
 22 25  1  0  0  0  0
 22 16  1  0  0  0  0
 23 25  2  0  0  0  0
 24 22  2  0  0  0  0
 26 20  1  0  0  0  0
 27 17  1  0  0  0  0
 27 30  1  1  0  0  0
 29 27  1  0  0  0  0
 31 28  1  6  0  0  0
 31 29  1  0  0  0  0
 31 27  1  0  0  0  0
 33 32  1  6  0  0  0
 33 31  1  0  0  0  0
 34 33  1  0  0  0  0
M  END
>  <MODEL>
6

>  <REMARK>
 VINA RESULT:      -8.2      3.750      6.281
  Name = 
  3 active torsions:
  status: ('A' for Active; 'I' for Inactive)
    1  A    between atoms: C_3  and  N_29
    2  A    between atoms: C_12  and  C_28
    3  A    between atoms: C_20  and  C_33
                            x       y       z     vdW  Elec       q    Type
                         _______ _______ _______ _____ _____    ______ ____

>  <TORSDO>
F 3

$$$$
=
 OpenBabel10262419183D

 34 39  0  0  1  0  0  0  0  0999 V2000
  187.6430  177.7940  145.9630 C   0  0  0  0  0  0  0  0  0  0  0  0
  185.6450  179.1070  146.2770 C   0  0  0  0  0  0  0  0  0  0  0  0
  186.0000  177.7210  144.0790 C   0  0  0  0  0  0  0  0  0  0  0  0
  184.7930  178.7240  142.1010 C   0  0  0  0  0  0  0  0  0  0  0  0
  188.0070  178.0890  147.2360 N   0  0  0  0  0  2  0  0  0  0  0  0
  186.0520  179.3560  147.5500 N   0  0  0  0  0  0  0  0  0  0  0  0
  183.5030  177.8770  144.0400 C   0  0  0  0  0  2  0  0  0  0  0  0
  186.4170  178.2680  145.4450 C   0  0  0  0  0  0  0  0  0  0  0  0
  182.3840  178.7710  143.5150 C   0  0  0  0  0  2  0  0  0  0  0  0
  183.5550  179.3420  141.5200 C   0  0  0  0  0  2  0  0  0  0  0  0
  187.2160  178.8510  148.0330 C   0  0  0  0  0  3  0  0  0  0  0  0
  187.1960  177.6200  143.1560 C   0  0  0  0  0  0  0  0  0  0  0  0
  188.6050  177.0950  145.0830 C   0  0  0  0  0  3  0  0  0  0  0  0
  184.5930  179.6590  145.8630 O   0  0  0  0  0  0  0  0  0  0  0  0
  185.8870  178.6150  141.3490 C   0  0  0  0  0  3  0  0  0  0  0  0
  187.1400  178.0320  141.8680 C   0  0  0  0  0  0  0  0  0  0  0  0
  182.3570  178.6830  142.0550 N   0  0  2  0  0  0  0  0  0  0  0  0
  184.7880  178.2860  143.4710 N   0  0  0  0  0  0  0  0  0  0  0  0
  188.4120  177.0310  143.7600 C   0  0  0  0  0  2  0  0  0  0  0  0
  190.6560  177.5110  140.5540 C   0  0  0  0  0  0  0  0  0  0  0  0
  190.4960  177.7870  139.1930 C   0  0  0  0  0  3  0  0  0  0  0  0
  188.3030  177.9960  140.9420 C   0  0  0  0  0  0  0  0  0  0  0  0
  189.2450  178.1580  138.7000 C   0  0  0  0  0  3  0  0  0  0  0  0
  189.5650  177.6090  141.4220 C   0  0  0  0  0  3  0  0  0  0  0  0
  188.1540  178.2530  139.5690 C   0  0  0  0  0  3  0  0  0  0  0  0
  191.8700  177.1290  141.0270 F   0  0  0  0  0  0  0  0  0  0  0  0
  181.1670  179.3780  141.5560 C   0  0  1  0  0  0  0  0  0  0  0  0
  180.3450  180.8590  139.7510 O   0  0  0  0  0  1  0  0  0  0  0  0
  180.3900  178.5520  140.5370 C   0  0  0  0  0  2  0  0  0  0  0  0
  180.1110  180.3090  142.7290 S   0  0  0  0  0  1  0  0  0  0  0  0
  181.1680  179.7810  140.0900 C   0  0  2  0  0  0  0  0  0  0  0  0
  182.1350  178.5590  138.1340 C   0  0  0  0  0  1  0  0  0  0  0  0
  182.4230  179.5340  139.2600 C   0  0  1  0  0  3  0  0  0  0  0  0
  182.8690  180.7420  138.7190 O   0  0  0  0  0  1  0  0  0  0  0  0
  1  5  1  0  0  0  0
  2  6  1  0  0  0  0
  3  8  2  0  0  0  0
  4 18  1  0  0  0  0
  5 11  1  0  0  0  0
  6 11  2  0  0  0  0
  8  1  1  0  0  0  0
  8  2  1  0  0  0  0
  9  7  1  0  0  0  0
 10  4  1  0  0  0  0
 12 19  1  0  0  0  0
 12  3  1  0  0  0  0
 13  1  2  0  0  0  0
 14  2  2  0  0  0  0
 15 16  1  0  0  0  0
 15  4  2  0  0  0  0
 16 12  2  0  0  0  0
 17 10  1  6  0  0  0
 17  9  1  0  0  0  0
 18  7  1  0  0  0  0
 18  3  1  0  0  0  0
 19 13  1  0  0  0  0
 20 26  1  0  0  0  0
 20 24  1  0  0  0  0
 21 20  2  0  0  0  0
 22 24  2  0  0  0  0
 22 16  1  0  0  0  0
 23 21  1  0  0  0  0
 23 25  2  0  0  0  0
 25 22  1  0  0  0  0
 27 17  1  0  0  0  0
 27 30  1  1  0  0  0
 29 27  1  0  0  0  0
 31 28  1  6  0  0  0
 31 29  1  0  0  0  0
 31 27  1  0  0  0  0
 33 32  1  6  0  0  0
 33 31  1  0  0  0  0
 34 33  1  0  0  0  0
M  END
>  <MODEL>
7

>  <REMARK>
 VINA RESULT:      -7.8      4.713      7.083
  Name = 
  3 active torsions:
  status: ('A' for Active; 'I' for Inactive)
    1  A    between atoms: C_3  and  N_29
    2  A    between atoms: C_12  and  C_28
    3  A    between atoms: C_20  and  C_33
                            x       y       z     vdW  Elec       q    Type
                         _______ _______ _______ _____ _____    ______ ____

>  <TORSDO>
F 3

$$$$
=
 OpenBabel10262419183D

 34 39  0  0  1  0  0  0  0  0999 V2000
  184.3320  178.8610  144.9530 C   0  0  0  0  0  0  0  0  0  0  0  0
  186.4780  177.8880  144.4420 C   0  0  0  0  0  0  0  0  0  0  0  0
  185.0760  179.0840  142.5760 C   0  0  2  0  0  3  0  0  0  0  0  0
  185.5640  178.1740  140.2710 C   0  0  0  0  0  0  0  0  0  0  0  0
  184.5450  178.5810  146.2630 N   0  0  0  0  0  0  0  0  0  0  0  0
  186.6440  177.6480  145.7690 N   0  0  0  0  0  2  0  0  0  0  0  0
  187.3510  179.3110  141.5580 C   0  0  0  0  0  2  0  0  0  0  0  0
  185.3180  178.5530  143.9890 C   0  0  0  0  0  0  0  0  0  0  0  0
  188.3070  178.5720  140.6250 C   0  0  0  0  0  2  0  0  0  0  0  0
  186.5600  177.7230  139.2430 C   0  0  0  0  0  2  0  0  0  0  0  0
  185.6950  177.9930  146.6770 C   0  0  0  0  0  3  0  0  0  0  0  0
  183.6160  178.9510  142.1980 C   0  0  0  0  0  0  0  0  0  0  0  0
  183.0040  179.3560  144.5290 C   0  0  0  0  0  3  0  0  0  0  0  0
  187.3600  177.4820  143.6410 O   0  0  0  0  0  0  0  0  0  0  0  0
  184.2610  178.0740  140.0110 C   0  0  0  0  0  3  0  0  0  0  0  0
  183.2330  178.4850  140.9860 C   0  0  0  0  0  0  0  0  0  0  0  0
  187.7470  178.5860  139.2730 N   0  0  2  0  0  0  0  0  0  0  0  0
  186.0300  178.6800  141.5340 N   0  0  0  0  0  0  0  0  0  0  0  0
  182.6530  179.3780  143.2370 C   0  0  0  0  0  3  0  0  0  0  0  0
  179.9070  176.8090  140.2810 C   0  0  0  0  0  0  0  0  0  0  0  0
  179.0930  177.9050  139.9810 C   0  0  0  0  0  3  0  0  0  0  0  0
  181.8120  178.2920  140.5920 C   0  0  0  0  0  0  0  0  0  0  0  0
  179.6280  179.1940  139.9950 C   0  0  0  0  0  3  0  0  0  0  0  0
  181.2570  177.0020  140.5890 C   0  0  0  0  0  3  0  0  0  0  0  0
  180.9770  179.3850  140.3070 C   0  0  0  0  0  3  0  0  0  0  0  0
  179.3790  175.5590  140.2870 F   0  0  0  0  0  0  0  0  0  0  0  0
  188.7450  178.0550  138.3400 C   0  0  1  0  0  0  0  0  0  0  0  0
  189.0130  176.7980  136.2240 O   0  0  0  0  0  1  0  0  0  0  0  0
  189.0630  179.0270  137.2080 C   0  0  0  0  0  2  0  0  0  0  0  0
  190.2060  177.1620  138.9940 S   0  0  0  0  0  1  0  0  0  0  0  0
  188.2750  177.7570  136.9240 C   0  0  2  0  0  0  0  0  0  0  0  0
  186.6300  178.6170  135.2480 C   0  0  0  0  0  1  0  0  0  0  0  0
  186.7980  177.9270  136.5890 C   0  0  1  0  0  3  0  0  0  0  0  0
  186.1840  176.6740  136.5400 O   0  0  0  0  0  1  0  0  0  0  0  0
  1  5  1  0  0  0  0
  2  6  1  0  0  0  0
  3 12  1  6  0  0  0
  3  8  1  0  0  0  0
  4 18  1  0  0  0  0
  5 11  2  0  0  0  0
  6 11  1  0  0  0  0
  8  2  1  0  0  0  0
  8  1  2  0  0  0  0
  9  7  1  0  0  0  0
 10  4  1  0  0  0  0
 12 19  1  0  0  0  0
 13  1  1  0  0  0  0
 14  2  2  0  0  0  0
 15  4  2  0  0  0  0
 15 16  1  0  0  0  0
 16 12  2  0  0  0  0
 17 10  1  1  0  0  0
 17  9  1  0  0  0  0
 18  7  1  0  0  0  0
 18  3  1  0  0  0  0
 19 13  2  0  0  0  0
 20 26  1  0  0  0  0
 20 24  1  0  0  0  0
 21 23  1  0  0  0  0
 21 20  2  0  0  0  0
 22 16  1  0  0  0  0
 23 25  2  0  0  0  0
 24 22  2  0  0  0  0
 25 22  1  0  0  0  0
 27 30  1  1  0  0  0
 27 17  1  0  0  0  0
 29 27  1  0  0  0  0
 31 28  1  6  0  0  0
 31 29  1  0  0  0  0
 31 27  1  0  0  0  0
 33 32  1  6  0  0  0
 33 31  1  0  0  0  0
 34 33  1  0  0  0  0
M  END
>  <MODEL>
8

>  <REMARK>
 VINA RESULT:      -7.7      3.567      5.194
  Name = 
  3 active torsions:
  status: ('A' for Active; 'I' for Inactive)
    1  A    between atoms: C_3  and  N_29
    2  A    between atoms: C_12  and  C_28
    3  A    between atoms: C_20  and  C_33
                            x       y       z     vdW  Elec       q    Type
                         _______ _______ _______ _____ _____    ______ ____

>  <TORSDO>
F 3

$$$$
=
 OpenBabel10262419183D

 34 39  0  0  1  0  0  0  0  0999 V2000
  190.6080  176.8880  146.5650 C   0  0  0  0  0  0  0  0  0  0  0  0
  191.6850  175.6510  144.7980 C   0  0  0  0  0  0  0  0  0  0  0  0
  190.0710  177.6420  144.2420 C   0  0  2  0  0  3  0  0  0  0  0  0
  188.9620  177.3830  141.9880 C   0  0  0  0  0  0  0  0  0  0  0  0
  191.3370  176.1850  147.4680 N   0  0  0  0  0  0  0  0  0  0  0  0
  192.4000  174.9900  145.7460 N   0  0  0  0  0  2  0  0  0  0  0  0
  191.4230  177.6380  142.1360 C   0  0  0  0  0  2  0  0  0  0  0  0
  190.7850  176.6680  145.1800 C   0  0  0  0  0  0  0  0  0  0  0  0
  191.4360  177.0170  140.7420 C   0  0  0  0  0  2  0  0  0  0  0  0
  189.0620  177.0470  140.5280 C   0  0  0  0  0  2  0  0  0  0  0  0
  192.2380  175.2530  147.0680 C   0  0  0  0  0  3  0  0  0  0  0  0
  188.6860  177.9670  144.7610 C   0  0  0  0  0  0  0  0  0  0  0  0
  189.5290  177.7780  147.0470 C   0  0  0  0  0  3  0  0  0  0  0  0
  191.8270  175.3150  143.5940 O   0  0  0  0  0  0  0  0  0  0  0  0
  187.7720  177.6670  142.5150 C   0  0  0  0  0  3  0  0  0  0  0  0
  187.6060  177.9890  143.9460 C   0  0  0  0  0  0  0  0  0  0  0  0
  190.3190  177.5650  139.9730 N   0  0  2  0  0  0  0  0  0  0  0  0
  190.1480  177.3630  142.8010 N   0  0  0  0  0  0  0  0  0  0  0  0
  188.6100  178.2680  146.2080 C   0  0  0  0  0  3  0  0  0  0  0  0
  183.8700  178.6280  143.9210 C   0  0  0  0  0  0  0  0  0  0  0  0
  183.5710  178.6280  145.2870 C   0  0  0  0  0  3  0  0  0  0  0  0
  186.2230  178.2550  144.4230 C   0  0  0  0  0  0  0  0  0  0  0  0
  184.5880  178.4330  146.2220 C   0  0  0  0  0  3  0  0  0  0  0  0
  185.1860  178.4370  143.4910 C   0  0  0  0  0  3  0  0  0  0  0  0
  185.9040  178.2390  145.7910 C   0  0  0  0  0  3  0  0  0  0  0  0
  182.8760  178.7960  143.0140 F   0  0  0  0  0  0  0  0  0  0  0  0
  190.4390  177.1280  138.5790 C   0  0  1  0  0  0  0  0  0  0  0  0
  192.0700  176.7080  136.7650 O   0  0  0  0  0  1  0  0  0  0  0  0
  190.6870  175.6280  138.4560 C   0  0  0  0  0  2  0  0  0  0  0  0
  189.2920  177.8040  137.3200 S   0  0  0  0  0  1  0  0  0  0  0  0
  191.8000  176.6140  138.1330 C   0  0  2  0  0  0  0  0  0  0  0  0
  194.0070  175.6260  138.7720 C   0  0  0  0  0  1  0  0  0  0  0  0
  192.9660  176.6760  139.1120 C   0  0  1  0  0  3  0  0  0  0  0  0
  193.5560  177.9410  139.0560 O   0  0  0  0  0  1  0  0  0  0  0  0
  1 13  1  0  0  0  0
  1  5  1  0  0  0  0
  2  8  1  0  0  0  0
  2  6  1  0  0  0  0
  3 12  1  1  0  0  0
  3  8  1  0  0  0  0
  4 15  2  0  0  0  0
  4 18  1  0  0  0  0
  6 11  1  0  0  0  0
  7 18  1  0  0  0  0
  8  1  2  0  0  0  0
  9  7  1  0  0  0  0
 10  4  1  0  0  0  0
 11  5  2  0  0  0  0
 12 19  1  0  0  0  0
 14  2  2  0  0  0  0
 15 16  1  0  0  0  0
 16 22  1  0  0  0  0
 16 12  2  0  0  0  0
 17 10  1  1  0  0  0
 17  9  1  0  0  0  0
 18  3  1  0  0  0  0
 19 13  2  0  0  0  0
 20 21  1  0  0  0  0
 21 23  2  0  0  0  0
 22 25  2  0  0  0  0
 24 20  2  0  0  0  0
 24 22  1  0  0  0  0
 25 23  1  0  0  0  0
 26 20  1  0  0  0  0
 27 30  1  6  0  0  0
 27 17  1  0  0  0  0
 29 27  1  0  0  0  0
 31 28  1  6  0  0  0
 31 29  1  0  0  0  0
 31 27  1  0  0  0  0
 31 33  1  0  0  0  0
 33 32  1  6  0  0  0
 34 33  1  0  0  0  0
M  END
>  <MODEL>
9

>  <REMARK>
 VINA RESULT:      -7.6      1.658      2.456
  Name = 
  3 active torsions:
  status: ('A' for Active; 'I' for Inactive)
    1  A    between atoms: C_3  and  N_29
    2  A    between atoms: C_12  and  C_28
    3  A    between atoms: C_20  and  C_33
                            x       y       z     vdW  Elec       q    Type
                         _______ _______ _______ _____ _____    ______ ____

>  <TORSDO>
F 3

$$$$
