=
 OpenBabel10262421123D

 32 37  0  0  1  0  0  0  0  0999 V2000
  187.0280  178.3100  141.8810 C   0  0  0  0  0  0  0  0  0  0  0  0
  188.5120  177.5120  143.8130 C   0  0  1  0  0  3  0  0  0  0  0  0
  186.8530  178.6130  140.5240 C   0  0  0  0  0  3  0  0  0  0  0  0
  188.2360  177.6930  142.3170 C   0  0  0  0  0  0  0  0  0  0  0  0
  189.8620  178.0950  144.3000 C   0  0  2  0  0  3  0  0  0  0  0  0
  186.9070  178.4740  148.5200 C   0  0  0  0  0  2  0  0  0  0  0  0
  187.4310  178.1490  144.7050 C   0  0  1  0  0  3  0  0  0  0  0  0
  189.2500  177.6410  148.0950 C   0  0  0  0  0  2  0  0  0  0  0  0
  188.9860  178.1400  146.6680 C   0  0  1  0  0  3  0  0  0  0  0  0
  191.0900  177.7020  143.4880 C   0  0  2  0  0  3  0  0  0  0  0  0
  189.1220  177.1800  141.3270 C   0  0  0  0  0  0  0  0  0  0  0  0
  190.1030  177.6580  145.7470 C   0  0  0  0  0  2  0  0  0  0  0  0
  190.2510  176.2130  141.5800 C   0  0  0  0  0  2  0  0  0  0  0  0
  188.8930  177.4670  139.9780 C   0  0  0  0  0  3  0  0  0  0  0  0
  186.0470  177.8870  144.1550 C   0  0  0  0  0  2  0  0  0  0  0  0
  191.3740  178.6510  142.5030 O   0  0  0  0  0  1  0  0  0  0  0  0
  185.9240  178.6720  142.8570 C   0  0  2  0  0  3  0  0  0  0  0  0
  187.6000  177.7040  146.1610 C   0  0  1  0  0  3  0  0  0  0  0  0
  190.9770  176.2930  142.9210 C   0  0  0  0  0  2  0  0  0  0  0  0
  187.7870  178.2080  139.5790 C   0  0  0  0  0  3  0  0  0  0  0  0
  187.9730  177.4600  148.9250 C   0  0  0  0  0  2  0  0  0  0  0  0
  186.4930  178.2950  147.0540 C   0  0  0  0  0  2  0  0  0  0  0  0
  182.1540  178.8740  142.3900 C   0  0  0  0  0  0  0  0  0  0  0  0
  180.9520  179.4440  143.0590 C   0  0  0  0  0  1  0  0  0  0  0  0
  184.5420  178.4930  142.2860 C   0  0  0  0  0  0  0  0  0  0  0  0
  182.0030  178.1810  141.2300 N   0  0  0  0  0  0  0  0  0  0  0  0
  184.3530  177.7840  141.0930 C   0  0  0  0  0  3  0  0  0  0  0  0
  183.4320  179.0450  142.9430 C   0  0  0  0  0  0  0  0  0  0  0  0
  183.5970  179.7550  144.1290 O   0  0  0  0  0  1  0  0  0  0  0  0
  183.0660  177.6400  140.5740 C   0  0  0  0  0  0  0  0  0  0  0  0
  184.1010  177.6740  138.1860 C   0  0  0  0  0  1  0  0  0  0  0  0
  182.8120  176.7360  139.0550 S   0  0  0  0  0  0  0  0  0  0  0  0
  1  4  1  0  0  0  0
  1 17  1  0  0  0  0
  2  4  1  6  0  0  0
  2  5  1  0  0  0  0
  2  7  1  0  0  0  0
  3  1  2  0  0  0  0
  5 12  1  1  0  0  0
  6 21  1  0  0  0  0
  7 15  1  6  0  0  0
  7 18  1  0  0  0  0
  8 21  1  0  0  0  0
  9 12  1  6  0  0  0
  9  8  1  0  0  0  0
 10 16  1  6  0  0  0
 10  5  1  0  0  0  0
 11 13  1  0  0  0  0
 11  4  2  0  0  0  0
 13 19  1  0  0  0  0
 14 11  1  0  0  0  0
 17 25  1  6  0  0  0
 17 15  1  0  0  0  0
 18  9  1  0  0  0  0
 18 22  1  1  0  0  0
 19 10  1  0  0  0  0
 20 14  2  0  0  0  0
 20  3  1  0  0  0  0
 22  6  1  0  0  0  0
 23 28  1  0  0  0  0
 23 24  1  0  0  0  0
 25 28  2  0  0  0  0
 26 23  2  0  0  0  0
 27 25  1  0  0  0  0
 28 29  1  0  0  0  0
 30 27  2  0  0  0  0
 30 26  1  0  0  0  0
 31 32  1  0  0  0  0
 32 30  1  0  0  0  0
M  END
>  <MODEL>
1

>  <REMARK>
 VINA RESULT:     -10.3      0.000      0.000
  Name = 
  2 active torsions:
  status: ('A' for Active; 'I' for Inactive)
    1  A    between atoms: S_15  and  C_26
    2  A    between atoms: C_16  and  C_27
                            x       y       z     vdW  Elec       q    Type
                         _______ _______ _______ _____ _____    ______ ____

>  <TORSDO>
F 2

$$$$
=
 OpenBabel10262421123D

 32 37  0  0  1  0  0  0  0  0999 V2000
  189.6120  178.0740  143.6690 C   0  0  0  0  0  0  0  0  0  0  0  0
  187.5170  177.7630  145.1140 C   0  0  1  0  0  3  0  0  0  0  0  0
  191.0070  178.1350  143.5430 C   0  0  0  0  0  3  0  0  0  0  0  0
  189.0330  177.6720  144.9080 C   0  0  0  0  0  0  0  0  0  0  0  0
  187.0800  178.5620  146.3670 C   0  0  2  0  0  3  0  0  0  0  0  0
  183.1010  179.2820  143.1520 C   0  0  0  0  0  2  0  0  0  0  0  0
  186.7870  178.4120  143.9240 C   0  0  1  0  0  3  0  0  0  0  0  0
  183.2900  178.6560  145.5880 C   0  0  0  0  0  2  0  0  0  0  0  0
  184.7890  178.8880  145.3570 C   0  0  1  0  0  3  0  0  0  0  0  0
  187.7660  178.1820  147.6730 C   0  0  2  0  0  3  0  0  0  0  0  0
  189.8890  177.1080  145.8960 C   0  0  0  0  0  0  0  0  0  0  0  0
  185.5730  178.3920  146.5680 C   0  0  0  0  0  2  0  0  0  0  0  0
  189.4340  176.3240  147.1020 C   0  0  0  0  0  2  0  0  0  0  0  0
  191.2740  177.1490  145.7170 C   0  0  0  0  0  3  0  0  0  0  0  0
  187.3410  177.9140  142.6080 C   0  0  0  0  0  2  0  0  0  0  0  0
  188.8820  178.9870  147.9140 O   0  0  0  0  0  1  0  0  0  0  0  0
  188.7540  178.4620  142.4800 C   0  0  2  0  0  3  0  0  0  0  0  0
  185.2720  178.2260  144.0550 C   0  0  1  0  0  3  0  0  0  0  0  0
  188.0980  176.6970  147.7380 C   0  0  0  0  0  2  0  0  0  0  0  0
  191.8340  177.6890  144.5660 C   0  0  0  0  0  3  0  0  0  0  0  0
  182.4930  178.4700  144.2910 C   0  0  0  0  0  2  0  0  0  0  0  0
  184.5340  178.8260  142.8430 C   0  0  0  0  0  2  0  0  0  0  0  0
  189.1310  177.7000  138.7720 C   0  0  0  0  0  0  0  0  0  0  0  0
  188.3320  177.7320  137.5150 C   0  0  0  0  0  1  0  0  0  0  0  0
  189.3420  178.0440  141.1590 C   0  0  0  0  0  0  0  0  0  0  0  0
  190.4260  177.2910  138.7260 N   0  0  0  0  0  0  0  0  0  0  0  0
  190.6740  177.6160  141.0780 C   0  0  0  0  0  3  0  0  0  0  0  0
  188.5610  178.0870  139.9940 C   0  0  0  0  0  0  0  0  0  0  0  0
  187.2360  178.5110  140.0510 O   0  0  0  0  0  1  0  0  0  0  0  0
  191.2030  177.2440  139.8410 C   0  0  0  0  0  0  0  0  0  0  0  0
  192.7780  176.4340  137.9340 C   0  0  0  0  0  1  0  0  0  0  0  0
  192.8990  176.6950  139.7260 S   0  0  0  0  0  0  0  0  0  0  0  0
  1  4  1  0  0  0  0
  2  4  1  6  0  0  0
  2  5  1  0  0  0  0
  3  1  2  0  0  0  0
  3 20  1  0  0  0  0
  4 11  2  0  0  0  0
  5 12  1  1  0  0  0
  5 10  1  0  0  0  0
  6 21  1  0  0  0  0
  7 15  1  6  0  0  0
  7 18  1  0  0  0  0
  7  2  1  0  0  0  0
  9  8  1  1  0  0  0
  9 12  1  0  0  0  0
 10 19  1  0  0  0  0
 10 16  1  6  0  0  0
 11 13  1  0  0  0  0
 13 19  1  0  0  0  0
 14 11  1  0  0  0  0
 17 25  1  6  0  0  0
 17 15  1  0  0  0  0
 17  1  1  0  0  0  0
 18 22  1  6  0  0  0
 18  9  1  0  0  0  0
 20 14  2  0  0  0  0
 21  8  1  0  0  0  0
 22  6  1  0  0  0  0
 23 28  1  0  0  0  0
 24 23  1  0  0  0  0
 26 23  2  0  0  0  0
 26 30  1  0  0  0  0
 27 25  1  0  0  0  0
 28 29  1  0  0  0  0
 28 25  2  0  0  0  0
 30 27  2  0  0  0  0
 31 32  1  0  0  0  0
 32 30  1  0  0  0  0
M  END
>  <MODEL>
2

>  <REMARK>
 VINA RESULT:     -10.0      3.093      5.919
  Name = 
  2 active torsions:
  status: ('A' for Active; 'I' for Inactive)
    1  A    between atoms: S_15  and  C_26
    2  A    between atoms: C_16  and  C_27
                            x       y       z     vdW  Elec       q    Type
                         _______ _______ _______ _____ _____    ______ ____

>  <TORSDO>
F 2

$$$$
=
 OpenBabel10262421123D

 32 37  0  0  1  0  0  0  0  0999 V2000
  188.5730  178.0850  140.9090 C   0  0  0  0  0  0  0  0  0  0  0  0
  188.6120  177.4700  143.3980 C   0  0  1  0  0  3  0  0  0  0  0  0
  189.2360  178.2600  139.6860 C   0  0  0  0  0  3  0  0  0  0  0  0
  189.2680  177.5120  142.0130 C   0  0  0  0  0  0  0  0  0  0  0  0
  189.4580  178.0970  144.5340 C   0  0  2  0  0  3  0  0  0  0  0  0
  184.6270  178.8660  146.1940 C   0  0  0  0  0  2  0  0  0  0  0  0
  187.2510  178.1880  143.4400 C   0  0  1  0  0  3  0  0  0  0  0  0
  186.7310  177.9990  147.2800 C   0  0  0  0  0  2  0  0  0  0  0  0
  187.3730  178.3620  145.9350 C   0  0  1  0  0  3  0  0  0  0  0  0
  190.9050  177.6310  144.6240 C   0  0  2  0  0  3  0  0  0  0  0  0
  190.5340  176.9090  141.7680 C   0  0  0  0  0  0  0  0  0  0  0  0
  188.7890  177.7970  145.8780 C   0  0  0  0  0  2  0  0  0  0  0  0
  191.2520  175.9700  142.7050 C   0  0  0  0  0  2  0  0  0  0  0  0
  191.1480  177.0690  140.5220 C   0  0  0  0  0  3  0  0  0  0  0  0
  186.4330  177.8740  142.2070 C   0  0  0  0  0  2  0  0  0  0  0  0
  191.7590  178.4840  143.9210 O   0  0  0  0  0  1  0  0  0  0  0  0
  187.1290  178.5350  141.0260 C   0  0  2  0  0  3  0  0  0  0  0  0
  186.5190  177.8800  144.7490 C   0  0  1  0  0  3  0  0  0  0  0  0
  191.0680  176.1750  144.2070 C   0  0  0  0  0  2  0  0  0  0  0  0
  190.5210  177.7680  139.4980 C   0  0  0  0  0  3  0  0  0  0  0  0
  185.2020  177.8960  147.2200 C   0  0  0  0  0  2  0  0  0  0  0  0
  185.1330  178.5510  144.7800 C   0  0  0  0  0  2  0  0  0  0  0  0
  184.2870  178.5610  138.4970 C   0  0  0  0  0  0  0  0  0  0  0  0
  182.8870  179.0520  138.3610 C   0  0  0  0  0  1  0  0  0  0  0  0
  186.3280  178.3030  139.7720 C   0  0  0  0  0  0  0  0  0  0  0  0
  184.8610  177.8940  137.4610 N   0  0  0  0  0  0  0  0  0  0  0  0
  186.8910  177.6180  138.6870 C   0  0  0  0  0  3  0  0  0  0  0  0
  185.0130  178.7810  139.6780 C   0  0  0  0  0  0  0  0  0  0  0  0
  184.4340  179.4660  140.7430 O   0  0  0  0  0  1  0  0  0  0  0  0
  186.1360  177.4250  137.5290 C   0  0  0  0  0  0  0  0  0  0  0  0
  187.9870  175.6240  137.2020 C   0  0  0  0  0  1  0  0  0  0  0  0
  186.8420  176.5510  136.1410 S   0  0  0  0  0  0  0  0  0  0  0  0
  1 17  1  0  0  0  0
  1  4  1  0  0  0  0
  2  4  1  6  0  0  0
  2  7  1  0  0  0  0
  2  5  1  0  0  0  0
  3  1  2  0  0  0  0
  5 10  1  0  0  0  0
  5 12  1  1  0  0  0
  6 21  1  0  0  0  0
  7 15  1  6  0  0  0
  7 18  1  0  0  0  0
  9 12  1  6  0  0  0
  9  8  1  0  0  0  0
 10 16  1  6  0  0  0
 11  4  2  0  0  0  0
 11 13  1  0  0  0  0
 13 19  1  0  0  0  0
 14 11  1  0  0  0  0
 17 25  1  6  0  0  0
 17 15  1  0  0  0  0
 18 22  1  6  0  0  0
 18  9  1  0  0  0  0
 19 10  1  0  0  0  0
 20  3  1  0  0  0  0
 20 14  2  0  0  0  0
 21  8  1  0  0  0  0
 22  6  1  0  0  0  0
 23 28  1  0  0  0  0
 24 23  1  0  0  0  0
 26 30  1  0  0  0  0
 26 23  2  0  0  0  0
 27 25  1  0  0  0  0
 28 25  2  0  0  0  0
 28 29  1  0  0  0  0
 30 27  2  0  0  0  0
 32 31  1  0  0  0  0
 32 30  1  0  0  0  0
M  END
>  <MODEL>
3

>  <REMARK>
 VINA RESULT:      -9.6      2.121      2.894
  Name = 
  2 active torsions:
  status: ('A' for Active; 'I' for Inactive)
    1  A    between atoms: S_15  and  C_26
    2  A    between atoms: C_16  and  C_27
                            x       y       z     vdW  Elec       q    Type
                         _______ _______ _______ _____ _____    ______ ____

>  <TORSDO>
F 2

$$$$
=
 OpenBabel10262421123D

 32 37  0  0  1  0  0  0  0  0999 V2000
  187.3980  178.4970  142.3700 C   0  0  0  0  0  0  0  0  0  0  0  0
  185.1510  178.2270  143.5740 C   0  0  1  0  0  3  0  0  0  0  0  0
  188.7950  178.6060  142.4070 C   0  0  0  0  0  3  0  0  0  0  0  0
  186.6820  178.1830  143.5610 C   0  0  0  0  0  0  0  0  0  0  0  0
  184.5370  179.1150  144.6850 C   0  0  2  0  0  3  0  0  0  0  0  0
  180.9670  179.3760  140.9610 C   0  0  0  0  0  2  0  0  0  0  0  0
  184.5530  178.7360  142.2500 C   0  0  1  0  0  3  0  0  0  0  0  0
  180.8720  178.9780  143.4500 C   0  0  0  0  0  2  0  0  0  0  0  0
  182.3790  179.2520  143.3800 C   0  0  1  0  0  3  0  0  0  0  0  0
  185.0680  178.8830  146.0940 C   0  0  2  0  0  3  0  0  0  0  0  0
  187.4270  177.7460  144.6940 C   0  0  0  0  0  0  0  0  0  0  0  0
  183.0230  178.8990  144.7180 C   0  0  0  0  0  2  0  0  0  0  0  0
  186.8510  177.0540  145.9040 C   0  0  0  0  0  2  0  0  0  0  0  0
  188.8220  177.8300  144.6810 C   0  0  0  0  0  3  0  0  0  0  0  0
  185.2820  178.1470  141.0630 C   0  0  0  0  0  2  0  0  0  0  0  0
  186.1190  179.7530  146.3920 O   0  0  0  0  0  1  0  0  0  0  0  0
  186.6830  178.7420  141.0550 C   0  0  2  0  0  3  0  0  0  0  0  0
  183.0410  178.4980  142.2130 C   0  0  1  0  0  3  0  0  0  0  0  0
  185.4350  177.4250  146.3380 C   0  0  0  0  0  2  0  0  0  0  0  0
  189.5030  178.2890  143.5600 C   0  0  0  0  0  3  0  0  0  0  0  0
  180.2480  178.6440  142.0890 C   0  0  0  0  0  2  0  0  0  0  0  0
  182.4400  178.9560  140.8710 C   0  0  0  0  0  2  0  0  0  0  0  0
  187.6410  177.9120  137.4680 C   0  0  0  0  0  0  0  0  0  0  0  0
  187.1090  178.0550  136.0840 C   0  0  0  0  0  1  0  0  0  0  0  0
  187.4420  178.2330  139.8590 C   0  0  0  0  0  0  0  0  0  0  0  0
  188.8460  177.3130  137.6580 N   0  0  0  0  0  0  0  0  0  0  0  0
  188.6870  177.6100  140.0210 C   0  0  0  0  0  3  0  0  0  0  0  0
  186.9120  178.3860  138.5690 C   0  0  0  0  0  0  0  0  0  0  0  0
  185.6780  179.0030  138.3850 O   0  0  0  0  0  1  0  0  0  0  0  0
  189.3810  177.1560  138.8990 C   0  0  0  0  0  0  0  0  0  0  0  0
  191.4720  177.5030  140.4100 C   0  0  0  0  0  1  0  0  0  0  0  0
  190.9680  176.3590  139.0940 S   0  0  0  0  0  0  0  0  0  0  0  0
  1  3  2  0  0  0  0
  1  4  1  0  0  0  0
  2  4  1  6  0  0  0
  2  5  1  0  0  0  0
  3 20  1  0  0  0  0
  4 11  2  0  0  0  0
  5 12  1  1  0  0  0
  5 10  1  0  0  0  0
  6 21  1  0  0  0  0
  7 15  1  6  0  0  0
  7  2  1  0  0  0  0
  9  8  1  1  0  0  0
  9 12  1  0  0  0  0
 10 19  1  0  0  0  0
 10 16  1  6  0  0  0
 11 13  1  0  0  0  0
 13 19  1  0  0  0  0
 14 11  1  0  0  0  0
 17 25  1  6  0  0  0
 17 15  1  0  0  0  0
 17  1  1  0  0  0  0
 18 22  1  6  0  0  0
 18  7  1  0  0  0  0
 18  9  1  0  0  0  0
 20 14  2  0  0  0  0
 21  8  1  0  0  0  0
 22  6  1  0  0  0  0
 23 26  2  0  0  0  0
 23 28  1  0  0  0  0
 24 23  1  0  0  0  0
 25 27  1  0  0  0  0
 26 30  1  0  0  0  0
 28 25  2  0  0  0  0
 29 28  1  0  0  0  0
 30 32  1  0  0  0  0
 30 27  2  0  0  0  0
 32 31  1  0  0  0  0
M  END
>  <MODEL>
4

>  <REMARK>
 VINA RESULT:      -9.2      2.842      6.306
  Name = 
  2 active torsions:
  status: ('A' for Active; 'I' for Inactive)
    1  A    between atoms: S_15  and  C_26
    2  A    between atoms: C_16  and  C_27
                            x       y       z     vdW  Elec       q    Type
                         _______ _______ _______ _____ _____    ______ ____

>  <TORSDO>
F 2

$$$$
=
 OpenBabel10262421123D

 32 37  0  0  1  0  0  0  0  0999 V2000
  189.6780  177.7160  141.3220 C   0  0  0  0  0  0  0  0  0  0  0  0
  188.9790  177.3990  143.7680 C   0  0  1  0  0  3  0  0  0  0  0  0
  190.6730  177.7700  140.3360 C   0  0  0  0  0  3  0  0  0  0  0  0
  190.0150  177.3020  142.6430 C   0  0  0  0  0  0  0  0  0  0  0  0
  189.4490  178.1850  145.0170 C   0  0  2  0  0  3  0  0  0  0  0  0
  184.3430  178.9650  145.0760 C   0  0  0  0  0  2  0  0  0  0  0  0
  187.6660  178.0660  143.3200 C   0  0  1  0  0  3  0  0  0  0  0  0
  186.0320  178.3100  146.8310 C   0  0  0  0  0  2  0  0  0  0  0  0
  187.0430  178.5360  145.6990 C   0  0  1  0  0  3  0  0  0  0  0  0
  190.8060  177.7870  145.5850 C   0  0  2  0  0  3  0  0  0  0  0  0
  191.2980  176.7220  142.8570 C   0  0  0  0  0  0  0  0  0  0  0  0
  188.4130  178.0210  146.1310 C   0  0  0  0  0  2  0  0  0  0  0  0
  191.7060  175.9270  144.0720 C   0  0  0  0  0  2  0  0  0  0  0  0
  192.2520  176.7570  141.8370 C   0  0  0  0  0  3  0  0  0  0  0  0
  187.2490  177.5800  141.9500 C   0  0  0  0  0  2  0  0  0  0  0  0
  191.8290  178.5830  145.0650 O   0  0  0  0  0  1  0  0  0  0  0  0
  188.2630  178.1220  140.9530 C   0  0  2  0  0  3  0  0  0  0  0  0
  186.5790  177.8870  144.3840 C   0  0  1  0  0  3  0  0  0  0  0  0
  191.0850  176.2990  145.4160 C   0  0  0  0  0  2  0  0  0  0  0  0
  191.9570  177.3080  140.5960 C   0  0  0  0  0  3  0  0  0  0  0  0
  184.5900  178.1430  146.3370 C   0  0  0  0  0  2  0  0  0  0  0  0
  185.2450  178.5050  143.9240 C   0  0  0  0  0  2  0  0  0  0  0  0
  186.3210  177.7880  137.7000 C   0  0  0  0  0  0  0  0  0  0  0  0
  185.0490  178.2500  137.0790 C   0  0  0  0  0  1  0  0  0  0  0  0
  187.8700  177.7160  139.5580 C   0  0  0  0  0  0  0  0  0  0  0  0
  187.1540  176.9840  136.9870 N   0  0  0  0  0  0  0  0  0  0  0  0
  188.7060  176.8880  138.7980 C   0  0  0  0  0  3  0  0  0  0  0  0
  186.6650  178.1720  139.0050 C   0  0  0  0  0  0  0  0  0  0  0  0
  185.8190  178.9960  139.7420 O   0  0  0  0  0  1  0  0  0  0  0  0
  188.3300  176.5330  137.5020 C   0  0  0  0  0  0  0  0  0  0  0  0
  190.8620  176.4650  136.9010 C   0  0  0  0  0  1  0  0  0  0  0  0
  189.3870  175.4770  136.5240 S   0  0  0  0  0  0  0  0  0  0  0  0
  1  4  1  0  0  0  0
  2  4  1  6  0  0  0
  2  5  1  0  0  0  0
  3 20  1  0  0  0  0
  3  1  2  0  0  0  0
  4 11  2  0  0  0  0
  5 10  1  0  0  0  0
  5 12  1  1  0  0  0
  6 21  1  0  0  0  0
  7 15  1  6  0  0  0
  7  2  1  0  0  0  0
  7 18  1  0  0  0  0
  9 12  1  1  0  0  0
  9  8  1  0  0  0  0
 10 16  1  6  0  0  0
 11 13  1  0  0  0  0
 13 19  1  0  0  0  0
 14 11  1  0  0  0  0
 17 25  1  6  0  0  0
 17  1  1  0  0  0  0
 17 15  1  0  0  0  0
 18 22  1  6  0  0  0
 18  9  1  0  0  0  0
 19 10  1  0  0  0  0
 20 14  2  0  0  0  0
 21  8  1  0  0  0  0
 22  6  1  0  0  0  0
 23 28  1  0  0  0  0
 24 23  1  0  0  0  0
 26 30  1  0  0  0  0
 26 23  2  0  0  0  0
 27 25  1  0  0  0  0
 28 25  2  0  0  0  0
 28 29  1  0  0  0  0
 30 27  2  0  0  0  0
 32 31  1  0  0  0  0
 32 30  1  0  0  0  0
M  END
>  <MODEL>
5

>  <REMARK>
 VINA RESULT:      -8.9      2.649      4.186
  Name = 
  2 active torsions:
  status: ('A' for Active; 'I' for Inactive)
    1  A    between atoms: S_15  and  C_26
    2  A    between atoms: C_16  and  C_27
                            x       y       z     vdW  Elec       q    Type
                         _______ _______ _______ _____ _____    ______ ____

>  <TORSDO>
F 2

$$$$
=
 OpenBabel10262421123D

 32 37  0  0  1  0  0  0  0  0999 V2000
  184.3020  179.0730  142.3710 C   0  0  0  0  0  0  0  0  0  0  0  0
  182.1090  178.4460  141.1980 C   0  0  1  0  0  3  0  0  0  0  0  0
  184.9880  179.5560  143.4930 C   0  0  0  0  0  3  0  0  0  0  0  0
  182.9030  178.8120  142.4570 C   0  0  0  0  0  0  0  0  0  0  0  0
  180.8670  179.3330  140.9350 C   0  0  2  0  0  3  0  0  0  0  0  0
  182.2430  177.9110  136.1630 C   0  0  0  0  0  2  0  0  0  0  0  0
  182.9550  178.5130  139.9130 C   0  0  1  0  0  3  0  0  0  0  0  0
  180.0460  177.9860  137.4000 C   0  0  0  0  0  2  0  0  0  0  0  0
  180.8860  178.6350  138.5080 C   0  0  1  0  0  3  0  0  0  0  0  0
  179.9220  179.5260  142.1140 C   0  0  2  0  0  3  0  0  0  0  0  0
  182.2990  178.8160  143.7460 C   0  0  0  0  0  0  0  0  0  0  0  0
  180.0570  178.7300  139.7850 C   0  0  0  0  0  2  0  0  0  0  0  0
  180.9460  178.2400  144.0790 C   0  0  0  0  0  2  0  0  0  0  0  0
  183.0280  179.2650  144.8510 C   0  0  0  0  0  3  0  0  0  0  0  0
  184.3300  177.9250  140.1360 C   0  0  0  0  0  2  0  0  0  0  0  0
  180.2300  180.6860  142.8290 O   0  0  0  0  0  1  0  0  0  0  0  0
  185.0710  178.8600  141.0810 C   0  0  2  0  0  3  0  0  0  0  0  0
  182.2050  177.8770  138.7400 C   0  0  1  0  0  3  0  0  0  0  0  0
  179.8590  178.2940  143.0080 C   0  0  0  0  0  2  0  0  0  0  0  0
  184.3520  179.6670  144.7230 C   0  0  0  0  0  3  0  0  0  0  0  0
  180.8860  177.2430  136.3530 C   0  0  0  0  0  2  0  0  0  0  0  0
  183.0630  177.8910  137.4600 C   0  0  0  0  0  2  0  0  0  0  0  0
  188.6850  177.8480  140.4590 C   0  0  0  0  0  0  0  0  0  0  0  0
  189.6790  177.7930  139.3500 C   0  0  0  0  0  1  0  0  0  0  0  0
  186.4720  178.3530  141.2990 C   0  0  0  0  0  0  0  0  0  0  0  0
  189.0530  177.4390  141.7020 N   0  0  0  0  0  0  0  0  0  0  0  0
  186.8820  177.9230  142.5680 C   0  0  0  0  0  3  0  0  0  0  0  0
  187.3820  178.3160  140.2320 C   0  0  0  0  0  0  0  0  0  0  0  0
  186.9970  178.7400  138.9630 O   0  0  0  0  0  1  0  0  0  0  0  0
  188.1890  177.4690  142.7520 C   0  0  0  0  0  0  0  0  0  0  0  0
  190.0290  178.1740  144.4520 C   0  0  0  0  0  1  0  0  0  0  0  0
  188.7220  176.9170  144.3640 S   0  0  0  0  0  0  0  0  0  0  0  0
  1  4  2  0  0  0  0
  1  3  1  0  0  0  0
  2  4  1  1  0  0  0
  3 20  2  0  0  0  0
  4 11  1  0  0  0  0
  5 12  1  6  0  0  0
  5  2  1  0  0  0  0
  5 10  1  0  0  0  0
  6 21  1  0  0  0  0
  6 22  1  0  0  0  0
  7 15  1  1  0  0  0
  7  2  1  0  0  0  0
  9  8  1  6  0  0  0
  9 18  1  0  0  0  0
  9 12  1  0  0  0  0
 10 16  1  1  0  0  0
 10 19  1  0  0  0  0
 11 13  1  0  0  0  0
 11 14  2  0  0  0  0
 15 17  1  0  0  0  0
 17 25  1  1  0  0  0
 17  1  1  0  0  0  0
 18 22  1  6  0  0  0
 18  7  1  0  0  0  0
 19 13  1  0  0  0  0
 20 14  1  0  0  0  0
 21  8  1  0  0  0  0
 23 26  1  0  0  0  0
 24 23  1  0  0  0  0
 25 27  2  0  0  0  0
 26 30  2  0  0  0  0
 27 30  1  0  0  0  0
 28 23  2  0  0  0  0
 28 25  1  0  0  0  0
 29 28  1  0  0  0  0
 30 32  1  0  0  0  0
 32 31  1  0  0  0  0
M  END
>  <MODEL>
6

>  <REMARK>
 VINA RESULT:      -8.8      2.994      8.616
  Name = 
  2 active torsions:
  status: ('A' for Active; 'I' for Inactive)
    1  A    between atoms: S_15  and  C_26
    2  A    between atoms: C_16  and  C_27
                            x       y       z     vdW  Elec       q    Type
                         _______ _______ _______ _____ _____    ______ ____

>  <TORSDO>
F 2

$$$$
=
 OpenBabel10262421123D

 32 37  0  0  1  0  0  0  0  0999 V2000
  184.9270  178.7540  140.3530 C   0  0  0  0  0  0  0  0  0  0  0  0
  187.1540  177.8410  141.2370 C   0  0  1  0  0  3  0  0  0  0  0  0
  184.1420  179.2380  139.2970 C   0  0  0  0  0  3  0  0  0  0  0  0
  186.2190  178.2150  140.0830 C   0  0  0  0  0  0  0  0  0  0  0  0
  188.5590  178.4890  141.1690 C   0  0  2  0  0  3  0  0  0  0  0  0
  187.8560  177.8990  146.2530 C   0  0  0  0  0  2  0  0  0  0  0  0
  186.5840  178.2140  142.6180 C   0  0  1  0  0  3  0  0  0  0  0  0
  189.7660  177.4030  144.6830 C   0  0  0  0  0  2  0  0  0  0  0  0
  188.8640  178.0800  143.6430 C   0  0  1  0  0  3  0  0  0  0  0  0
  189.2900  178.3610  139.8390 C   0  0  2  0  0  3  0  0  0  0  0  0
  186.5670  177.9580  138.7260 C   0  0  0  0  0  0  0  0  0  0  0  0
  189.4490  177.8680  142.2490 C   0  0  0  0  0  2  0  0  0  0  0  0
  187.7140  177.0940  138.2670 C   0  0  0  0  0  2  0  0  0  0  0  0
  185.7380  178.4190  137.6990 C   0  0  0  0  0  3  0  0  0  0  0  0
  185.1100  177.8870  142.7030 C   0  0  0  0  0  2  0  0  0  0  0  0
  189.0640  179.4730  139.0250 O   0  0  0  0  0  1  0  0  0  0  0  0
  184.3830  178.8400  141.7660 C   0  0  2  0  0  3  0  0  0  0  0  0
  187.4130  177.5750  143.7350 C   0  0  1  0  0  3  0  0  0  0  0  0
  188.9710  177.0500  139.1320 C   0  0  0  0  0  2  0  0  0  0  0  0
  184.5510  179.0850  137.9780 C   0  0  0  0  0  3  0  0  0  0  0  0
  189.0170  176.9600  145.9460 C   0  0  0  0  0  2  0  0  0  0  0  0
  186.8210  177.8990  145.1200 C   0  0  0  0  0  2  0  0  0  0  0  0
  180.8010  178.7600  143.0450 C   0  0  0  0  0  0  0  0  0  0  0  0
  180.0100  179.1560  144.2440 C   0  0  0  0  0  1  0  0  0  0  0  0
  182.8990  178.5990  141.8490 C   0  0  0  0  0  0  0  0  0  0  0  0
  180.1680  178.1720  141.9960 N   0  0  0  0  0  0  0  0  0  0  0  0
  182.2170  177.9950  140.7840 C   0  0  0  0  0  3  0  0  0  0  0  0
  182.1850  178.9860  142.9930 C   0  0  0  0  0  0  0  0  0  0  0  0
  182.8420  179.5900  144.0620 O   0  0  0  0  0  1  0  0  0  0  0  0
  180.8400  177.7920  140.8760 C   0  0  0  0  0  0  0  0  0  0  0  0
  181.4610  176.9010  138.5100 C   0  0  0  0  0  1  0  0  0  0  0  0
  179.9610  177.0210  139.5260 S   0  0  0  0  0  0  0  0  0  0  0  0
  1 17  1  0  0  0  0
  2  4  1  6  0  0  0
  2  7  1  0  0  0  0
  3  1  2  0  0  0  0
  4  1  1  0  0  0  0
  5  2  1  0  0  0  0
  5 12  1  1  0  0  0
  7 15  1  6  0  0  0
  7 18  1  0  0  0  0
  8 21  1  0  0  0  0
  9 12  1  6  0  0  0
  9 18  1  0  0  0  0
  9  8  1  0  0  0  0
 10 16  1  6  0  0  0
 10  5  1  0  0  0  0
 11  4  2  0  0  0  0
 13 11  1  0  0  0  0
 13 19  1  0  0  0  0
 14 20  2  0  0  0  0
 14 11  1  0  0  0  0
 17 25  1  6  0  0  0
 17 15  1  0  0  0  0
 18 22  1  1  0  0  0
 19 10  1  0  0  0  0
 20  3  1  0  0  0  0
 21  6  1  0  0  0  0
 22  6  1  0  0  0  0
 23 24  1  0  0  0  0
 25 28  2  0  0  0  0
 26 23  2  0  0  0  0
 27 30  2  0  0  0  0
 27 25  1  0  0  0  0
 28 23  1  0  0  0  0
 28 29  1  0  0  0  0
 30 26  1  0  0  0  0
 31 32  1  0  0  0  0
 32 30  1  0  0  0  0
M  END
>  <MODEL>
7

>  <REMARK>
 VINA RESULT:      -8.6      1.648      2.923
  Name = 
  2 active torsions:
  status: ('A' for Active; 'I' for Inactive)
    1  A    between atoms: S_15  and  C_26
    2  A    between atoms: C_16  and  C_27
                            x       y       z     vdW  Elec       q    Type
                         _______ _______ _______ _____ _____    ______ ____

>  <TORSDO>
F 2

$$$$
=
 OpenBabel10262421123D

 32 37  0  0  1  0  0  0  0  0999 V2000
  187.8960  178.3770  140.9310 C   0  0  0  0  0  0  0  0  0  0  0  0
  188.4940  177.3330  138.6670 C   0  0  1  0  0  3  0  0  0  0  0  0
  187.0220  179.1180  141.7380 C   0  0  0  0  0  3  0  0  0  0  0  0
  187.4920  177.9940  139.6200 C   0  0  0  0  0  0  0  0  0  0  0  0
  188.6350  178.0280  137.2900 C   0  0  2  0  0  3  0  0  0  0  0  0
  193.3110  175.9370  137.9580 C   0  0  0  0  0  2  0  0  0  0  0  0
  189.9170  177.2590  139.2500 C   0  0  1  0  0  3  0  0  0  0  0  0
  191.6840  176.0030  136.0320 C   0  0  0  0  0  2  0  0  0  0  0  0
  190.8810  176.9190  136.9630 C   0  0  1  0  0  3  0  0  0  0  0  0
  187.3330  178.3270  136.5570 C   0  0  2  0  0  3  0  0  0  0  0  0
  186.1230  178.1620  139.2640 C   0  0  0  0  0  0  0  0  0  0  0  0
  189.4920  177.1520  136.3740 C   0  0  0  0  0  2  0  0  0  0  0  0
  185.4410  177.5190  138.0830 C   0  0  0  0  0  2  0  0  0  0  0  0
  185.2700  178.8720  140.1140 C   0  0  0  0  0  3  0  0  0  0  0  0
  189.8880  176.8630  140.7090 C   0  0  0  0  0  2  0  0  0  0  0  0
  186.8810  179.6200  136.8310 O   0  0  0  0  0  1  0  0  0  0  0  0
  189.2660  178.0200  141.4760 C   0  0  2  0  0  3  0  0  0  0  0  0
  190.8050  176.3520  138.3920 C   0  0  1  0  0  3  0  0  0  0  0  0
  186.2680  177.2720  136.8230 C   0  0  0  0  0  2  0  0  0  0  0  0
  185.7210  179.3780  141.3270 C   0  0  0  0  0  3  0  0  0  0  0  0
  192.7520  175.1770  136.7600 C   0  0  0  0  0  2  0  0  0  0  0  0
  192.2170  176.2290  138.9940 C   0  0  0  0  0  2  0  0  0  0  0  0
  190.4280  177.1010  144.9800 C   0  0  0  0  0  0  0  0  0  0  0  0
  191.6770  176.7520  145.7120 C   0  0  0  0  0  1  0  0  0  0  0  0
  189.2590  177.7060  142.9480 C   0  0  0  0  0  0  0  0  0  0  0  0
  189.2510  177.1460  145.6590 N   0  0  0  0  0  0  0  0  0  0  0  0
  188.0630  177.7430  143.6770 C   0  0  0  0  0  3  0  0  0  0  0  0
  190.4550  177.3820  143.6060 C   0  0  0  0  0  0  0  0  0  0  0  0
  191.6560  177.3410  142.9020 O   0  0  0  0  0  1  0  0  0  0  0  0
  188.0800  177.4610  145.0430 C   0  0  0  0  0  0  0  0  0  0  0  0
  187.4310  177.8830  147.5280 C   0  0  0  0  0  1  0  0  0  0  0  0
  186.5600  177.5030  145.9810 S   0  0  0  0  0  0  0  0  0  0  0  0
  1 17  1  0  0  0  0
  1  3  1  0  0  0  0
  2  7  1  0  0  0  0
  2  4  1  1  0  0  0
  4  1  2  0  0  0  0
  5 12  1  6  0  0  0
  5  2  1  0  0  0  0
  6 22  1  0  0  0  0
  7 15  1  1  0  0  0
  8 21  1  0  0  0  0
  9  8  1  6  0  0  0
  9 18  1  0  0  0  0
 10 19  1  0  0  0  0
 10 16  1  1  0  0  0
 10  5  1  0  0  0  0
 11  4  1  0  0  0  0
 11 14  2  0  0  0  0
 12  9  1  0  0  0  0
 13 11  1  0  0  0  0
 14 20  1  0  0  0  0
 15 17  1  0  0  0  0
 17 25  1  1  0  0  0
 18 22  1  1  0  0  0
 18  7  1  0  0  0  0
 19 13  1  0  0  0  0
 20  3  2  0  0  0  0
 21  6  1  0  0  0  0
 23 26  1  0  0  0  0
 23 24  1  0  0  0  0
 25 28  1  0  0  0  0
 25 27  2  0  0  0  0
 27 30  1  0  0  0  0
 28 23  2  0  0  0  0
 29 28  1  0  0  0  0
 30 26  2  0  0  0  0
 30 32  1  0  0  0  0
 32 31  1  0  0  0  0
M  END
>  <MODEL>
8

>  <REMARK>
 VINA RESULT:      -8.3      3.364      7.755
  Name = 
  2 active torsions:
  status: ('A' for Active; 'I' for Inactive)
    1  A    between atoms: S_15  and  C_26
    2  A    between atoms: C_16  and  C_27
                            x       y       z     vdW  Elec       q    Type
                         _______ _______ _______ _____ _____    ______ ____

>  <TORSDO>
F 2

$$$$
=
 OpenBabel10262421123D

 32 37  0  0  1  0  0  0  0  0999 V2000
  186.9280  177.7430  142.4460 C   0  0  0  0  0  0  0  0  0  0  0  0
  187.5890  178.1420  144.8910 C   0  0  1  0  0  3  0  0  0  0  0  0
  185.9660  177.7510  141.4270 C   0  0  0  0  0  3  0  0  0  0  0  0
  186.6120  178.2960  143.7210 C   0  0  0  0  0  0  0  0  0  0  0  0
  186.9750  177.5240  146.1710 C   0  0  2  0  0  3  0  0  0  0  0  0
  191.9180  176.0570  146.4930 C   0  0  0  0  0  2  0  0  0  0  0  0
  188.8090  177.2700  144.5440 C   0  0  1  0  0  3  0  0  0  0  0  0
  190.2850  177.0680  148.1270 C   0  0  0  0  0  2  0  0  0  0  0  0
  189.2870  176.8980  146.9740 C   0  0  1  0  0  3  0  0  0  0  0  0
  185.6710  178.1460  146.6540 C   0  0  2  0  0  3  0  0  0  0  0  0
  185.4170  179.0610  143.8410 C   0  0  0  0  0  0  0  0  0  0  0  0
  187.9900  177.6270  147.3120 C   0  0  0  0  0  2  0  0  0  0  0  0
  185.0870  179.9930  144.9800 C   0  0  0  0  0  2  0  0  0  0  0  0
  184.4980  179.0810  142.7880 C   0  0  0  0  0  3  0  0  0  0  0  0
  189.3310  177.5900  143.1610 C   0  0  0  0  0  2  0  0  0  0  0  0
  184.5630  177.4610  146.1500 O   0  0  0  0  0  1  0  0  0  0  0  0
  188.2820  177.1190  142.1650 C   0  0  2  0  0  3  0  0  0  0  0  0
  189.8780  177.3770  145.6360 C   0  0  1  0  0  3  0  0  0  0  0  0
  185.6080  179.6410  146.3710 C   0  0  0  0  0  2  0  0  0  0  0  0
  184.7510  178.4030  141.6010 C   0  0  0  0  0  3  0  0  0  0  0  0
  191.7510  176.9970  147.6820 C   0  0  0  0  0  2  0  0  0  0  0  0
  191.1250  176.5490  145.2750 C   0  0  0  0  0  2  0  0  0  0  0  0
  190.4690  177.1350  139.0520 C   0  0  0  0  0  0  0  0  0  0  0  0
  191.8080  176.6650  138.5970 C   0  0  0  0  0  1  0  0  0  0  0  0
  188.7710  177.3620  140.7620 C   0  0  0  0  0  0  0  0  0  0  0  0
  189.6630  177.7930  138.1770 N   0  0  0  0  0  0  0  0  0  0  0  0
  187.9650  178.0380  139.8360 C   0  0  0  0  0  3  0  0  0  0  0  0
  190.0370  176.9050  140.3670 C   0  0  0  0  0  0  0  0  0  0  0  0
  190.8540  176.2300  141.2700 O   0  0  0  0  0  1  0  0  0  0  0  0
  188.4310  178.2420  138.5370 C   0  0  0  0  0  0  0  0  0  0  0  0
  185.9800  178.0410  137.6840 C   0  0  0  0  0  1  0  0  0  0  0  0
  187.4130  179.1040  137.3500 S   0  0  0  0  0  0  0  0  0  0  0  0
  1  4  1  0  0  0  0
  2  4  1  6  0  0  0
  2  5  1  0  0  0  0
  3 20  1  0  0  0  0
  3  1  2  0  0  0  0
  4 11  2  0  0  0  0
  5 10  1  0  0  0  0
  5 12  1  1  0  0  0
  6 21  1  0  0  0  0
  7 15  1  6  0  0  0
  7  2  1  0  0  0  0
  7 18  1  0  0  0  0
  9 12  1  1  0  0  0
  9  8  1  0  0  0  0
 10 16  1  6  0  0  0
 11 13  1  0  0  0  0
 13 19  1  0  0  0  0
 14 11  1  0  0  0  0
 17 25  1  6  0  0  0
 17  1  1  0  0  0  0
 17 15  1  0  0  0  0
 18 22  1  6  0  0  0
 18  9  1  0  0  0  0
 19 10  1  0  0  0  0
 20 14  2  0  0  0  0
 21  8  1  0  0  0  0
 22  6  1  0  0  0  0
 23 28  1  0  0  0  0
 24 23  1  0  0  0  0
 26 30  1  0  0  0  0
 26 23  2  0  0  0  0
 27 25  1  0  0  0  0
 28 25  2  0  0  0  0
 28 29  1  0  0  0  0
 30 27  2  0  0  0  0
 32 31  1  0  0  0  0
 32 30  1  0  0  0  0
M  END
>  <MODEL>
9

>  <REMARK>
 VINA RESULT:      -8.1      2.349      5.420
  Name = 
  2 active torsions:
  status: ('A' for Active; 'I' for Inactive)
    1  A    between atoms: S_15  and  C_26
    2  A    between atoms: C_16  and  C_27
                            x       y       z     vdW  Elec       q    Type
                         _______ _______ _______ _____ _____    ______ ____

>  <TORSDO>
F 2

$$$$
