=
 OpenBabel10262419223D

 31 35  0  0  1  0  0  0  0  0999 V2000
  184.4330  178.8550  144.3480 C   0  0  0  0  0  0  0  0  0  0  0  0
  187.9780  177.8180  143.5950 C   0  0  0  0  0  0  0  0  0  0  0  0
  188.5810  177.3910  144.8050 C   0  0  0  0  0  0  0  0  0  0  0  0
  187.8310  177.5610  147.1550 C   0  0  0  0  0  3  0  0  0  0  0  0
  186.4700  177.8020  143.3900 C   0  0  1  0  0  3  0  0  0  0  0  0
  183.7750  178.9040  142.9850 C   0  0  0  0  0  2  0  0  0  0  0  0
  187.7530  176.7740  145.8900 C   0  0  0  0  0  2  0  0  0  0  0  0
  188.2240  178.5180  141.1570 C   0  0  1  0  0  3  0  0  0  0  0  0
  183.7400  179.3500  145.4440 O   0  0  0  0  0  1  0  0  0  0  0  0
  190.7550  177.7970  143.8320 C   0  0  0  0  0  3  0  0  0  0  0  0
  188.9590  177.7060  147.8450 C   0  0  0  0  0  3  0  0  0  0  0  0
  186.8730  177.9790  140.9950 N   0  0  0  0  0  2  0  0  0  0  0  0
  188.8170  178.1240  142.4970 C   0  0  0  0  0  0  0  0  0  0  0  0
  185.6840  178.4080  144.5210 C   0  0  0  0  0  3  0  0  0  0  0  0
  190.2770  177.1950  147.4250 C   0  0  0  0  0  3  0  0  0  0  0  0
  186.0720  178.4980  142.0910 C   0  0  1  0  0  3  0  0  0  0  0  0
  184.5910  178.2440  141.8640 C   0  0  0  0  0  2  0  0  0  0  0  0
  190.1670  178.1310  142.6580 N   0  0  0  0  0  0  0  0  0  0  0  0
  189.9860  177.4250  144.9320 C   0  0  0  0  0  0  0  0  0  0  0  0
  190.7160  177.0680  146.1670 C   0  0  0  0  0  3  0  0  0  0  0  0
  189.1010  178.0460  140.0030 C   0  0  0  0  0  2  0  0  0  0  0  0
  189.0790  179.0410  137.7400 C   0  0  0  0  0  1  0  0  0  0  0  0
  188.3490  178.1060  138.6840 C   0  0  1  0  0  3  0  0  0  0  0  0
  184.7970  176.5470  136.8960 C   0  0  0  0  0  0  0  0  0  0  0  0
  188.2710  176.7770  138.0950 N   0  0  0  0  0  2  0  0  0  0  0  0
  185.9230  174.4910  136.3450 C   0  0  0  0  0  3  0  0  0  0  0  0
  183.5750  177.3930  136.8870 C   0  0  0  0  0  1  0  0  0  0  0  0
  185.9410  177.0130  137.4620 N   0  0  0  0  0  0  0  0  0  0  0  0
  187.0890  174.9880  136.9300 C   0  0  0  0  0  3  0  0  0  0  0  0
  187.0820  176.2680  137.4900 C   0  0  0  0  0  0  0  0  0  0  0  0
  184.7670  175.2720  136.3250 C   0  0  0  0  0  3  0  0  0  0  0  0
  1 14  2  0  0  0  0
  1  9  1  0  0  0  0
  2  3  1  0  0  0  0
  3 19  2  0  0  0  0
  3  7  1  0  0  0  0
  4 11  2  0  0  0  0
  5  2  1  0  0  0  0
  5 14  1  1  0  0  0
  6  1  1  0  0  0  0
  7  4  1  0  0  0  0
  8 21  1  6  0  0  0
  8 13  1  0  0  0  0
 10 19  1  0  0  0  0
 12  8  1  0  0  0  0
 12 16  1  0  0  0  0
 13 18  1  0  0  0  0
 13  2  2  0  0  0  0
 15 11  1  0  0  0  0
 16 17  1  6  0  0  0
 16  5  1  0  0  0  0
 17  6  1  0  0  0  0
 18 10  2  0  0  0  0
 19 20  1  0  0  0  0
 20 15  2  0  0  0  0
 23 22  1  6  0  0  0
 23 21  1  0  0  0  0
 24 28  1  0  0  0  0
 25 23  1  0  0  0  0
 26 29  2  0  0  0  0
 27 24  1  0  0  0  0
 28 30  2  0  0  0  0
 29 30  1  0  0  0  0
 30 25  1  0  0  0  0
 31 26  1  0  0  0  0
 31 24  2  0  0  0  0
M  END
>  <MODEL>
1

>  <REMARK>
 VINA RESULT:     -10.1      0.000      0.000
  Name = 
  3 active torsions:
  status: ('A' for Active; 'I' for Inactive)
    1  A    between atoms: N_3  and  C_9
    2  A    between atoms: C_9  and  C_23
    3  A    between atoms: C_15  and  C_23
                            x       y       z     vdW  Elec       q    Type
                         _______ _______ _______ _____ _____    ______ ____

>  <TORSDO>
F 3

$$$$
=
 OpenBabel10262419223D

 31 35  0  0  1  0  0  0  0  0999 V2000
  190.0280  176.9580  140.6060 C   0  0  0  0  0  0  0  0  0  0  0  0
  188.3430  177.8420  143.8600 C   0  0  0  0  0  0  0  0  0  0  0  0
  189.2950  177.7120  144.9020 C   0  0  0  0  0  0  0  0  0  0  0  0
  191.5660  176.7350  144.9290 C   0  0  0  0  0  3  0  0  0  0  0  0
  188.7490  178.0870  142.4130 C   0  0  1  0  0  3  0  0  0  0  0  0
  189.0850  177.5000  139.5530 C   0  0  0  0  0  2  0  0  0  0  0  0
  190.7500  177.9490  144.6350 C   0  0  0  0  0  2  0  0  0  0  0  0
  185.9130  178.1050  143.1380 C   0  0  1  0  0  3  0  0  0  0  0  0
  191.0880  176.1560  140.2060 O   0  0  0  0  0  1  0  0  0  0  0  0
  187.4870  177.4910  146.4890 C   0  0  0  0  0  3  0  0  0  0  0  0
  191.6850  176.2250  146.1520 C   0  0  0  0  0  3  0  0  0  0  0  0
  186.4630  178.7980  141.9720 N   0  0  0  0  0  2  0  0  0  0  0  0
  186.9710  177.8960  144.2050 C   0  0  0  0  0  0  0  0  0  0  0  0
  189.8400  177.1770  141.9140 C   0  0  0  0  0  3  0  0  0  0  0  0
  190.9760  176.7220  147.3460 C   0  0  0  0  0  3  0  0  0  0  0  0
  187.5550  177.9830  141.4680 C   0  0  1  0  0  3  0  0  0  0  0  0
  188.0090  178.4520  140.0960 C   0  0  0  0  0  2  0  0  0  0  0  0
  186.5890  177.6920  145.4940 N   0  0  0  0  0  0  0  0  0  0  0  0
  188.8540  177.4910  146.2240 C   0  0  0  0  0  0  0  0  0  0  0  0
  189.7570  177.2750  147.3740 C   0  0  0  0  0  3  0  0  0  0  0  0
  184.7250  178.8900  143.6830 C   0  0  0  0  0  2  0  0  0  0  0  0
  182.2790  178.6580  143.9570 C   0  0  0  0  0  1  0  0  0  0  0  0
  183.4350  178.4790  142.9920 C   0  0  1  0  0  3  0  0  0  0  0  0
  182.7870  176.8530  139.0960 C   0  0  0  0  0  0  0  0  0  0  0  0
  183.2190  179.3030  141.8110 N   0  0  0  0  0  2  0  0  0  0  0  0
  182.5630  179.0620  138.1620 C   0  0  0  0  0  3  0  0  0  0  0  0
  182.7970  175.3760  138.9320 C   0  0  0  0  0  1  0  0  0  0  0  0
  182.9960  177.4010  140.3230 N   0  0  0  0  0  0  0  0  0  0  0  0
  182.7770  179.6050  139.4310 C   0  0  0  0  0  3  0  0  0  0  0  0
  182.9940  178.7510  140.5140 C   0  0  0  0  0  0  0  0  0  0  0  0
  182.5670  177.6770  137.9900 C   0  0  0  0  0  3  0  0  0  0  0  0
  1 14  2  0  0  0  0
  2 13  2  0  0  0  0
  2  3  1  0  0  0  0
  3 19  2  0  0  0  0
  4 11  2  0  0  0  0
  5 14  1  6  0  0  0
  5  2  1  0  0  0  0
  6 17  1  0  0  0  0
  6  1  1  0  0  0  0
  7  3  1  0  0  0  0
  7  4  1  0  0  0  0
  8 21  1  1  0  0  0
  8 13  1  0  0  0  0
  9  1  1  0  0  0  0
 11 15  1  0  0  0  0
 12  8  1  0  0  0  0
 13 18  1  0  0  0  0
 15 20  2  0  0  0  0
 16 17  1  6  0  0  0
 16 12  1  0  0  0  0
 16  5  1  0  0  0  0
 18 10  2  0  0  0  0
 19 10  1  0  0  0  0
 19 20  1  0  0  0  0
 23 21  1  0  0  0  0
 23 22  1  1  0  0  0
 24 28  1  0  0  0  0
 25 23  1  0  0  0  0
 26 29  2  0  0  0  0
 27 24  1  0  0  0  0
 28 30  2  0  0  0  0
 29 30  1  0  0  0  0
 30 25  1  0  0  0  0
 31 26  1  0  0  0  0
 31 24  2  0  0  0  0
M  END
>  <MODEL>
2

>  <REMARK>
 VINA RESULT:     -10.0      2.749      4.780
  Name = 
  3 active torsions:
  status: ('A' for Active; 'I' for Inactive)
    1  A    between atoms: N_3  and  C_9
    2  A    between atoms: C_9  and  C_23
    3  A    between atoms: C_15  and  C_23
                            x       y       z     vdW  Elec       q    Type
                         _______ _______ _______ _____ _____    ______ ____

>  <TORSDO>
F 3

$$$$
=
 OpenBabel10262419223D

 31 35  0  0  1  0  0  0  0  0999 V2000
  185.1740  178.8330  145.8380 C   0  0  0  0  0  0  0  0  0  0  0  0
  186.8100  178.0480  142.5340 C   0  0  0  0  0  0  0  0  0  0  0  0
  188.0720  177.4580  142.7930 C   0  0  0  0  0  0  0  0  0  0  0  0
  189.3730  177.2330  144.8840 C   0  0  0  0  0  3  0  0  0  0  0  0
  185.6730  178.0130  143.5460 C   0  0  1  0  0  3  0  0  0  0  0  0
  183.7230  179.0710  145.4740 C   0  0  0  0  0  2  0  0  0  0  0  0
  188.2920  176.6510  144.0360 C   0  0  0  0  0  2  0  0  0  0  0  0
  185.1990  179.1280  140.8800 C   0  0  1  0  0  3  0  0  0  0  0  0
  185.5980  179.1260  147.1270 O   0  0  0  0  0  1  0  0  0  0  0  0
  188.7910  178.0850  140.5740 C   0  0  0  0  0  3  0  0  0  0  0  0
  190.6400  177.3060  144.4860 C   0  0  0  0  0  3  0  0  0  0  0  0
  184.1460  178.5750  141.7340 N   0  0  0  0  0  2  0  0  0  0  0  0
  186.5560  178.5500  141.2340 C   0  0  0  0  0  0  0  0  0  0  0  0
  186.0740  178.4070  144.9420 C   0  0  0  0  0  3  0  0  0  0  0  0
  191.1310  176.9130  143.1530 C   0  0  0  0  0  3  0  0  0  0  0  0
  184.5030  178.8890  143.1070 C   0  0  1  0  0  3  0  0  0  0  0  0
  183.3450  178.6230  144.0550 C   0  0  0  0  0  2  0  0  0  0  0  0
  187.5550  178.5780  140.3130 N   0  0  0  0  0  0  0  0  0  0  0  0
  189.0840  177.5200  141.8120 C   0  0  0  0  0  0  0  0  0  0  0  0
  190.4540  177.0000  142.0000 C   0  0  0  0  0  3  0  0  0  0  0  0
  184.8530  178.8730  139.4180 C   0  0  0  0  0  2  0  0  0  0  0  0
  182.6450  179.7320  138.7130 C   0  0  0  0  0  1  0  0  0  0  0  0
  183.3830  178.5240  139.2560 C   0  0  1  0  0  3  0  0  0  0  0  0
  180.3560  175.5390  139.6740 C   0  0  0  0  0  0  0  0  0  0  0  0
  183.2350  177.4050  138.3360 N   0  0  0  0  0  2  0  0  0  0  0  0
  181.1290  174.4140  137.6900 C   0  0  0  0  0  3  0  0  0  0  0  0
  179.4160  175.6360  140.8220 C   0  0  0  0  0  1  0  0  0  0  0  0
  181.3330  176.4710  139.5170 N   0  0  0  0  0  0  0  0  0  0  0  0
  182.1250  175.3820  137.5450 C   0  0  0  0  0  3  0  0  0  0  0  0
  182.2140  176.4180  138.4780 C   0  0  0  0  0  0  0  0  0  0  0  0
  180.2360  174.4900  138.7600 C   0  0  0  0  0  3  0  0  0  0  0  0
  1  9  1  0  0  0  0
  2  3  1  0  0  0  0
  2  5  1  0  0  0  0
  3  7  1  0  0  0  0
  5 14  1  1  0  0  0
  6  1  1  0  0  0  0
  7  4  1  0  0  0  0
  8 21  1  6  0  0  0
  8 13  1  0  0  0  0
  8 12  1  0  0  0  0
 10 19  1  0  0  0  0
 11  4  2  0  0  0  0
 12 16  1  0  0  0  0
 13  2  2  0  0  0  0
 14  1  2  0  0  0  0
 15 11  1  0  0  0  0
 16  5  1  0  0  0  0
 16 17  1  1  0  0  0
 17  6  1  0  0  0  0
 18 10  2  0  0  0  0
 18 13  1  0  0  0  0
 19 20  1  0  0  0  0
 19  3  2  0  0  0  0
 20 15  2  0  0  0  0
 23 22  1  6  0  0  0
 23 21  1  0  0  0  0
 24 27  1  0  0  0  0
 25 30  1  0  0  0  0
 25 23  1  0  0  0  0
 26 31  1  0  0  0  0
 28 24  1  0  0  0  0
 29 26  2  0  0  0  0
 29 30  1  0  0  0  0
 30 28  2  0  0  0  0
 31 24  2  0  0  0  0
M  END
>  <MODEL>
3

>  <REMARK>
 VINA RESULT:     -10.0      2.541      3.863
  Name = 
  3 active torsions:
  status: ('A' for Active; 'I' for Inactive)
    1  A    between atoms: N_3  and  C_9
    2  A    between atoms: C_9  and  C_23
    3  A    between atoms: C_15  and  C_23
                            x       y       z     vdW  Elec       q    Type
                         _______ _______ _______ _____ _____    ______ ____

>  <TORSDO>
F 3

$$$$
=
 OpenBabel10262419223D

 31 35  0  0  1  0  0  0  0  0999 V2000
  184.4410  178.8360  144.4620 C   0  0  0  0  0  0  0  0  0  0  0  0
  187.9860  177.8090  143.6930 C   0  0  0  0  0  0  0  0  0  0  0  0
  188.5960  177.3850  144.8990 C   0  0  0  0  0  0  0  0  0  0  0  0
  187.8560  177.5520  147.2530 C   0  0  0  0  0  3  0  0  0  0  0  0
  186.4770  177.7890  143.4940 C   0  0  1  0  0  3  0  0  0  0  0  0
  183.7770  178.8830  143.1020 C   0  0  0  0  0  2  0  0  0  0  0  0
  187.7740  176.7650  145.9880 C   0  0  0  0  0  2  0  0  0  0  0  0
  188.2190  178.5100  141.2540 C   0  0  1  0  0  3  0  0  0  0  0  0
  183.7520  179.3280  145.5610 O   0  0  0  0  0  1  0  0  0  0  0  0
  190.7640  177.7970  143.9170 C   0  0  0  0  0  3  0  0  0  0  0  0
  188.9870  177.7000  147.9380 C   0  0  0  0  0  3  0  0  0  0  0  0
  186.8680  177.9670  141.0970 N   0  0  0  0  0  2  0  0  0  0  0  0
  188.8190  178.1180  142.5900 C   0  0  0  0  0  0  0  0  0  0  0  0
  185.6940  178.3930  144.6290 C   0  0  0  0  0  3  0  0  0  0  0  0
  190.3040  177.1930  147.5120 C   0  0  0  0  0  3  0  0  0  0  0  0
  186.0710  178.4840  142.1970 C   0  0  1  0  0  3  0  0  0  0  0  0
  184.5900  178.2260  141.9770 C   0  0  0  0  0  2  0  0  0  0  0  0
  190.1690  178.1290  142.7450 N   0  0  0  0  0  0  0  0  0  0  0  0
  190.0010  177.4230  145.0200 C   0  0  0  0  0  0  0  0  0  0  0  0
  190.7380  177.0680  146.2510 C   0  0  0  0  0  3  0  0  0  0  0  0
  189.0920  178.0410  140.0950 C   0  0  0  0  0  2  0  0  0  0  0  0
  189.0120  179.0620  137.8450 C   0  0  0  0  0  1  0  0  0  0  0  0
  188.3280  178.0850  138.7820 C   0  0  1  0  0  3  0  0  0  0  0  0
  191.8630  175.8530  137.9050 C   0  0  0  0  0  0  0  0  0  0  0  0
  188.3040  176.7610  138.1760 N   0  0  0  0  0  2  0  0  0  0  0  0
  190.5490  174.0240  137.0500 C   0  0  0  0  0  3  0  0  0  0  0  0
  193.1830  176.4600  138.2170 C   0  0  0  0  0  1  0  0  0  0  0  0
  190.7190  176.5410  138.1680 N   0  0  0  0  0  0  0  0  0  0  0  0
  189.3870  174.7460  137.3290 C   0  0  0  0  0  3  0  0  0  0  0  0
  189.4900  176.0180  137.8960 C   0  0  0  0  0  0  0  0  0  0  0  0
  191.7970  174.5770  137.3390 C   0  0  0  0  0  3  0  0  0  0  0  0
  1 14  2  0  0  0  0
  1  9  1  0  0  0  0
  2  3  1  0  0  0  0
  3 19  2  0  0  0  0
  3  7  1  0  0  0  0
  4 11  2  0  0  0  0
  5  2  1  0  0  0  0
  5 14  1  1  0  0  0
  6  1  1  0  0  0  0
  7  4  1  0  0  0  0
  8 21  1  6  0  0  0
  8 13  1  0  0  0  0
 10 19  1  0  0  0  0
 12  8  1  0  0  0  0
 12 16  1  0  0  0  0
 13 18  1  0  0  0  0
 13  2  2  0  0  0  0
 15 11  1  0  0  0  0
 16 17  1  6  0  0  0
 16  5  1  0  0  0  0
 17  6  1  0  0  0  0
 18 10  2  0  0  0  0
 19 20  1  0  0  0  0
 20 15  2  0  0  0  0
 23 22  1  6  0  0  0
 23 21  1  0  0  0  0
 24 28  1  0  0  0  0
 24 27  1  0  0  0  0
 25 23  1  0  0  0  0
 26 29  2  0  0  0  0
 26 31  1  0  0  0  0
 29 30  1  0  0  0  0
 30 28  2  0  0  0  0
 30 25  1  0  0  0  0
 31 24  2  0  0  0  0
M  END
>  <MODEL>
4

>  <REMARK>
 VINA RESULT:     -10.0      1.784      2.867
  Name = 
  3 active torsions:
  status: ('A' for Active; 'I' for Inactive)
    1  A    between atoms: N_3  and  C_9
    2  A    between atoms: C_9  and  C_23
    3  A    between atoms: C_15  and  C_23
                            x       y       z     vdW  Elec       q    Type
                         _______ _______ _______ _____ _____    ______ ____

>  <TORSDO>
F 3

$$$$
=
 OpenBabel10262419223D

 31 35  0  0  1  0  0  0  0  0999 V2000
  184.8590  179.3570  143.3160 C   0  0  0  0  0  0  0  0  0  0  0  0
  188.0900  177.6610  144.2570 C   0  0  0  0  0  0  0  0  0  0  0  0
  188.1240  177.5220  145.6670 C   0  0  0  0  0  0  0  0  0  0  0  0
  186.6790  178.4650  147.4380 C   0  0  0  0  0  3  0  0  0  0  0  0
  186.7860  177.7980  143.4850 C   0  0  1  0  0  3  0  0  0  0  0  0
  184.7370  179.1020  141.8280 C   0  0  0  0  0  2  0  0  0  0  0  0
  186.8530  177.3660  146.4450 C   0  0  0  0  0  2  0  0  0  0  0  0
  189.3140  177.5850  142.0230 C   0  0  1  0  0  3  0  0  0  0  0  0
  183.9720  180.2390  143.9180 O   0  0  0  0  0  1  0  0  0  0  0  0
  190.5290  177.3210  145.5640 C   0  0  0  0  0  3  0  0  0  0  0  0
  187.5030  178.6440  148.4670 C   0  0  0  0  0  3  0  0  0  0  0  0
  188.0130  177.2170  141.4630 N   0  0  0  0  0  2  0  0  0  0  0  0
  189.3020  177.5160  143.5380 C   0  0  0  0  0  0  0  0  0  0  0  0
  185.8290  178.8080  144.0580 C   0  0  0  0  0  3  0  0  0  0  0  0
  188.7230  177.8550  148.7190 C   0  0  0  0  0  3  0  0  0  0  0  0
  187.0350  178.1380  142.0170 C   0  0  1  0  0  3  0  0  0  0  0  0
  185.7050  178.0390  141.2870 C   0  0  0  0  0  2  0  0  0  0  0  0
  190.4750  177.3800  144.2100 N   0  0  0  0  0  0  0  0  0  0  0  0
  189.3650  177.3940  146.3250 C   0  0  0  0  0  0  0  0  0  0  0  0
  189.5220  177.3100  147.7920 C   0  0  0  0  0  3  0  0  0  0  0  0
  190.3940  176.6820  141.4360 C   0  0  0  0  0  2  0  0  0  0  0  0
  192.3410  177.5920  140.2150 C   0  0  0  0  0  1  0  0  0  0  0  0
  190.8790  177.2100  140.0960 C   0  0  1  0  0  3  0  0  0  0  0  0
  187.5290  177.0460  137.4500 C   0  0  0  0  0  0  0  0  0  0  0  0
  190.7210  176.1850  139.0730 N   0  0  0  0  0  2  0  0  0  0  0  0
  188.4310  175.0990  136.3560 C   0  0  0  0  0  3  0  0  0  0  0  0
  186.4640  178.0740  137.5880 C   0  0  0  0  0  1  0  0  0  0  0  0
  188.6050  177.0690  138.2810 N   0  0  0  0  0  0  0  0  0  0  0  0
  189.5290  175.1410  137.2180 C   0  0  0  0  0  3  0  0  0  0  0  0
  189.6030  176.1440  138.1860 C   0  0  0  0  0  0  0  0  0  0  0  0
  187.4230  176.0570  136.4690 C   0  0  0  0  0  3  0  0  0  0  0  0
  1  9  1  0  0  0  0
  1 14  2  0  0  0  0
  2  3  1  0  0  0  0
  3 19  2  0  0  0  0
  3  7  1  0  0  0  0
  4 11  2  0  0  0  0
  5 14  1  1  0  0  0
  5  2  1  0  0  0  0
  6  1  1  0  0  0  0
  7  4  1  0  0  0  0
  8 21  1  6  0  0  0
  8 13  1  0  0  0  0
 10 19  1  0  0  0  0
 11 15  1  0  0  0  0
 12 16  1  0  0  0  0
 12  8  1  0  0  0  0
 13 18  1  0  0  0  0
 13  2  2  0  0  0  0
 16 17  1  6  0  0  0
 16  5  1  0  0  0  0
 17  6  1  0  0  0  0
 18 10  2  0  0  0  0
 19 20  1  0  0  0  0
 20 15  2  0  0  0  0
 23 22  1  1  0  0  0
 23 21  1  0  0  0  0
 24 27  1  0  0  0  0
 24 28  1  0  0  0  0
 25 23  1  0  0  0  0
 26 31  1  0  0  0  0
 26 29  2  0  0  0  0
 29 30  1  0  0  0  0
 30 28  2  0  0  0  0
 30 25  1  0  0  0  0
 31 24  2  0  0  0  0
M  END
>  <MODEL>
5

>  <REMARK>
 VINA RESULT:      -9.8      1.564      2.094
  Name = 
  3 active torsions:
  status: ('A' for Active; 'I' for Inactive)
    1  A    between atoms: N_3  and  C_9
    2  A    between atoms: C_9  and  C_23
    3  A    between atoms: C_15  and  C_23
                            x       y       z     vdW  Elec       q    Type
                         _______ _______ _______ _____ _____    ______ ____

>  <TORSDO>
F 3

$$$$
=
 OpenBabel10262419223D

 31 35  0  0  1  0  0  0  0  0999 V2000
  184.6010  178.8200  144.6950 C   0  0  0  0  0  0  0  0  0  0  0  0
  188.1010  177.7050  143.8480 C   0  0  0  0  0  0  0  0  0  0  0  0
  188.7490  177.3260  145.0510 C   0  0  0  0  0  0  0  0  0  0  0  0
  188.0970  177.6100  147.4190 C   0  0  0  0  0  3  0  0  0  0  0  0
  186.5860  177.7000  143.7050 C   0  0  1  0  0  3  0  0  0  0  0  0
  183.8880  178.8150  143.3600 C   0  0  0  0  0  2  0  0  0  0  0  0
  187.9590  176.7690  146.1950 C   0  0  0  0  0  2  0  0  0  0  0  0
  188.2550  178.2920  141.3730 C   0  0  1  0  0  3  0  0  0  0  0  0
  183.9590  179.3720  145.7950 O   0  0  0  0  0  1  0  0  0  0  0  0
  190.8850  177.6610  143.9740 C   0  0  0  0  0  3  0  0  0  0  0  0
  189.2540  177.7720  148.0560 C   0  0  0  0  0  3  0  0  0  0  0  0
  186.8920  177.7630  141.2900 N   0  0  0  0  0  2  0  0  0  0  0  0
  188.8980  177.9510  142.7040 C   0  0  0  0  0  0  0  0  0  0  0  0
  185.8530  178.3650  144.8380 C   0  0  0  0  0  3  0  0  0  0  0  0
  190.5480  177.2270  147.6070 C   0  0  0  0  0  3  0  0  0  0  0  0
  186.1430  178.3410  142.3930 C   0  0  1  0  0  3  0  0  0  0  0  0
  184.6510  178.0960  142.2370 C   0  0  0  0  0  2  0  0  0  0  0  0
  190.2530  177.9490  142.8100 N   0  0  0  0  0  0  0  0  0  0  0  0
  190.1580  177.3480  145.1190 C   0  0  0  0  0  0  0  0  0  0  0  0
  190.9340  177.0380  146.3380 C   0  0  0  0  0  3  0  0  0  0  0  0
  189.0790  177.7580  140.2070 C   0  0  0  0  0  2  0  0  0  0  0  0
  189.8100  178.1020  137.8700 C   0  0  0  0  0  1  0  0  0  0  0  0
  188.9480  178.6560  138.9880 C   0  0  1  0  0  3  0  0  0  0  0  0
  187.0010  175.4210  136.9910 C   0  0  0  0  0  0  0  0  0  0  0  0
  187.5590  178.7080  138.5560 N   0  0  0  0  0  2  0  0  0  0  0  0
  184.9450  176.6690  136.8780 C   0  0  0  0  0  3  0  0  0  0  0  0
  187.7810  174.1870  136.7090 C   0  0  0  0  0  1  0  0  0  0  0  0
  187.5950  176.4700  137.6210 N   0  0  0  0  0  0  0  0  0  0  0  0
  185.5720  177.7350  137.5270 C   0  0  0  0  0  3  0  0  0  0  0  0
  186.9130  177.6180  137.8980 C   0  0  0  0  0  0  0  0  0  0  0  0
  185.6610  175.5020  136.6070 C   0  0  0  0  0  3  0  0  0  0  0  0
  1 14  2  0  0  0  0
  1  9  1  0  0  0  0
  2  3  1  0  0  0  0
  3 19  2  0  0  0  0
  3  7  1  0  0  0  0
  4 11  2  0  0  0  0
  5  2  1  0  0  0  0
  5 14  1  1  0  0  0
  6  1  1  0  0  0  0
  7  4  1  0  0  0  0
  8 21  1  6  0  0  0
  8 13  1  0  0  0  0
 10 19  1  0  0  0  0
 12  8  1  0  0  0  0
 12 16  1  0  0  0  0
 13 18  1  0  0  0  0
 13  2  2  0  0  0  0
 15 11  1  0  0  0  0
 16 17  1  6  0  0  0
 16  5  1  0  0  0  0
 17  6  1  0  0  0  0
 18 10  2  0  0  0  0
 19 20  1  0  0  0  0
 20 15  2  0  0  0  0
 23 22  1  6  0  0  0
 23 21  1  0  0  0  0
 24 28  1  0  0  0  0
 25 23  1  0  0  0  0
 26 29  2  0  0  0  0
 27 24  1  0  0  0  0
 28 30  2  0  0  0  0
 29 30  1  0  0  0  0
 30 25  1  0  0  0  0
 31 26  1  0  0  0  0
 31 24  2  0  0  0  0
M  END
>  <MODEL>
6

>  <REMARK>
 VINA RESULT:      -9.5      0.732      1.453
  Name = 
  3 active torsions:
  status: ('A' for Active; 'I' for Inactive)
    1  A    between atoms: N_3  and  C_9
    2  A    between atoms: C_9  and  C_23
    3  A    between atoms: C_15  and  C_23
                            x       y       z     vdW  Elec       q    Type
                         _______ _______ _______ _____ _____    ______ ____

>  <TORSDO>
F 3

$$$$
=
 OpenBabel10262419223D

 31 35  0  0  1  0  0  0  0  0999 V2000
  185.2240  178.7320  145.8340 C   0  0  0  0  0  0  0  0  0  0  0  0
  186.8310  178.0360  142.4960 C   0  0  0  0  0  0  0  0  0  0  0  0
  188.0860  177.4200  142.7280 C   0  0  0  0  0  0  0  0  0  0  0  0
  189.3950  177.1060  144.8020 C   0  0  0  0  0  3  0  0  0  0  0  0
  185.7000  177.9830  143.5120 C   0  0  1  0  0  3  0  0  0  0  0  0
  183.7750  179.0030  145.4870 C   0  0  0  0  0  2  0  0  0  0  0  0
  188.3020  176.5690  143.9410 C   0  0  0  0  0  2  0  0  0  0  0  0
  185.2270  179.1940  140.8890 C   0  0  1  0  0  3  0  0  0  0  0  0
  185.6590  178.9760  147.1290 O   0  0  0  0  0  1  0  0  0  0  0  0
  188.8020  178.1120  140.5270 C   0  0  0  0  0  3  0  0  0  0  0  0
  190.6610  177.1760  144.4000 C   0  0  0  0  0  3  0  0  0  0  0  0
  184.1710  178.6270  141.7290 N   0  0  0  0  0  2  0  0  0  0  0  0
  186.5780  178.5850  141.2150 C   0  0  0  0  0  0  0  0  0  0  0  0
  186.1140  178.3240  144.9190 C   0  0  0  0  0  3  0  0  0  0  0  0
  191.1390  176.8210  143.0510 C   0  0  0  0  0  3  0  0  0  0  0  0
  184.5390  178.8900  143.1110 C   0  0  1  0  0  3  0  0  0  0  0  0
  183.3830  178.6080  144.0550 C   0  0  0  0  0  2  0  0  0  0  0  0
  187.5720  178.6300  140.2900 N   0  0  0  0  0  0  0  0  0  0  0  0
  189.0940  177.5010  141.7430 C   0  0  0  0  0  0  0  0  0  0  0  0
  190.4580  176.9560  141.9060 C   0  0  0  0  0  3  0  0  0  0  0  0
  184.8700  178.9920  139.4200 C   0  0  0  0  0  2  0  0  0  0  0  0
  182.5620  179.3110  138.5940 C   0  0  0  0  0  1  0  0  0  0  0  0
  183.5060  178.3390  139.2740 C   0  0  1  0  0  3  0  0  0  0  0  0
  186.7550  177.5940  136.6030 C   0  0  0  0  0  0  0  0  0  0  0  0
  183.6190  177.1260  138.4760 N   0  0  0  0  0  2  0  0  0  0  0  0
  185.8310  175.4520  136.0060 C   0  0  0  0  0  3  0  0  0  0  0  0
  187.8150  178.6270  136.4680 C   0  0  0  0  0  1  0  0  0  0  0  0
  185.7050  177.8040  137.4420 N   0  0  0  0  0  0  0  0  0  0  0  0
  184.7620  175.6850  136.8730 C   0  0  0  0  0  3  0  0  0  0  0  0
  184.7140  176.8810  137.5940 C   0  0  0  0  0  0  0  0  0  0  0  0
  186.8370  176.4100  135.8680 C   0  0  0  0  0  3  0  0  0  0  0  0
  1  9  1  0  0  0  0
  2  3  1  0  0  0  0
  2  5  1  0  0  0  0
  3  7  1  0  0  0  0
  5 14  1  1  0  0  0
  6  1  1  0  0  0  0
  7  4  1  0  0  0  0
  8 21  1  6  0  0  0
  8 13  1  0  0  0  0
  8 12  1  0  0  0  0
 10 19  1  0  0  0  0
 11  4  2  0  0  0  0
 12 16  1  0  0  0  0
 13  2  2  0  0  0  0
 14  1  2  0  0  0  0
 15 11  1  0  0  0  0
 16  5  1  0  0  0  0
 16 17  1  1  0  0  0
 17  6  1  0  0  0  0
 18 10  2  0  0  0  0
 18 13  1  0  0  0  0
 19 20  1  0  0  0  0
 19  3  2  0  0  0  0
 20 15  2  0  0  0  0
 23 22  1  6  0  0  0
 23 21  1  0  0  0  0
 24 28  1  0  0  0  0
 25 23  1  0  0  0  0
 26 29  2  0  0  0  0
 27 24  1  0  0  0  0
 28 30  2  0  0  0  0
 29 30  1  0  0  0  0
 30 25  1  0  0  0  0
 31 26  1  0  0  0  0
 31 24  2  0  0  0  0
M  END
>  <MODEL>
7

>  <REMARK>
 VINA RESULT:      -9.4      1.700      3.187
  Name = 
  3 active torsions:
  status: ('A' for Active; 'I' for Inactive)
    1  A    between atoms: N_3  and  C_9
    2  A    between atoms: C_9  and  C_23
    3  A    between atoms: C_15  and  C_23
                            x       y       z     vdW  Elec       q    Type
                         _______ _______ _______ _____ _____    ______ ____

>  <TORSDO>
F 3

$$$$
=
 OpenBabel10262419223D

 31 35  0  0  1  0  0  0  0  0999 V2000
  185.0020  178.9380  145.5660 C   0  0  0  0  0  0  0  0  0  0  0  0
  186.8630  178.0590  142.4080 C   0  0  0  0  0  0  0  0  0  0  0  0
  188.1350  177.5510  142.7710 C   0  0  0  0  0  0  0  0  0  0  0  0
  189.3220  177.5080  144.9400 C   0  0  0  0  0  3  0  0  0  0  0  0
  185.6730  178.0210  143.3560 C   0  0  1  0  0  3  0  0  0  0  0  0
  183.5650  179.0800  145.1100 C   0  0  0  0  0  2  0  0  0  0  0  0
  188.3220  176.8250  144.0680 C   0  0  0  0  0  2  0  0  0  0  0  0
  185.3010  178.9620  140.6090 C   0  0  1  0  0  3  0  0  0  0  0  0
  185.3350  179.3230  146.8580 O   0  0  0  0  0  1  0  0  0  0  0  0
  188.9500  178.0920  140.5620 C   0  0  0  0  0  3  0  0  0  0  0  0
  190.6050  177.6250  144.6090 C   0  0  0  0  0  3  0  0  0  0  0  0
  184.2280  178.4030  141.4340 N   0  0  0  0  0  2  0  0  0  0  0  0
  186.6610  178.4750  141.0700 C   0  0  0  0  0  0  0  0  0  0  0  0
  185.9720  178.5110  144.7470 C   0  0  0  0  0  3  0  0  0  0  0  0
  191.1910  177.1850  143.3300 C   0  0  0  0  0  3  0  0  0  0  0  0
  184.4880  178.8100  142.8040 C   0  0  1  0  0  3  0  0  0  0  0  0
  183.2920  178.5360  143.7000 C   0  0  0  0  0  2  0  0  0  0  0  0
  187.7090  178.5050  140.2060 N   0  0  0  0  0  0  0  0  0  0  0  0
  189.1990  177.6110  141.8450 C   0  0  0  0  0  0  0  0  0  0  0  0
  190.5790  177.1740  142.1380 C   0  0  0  0  0  3  0  0  0  0  0  0
  185.0530  178.6090  139.1460 C   0  0  0  0  0  2  0  0  0  0  0  0
  182.7740  179.5480  139.3400 C   0  0  0  0  0  1  0  0  0  0  0  0
  183.5790  178.3440  138.8900 C   0  0  1  0  0  3  0  0  0  0  0  0
  184.2840  174.5730  137.0100 C   0  0  0  0  0  0  0  0  0  0  0  0
  183.3560  178.1070  137.4710 N   0  0  0  0  0  2  0  0  0  0  0  0
  183.5630  175.4470  134.8850 C   0  0  0  0  0  3  0  0  0  0  0  0
  184.7970  173.4510  137.8390 C   0  0  0  0  0  1  0  0  0  0  0  0
  184.0550  175.7870  137.5790 N   0  0  0  0  0  0  0  0  0  0  0  0
  183.3320  176.6860  135.4880 C   0  0  0  0  0  3  0  0  0  0  0  0
  183.5850  176.8410  136.8530 C   0  0  0  0  0  0  0  0  0  0  0  0
  184.0420  174.3810  135.6480 C   0  0  0  0  0  3  0  0  0  0  0  0
  1  9  1  0  0  0  0
  2  3  1  0  0  0  0
  2  5  1  0  0  0  0
  3  7  1  0  0  0  0
  5 14  1  1  0  0  0
  6  1  1  0  0  0  0
  7  4  1  0  0  0  0
  8 21  1  6  0  0  0
  8 13  1  0  0  0  0
  8 12  1  0  0  0  0
 10 19  1  0  0  0  0
 11  4  2  0  0  0  0
 12 16  1  0  0  0  0
 13  2  2  0  0  0  0
 14  1  2  0  0  0  0
 15 11  1  0  0  0  0
 16  5  1  0  0  0  0
 16 17  1  1  0  0  0
 17  6  1  0  0  0  0
 18 10  2  0  0  0  0
 18 13  1  0  0  0  0
 19 20  1  0  0  0  0
 19  3  2  0  0  0  0
 20 15  2  0  0  0  0
 23 21  1  0  0  0  0
 23 22  1  6  0  0  0
 24 28  1  0  0  0  0
 24 27  1  0  0  0  0
 25 23  1  0  0  0  0
 26 29  2  0  0  0  0
 26 31  1  0  0  0  0
 29 30  1  0  0  0  0
 30 25  1  0  0  0  0
 30 28  2  0  0  0  0
 31 24  2  0  0  0  0
M  END
>  <MODEL>
8

>  <REMARK>
 VINA RESULT:      -9.2      1.867      3.230
  Name = 
  3 active torsions:
  status: ('A' for Active; 'I' for Inactive)
    1  A    between atoms: N_3  and  C_9
    2  A    between atoms: C_9  and  C_23
    3  A    between atoms: C_15  and  C_23
                            x       y       z     vdW  Elec       q    Type
                         _______ _______ _______ _____ _____    ______ ____

>  <TORSDO>
F 3

$$$$
=
 OpenBabel10262419223D

 31 35  0  0  1  0  0  0  0  0999 V2000
  187.7900  178.3960  139.5430 C   0  0  0  0  0  0  0  0  0  0  0  0
  185.0430  178.2240  142.1170 C   0  0  0  0  0  0  0  0  0  0  0  0
  183.7990  178.3360  141.4460 C   0  0  0  0  0  0  0  0  0  0  0  0
  183.2490  178.9330  139.1110 C   0  0  0  0  0  3  0  0  0  0  0  0
  186.3020  177.7320  141.4180 C   0  0  1  0  0  3  0  0  0  0  0  0
  189.0080  177.8790  140.2800 C   0  0  0  0  0  2  0  0  0  0  0  0
  183.6470  177.8380  140.0420 C   0  0  0  0  0  2  0  0  0  0  0  0
  186.3620  178.2610  144.2970 C   0  0  1  0  0  3  0  0  0  0  0  0
  187.9590  178.9610  138.2860 O   0  0  0  0  0  1  0  0  0  0  0  0
  182.7770  179.0470  143.5160 C   0  0  0  0  0  3  0  0  0  0  0  0
  182.0860  179.5730  139.2060 C   0  0  0  0  0  3  0  0  0  0  0  0
  187.2760  177.3430  143.6160 N   0  0  0  0  0  2  0  0  0  0  0  0
  185.0730  178.4360  143.5170 C   0  0  0  0  0  0  0  0  0  0  0  0
  186.5670  178.3830  140.0870 C   0  0  0  0  0  3  0  0  0  0  0  0
  181.0870  179.3550  140.2680 C   0  0  0  0  0  3  0  0  0  0  0  0
  187.5370  177.9010  142.2990 C   0  0  1  0  0  3  0  0  0  0  0  0
  188.6940  177.1900  141.6160 C   0  0  0  0  0  2  0  0  0  0  0  0
  183.9550  178.8640  144.1610 N   0  0  0  0  0  0  0  0  0  0  0  0
  182.6660  178.7950  142.1520 C   0  0  0  0  0  0  0  0  0  0  0  0
  181.3400  179.0130  141.5380 C   0  0  0  0  0  3  0  0  0  0  0  0
  186.0900  177.7530  145.7090 C   0  0  0  0  0  2  0  0  0  0  0  0
  186.0840  179.0220  147.8300 C   0  0  0  0  0  1  0  0  0  0  0  0
  186.9630  178.4700  146.7260 C   0  0  1  0  0  3  0  0  0  0  0  0
  190.8530  177.8640  145.0680 C   0  0  0  0  0  0  0  0  0  0  0  0
  187.9340  177.5420  147.2890 N   0  0  0  0  0  2  0  0  0  0  0  0
  191.3890  176.2710  146.7920 C   0  0  0  0  0  3  0  0  0  0  0  0
  191.2320  178.6240  143.8480 C   0  0  0  0  0  1  0  0  0  0  0  0
  189.6200  178.0320  145.6160 N   0  0  0  0  0  0  0  0  0  0  0  0
  190.1190  176.4580  147.3410 C   0  0  0  0  0  3  0  0  0  0  0  0
  189.2350  177.3530  146.7340 C   0  0  0  0  0  0  0  0  0  0  0  0
  191.7630  176.9780  145.6480 C   0  0  0  0  0  3  0  0  0  0  0  0
  1 14  2  0  0  0  0
  1  6  1  0  0  0  0
  2 13  1  0  0  0  0
  3  2  2  0  0  0  0
  3 19  1  0  0  0  0
  4 11  2  0  0  0  0
  4  7  1  0  0  0  0
  5 14  1  6  0  0  0
  5  2  1  0  0  0  0
  5 16  1  0  0  0  0
  6 17  1  0  0  0  0
  7  3  1  0  0  0  0
  8 21  1  1  0  0  0
  9  1  1  0  0  0  0
 10 18  1  0  0  0  0
 11 15  1  0  0  0  0
 12  8  1  0  0  0  0
 13 18  2  0  0  0  0
 13  8  1  0  0  0  0
 15 20  2  0  0  0  0
 16 17  1  6  0  0  0
 16 12  1  0  0  0  0
 19 10  2  0  0  0  0
 20 19  1  0  0  0  0
 21 23  1  0  0  0  0
 23 25  1  0  0  0  0
 23 22  1  1  0  0  0
 24 28  1  0  0  0  0
 24 31  2  0  0  0  0
 26 29  2  0  0  0  0
 27 24  1  0  0  0  0
 28 30  2  0  0  0  0
 30 25  1  0  0  0  0
 30 29  1  0  0  0  0
 31 26  1  0  0  0  0
M  END
>  <MODEL>
9

>  <REMARK>
 VINA RESULT:      -9.1      3.049      8.124
  Name = 
  3 active torsions:
  status: ('A' for Active; 'I' for Inactive)
    1  A    between atoms: N_3  and  C_9
    2  A    between atoms: C_9  and  C_23
    3  A    between atoms: C_15  and  C_23
                            x       y       z     vdW  Elec       q    Type
                         _______ _______ _______ _____ _____    ______ ____

>  <TORSDO>
F 3

$$$$
