=
 OpenBabel10262419373D

 31 35  0  0  1  0  0  0  0  0999 V2000
  192.5080  175.2680  136.5790 C   0  0  2  0  0  3  0  0  0  0  0  0
  189.3510  176.3430  138.5650 C   0  0  1  0  0  3  0  0  0  0  0  0
  188.3620  176.5030  137.3980 C   0  0  1  0  0  3  0  0  0  0  0  0
  187.2580  175.0400  135.6680 C   0  0  0  0  0  2  0  0  0  0  0  0
  190.7930  176.4180  138.0440 C   0  0  2  0  0  3  0  0  0  0  0  0
  193.4960  175.2750  137.7450 C   0  0  0  0  0  2  0  0  0  0  0  0
  187.6130  175.2040  137.1450 C   0  0  0  0  0  2  0  0  0  0  0  0
  190.2240  177.4060  140.7320 C   0  0  1  0  0  3  0  0  0  0  0  0
  192.7140  176.3770  135.7570 O   0  0  0  0  0  1  0  0  0  0  0  0
  187.4720  178.6640  138.5190 N   0  0  0  0  0  2  0  0  0  0  0  0
  186.3380  176.1450  135.1550 C   0  0  0  0  0  2  0  0  0  0  0  0
  191.5610  177.4860  140.1310 N   0  0  0  0  0  2  0  0  0  0  0  0
  189.0900  177.3370  139.7010 C   0  0  1  0  0  3  0  0  0  0  0  0
  191.0680  175.2460  137.0940 C   0  0  0  0  0  2  0  0  0  0  0  0
  187.1430  177.4140  134.8840 C   0  0  0  0  0  2  0  0  0  0  0  0
  191.7870  176.3730  139.2120 C   0  0  2  0  0  3  0  0  0  0  0  0
  193.2190  176.4410  138.6910 C   0  0  0  0  0  2  0  0  0  0  0  0
  188.8020  178.6970  139.1110 C   0  0  0  0  0  2  0  0  0  0  0  0
  187.3500  177.6770  137.4350 C   0  0  1  0  0  3  0  0  0  0  0  0
  187.1830  178.3690  136.0820 C   0  0  0  0  0  2  0  0  0  0  0  0
  190.1160  176.3950  141.8840 C   0  0  0  0  0  2  0  0  0  0  0  0
  191.4230  177.2430  143.6740 O   0  0  0  0  0  0  0  0  0  0  0  0
  190.2620  176.9980  143.2490 C   0  0  0  0  0  0  0  0  0  0  0  0
  186.7400  177.8210  145.5680 C   0  0  0  0  0  0  0  0  0  0  0  0
  187.8410  177.5180  143.4400 C   0  0  0  0  0  3  0  0  0  0  0  0
  190.3670  177.0850  146.2690 C   0  0  0  0  0  1  0  0  0  0  0  0
  185.2870  178.1330  146.4930 Cl  0  0  0  0  0  0  0  0  0  0  0  0
  186.6840  177.7760  144.1760 C   0  0  0  0  0  3  0  0  0  0  0  0
  189.1190  177.3500  145.4980 C   0  0  0  0  0  0  0  0  0  0  0  0
  189.0720  177.3020  144.0820 C   0  0  0  0  0  0  0  0  0  0  0  0
  187.9520  177.6070  146.2250 C   0  0  0  0  0  3  0  0  0  0  0  0
  1  9  1  1  0  0  0
  1 14  1  0  0  0  0
  1  6  1  0  0  0  0
  2 13  1  0  0  0  0
  3 19  1  0  0  0  0
  3  2  1  0  0  0  0
  4  7  1  0  0  0  0
  5  2  1  0  0  0  0
  5 16  1  0  0  0  0
  6 17  1  0  0  0  0
  7  3  1  0  0  0  0
  8 21  1  0  0  0  0
 10 18  1  0  0  0  0
 11  4  1  0  0  0  0
 12  8  1  0  0  0  0
 13  8  1  0  0  0  0
 14  5  1  0  0  0  0
 15 11  1  0  0  0  0
 15 20  1  0  0  0  0
 16 12  1  0  0  0  0
 17 16  1  0  0  0  0
 18 13  1  0  0  0  0
 19 10  1  0  0  0  0
 20 19  1  0  0  0  0
 21 23  1  0  0  0  0
 23 22  2  0  0  0  0
 23 30  1  0  0  0  0
 24 31  1  0  0  0  0
 24 27  1  0  0  0  0
 25 30  2  0  0  0  0
 25 28  1  0  0  0  0
 28 24  2  0  0  0  0
 29 31  2  0  0  0  0
 29 26  1  0  0  0  0
 30 29  1  0  0  0  0
M  END
>  <MODEL>
1

>  <REMARK>
 VINA RESULT:      -9.2      0.000      0.000
  Name = 
  3 active torsions:
  status: ('A' for Active; 'I' for Inactive)
    1  A    between atoms: C_9  and  C_22
    2  A    between atoms: C_9  and  C_23
    3  A    between atoms: C_15  and  C_23
                            x       y       z     vdW  Elec       q    Type
                         _______ _______ _______ _____ _____    ______ ____

>  <TORSDO>
F 3

$$$$
=
 OpenBabel10262419373D

 31 35  0  0  1  0  0  0  0  0999 V2000
  186.7210  176.9900  136.5530 C   0  0  2  0  0  3  0  0  0  0  0  0
  183.4510  177.8500  138.4580 C   0  0  1  0  0  3  0  0  0  0  0  0
  182.4740  177.9050  137.2700 C   0  0  1  0  0  3  0  0  0  0  0  0
  181.5250  176.3210  135.5540 C   0  0  0  0  0  2  0  0  0  0  0  0
  184.8920  178.0300  137.9600 C   0  0  2  0  0  3  0  0  0  0  0  0
  187.6830  177.1020  137.7350 C   0  0  0  0  0  2  0  0  0  0  0  0
  181.8370  176.5450  137.0330 C   0  0  0  0  0  2  0  0  0  0  0  0
  184.1930  179.0270  140.6140 C   0  0  1  0  0  3  0  0  0  0  0  0
  186.8530  178.0940  135.7090 O   0  0  0  0  0  1  0  0  0  0  0  0
  181.3930  180.0110  138.3250 N   0  0  0  0  0  2  0  0  0  0  0  0
  180.5290  177.3380  135.0000 C   0  0  0  0  0  2  0  0  0  0  0  0
  185.5310  179.2010  140.0350 N   0  0  0  0  0  2  0  0  0  0  0  0
  183.0890  178.8440  139.5650 C   0  0  1  0  0  3  0  0  0  0  0  0
  185.2780  176.8640  137.0420 C   0  0  0  0  0  2  0  0  0  0  0  0
  181.2350  178.6600  134.7150 C   0  0  0  0  0  2  0  0  0  0  0  0
  185.8630  178.0900  139.1460 C   0  0  2  0  0  3  0  0  0  0  0  0
  187.2950  178.2620  138.6490 C   0  0  0  0  0  2  0  0  0  0  0  0
  182.7040  180.1640  138.9390 C   0  0  0  0  0  2  0  0  0  0  0  0
  181.3710  178.9950  137.2620 C   0  0  1  0  0  3  0  0  0  0  0  0
  181.1760  179.6420  135.8910 C   0  0  0  0  0  2  0  0  0  0  0  0
  184.1440  178.0360  141.7870 C   0  0  0  0  0  2  0  0  0  0  0  0
  183.7170  179.5130  143.5940 O   0  0  0  0  0  0  0  0  0  0  0  0
  184.4870  178.6370  143.1170 C   0  0  0  0  0  0  0  0  0  0  0  0
  188.0790  177.4580  145.1590 C   0  0  0  0  0  0  0  0  0  0  0  0
  186.8360  177.8320  143.1220 C   0  0  0  0  0  3  0  0  0  0  0  0
  184.6420  178.6510  146.1360 C   0  0  0  0  0  1  0  0  0  0  0  0
  189.5610  176.9980  145.9680 Cl  0  0  0  0  0  0  0  0  0  0  0  0
  188.0150  177.4550  143.7670 C   0  0  0  0  0  3  0  0  0  0  0  0
  185.7760  178.2140  145.2720 C   0  0  0  0  0  0  0  0  0  0  0  0
  185.7020  178.2140  143.8570 C   0  0  0  0  0  0  0  0  0  0  0  0
  186.9650  177.8380  145.9080 C   0  0  0  0  0  3  0  0  0  0  0  0
  1  9  1  6  0  0  0
  1 14  1  0  0  0  0
  1  6  1  0  0  0  0
  2 13  1  0  0  0  0
  3  2  1  0  0  0  0
  4  7  1  0  0  0  0
  5  2  1  0  0  0  0
  5 16  1  0  0  0  0
  6 17  1  0  0  0  0
  7  3  1  0  0  0  0
  8 21  1  0  0  0  0
 10 18  1  0  0  0  0
 11  4  1  0  0  0  0
 12  8  1  0  0  0  0
 13  8  1  0  0  0  0
 14  5  1  0  0  0  0
 15 11  1  0  0  0  0
 15 20  1  0  0  0  0
 16 12  1  0  0  0  0
 17 16  1  0  0  0  0
 18 13  1  0  0  0  0
 19  3  1  0  0  0  0
 19 10  1  0  0  0  0
 20 19  1  0  0  0  0
 21 23  1  0  0  0  0
 23 22  2  0  0  0  0
 23 30  1  0  0  0  0
 24 31  1  0  0  0  0
 24 27  1  0  0  0  0
 25 28  1  0  0  0  0
 25 30  2  0  0  0  0
 28 24  2  0  0  0  0
 29 31  2  0  0  0  0
 29 26  1  0  0  0  0
 30 29  1  0  0  0  0
M  END
>  <MODEL>
2

>  <REMARK>
 VINA RESULT:      -8.6      4.091      5.596
  Name = 
  3 active torsions:
  status: ('A' for Active; 'I' for Inactive)
    1  A    between atoms: C_9  and  C_22
    2  A    between atoms: C_9  and  C_23
    3  A    between atoms: C_15  and  C_23
                            x       y       z     vdW  Elec       q    Type
                         _______ _______ _______ _____ _____    ______ ____

>  <TORSDO>
F 3

$$$$
=
 OpenBabel10262419373D

 31 35  0  0  1  0  0  0  0  0999 V2000
  184.9320  176.6060  136.6000 C   0  0  2  0  0  3  0  0  0  0  0  0
  182.8200  177.1680  139.8080 C   0  0  1  0  0  3  0  0  0  0  0  0
  181.4390  176.7440  139.2780 C   0  0  1  0  0  3  0  0  0  0  0  0
  180.3230  174.6480  138.4350 C   0  0  0  0  0  2  0  0  0  0  0  0
  183.7430  177.5300  138.6360 C   0  0  2  0  0  3  0  0  0  0  0  0
  186.2490  177.1850  137.1170 C   0  0  0  0  0  2  0  0  0  0  0  0
  181.2000  175.2630  139.5240 C   0  0  0  0  0  2  0  0  0  0  0  0
  184.0880  178.9340  141.1710 C   0  0  1  0  0  3  0  0  0  0  0  0
  184.3270  177.4920  135.7070 O   0  0  0  0  0  1  0  0  0  0  0  0
  180.3990  178.7590  140.5330 N   0  0  0  0  0  2  0  0  0  0  0  0
  178.9340  175.2780  138.3680 C   0  0  0  0  0  2  0  0  0  0  0  0
  184.8880  179.2500  139.9830 N   0  0  0  0  0  2  0  0  0  0  0  0
  182.7350  178.2890  140.8480 C   0  0  1  0  0  3  0  0  0  0  0  0
  183.9880  176.2940  137.7620 C   0  0  0  0  0  2  0  0  0  0  0  0
  179.0010  176.6190  137.6430 C   0  0  0  0  0  2  0  0  0  0  0  0
  185.0850  178.0620  139.1550 C   0  0  2  0  0  3  0  0  0  0  0  0
  186.0030  178.4140  137.9890 C   0  0  0  0  0  2  0  0  0  0  0  0
  181.7330  179.3200  140.3820 C   0  0  0  0  0  2  0  0  0  0  0  0
  180.1900  177.5460  139.7270 C   0  0  1  0  0  3  0  0  0  0  0  0
  179.2030  177.8080  138.5910 C   0  0  0  0  0  2  0  0  0  0  0  0
  184.8810  178.2490  142.2950 C   0  0  0  0  0  2  0  0  0  0  0  0
  183.7890  179.7240  143.7980 O   0  0  0  0  0  0  0  0  0  0  0  0
  184.7160  178.8840  143.6430 C   0  0  0  0  0  0  0  0  0  0  0  0
  187.2190  177.8670  146.9840 C   0  0  0  0  0  0  0  0  0  0  0  0
  185.2390  178.9060  146.0700 C   0  0  0  0  0  3  0  0  0  0  0  0
  187.2820  177.3340  143.2550 C   0  0  0  0  0  1  0  0  0  0  0  0
  188.2090  177.4420  148.3620 Cl  0  0  0  0  0  0  0  0  0  0  0  0
  186.0330  178.5760  147.1690 C   0  0  0  0  0  3  0  0  0  0  0  0
  186.8240  177.8140  144.5900 C   0  0  0  0  0  0  0  0  0  0  0  0
  185.6170  178.5350  144.7690 C   0  0  0  0  0  0  0  0  0  0  0  0
  187.6100  177.4860  145.7000 C   0  0  0  0  0  3  0  0  0  0  0  0
  1  9  1  6  0  0  0
  1  6  1  0  0  0  0
  1 14  1  0  0  0  0
  2 13  1  0  0  0  0
  3  7  1  0  0  0  0
  3 19  1  0  0  0  0
  3  2  1  0  0  0  0
  4  7  1  0  0  0  0
  5 16  1  0  0  0  0
  5  2  1  0  0  0  0
  6 17  1  0  0  0  0
  8 21  1  0  0  0  0
 11  4  1  0  0  0  0
 12  8  1  0  0  0  0
 13  8  1  0  0  0  0
 14  5  1  0  0  0  0
 15 11  1  0  0  0  0
 15 20  1  0  0  0  0
 16 12  1  0  0  0  0
 17 16  1  0  0  0  0
 18 10  1  0  0  0  0
 18 13  1  0  0  0  0
 19 10  1  0  0  0  0
 20 19  1  0  0  0  0
 21 23  1  0  0  0  0
 23 22  2  0  0  0  0
 23 30  1  0  0  0  0
 24 28  1  0  0  0  0
 24 27  1  0  0  0  0
 25 28  2  0  0  0  0
 26 29  1  0  0  0  0
 29 30  2  0  0  0  0
 29 31  1  0  0  0  0
 30 25  1  0  0  0  0
 31 24  2  0  0  0  0
M  END
>  <MODEL>
3

>  <REMARK>
 VINA RESULT:      -8.4      4.996      6.493
  Name = 
  3 active torsions:
  status: ('A' for Active; 'I' for Inactive)
    1  A    between atoms: C_9  and  C_22
    2  A    between atoms: C_9  and  C_23
    3  A    between atoms: C_15  and  C_23
                            x       y       z     vdW  Elec       q    Type
                         _______ _______ _______ _____ _____    ______ ____

>  <TORSDO>
F 3

$$$$
=
 OpenBabel10262419373D

 31 35  0  0  1  0  0  0  0  0999 V2000
  184.8390  176.5340  136.2050 C   0  0  2  0  0  3  0  0  0  0  0  0
  182.9960  177.0640  139.5790 C   0  0  1  0  0  3  0  0  0  0  0  0
  181.5660  176.6940  139.1470 C   0  0  1  0  0  3  0  0  0  0  0  0
  180.3270  174.6530  138.3380 C   0  0  0  0  0  2  0  0  0  0  0  0
  183.8370  177.4330  138.3490 C   0  0  2  0  0  3  0  0  0  0  0  0
  186.2080  177.0620  136.6330 C   0  0  0  0  0  2  0  0  0  0  0  0
  181.3030  175.2130  139.3720 C   0  0  0  0  0  2  0  0  0  0  0  0
  184.4150  178.7560  140.8860 C   0  0  1  0  0  3  0  0  0  0  0  0
  184.1940  177.4610  135.3840 O   0  0  0  0  0  1  0  0  0  0  0  0
  180.6850  178.7000  140.5300 N   0  0  0  0  0  2  0  0  0  0  0  0
  178.9560  175.3230  138.3950 C   0  0  0  0  0  2  0  0  0  0  0  0
  185.1320  179.0830  139.6480 N   0  0  0  0  0  2  0  0  0  0  0  0
  183.0230  178.1580  140.6510 C   0  0  1  0  0  3  0  0  0  0  0  0
  183.9770  176.2150  137.4270 C   0  0  0  0  0  2  0  0  0  0  0  0
  179.0080  176.6820  137.7020 C   0  0  0  0  0  2  0  0  0  0  0  0
  185.2300  177.9130  138.7770 C   0  0  2  0  0  3  0  0  0  0  0  0
  186.0650  178.2720  137.5530 C   0  0  0  0  0  2  0  0  0  0  0  0
  182.0200  179.2290  140.2910 C   0  0  0  0  0  2  0  0  0  0  0  0
  180.3800  177.5160  139.7110 C   0  0  1  0  0  3  0  0  0  0  0  0
  179.3170  177.8370  138.6610 C   0  0  0  0  0  2  0  0  0  0  0  0
  185.2720  178.0180  141.9270 C   0  0  0  0  0  2  0  0  0  0  0  0
  184.5290  179.6420  143.4890 O   0  0  0  0  0  0  0  0  0  0  0  0
  185.3100  178.6770  143.2730 C   0  0  0  0  0  0  0  0  0  0  0  0
  188.1160  177.3640  146.2510 C   0  0  0  0  0  0  0  0  0  0  0  0
  187.5260  177.7810  143.9450 C   0  0  0  0  0  3  0  0  0  0  0  0
  184.5920  178.6940  146.2090 C   0  0  0  0  0  1  0  0  0  0  0  0
  189.2840  176.8490  147.4470 Cl  0  0  0  0  0  0  0  0  0  0  0  0
  188.4550  177.3600  144.8990 C   0  0  0  0  0  3  0  0  0  0  0  0
  185.9080  178.2100  145.7040 C   0  0  0  0  0  0  0  0  0  0  0  0
  186.2440  178.2100  144.3270 C   0  0  0  0  0  0  0  0  0  0  0  0
  186.8490  177.7890  146.6510 C   0  0  0  0  0  3  0  0  0  0  0  0
  1  9  1  6  0  0  0
  1  6  1  0  0  0  0
  1 14  1  0  0  0  0
  2 13  1  0  0  0  0
  3  7  1  0  0  0  0
  3  2  1  0  0  0  0
  3 19  1  0  0  0  0
  4 11  1  0  0  0  0
  4  7  1  0  0  0  0
  5 16  1  0  0  0  0
  5  2  1  0  0  0  0
  6 17  1  0  0  0  0
  8 21  1  0  0  0  0
 12  8  1  0  0  0  0
 13  8  1  0  0  0  0
 14  5  1  0  0  0  0
 15 11  1  0  0  0  0
 15 20  1  0  0  0  0
 16 12  1  0  0  0  0
 17 16  1  0  0  0  0
 18 10  1  0  0  0  0
 18 13  1  0  0  0  0
 19 10  1  0  0  0  0
 20 19  1  0  0  0  0
 21 23  1  0  0  0  0
 23 22  2  0  0  0  0
 23 30  1  0  0  0  0
 24 31  1  0  0  0  0
 24 27  1  0  0  0  0
 25 30  2  0  0  0  0
 25 28  1  0  0  0  0
 28 24  2  0  0  0  0
 29 26  1  0  0  0  0
 29 31  2  0  0  0  0
 30 29  1  0  0  0  0
M  END
>  <MODEL>
4

>  <REMARK>
 VINA RESULT:      -8.3      4.890      6.360
  Name = 
  3 active torsions:
  status: ('A' for Active; 'I' for Inactive)
    1  A    between atoms: C_9  and  C_22
    2  A    between atoms: C_9  and  C_23
    3  A    between atoms: C_15  and  C_23
                            x       y       z     vdW  Elec       q    Type
                         _______ _______ _______ _____ _____    ______ ____

>  <TORSDO>
F 3

$$$$
=
 OpenBabel10262419373D

 31 35  0  0  1  0  0  0  0  0999 V2000
  186.7820  176.9140  136.6230 C   0  0  2  0  0  3  0  0  0  0  0  0
  183.5800  177.7450  138.6530 C   0  0  1  0  0  3  0  0  0  0  0  0
  182.5510  177.7490  137.5090 C   0  0  1  0  0  3  0  0  0  0  0  0
  181.5650  176.1030  135.8750 C   0  0  0  0  0  2  0  0  0  0  0  0
  184.9930  177.9460  138.0870 C   0  0  2  0  0  3  0  0  0  0  0  0
  187.7930  177.0770  137.7580 C   0  0  0  0  0  2  0  0  0  0  0  0
  181.9370  176.3690  137.3330 C   0  0  0  0  0  2  0  0  0  0  0  0
  184.3890  178.9910  140.7460 C   0  0  1  0  0  3  0  0  0  0  0  0
  186.8510  178.0010  135.7490 O   0  0  0  0  0  1  0  0  0  0  0  0
  181.4680  179.8550  138.5630 N   0  0  0  0  0  2  0  0  0  0  0  0
  180.5210  177.0830  135.3430 C   0  0  0  0  0  2  0  0  0  0  0  0
  185.6950  179.1810  140.1040 N   0  0  0  0  0  2  0  0  0  0  0  0
  183.2440  178.7570  139.7520 C   0  0  1  0  0  3  0  0  0  0  0  0
  185.3660  176.7670  137.1800 C   0  0  0  0  0  2  0  0  0  0  0  0
  181.1820  178.4140  134.9950 C   0  0  0  0  0  2  0  0  0  0  0  0
  186.0150  178.0580  139.2270 C   0  0  2  0  0  3  0  0  0  0  0  0
  187.4180  178.2500  138.6620 C   0  0  0  0  0  2  0  0  0  0  0  0
  182.8010  180.0530  139.1130 C   0  0  0  0  0  2  0  0  0  0  0  0
  181.4230  178.8130  137.5250 C   0  0  1  0  0  3  0  0  0  0  0  0
  181.1510  179.4220  136.1500 C   0  0  0  0  0  2  0  0  0  0  0  0
  184.4160  178.0270  141.9430 C   0  0  0  0  0  2  0  0  0  0  0  0
  183.2750  179.4910  143.4200 O   0  0  0  0  0  0  0  0  0  0  0  0
  184.2390  178.6930  143.2740 C   0  0  0  0  0  0  0  0  0  0  0  0
  186.8400  177.8800  146.5970 C   0  0  0  0  0  0  0  0  0  0  0  0
  184.7230  178.6330  145.7090 C   0  0  0  0  0  3  0  0  0  0  0  0
  187.0350  177.6280  142.8430 C   0  0  0  0  0  1  0  0  0  0  0  0
  187.8720  177.5320  147.9660 Cl  0  0  0  0  0  0  0  0  0  0  0  0
  185.5490  178.3650  146.8020 C   0  0  0  0  0  3  0  0  0  0  0  0
  186.4870  177.9290  144.1960 C   0  0  0  0  0  0  0  0  0  0  0  0
  185.1740  178.4230  144.3950 C   0  0  0  0  0  0  0  0  0  0  0  0
  187.3050  177.6610  145.3000 C   0  0  0  0  0  3  0  0  0  0  0  0
  1  9  1  6  0  0  0
  1 14  1  0  0  0  0
  1  6  1  0  0  0  0
  2 13  1  0  0  0  0
  3 19  1  0  0  0  0
  3  2  1  0  0  0  0
  4  7  1  0  0  0  0
  5  2  1  0  0  0  0
  5 16  1  0  0  0  0
  6 17  1  0  0  0  0
  7  3  1  0  0  0  0
  8 21  1  0  0  0  0
 10 18  1  0  0  0  0
 11  4  1  0  0  0  0
 12  8  1  0  0  0  0
 13  8  1  0  0  0  0
 14  5  1  0  0  0  0
 15 11  1  0  0  0  0
 15 20  1  0  0  0  0
 16 12  1  0  0  0  0
 17 16  1  0  0  0  0
 18 13  1  0  0  0  0
 19 10  1  0  0  0  0
 20 19  1  0  0  0  0
 21 23  1  0  0  0  0
 23 22  2  0  0  0  0
 23 30  1  0  0  0  0
 24 28  1  0  0  0  0
 24 27  1  0  0  0  0
 25 28  2  0  0  0  0
 26 29  1  0  0  0  0
 29 30  2  0  0  0  0
 29 31  1  0  0  0  0
 30 25  1  0  0  0  0
 31 24  2  0  0  0  0
M  END
>  <MODEL>
5

>  <REMARK>
 VINA RESULT:      -8.2      4.050      5.539
  Name = 
  3 active torsions:
  status: ('A' for Active; 'I' for Inactive)
    1  A    between atoms: C_9  and  C_22
    2  A    between atoms: C_9  and  C_23
    3  A    between atoms: C_15  and  C_23
                            x       y       z     vdW  Elec       q    Type
                         _______ _______ _______ _____ _____    ______ ____

>  <TORSDO>
F 3

$$$$
=
 OpenBabel10262419373D

 31 35  0  0  1  0  0  0  0  0999 V2000
  190.5800  173.7310  135.9460 C   0  0  2  0  0  3  0  0  0  0  0  0
  188.2270  176.1520  137.8600 C   0  0  1  0  0  3  0  0  0  0  0  0
  186.9830  176.0590  136.9600 C   0  0  1  0  0  3  0  0  0  0  0  0
  185.2900  174.3190  136.2830 C   0  0  0  0  0  2  0  0  0  0  0  0
  189.4720  175.7030  137.0830 C   0  0  2  0  0  3  0  0  0  0  0  0
  191.8420  173.9740  136.7730 C   0  0  0  0  0  2  0  0  0  0  0  0
  186.0490  174.9600  137.4430 C   0  0  0  0  0  2  0  0  0  0  0  0
  189.7720  177.7540  139.1380 C   0  0  1  0  0  3  0  0  0  0  0  0
  190.6810  174.3610  134.7040 O   0  0  0  0  0  1  0  0  0  0  0  0
  186.6860  178.6230  137.1950 N   0  0  0  0  0  2  0  0  0  0  0  0
  184.3990  175.3100  135.5390 C   0  0  0  0  0  2  0  0  0  0  0  0
  190.8950  177.3010  138.3100 N   0  0  0  0  0  2  0  0  0  0  0  0
  188.4000  177.5390  138.4850 C   0  0  1  0  0  3  0  0  0  0  0  0
  189.3420  174.2250  136.6940 C   0  0  0  0  0  2  0  0  0  0  0  0
  185.2400  176.1660  134.5960 C   0  0  0  0  0  2  0  0  0  0  0  0
  190.7340  175.8990  137.9330 C   0  0  2  0  0  3  0  0  0  0  0  0
  191.9680  175.4450  137.1610 C   0  0  0  0  0  2  0  0  0  0  0  0
  188.1210  178.5920  137.4380 C   0  0  0  0  0  2  0  0  0  0  0  0
  186.1610  177.3460  136.6880 C   0  0  1  0  0  3  0  0  0  0  0  0
  185.7140  177.4780  135.2330 C   0  0  0  0  0  2  0  0  0  0  0  0
  189.8650  177.3190  140.6090 C   0  0  0  0  0  2  0  0  0  0  0  0
  188.5040  179.2000  141.0980 O   0  0  0  0  0  0  0  0  0  0  0  0
  189.0950  178.1870  141.5590 C   0  0  0  0  0  0  0  0  0  0  0  0
  188.8230  177.1510  145.7200 C   0  0  0  0  0  0  0  0  0  0  0  0
  187.8840  177.2140  143.4950 C   0  0  0  0  0  3  0  0  0  0  0  0
  191.3550  178.8000  143.4710 C   0  0  0  0  0  1  0  0  0  0  0  0
  188.7010  176.6960  147.4050 Cl  0  0  0  0  0  0  0  0  0  0  0  0
  187.7810  176.8590  144.8420 C   0  0  0  0  0  3  0  0  0  0  0  0
  190.0830  178.1570  143.9070 C   0  0  0  0  0  0  0  0  0  0  0  0
  189.0280  177.8650  143.0060 C   0  0  0  0  0  0  0  0  0  0  0  0
  189.9700  177.7940  145.2530 C   0  0  0  0  0  3  0  0  0  0  0  0
  1  9  1  6  0  0  0
  1 14  1  0  0  0  0
  1  6  1  0  0  0  0
  2 13  1  0  0  0  0
  3  7  1  0  0  0  0
  3  2  1  0  0  0  0
  4  7  1  0  0  0  0
  5  2  1  0  0  0  0
  5 16  1  0  0  0  0
  6 17  1  0  0  0  0
  8 21  1  0  0  0  0
 10 18  1  0  0  0  0
 11  4  1  0  0  0  0
 12  8  1  0  0  0  0
 13  8  1  0  0  0  0
 14  5  1  0  0  0  0
 15 20  1  0  0  0  0
 15 11  1  0  0  0  0
 16 12  1  0  0  0  0
 17 16  1  0  0  0  0
 18 13  1  0  0  0  0
 19  3  1  0  0  0  0
 19 10  1  0  0  0  0
 20 19  1  0  0  0  0
 21 23  1  0  0  0  0
 22 23  2  0  0  0  0
 23 30  1  0  0  0  0
 24 27  1  0  0  0  0
 25 28  1  0  0  0  0
 26 29  1  0  0  0  0
 28 24  2  0  0  0  0
 29 31  2  0  0  0  0
 30 25  2  0  0  0  0
 30 29  1  0  0  0  0
 31 24  1  0  0  0  0
M  END
>  <MODEL>
6

>  <REMARK>
 VINA RESULT:      -7.9      1.794      2.194
  Name = 
  3 active torsions:
  status: ('A' for Active; 'I' for Inactive)
    1  A    between atoms: C_9  and  C_22
    2  A    between atoms: C_9  and  C_23
    3  A    between atoms: C_15  and  C_23
                            x       y       z     vdW  Elec       q    Type
                         _______ _______ _______ _____ _____    ______ ____

>  <TORSDO>
F 3

$$$$
=
 OpenBabel10262419373D

 31 35  0  0  1  0  0  0  0  0999 V2000
  180.7730  180.3980  136.5030 C   0  0  2  0  0  3  0  0  0  0  0  0
  181.4060  177.8270  139.3400 C   0  0  1  0  0  3  0  0  0  0  0  0
  181.2960  176.5240  138.5290 C   0  0  1  0  0  3  0  0  0  0  0  0
  182.5440  175.3700  136.6670 C   0  0  0  0  0  2  0  0  0  0  0  0
  180.7060  178.9710  138.5920 C   0  0  2  0  0  3  0  0  0  0  0  0
  180.7300  181.6560  137.3710 C   0  0  0  0  0  2  0  0  0  0  0  0
  182.6600  176.1010  138.0040 C   0  0  0  0  0  2  0  0  0  0  0  0
  180.7110  179.0050  141.5110 C   0  0  1  0  0  3  0  0  0  0  0  0
  179.4870  180.0480  136.0880 O   0  0  0  0  0  1  0  0  0  0  0  0
  179.9450  175.4840  140.4800 N   0  0  0  0  0  2  0  0  0  0  0  0
  181.7290  174.0830  136.7650 C   0  0  0  0  0  2  0  0  0  0  0  0
  180.0230  180.0280  140.7140 N   0  0  0  0  0  2  0  0  0  0  0  0
  180.8950  177.6720  140.7750 C   0  0  1  0  0  3  0  0  0  0  0  0
  181.4210  179.2410  137.2630 C   0  0  0  0  0  2  0  0  0  0  0  0
  180.2380  174.4070  136.7870 C   0  0  0  0  0  2  0  0  0  0  0  0
  180.7100  180.2470  139.4430 C   0  0  2  0  0  3  0  0  0  0  0  0
  180.0210  181.3840  138.6950 C   0  0  0  0  0  2  0  0  0  0  0  0
  179.6120  176.8740  140.7610 C   0  0  0  0  0  2  0  0  0  0  0  0
  180.5940  175.3010  139.1730 C   0  0  1  0  0  3  0  0  0  0  0  0
  179.6750  174.5580  138.2050 C   0  0  0  0  0  2  0  0  0  0  0  0
  181.9610  179.5200  142.2430 C   0  0  0  0  0  2  0  0  0  0  0  0
  181.1800  178.5620  144.2680 O   0  0  0  0  0  0  0  0  0  0  0  0
  182.1860  178.9000  143.5890 C   0  0  0  0  0  0  0  0  0  0  0  0
  186.1060  178.2450  145.2240 C   0  0  0  0  0  0  0  0  0  0  0  0
  183.7780  178.8310  145.4940 C   0  0  0  0  0  3  0  0  0  0  0  0
  184.4990  178.0880  141.8200 C   0  0  0  0  0  1  0  0  0  0  0  0
  187.6870  177.9580  145.9160 Cl  0  0  0  0  0  0  0  0  0  0  0  0
  185.0410  178.6120  146.0450 C   0  0  0  0  0  3  0  0  0  0  0  0
  184.6460  178.3130  143.2870 C   0  0  0  0  0  0  0  0  0  0  0  0
  183.5580  178.6880  144.1140 C   0  0  0  0  0  0  0  0  0  0  0  0
  185.9070  178.0930  143.8510 C   0  0  0  0  0  3  0  0  0  0  0  0
  1  9  1  1  0  0  0
  1 14  1  0  0  0  0
  1  6  1  0  0  0  0
  2 13  1  0  0  0  0
  3 19  1  0  0  0  0
  3  2  1  0  0  0  0
  4 11  1  0  0  0  0
  4  7  1  0  0  0  0
  5  2  1  0  0  0  0
  5 16  1  0  0  0  0
  6 17  1  0  0  0  0
  7  3  1  0  0  0  0
  8 21  1  0  0  0  0
 10 18  1  0  0  0  0
 11 15  1  0  0  0  0
 12  8  1  0  0  0  0
 13  8  1  0  0  0  0
 14  5  1  0  0  0  0
 15 20  1  0  0  0  0
 16 12  1  0  0  0  0
 17 16  1  0  0  0  0
 18 13  1  0  0  0  0
 19 10  1  0  0  0  0
 20 19  1  0  0  0  0
 21 23  1  0  0  0  0
 23 30  1  0  0  0  0
 23 22  2  0  0  0  0
 24 27  1  0  0  0  0
 24 28  1  0  0  0  0
 25 28  2  0  0  0  0
 26 29  1  0  0  0  0
 29 31  1  0  0  0  0
 29 30  2  0  0  0  0
 30 25  1  0  0  0  0
 31 24  2  0  0  0  0
M  END
>  <MODEL>
7

>  <REMARK>
 VINA RESULT:      -7.6      6.656      8.744
  Name = 
  3 active torsions:
  status: ('A' for Active; 'I' for Inactive)
    1  A    between atoms: C_9  and  C_22
    2  A    between atoms: C_9  and  C_23
    3  A    between atoms: C_15  and  C_23
                            x       y       z     vdW  Elec       q    Type
                         _______ _______ _______ _____ _____    ______ ____

>  <TORSDO>
F 3

$$$$
=
 OpenBabel10262419373D

 31 35  0  0  1  0  0  0  0  0999 V2000
  185.2580  178.5110  139.3390 C   0  0  2  0  0  3  0  0  0  0  0  0
  182.6980  178.2160  142.2410 C   0  0  1  0  0  3  0  0  0  0  0  0
  181.3910  178.2590  141.4300 C   0  0  1  0  0  3  0  0  0  0  0  0
  180.2070  176.8410  139.7160 C   0  0  0  0  0  2  0  0  0  0  0  0
  183.8460  178.8170  141.4180 C   0  0  2  0  0  3  0  0  0  0  0  0
  186.5220  178.6260  140.1900 C   0  0  0  0  0  2  0  0  0  0  0  0
  180.9460  176.8550  141.0530 C   0  0  0  0  0  2  0  0  0  0  0  0
  183.9020  179.1160  144.3210 C   0  0  1  0  0  3  0  0  0  0  0  0
  184.9230  179.7520  138.7940 O   0  0  0  0  0  1  0  0  0  0  0  0
  180.3840  179.8220  143.2350 N   0  0  0  0  0  2  0  0  0  0  0  0
  178.9320  177.6800  139.7350 C   0  0  0  0  0  2  0  0  0  0  0  0
  184.9280  179.7020  143.4510 N   0  0  0  0  0  2  0  0  0  0  0  0
  182.5610  178.8770  143.6160 C   0  0  1  0  0  3  0  0  0  0  0  0
  184.0970  177.9630  140.1690 C   0  0  0  0  0  2  0  0  0  0  0  0
  179.2770  179.1610  139.5990 C   0  0  0  0  0  2  0  0  0  0  0  0
  185.1290  178.8830  142.2570 C   0  0  2  0  0  3  0  0  0  0  0  0
  186.2690  179.4740  141.4350 C   0  0  0  0  0  2  0  0  0  0  0  0
  181.7800  180.1620  143.4720 C   0  0  0  0  0  2  0  0  0  0  0  0
  180.1830  179.0430  142.0040 C   0  0  1  0  0  3  0  0  0  0  0  0
  179.4450  179.8670  140.9500 C   0  0  0  0  0  2  0  0  0  0  0  0
  184.4040  177.9420  145.1770 C   0  0  0  0  0  2  0  0  0  0  0  0
  185.2550  179.0000  147.1220 O   0  0  0  0  0  0  0  0  0  0  0  0
  185.5210  178.2950  146.1120 C   0  0  0  0  0  0  0  0  0  0  0  0
  189.5250  176.9900  145.2590 C   0  0  0  0  0  0  0  0  0  0  0  0
  187.2710  177.4890  144.5460 C   0  0  0  0  0  3  0  0  0  0  0  0
  187.6050  178.1260  148.2950 C   0  0  0  0  0  1  0  0  0  0  0  0
  191.1560  176.4810  144.8830 Cl  0  0  0  0  0  0  0  0  0  0  0  0
  188.5690  177.0730  144.2470 C   0  0  0  0  0  3  0  0  0  0  0  0
  187.8850  177.7400  146.8820 C   0  0  0  0  0  0  0  0  0  0  0  0
  186.9060  177.8270  145.8600 C   0  0  0  0  0  0  0  0  0  0  0  0
  189.1840  177.3250  146.5690 C   0  0  0  0  0  3  0  0  0  0  0  0
  1  9  1  1  0  0  0
  1 14  1  0  0  0  0
  1  6  1  0  0  0  0
  2 13  1  0  0  0  0
  3 19  1  0  0  0  0
  3  2  1  0  0  0  0
  4 11  1  0  0  0  0
  4  7  1  0  0  0  0
  5  2  1  0  0  0  0
  5 16  1  0  0  0  0
  6 17  1  0  0  0  0
  7  3  1  0  0  0  0
  8 21  1  0  0  0  0
 10 18  1  0  0  0  0
 12  8  1  0  0  0  0
 13  8  1  0  0  0  0
 14  5  1  0  0  0  0
 15 11  1  0  0  0  0
 15 20  1  0  0  0  0
 16 12  1  0  0  0  0
 17 16  1  0  0  0  0
 18 13  1  0  0  0  0
 19 10  1  0  0  0  0
 20 19  1  0  0  0  0
 21 23  1  0  0  0  0
 23 22  2  0  0  0  0
 24 31  1  0  0  0  0
 25 30  2  0  0  0  0
 27 24  1  0  0  0  0
 28 25  1  0  0  0  0
 28 24  2  0  0  0  0
 29 26  1  0  0  0  0
 30 23  1  0  0  0  0
 30 29  1  0  0  0  0
 31 29  2  0  0  0  0
M  END
>  <MODEL>
8

>  <REMARK>
 VINA RESULT:      -7.6      5.181      7.165
  Name = 
  3 active torsions:
  status: ('A' for Active; 'I' for Inactive)
    1  A    between atoms: C_9  and  C_22
    2  A    between atoms: C_9  and  C_23
    3  A    between atoms: C_15  and  C_23
                            x       y       z     vdW  Elec       q    Type
                         _______ _______ _______ _____ _____    ______ ____

>  <TORSDO>
F 3

$$$$
=
 OpenBabel10262419373D

 31 35  0  0  1  0  0  0  0  0999 V2000
  186.4110  177.8740  147.0070 C   0  0  2  0  0  3  0  0  0  0  0  0
  186.9750  177.5820  143.1790 C   0  0  1  0  0  3  0  0  0  0  0  0
  188.4970  177.3580  143.1640 C   0  0  1  0  0  3  0  0  0  0  0  0
  190.1370  175.6070  143.9380 C   0  0  0  0  0  2  0  0  0  0  0  0
  186.5530  178.2300  144.5040 C   0  0  2  0  0  3  0  0  0  0  0  0
  184.9300  178.2530  146.9680 C   0  0  0  0  0  2  0  0  0  0  0  0
  188.8230  175.8730  143.2050 C   0  0  0  0  0  2  0  0  0  0  0  0
  185.0380  178.8680  142.0920 C   0  0  1  0  0  3  0  0  0  0  0  0
  187.1910  178.9880  147.3220 O   0  0  0  0  0  1  0  0  0  0  0  0
  188.6630  178.9730  141.1440 N   0  0  0  0  0  2  0  0  0  0  0  0
  191.3360  176.2670  143.2620 C   0  0  0  0  0  2  0  0  0  0  0  0
  184.7400  179.4790  143.3920 N   0  0  0  0  0  2  0  0  0  0  0  0
  186.4840  178.3730  141.9630 C   0  0  1  0  0  3  0  0  0  0  0  0
  186.8500  177.2780  145.6700 C   0  0  0  0  0  2  0  0  0  0  0  0
  191.3760  177.7540  143.6020 C   0  0  0  0  0  2  0  0  0  0  0  0
  185.0550  178.5620  144.4850 C   0  0  2  0  0  3  0  0  0  0  0  0
  184.6370  179.1980  145.8060 C   0  0  0  0  0  2  0  0  0  0  0  0
  187.4340  179.5190  141.7010 C   0  0  0  0  0  2  0  0  0  0  0  0
  189.3410  178.0360  142.0540 C   0  0  1  0  0  3  0  0  0  0  0  0
  190.6510  178.6280  142.5720 C   0  0  0  0  0  2  0  0  0  0  0  0
  183.9680  177.8770  141.6070 C   0  0  0  0  0  2  0  0  0  0  0  0
  182.4050  179.0030  140.2210 O   0  0  0  0  0  0  0  0  0  0  0  0
  183.3830  178.2090  140.2670 C   0  0  0  0  0  0  0  0  0  0  0  0
  185.1100  176.5550  136.6970 C   0  0  0  0  0  0  0  0  0  0  0  0
  185.0350  178.2530  138.4140 C   0  0  0  0  0  3  0  0  0  0  0  0
  182.3030  175.6630  139.0460 C   0  0  0  0  0  1  0  0  0  0  0  0
  185.8460  175.8860  135.2580 Cl  0  0  0  0  0  0  0  0  0  0  0  0
  185.6170  177.7250  137.2600 C   0  0  0  0  0  3  0  0  0  0  0  0
  183.4310  176.4310  138.4440 C   0  0  0  0  0  0  0  0  0  0  0  0
  183.9380  177.6210  139.0230 C   0  0  0  0  0  0  0  0  0  0  0  0
  184.0240  175.9100  137.2890 C   0  0  0  0  0  3  0  0  0  0  0  0
  1  9  1  6  0  0  0
  2  5  1  0  0  0  0
  3  2  1  0  0  0  0
  3  7  1  0  0  0  0
  5 14  1  0  0  0  0
  6  1  1  0  0  0  0
  7  4  1  0  0  0  0
  8 12  1  0  0  0  0
 10 18  1  0  0  0  0
 10 19  1  0  0  0  0
 11 15  1  0  0  0  0
 11  4  1  0  0  0  0
 12 16  1  0  0  0  0
 13  8  1  0  0  0  0
 13  2  1  0  0  0  0
 14  1  1  0  0  0  0
 16  5  1  0  0  0  0
 16 17  1  0  0  0  0
 17  6  1  0  0  0  0
 18 13  1  0  0  0  0
 19 20  1  0  0  0  0
 19  3  1  0  0  0  0
 20 15  1  0  0  0  0
 21  8  1  0  0  0  0
 22 23  2  0  0  0  0
 23 21  1  0  0  0  0
 24 28  2  0  0  0  0
 24 31  1  0  0  0  0
 25 30  2  0  0  0  0
 27 24  1  0  0  0  0
 28 25  1  0  0  0  0
 29 30  1  0  0  0  0
 29 26  1  0  0  0  0
 30 23  1  0  0  0  0
 31 29  2  0  0  0  0
M  END
>  <MODEL>
9

>  <REMARK>
 VINA RESULT:      -7.6      4.397      8.554
  Name = 
  3 active torsions:
  status: ('A' for Active; 'I' for Inactive)
    1  A    between atoms: C_9  and  C_22
    2  A    between atoms: C_9  and  C_23
    3  A    between atoms: C_15  and  C_23
                            x       y       z     vdW  Elec       q    Type
                         _______ _______ _______ _____ _____    ______ ____

>  <TORSDO>
F 3

$$$$
