=
 OpenBabel10262422433D

 43 48  0  0  1  0  0  0  0  0999 V2000
  194.4380  174.2700  136.1700 C   0  0  0  0  0  2  0  0  0  0  0  0
  191.1600  176.0400  139.0060 C   0  0  1  0  0  3  0  0  0  0  0  0
  189.7790  176.9750  137.0850 C   0  0  0  0  0  2  0  0  0  0  0  0
  192.5920  175.9820  136.4100 C   0  0  2  0  0  3  0  0  0  0  0  0
  192.2920  172.8520  135.9890 C   0  0  0  0  0  2  0  0  0  0  0  0
  193.8180  172.8950  135.9120 C   0  0  0  0  0  2  0  0  0  0  0  0
  191.3730  175.0680  136.6790 C   0  0  1  0  0  3  0  0  0  0  0  0
  193.6710  175.4010  135.4910 C   0  0  0  0  0  2  0  0  0  0  0  0
  191.7460  173.6630  137.1530 C   0  0  0  0  0  2  0  0  0  0  0  0
  188.8690  177.6570  138.1020 C   0  0  1  0  0  3  0  0  0  0  0  0
  190.4230  175.7220  137.6880 C   0  0  1  0  0  3  0  0  0  0  0  0
  192.4900  176.7320  138.7910 C   0  0  0  0  0  3  0  0  0  0  0  0
  190.2390  176.7730  139.9940 C   0  0  2  0  0  3  0  0  0  0  0  0
  189.6470  178.0330  139.3640 C   0  0  0  0  0  2  0  0  0  0  0  0
  193.1620  176.6580  137.6330 C   0  0  0  0  0  3  0  0  0  0  0  0
  188.2020  178.8460  137.4790 C   0  0  0  0  0  0  0  0  0  0  0  0
  186.8050  178.8190  137.1770 N   0  0  0  0  0  2  0  0  0  0  0  0
  188.8820  179.8590  137.1620 O   0  0  0  0  0  0  0  0  0  0  0  0
  186.2020  176.5670  136.4770 C   0  0  0  0  0  2  0  0  0  0  0  0
  185.9640  175.2700  137.0950 N   0  0  0  0  0  2  0  0  0  0  0  0
  183.7530  175.2070  138.1200 C   0  0  0  0  0  2  0  0  0  0  0  0
  185.9580  177.6780  137.4900 C   0  0  2  0  0  3  0  0  0  0  0  0
  184.5750  174.8910  136.8750 C   0  0  2  0  0  3  0  0  0  0  0  0
  184.6160  178.0700  137.4470 O   0  0  0  0  0  0  0  0  0  0  0  0
  183.9930  177.3930  138.5040 C   0  0  2  0  0  3  0  0  0  0  0  0
  183.1070  176.4410  137.9870 O   0  0  0  0  0  0  0  0  0  0  0  0
  184.5110  173.4000  136.6130 C   0  0  0  0  0  1  0  0  0  0  0  0
  183.2530  178.3810  139.4070 C   0  0  0  0  0  2  0  0  0  0  0  0
  183.9300  178.5640  140.7260 C   0  0  0  0  0  0  0  0  0  0  0  0
  183.8100  178.6940  143.1430 C   0  0  0  0  0  3  0  0  0  0  0  0
  185.9290  179.0280  142.0170 C   0  0  0  0  0  3  0  0  0  0  0  0
  185.1820  178.9580  143.1970 C   0  0  0  0  0  3  0  0  0  0  0  0
  185.3050  178.8280  140.7840 C   0  0  0  0  0  3  0  0  0  0  0  0
  183.1840  178.5010  141.9090 C   0  0  0  0  0  3  0  0  0  0  0  0
  190.9540  177.0900  141.3030 C   0  0  0  0  0  2  0  0  0  0  0  0
  189.3190  178.1340  144.5540 C   0  0  0  0  0  3  0  0  0  0  0  0
  188.2090  177.2840  144.6000 C   0  0  0  0  0  0  0  0  0  0  0  0
  188.8800  176.3180  142.4760 C   0  0  0  0  0  3  0  0  0  0  0  0
  190.2080  178.0780  143.4760 C   0  0  0  0  0  3  0  0  0  0  0  0
  189.9910  177.1690  142.4370 C   0  0  0  0  0  0  0  0  0  0  0  0
  187.9910  176.3760  143.5510 C   0  0  0  0  0  3  0  0  0  0  0  0
  187.7870  177.4290  147.0330 C   0  0  0  0  0  1  0  0  0  0  0  0
  187.3350  177.3700  145.6880 O   0  0  0  0  0  0  0  0  0  0  0  0
  2 12  1  6  0  0  0
  2 13  1  0  0  0  0
  3 10  1  0  0  0  0
  4  8  1  1  0  0  0
  4  7  1  0  0  0  0
  4 15  1  0  0  0  0
  5  9  1  0  0  0  0
  6  5  1  0  0  0  0
  6  1  1  0  0  0  0
  7  9  1  1  0  0  0
  7 11  1  0  0  0  0
  8  1  1  0  0  0  0
 10 16  1  6  0  0  0
 10 14  1  0  0  0  0
 11  3  1  6  0  0  0
 11  2  1  0  0  0  0
 13 35  1  1  0  0  0
 14 13  1  0  0  0  0
 15 12  2  0  0  0  0
 17 16  1  0  0  0  0
 18 16  2  0  0  0  0
 19 20  1  0  0  0  0
 19 22  1  0  0  0  0
 22 17  1  6  0  0  0
 23 27  1  1  0  0  0
 23 20  1  0  0  0  0
 23 21  1  0  0  0  0
 24 22  1  0  0  0  0
 24 25  1  0  0  0  0
 25 28  1  1  0  0  0
 26 21  1  0  0  0  0
 26 25  1  0  0  0  0
 28 29  1  0  0  0  0
 29 33  2  0  0  0  0
 29 34  1  0  0  0  0
 30 32  1  0  0  0  0
 31 32  2  0  0  0  0
 33 31  1  0  0  0  0
 34 30  2  0  0  0  0
 35 40  1  0  0  0  0
 36 37  1  0  0  0  0
 37 43  1  0  0  0  0
 38 41  1  0  0  0  0
 39 36  2  0  0  0  0
 40 38  2  0  0  0  0
 40 39  1  0  0  0  0
 41 37  2  0  0  0  0
 43 42  1  0  0  0  0
M  END
>  <MODEL>
1

>  <REMARK>
 VINA RESULT:      -9.3      0.000      0.000
  Name = 
  7 active torsions:
  status: ('A' for Active; 'I' for Inactive)
    1  A    between atoms: C_1  and  C_34
    2  A    between atoms: C_1  and  C_35
    3  A    between atoms: C_2  and  C_27
    4  A    between atoms: N_6  and  C_12
    5  A    between atoms: C_11  and  C_14
    6  A    between atoms: C_14  and  C_22
    7  A    between atoms: C_19  and  O_37
                            x       y       z     vdW  Elec       q    Type
                         _______ _______ _______ _____ _____    ______ ____

>  <TORSDO>
F 7

$$$$
=
 OpenBabel10262422433D

 43 48  0  0  1  0  0  0  0  0999 V2000
  184.9870  172.9940  134.6950 C   0  0  0  0  0  2  0  0  0  0  0  0
  188.9040  174.6820  136.6270 C   0  0  1  0  0  3  0  0  0  0  0  0
  187.7060  176.6380  137.7270 C   0  0  0  0  0  2  0  0  0  0  0  0
  186.1260  175.0390  135.6530 C   0  0  2  0  0  3  0  0  0  0  0  0
  184.9480  172.5550  137.2360 C   0  0  0  0  0  2  0  0  0  0  0  0
  184.5190  172.0960  135.8420 C   0  0  0  0  0  2  0  0  0  0  0  0
  186.4200  174.5660  137.0970 C   0  0  1  0  0  3  0  0  0  0  0  0
  184.8510  174.4800  135.0140 C   0  0  0  0  0  2  0  0  0  0  0  0
  186.3860  173.0470  137.2690 C   0  0  0  0  0  2  0  0  0  0  0  0
  189.0590  177.1930  138.1610 C   0  0  1  0  0  3  0  0  0  0  0  0
  187.7680  175.1140  137.5780 C   0  0  1  0  0  3  0  0  0  0  0  0
  188.5730  174.9040  135.1660 C   0  0  0  0  0  3  0  0  0  0  0  0
  190.2470  175.2950  137.0520 C   0  0  2  0  0  3  0  0  0  0  0  0
  190.1490  176.8170  137.1550 C   0  0  0  0  0  2  0  0  0  0  0  0
  187.3130  175.0100  134.7210 C   0  0  0  0  0  3  0  0  0  0  0  0
  188.9670  178.6750  138.3590 C   0  0  0  0  0  0  0  0  0  0  0  0
  188.9730  179.2330  139.6760 N   0  0  0  0  0  2  0  0  0  0  0  0
  188.8230  179.4390  137.3670 O   0  0  0  0  0  0  0  0  0  0  0  0
  190.4010  177.6130  140.7980 C   0  0  0  0  0  2  0  0  0  0  0  0
  190.9110  177.3670  142.1410 N   0  0  0  0  0  2  0  0  0  0  0  0
  189.1900  176.3490  143.5340 C   0  0  0  0  0  2  0  0  0  0  0  0
  189.1090  178.4160  140.8720 C   0  0  2  0  0  3  0  0  0  0  0  0
  190.3850  176.0960  142.6200 C   0  0  2  0  0  3  0  0  0  0  0  0
  188.0170  177.5470  140.9690 O   0  0  0  0  0  0  0  0  0  0  0  0
  187.6980  177.4940  142.3310 C   0  0  2  0  0  3  0  0  0  0  0  0
  187.9890  176.2190  142.8270 O   0  0  0  0  0  0  0  0  0  0  0  0
  191.4650  175.3880  143.4110 C   0  0  0  0  0  1  0  0  0  0  0  0
  186.2210  177.8300  142.5470 C   0  0  0  0  0  2  0  0  0  0  0  0
  185.9010  178.0940  143.9820 C   0  0  0  0  0  0  0  0  0  0  0  0
  184.3300  178.8180  145.6790 C   0  0  0  0  0  3  0  0  0  0  0  0
  186.5850  178.1910  146.3060 C   0  0  0  0  0  3  0  0  0  0  0  0
  185.3090  178.6410  146.6610 C   0  0  0  0  0  3  0  0  0  0  0  0
  186.8800  177.9150  144.9690 C   0  0  0  0  0  3  0  0  0  0  0  0
  184.6260  178.5490  144.3400 C   0  0  0  0  0  3  0  0  0  0  0  0
  191.3800  174.8730  136.1230 C   0  0  0  0  0  2  0  0  0  0  0  0
  194.4040  175.2080  138.3770 C   0  0  0  0  0  3  0  0  0  0  0  0
  194.9580  173.9260  138.3010 C   0  0  0  0  0  0  0  0  0  0  0  0
  193.1590  173.2520  136.8160 C   0  0  0  0  0  3  0  0  0  0  0  0
  193.2330  175.5150  137.6760 C   0  0  0  0  0  3  0  0  0  0  0  0
  192.6110  174.5380  136.8930 C   0  0  0  0  0  0  0  0  0  0  0  0
  194.3270  172.9460  137.5180 C   0  0  0  0  0  3  0  0  0  0  0  0
  196.8400  174.6450  139.7370 C   0  0  0  0  0  1  0  0  0  0  0  0
  196.1240  173.6490  139.0200 O   0  0  0  0  0  0  0  0  0  0  0  0
  1  8  1  0  0  0  0
  1  6  1  0  0  0  0
  2 12  1  6  0  0  0
  2 13  1  0  0  0  0
  2 11  1  0  0  0  0
  3 10  1  0  0  0  0
  4 15  1  6  0  0  0
  4  7  1  0  0  0  0
  5  9  1  0  0  0  0
  6  5  1  0  0  0  0
  7  9  1  6  0  0  0
  7 11  1  0  0  0  0
  8  4  1  0  0  0  0
 10 16  1  6  0  0  0
 11  3  1  6  0  0  0
 13 35  1  6  0  0  0
 13 14  1  0  0  0  0
 14 10  1  0  0  0  0
 15 12  2  0  0  0  0
 16 17  1  0  0  0  0
 18 16  2  0  0  0  0
 19 22  1  0  0  0  0
 19 20  1  0  0  0  0
 20 23  1  0  0  0  0
 22 17  1  6  0  0  0
 22 24  1  0  0  0  0
 23 27  1  1  0  0  0
 23 21  1  0  0  0  0
 24 25  1  0  0  0  0
 25 28  1  6  0  0  0
 25 26  1  0  0  0  0
 26 21  1  0  0  0  0
 28 29  1  0  0  0  0
 29 34  2  0  0  0  0
 29 33  1  0  0  0  0
 30 32  2  0  0  0  0
 31 32  1  0  0  0  0
 33 31  2  0  0  0  0
 34 30  1  0  0  0  0
 35 40  1  0  0  0  0
 37 36  1  0  0  0  0
 37 43  1  0  0  0  0
 38 40  2  0  0  0  0
 38 41  1  0  0  0  0
 39 36  2  0  0  0  0
 40 39  1  0  0  0  0
 41 37  2  0  0  0  0
 43 42  1  0  0  0  0
M  END
>  <MODEL>
2

>  <REMARK>
 VINA RESULT:      -7.5      2.678      6.483
  Name = 
  7 active torsions:
  status: ('A' for Active; 'I' for Inactive)
    1  A    between atoms: C_1  and  C_34
    2  A    between atoms: C_1  and  C_35
    3  A    between atoms: C_2  and  C_27
    4  A    between atoms: N_6  and  C_12
    5  A    between atoms: C_11  and  C_14
    6  A    between atoms: C_14  and  C_22
    7  A    between atoms: C_19  and  O_37
                            x       y       z     vdW  Elec       q    Type
                         _______ _______ _______ _____ _____    ______ ____

>  <TORSDO>
F 7

$$$$
=
 OpenBabel10262422433D

 43 48  0  0  1  0  0  0  0  0999 V2000
  191.6250  177.4690  145.0890 C   0  0  0  0  0  2  0  0  0  0  0  0
  187.9450  177.5790  142.1950 C   0  0  1  0  0  3  0  0  0  0  0  0
  189.3920  177.6410  140.1040 C   0  0  0  0  0  2  0  0  0  0  0  0
  190.8070  178.0910  142.7780 C   0  0  2  0  0  3  0  0  0  0  0  0
  191.3920  175.1860  143.9110 C   0  0  0  0  0  2  0  0  0  0  0  0
  191.8340  175.9540  145.1570 C   0  0  0  0  0  2  0  0  0  0  0  0
  190.3250  176.7180  142.2540 C   0  0  1  0  0  3  0  0  0  0  0  0
  192.0040  178.0580  143.7330 C   0  0  0  0  0  2  0  0  0  0  0  0
  190.0690  175.6900  143.3570 C   0  0  0  0  0  2  0  0  0  0  0  0
  188.1330  177.8490  139.2670 C   0  0  1  0  0  3  0  0  0  0  0  0
  189.0660  176.8830  141.3950 C   0  0  1  0  0  3  0  0  0  0  0  0
  188.4210  178.8140  142.9320 C   0  0  0  0  0  3  0  0  0  0  0  0
  186.7080  177.8260  141.3180 C   0  0  2  0  0  3  0  0  0  0  0  0
  187.0720  178.6140  140.0610 C   0  0  0  0  0  2  0  0  0  0  0  0
  189.7090  179.0160  143.2430 C   0  0  0  0  0  3  0  0  0  0  0  0
  188.4780  178.5400  137.9830 C   0  0  0  0  0  0  0  0  0  0  0  0
  188.1480  177.9420  136.7260 N   0  0  0  0  0  2  0  0  0  0  0  0
  189.1170  179.6260  138.0000 O   0  0  0  0  0  0  0  0  0  0  0  0
  188.4130  175.5670  136.2670 C   0  0  0  0  0  2  0  0  0  0  0  0
  187.9480  174.3000  136.8170 N   0  0  0  0  0  2  0  0  0  0  0  0
  185.6540  173.8600  136.1240 C   0  0  0  0  0  2  0  0  0  0  0  0
  187.4350  176.6780  136.6240 C   0  0  2  0  0  3  0  0  0  0  0  0
  187.1290  173.6250  135.8200 C   0  0  2  0  0  3  0  0  0  0  0  0
  186.4520  176.7780  135.6340 O   0  0  0  0  0  0  0  0  0  0  0  0
  185.3480  176.0720  136.1280 C   0  0  2  0  0  3  0  0  0  0  0  0
  185.1520  174.9190  135.3590 O   0  0  0  0  0  0  0  0  0  0  0  0
  187.4100  172.1380  135.8830 C   0  0  0  0  0  1  0  0  0  0  0  0
  184.0970  176.9510  136.1040 C   0  0  0  0  0  2  0  0  0  0  0  0
  183.0720  176.5120  137.0990 C   0  0  0  0  0  0  0  0  0  0  0  0
  180.7500  176.2530  137.7390 C   0  0  0  0  0  3  0  0  0  0  0  0
  182.5080  175.6140  139.2790 C   0  0  0  0  0  3  0  0  0  0  0  0
  181.1480  175.7410  138.9780 C   0  0  0  0  0  3  0  0  0  0  0  0
  183.4690  175.9970  138.3400 C   0  0  0  0  0  3  0  0  0  0  0  0
  181.7100  176.6430  136.8030 C   0  0  0  0  0  3  0  0  0  0  0  0
  185.5910  178.5100  142.0980 C   0  0  0  0  0  2  0  0  0  0  0  0
  183.4700  179.5340  139.1330 C   0  0  0  0  0  3  0  0  0  0  0  0
  182.1780  179.2980  139.6130 C   0  0  0  0  0  0  0  0  0  0  0  0
  183.1150  178.5230  141.7140 C   0  0  0  0  0  3  0  0  0  0  0  0
  184.5830  179.2690  139.9380 C   0  0  0  0  0  3  0  0  0  0  0  0
  184.4060  178.7650  141.2300 C   0  0  0  0  0  0  0  0  0  0  0  0
  182.0050  178.7860  140.9090 C   0  0  0  0  0  3  0  0  0  0  0  0
  181.2060  180.3070  137.5740 C   0  0  0  0  0  1  0  0  0  0  0  0
  181.0870  179.5660  138.7800 O   0  0  0  0  0  0  0  0  0  0  0  0
  1  6  1  0  0  0  0
  2 12  1  6  0  0  0
  4 15  1  1  0  0  0
  4  8  1  0  0  0  0
  5  6  1  0  0  0  0
  7  4  1  0  0  0  0
  7  9  1  1  0  0  0
  8  1  1  0  0  0  0
  9  5  1  0  0  0  0
 10 16  1  6  0  0  0
 10 14  1  0  0  0  0
 10  3  1  0  0  0  0
 11  3  1  6  0  0  0
 11  2  1  0  0  0  0
 11  7  1  0  0  0  0
 12 15  2  0  0  0  0
 13 35  1  1  0  0  0
 13  2  1  0  0  0  0
 14 13  1  0  0  0  0
 16 18  2  0  0  0  0
 17 16  1  0  0  0  0
 19 22  1  0  0  0  0
 19 20  1  0  0  0  0
 22 17  1  6  0  0  0
 23 27  1  1  0  0  0
 23 21  1  0  0  0  0
 23 20  1  0  0  0  0
 24 25  1  0  0  0  0
 24 22  1  0  0  0  0
 25 28  1  6  0  0  0
 26 21  1  0  0  0  0
 26 25  1  0  0  0  0
 28 29  1  0  0  0  0
 29 33  1  0  0  0  0
 30 32  2  0  0  0  0
 32 31  1  0  0  0  0
 33 31  2  0  0  0  0
 34 29  2  0  0  0  0
 34 30  1  0  0  0  0
 36 37  2  0  0  0  0
 36 39  1  0  0  0  0
 37 41  1  0  0  0  0
 39 40  2  0  0  0  0
 40 38  1  0  0  0  0
 40 35  1  0  0  0  0
 41 38  2  0  0  0  0
 42 43  1  0  0  0  0
 43 37  1  0  0  0  0
M  END
>  <MODEL>
3

>  <REMARK>
 VINA RESULT:      -6.6      2.947      5.858
  Name = 
  7 active torsions:
  status: ('A' for Active; 'I' for Inactive)
    1  A    between atoms: C_1  and  C_34
    2  A    between atoms: C_1  and  C_35
    3  A    between atoms: C_2  and  C_27
    4  A    between atoms: N_6  and  C_12
    5  A    between atoms: C_11  and  C_14
    6  A    between atoms: C_14  and  C_22
    7  A    between atoms: C_19  and  O_37
                            x       y       z     vdW  Elec       q    Type
                         _______ _______ _______ _____ _____    ______ ____

>  <TORSDO>
F 7

$$$$
=
 OpenBabel10262422433D

 43 48  0  0  1  0  0  0  0  0999 V2000
  182.7030  174.1490  135.0170 C   0  0  0  0  0  2  0  0  0  0  0  0
  187.0620  174.5590  136.6750 C   0  0  1  0  0  3  0  0  0  0  0  0
  186.7540  177.0000  137.3230 C   0  0  0  0  0  2  0  0  0  0  0  0
  184.5800  175.7500  135.5720 C   0  0  2  0  0  3  0  0  0  0  0  0
  182.6320  174.2690  137.5920 C   0  0  0  0  0  2  0  0  0  0  0  0
  181.9890  173.7430  136.3080 C   0  0  0  0  0  2  0  0  0  0  0  0
  184.7470  175.4960  137.0890 C   0  0  1  0  0  3  0  0  0  0  0  0
  183.1570  175.6060  135.0250 C   0  0  0  0  0  2  0  0  0  0  0  0
  184.1490  174.1710  137.5640 C   0  0  0  0  0  2  0  0  0  0  0  0
  188.2380  177.0700  137.6720 C   0  0  1  0  0  3  0  0  0  0  0  0
  186.2260  175.5700  137.4870 C   0  0  1  0  0  3  0  0  0  0  0  0
  186.7640  174.5980  135.1910 C   0  0  0  0  0  3  0  0  0  0  0  0
  188.5580  174.6840  137.0050 C   0  0  2  0  0  3  0  0  0  0  0  0
  189.0500  176.1160  136.7940 C   0  0  0  0  0  2  0  0  0  0  0  0
  185.6170  175.0860  134.6990 C   0  0  0  0  0  3  0  0  0  0  0  0
  188.7250  178.4830  137.5640 C   0  0  0  0  0  0  0  0  0  0  0  0
  189.0340  179.2360  138.7400 N   0  0  0  0  0  2  0  0  0  0  0  0
  188.8100  179.0380  136.4360 O   0  0  0  0  0  0  0  0  0  0  0  0
  189.9040  177.5070  140.2140 C   0  0  0  0  0  2  0  0  0  0  0  0
  190.3470  177.3860  141.5970 N   0  0  0  0  0  2  0  0  0  0  0  0
  188.4300  177.2630  143.0970 C   0  0  0  0  0  2  0  0  0  0  0  0
  188.9360  178.6740  140.0780 C   0  0  2  0  0  3  0  0  0  0  0  0
  189.4580  176.4690  142.2980 C   0  0  2  0  0  3  0  0  0  0  0  0
  187.6290  178.2320  140.3030 O   0  0  0  0  0  0  0  0  0  0  0  0
  187.3460  178.5560  141.6360 C   0  0  2  0  0  3  0  0  0  0  0  0
  187.2310  177.3800  142.3850 O   0  0  0  0  0  0  0  0  0  0  0  0
  190.2790  175.6290  143.2550 C   0  0  0  0  0  1  0  0  0  0  0  0
  186.0580  179.3770  141.7240 C   0  0  0  0  0  2  0  0  0  0  0  0
  184.9690  178.8230  140.8650 C   0  0  0  0  0  0  0  0  0  0  0  0
  183.0700  177.3440  140.5820 C   0  0  0  0  0  3  0  0  0  0  0  0
  183.8530  178.6790  138.7170 C   0  0  0  0  0  3  0  0  0  0  0  0
  182.9590  177.7420  139.2460 C   0  0  0  0  0  3  0  0  0  0  0  0
  184.8550  179.2210  139.5260 C   0  0  0  0  0  3  0  0  0  0  0  0
  184.0760  177.8810  141.3890 C   0  0  0  0  0  3  0  0  0  0  0  0
  189.3950  173.6870  136.2120 C   0  0  0  0  0  2  0  0  0  0  0  0
  192.6000  174.7780  137.9070 C   0  0  0  0  0  3  0  0  0  0  0  0
  193.5500  173.9820  137.2590 C   0  0  0  0  0  0  0  0  0  0  0  0
  191.7810  172.9730  135.9370 C   0  0  0  0  0  3  0  0  0  0  0  0
  191.2460  174.6760  137.5740 C   0  0  0  0  0  3  0  0  0  0  0  0
  190.8350  173.7750  136.5870 C   0  0  0  0  0  0  0  0  0  0  0  0
  193.1330  173.0750  136.2720 C   0  0  0  0  0  3  0  0  0  0  0  0
  195.6300  173.0390  138.2090 C   0  0  0  0  0  1  0  0  0  0  0  0
  194.8950  174.1030  137.6210 O   0  0  0  0  0  0  0  0  0  0  0  0
  1  8  1  0  0  0  0
  1  6  1  0  0  0  0
  2 12  1  6  0  0  0
  2 13  1  0  0  0  0
  2 11  1  0  0  0  0
  3 10  1  0  0  0  0
  4 15  1  6  0  0  0
  4  7  1  0  0  0  0
  6  5  1  0  0  0  0
  7 11  1  0  0  0  0
  7  9  1  6  0  0  0
  8  4  1  0  0  0  0
  9  5  1  0  0  0  0
 10 16  1  6  0  0  0
 11  3  1  6  0  0  0
 13 35  1  6  0  0  0
 14 13  1  0  0  0  0
 14 10  1  0  0  0  0
 15 12  2  0  0  0  0
 16 17  1  0  0  0  0
 18 16  2  0  0  0  0
 19 20  1  0  0  0  0
 20 23  1  0  0  0  0
 22 17  1  6  0  0  0
 22 19  1  0  0  0  0
 22 24  1  0  0  0  0
 23 21  1  0  0  0  0
 23 27  1  1  0  0  0
 24 25  1  0  0  0  0
 25 28  1  6  0  0  0
 25 26  1  0  0  0  0
 26 21  1  0  0  0  0
 29 34  1  0  0  0  0
 29 28  1  0  0  0  0
 30 34  2  0  0  0  0
 31 32  2  0  0  0  0
 31 33  1  0  0  0  0
 32 30  1  0  0  0  0
 33 29  2  0  0  0  0
 35 40  1  0  0  0  0
 37 43  1  0  0  0  0
 37 36  2  0  0  0  0
 38 41  2  0  0  0  0
 38 40  1  0  0  0  0
 39 36  1  0  0  0  0
 40 39  2  0  0  0  0
 41 37  1  0  0  0  0
 43 42  1  0  0  0  0
M  END
>  <MODEL>
4

>  <REMARK>
 VINA RESULT:      -6.4      2.297      6.854
  Name = 
  7 active torsions:
  status: ('A' for Active; 'I' for Inactive)
    1  A    between atoms: C_1  and  C_34
    2  A    between atoms: C_1  and  C_35
    3  A    between atoms: C_2  and  C_27
    4  A    between atoms: N_6  and  C_12
    5  A    between atoms: C_11  and  C_14
    6  A    between atoms: C_14  and  C_22
    7  A    between atoms: C_19  and  O_37
                            x       y       z     vdW  Elec       q    Type
                         _______ _______ _______ _____ _____    ______ ____

>  <TORSDO>
F 7

$$$$
=
 OpenBabel10262422433D

 43 48  0  0  1  0  0  0  0  0999 V2000
  191.4430  177.5130  145.0290 C   0  0  0  0  0  2  0  0  0  0  0  0
  188.0660  177.5970  141.7860 C   0  0  1  0  0  3  0  0  0  0  0  0
  189.7110  177.7300  139.8510 C   0  0  0  0  0  2  0  0  0  0  0  0
  190.8440  178.1610  142.6590 C   0  0  2  0  0  3  0  0  0  0  0  0
  191.3820  175.2490  143.7960 C   0  0  0  0  0  2  0  0  0  0  0  0
  191.6810  176.0030  145.0920 C   0  0  0  0  0  2  0  0  0  0  0  0
  190.4480  176.7880  142.0670 C   0  0  1  0  0  3  0  0  0  0  0  0
  191.9410  178.1360  143.7270 C   0  0  0  0  0  2  0  0  0  0  0  0
  190.1090  175.7340  143.1220 C   0  0  0  0  0  2  0  0  0  0  0  0
  188.5360  177.9260  138.8970 C   0  0  1  0  0  3  0  0  0  0  0  0
  189.2760  176.9410  141.0900 C   0  0  1  0  0  3  0  0  0  0  0  0
  188.4370  178.8280  142.5870 C   0  0  0  0  0  3  0  0  0  0  0  0
  186.9160  177.8330  140.7950 C   0  0  2  0  0  3  0  0  0  0  0  0
  187.3840  178.6530  139.5930 C   0  0  0  0  0  2  0  0  0  0  0  0
  189.6830  179.0530  143.0270 C   0  0  0  0  0  3  0  0  0  0  0  0
  188.9900  178.6480  137.6640 C   0  0  0  0  0  0  0  0  0  0  0  0
  189.8160  177.9900  136.7000 N   0  0  0  0  0  2  0  0  0  0  0  0
  188.6960  179.8620  137.4970 O   0  0  0  0  0  0  0  0  0  0  0  0
  191.7300  176.5170  137.0030 C   0  0  0  0  0  2  0  0  0  0  0  0
  192.0800  175.3470  137.7980 N   0  0  0  0  0  2  0  0  0  0  0  0
  191.0810  173.3390  136.8440 C   0  0  0  0  0  2  0  0  0  0  0  0
  190.2190  176.5980  136.8340 C   0  0  2  0  0  3  0  0  0  0  0  0
  192.3220  174.2240  136.9020 C   0  0  2  0  0  3  0  0  0  0  0  0
  189.8330  175.8900  135.6920 O   0  0  0  0  0  0  0  0  0  0  0  0
  189.4030  174.6390  136.1520 C   0  0  2  0  0  3  0  0  0  0  0  0
  190.3000  173.6540  135.7260 O   0  0  0  0  0  0  0  0  0  0  0  0
  193.4780  173.4090  137.4430 C   0  0  0  0  0  1  0  0  0  0  0  0
  187.9930  174.3380  135.6420 C   0  0  0  0  0  2  0  0  0  0  0  0
  187.0220  175.4240  135.9730 C   0  0  0  0  0  0  0  0  0  0  0  0
  185.9240  177.5030  135.3860 C   0  0  0  0  0  3  0  0  0  0  0  0
  185.4540  176.4440  137.5150 C   0  0  0  0  0  3  0  0  0  0  0  0
  185.2450  177.4890  136.6080 C   0  0  0  0  0  3  0  0  0  0  0  0
  186.3390  175.4120  137.1960 C   0  0  0  0  0  3  0  0  0  0  0  0
  186.8150  176.4740  135.0700 C   0  0  0  0  0  3  0  0  0  0  0  0
  185.7110  178.4780  141.4720 C   0  0  0  0  0  2  0  0  0  0  0  0
  183.2270  179.5670  138.8300 C   0  0  0  0  0  3  0  0  0  0  0  0
  182.2750  178.5450  138.8970 C   0  0  0  0  0  0  0  0  0  0  0  0
  183.5800  177.4620  140.6340 C   0  0  0  0  0  3  0  0  0  0  0  0
  184.3510  179.5410  139.6610 C   0  0  0  0  0  3  0  0  0  0  0  0
  184.5280  178.4900  140.5660 C   0  0  0  0  0  0  0  0  0  0  0  0
  182.4590  177.4880  139.8020 C   0  0  0  0  0  3  0  0  0  0  0  0
  181.1230  179.4170  136.8890 C   0  0  0  0  0  1  0  0  0  0  0  0
  181.1660  178.5960  138.0470 O   0  0  0  0  0  0  0  0  0  0  0  0
  1  6  1  0  0  0  0
  2 12  1  6  0  0  0
  4 15  1  1  0  0  0
  4  8  1  0  0  0  0
  5  6  1  0  0  0  0
  7  4  1  0  0  0  0
  7  9  1  1  0  0  0
  8  1  1  0  0  0  0
  9  5  1  0  0  0  0
 10 16  1  6  0  0  0
 10 14  1  0  0  0  0
 10  3  1  0  0  0  0
 11  3  1  6  0  0  0
 11  2  1  0  0  0  0
 11  7  1  0  0  0  0
 12 15  2  0  0  0  0
 13 35  1  1  0  0  0
 13  2  1  0  0  0  0
 14 13  1  0  0  0  0
 17 16  1  0  0  0  0
 18 16  2  0  0  0  0
 19 20  1  0  0  0  0
 21 23  1  0  0  0  0
 22 17  1  6  0  0  0
 22 19  1  0  0  0  0
 23 27  1  1  0  0  0
 23 20  1  0  0  0  0
 24 25  1  0  0  0  0
 24 22  1  0  0  0  0
 25 28  1  6  0  0  0
 26 25  1  0  0  0  0
 26 21  1  0  0  0  0
 28 29  1  0  0  0  0
 29 33  1  0  0  0  0
 30 32  2  0  0  0  0
 32 31  1  0  0  0  0
 33 31  2  0  0  0  0
 34 30  1  0  0  0  0
 34 29  2  0  0  0  0
 36 37  2  0  0  0  0
 36 39  1  0  0  0  0
 37 41  1  0  0  0  0
 39 40  2  0  0  0  0
 40 38  1  0  0  0  0
 40 35  1  0  0  0  0
 41 38  2  0  0  0  0
 42 43  1  0  0  0  0
 43 37  1  0  0  0  0
M  END
>  <MODEL>
5

>  <REMARK>
 VINA RESULT:      -6.4      2.349      6.748
  Name = 
  7 active torsions:
  status: ('A' for Active; 'I' for Inactive)
    1  A    between atoms: C_1  and  C_34
    2  A    between atoms: C_1  and  C_35
    3  A    between atoms: C_2  and  C_27
    4  A    between atoms: N_6  and  C_12
    5  A    between atoms: C_11  and  C_14
    6  A    between atoms: C_14  and  C_22
    7  A    between atoms: C_19  and  O_37
                            x       y       z     vdW  Elec       q    Type
                         _______ _______ _______ _____ _____    ______ ____

>  <TORSDO>
F 7

$$$$
=
 OpenBabel10262422433D

 43 48  0  0  1  0  0  0  0  0999 V2000
  180.6960  172.3530  136.5130 C   0  0  0  0  0  2  0  0  0  0  0  0
  181.5560  176.9200  137.0820 C   0  0  1  0  0  3  0  0  0  0  0  0
  182.0610  176.6760  139.5630 C   0  0  0  0  0  2  0  0  0  0  0  0
  180.8030  174.2640  138.1650 C   0  0  2  0  0  3  0  0  0  0  0  0
  183.2290  172.7150  136.8320 C   0  0  0  0  0  2  0  0  0  0  0  0
  182.1160  171.8750  136.2030 C   0  0  0  0  0  2  0  0  0  0  0  0
  182.2840  174.6900  138.0310 C   0  0  1  0  0  3  0  0  0  0  0  0
  180.5170  172.7720  137.9690 C   0  0  0  0  0  2  0  0  0  0  0  0
  182.9520  174.2070  136.7430 C   0  0  0  0  0  2  0  0  0  0  0  0
  182.1470  178.1960  139.6710 C   0  0  1  0  0  3  0  0  0  0  0  0
  182.4190  176.2120  138.1470 C   0  0  1  0  0  3  0  0  0  0  0  0
  180.1450  176.3750  137.0030 C   0  0  0  0  0  3  0  0  0  0  0  0
  181.6160  178.4470  137.2430 C   0  0  2  0  0  3  0  0  0  0  0  0
  181.2190  178.8680  138.6580 C   0  0  0  0  0  2  0  0  0  0  0  0
  179.8190  175.1520  137.4440 C   0  0  0  0  0  3  0  0  0  0  0  0
  181.8520  178.6290  141.0750 C   0  0  0  0  0  0  0  0  0  0  0  0
  182.8970  178.6960  142.0490 N   0  0  0  0  0  2  0  0  0  0  0  0
  180.6680  178.8820  141.4230 O   0  0  0  0  0  0  0  0  0  0  0  0
  185.1230  178.4420  143.0010 C   0  0  0  0  0  2  0  0  0  0  0  0
  186.2500  177.5260  142.8870 N   0  0  0  0  0  2  0  0  0  0  0  0
  187.5120  177.9770  140.8510 C   0  0  0  0  0  2  0  0  0  0  0  0
  184.2850  178.3950  141.7300 C   0  0  2  0  0  3  0  0  0  0  0  0
  187.3930  178.2500  142.3470 C   0  0  2  0  0  3  0  0  0  0  0  0
  184.7650  179.3350  140.8130 O   0  0  0  0  0  0  0  0  0  0  0  0
  185.5810  178.6150  139.9310 C   0  0  2  0  0  3  0  0  0  0  0  0
  186.9130  179.0020  140.1110 O   0  0  0  0  0  0  0  0  0  0  0  0
  188.6500  177.7610  143.0350 C   0  0  0  0  0  1  0  0  0  0  0  0
  185.1440  178.8540  138.4840 C   0  0  0  0  0  2  0  0  0  0  0  0
  185.9400  178.0500  137.5080 C   0  0  0  0  0  0  0  0  0  0  0  0
  187.7680  177.8850  135.9270 C   0  0  0  0  0  3  0  0  0  0  0  0
  186.3050  175.9870  136.2870 C   0  0  0  0  0  3  0  0  0  0  0  0
  187.4030  176.5660  135.6410 C   0  0  0  0  0  3  0  0  0  0  0  0
  185.5770  176.7270  137.2220 C   0  0  0  0  0  3  0  0  0  0  0  0
  187.0350  178.6280  136.8560 C   0  0  0  0  0  3  0  0  0  0  0  0
  180.7700  179.1590  136.1940 C   0  0  0  0  0  2  0  0  0  0  0  0
  180.9930  182.5820  137.7970 C   0  0  0  0  0  3  0  0  0  0  0  0
  180.9160  183.4240  136.6820 C   0  0  0  0  0  0  0  0  0  0  0  0
  180.7660  181.4760  135.2400 C   0  0  0  0  0  3  0  0  0  0  0  0
  180.9550  181.1930  137.6380 C   0  0  0  0  0  3  0  0  0  0  0  0
  180.8390  180.6390  136.3600 C   0  0  0  0  0  0  0  0  0  0  0  0
  180.8060  182.8620  135.4000 C   0  0  0  0  0  3  0  0  0  0  0  0
  180.0310  185.5030  137.6880 C   0  0  0  0  0  1  0  0  0  0  0  0
  180.9640  184.8080  136.8740 O   0  0  0  0  0  0  0  0  0  0  0  0
  1  8  1  0  0  0  0
  2 12  1  1  0  0  0
  2 13  1  0  0  0  0
  2 11  1  0  0  0  0
  3 10  1  0  0  0  0
  4 15  1  6  0  0  0
  6  1  1  0  0  0  0
  6  5  1  0  0  0  0
  7  9  1  6  0  0  0
  7 11  1  0  0  0  0
  7  4  1  0  0  0  0
  8  4  1  0  0  0  0
  9  5  1  0  0  0  0
 10 16  1  1  0  0  0
 11  3  1  1  0  0  0
 12 15  2  0  0  0  0
 13 35  1  6  0  0  0
 13 14  1  0  0  0  0
 14 10  1  0  0  0  0
 16 18  2  0  0  0  0
 16 17  1  0  0  0  0
 20 19  1  0  0  0  0
 21 23  1  0  0  0  0
 22 17  1  1  0  0  0
 22 19  1  0  0  0  0
 23 20  1  0  0  0  0
 23 27  1  1  0  0  0
 24 22  1  0  0  0  0
 25 28  1  6  0  0  0
 25 26  1  0  0  0  0
 25 24  1  0  0  0  0
 26 21  1  0  0  0  0
 29 28  1  0  0  0  0
 30 34  1  0  0  0  0
 31 33  2  0  0  0  0
 32 30  2  0  0  0  0
 32 31  1  0  0  0  0
 33 29  1  0  0  0  0
 34 29  2  0  0  0  0
 35 40  1  0  0  0  0
 37 43  1  0  0  0  0
 37 36  2  0  0  0  0
 38 41  2  0  0  0  0
 38 40  1  0  0  0  0
 39 36  1  0  0  0  0
 40 39  2  0  0  0  0
 41 37  1  0  0  0  0
 43 42  1  0  0  0  0
M  END
>  <MODEL>
6

>  <REMARK>
 VINA RESULT:      -6.4      3.759      9.391
  Name = 
  7 active torsions:
  status: ('A' for Active; 'I' for Inactive)
    1  A    between atoms: C_1  and  C_34
    2  A    between atoms: C_1  and  C_35
    3  A    between atoms: C_2  and  C_27
    4  A    between atoms: N_6  and  C_12
    5  A    between atoms: C_11  and  C_14
    6  A    between atoms: C_14  and  C_22
    7  A    between atoms: C_19  and  O_37
                            x       y       z     vdW  Elec       q    Type
                         _______ _______ _______ _____ _____    ______ ____

>  <TORSDO>
F 7

$$$$
