=
 OpenBabel10262420473D

 28 31  0  0  1  0  0  0  0  0999 V2000
  188.1830  177.8550  144.5100 C   0  0  2  0  0  3  0  0  0  0  0  0
  184.0260  178.6060  143.4760 C   0  0  0  0  0  1  0  0  0  0  0  0
  188.3820  177.9840  140.6520 C   0  0  1  0  0  3  0  0  0  0  0  0
  186.4070  178.1220  142.7370 C   0  0  0  0  0  0  0  0  0  0  0  0
  188.8630  178.1330  142.0910 C   0  0  0  0  0  2  0  0  0  0  0  0
  185.7810  178.1340  145.1550 C   0  0  0  0  0  2  0  0  0  0  0  0
  186.1150  178.6140  141.5150 C   0  0  0  0  0  3  0  0  0  0  0  0
  185.3060  177.8240  143.7370 C   0  0  1  0  0  3  0  0  0  0  0  0
  187.1670  178.8940  140.4760 C   0  0  0  0  0  2  0  0  0  0  0  0
  187.0800  177.4000  145.4650 C   0  0  0  0  0  2  0  0  0  0  0  0
  187.7980  177.5870  143.0460 C   0  0  1  0  0  3  0  0  0  0  0  0
  188.9710  178.7860  138.2830 C   0  0  0  0  0  2  0  0  0  0  0  0
  190.4900  176.3230  138.3090 C   0  0  0  0  0  2  0  0  0  0  0  0
  188.0740  176.5090  137.5400 C   0  0  0  0  0  0  0  0  0  0  0  0
  189.4990  178.3410  139.6550 C   0  0  2  0  0  3  0  0  0  0  0  0
  191.3710  177.0780  140.3500 O   0  0  0  0  0  0  0  0  0  0  0  0
  189.1280  175.6580  138.2020 C   0  0  0  0  0  2  0  0  0  0  0  0
  190.5090  177.2310  139.5010 C   0  0  0  0  0  0  0  0  0  0  0  0
  186.9780  175.7940  136.8310 C   0  0  0  0  0  1  0  0  0  0  0  0
  187.9770  177.8480  137.6430 C   0  0  0  0  0  3  0  0  0  0  0  0
  189.4930  177.2090  144.8760 C   0  0  0  0  0  0  0  0  0  0  0  0
  190.2220  176.5040  143.9050 C   0  0  0  0  0  3  0  0  0  0  0  0
  191.2420  176.7280  146.4990 C   0  0  0  0  0  0  0  0  0  0  0  0
  191.4460  175.9150  144.2270 C   0  0  0  0  0  3  0  0  0  0  0  0
  189.2600  178.0730  147.2390 C   0  0  0  0  0  1  0  0  0  0  0  0
  190.0100  177.3230  146.1840 C   0  0  0  0  0  0  0  0  0  0  0  0
  191.7690  176.8290  147.7830 O   0  0  0  0  0  1  0  0  0  0  0  0
  191.9540  176.0270  145.5220 C   0  0  0  0  0  3  0  0  0  0  0  0
  1 21  1  1  0  0  0
  1 10  1  0  0  0  0
  3  9  1  1  0  0  0
  3  5  1  0  0  0  0
  4 11  1  0  0  0  0
  4  8  1  0  0  0  0
  6 10  1  0  0  0  0
  7  4  2  0  0  0  0
  8  2  1  6  0  0  0
  8  6  1  0  0  0  0
  9  7  1  0  0  0  0
 11  5  1  6  0  0  0
 11  1  1  0  0  0  0
 13 18  1  0  0  0  0
 14 20  2  0  0  0  0
 14 17  1  0  0  0  0
 15 12  1  6  0  0  0
 15  3  1  0  0  0  0
 17 13  1  0  0  0  0
 18 15  1  0  0  0  0
 18 16  2  0  0  0  0
 19 14  1  0  0  0  0
 20 12  1  0  0  0  0
 21 26  1  0  0  0  0
 22 24  1  0  0  0  0
 22 21  2  0  0  0  0
 23 27  1  0  0  0  0
 24 28  2  0  0  0  0
 26 23  2  0  0  0  0
 26 25  1  0  0  0  0
 28 23  1  0  0  0  0
M  END
>  <MODEL>
1

>  <REMARK>
 VINA RESULT:     -10.2      0.000      0.000
  Name = 
  2 active torsions:
  status: ('A' for Active; 'I' for Inactive)
    1  A    between atoms: C_1  and  C_2
    2  A    between atoms: C_10  and  C_13
                            x       y       z     vdW  Elec       q    Type
                         _______ _______ _______ _____ _____    ______ ____

>  <TORSDO>
F 2

$$$$
=
 OpenBabel10262420473D

 28 31  0  0  1  0  0  0  0  0999 V2000
  188.3330  178.0250  142.8710 C   0  0  2  0  0  3  0  0  0  0  0  0
  185.7270  177.9300  146.3520 C   0  0  0  0  0  1  0  0  0  0  0  0
  184.8730  178.5630  141.2320 C   0  0  1  0  0  3  0  0  0  0  0  0
  185.9990  178.0590  143.8310 C   0  0  0  0  0  0  0  0  0  0  0  0
  186.3840  178.6760  141.3970 C   0  0  0  0  0  2  0  0  0  0  0  0
  187.9670  177.7010  145.3260 C   0  0  0  0  0  2  0  0  0  0  0  0
  184.7610  178.5890  143.7360 C   0  0  0  0  0  3  0  0  0  0  0  0
  186.4780  177.4310  145.1250 C   0  0  1  0  0  3  0  0  0  0  0  0
  184.2270  179.1930  142.4650 C   0  0  0  0  0  2  0  0  0  0  0  0
  188.7700  177.2480  144.1130 C   0  0  0  0  0  2  0  0  0  0  0  0
  186.8370  177.8190  142.5820 C   0  0  1  0  0  3  0  0  0  0  0  0
  182.8770  179.3920  139.8440 C   0  0  0  0  0  2  0  0  0  0  0  0
  184.1080  177.6730  137.8690 C   0  0  0  0  0  2  0  0  0  0  0  0
  182.3530  176.9070  139.5410 C   0  0  0  0  0  0  0  0  0  0  0  0
  184.4040  179.2520  139.9390 C   0  0  2  0  0  3  0  0  0  0  0  0
  186.1020  178.8120  138.3560 O   0  0  0  0  0  0  0  0  0  0  0  0
  183.5770  176.5450  138.7380 C   0  0  0  0  0  2  0  0  0  0  0  0
  184.9540  178.5880  138.7010 C   0  0  0  0  0  0  0  0  0  0  0  0
  181.4210  175.7990  139.8850 C   0  0  0  0  0  1  0  0  0  0  0  0
  182.1000  178.1180  140.0720 C   0  0  0  0  0  3  0  0  0  0  0  0
  189.1910  177.6540  141.6910 C   0  0  0  0  0  0  0  0  0  0  0  0
  188.5900  177.2710  140.4810 C   0  0  0  0  0  3  0  0  0  0  0  0
  191.3790  177.3730  140.6620 C   0  0  0  0  0  0  0  0  0  0  0  0
  189.3740  176.9410  139.3740 C   0  0  0  0  0  3  0  0  0  0  0  0
  191.2670  178.1160  143.0540 C   0  0  0  0  0  1  0  0  0  0  0  0
  190.5980  177.7060  141.7810 C   0  0  0  0  0  0  0  0  0  0  0  0
  192.7680  177.4190  140.7300 O   0  0  0  0  0  1  0  0  0  0  0  0
  190.7660  176.9920  139.4660 C   0  0  0  0  0  3  0  0  0  0  0  0
  1 21  1  6  0  0  0
  1 10  1  0  0  0  0
  3  5  1  1  0  0  0
  3  9  1  0  0  0  0
  4  8  1  0  0  0  0
  7  4  2  0  0  0  0
  8  6  1  0  0  0  0
  8  2  1  1  0  0  0
  9  7  1  0  0  0  0
 10  6  1  0  0  0  0
 11  5  1  6  0  0  0
 11  1  1  0  0  0  0
 11  4  1  0  0  0  0
 12 20  1  0  0  0  0
 13 18  1  0  0  0  0
 13 17  1  0  0  0  0
 14 19  1  0  0  0  0
 14 20  2  0  0  0  0
 15 12  1  6  0  0  0
 15  3  1  0  0  0  0
 16 18  2  0  0  0  0
 17 14  1  0  0  0  0
 18 15  1  0  0  0  0
 21 26  1  0  0  0  0
 22 21  2  0  0  0  0
 23 27  1  0  0  0  0
 23 26  2  0  0  0  0
 24 28  2  0  0  0  0
 24 22  1  0  0  0  0
 26 25  1  0  0  0  0
 28 23  1  0  0  0  0
M  END
>  <MODEL>
2

>  <REMARK>
 VINA RESULT:      -9.6      2.525      4.694
  Name = 
  2 active torsions:
  status: ('A' for Active; 'I' for Inactive)
    1  A    between atoms: C_1  and  C_2
    2  A    between atoms: C_10  and  C_13
                            x       y       z     vdW  Elec       q    Type
                         _______ _______ _______ _____ _____    ______ ____

>  <TORSDO>
F 2

$$$$
=
 OpenBabel10262420473D

 28 31  0  0  1  0  0  0  0  0999 V2000
  184.1910  178.3640  142.8950 C   0  0  2  0  0  3  0  0  0  0  0  0
  184.9920  178.5880  147.1640 C   0  0  0  0  0  1  0  0  0  0  0  0
  187.9550  177.4910  142.9980 C   0  0  1  0  0  3  0  0  0  0  0  0
  185.8490  178.2700  144.7950 C   0  0  0  0  0  0  0  0  0  0  0  0
  186.5230  177.4810  142.4770 C   0  0  0  0  0  2  0  0  0  0  0  0
  183.4640  178.8650  145.2370 C   0  0  0  0  0  2  0  0  0  0  0  0
  186.9490  177.6630  145.2880 C   0  0  0  0  0  3  0  0  0  0  0  0
  184.9070  179.0290  145.7100 C   0  0  1  0  0  3  0  0  0  0  0  0
  187.9320  176.9260  144.4180 C   0  0  0  0  0  2  0  0  0  0  0  0
  183.3220  179.2650  143.7740 C   0  0  0  0  0  2  0  0  0  0  0  0
  185.6730  178.4570  143.2950 C   0  0  1  0  0  3  0  0  0  0  0  0
  189.6490  175.5680  142.8260 C   0  0  0  0  0  2  0  0  0  0  0  0
  191.2690  177.6880  141.7070 C   0  0  0  0  0  2  0  0  0  0  0  0
  191.1820  177.1050  144.1790 C   0  0  0  0  0  0  0  0  0  0  0  0
  188.8830  176.6730  142.0840 C   0  0  2  0  0  3  0  0  0  0  0  0
  189.4370  178.1280  140.3070 O   0  0  0  0  0  0  0  0  0  0  0  0
  191.3420  178.1860  143.1400 C   0  0  0  0  0  2  0  0  0  0  0  0
  189.8340  177.5440  141.3010 C   0  0  0  0  0  0  0  0  0  0  0  0
  191.8430  177.3300  145.4930 C   0  0  0  0  0  1  0  0  0  0  0  0
  190.3930  176.0200  144.0590 C   0  0  0  0  0  3  0  0  0  0  0  0
  183.9780  178.6880  141.4400 C   0  0  0  0  0  0  0  0  0  0  0  0
  185.0730  179.0340  140.6320 C   0  0  0  0  0  3  0  0  0  0  0  0
  182.5140  178.9160  139.5080 C   0  0  0  0  0  0  0  0  0  0  0  0
  184.8910  179.3210  139.2780 C   0  0  0  0  0  3  0  0  0  0  0  0
  181.5030  178.2550  141.7050 C   0  0  0  0  0  1  0  0  0  0  0  0
  182.6880  178.6270  140.8720 C   0  0  0  0  0  0  0  0  0  0  0  0
  181.2510  178.8610  138.9290 O   0  0  0  0  0  1  0  0  0  0  0  0
  183.6140  179.2610  138.7180 C   0  0  0  0  0  3  0  0  0  0  0  0
  1 21  1  6  0  0  0
  1 11  1  0  0  0  0
  1 10  1  0  0  0  0
  3  5  1  6  0  0  0
  3  9  1  0  0  0  0
  4  7  2  0  0  0  0
  4  8  1  0  0  0  0
  6  8  1  0  0  0  0
  8  2  1  1  0  0  0
  9  7  1  0  0  0  0
 10  6  1  0  0  0  0
 11  5  1  6  0  0  0
 11  4  1  0  0  0  0
 12 20  1  0  0  0  0
 13 17  1  0  0  0  0
 14 19  1  0  0  0  0
 15 12  1  1  0  0  0
 15  3  1  0  0  0  0
 16 18  2  0  0  0  0
 17 14  1  0  0  0  0
 18 13  1  0  0  0  0
 18 15  1  0  0  0  0
 20 14  2  0  0  0  0
 22 21  2  0  0  0  0
 23 26  2  0  0  0  0
 24 22  1  0  0  0  0
 26 21  1  0  0  0  0
 26 25  1  0  0  0  0
 27 23  1  0  0  0  0
 28 24  2  0  0  0  0
 28 23  1  0  0  0  0
M  END
>  <MODEL>
3

>  <REMARK>
 VINA RESULT:      -9.0      2.735      6.596
  Name = 
  2 active torsions:
  status: ('A' for Active; 'I' for Inactive)
    1  A    between atoms: C_1  and  C_2
    2  A    between atoms: C_10  and  C_13
                            x       y       z     vdW  Elec       q    Type
                         _______ _______ _______ _____ _____    ______ ____

>  <TORSDO>
F 2

$$$$
=
 OpenBabel10262420473D

 28 31  0  0  1  0  0  0  0  0999 V2000
  185.9640  178.5600  143.9090 C   0  0  2  0  0  3  0  0  0  0  0  0
  182.5240  178.9100  141.2700 C   0  0  0  0  0  1  0  0  0  0  0  0
  187.6260  178.1130  140.4480 C   0  0  1  0  0  3  0  0  0  0  0  0
  185.0030  178.4550  141.5780 C   0  0  0  0  0  0  0  0  0  0  0  0
  187.5200  178.5050  141.9170 C   0  0  0  0  0  2  0  0  0  0  0  0
  183.5000  178.7980  143.5420 C   0  0  0  0  0  2  0  0  0  0  0  0
  185.2050  178.7380  140.2740 C   0  0  0  0  0  3  0  0  0  0  0  0
  183.6020  178.2510  142.1200 C   0  0  1  0  0  3  0  0  0  0  0  0
  186.5770  178.9160  139.6810 C   0  0  0  0  0  2  0  0  0  0  0  0
  184.5760  178.1940  144.4350 C   0  0  0  0  0  2  0  0  0  0  0  0
  186.1680  178.0520  142.4720 C   0  0  1  0  0  3  0  0  0  0  0  0
  189.0480  179.0010  138.5020 C   0  0  0  0  0  2  0  0  0  0  0  0
  190.1800  176.3460  138.7040 C   0  0  0  0  0  2  0  0  0  0  0  0
  188.1900  176.9470  137.2420 C   0  0  0  0  0  0  0  0  0  0  0  0
  189.0420  178.3770  139.9050 C   0  0  2  0  0  3  0  0  0  0  0  0
  190.4220  176.7990  140.9950 O   0  0  0  0  0  0  0  0  0  0  0  0
  188.8630  175.9000  138.0930 C   0  0  0  0  0  2  0  0  0  0  0  0
  189.9110  177.1450  139.9420 C   0  0  0  0  0  0  0  0  0  0  0  0
  187.3140  176.4600  136.1420 C   0  0  0  0  0  1  0  0  0  0  0  0
  188.2190  178.2740  137.4710 C   0  0  0  0  0  3  0  0  0  0  0  0
  187.0300  178.0520  144.8430 C   0  0  0  0  0  0  0  0  0  0  0  0
  188.1460  177.3710  144.3290 C   0  0  0  0  0  3  0  0  0  0  0  0
  187.9450  177.8030  147.0850 C   0  0  0  0  0  0  0  0  0  0  0  0
  189.1490  176.9090  145.1830 C   0  0  0  0  0  3  0  0  0  0  0  0
  185.7580  178.9970  146.8110 C   0  0  0  0  0  1  0  0  0  0  0  0
  186.9310  178.2700  146.2330 C   0  0  0  0  0  0  0  0  0  0  0  0
  187.8660  178.0090  148.4590 O   0  0  0  0  0  1  0  0  0  0  0  0
  189.0480  177.1260  146.5580 C   0  0  0  0  0  3  0  0  0  0  0  0
  1 10  1  0  0  0  0
  1 21  1  1  0  0  0
  3  9  1  6  0  0  0
  3  5  1  0  0  0  0
  4  8  1  0  0  0  0
  4 11  1  0  0  0  0
  6 10  1  0  0  0  0
  7  4  2  0  0  0  0
  8  2  1  6  0  0  0
  8  6  1  0  0  0  0
  9  7  1  0  0  0  0
 11  5  1  6  0  0  0
 11  1  1  0  0  0  0
 13 18  1  0  0  0  0
 14 20  2  0  0  0  0
 14 17  1  0  0  0  0
 15 12  1  6  0  0  0
 15 18  1  0  0  0  0
 15  3  1  0  0  0  0
 17 13  1  0  0  0  0
 18 16  2  0  0  0  0
 19 14  1  0  0  0  0
 20 12  1  0  0  0  0
 21 26  1  0  0  0  0
 22 21  2  0  0  0  0
 22 24  1  0  0  0  0
 23 27  1  0  0  0  0
 24 28  2  0  0  0  0
 26 25  1  0  0  0  0
 26 23  2  0  0  0  0
 28 23  1  0  0  0  0
M  END
>  <MODEL>
4

>  <REMARK>
 VINA RESULT:      -8.7      1.448      2.195
  Name = 
  2 active torsions:
  status: ('A' for Active; 'I' for Inactive)
    1  A    between atoms: C_1  and  C_2
    2  A    between atoms: C_10  and  C_13
                            x       y       z     vdW  Elec       q    Type
                         _______ _______ _______ _____ _____    ______ ____

>  <TORSDO>
F 2

$$$$
=
 OpenBabel10262420473D

 28 31  0  0  1  0  0  0  0  0999 V2000
  185.8770  178.1910  141.1300 C   0  0  2  0  0  3  0  0  0  0  0  0
  183.0500  179.0970  144.3090 C   0  0  0  0  0  1  0  0  0  0  0  0
  187.9820  177.3600  144.2630 C   0  0  1  0  0  3  0  0  0  0  0  0
  185.3880  178.4080  143.5960 C   0  0  0  0  0  0  0  0  0  0  0  0
  187.5150  177.2610  142.8150 C   0  0  0  0  0  2  0  0  0  0  0  0
  183.6620  179.0570  141.9120 C   0  0  0  0  0  2  0  0  0  0  0  0
  185.5980  177.8910  144.8250 C   0  0  0  0  0  3  0  0  0  0  0  0
  184.1920  179.3000  143.3230 C   0  0  1  0  0  3  0  0  0  0  0  0
  186.7860  177.0290  145.1550 C   0  0  0  0  0  2  0  0  0  0  0  0
  184.7710  179.2170  140.8790 C   0  0  0  0  0  2  0  0  0  0  0  0
  186.4780  178.3520  142.5350 C   0  0  1  0  0  3  0  0  0  0  0  0
  190.1340  176.9330  145.5980 C   0  0  0  0  0  2  0  0  0  0  0  0
  191.2130  176.6850  142.9250 C   0  0  0  0  0  2  0  0  0  0  0  0
  191.0940  178.8660  144.2260 C   0  0  0  0  0  0  0  0  0  0  0  0
  189.1620  176.4090  144.5310 C   0  0  2  0  0  3  0  0  0  0  0  0
  189.4430  175.1970  142.5230 O   0  0  0  0  0  0  0  0  0  0  0  0
  191.0400  178.1940  142.8770 C   0  0  0  0  0  2  0  0  0  0  0  0
  189.9040  176.0440  143.2700 C   0  0  0  0  0  0  0  0  0  0  0  0
  191.5690  180.2760  144.2580 C   0  0  0  0  0  1  0  0  0  0  0  0
  190.6350  178.3390  145.3770 C   0  0  0  0  0  3  0  0  0  0  0  0
  186.9260  178.2780  140.0530 C   0  0  0  0  0  0  0  0  0  0  0  0
  188.2690  178.4980  140.4010 C   0  0  0  0  0  3  0  0  0  0  0  0
  187.5750  178.1850  137.7090 C   0  0  0  0  0  0  0  0  0  0  0  0
  189.2540  178.5640  139.4140 C   0  0  0  0  0  3  0  0  0  0  0  0
  185.1570  177.8760  138.2950 C   0  0  0  0  0  1  0  0  0  0  0  0
  186.5780  178.1180  138.6960 C   0  0  0  0  0  0  0  0  0  0  0  0
  187.2520  178.0290  136.3650 O   0  0  0  0  0  1  0  0  0  0  0  0
  188.9060  178.4070  138.0710 C   0  0  0  0  0  3  0  0  0  0  0  0
  1 21  1  6  0  0  0
  1 11  1  0  0  0  0
  3  5  1  6  0  0  0
  3 15  1  0  0  0  0
  3  9  1  0  0  0  0
  4  7  2  0  0  0  0
  6  8  1  0  0  0  0
  7  9  1  0  0  0  0
  8  4  1  0  0  0  0
  8  2  1  1  0  0  0
 10  1  1  0  0  0  0
 10  6  1  0  0  0  0
 11  5  1  1  0  0  0
 11  4  1  0  0  0  0
 13 18  1  0  0  0  0
 14 19  1  0  0  0  0
 14 20  2  0  0  0  0
 15 12  1  1  0  0  0
 16 18  2  0  0  0  0
 17 13  1  0  0  0  0
 17 14  1  0  0  0  0
 18 15  1  0  0  0  0
 20 12  1  0  0  0  0
 21 22  1  0  0  0  0
 23 28  2  0  0  0  0
 23 26  1  0  0  0  0
 24 22  2  0  0  0  0
 25 26  1  0  0  0  0
 26 21  2  0  0  0  0
 27 23  1  0  0  0  0
 28 24  1  0  0  0  0
M  END
>  <MODEL>
5

>  <REMARK>
 VINA RESULT:      -8.4      1.882      6.221
  Name = 
  2 active torsions:
  status: ('A' for Active; 'I' for Inactive)
    1  A    between atoms: C_1  and  C_2
    2  A    between atoms: C_10  and  C_13
                            x       y       z     vdW  Elec       q    Type
                         _______ _______ _______ _____ _____    ______ ____

>  <TORSDO>
F 2

$$$$
=
 OpenBabel10262420473D

 28 31  0  0  1  0  0  0  0  0999 V2000
  186.3840  178.0380  141.5590 C   0  0  2  0  0  3  0  0  0  0  0  0
  187.9260  178.1020  137.4920 C   0  0  0  0  0  1  0  0  0  0  0  0
  183.1150  178.3640  139.5230 C   0  0  1  0  0  3  0  0  0  0  0  0
  185.9560  178.2850  139.0840 C   0  0  0  0  0  0  0  0  0  0  0  0
  184.0130  177.9600  140.6870 C   0  0  0  0  0  2  0  0  0  0  0  0
  188.2930  178.0710  139.9390 C   0  0  0  0  0  2  0  0  0  0  0  0
  185.1200  178.0040  138.0620 C   0  0  0  0  0  3  0  0  0  0  0  0
  187.4100  178.6280  138.8240 C   0  0  1  0  0  3  0  0  0  0  0  0
  183.6620  177.6910  138.2650 C   0  0  0  0  0  2  0  0  0  0  0  0
  187.8060  178.5410  141.3040 C   0  0  0  0  0  2  0  0  0  0  0  0
  185.4120  178.5460  140.4820 C   0  0  1  0  0  3  0  0  0  0  0  0
  180.8020  177.8960  138.5080 C   0  0  0  0  0  2  0  0  0  0  0  0
  180.0430  179.9250  140.4270 C   0  0  0  0  0  2  0  0  0  0  0  0
  180.7570  180.4090  138.0350 C   0  0  0  0  0  0  0  0  0  0  0  0
  181.6530  177.9600  139.7850 C   0  0  2  0  0  3  0  0  0  0  0  0
  181.2150  178.6410  142.0040 O   0  0  0  0  0  0  0  0  0  0  0  0
  180.7380  180.8770  139.4690 C   0  0  0  0  0  2  0  0  0  0  0  0
  180.9920  178.8340  140.8210 C   0  0  0  0  0  0  0  0  0  0  0  0
  180.8050  181.4600  136.9830 C   0  0  0  0  0  1  0  0  0  0  0  0
  180.8570  179.1270  137.6360 C   0  0  0  0  0  3  0  0  0  0  0  0
  185.9360  178.4130  142.9460 C   0  0  0  0  0  0  0  0  0  0  0  0
  184.9310  179.3780  143.1200 C   0  0  0  0  0  3  0  0  0  0  0  0
  186.0560  178.1410  145.3620 C   0  0  0  0  0  0  0  0  0  0  0  0
  184.4940  179.7230  144.4000 C   0  0  0  0  0  3  0  0  0  0  0  0
  187.5700  176.7530  143.9250 C   0  0  0  0  0  1  0  0  0  0  0  0
  186.5010  177.7890  144.0770 C   0  0  0  0  0  0  0  0  0  0  0  0
  186.6000  177.5370  146.4900 O   0  0  0  0  0  1  0  0  0  0  0  0
  185.0560  179.1050  145.5180 C   0  0  0  0  0  3  0  0  0  0  0  0
  1 21  1  1  0  0  0
  3  9  1  6  0  0  0
  3 15  1  0  0  0  0
  3  5  1  0  0  0  0
  4 11  1  0  0  0  0
  6 10  1  0  0  0  0
  7  9  1  0  0  0  0
  7  4  2  0  0  0  0
  8  2  1  6  0  0  0
  8  4  1  0  0  0  0
  8  6  1  0  0  0  0
 10  1  1  0  0  0  0
 11  5  1  6  0  0  0
 11  1  1  0  0  0  0
 13 18  1  0  0  0  0
 14 17  1  0  0  0  0
 15 12  1  6  0  0  0
 15 18  1  0  0  0  0
 17 13  1  0  0  0  0
 18 16  2  0  0  0  0
 19 14  1  0  0  0  0
 20 14  2  0  0  0  0
 20 12  1  0  0  0  0
 21 22  2  0  0  0  0
 21 26  1  0  0  0  0
 22 24  1  0  0  0  0
 23 28  1  0  0  0  0
 23 27  1  0  0  0  0
 24 28  2  0  0  0  0
 25 26  1  0  0  0  0
 26 23  2  0  0  0  0
M  END
>  <MODEL>
6

>  <REMARK>
 VINA RESULT:      -8.1      4.112      6.747
  Name = 
  2 active torsions:
  status: ('A' for Active; 'I' for Inactive)
    1  A    between atoms: C_1  and  C_2
    2  A    between atoms: C_10  and  C_13
                            x       y       z     vdW  Elec       q    Type
                         _______ _______ _______ _____ _____    ______ ____

>  <TORSDO>
F 2

$$$$
=
 OpenBabel10262420473D

 28 31  0  0  1  0  0  0  0  0999 V2000
  187.0300  178.2500  142.9490 C   0  0  2  0  0  3  0  0  0  0  0  0
  182.7620  179.0490  143.1890 C   0  0  0  0  0  1  0  0  0  0  0  0
  186.0670  178.3050  139.2060 C   0  0  1  0  0  3  0  0  0  0  0  0
  184.8070  178.5130  141.7830 C   0  0  0  0  0  0  0  0  0  0  0  0
  186.9580  178.4720  140.4320 C   0  0  0  0  0  2  0  0  0  0  0  0
  184.9340  178.5790  144.2770 C   0  0  0  0  0  2  0  0  0  0  0  0
  184.1680  178.9870  140.6930 C   0  0  0  0  0  3  0  0  0  0  0  0
  184.0540  178.2520  143.0730 C   0  0  1  0  0  3  0  0  0  0  0  0
  184.8640  179.2310  139.3820 C   0  0  0  0  0  2  0  0  0  0  0  0
  186.2590  177.8300  144.2010 C   0  0  0  0  0  2  0  0  0  0  0  0
  186.2220  177.9610  141.6730 C   0  0  1  0  0  3  0  0  0  0  0  0
  186.2260  177.9760  136.6630 C   0  0  0  0  0  2  0  0  0  0  0  0
  188.8670  177.0510  137.3970 C   0  0  0  0  0  2  0  0  0  0  0  0
  186.8160  175.5570  137.2460 C   0  0  0  0  0  0  0  0  0  0  0  0
  186.8380  178.6260  137.9130 C   0  0  2  0  0  3  0  0  0  0  0  0
  189.0550  179.0520  138.6090 O   0  0  0  0  0  0  0  0  0  0  0  0
  188.1290  175.8360  137.9330 C   0  0  0  0  0  2  0  0  0  0  0  0
  188.3050  178.2910  138.0210 C   0  0  0  0  0  0  0  0  0  0  0  0
  186.3570  174.1420  137.2190 C   0  0  0  0  0  1  0  0  0  0  0  0
  185.9730  176.4920  136.7690 C   0  0  0  0  0  3  0  0  0  0  0  0
  188.3830  177.5890  142.9210 C   0  0  0  0  0  0  0  0  0  0  0  0
  188.9240  177.1530  141.7010 C   0  0  0  0  0  3  0  0  0  0  0  0
  190.3940  176.8210  144.0580 C   0  0  0  0  0  0  0  0  0  0  0  0
  190.1850  176.5540  141.6590 C   0  0  0  0  0  3  0  0  0  0  0  0
  188.5790  177.8830  145.4230 C   0  0  0  0  0  1  0  0  0  0  0  0
  189.1260  177.4230  144.1090 C   0  0  0  0  0  0  0  0  0  0  0  0
  191.1420  176.6470  145.2170 O   0  0  0  0  0  1  0  0  0  0  0  0
  190.9170  176.3890  142.8360 C   0  0  0  0  0  3  0  0  0  0  0  0
  1 21  1  6  0  0  0
  1 10  1  0  0  0  0
  3  9  1  1  0  0  0
  3  5  1  0  0  0  0
  4  8  1  0  0  0  0
  7  4  2  0  0  0  0
  8  2  1  6  0  0  0
  8  6  1  0  0  0  0
  9  7  1  0  0  0  0
 10  6  1  0  0  0  0
 11  5  1  6  0  0  0
 11  4  1  0  0  0  0
 11  1  1  0  0  0  0
 12 20  1  0  0  0  0
 13 17  1  0  0  0  0
 13 18  1  0  0  0  0
 14 17  1  0  0  0  0
 15 12  1  6  0  0  0
 15 18  1  0  0  0  0
 15  3  1  0  0  0  0
 18 16  2  0  0  0  0
 19 14  1  0  0  0  0
 20 14  2  0  0  0  0
 21 26  1  0  0  0  0
 22 21  2  0  0  0  0
 23 26  2  0  0  0  0
 23 27  1  0  0  0  0
 24 22  1  0  0  0  0
 24 28  2  0  0  0  0
 26 25  1  0  0  0  0
 28 23  1  0  0  0  0
M  END
>  <MODEL>
7

>  <REMARK>
 VINA RESULT:      -8.0      1.558      2.363
  Name = 
  2 active torsions:
  status: ('A' for Active; 'I' for Inactive)
    1  A    between atoms: C_1  and  C_2
    2  A    between atoms: C_10  and  C_13
                            x       y       z     vdW  Elec       q    Type
                         _______ _______ _______ _____ _____    ______ ____

>  <TORSDO>
F 2

$$$$
=
 OpenBabel10262420473D

 28 31  0  0  1  0  0  0  0  0999 V2000
  190.1160  176.1200  136.7220 C   0  0  2  0  0  3  0  0  0  0  0  0
  194.4430  175.6720  136.7360 C   0  0  0  0  0  1  0  0  0  0  0  0
  190.9580  177.0860  140.3690 C   0  0  1  0  0  3  0  0  0  0  0  0
  192.2930  176.1490  138.0000 C   0  0  0  0  0  0  0  0  0  0  0  0
  190.1830  177.0880  139.0560 C   0  0  0  0  0  2  0  0  0  0  0  0
  192.2550  175.4660  135.5970 C   0  0  0  0  0  2  0  0  0  0  0  0
  193.0100  176.7560  138.9680 C   0  0  0  0  0  3  0  0  0  0  0  0
  192.9770  175.3130  136.9350 C   0  0  1  0  0  3  0  0  0  0  0  0
  192.3760  177.5670  140.0650 C   0  0  0  0  0  2  0  0  0  0  0  0
  190.7720  175.1480  135.7410 C   0  0  0  0  0  2  0  0  0  0  0  0
  190.7770  176.0440  138.1080 C   0  0  1  0  0  3  0  0  0  0  0  0
  191.1610  178.2770  142.6360 C   0  0  0  0  0  2  0  0  0  0  0  0
  188.7780  176.7230  143.1620 C   0  0  0  0  0  2  0  0  0  0  0  0
  191.1450  175.9140  143.6160 C   0  0  0  0  0  0  0  0  0  0  0  0
  190.2740  177.9810  141.4170 C   0  0  2  0  0  3  0  0  0  0  0  0
  187.9600  177.5940  141.1410 O   0  0  0  0  0  0  0  0  0  0  0  0
  189.7380  175.5470  143.2170 C   0  0  0  0  0  2  0  0  0  0  0  0
  188.9370  177.4360  141.8540 C   0  0  0  0  0  0  0  0  0  0  0  0
  191.9470  174.8640  144.3000 C   0  0  0  0  0  1  0  0  0  0  0  0
  191.7690  177.0640  143.2970 C   0  0  0  0  0  3  0  0  0  0  0  0
  188.6320  175.8750  136.7900 C   0  0  0  0  0  0  0  0  0  0  0  0
  188.1470  174.5800  137.0350 C   0  0  0  0  0  3  0  0  0  0  0  0
  186.3410  176.6920  136.7170 C   0  0  0  0  0  0  0  0  0  0  0  0
  186.7740  174.3430  137.1170 C   0  0  0  0  0  3  0  0  0  0  0  0
  188.2070  178.3310  136.3760 C   0  0  0  0  0  1  0  0  0  0  0  0
  187.7210  176.9390  136.6320 C   0  0  0  0  0  0  0  0  0  0  0  0
  185.4250  177.7280  136.5640 O   0  0  0  0  0  1  0  0  0  0  0  0
  185.8730  175.3970  136.9590 C   0  0  0  0  0  3  0  0  0  0  0  0
  1 21  1  1  0  0  0
  1 11  1  0  0  0  0
  3  5  1  6  0  0  0
  3 15  1  0  0  0  0
  4 11  1  0  0  0  0
  4  7  2  0  0  0  0
  6 10  1  0  0  0  0
  6  8  1  0  0  0  0
  7  9  1  0  0  0  0
  8  2  1  6  0  0  0
  8  4  1  0  0  0  0
  9  3  1  0  0  0  0
 10  1  1  0  0  0  0
 11  5  1  1  0  0  0
 12 20  1  0  0  0  0
 13 17  1  0  0  0  0
 14 19  1  0  0  0  0
 15 18  1  0  0  0  0
 15 12  1  1  0  0  0
 16 18  2  0  0  0  0
 17 14  1  0  0  0  0
 18 13  1  0  0  0  0
 20 14  2  0  0  0  0
 21 22  1  0  0  0  0
 22 24  2  0  0  0  0
 23 28  2  0  0  0  0
 25 26  1  0  0  0  0
 26 23  1  0  0  0  0
 26 21  2  0  0  0  0
 27 23  1  0  0  0  0
 28 24  1  0  0  0  0
M  END
>  <MODEL>
8

>  <REMARK>
 VINA RESULT:      -7.8      2.846      8.204
  Name = 
  2 active torsions:
  status: ('A' for Active; 'I' for Inactive)
    1  A    between atoms: C_1  and  C_2
    2  A    between atoms: C_10  and  C_13
                            x       y       z     vdW  Elec       q    Type
                         _______ _______ _______ _____ _____    ______ ____

>  <TORSDO>
F 2

$$$$
=
 OpenBabel10262420473D

 28 31  0  0  1  0  0  0  0  0999 V2000
  190.1980  177.2280  140.6320 C   0  0  2  0  0  3  0  0  0  0  0  0
  188.1970  177.6910  144.4660 C   0  0  0  0  0  1  0  0  0  0  0  0
  186.5910  178.0380  139.5010 C   0  0  1  0  0  3  0  0  0  0  0  0
  188.0670  177.6010  141.9310 C   0  0  0  0  0  0  0  0  0  0  0  0
  188.1130  177.9890  139.4220 C   0  0  0  0  0  2  0  0  0  0  0  0
  190.2050  177.1300  143.1330 C   0  0  0  0  0  2  0  0  0  0  0  0
  186.8910  178.2610  141.9800 C   0  0  0  0  0  3  0  0  0  0  0  0
  188.6830  177.0190  143.1890 C   0  0  1  0  0  3  0  0  0  0  0  0
  186.2220  178.8280  140.7560 C   0  0  0  0  0  2  0  0  0  0  0  0
  190.7500  176.4990  141.8580 C   0  0  0  0  0  2  0  0  0  0  0  0
  188.6620  177.1750  140.5960 C   0  0  1  0  0  3  0  0  0  0  0  0
  184.6280  178.0900  137.8460 C   0  0  0  0  0  2  0  0  0  0  0  0
  186.7810  177.6390  135.9670 C   0  0  0  0  0  2  0  0  0  0  0  0
  185.4780  175.7880  137.1240 C   0  0  0  0  0  0  0  0  0  0  0  0
  185.9910  178.6790  138.2380 C   0  0  2  0  0  3  0  0  0  0  0  0
  187.8480  179.4570  137.0010 O   0  0  0  0  0  0  0  0  0  0  0  0
  186.8000  176.2380  136.5540 C   0  0  0  0  0  2  0  0  0  0  0  0
  186.9420  178.6430  137.0670 C   0  0  0  0  0  0  0  0  0  0  0  0
  185.2050  174.3260  137.1210 C   0  0  0  0  0  1  0  0  0  0  0  0
  184.5850  176.5850  137.7410 C   0  0  0  0  0  3  0  0  0  0  0  0
  190.8110  176.6750  139.3730 C   0  0  0  0  0  0  0  0  0  0  0  0
  190.0120  175.9740  138.4550 C   0  0  0  0  0  3  0  0  0  0  0  0
  192.7270  176.3610  137.9050 C   0  0  0  0  0  0  0  0  0  0  0  0
  190.5650  175.4700  137.2760 C   0  0  0  0  0  3  0  0  0  0  0  0
  193.0550  177.6190  140.0490 C   0  0  0  0  0  1  0  0  0  0  0  0
  192.1800  176.8710  139.0940 C   0  0  0  0  0  0  0  0  0  0  0  0
  194.0740  176.5450  137.6110 O   0  0  0  0  0  1  0  0  0  0  0  0
  191.9200  175.6640  137.0020 C   0  0  0  0  0  3  0  0  0  0  0  0
  1 21  1  6  0  0  0
  1 10  1  0  0  0  0
  3  5  1  6  0  0  0
  3  9  1  0  0  0  0
  4  7  2  0  0  0  0
  4  8  1  0  0  0  0
  6  8  1  0  0  0  0
  8  2  1  1  0  0  0
  9  7  1  0  0  0  0
 10  6  1  0  0  0  0
 11  5  1  6  0  0  0
 11  1  1  0  0  0  0
 11  4  1  0  0  0  0
 13 17  1  0  0  0  0
 13 18  1  0  0  0  0
 14 20  2  0  0  0  0
 15 12  1  6  0  0  0
 15  3  1  0  0  0  0
 16 18  2  0  0  0  0
 17 14  1  0  0  0  0
 18 15  1  0  0  0  0
 19 14  1  0  0  0  0
 20 12  1  0  0  0  0
 22 21  2  0  0  0  0
 23 26  2  0  0  0  0
 24 22  1  0  0  0  0
 26 21  1  0  0  0  0
 26 25  1  0  0  0  0
 27 23  1  0  0  0  0
 28 24  2  0  0  0  0
 28 23  1  0  0  0  0
M  END
>  <MODEL>
9

>  <REMARK>
 VINA RESULT:      -7.7      2.746      5.203
  Name = 
  2 active torsions:
  status: ('A' for Active; 'I' for Inactive)
    1  A    between atoms: C_1  and  C_2
    2  A    between atoms: C_10  and  C_13
                            x       y       z     vdW  Elec       q    Type
                         _______ _______ _______ _____ _____    ______ ____

>  <TORSDO>
F 2

$$$$
