=
 OpenBabel10262419253D

 31 35  0  0  1  0  0  0  0  0999 V2000
  190.1660  177.2130  140.7250 C   0  0  1  0  0  3  0  0  0  0  0  0
  188.4250  177.5080  144.0660 C   0  0  0  0  0  0  0  0  0  0  0  0
  189.4240  177.1500  145.0190 C   0  0  0  0  0  0  0  0  0  0  0  0
  182.5540  179.0590  143.9160 O   0  0  0  0  0  0  0  0  0  0  0  0
  183.6390  178.8410  143.3160 C   0  0  0  0  0  0  0  0  0  0  0  0
  191.7010  176.4870  145.6010 C   0  0  0  0  0  3  0  0  0  0  0  0
  188.6700  177.5760  142.6700 C   0  0  0  0  0  0  0  0  0  0  0  0
  189.3180  178.2360  139.9830 C   0  0  0  0  0  2  0  0  0  0  0  0
  190.7430  176.8350  144.6460 C   0  0  0  0  0  3  0  0  0  0  0  0
  186.1070  178.1630  143.6190 C   0  0  0  0  0  0  0  0  0  0  0  0
  191.6330  177.4460  140.4300 C   0  0  0  0  0  1  0  0  0  0  0  0
  187.8030  177.4050  146.8250 C   0  0  0  0  0  3  0  0  0  0  0  0
  192.5580  176.0140  148.1480 Cl  0  0  0  0  0  0  0  0  0  0  0  0
  186.3930  178.2190  142.2930 N   0  0  0  0  0  0  0  0  0  0  0  0
  187.1160  177.8090  144.5320 C   0  0  0  0  0  0  0  0  0  0  0  0
  184.7820  178.4610  144.0950 N   0  0  0  0  0  2  0  0  0  0  0  0
  189.9390  177.3100  142.1300 O   0  0  0  0  0  0  0  0  0  0  0  0
  191.3570  176.4490  146.9520 C   0  0  0  0  0  0  0  0  0  0  0  0
  187.6270  177.9510  141.8030 C   0  0  0  0  0  0  0  0  0  0  0  0
  187.8500  178.0020  140.3190 C   0  0  0  0  0  2  0  0  0  0  0  0
  186.8250  177.7530  145.9000 C   0  0  0  0  0  3  0  0  0  0  0  0
  189.0920  177.1050  146.3990 C   0  0  0  0  0  0  0  0  0  0  0  0
  190.0560  176.7570  147.3500 C   0  0  0  0  0  3  0  0  0  0  0  0
  183.7190  178.9780  141.8480 C   0  0  0  0  0  3  0  0  0  0  0  0
  181.2900  178.1810  139.0000 C   0  0  0  0  0  2  0  0  0  0  0  0
  181.5100  178.1030  141.3660 N   0  0  0  0  0  0  0  0  0  0  0  0
  182.9740  178.8580  139.2290 S   0  0  0  0  0  0  0  0  0  0  0  0
  182.7600  178.6450  140.9820 C   0  0  0  0  0  0  0  0  0  0  0  0
  180.7460  177.8600  140.3550 C   0  0  0  0  0  0  0  0  0  0  0  0
  179.4670  177.3230  140.5060 O   0  0  0  0  0  0  0  0  0  0  0  0
  179.2460  175.9270  140.6390 C   0  0  0  0  0  1  0  0  0  0  0  0
  1 11  1  1  0  0  0
  1 17  1  0  0  0  0
  2 15  2  0  0  0  0
  2  3  1  0  0  0  0
  3 22  1  0  0  0  0
  5  4  2  0  0  0  0
  5 16  1  0  0  0  0
  6 18  2  0  0  0  0
  7  2  1  0  0  0  0
  8 20  1  0  0  0  0
  8  1  1  0  0  0  0
  9  3  2  0  0  0  0
  9  6  1  0  0  0  0
 10 16  1  0  0  0  0
 10 15  1  0  0  0  0
 14 10  2  0  0  0  0
 15 21  1  0  0  0  0
 17  7  1  0  0  0  0
 18 23  1  0  0  0  0
 18 13  1  0  0  0  0
 19 14  1  0  0  0  0
 19  7  2  0  0  0  0
 20 19  1  0  0  0  0
 21 12  2  0  0  0  0
 22 12  1  0  0  0  0
 22 23  2  0  0  0  0
 24  5  1  0  0  0  0
 25 27  1  0  0  0  0
 25 29  1  0  0  0  0
 27 28  1  0  0  0  0
 28 26  1  0  0  0  0
 28 24  2  0  0  0  0
 29 30  1  0  0  0  0
 29 26  2  0  0  0  0
 30 31  1  0  0  0  0
M  END
>  <MODEL>
1

>  <REMARK>
 VINA RESULT:     -11.2      0.000      0.000
  Name = 
  2 active torsions:
  status: ('A' for Active; 'I' for Inactive)
    1  A    between atoms: O_1  and  C_24
    2  A    between atoms: C_3  and  C_9
                            x       y       z     vdW  Elec       q    Type
                         _______ _______ _______ _____ _____    ______ ____

>  <TORSDO>
F 2

$$$$
=
 OpenBabel10262419253D

 31 35  0  0  1  0  0  0  0  0999 V2000
  185.4700  178.7330  145.4920 C   0  0  1  0  0  3  0  0  0  0  0  0
  188.5950  177.5560  143.7250 C   0  0  0  0  0  0  0  0  0  0  0  0
  189.4830  177.1920  144.7800 C   0  0  0  0  0  0  0  0  0  0  0  0
  188.5490  177.8900  137.6600 O   0  0  0  0  0  0  0  0  0  0  0  0
  187.9600  178.0320  138.7640 C   0  0  0  0  0  0  0  0  0  0  0  0
  190.0020  176.8960  147.1480 C   0  0  0  0  0  3  0  0  0  0  0  0
  187.2710  178.0150  143.9460 C   0  0  0  0  0  0  0  0  0  0  0  0
  184.4880  178.3920  144.3810 C   0  0  0  0  0  2  0  0  0  0  0  0
  189.1110  177.2580  146.1350 C   0  0  0  0  0  3  0  0  0  0  0  0
  188.2080  177.8130  141.3200 C   0  0  0  0  0  0  0  0  0  0  0  0
  184.9310  178.2530  146.8230 C   0  0  0  0  0  1  0  0  0  0  0  0
  191.2170  176.6600  143.1480 C   0  0  0  0  0  3  0  0  0  0  0  0
  192.4000  176.0010  148.0940 Cl  0  0  0  0  0  0  0  0  0  0  0  0
  186.9470  178.2420  141.5830 N   0  0  0  0  0  0  0  0  0  0  0  0
  189.0570  177.4600  142.3830 C   0  0  0  0  0  0  0  0  0  0  0  0
  188.6800  177.7200  139.9640 N   0  0  0  0  0  2  0  0  0  0  0  0
  186.7340  178.1230  145.2390 O   0  0  0  0  0  0  0  0  0  0  0  0
  191.2850  176.4570  146.8240 C   0  0  0  0  0  0  0  0  0  0  0  0
  186.4600  178.3400  142.8430 C   0  0  0  0  0  0  0  0  0  0  0  0
  185.0660  178.8580  143.0480 C   0  0  0  0  0  2  0  0  0  0  0  0
  190.3560  177.0150  142.1150 C   0  0  0  0  0  3  0  0  0  0  0  0
  190.7950  176.7440  144.4700 C   0  0  0  0  0  0  0  0  0  0  0  0
  191.6810  176.3810  145.4890 C   0  0  0  0  0  3  0  0  0  0  0  0
  186.5630  178.5070  138.8070 C   0  0  0  0  0  3  0  0  0  0  0  0
  183.2670  177.0930  137.4710 C   0  0  0  0  0  2  0  0  0  0  0  0
  185.5980  176.6420  137.5930 N   0  0  0  0  0  0  0  0  0  0  0  0
  183.8680  178.5520  138.3950 S   0  0  0  0  0  0  0  0  0  0  0  0
  185.5110  177.8780  138.2790 C   0  0  0  0  0  0  0  0  0  0  0  0
  184.4500  176.2290  137.1730 C   0  0  0  0  0  0  0  0  0  0  0  0
  184.3070  175.0310  136.4710 O   0  0  0  0  0  0  0  0  0  0  0  0
  184.2000  173.7790  137.1310 C   0  0  0  0  0  1  0  0  0  0  0  0
  1 11  1  1  0  0  0
  2  7  1  0  0  0  0
  2  3  1  0  0  0  0
  3  9  1  0  0  0  0
  4  5  2  0  0  0  0
  5 24  1  0  0  0  0
  5 16  1  0  0  0  0
  7 17  1  0  0  0  0
  8  1  1  0  0  0  0
  9  6  2  0  0  0  0
 10 14  2  0  0  0  0
 10 15  1  0  0  0  0
 12 22  1  0  0  0  0
 14 19  1  0  0  0  0
 15  2  2  0  0  0  0
 16 10  1  0  0  0  0
 17  1  1  0  0  0  0
 18  6  1  0  0  0  0
 18 13  1  0  0  0  0
 19 20  1  0  0  0  0
 19  7  2  0  0  0  0
 20  8  1  0  0  0  0
 21 15  1  0  0  0  0
 21 12  2  0  0  0  0
 22  3  2  0  0  0  0
 22 23  1  0  0  0  0
 23 18  2  0  0  0  0
 25 27  1  0  0  0  0
 26 28  1  0  0  0  0
 28 27  1  0  0  0  0
 28 24  2  0  0  0  0
 29 25  1  0  0  0  0
 29 26  2  0  0  0  0
 30 31  1  0  0  0  0
 30 29  1  0  0  0  0
M  END
>  <MODEL>
2

>  <REMARK>
 VINA RESULT:     -10.6      2.643      4.588
  Name = 
  2 active torsions:
  status: ('A' for Active; 'I' for Inactive)
    1  A    between atoms: O_1  and  C_24
    2  A    between atoms: C_3  and  C_9
                            x       y       z     vdW  Elec       q    Type
                         _______ _______ _______ _____ _____    ______ ____

>  <TORSDO>
F 2

$$$$
=
 OpenBabel10262419253D

 31 35  0  0  1  0  0  0  0  0999 V2000
  183.7220  179.1860  142.7230 C   0  0  1  0  0  3  0  0  0  0  0  0
  187.3060  178.0830  143.1810 C   0  0  0  0  0  0  0  0  0  0  0  0
  187.4730  177.9950  144.5950 C   0  0  0  0  0  0  0  0  0  0  0  0
  190.5870  177.4120  138.1120 O   0  0  0  0  0  0  0  0  0  0  0  0
  189.4900  177.6680  138.6750 C   0  0  0  0  0  0  0  0  0  0  0  0
  186.6110  178.1480  146.8740 C   0  0  0  0  0  3  0  0  0  0  0  0
  186.0770  178.4250  142.5620 C   0  0  0  0  0  0  0  0  0  0  0  0
  183.5100  178.5630  141.3510 C   0  0  0  0  0  2  0  0  0  0  0  0
  186.4200  178.2410  145.4940 C   0  0  0  0  0  3  0  0  0  0  0  0
  188.2990  177.8990  140.9480 C   0  0  0  0  0  0  0  0  0  0  0  0
  182.5430  178.8750  143.6210 C   0  0  0  0  0  1  0  0  0  0  0  0
  189.8180  177.3950  144.2900 C   0  0  0  0  0  3  0  0  0  0  0  0
  188.1020  177.6870  149.1130 Cl  0  0  0  0  0  0  0  0  0  0  0  0
  187.0990  178.2260  140.4040 N   0  0  0  0  0  0  0  0  0  0  0  0
  188.4270  177.8190  142.3460 C   0  0  0  0  0  0  0  0  0  0  0  0
  189.4360  177.6370  140.1080 N   0  0  0  0  0  2  0  0  0  0  0  0
  184.9190  178.6840  143.3130 O   0  0  0  0  0  0  0  0  0  0  0  0
  187.8630  177.8050  147.3840 C   0  0  0  0  0  0  0  0  0  0  0  0
  186.0010  178.4750  141.1580 C   0  0  0  0  0  0  0  0  0  0  0  0
  184.7210  178.8640  140.4760 C   0  0  0  0  0  2  0  0  0  0  0  0
  189.6620  177.4800  142.9110 C   0  0  0  0  0  3  0  0  0  0  0  0
  188.7410  177.6470  145.1320 C   0  0  0  0  0  0  0  0  0  0  0  0
  188.9250  177.5550  146.5150 C   0  0  0  0  0  3  0  0  0  0  0  0
  188.2960  177.9890  137.8670 C   0  0  0  0  0  3  0  0  0  0  0  0
  185.5950  175.8450  136.2080 C   0  0  0  0  0  2  0  0  0  0  0  0
  187.5700  175.7010  137.5230 N   0  0  0  0  0  0  0  0  0  0  0  0
  186.0350  177.6100  136.3930 S   0  0  0  0  0  0  0  0  0  0  0  0
  187.4420  177.1010  137.3540 C   0  0  0  0  0  0  0  0  0  0  0  0
  186.6260  175.0450  136.9370 C   0  0  0  0  0  0  0  0  0  0  0  0
  186.5590  173.6510  136.9770 O   0  0  0  0  0  0  0  0  0  0  0  0
  185.5290  172.9650  137.6720 C   0  0  0  0  0  1  0  0  0  0  0  0
  1 17  1  0  0  0  0
  1 11  1  1  0  0  0
  2  3  1  0  0  0  0
  3 22  2  0  0  0  0
  3  9  1  0  0  0  0
  4  5  2  0  0  0  0
  5 16  1  0  0  0  0
  6 18  1  0  0  0  0
  7  2  1  0  0  0  0
  7 17  1  0  0  0  0
  8  1  1  0  0  0  0
  9  6  2  0  0  0  0
 10 15  1  0  0  0  0
 12 22  1  0  0  0  0
 14 10  2  0  0  0  0
 14 19  1  0  0  0  0
 15 21  1  0  0  0  0
 15  2  2  0  0  0  0
 16 10  1  0  0  0  0
 18 13  1  0  0  0  0
 19  7  2  0  0  0  0
 20 19  1  0  0  0  0
 20  8  1  0  0  0  0
 21 12  2  0  0  0  0
 22 23  1  0  0  0  0
 23 18  2  0  0  0  0
 24  5  1  0  0  0  0
 25 27  1  0  0  0  0
 25 29  1  0  0  0  0
 27 28  1  0  0  0  0
 28 26  1  0  0  0  0
 28 24  2  0  0  0  0
 29 30  1  0  0  0  0
 29 26  2  0  0  0  0
 30 31  1  0  0  0  0
M  END
>  <MODEL>
3

>  <REMARK>
 VINA RESULT:     -10.6      3.039      5.530
  Name = 
  2 active torsions:
  status: ('A' for Active; 'I' for Inactive)
    1  A    between atoms: O_1  and  C_24
    2  A    between atoms: C_3  and  C_9
                            x       y       z     vdW  Elec       q    Type
                         _______ _______ _______ _____ _____    ______ ____

>  <TORSDO>
F 2

$$$$
=
 OpenBabel10262419253D

 31 35  0  0  1  0  0  0  0  0999 V2000
  190.5370  176.8130  141.8220 C   0  0  1  0  0  3  0  0  0  0  0  0
  187.2810  178.0770  143.2630 C   0  0  0  0  0  0  0  0  0  0  0  0
  187.4580  177.9830  144.6750 C   0  0  0  0  0  0  0  0  0  0  0  0
  182.9900  179.6440  139.2570 O   0  0  0  0  0  0  0  0  0  0  0  0
  184.1590  179.2430  139.5020 C   0  0  0  0  0  0  0  0  0  0  0  0
  188.8070  177.4660  146.6420 C   0  0  0  0  0  3  0  0  0  0  0  0
  188.2940  177.7430  142.3270 C   0  0  0  0  0  0  0  0  0  0  0  0
  190.4830  177.6010  140.5210 C   0  0  0  0  0  2  0  0  0  0  0  0
  188.6620  177.5490  145.2560 C   0  0  0  0  0  3  0  0  0  0  0  0
  185.8180  178.6280  141.3750 C   0  0  0  0  0  0  0  0  0  0  0  0
  191.9160  176.9220  142.4350 C   0  0  0  0  0  1  0  0  0  0  0  0
  185.1750  178.7720  145.0210 C   0  0  0  0  0  3  0  0  0  0  0  0
  187.9300  177.7150  149.2140 Cl  0  0  0  0  0  0  0  0  0  0  0  0
  186.8210  178.3000  140.5210 N   0  0  0  0  0  0  0  0  0  0  0  0
  186.0270  178.5250  142.7620 C   0  0  0  0  0  0  0  0  0  0  0  0
  184.5470  179.0760  140.8730 N   0  0  0  0  0  2  0  0  0  0  0  0
  189.5640  177.3090  142.7390 O   0  0  0  0  0  0  0  0  0  0  0  0
  187.7480  177.8180  147.4770 C   0  0  0  0  0  0  0  0  0  0  0  0
  188.0350  177.8790  140.9510 C   0  0  0  0  0  0  0  0  0  0  0  0
  189.0770  177.5020  139.9380 C   0  0  0  0  0  2  0  0  0  0  0  0
  184.9960  178.8650  143.6460 C   0  0  0  0  0  3  0  0  0  0  0  0
  186.3890  178.3380  145.5400 C   0  0  0  0  0  0  0  0  0  0  0  0
  186.5420  178.2530  146.9280 C   0  0  0  0  0  3  0  0  0  0  0  0
  185.0950  178.9570  138.3970 C   0  0  0  0  0  3  0  0  0  0  0  0
  185.6990  175.8880  136.1940 C   0  0  0  0  0  2  0  0  0  0  0  0
  184.3540  176.6860  137.9830 N   0  0  0  0  0  0  0  0  0  0  0  0
  186.3490  177.5840  136.4040 S   0  0  0  0  0  0  0  0  0  0  0  0
  185.1750  177.8090  137.7220 C   0  0  0  0  0  0  0  0  0  0  0  0
  184.6150  175.6920  137.2030 C   0  0  0  0  0  0  0  0  0  0  0  0
  183.9220  174.4830  137.2890 O   0  0  0  0  0  0  0  0  0  0  0  0
  184.5730  173.2600  137.5930 C   0  0  0  0  0  1  0  0  0  0  0  0
  1 11  1  1  0  0  0
  1 17  1  0  0  0  0
  2  3  1  0  0  0  0
  3  9  2  0  0  0  0
  3 22  1  0  0  0  0
  4  5  2  0  0  0  0
  5 16  1  0  0  0  0
  6 18  2  0  0  0  0
  7 17  1  0  0  0  0
  7  2  1  0  0  0  0
  8  1  1  0  0  0  0
  9  6  1  0  0  0  0
 10 15  1  0  0  0  0
 12 22  1  0  0  0  0
 14 19  1  0  0  0  0
 14 10  2  0  0  0  0
 15  2  2  0  0  0  0
 15 21  1  0  0  0  0
 16 10  1  0  0  0  0
 18 13  1  0  0  0  0
 19  7  2  0  0  0  0
 20  8  1  0  0  0  0
 20 19  1  0  0  0  0
 21 12  2  0  0  0  0
 22 23  2  0  0  0  0
 23 18  1  0  0  0  0
 24  5  1  0  0  0  0
 25 27  1  0  0  0  0
 25 29  1  0  0  0  0
 27 28  1  0  0  0  0
 28 26  1  0  0  0  0
 28 24  2  0  0  0  0
 29 30  1  0  0  0  0
 29 26  2  0  0  0  0
 30 31  1  0  0  0  0
M  END
>  <MODEL>
4

>  <REMARK>
 VINA RESULT:     -10.4      2.964      3.596
  Name = 
  2 active torsions:
  status: ('A' for Active; 'I' for Inactive)
    1  A    between atoms: O_1  and  C_24
    2  A    between atoms: C_3  and  C_9
                            x       y       z     vdW  Elec       q    Type
                         _______ _______ _______ _____ _____    ______ ____

>  <TORSDO>
F 2

$$$$
=
 OpenBabel10262419253D

 31 35  0  0  1  0  0  0  0  0999 V2000
  185.0650  178.8690  145.5920 C   0  0  1  0  0  3  0  0  0  0  0  0
  187.9300  177.8580  143.3460 C   0  0  0  0  0  0  0  0  0  0  0  0
  188.9580  177.4480  144.2450 C   0  0  0  0  0  0  0  0  0  0  0  0
  187.0490  178.5560  137.3760 O   0  0  0  0  0  0  0  0  0  0  0  0
  186.6160  178.6210  138.5570 C   0  0  0  0  0  0  0  0  0  0  0  0
  189.7990  177.0190  146.4970 C   0  0  0  0  0  3  0  0  0  0  0  0
  186.6440  178.2780  143.7730 C   0  0  0  0  0  0  0  0  0  0  0  0
  183.9440  178.5770  144.6050 C   0  0  0  0  0  2  0  0  0  0  0  0
  188.7750  177.4260  145.6390 C   0  0  0  0  0  3  0  0  0  0  0  0
  187.2140  178.2530  141.0360 C   0  0  0  0  0  0  0  0  0  0  0  0
  184.7180  178.2990  146.9510 C   0  0  0  0  0  1  0  0  0  0  0  0
  190.4570  177.0480  142.3620 C   0  0  0  0  0  3  0  0  0  0  0  0
  192.3140  176.1150  147.0500 Cl  0  0  0  0  0  0  0  0  0  0  0  0
  185.9970  178.6420  141.4950 N   0  0  0  0  0  0  0  0  0  0  0  0
  188.2040  177.8520  141.9500 C   0  0  0  0  0  0  0  0  0  0  0  0
  187.4970  178.2500  139.6260 N   0  0  0  0  0  2  0  0  0  0  0  0
  186.2880  178.2980  145.1310 O   0  0  0  0  0  0  0  0  0  0  0  0
  191.0310  176.6250  145.9750 C   0  0  0  0  0  0  0  0  0  0  0  0
  185.6860  178.6540  142.8130 C   0  0  0  0  0  0  0  0  0  0  0  0
  184.3280  179.1320  143.2380 C   0  0  0  0  0  2  0  0  0  0  0  0
  189.4590  177.4480  141.4800 C   0  0  0  0  0  3  0  0  0  0  0  0
  190.2190  177.0440  143.7310 C   0  0  0  0  0  0  0  0  0  0  0  0
  191.2400  176.6370  144.5960 C   0  0  0  0  0  3  0  0  0  0  0  0
  185.2330  179.0650  138.8190 C   0  0  0  0  0  3  0  0  0  0  0  0
  181.8340  177.3140  138.6510 C   0  0  0  0  0  2  0  0  0  0  0  0
  184.1600  176.9490  138.3200 N   0  0  0  0  0  0  0  0  0  0  0  0
  182.5190  178.9620  139.0530 S   0  0  0  0  0  0  0  0  0  0  0  0
  184.1380  178.3100  138.7100 C   0  0  0  0  0  0  0  0  0  0  0  0
  182.9800  176.4270  138.2860 C   0  0  0  0  0  0  0  0  0  0  0  0
  182.7720  175.0940  137.9270 O   0  0  0  0  0  0  0  0  0  0  0  0
  183.8440  174.2260  137.5940 C   0  0  0  0  0  1  0  0  0  0  0  0
  1 11  1  1  0  0  0
  2  7  1  0  0  0  0
  2  3  1  0  0  0  0
  3  9  1  0  0  0  0
  4  5  2  0  0  0  0
  5 24  1  0  0  0  0
  5 16  1  0  0  0  0
  7 17  1  0  0  0  0
  8  1  1  0  0  0  0
  9  6  2  0  0  0  0
 10 14  2  0  0  0  0
 10 15  1  0  0  0  0
 12 22  1  0  0  0  0
 14 19  1  0  0  0  0
 15  2  2  0  0  0  0
 16 10  1  0  0  0  0
 17  1  1  0  0  0  0
 18  6  1  0  0  0  0
 18 13  1  0  0  0  0
 19 20  1  0  0  0  0
 19  7  2  0  0  0  0
 20  8  1  0  0  0  0
 21 15  1  0  0  0  0
 21 12  2  0  0  0  0
 22  3  2  0  0  0  0
 22 23  1  0  0  0  0
 23 18  2  0  0  0  0
 25 27  1  0  0  0  0
 26 28  1  0  0  0  0
 28 24  2  0  0  0  0
 28 27  1  0  0  0  0
 29 26  2  0  0  0  0
 29 25  1  0  0  0  0
 30 29  1  0  0  0  0
 31 30  1  0  0  0  0
M  END
>  <MODEL>
5

>  <REMARK>
 VINA RESULT:     -10.1      2.392      4.323
  Name = 
  2 active torsions:
  status: ('A' for Active; 'I' for Inactive)
    1  A    between atoms: O_1  and  C_24
    2  A    between atoms: C_3  and  C_9
                            x       y       z     vdW  Elec       q    Type
                         _______ _______ _______ _____ _____    ______ ____

>  <TORSDO>
F 2

$$$$
=
 OpenBabel10262419253D

 31 35  0  0  1  0  0  0  0  0999 V2000
  187.6840  177.7080  140.5570 C   0  0  1  0  0  3  0  0  0  0  0  0
  185.9200  178.2610  143.8520 C   0  0  0  0  0  0  0  0  0  0  0  0
  186.9250  178.0280  144.8360 C   0  0  0  0  0  0  0  0  0  0  0  0
  180.0010  179.5960  143.5480 O   0  0  0  0  0  0  0  0  0  0  0  0
  181.0960  179.3580  142.9730 C   0  0  0  0  0  0  0  0  0  0  0  0
  189.2200  177.5000  145.4820 C   0  0  0  0  0  3  0  0  0  0  0  0
  186.1680  178.2050  142.4570 C   0  0  0  0  0  0  0  0  0  0  0  0
  186.8070  178.6280  139.7200 C   0  0  0  0  0  2  0  0  0  0  0  0
  188.2550  177.7240  144.4970 C   0  0  0  0  0  3  0  0  0  0  0  0
  183.5830  178.7940  143.3430 C   0  0  0  0  0  0  0  0  0  0  0  0
  189.1440  177.9600  140.2430 C   0  0  0  0  0  1  0  0  0  0  0  0
  185.2890  178.4000  146.6080 C   0  0  0  0  0  3  0  0  0  0  0  0
  190.0810  177.2990  148.0640 Cl  0  0  0  0  0  0  0  0  0  0  0  0
  183.8730  178.7330  142.0180 N   0  0  0  0  0  0  0  0  0  0  0  0
  184.5990  178.5610  144.2870 C   0  0  0  0  0  0  0  0  0  0  0  0
  182.2470  179.0920  143.7860 N   0  0  0  0  0  2  0  0  0  0  0  0
  187.4470  177.9310  141.9460 O   0  0  0  0  0  0  0  0  0  0  0  0
  188.8720  177.5780  146.8300 C   0  0  0  0  0  0  0  0  0  0  0  0
  185.1180  178.4610  141.5570 C   0  0  0  0  0  0  0  0  0  0  0  0
  185.3450  178.3780  140.0750 C   0  0  0  0  0  2  0  0  0  0  0  0
  184.3040  178.6260  145.6530 C   0  0  0  0  0  3  0  0  0  0  0  0
  186.5890  178.1030  146.2140 C   0  0  0  0  0  0  0  0  0  0  0  0
  187.5600  177.8790  147.1950 C   0  0  0  0  0  3  0  0  0  0  0  0
  181.1770  179.3580  141.4990 C   0  0  0  0  0  3  0  0  0  0  0  0
  179.9910  176.9160  138.8030 C   0  0  0  0  0  2  0  0  0  0  0  0
  180.0410  177.2440  141.1570 N   0  0  0  0  0  0  0  0  0  0  0  0
  180.8620  178.5190  138.9250 S   0  0  0  0  0  0  0  0  0  0  0  0
  180.7020  178.4070  140.6930 C   0  0  0  0  0  0  0  0  0  0  0  0
  179.6710  176.4700  140.1930 C   0  0  0  0  0  0  0  0  0  0  0  0
  179.0000  175.2680  140.4260 O   0  0  0  0  0  0  0  0  0  0  0  0
  179.2510  174.1020  139.6550 C   0  0  0  0  0  1  0  0  0  0  0  0
  1 11  1  1  0  0  0
  1 17  1  0  0  0  0
  2 15  2  0  0  0  0
  2  3  1  0  0  0  0
  3 22  1  0  0  0  0
  5  4  2  0  0  0  0
  5 16  1  0  0  0  0
  6 18  2  0  0  0  0
  7  2  1  0  0  0  0
  8 20  1  0  0  0  0
  8  1  1  0  0  0  0
  9  3  2  0  0  0  0
  9  6  1  0  0  0  0
 10 16  1  0  0  0  0
 10 15  1  0  0  0  0
 14 10  2  0  0  0  0
 15 21  1  0  0  0  0
 17  7  1  0  0  0  0
 18 23  1  0  0  0  0
 18 13  1  0  0  0  0
 19 14  1  0  0  0  0
 19  7  2  0  0  0  0
 20 19  1  0  0  0  0
 21 12  2  0  0  0  0
 22 12  1  0  0  0  0
 22 23  2  0  0  0  0
 24  5  1  0  0  0  0
 25 27  1  0  0  0  0
 25 29  1  0  0  0  0
 27 28  1  0  0  0  0
 28 26  1  0  0  0  0
 28 24  2  0  0  0  0
 29 30  1  0  0  0  0
 29 26  2  0  0  0  0
 31 30  1  0  0  0  0
M  END
>  <MODEL>
6

>  <REMARK>
 VINA RESULT:     -10.0      1.719      2.500
  Name = 
  2 active torsions:
  status: ('A' for Active; 'I' for Inactive)
    1  A    between atoms: O_1  and  C_24
    2  A    between atoms: C_3  and  C_9
                            x       y       z     vdW  Elec       q    Type
                         _______ _______ _______ _____ _____    ______ ____

>  <TORSDO>
F 2

$$$$
=
 OpenBabel10262419253D

 31 35  0  0  1  0  0  0  0  0999 V2000
  188.0220  177.6740  140.7780 C   0  0  1  0  0  3  0  0  0  0  0  0
  185.6790  178.3570  143.6630 C   0  0  0  0  0  0  0  0  0  0  0  0
  186.4930  178.2050  144.8240 C   0  0  0  0  0  0  0  0  0  0  0  0
  179.8930  179.5140  142.2180 O   0  0  0  0  0  0  0  0  0  0  0  0
  181.0780  179.2740  141.8640 C   0  0  0  0  0  0  0  0  0  0  0  0
  188.6400  177.7740  145.9030 C   0  0  0  0  0  3  0  0  0  0  0  0
  186.1780  178.2320  142.3410 C   0  0  0  0  0  0  0  0  0  0  0  0
  187.2960  178.5230  139.7440 C   0  0  0  0  0  2  0  0  0  0  0  0
  187.8670  177.9180  144.7490 C   0  0  0  0  0  3  0  0  0  0  0  0
  183.4660  178.7990  142.7090 C   0  0  0  0  0  0  0  0  0  0  0  0
  189.5100  177.9480  140.7190 C   0  0  0  0  0  1  0  0  0  0  0  0
  184.5560  178.6280  146.2460 C   0  0  0  0  0  3  0  0  0  0  0  0
  189.0210  177.7370  148.6050 Cl  0  0  0  0  0  0  0  0  0  0  0  0
  183.9930  178.6740  141.4640 N   0  0  0  0  0  0  0  0  0  0  0  0
  184.2970  178.6450  143.8330 C   0  0  0  0  0  0  0  0  0  0  0  0
  182.0670  179.0840  142.8860 N   0  0  0  0  0  2  0  0  0  0  0  0
  187.5330  177.9650  142.0860 O   0  0  0  0  0  0  0  0  0  0  0  0
  188.0520  177.9160  147.1590 C   0  0  0  0  0  0  0  0  0  0  0  0
  185.3050  178.4110  141.2520 C   0  0  0  0  0  0  0  0  0  0  0  0
  185.7990  178.2530  139.8430 C   0  0  0  0  0  2  0  0  0  0  0  0
  183.7570  178.7760  145.1180 C   0  0  0  0  0  3  0  0  0  0  0  0
  185.9100  178.3460  146.1120 C   0  0  0  0  0  0  0  0  0  0  0  0
  186.6900  178.2010  147.2630 C   0  0  0  0  0  3  0  0  0  0  0  0
  181.4260  179.1970  140.4320 C   0  0  0  0  0  3  0  0  0  0  0  0
  180.6450  181.4180  137.4150 C   0  0  0  0  0  2  0  0  0  0  0  0
  180.2800  181.2240  139.7560 N   0  0  0  0  0  0  0  0  0  0  0  0
  181.5460  179.8730  137.7940 S   0  0  0  0  0  0  0  0  0  0  0  0
  181.0640  180.0740  139.4940 C   0  0  0  0  0  0  0  0  0  0  0  0
  180.0580  181.9220  138.6940 C   0  0  0  0  0  0  0  0  0  0  0  0
  179.3060  183.0970  138.7260 O   0  0  0  0  0  0  0  0  0  0  0  0
  179.5660  184.1830  137.8500 C   0  0  0  0  0  1  0  0  0  0  0  0
  1 11  1  1  0  0  0
  1 17  1  0  0  0  0
  2 15  2  0  0  0  0
  2  3  1  0  0  0  0
  3 22  1  0  0  0  0
  5  4  2  0  0  0  0
  5 16  1  0  0  0  0
  6 18  2  0  0  0  0
  7  2  1  0  0  0  0
  8 20  1  0  0  0  0
  8  1  1  0  0  0  0
  9  3  2  0  0  0  0
  9  6  1  0  0  0  0
 10 16  1  0  0  0  0
 10 15  1  0  0  0  0
 14 10  2  0  0  0  0
 15 21  1  0  0  0  0
 17  7  1  0  0  0  0
 18 23  1  0  0  0  0
 18 13  1  0  0  0  0
 19 14  1  0  0  0  0
 19  7  2  0  0  0  0
 20 19  1  0  0  0  0
 21 12  2  0  0  0  0
 22 12  1  0  0  0  0
 22 23  2  0  0  0  0
 24  5  1  0  0  0  0
 25 27  1  0  0  0  0
 25 29  1  0  0  0  0
 27 28  1  0  0  0  0
 28 26  1  0  0  0  0
 28 24  2  0  0  0  0
 29 30  1  0  0  0  0
 29 26  2  0  0  0  0
 31 30  1  0  0  0  0
M  END
>  <MODEL>
7

>  <REMARK>
 VINA RESULT:      -9.9      2.557      3.523
  Name = 
  2 active torsions:
  status: ('A' for Active; 'I' for Inactive)
    1  A    between atoms: O_1  and  C_24
    2  A    between atoms: C_3  and  C_9
                            x       y       z     vdW  Elec       q    Type
                         _______ _______ _______ _____ _____    ______ ____

>  <TORSDO>
F 2

$$$$
=
 OpenBabel10262419253D

 31 35  0  0  1  0  0  0  0  0999 V2000
  191.1010  176.4390  143.8940 C   0  0  1  0  0  3  0  0  0  0  0  0
  187.8680  177.8330  142.5230 C   0  0  0  0  0  0  0  0  0  0  0  0
  187.0140  177.9320  143.6610 C   0  0  0  0  0  0  0  0  0  0  0  0
  187.6680  178.7740  136.5250 O   0  0  0  0  0  0  0  0  0  0  0  0
  188.3070  178.4290  137.5540 C   0  0  0  0  0  0  0  0  0  0  0  0
  186.5870  177.7070  146.0540 C   0  0  0  0  0  3  0  0  0  0  0  0
  189.2140  177.3920  142.5960 C   0  0  0  0  0  0  0  0  0  0  0  0
  192.0230  177.0440  142.8450 C   0  0  0  0  0  2  0  0  0  0  0  0
  187.4450  177.6000  144.9580 C   0  0  0  0  0  3  0  0  0  0  0  0
  188.1600  178.0990  140.1050 C   0  0  0  0  0  0  0  0  0  0  0  0
  191.6800  176.6530  145.2760 C   0  0  0  0  0  1  0  0  0  0  0  0
  185.1960  178.7230  142.2380 C   0  0  0  0  0  3  0  0  0  0  0  0
  184.2030  178.2860  147.2500 Cl  0  0  0  0  0  0  0  0  0  0  0  0
  189.4440  177.6760  140.2290 N   0  0  0  0  0  0  0  0  0  0  0  0
  187.3470  178.1880  141.2480 C   0  0  0  0  0  0  0  0  0  0  0  0
  187.6280  178.4540  138.8170 N   0  0  0  0  0  2  0  0  0  0  0  0
  189.8090  177.0380  143.8180 O   0  0  0  0  0  0  0  0  0  0  0  0
  185.2770  178.1510  145.8750 C   0  0  0  0  0  0  0  0  0  0  0  0
  189.9880  177.3370  141.4220 C   0  0  0  0  0  0  0  0  0  0  0  0
  191.4050  176.8440  141.4650 C   0  0  0  0  0  2  0  0  0  0  0  0
  186.0230  178.6270  141.1250 C   0  0  0  0  0  3  0  0  0  0  0  0
  185.6770  178.3830  143.4970 C   0  0  0  0  0  0  0  0  0  0  0  0
  184.8240  178.4880  144.6000 C   0  0  0  0  0  3  0  0  0  0  0  0
  189.7190  178.0130  137.4470 C   0  0  0  0  0  3  0  0  0  0  0  0
  191.4380  174.6080  137.1400 C   0  0  0  0  0  2  0  0  0  0  0  0
  189.2990  175.6280  137.3250 N   0  0  0  0  0  0  0  0  0  0  0  0
  191.8890  176.3780  137.2230 S   0  0  0  0  0  0  0  0  0  0  0  0
  190.1550  176.7560  137.3450 C   0  0  0  0  0  0  0  0  0  0  0  0
  189.9490  174.5180  137.2200 C   0  0  0  0  0  0  0  0  0  0  0  0
  189.3000  173.2830  137.1810 O   0  0  0  0  0  0  0  0  0  0  0  0
  187.9630  173.1460  136.7220 C   0  0  0  0  0  1  0  0  0  0  0  0
  1 11  1  1  0  0  0
  2  7  1  0  0  0  0
  2  3  1  0  0  0  0
  3  9  1  0  0  0  0
  4  5  2  0  0  0  0
  5 16  1  0  0  0  0
  7 17  1  0  0  0  0
  8  1  1  0  0  0  0
  9  6  2  0  0  0  0
 10 14  2  0  0  0  0
 10 15  1  0  0  0  0
 12 22  1  0  0  0  0
 14 19  1  0  0  0  0
 15  2  2  0  0  0  0
 16 10  1  0  0  0  0
 17  1  1  0  0  0  0
 18  6  1  0  0  0  0
 18 13  1  0  0  0  0
 19 20  1  0  0  0  0
 19  7  2  0  0  0  0
 20  8  1  0  0  0  0
 21 15  1  0  0  0  0
 21 12  2  0  0  0  0
 22  3  2  0  0  0  0
 22 23  1  0  0  0  0
 23 18  2  0  0  0  0
 24  5  1  0  0  0  0
 25 29  1  0  0  0  0
 25 27  1  0  0  0  0
 26 28  1  0  0  0  0
 27 28  1  0  0  0  0
 28 24  2  0  0  0  0
 29 26  2  0  0  0  0
 30 29  1  0  0  0  0
 31 30  1  0  0  0  0
M  END
>  <MODEL>
8

>  <REMARK>
 VINA RESULT:      -9.8      4.181      6.525
  Name = 
  2 active torsions:
  status: ('A' for Active; 'I' for Inactive)
    1  A    between atoms: O_1  and  C_24
    2  A    between atoms: C_3  and  C_9
                            x       y       z     vdW  Elec       q    Type
                         _______ _______ _______ _____ _____    ______ ____

>  <TORSDO>
F 2

$$$$
=
 OpenBabel10262419253D

 31 35  0  0  1  0  0  0  0  0999 V2000
  188.0480  177.4770  144.4680 C   0  0  1  0  0  3  0  0  0  0  0  0
  185.6470  178.3830  141.6950 C   0  0  0  0  0  0  0  0  0  0  0  0
  184.3910  178.5420  142.3520 C   0  0  0  0  0  0  0  0  0  0  0  0
  187.9570  178.5590  136.0800 O   0  0  0  0  0  0  0  0  0  0  0  0
  188.1160  178.4030  137.3200 C   0  0  0  0  0  0  0  0  0  0  0  0
  183.0040  178.5730  144.3610 C   0  0  0  0  0  3  0  0  0  0  0  0
  186.8510  178.0820  142.3820 C   0  0  0  0  0  0  0  0  0  0  0  0
  189.3050  178.0320  143.8140 C   0  0  0  0  0  2  0  0  0  0  0  0
  184.2470  178.4130  143.7450 C   0  0  0  0  0  3  0  0  0  0  0  0
  186.9210  178.3770  139.6020 C   0  0  0  0  0  0  0  0  0  0  0  0
  187.9850  177.9120  145.9170 C   0  0  0  0  0  1  0  0  0  0  0  0
  183.3150  178.9790  140.2060 C   0  0  0  0  0  3  0  0  0  0  0  0
  180.3210  179.0690  144.3680 Cl  0  0  0  0  0  0  0  0  0  0  0  0
  188.0470  178.0940  140.3060 N   0  0  0  0  0  0  0  0  0  0  0  0
  185.6990  178.5290  140.2810 C   0  0  0  0  0  0  0  0  0  0  0  0
  186.9680  178.5200  138.1720 N   0  0  0  0  0  2  0  0  0  0  0  0
  186.8890  177.9380  143.7780 O   0  0  0  0  0  0  0  0  0  0  0  0
  181.8780  178.8680  143.5950 C   0  0  0  0  0  0  0  0  0  0  0  0
  188.0480  177.9560  141.6530 C   0  0  0  0  0  0  0  0  0  0  0  0
  189.3320  177.6070  142.3490 C   0  0  0  0  0  2  0  0  0  0  0  0
  184.5360  178.8240  139.5600 C   0  0  0  0  0  3  0  0  0  0  0  0
  183.2320  178.8410  141.5870 C   0  0  0  0  0  0  0  0  0  0  0  0
  181.9910  179.0010  142.2110 C   0  0  0  0  0  3  0  0  0  0  0  0
  189.4550  178.1110  137.8680 C   0  0  0  0  0  3  0  0  0  0  0  0
  191.6340  174.9660  137.9410 C   0  0  0  0  0  2  0  0  0  0  0  0
  189.5320  175.7840  137.1910 N   0  0  0  0  0  0  0  0  0  0  0  0
  191.7010  176.7030  138.5060 S   0  0  0  0  0  0  0  0  0  0  0  0
  190.0820  176.9340  137.8060 C   0  0  0  0  0  0  0  0  0  0  0  0
  190.3210  174.7650  137.2550 C   0  0  0  0  0  0  0  0  0  0  0  0
  189.9760  173.5270  136.7100 O   0  0  0  0  0  0  0  0  0  0  0  0
  188.6570  173.0100  136.7890 C   0  0  0  0  0  1  0  0  0  0  0  0
  1 11  1  1  0  0  0
  2  3  1  0  0  0  0
  2  7  1  0  0  0  0
  3  9  1  0  0  0  0
  4  5  2  0  0  0  0
  5 24  1  0  0  0  0
  5 16  1  0  0  0  0
  7 17  1  0  0  0  0
  8  1  1  0  0  0  0
  9  6  2  0  0  0  0
 10 15  1  0  0  0  0
 10 14  2  0  0  0  0
 12 22  1  0  0  0  0
 14 19  1  0  0  0  0
 15  2  2  0  0  0  0
 16 10  1  0  0  0  0
 17  1  1  0  0  0  0
 18  6  1  0  0  0  0
 18 13  1  0  0  0  0
 19 20  1  0  0  0  0
 19  7  2  0  0  0  0
 20  8  1  0  0  0  0
 21 12  2  0  0  0  0
 21 15  1  0  0  0  0
 22 23  1  0  0  0  0
 22  3  2  0  0  0  0
 23 18  2  0  0  0  0
 25 27  1  0  0  0  0
 26 29  2  0  0  0  0
 26 28  1  0  0  0  0
 28 24  2  0  0  0  0
 28 27  1  0  0  0  0
 29 25  1  0  0  0  0
 30 31  1  0  0  0  0
 30 29  1  0  0  0  0
M  END
>  <MODEL>
9

>  <REMARK>
 VINA RESULT:      -9.4      4.152      7.666
  Name = 
  2 active torsions:
  status: ('A' for Active; 'I' for Inactive)
    1  A    between atoms: O_1  and  C_24
    2  A    between atoms: C_3  and  C_9
                            x       y       z     vdW  Elec       q    Type
                         _______ _______ _______ _____ _____    ______ ____

>  <TORSDO>
F 2

$$$$
