=
 OpenBabel10262421223D

 32 36  0  0  0  0  0  0  0  0999 V2000
  183.1830  178.7500  144.7450 C   0  0  0  0  0  3  0  0  0  0  0  0
  187.9210  177.8460  142.5680 N   0  0  0  0  0  0  0  0  0  0  0  0
  190.5650  176.8720  146.6580 C   0  0  0  0  0  3  0  0  0  0  0  0
  191.7020  176.6780  145.8750 C   0  0  0  0  0  3  0  0  0  0  0  0
  189.1060  177.7700  140.3410 C   0  0  0  0  0  0  0  0  0  0  0  0
  190.2760  177.5650  139.5960 C   0  0  0  0  0  0  0  0  0  0  0  0
  185.5430  178.3880  142.6680 C   0  0  0  0  0  0  0  0  0  0  0  0
  186.8880  177.8920  144.7490 C   0  0  0  0  0  3  0  0  0  0  0  0
  184.5880  178.4040  144.9860 C   0  0  0  0  0  3  0  0  0  0  0  0
  189.3530  177.2060  146.0520 C   0  0  0  0  0  3  0  0  0  0  0  0
  187.9860  177.7040  144.0060 C   0  0  0  0  0  0  0  0  0  0  0  0
  189.2640  177.3500  144.6570 C   0  0  0  0  0  0  0  0  0  0  0  0
  190.3340  177.3030  142.3930 C   0  0  0  0  0  0  0  0  0  0  0  0
  183.1160  178.9850  142.2700 C   0  0  0  0  0  3  0  0  0  0  0  0
  185.6000  178.2450  144.1390 C   0  0  0  0  0  0  0  0  0  0  0  0
  190.2210  177.7000  138.2120 O   0  0  0  0  0  1  0  0  0  0  0  0
  184.3590  178.7330  141.8780 C   0  0  0  0  0  3  0  0  0  0  0  0
  182.5250  179.0030  143.6120 C   0  0  0  0  0  0  0  0  0  0  0  0
  191.6250  176.8190  144.4880 C   0  0  0  0  0  3  0  0  0  0  0  0
  190.4090  177.1560  143.8660 C   0  0  0  0  0  0  0  0  0  0  0  0
  191.4880  177.1040  141.6260 C   0  0  0  0  0  3  0  0  0  0  0  0
  186.6590  178.1920  141.9620 C   0  0  0  0  0  3  0  0  0  0  0  0
  187.9460  178.1000  139.6470 O   0  0  0  0  0  1  0  0  0  0  0  0
  189.1140  177.6420  141.7590 C   0  0  0  0  0  0  0  0  0  0  0  0
  191.4800  177.2300  140.2370 C   0  0  0  0  0  0  0  0  0  0  0  0
  180.3080  179.8550  142.6100 C   0  0  0  0  0  0  0  0  0  0  0  0
  181.1260  179.3230  143.6620 N   0  0  0  0  0  2  0  0  0  0  0  0
  178.9310  180.1070  142.8590 N   0  0  0  0  0  1  0  0  0  0  0  0
  180.7850  180.1030  141.4730 O   0  0  0  0  0  0  0  0  0  0  0  0
  192.7420  177.0040  139.4950 C   0  0  0  0  0  0  0  0  0  0  0  0
  192.7840  176.1670  138.3860 O   0  0  0  0  0  0  0  0  0  0  0  0
  193.8040  177.5720  139.8650 O   0  0  0  0  0  1  0  0  0  0  0  0
  1  9  1  0  0  0  0
  2 11  1  0  0  0  0
  4  3  2  0  0  0  0
  5 24  1  0  0  0  0
  6 25  1  0  0  0  0
  6  5  2  0  0  0  0
  7 15  1  0  0  0  0
 10  3  1  0  0  0  0
 11 12  1  0  0  0  0
 11  8  2  0  0  0  0
 12 10  2  0  0  0  0
 13 20  1  0  0  0  0
 14 18  1  0  0  0  0
 15  8  1  0  0  0  0
 15  9  2  0  0  0  0
 16  6  1  0  0  0  0
 17 14  2  0  0  0  0
 17  7  1  0  0  0  0
 18 27  1  0  0  0  0
 18  1  2  0  0  0  0
 19  4  1  0  0  0  0
 20 19  2  0  0  0  0
 20 12  1  0  0  0  0
 21 13  1  0  0  0  0
 22  2  1  0  0  0  0
 22  7  2  0  0  0  0
 23  5  1  0  0  0  0
 24 13  2  0  0  0  0
 24  2  1  0  0  0  0
 25 21  2  0  0  0  0
 26 28  1  0  0  0  0
 26 27  1  0  0  0  0
 29 26  2  0  0  0  0
 30 32  1  0  0  0  0
 30 25  1  0  0  0  0
 31 30  2  0  0  0  0
M  END
>  <MODEL>
1

>  <REMARK>
 VINA RESULT:     -11.8      0.000      0.000
  Name = 
  2 active torsions:
  status: ('A' for Active; 'I' for Inactive)
    1  A    between atoms: N_10  and  C_24
    2  A    between atoms: C_11  and  C_32
                            x       y       z     vdW  Elec       q    Type
                         _______ _______ _______ _____ _____    ______ ____

>  <TORSDO>
F 2

$$$$
=
 OpenBabel10262421223D

 32 36  0  0  0  0  0  0  0  0999 V2000
  192.0460  177.1660  141.0080 C   0  0  0  0  0  3  0  0  0  0  0  0
  187.0490  178.0780  142.4940 N   0  0  0  0  0  0  0  0  0  0  0  0
  187.5890  177.9280  147.4290 C   0  0  0  0  0  3  0  0  0  0  0  0
  186.2260  178.1790  147.5840 C   0  0  0  0  0  3  0  0  0  0  0  0
  184.7450  178.5150  141.5630 C   0  0  0  0  0  0  0  0  0  0  0  0
  183.3810  178.7660  141.7690 C   0  0  0  0  0  0  0  0  0  0  0  0
  188.9340  177.7430  140.9790 C   0  0  0  0  0  0  0  0  0  0  0  0
  189.2090  177.6670  143.4900 C   0  0  0  0  0  3  0  0  0  0  0  0
  191.1200  177.3260  142.1340 C   0  0  0  0  0  3  0  0  0  0  0  0
  188.1380  177.8390  146.1480 C   0  0  0  0  0  3  0  0  0  0  0  0
  187.9020  177.9080  143.6500 C   0  0  0  0  0  0  0  0  0  0  0  0
  187.3300  178.0010  145.0090 C   0  0  0  0  0  0  0  0  0  0  0  0
  185.0900  178.4260  143.9730 C   0  0  0  0  0  0  0  0  0  0  0  0
  190.5450  177.4640  139.0470 C   0  0  0  0  0  3  0  0  0  0  0  0
  189.8130  177.5680  142.1560 C   0  0  0  0  0  0  0  0  0  0  0  0
  182.5540  178.9310  140.6620 O   0  0  0  0  0  1  0  0  0  0  0  0
  189.3460  177.6810  139.5750 C   0  0  0  0  0  3  0  0  0  0  0  0
  191.8400  177.2170  139.6900 C   0  0  0  0  0  0  0  0  0  0  0  0
  185.4150  178.3410  146.4590 C   0  0  0  0  0  3  0  0  0  0  0  0
  185.9560  178.2540  145.1630 C   0  0  0  0  0  0  0  0  0  0  0  0
  183.7250  178.6780  144.1520 C   0  0  0  0  0  3  0  0  0  0  0  0
  187.6370  177.9820  141.1800 C   0  0  0  0  0  3  0  0  0  0  0  0
  185.1980  178.4440  140.2490 O   0  0  0  0  0  1  0  0  0  0  0  0
  185.6270  178.3400  142.6660 C   0  0  0  0  0  0  0  0  0  0  0  0
  182.8600  178.8490  143.0710 C   0  0  0  0  0  0  0  0  0  0  0  0
  193.1990  175.8890  137.9480 C   0  0  0  0  0  0  0  0  0  0  0  0
  192.9430  177.0210  138.7920 N   0  0  0  0  0  2  0  0  0  0  0  0
  194.3570  175.8840  137.1240 N   0  0  0  0  0  1  0  0  0  0  0  0
  192.4190  174.9020  137.9240 O   0  0  0  0  0  0  0  0  0  0  0  0
  181.4270  179.1120  143.3410 C   0  0  0  0  0  0  0  0  0  0  0  0
  180.8070  180.2640  142.8730 O   0  0  0  0  0  0  0  0  0  0  0  0
  180.7480  178.2870  144.0080 O   0  0  0  0  0  1  0  0  0  0  0  0
  1  9  1  0  0  0  0
  2 24  1  0  0  0  0
  2 11  1  0  0  0  0
  3  4  1  0  0  0  0
  5  6  2  0  0  0  0
  5 24  1  0  0  0  0
  6 25  1  0  0  0  0
  7 22  2  0  0  0  0
  7 15  1  0  0  0  0
  8 11  2  0  0  0  0
  9 15  2  0  0  0  0
 10  3  2  0  0  0  0
 11 12  1  0  0  0  0
 12 20  2  0  0  0  0
 12 10  1  0  0  0  0
 13 21  1  0  0  0  0
 13 20  1  0  0  0  0
 14 17  2  0  0  0  0
 14 18  1  0  0  0  0
 15  8  1  0  0  0  0
 16  6  1  0  0  0  0
 17  7  1  0  0  0  0
 18  1  2  0  0  0  0
 19  4  2  0  0  0  0
 20 19  1  0  0  0  0
 22  2  1  0  0  0  0
 23  5  1  0  0  0  0
 24 13  2  0  0  0  0
 25 30  1  0  0  0  0
 25 21  2  0  0  0  0
 26 27  1  0  0  0  0
 27 18  1  0  0  0  0
 28 26  1  0  0  0  0
 29 26  2  0  0  0  0
 30 32  1  0  0  0  0
 31 30  2  0  0  0  0
M  END
>  <MODEL>
2

>  <REMARK>
 VINA RESULT:     -11.7      2.431      8.324
  Name = 
  2 active torsions:
  status: ('A' for Active; 'I' for Inactive)
    1  A    between atoms: N_10  and  C_24
    2  A    between atoms: C_11  and  C_32
                            x       y       z     vdW  Elec       q    Type
                         _______ _______ _______ _____ _____    ______ ____

>  <TORSDO>
F 2

$$$$
=
 OpenBabel10262421223D

 32 36  0  0  0  0  0  0  0  0999 V2000
  190.4090  176.8500  147.8880 C   0  0  0  0  0  3  0  0  0  0  0  0
  188.2320  177.6980  143.1390 N   0  0  0  0  0  0  0  0  0  0  0  0
  183.5980  178.8310  144.5170 C   0  0  0  0  0  3  0  0  0  0  0  0
  183.2430  179.0030  143.1800 C   0  0  0  0  0  3  0  0  0  0  0  0
  188.7730  177.7000  140.6740 C   0  0  0  0  0  0  0  0  0  0  0  0
  188.3700  177.8830  139.3430 C   0  0  0  0  0  0  0  0  0  0  0  0
  189.9650  177.1490  144.7680 C   0  0  0  0  0  0  0  0  0  0  0  0
  187.6070  177.7260  145.4700 C   0  0  0  0  0  3  0  0  0  0  0  0
  189.1930  177.2120  147.1520 C   0  0  0  0  0  3  0  0  0  0  0  0
  184.9040  178.4700  144.8490 C   0  0  0  0  0  3  0  0  0  0  0  0
  187.2560  177.8920  144.1890 C   0  0  0  0  0  0  0  0  0  0  0  0
  185.8710  178.2760  143.8480 C   0  0  0  0  0  0  0  0  0  0  0  0
  186.5220  178.2460  141.4300 C   0  0  0  0  0  0  0  0  0  0  0  0
  192.0550  176.5260  146.0520 C   0  0  0  0  0  3  0  0  0  0  0  0
  188.9730  177.3450  145.8480 C   0  0  0  0  0  0  0  0  0  0  0  0
  189.3030  177.6980  138.3280 O   0  0  0  0  0  1  0  0  0  0  0  0
  191.3690  176.7700  144.9420 C   0  0  0  0  0  3  0  0  0  0  0  0
  191.6370  176.5540  147.4580 C   0  0  0  0  0  0  0  0  0  0  0  0
  184.1960  178.8120  142.1770 C   0  0  0  0  0  3  0  0  0  0  0  0
  185.5160  178.4470  142.4980 C   0  0  0  0  0  0  0  0  0  0  0  0
  186.1440  178.4230  140.0930 C   0  0  0  0  0  3  0  0  0  0  0  0
  189.5770  177.3240  143.5030 C   0  0  0  0  0  3  0  0  0  0  0  0
  190.0970  177.3390  140.9040 O   0  0  0  0  0  1  0  0  0  0  0  0
  187.8530  177.8790  141.7450 C   0  0  0  0  0  0  0  0  0  0  0  0
  187.0460  178.2470  139.0430 C   0  0  0  0  0  0  0  0  0  0  0  0
  193.2100  177.0720  149.4340 C   0  0  0  0  0  0  0  0  0  0  0  0
  192.6620  176.2290  148.4090 N   0  0  0  0  0  2  0  0  0  0  0  0
  194.2290  176.5620  150.2830 N   0  0  0  0  0  1  0  0  0  0  0  0
  192.8060  178.2530  149.5940 O   0  0  0  0  0  0  0  0  0  0  0  0
  186.5710  178.4520  137.6560 C   0  0  0  0  0  0  0  0  0  0  0  0
  187.1800  179.3780  136.8170 O   0  0  0  0  0  0  0  0  0  0  0  0
  185.5990  177.7840  137.2150 O   0  0  0  0  0  1  0  0  0  0  0  0
  2 22  1  0  0  0  0
  2 11  1  0  0  0  0
  3 10  1  0  0  0  0
  4  3  2  0  0  0  0
  5 23  1  0  0  0  0
  5 24  1  0  0  0  0
  6  5  2  0  0  0  0
  7 17  1  0  0  0  0
  7 15  1  0  0  0  0
  8 15  1  0  0  0  0
  9  1  1  0  0  0  0
 11  8  2  0  0  0  0
 12 11  1  0  0  0  0
 12 10  2  0  0  0  0
 13 24  2  0  0  0  0
 13 20  1  0  0  0  0
 14 18  1  0  0  0  0
 15  9  2  0  0  0  0
 16  6  1  0  0  0  0
 17 14  2  0  0  0  0
 18  1  2  0  0  0  0
 18 27  1  0  0  0  0
 19 20  2  0  0  0  0
 19  4  1  0  0  0  0
 20 12  1  0  0  0  0
 21 13  1  0  0  0  0
 22  7  2  0  0  0  0
 24  2  1  0  0  0  0
 25  6  1  0  0  0  0
 25 21  2  0  0  0  0
 26 29  2  0  0  0  0
 26 28  1  0  0  0  0
 27 26  1  0  0  0  0
 30 25  1  0  0  0  0
 31 30  2  0  0  0  0
 32 30  1  0  0  0  0
M  END
>  <MODEL>
3

>  <REMARK>
 VINA RESULT:     -11.3      3.251      7.564
  Name = 
  2 active torsions:
  status: ('A' for Active; 'I' for Inactive)
    1  A    between atoms: N_10  and  C_24
    2  A    between atoms: C_11  and  C_32
                            x       y       z     vdW  Elec       q    Type
                         _______ _______ _______ _____ _____    ______ ____

>  <TORSDO>
F 2

$$$$
=
 OpenBabel10262421223D

 32 36  0  0  0  0  0  0  0  0999 V2000
  183.4700  178.9760  140.6400 C   0  0  0  0  0  3  0  0  0  0  0  0
  187.6160  177.8190  143.7180 N   0  0  0  0  0  0  0  0  0  0  0  0
  191.1720  177.4900  140.2670 C   0  0  0  0  0  3  0  0  0  0  0  0
  192.1070  177.1970  141.2600 C   0  0  0  0  0  3  0  0  0  0  0  0
  188.2590  177.4300  146.1270 C   0  0  0  0  0  0  0  0  0  0  0  0
  189.2340  177.1310  147.0900 C   0  0  0  0  0  0  0  0  0  0  0  0
  185.3020  178.3410  143.1410 C   0  0  0  0  0  0  0  0  0  0  0  0
  187.1120  178.1740  141.3850 C   0  0  0  0  0  3  0  0  0  0  0  0
  184.9060  178.6860  140.6900 C   0  0  0  0  0  3  0  0  0  0  0  0
  189.8390  177.7170  140.6130 C   0  0  0  0  0  3  0  0  0  0  0  0
  188.0160  177.8910  142.3300 C   0  0  0  0  0  0  0  0  0  0  0  0
  189.4250  177.6530  141.9540 C   0  0  0  0  0  0  0  0  0  0  0  0
  189.9460  177.2860  144.3760 C   0  0  0  0  0  0  0  0  0  0  0  0
  182.8240  178.8430  143.0380 C   0  0  0  0  0  3  0  0  0  0  0  0
  185.7030  178.4160  141.7190 C   0  0  0  0  0  0  0  0  0  0  0  0
  188.8560  177.0600  148.4280 O   0  0  0  0  0  1  0  0  0  0  0  0
  183.9540  178.5500  143.6720 C   0  0  0  0  0  3  0  0  0  0  0  0
  182.5570  179.0520  141.6110 C   0  0  0  0  0  0  0  0  0  0  0  0
  191.7060  177.1310  142.5960 C   0  0  0  0  0  3  0  0  0  0  0  0
  190.3650  177.3570  142.9570 C   0  0  0  0  0  0  0  0  0  0  0  0
  190.9010  176.9900  145.3560 C   0  0  0  0  0  3  0  0  0  0  0  0
  186.2340  178.0570  144.0540 C   0  0  0  0  0  3  0  0  0  0  0  0
  186.9560  177.6390  146.5700 O   0  0  0  0  0  1  0  0  0  0  0  0
  188.5990  177.5120  144.7480 C   0  0  0  0  0  0  0  0  0  0  0  0
  190.5670  176.9080  146.7090 C   0  0  0  0  0  0  0  0  0  0  0  0
  180.2440  178.5200  140.6050 C   0  0  0  0  0  0  0  0  0  0  0  0
  181.1940  179.3570  141.2800 N   0  0  0  0  0  2  0  0  0  0  0  0
  178.9310  179.0090  140.3670 N   0  0  0  0  0  1  0  0  0  0  0  0
  180.5520  177.3630  140.2180 O   0  0  0  0  0  0  0  0  0  0  0  0
  191.6330  176.5900  147.6870 C   0  0  0  0  0  0  0  0  0  0  0  0
  192.0560  177.5290  148.6200 O   0  0  0  0  0  1  0  0  0  0  0  0
  192.1760  175.4530  147.6820 O   0  0  0  0  0  0  0  0  0  0  0  0
  1  9  1  0  0  0  0
  1 18  2  0  0  0  0
  2 22  1  0  0  0  0
  2 24  1  0  0  0  0
  3 10  2  0  0  0  0
  3  4  1  0  0  0  0
  4 19  2  0  0  0  0
  5 23  1  0  0  0  0
  5  6  1  0  0  0  0
  6 16  1  0  0  0  0
  7 17  1  0  0  0  0
  7 22  2  0  0  0  0
  8 15  1  0  0  0  0
  8 11  2  0  0  0  0
  9 15  2  0  0  0  0
 10 12  1  0  0  0  0
 11  2  1  0  0  0  0
 12 11  1  0  0  0  0
 12 20  2  0  0  0  0
 13 24  1  0  0  0  0
 13 21  2  0  0  0  0
 14 17  2  0  0  0  0
 15  7  1  0  0  0  0
 18 14  1  0  0  0  0
 19 20  1  0  0  0  0
 20 13  1  0  0  0  0
 21 25  1  0  0  0  0
 24  5  2  0  0  0  0
 25  6  2  0  0  0  0
 25 30  1  0  0  0  0
 26 27  1  0  0  0  0
 27 18  1  0  0  0  0
 28 26  1  0  0  0  0
 29 26  2  0  0  0  0
 30 31  1  0  0  0  0
 32 30  2  0  0  0  0
M  END
>  <MODEL>
4

>  <REMARK>
 VINA RESULT:     -11.2      3.237      4.891
  Name = 
  2 active torsions:
  status: ('A' for Active; 'I' for Inactive)
    1  A    between atoms: N_10  and  C_24
    2  A    between atoms: C_11  and  C_32
                            x       y       z     vdW  Elec       q    Type
                         _______ _______ _______ _____ _____    ______ ____

>  <TORSDO>
F 2

$$$$
=
 OpenBabel10262421223D

 32 36  0  0  0  0  0  0  0  0999 V2000
  190.7540  177.2960  145.3270 C   0  0  0  0  0  3  0  0  0  0  0  0
  186.0180  178.2360  143.1590 N   0  0  0  0  0  0  0  0  0  0  0  0
  187.2730  178.2650  138.3540 C   0  0  0  0  0  3  0  0  0  0  0  0
  185.9450  178.5140  138.0100 C   0  0  0  0  0  3  0  0  0  0  0  0
  183.5980  178.6280  143.7580 C   0  0  0  0  0  0  0  0  0  0  0  0
  182.2760  178.8800  143.3630 C   0  0  0  0  0  0  0  0  0  0  0  0
  187.6660  177.8570  144.9200 C   0  0  0  0  0  0  0  0  0  0  0  0
  188.3040  177.8710  142.4750 C   0  0  0  0  0  3  0  0  0  0  0  0
  190.0010  177.4920  144.0840 C   0  0  0  0  0  3  0  0  0  0  0  0
  187.6300  178.1330  139.6970 C   0  0  0  0  0  3  0  0  0  0  0  0
  187.0320  178.1120  142.1350 C   0  0  0  0  0  0  0  0  0  0  0  0
  186.6640  178.2490  140.7110 C   0  0  0  0  0  0  0  0  0  0  0  0
  184.2930  178.6270  141.4220 C   0  0  0  0  0  0  0  0  0  0  0  0
  188.9800  177.5170  147.0560 C   0  0  0  0  0  3  0  0  0  0  0  0
  188.7080  177.7280  143.8790 C   0  0  0  0  0  0  0  0  0  0  0  0
  181.2960  179.0000  144.3430 O   0  0  0  0  0  1  0  0  0  0  0  0
  187.8690  177.7470  146.3670 C   0  0  0  0  0  3  0  0  0  0  0  0
  190.3570  177.2990  146.6010 C   0  0  0  0  0  0  0  0  0  0  0  0
  184.9770  178.6320  139.0100 C   0  0  0  0  0  3  0  0  0  0  0  0
  185.3250  178.5010  140.3660 C   0  0  0  0  0  0  0  0  0  0  0  0
  182.9660  178.8780  141.0550 C   0  0  0  0  0  3  0  0  0  0  0  0
  186.4090  178.0960  144.5400 C   0  0  0  0  0  3  0  0  0  0  0  0
  183.8560  178.5130  145.1200 O   0  0  0  0  0  1  0  0  0  0  0  0
  184.6340  178.4970  142.7900 C   0  0  0  0  0  0  0  0  0  0  0  0
  181.9500  179.0070  142.0030 C   0  0  0  0  0  0  0  0  0  0  0  0
  192.3130  176.0450  147.7180 C   0  0  0  0  0  0  0  0  0  0  0  0
  191.3200  177.0780  147.6440 N   0  0  0  0  0  2  0  0  0  0  0  0
  193.1800  175.9930  148.8430 N   0  0  0  0  0  1  0  0  0  0  0  0
  192.4310  175.1840  146.8080 O   0  0  0  0  0  0  0  0  0  0  0  0
  180.5700  179.2730  141.5360 C   0  0  0  0  0  0  0  0  0  0  0  0
  180.0140  180.5430  141.6220 O   0  0  0  0  0  1  0  0  0  0  0  0
  179.8760  178.3400  141.0510 O   0  0  0  0  0  0  0  0  0  0  0  0
  1 18  2  0  0  0  0
  2 22  1  0  0  0  0
  3 10  1  0  0  0  0
  4  3  2  0  0  0  0
  4 19  1  0  0  0  0
  5 23  1  0  0  0  0
  6  5  1  0  0  0  0
  6 16  1  0  0  0  0
  7 17  1  0  0  0  0
  8 15  1  0  0  0  0
  9  1  1  0  0  0  0
 10 12  2  0  0  0  0
 11  8  2  0  0  0  0
 11  2  1  0  0  0  0
 12 11  1  0  0  0  0
 13 24  1  0  0  0  0
 15  9  2  0  0  0  0
 15  7  1  0  0  0  0
 17 14  2  0  0  0  0
 18 14  1  0  0  0  0
 18 27  1  0  0  0  0
 19 20  2  0  0  0  0
 20 12  1  0  0  0  0
 20 13  1  0  0  0  0
 21 13  2  0  0  0  0
 21 25  1  0  0  0  0
 22  7  2  0  0  0  0
 24  2  1  0  0  0  0
 24  5  2  0  0  0  0
 25  6  2  0  0  0  0
 26 28  1  0  0  0  0
 27 26  1  0  0  0  0
 29 26  2  0  0  0  0
 30 31  1  0  0  0  0
 30 25  1  0  0  0  0
 32 30  2  0  0  0  0
M  END
>  <MODEL>
5

>  <REMARK>
 VINA RESULT:     -11.0      3.646      8.815
  Name = 
  2 active torsions:
  status: ('A' for Active; 'I' for Inactive)
    1  A    between atoms: N_10  and  C_24
    2  A    between atoms: C_11  and  C_32
                            x       y       z     vdW  Elec       q    Type
                         _______ _______ _______ _____ _____    ______ ____

>  <TORSDO>
F 2

$$$$
=
 OpenBabel10262421223D

 32 36  0  0  0  0  0  0  0  0999 V2000
  193.0960  176.7970  139.7930 C   0  0  0  0  0  3  0  0  0  0  0  0
  188.5890  177.7130  142.4100 N   0  0  0  0  0  0  0  0  0  0  0  0
  190.1850  177.1380  147.0780 C   0  0  0  0  0  3  0  0  0  0  0  0
  188.9010  177.4120  147.5500 C   0  0  0  0  0  3  0  0  0  0  0  0
  186.1590  178.2860  142.0480 C   0  0  0  0  0  0  0  0  0  0  0  0
  184.8850  178.5550  142.5690 C   0  0  0  0  0  0  0  0  0  0  0  0
  190.0820  177.4560  140.4960 C   0  0  0  0  0  0  0  0  0  0  0  0
  190.8940  177.1640  142.8710 C   0  0  0  0  0  3  0  0  0  0  0  0
  192.4460  176.8870  141.1040 C   0  0  0  0  0  3  0  0  0  0  0  0
  190.4370  177.1420  145.7060 C   0  0  0  0  0  3  0  0  0  0  0  0
  189.6650  177.4250  143.3330 C   0  0  0  0  0  0  0  0  0  0  0  0
  189.4080  177.4190  144.7890 C   0  0  0  0  0  0  0  0  0  0  0  0
  187.0170  177.9880  144.3080 C   0  0  0  0  0  0  0  0  0  0  0  0
  191.2180  177.2960  138.2400 C   0  0  0  0  0  3  0  0  0  0  0  0
  191.1880  177.1610  141.4330 C   0  0  0  0  0  0  0  0  0  0  0  0
  183.8450  178.8330  141.6870 O   0  0  0  0  0  1  0  0  0  0  0  0
  190.1740  177.5000  139.0350 C   0  0  0  0  0  3  0  0  0  0  0  0
  192.6100  176.9630  138.5610 C   0  0  0  0  0  0  0  0  0  0  0  0
  187.8730  177.6880  146.6470 C   0  0  0  0  0  3  0  0  0  0  0  0
  188.1140  177.6940  145.2610 C   0  0  0  0  0  0  0  0  0  0  0  0
  185.7370  178.2600  144.8030 C   0  0  0  0  0  3  0  0  0  0  0  0
  188.8710  177.7120  140.9960 C   0  0  0  0  0  3  0  0  0  0  0  0
  186.3110  178.3130  140.6650 O   0  0  0  0  0  1  0  0  0  0  0  0
  187.2520  177.9970  142.9120 C   0  0  0  0  0  0  0  0  0  0  0  0
  184.6640  178.5430  143.9560 C   0  0  0  0  0  0  0  0  0  0  0  0
  193.8520  175.6000  136.7590 C   0  0  0  0  0  0  0  0  0  0  0  0
  193.4810  176.8140  137.4290 N   0  0  0  0  0  2  0  0  0  0  0  0
  194.7360  175.6610  135.6470 N   0  0  0  0  0  1  0  0  0  0  0  0
  193.4100  174.4840  137.1370 O   0  0  0  0  0  0  0  0  0  0  0  0
  183.3390  178.8200  144.5550 C   0  0  0  0  0  0  0  0  0  0  0  0
  182.1730  178.6950  143.8090 O   0  0  0  0  0  0  0  0  0  0  0  0
  183.2510  179.1780  145.7600 O   0  0  0  0  0  1  0  0  0  0  0  0
  1  9  1  0  0  0  0
  2 24  1  0  0  0  0
  2 11  1  0  0  0  0
  3  4  1  0  0  0  0
  5  6  2  0  0  0  0
  5 24  1  0  0  0  0
  6 25  1  0  0  0  0
  7 22  2  0  0  0  0
  7 15  1  0  0  0  0
  8 11  2  0  0  0  0
  9 15  2  0  0  0  0
 10  3  2  0  0  0  0
 11 12  1  0  0  0  0
 12 20  2  0  0  0  0
 12 10  1  0  0  0  0
 13 21  1  0  0  0  0
 13 20  1  0  0  0  0
 14 18  1  0  0  0  0
 14 17  2  0  0  0  0
 15  8  1  0  0  0  0
 16  6  1  0  0  0  0
 17  7  1  0  0  0  0
 18  1  2  0  0  0  0
 19  4  2  0  0  0  0
 20 19  1  0  0  0  0
 22  2  1  0  0  0  0
 23  5  1  0  0  0  0
 24 13  2  0  0  0  0
 25 30  1  0  0  0  0
 25 21  2  0  0  0  0
 26 29  2  0  0  0  0
 26 27  1  0  0  0  0
 27 18  1  0  0  0  0
 28 26  1  0  0  0  0
 30 32  1  0  0  0  0
 31 30  2  0  0  0  0
M  END
>  <MODEL>
6

>  <REMARK>
 VINA RESULT:     -10.9      2.802      8.321
  Name = 
  2 active torsions:
  status: ('A' for Active; 'I' for Inactive)
    1  A    between atoms: N_10  and  C_24
    2  A    between atoms: C_11  and  C_32
                            x       y       z     vdW  Elec       q    Type
                         _______ _______ _______ _____ _____    ______ ____

>  <TORSDO>
F 2

$$$$
=
 OpenBabel10262421223D

 32 36  0  0  0  0  0  0  0  0999 V2000
  189.4550  177.2850  137.4870 C   0  0  0  0  0  3  0  0  0  0  0  0
  188.5490  177.5180  142.6960 N   0  0  0  0  0  0  0  0  0  0  0  0
  183.8090  179.0000  142.6690 C   0  0  0  0  0  3  0  0  0  0  0  0
  183.7990  178.9890  144.0640 C   0  0  0  0  0  3  0  0  0  0  0  0
  189.6650  177.1470  144.9290 C   0  0  0  0  0  0  0  0  0  0  0  0
  189.6070  177.1520  146.3300 C   0  0  0  0  0  0  0  0  0  0  0  0
  189.7960  177.1480  140.6310 C   0  0  0  0  0  0  0  0  0  0  0  0
  187.3840  177.9010  140.6170 C   0  0  0  0  0  3  0  0  0  0  0  0
  188.4790  177.5800  138.5420 C   0  0  0  0  0  3  0  0  0  0  0  0
  184.9690  178.6440  141.9800 C   0  0  0  0  0  3  0  0  0  0  0  0
  187.3650  177.8950  141.9550 C   0  0  0  0  0  0  0  0  0  0  0  0
  186.1320  178.2730  142.6760 C   0  0  0  0  0  0  0  0  0  0  0  0
  187.3420  177.8750  144.8320 C   0  0  0  0  0  0  0  0  0  0  0  0
  191.4680  176.6430  138.7990 C   0  0  0  0  0  3  0  0  0  0  0  0
  188.5900  177.5320  139.8660 C   0  0  0  0  0  0  0  0  0  0  0  0
  190.7430  176.7900  147.0490 O   0  0  0  0  0  1  0  0  0  0  0  0
  191.0880  176.7500  140.0670 C   0  0  0  0  0  3  0  0  0  0  0  0
  190.7270  176.8860  137.5570 C   0  0  0  0  0  0  0  0  0  0  0  0
  184.9490  178.6230  144.7650 C   0  0  0  0  0  3  0  0  0  0  0  0
  186.1240  178.2620  144.0820 C   0  0  0  0  0  0  0  0  0  0  0  0
  187.3100  177.8710  146.2320 C   0  0  0  0  0  3  0  0  0  0  0  0
  189.7370  177.1530  141.9640 C   0  0  0  0  0  3  0  0  0  0  0  0
  190.8670  176.7770  144.3320 O   0  0  0  0  0  1  0  0  0  0  0  0
  188.5290  177.5100  144.1520 C   0  0  0  0  0  0  0  0  0  0  0  0
  188.4240  177.5160  146.9930 C   0  0  0  0  0  0  0  0  0  0  0  0
  191.9360  175.4180  135.8170 C   0  0  0  0  0  0  0  0  0  0  0  0
  191.4680  176.6670  136.3470 N   0  0  0  0  0  2  0  0  0  0  0  0
  192.6600  175.4090  134.5940 N   0  0  0  0  0  1  0  0  0  0  0  0
  191.7190  174.3320  136.4140 O   0  0  0  0  0  0  0  0  0  0  0  0
  188.3120  177.5370  148.4700 C   0  0  0  0  0  0  0  0  0  0  0  0
  189.0330  178.4480  149.2320 O   0  0  0  0  0  1  0  0  0  0  0  0
  187.5560  176.7190  149.0590 O   0  0  0  0  0  0  0  0  0  0  0  0
  1 18  2  0  0  0  0
  1  9  1  0  0  0  0
  2 24  1  0  0  0  0
  3  4  1  0  0  0  0
  4 19  2  0  0  0  0
  5  6  1  0  0  0  0
  6 25  2  0  0  0  0
  6 16  1  0  0  0  0
  7 22  2  0  0  0  0
  8 11  2  0  0  0  0
  9 15  2  0  0  0  0
 10  3  2  0  0  0  0
 10 12  1  0  0  0  0
 11 12  1  0  0  0  0
 11  2  1  0  0  0  0
 12 20  2  0  0  0  0
 13 21  2  0  0  0  0
 14 17  2  0  0  0  0
 15  8  1  0  0  0  0
 15  7  1  0  0  0  0
 17  7  1  0  0  0  0
 18 14  1  0  0  0  0
 20 19  1  0  0  0  0
 20 13  1  0  0  0  0
 21 25  1  0  0  0  0
 22  2  1  0  0  0  0
 23  5  1  0  0  0  0
 24 13  1  0  0  0  0
 24  5  2  0  0  0  0
 25 30  1  0  0  0  0
 26 27  1  0  0  0  0
 26 29  2  0  0  0  0
 27 18  1  0  0  0  0
 28 26  1  0  0  0  0
 30 32  2  0  0  0  0
 30 31  1  0  0  0  0
M  END
>  <MODEL>
7

>  <REMARK>
 VINA RESULT:     -10.7      3.878      8.336
  Name = 
  2 active torsions:
  status: ('A' for Active; 'I' for Inactive)
    1  A    between atoms: N_10  and  C_24
    2  A    between atoms: C_11  and  C_32
                            x       y       z     vdW  Elec       q    Type
                         _______ _______ _______ _____ _____    ______ ____

>  <TORSDO>
F 2

$$$$
=
 OpenBabel10262421223D

 32 36  0  0  0  0  0  0  0  0999 V2000
  191.2980  177.3060  144.7280 C   0  0  0  0  0  3  0  0  0  0  0  0
  186.8740  178.1350  141.9440 N   0  0  0  0  0  0  0  0  0  0  0  0
  188.7830  178.3710  137.3650 C   0  0  0  0  0  3  0  0  0  0  0  0
  187.5070  178.5810  136.8450 C   0  0  0  0  0  3  0  0  0  0  0  0
  184.3800  178.4130  142.2070 C   0  0  0  0  0  0  0  0  0  0  0  0
  183.1160  178.6260  141.6380 C   0  0  0  0  0  0  0  0  0  0  0  0
  188.2750  177.7610  143.9080 C   0  0  0  0  0  0  0  0  0  0  0  0
  189.2460  177.8810  141.5780 C   0  0  0  0  0  3  0  0  0  0  0  0
  190.7170  177.5150  143.3980 C   0  0  0  0  0  3  0  0  0  0  0  0
  188.9560  178.2090  138.7410 C   0  0  0  0  0  3  0  0  0  0  0  0
  188.0250  178.0840  141.0690 C   0  0  0  0  0  0  0  0  0  0  0  0
  187.8530  178.2540  139.6120 C   0  0  0  0  0  0  0  0  0  0  0  0
  185.3920  178.5170  139.9930 C   0  0  0  0  0  0  0  0  0  0  0  0
  189.2930  177.4010  146.1970 C   0  0  0  0  0  3  0  0  0  0  0  0
  189.4570  177.7080  143.0200 C   0  0  0  0  0  0  0  0  0  0  0  0
  182.0040  178.6770  142.4740 O   0  0  0  0  0  1  0  0  0  0  0  0
  188.2790  177.6110  145.3650 C   0  0  0  0  0  3  0  0  0  0  0  0
  190.7280  177.2520  145.9340 C   0  0  0  0  0  0  0  0  0  0  0  0
  186.4050  178.6280  137.7020 C   0  0  0  0  0  3  0  0  0  0  0  0
  186.5650  178.4660  139.0900 C   0  0  0  0  0  0  0  0  0  0  0  0
  184.1200  178.7280  139.4500 C   0  0  0  0  0  3  0  0  0  0  0  0
  187.0740  177.9640  143.3620 C   0  0  0  0  0  3  0  0  0  0  0  0
  184.4500  178.2630  143.5890 O   0  0  0  0  0  1  0  0  0  0  0  0
  185.5450  178.3540  141.3920 C   0  0  0  0  0  0  0  0  0  0  0  0
  182.9770  178.7860  140.2490 C   0  0  0  0  0  0  0  0  0  0  0  0
  192.3600  175.8910  147.3930 C   0  0  0  0  0  0  0  0  0  0  0  0
  191.5450  177.0330  147.0950 N   0  0  0  0  0  2  0  0  0  0  0  0
  193.1010  175.8630  148.6060 N   0  0  0  0  0  1  0  0  0  0  0  0
  192.4330  174.9150  146.6020 O   0  0  0  0  0  0  0  0  0  0  0  0
  181.6660  179.0140  139.6000 C   0  0  0  0  0  0  0  0  0  0  0  0
  181.1430  180.2950  139.4670 O   0  0  0  0  0  1  0  0  0  0  0  0
  181.0010  178.0390  139.1590 O   0  0  0  0  0  0  0  0  0  0  0  0
  1 18  2  0  0  0  0
  2 22  1  0  0  0  0
  3 10  1  0  0  0  0
  4  3  2  0  0  0  0
  4 19  1  0  0  0  0
  5 23  1  0  0  0  0
  6  5  1  0  0  0  0
  6 16  1  0  0  0  0
  7 17  1  0  0  0  0
  8 15  1  0  0  0  0
  9  1  1  0  0  0  0
 10 12  2  0  0  0  0
 11  8  2  0  0  0  0
 11  2  1  0  0  0  0
 12 11  1  0  0  0  0
 13 24  1  0  0  0  0
 15  9  2  0  0  0  0
 15  7  1  0  0  0  0
 17 14  2  0  0  0  0
 18 14  1  0  0  0  0
 18 27  1  0  0  0  0
 19 20  2  0  0  0  0
 20 12  1  0  0  0  0
 20 13  1  0  0  0  0
 21 13  2  0  0  0  0
 21 25  1  0  0  0  0
 22  7  2  0  0  0  0
 24  2  1  0  0  0  0
 24  5  2  0  0  0  0
 25  6  2  0  0  0  0
 26 28  1  0  0  0  0
 27 26  1  0  0  0  0
 29 26  2  0  0  0  0
 30 25  1  0  0  0  0
 31 30  1  0  0  0  0
 32 30  2  0  0  0  0
M  END
>  <MODEL>
8

>  <REMARK>
 VINA RESULT:     -10.6      3.544      8.461
  Name = 
  2 active torsions:
  status: ('A' for Active; 'I' for Inactive)
    1  A    between atoms: N_10  and  C_24
    2  A    between atoms: C_11  and  C_32
                            x       y       z     vdW  Elec       q    Type
                         _______ _______ _______ _____ _____    ______ ____

>  <TORSDO>
F 2

$$$$
=
 OpenBabel10262421223D

 32 36  0  0  0  0  0  0  0  0999 V2000
  181.0240  179.3770  140.2940 C   0  0  0  0  0  3  0  0  0  0  0  0
  185.8690  178.3140  142.1370 N   0  0  0  0  0  0  0  0  0  0  0  0
  184.9440  178.3220  147.0170 C   0  0  0  0  0  3  0  0  0  0  0  0
  186.2850  178.0370  147.2700 C   0  0  0  0  0  3  0  0  0  0  0  0
  188.2310  177.8570  141.3770 C   0  0  0  0  0  0  0  0  0  0  0  0
  189.5700  177.5710  141.6810 C   0  0  0  0  0  0  0  0  0  0  0  0
  184.1160  178.7350  140.4910 C   0  0  0  0  0  0  0  0  0  0  0  0
  183.6450  178.7390  142.9740 C   0  0  0  0  0  3  0  0  0  0  0  0
  181.8540  179.1630  141.4830 C   0  0  0  0  0  3  0  0  0  0  0  0
  184.5000  178.4630  145.7010 C   0  0  0  0  0  3  0  0  0  0  0  0
  184.9310  178.4660  143.2280 C   0  0  0  0  0  0  0  0  0  0  0  0
  185.3910  178.3190  144.6240 C   0  0  0  0  0  0  0  0  0  0  0  0
  187.6980  177.8780  143.7540 C   0  0  0  0  0  0  0  0  0  0  0  0
  182.6690  179.1080  138.4490 C   0  0  0  0  0  3  0  0  0  0  0  0
  183.1500  178.8920  141.6000 C   0  0  0  0  0  0  0  0  0  0  0  0
  190.4780  177.4230  140.6370 O   0  0  0  0  0  1  0  0  0  0  0  0
  183.8180  178.8500  139.0620 C   0  0  0  0  0  3  0  0  0  0  0  0
  181.3320  179.3620  138.9960 C   0  0  0  0  0  0  0  0  0  0  0  0
  187.1790  177.8930  146.2070 C   0  0  0  0  0  3  0  0  0  0  0  0
  186.7440  178.0330  144.8770 C   0  0  0  0  0  0  0  0  0  0  0  0
  189.0400  177.5920  144.0310 C   0  0  0  0  0  3  0  0  0  0  0  0
  185.3890  178.4630  140.7850 C   0  0  0  0  0  3  0  0  0  0  0  0
  187.8850  177.9780  140.0340 O   0  0  0  0  0  1  0  0  0  0  0  0
  187.2680  178.0170  142.4120 C   0  0  0  0  0  0  0  0  0  0  0  0
  189.9850  177.4360  143.0160 C   0  0  0  0  0  0  0  0  0  0  0  0
  180.0010  180.8470  137.3610 C   0  0  0  0  0  0  0  0  0  0  0  0
  180.3070  179.6100  138.0210 N   0  0  0  0  0  2  0  0  0  0  0  0
  178.9380  180.8880  136.4190 N   0  0  0  0  0  1  0  0  0  0  0  0
  180.6560  181.8940  137.6010 O   0  0  0  0  0  0  0  0  0  0  0  0
  191.3860  177.1350  143.3890 C   0  0  0  0  0  0  0  0  0  0  0  0
  191.7480  175.8840  143.8730 O   0  0  0  0  0  1  0  0  0  0  0  0
  192.2760  178.0200  143.2720 O   0  0  0  0  0  0  0  0  0  0  0  0
  1  9  1  0  0  0  0
  2 24  1  0  0  0  0
  2 11  1  0  0  0  0
  3  4  1  0  0  0  0
  5  6  2  0  0  0  0
  5 24  1  0  0  0  0
  6 25  1  0  0  0  0
  7 22  2  0  0  0  0
  7 15  1  0  0  0  0
  8 11  2  0  0  0  0
  9 15  2  0  0  0  0
 10  3  2  0  0  0  0
 11 12  1  0  0  0  0
 12 20  2  0  0  0  0
 12 10  1  0  0  0  0
 13 21  1  0  0  0  0
 13 20  1  0  0  0  0
 14 18  1  0  0  0  0
 14 17  2  0  0  0  0
 15  8  1  0  0  0  0
 16  6  1  0  0  0  0
 17  7  1  0  0  0  0
 18  1  2  0  0  0  0
 19  4  2  0  0  0  0
 20 19  1  0  0  0  0
 22  2  1  0  0  0  0
 23  5  1  0  0  0  0
 24 13  2  0  0  0  0
 25 30  1  0  0  0  0
 25 21  2  0  0  0  0
 26 29  2  0  0  0  0
 26 27  1  0  0  0  0
 27 18  1  0  0  0  0
 28 26  1  0  0  0  0
 30 31  1  0  0  0  0
 32 30  2  0  0  0  0
M  END
>  <MODEL>
9

>  <REMARK>
 VINA RESULT:     -10.6      2.696      4.042
  Name = 
  2 active torsions:
  status: ('A' for Active; 'I' for Inactive)
    1  A    between atoms: N_10  and  C_24
    2  A    between atoms: C_11  and  C_32
                            x       y       z     vdW  Elec       q    Type
                         _______ _______ _______ _____ _____    ______ ____

>  <TORSDO>
F 2

$$$$
