=
 OpenBabel10262423213D

 34 37  0  0  1  0  0  0  0  0999 V2000
  189.4440  178.1180  142.5050 O   0  0  0  0  0  0  0  0  0  0  0  0
  189.2090  177.6750  146.0820 C   0  0  0  0  0  2  0  0  0  0  0  0
  190.0780  176.5320  145.5870 C   0  0  1  0  0  3  0  0  0  0  0  0
  190.7400  175.9400  143.3040 O   0  0  0  0  0  1  0  0  0  0  0  0
  189.6670  176.2800  144.1360 C   0  0  2  0  0  3  0  0  0  0  0  0
  188.7430  178.4470  144.8570 C   0  0  0  0  0  2  0  0  0  0  0  0
  188.8660  177.5000  143.6510 C   0  0  1  0  0  0  0  0  0  0  0  0
  192.3410  176.0200  146.5560 O   0  0  0  0  0  1  0  0  0  0  0  0
  191.5320  176.8430  145.7830 C   0  0  0  0  0  0  0  0  0  0  0  0
  192.0240  177.8630  145.2350 O   0  0  0  0  0  0  0  0  0  0  0  0
  187.4540  177.0540  143.2320 C   0  0  0  0  0  2  0  0  0  0  0  0
  185.5060  178.6500  143.2480 C   0  0  0  0  0  3  0  0  0  0  0  0
  184.2140  179.0220  145.2630 C   0  0  0  0  0  3  0  0  0  0  0  0
  184.4520  179.2890  143.9110 C   0  0  0  0  0  3  0  0  0  0  0  0
  186.0820  177.4800  145.2890 C   0  0  0  0  0  3  0  0  0  0  0  0
  186.3250  177.7470  143.9380 C   0  0  0  0  0  0  0  0  0  0  0  0
  185.0280  178.1180  145.9510 C   0  0  0  0  0  3  0  0  0  0  0  0
  188.8090  177.7110  141.3140 C   0  0  2  0  0  3  0  0  0  0  0  0
  191.9480  177.0720  139.6540 C   0  0  0  0  0  2  0  0  0  0  0  0
  189.4320  177.1050  137.8880 C   0  0  0  0  0  2  0  0  0  0  0  0
  193.0100  175.4430  136.4210 N   0  0  0  0  0  0  0  0  0  0  0  0
  194.0180  174.5310  135.9730 C   0  0  0  0  0  0  0  0  0  0  0  0
  193.1260  176.0920  137.7220 C   0  0  0  0  0  2  0  0  0  0  0  0
  194.9610  174.1960  136.7410 O   0  0  0  0  0  1  0  0  0  0  0  0
  191.7440  176.2790  138.3490 C   0  0  2  0  0  3  0  0  0  0  0  0
  193.9690  174.0080  134.6840 O   0  0  0  0  0  0  0  0  0  0  0  0
  190.6770  176.0770  136.2100 C   0  0  0  0  0  2  0  0  0  0  0  0
  190.8130  176.9300  137.3930 N   0  0  1  0  0  0  0  0  0  0  0  0
  192.0100  175.9440  135.4870 C   0  0  0  0  0  2  0  0  0  0  0  0
  189.1020  176.3640  139.1910 C   0  0  0  0  0  2  0  0  0  0  0  0
  190.8440  177.8640  140.0060 O   0  0  0  0  0  0  0  0  0  0  0  0
  189.8110  176.9930  140.4010 C   0  0  1  0  0  3  0  0  0  0  0  0
  188.1280  178.9000  140.6310 C   0  0  0  0  0  2  0  0  0  0  0  0
  186.9020  178.5280  140.0770 O   0  0  0  0  0  1  0  0  0  0  0  0
  1  7  1  0  0  0  0
  3  9  1  6  0  0  0
  3  2  1  0  0  0  0
  5  4  1  6  0  0  0
  5  3  1  0  0  0  0
  6  2  1  0  0  0  0
  7 11  1  6  0  0  0
  7  5  1  0  0  0  0
  7  6  1  0  0  0  0
  9  8  1  0  0  0  0
 10  9  2  0  0  0  0
 11 16  1  0  0  0  0
 12 14  2  0  0  0  0
 12 16  1  0  0  0  0
 13 17  2  0  0  0  0
 14 13  1  0  0  0  0
 15 17  1  0  0  0  0
 16 15  2  0  0  0  0
 18 33  1  6  0  0  0
 18  1  1  0  0  0  0
 19 31  1  0  0  0  0
 20 30  1  0  0  0  0
 21 23  1  0  0  0  0
 22 21  1  0  0  0  0
 22 24  1  0  0  0  0
 25 23  1  6  0  0  0
 25 19  1  0  0  0  0
 26 22  2  0  0  0  0
 28 27  1  6  0  0  0
 28 20  1  0  0  0  0
 28 25  1  0  0  0  0
 29 27  1  0  0  0  0
 29 21  1  0  0  0  0
 30 32  1  0  0  0  0
 31 32  1  0  0  0  0
 32 18  1  6  0  0  0
 34 33  1  0  0  0  0
M  END
>  <MODEL>
1

>  <REMARK>
 VINA RESULT:      -7.9      0.000      0.000
  Name = 
  7 active torsions:
  status: ('A' for Active; 'I' for Inactive)
    1  A    between atoms: C_1  and  C_20
    2  A    between atoms: C_1  and  C_34
    3  A    between atoms: O_5  and  C_18
    4  A    between atoms: O_5  and  C_34
    5  A    between atoms: C_8  and  C_18
    6  A    between atoms: C_13  and  C_23
    7  A    between atoms: C_18  and  C_33
                            x       y       z     vdW  Elec       q    Type
                         _______ _______ _______ _____ _____    ______ ____

>  <TORSDO>
F 7

$$$$
=
 OpenBabel10262423213D

 34 37  0  0  1  0  0  0  0  0999 V2000
  189.3340  176.0520  137.9800 O   0  0  0  0  0  0  0  0  0  0  0  0
  190.4640  175.4910  134.5950 C   0  0  0  0  0  2  0  0  0  0  0  0
  190.4940  174.1280  135.2650 C   0  0  1  0  0  3  0  0  0  0  0  0
  189.9770  173.5050  137.5780 O   0  0  0  0  0  1  0  0  0  0  0  0
  190.6890  174.3900  136.7590 C   0  0  2  0  0  3  0  0  0  0  0  0
  190.0660  176.5040  135.6570 C   0  0  0  0  0  2  0  0  0  0  0  0
  190.3760  175.8730  137.0250 C   0  0  1  0  0  0  0  0  0  0  0  0
  188.0310  173.9590  134.7880 O   0  0  0  0  0  1  0  0  0  0  0  0
  189.2670  173.3370  134.9220 C   0  0  0  0  0  0  0  0  0  0  0  0
  189.3610  172.0950  134.7480 O   0  0  0  0  0  0  0  0  0  0  0  0
  191.6200  176.5620  137.6130 C   0  0  0  0  0  2  0  0  0  0  0  0
  193.6180  176.3720  136.0910 C   0  0  0  0  0  3  0  0  0  0  0  0
  195.3950  174.7930  136.5540 C   0  0  0  0  0  3  0  0  0  0  0  0
  194.8460  175.7960  135.7490 C   0  0  0  0  0  3  0  0  0  0  0  0
  193.4880  174.9430  138.0420 C   0  0  0  0  0  3  0  0  0  0  0  0
  192.9350  175.9440  137.2370 C   0  0  0  0  0  0  0  0  0  0  0  0
  194.7170  174.3670  137.7000 C   0  0  0  0  0  3  0  0  0  0  0  0
  189.4030  177.3180  138.5990 C   0  0  2  0  0  3  0  0  0  0  0  0
  188.4290  178.1530  141.9710 C   0  0  0  0  0  2  0  0  0  0  0  0
  191.3920  177.4730  141.5160 C   0  0  0  0  0  2  0  0  0  0  0  0
  189.8180  177.5120  145.4190 N   0  0  0  0  0  0  0  0  0  0  0  0
  189.3270  177.1210  146.7060 C   0  0  0  0  0  0  0  0  0  0  0  0
  188.8980  177.9690  144.3850 C   0  0  0  0  0  2  0  0  0  0  0  0
  188.0860  177.0660  146.9250 O   0  0  0  0  0  0  0  0  0  0  0  0
  189.3870  177.5300  143.0050 C   0  0  2  0  0  3  0  0  0  0  0  0
  190.2150  176.8020  147.7290 O   0  0  0  0  0  1  0  0  0  0  0  0
  191.6230  177.2370  143.8210 C   0  0  0  0  0  2  0  0  0  0  0  0
  190.8090  177.9050  142.8030 N   0  0  1  0  0  0  0  0  0  0  0  0
  191.2460  177.7200  145.2140 C   0  0  0  0  0  2  0  0  0  0  0  0
  190.5370  176.4900  140.7040 C   0  0  0  0  0  2  0  0  0  0  0  0
  189.0340  178.4100  140.7310 O   0  0  0  0  0  0  0  0  0  0  0  0
  189.2870  177.1670  140.1210 C   0  0  1  0  0  3  0  0  0  0  0  0
  188.3510  178.2630  138.0120 C   0  0  0  0  0  2  0  0  0  0  0  0
  188.9400  179.4340  137.5300 O   0  0  0  0  0  1  0  0  0  0  0  0
  1 18  1  0  0  0  0
  2  3  1  0  0  0  0
  2  6  1  0  0  0  0
  3  9  1  1  0  0  0
  3  5  1  0  0  0  0
  5  7  1  0  0  0  0
  5  4  1  1  0  0  0
  6  7  1  0  0  0  0
  7 11  1  1  0  0  0
  7  1  1  0  0  0  0
  8  9  1  0  0  0  0
 10  9  2  0  0  0  0
 12 16  1  0  0  0  0
 13 17  2  0  0  0  0
 14 12  2  0  0  0  0
 14 13  1  0  0  0  0
 16 11  1  0  0  0  0
 16 15  2  0  0  0  0
 17 15  1  0  0  0  0
 18 33  1  6  0  0  0
 21 22  1  0  0  0  0
 22 24  2  0  0  0  0
 22 26  1  0  0  0  0
 23 21  1  0  0  0  0
 25 19  1  6  0  0  0
 25 23  1  0  0  0  0
 27 29  1  0  0  0  0
 28 20  1  6  0  0  0
 28 25  1  0  0  0  0
 28 27  1  0  0  0  0
 29 21  1  0  0  0  0
 30 20  1  0  0  0  0
 31 19  1  0  0  0  0
 32 18  1  6  0  0  0
 32 30  1  0  0  0  0
 32 31  1  0  0  0  0
 34 33  1  0  0  0  0
M  END
>  <MODEL>
2

>  <REMARK>
 VINA RESULT:      -7.6      2.941      9.178
  Name = 
  7 active torsions:
  status: ('A' for Active; 'I' for Inactive)
    1  A    between atoms: C_1  and  C_20
    2  A    between atoms: C_1  and  C_34
    3  A    between atoms: O_5  and  C_18
    4  A    between atoms: O_5  and  C_34
    5  A    between atoms: C_8  and  C_18
    6  A    between atoms: C_13  and  C_23
    7  A    between atoms: C_18  and  C_33
                            x       y       z     vdW  Elec       q    Type
                         _______ _______ _______ _____ _____    ______ ____

>  <TORSDO>
F 7

$$$$
=
 OpenBabel10262423213D

 34 37  0  0  1  0  0  0  0  0999 V2000
  189.7570  176.2150  138.2390 O   0  0  0  0  0  0  0  0  0  0  0  0
  190.4410  175.7820  134.7190 C   0  0  0  0  0  2  0  0  0  0  0  0
  190.4400  174.3820  135.3080 C   0  0  1  0  0  3  0  0  0  0  0  0
  190.1460  173.6580  137.6300 O   0  0  0  0  0  1  0  0  0  0  0  0
  190.8270  174.5370  136.7800 C   0  0  2  0  0  3  0  0  0  0  0  0
  190.2500  176.7540  135.8730 C   0  0  0  0  0  2  0  0  0  0  0  0
  190.6650  176.0190  137.1590 C   0  0  1  0  0  0  0  0  0  0  0  0
  187.9260  174.3860  135.2600 O   0  0  0  0  0  1  0  0  0  0  0  0
  189.1230  173.7050  135.0730 C   0  0  0  0  0  0  0  0  0  0  0  0
  189.1050  172.5060  134.6960 O   0  0  0  0  0  0  0  0  0  0  0  0
  192.0180  176.5800  137.6300 C   0  0  0  0  0  2  0  0  0  0  0  0
  193.8500  176.2320  135.9360 C   0  0  0  0  0  3  0  0  0  0  0  0
  195.4900  174.4720  136.2140 C   0  0  0  0  0  3  0  0  0  0  0  0
  194.9800  175.5450  135.4780 C   0  0  0  0  0  3  0  0  0  0  0  0
  193.7420  174.7710  137.8650 C   0  0  0  0  0  3  0  0  0  0  0  0
  193.2270  175.8440  137.1290 C   0  0  0  0  0  0  0  0  0  0  0  0
  194.8720  174.0850  137.4060 C   0  0  0  0  0  3  0  0  0  0  0  0
  189.7710  177.5470  138.7010 C   0  0  2  0  0  3  0  0  0  0  0  0
  190.8490  176.3520  141.9300 C   0  0  0  0  0  2  0  0  0  0  0  0
  188.0080  177.5140  141.7640 C   0  0  0  0  0  2  0  0  0  0  0  0
  189.8460  176.9760  145.5130 N   0  0  0  0  0  0  0  0  0  0  0  0
  190.4890  177.2010  146.7720 C   0  0  0  0  0  0  0  0  0  0  0  0
  190.6000  176.4490  144.3810 C   0  0  0  0  0  2  0  0  0  0  0  0
  191.7360  177.0470  146.8870 O   0  0  0  0  0  0  0  0  0  0  0  0
  190.0850  177.0480  143.0730 C   0  0  2  0  0  3  0  0  0  0  0  0
  189.7440  177.5870  147.8820 O   0  0  0  0  0  1  0  0  0  0  0  0
  187.9930  177.6330  144.0900 C   0  0  0  0  0  2  0  0  0  0  0  0
  188.6100  176.9130  142.9730 N   0  0  1  0  0  0  0  0  0  0  0  0
  188.3920  177.0070  145.4190 C   0  0  0  0  0  2  0  0  0  0  0  0
  188.9460  178.4030  140.9350 C   0  0  0  0  0  2  0  0  0  0  0  0
  190.1190  176.2740  140.7340 O   0  0  0  0  0  0  0  0  0  0  0  0
  190.0240  177.5790  140.2130 C   0  0  1  0  0  3  0  0  0  0  0  0
  188.4840  178.2720  138.2970 C   0  0  0  0  0  2  0  0  0  0  0  0
  188.7640  179.4080  137.5370 O   0  0  0  0  0  1  0  0  0  0  0  0
  1 18  1  0  0  0  0
  2  3  1  0  0  0  0
  2  6  1  0  0  0  0
  3  9  1  1  0  0  0
  3  5  1  0  0  0  0
  5  7  1  0  0  0  0
  5  4  1  1  0  0  0
  6  7  1  0  0  0  0
  7 11  1  1  0  0  0
  7  1  1  0  0  0  0
  9  8  1  0  0  0  0
 10  9  2  0  0  0  0
 12 16  1  0  0  0  0
 13 17  2  0  0  0  0
 14 12  2  0  0  0  0
 14 13  1  0  0  0  0
 16 11  1  0  0  0  0
 16 15  2  0  0  0  0
 17 15  1  0  0  0  0
 18 33  1  1  0  0  0
 21 22  1  0  0  0  0
 22 24  2  0  0  0  0
 22 26  1  0  0  0  0
 23 21  1  0  0  0  0
 25 19  1  6  0  0  0
 25 23  1  0  0  0  0
 27 29  1  0  0  0  0
 28 20  1  6  0  0  0
 28 25  1  0  0  0  0
 28 27  1  0  0  0  0
 29 21  1  0  0  0  0
 30 20  1  0  0  0  0
 31 19  1  0  0  0  0
 32 18  1  6  0  0  0
 32 31  1  0  0  0  0
 32 30  1  0  0  0  0
 34 33  1  0  0  0  0
M  END
>  <MODEL>
3

>  <REMARK>
 VINA RESULT:      -7.6      2.833      9.157
  Name = 
  7 active torsions:
  status: ('A' for Active; 'I' for Inactive)
    1  A    between atoms: C_1  and  C_20
    2  A    between atoms: C_1  and  C_34
    3  A    between atoms: O_5  and  C_18
    4  A    between atoms: O_5  and  C_34
    5  A    between atoms: C_8  and  C_18
    6  A    between atoms: C_13  and  C_23
    7  A    between atoms: C_18  and  C_33
                            x       y       z     vdW  Elec       q    Type
                         _______ _______ _______ _____ _____    ______ ____

>  <TORSDO>
F 7

$$$$
=
 OpenBabel10262423213D

 34 37  0  0  1  0  0  0  0  0999 V2000
  187.8760  178.6230  139.1880 O   0  0  0  0  0  0  0  0  0  0  0  0
  186.7550  176.2510  136.7050 C   0  0  0  0  0  2  0  0  0  0  0  0
  187.4040  177.3800  135.9250 C   0  0  1  0  0  3  0  0  0  0  0  0
  188.3880  179.4760  136.7240 O   0  0  0  0  0  1  0  0  0  0  0  0
  187.2750  178.6310  136.7950 C   0  0  2  0  0  3  0  0  0  0  0  0
  186.7750  176.6510  138.1720 C   0  0  0  0  0  2  0  0  0  0  0  0
  186.9250  178.1810  138.2240 C   0  0  1  0  0  0  0  0  0  0  0  0
  189.4380  175.9100  136.0830 O   0  0  0  0  0  1  0  0  0  0  0  0
  188.8100  177.0250  135.5410 C   0  0  0  0  0  0  0  0  0  0  0  0
  189.4250  177.7450  134.7140 O   0  0  0  0  0  0  0  0  0  0  0  0
  185.5760  178.7930  138.6390 C   0  0  0  0  0  2  0  0  0  0  0  0
  183.8510  177.2610  139.6500 C   0  0  0  0  0  3  0  0  0  0  0  0
  182.1720  176.1900  138.2730 C   0  0  0  0  0  3  0  0  0  0  0  0
  182.7440  176.4150  139.5290 C   0  0  0  0  0  3  0  0  0  0  0  0
  183.8150  177.6550  137.2610 C   0  0  0  0  0  3  0  0  0  0  0  0
  184.3910  177.8800  138.5160 C   0  0  0  0  0  0  0  0  0  0  0  0
  182.7060  176.8100  137.1400 C   0  0  0  0  0  3  0  0  0  0  0  0
  188.6050  177.5470  139.7370 C   0  0  2  0  0  3  0  0  0  0  0  0
  189.3920  176.6480  143.1410 C   0  0  0  0  0  2  0  0  0  0  0  0
  186.5900  177.8010  142.6290 C   0  0  0  0  0  2  0  0  0  0  0  0
  188.0970  177.6000  146.5530 N   0  0  0  0  0  0  0  0  0  0  0  0
  188.6340  177.9360  147.8380 C   0  0  0  0  0  0  0  0  0  0  0  0
  188.9370  176.9690  145.5430 C   0  0  0  0  0  2  0  0  0  0  0  0
  189.8640  177.7880  148.0720 O   0  0  0  0  0  0  0  0  0  0  0  0
  188.5430  177.4480  144.1460 C   0  0  2  0  0  3  0  0  0  0  0  0
  187.8020  178.4250  148.8400 O   0  0  0  0  0  1  0  0  0  0  0  0
  186.3790  178.1320  144.9250 C   0  0  0  0  0  2  0  0  0  0  0  0
  187.0800  177.3110  143.9340 N   0  0  1  0  0  0  0  0  0  0  0  0
  186.6570  177.6280  146.3340 C   0  0  0  0  0  2  0  0  0  0  0  0
  187.6050  178.6070  141.8060 C   0  0  0  0  0  2  0  0  0  0  0  0
  188.7650  176.4630  141.8990 O   0  0  0  0  0  0  0  0  0  0  0  0
  188.7290  177.7160  141.2560 C   0  0  1  0  0  3  0  0  0  0  0  0
  189.9610  177.4030  139.0410 C   0  0  0  0  0  2  0  0  0  0  0  0
  190.4810  176.1190  139.2120 O   0  0  0  0  0  1  0  0  0  0  0  0
  1 18  1  0  0  0  0
  2  6  1  0  0  0  0
  3  9  1  1  0  0  0
  3  2  1  0  0  0  0
  3  5  1  0  0  0  0
  5  4  1  1  0  0  0
  5  7  1  0  0  0  0
  6  7  1  0  0  0  0
  7 11  1  1  0  0  0
  7  1  1  0  0  0  0
  9  8  1  0  0  0  0
 10  9  2  0  0  0  0
 13 14  2  0  0  0  0
 14 12  1  0  0  0  0
 15 16  1  0  0  0  0
 16 11  1  0  0  0  0
 16 12  2  0  0  0  0
 17 15  2  0  0  0  0
 17 13  1  0  0  0  0
 18 33  1  6  0  0  0
 21 22  1  0  0  0  0
 22 24  2  0  0  0  0
 22 26  1  0  0  0  0
 23 21  1  0  0  0  0
 25 19  1  6  0  0  0
 25 23  1  0  0  0  0
 27 29  1  0  0  0  0
 28 20  1  6  0  0  0
 28 25  1  0  0  0  0
 28 27  1  0  0  0  0
 29 21  1  0  0  0  0
 30 20  1  0  0  0  0
 31 19  1  0  0  0  0
 32 18  1  6  0  0  0
 32 30  1  0  0  0  0
 32 31  1  0  0  0  0
 33 34  1  0  0  0  0
M  END
>  <MODEL>
4

>  <REMARK>
 VINA RESULT:      -7.5      3.904      8.347
  Name = 
  7 active torsions:
  status: ('A' for Active; 'I' for Inactive)
    1  A    between atoms: C_1  and  C_20
    2  A    between atoms: C_1  and  C_34
    3  A    between atoms: O_5  and  C_18
    4  A    between atoms: O_5  and  C_34
    5  A    between atoms: C_8  and  C_18
    6  A    between atoms: C_13  and  C_23
    7  A    between atoms: C_18  and  C_33
                            x       y       z     vdW  Elec       q    Type
                         _______ _______ _______ _____ _____    ______ ____

>  <TORSDO>
F 7

$$$$
=
 OpenBabel10262423213D

 34 37  0  0  1  0  0  0  0  0999 V2000
  188.2050  176.8880  139.2030 O   0  0  0  0  0  0  0  0  0  0  0  0
  189.5370  178.1450  136.0900 C   0  0  0  0  0  2  0  0  0  0  0  0
  188.9040  176.8060  135.7510 C   0  0  1  0  0  3  0  0  0  0  0  0
  187.8170  175.1700  137.2140 O   0  0  0  0  0  1  0  0  0  0  0  0
  188.9470  175.9760  137.0340 C   0  0  2  0  0  3  0  0  0  0  0  0
  189.4180  178.3280  137.5950 C   0  0  0  0  0  2  0  0  0  0  0  0
  189.2230  176.9310  138.2080 C   0  0  1  0  0  0  0  0  0  0  0  0
  186.8870  178.2220  135.2510 O   0  0  0  0  0  1  0  0  0  0  0  0
  187.5340  176.9950  135.1700 C   0  0  0  0  0  0  0  0  0  0  0  0
  186.9680  176.0290  134.5990 O   0  0  0  0  0  0  0  0  0  0  0  0
  190.5280  176.5170  138.9110 C   0  0  0  0  0  2  0  0  0  0  0  0
  191.3660  174.5390  137.5950 C   0  0  0  0  0  3  0  0  0  0  0  0
  193.4570  174.6450  136.3780 C   0  0  0  0  0  3  0  0  0  0  0  0
  192.3200  173.9330  136.7710 C   0  0  0  0  0  3  0  0  0  0  0  0
  192.6870  176.5690  137.6340 C   0  0  0  0  0  3  0  0  0  0  0  0
  191.5500  175.8580  138.0310 C   0  0  0  0  0  0  0  0  0  0  0  0
  193.6410  175.9620  136.8090 C   0  0  0  0  0  3  0  0  0  0  0  0
  187.9200  178.1710  139.7180 C   0  0  2  0  0  3  0  0  0  0  0  0
  189.2450  177.0740  142.8890 C   0  0  0  0  0  2  0  0  0  0  0  0
  186.2870  177.9080  142.8410 C   0  0  0  0  0  2  0  0  0  0  0  0
  188.3110  177.5450  146.5130 N   0  0  0  0  0  0  0  0  0  0  0  0
  188.9710  177.8280  147.7520 C   0  0  0  0  0  0  0  0  0  0  0  0
  189.0770  177.1180  145.3490 C   0  0  0  0  0  2  0  0  0  0  0  0
  190.2290  177.8160  147.8200 O   0  0  0  0  0  0  0  0  0  0  0  0
  188.4500  177.6680  144.0670 C   0  0  2  0  0  3  0  0  0  0  0  0
  188.2280  178.1170  148.8930 O   0  0  0  0  0  1  0  0  0  0  0  0
  186.3440  178.0010  145.1670 C   0  0  0  0  0  2  0  0  0  0  0  0
  186.9970  177.3670  144.0180 N   0  0  1  0  0  0  0  0  0  0  0  0
  186.8600  177.4110  146.4720 C   0  0  0  0  0  2  0  0  0  0  0  0
  187.0870  178.9050  141.9910 C   0  0  0  0  0  2  0  0  0  0  0  0
  188.4850  176.9250  141.7190 O   0  0  0  0  0  0  0  0  0  0  0  0
  188.2230  178.2150  141.2200 C   0  0  1  0  0  3  0  0  0  0  0  0
  186.4810  178.5770  139.3880 C   0  0  0  0  0  2  0  0  0  0  0  0
  186.0000  177.8740  138.2820 O   0  0  0  0  0  1  0  0  0  0  0  0
  1 18  1  0  0  0  0
  2  6  1  0  0  0  0
  3  9  1  1  0  0  0
  3  2  1  0  0  0  0
  3  5  1  0  0  0  0
  5  4  1  1  0  0  0
  5  7  1  0  0  0  0
  6  7  1  0  0  0  0
  7 11  1  1  0  0  0
  7  1  1  0  0  0  0
  9  8  1  0  0  0  0
 10  9  2  0  0  0  0
 12 16  1  0  0  0  0
 13 14  1  0  0  0  0
 13 17  2  0  0  0  0
 14 12  2  0  0  0  0
 15 16  2  0  0  0  0
 16 11  1  0  0  0  0
 17 15  1  0  0  0  0
 18 33  1  1  0  0  0
 21 22  1  0  0  0  0
 22 24  2  0  0  0  0
 22 26  1  0  0  0  0
 23 21  1  0  0  0  0
 25 19  1  6  0  0  0
 25 23  1  0  0  0  0
 27 29  1  0  0  0  0
 28 20  1  6  0  0  0
 28 25  1  0  0  0  0
 28 27  1  0  0  0  0
 29 21  1  0  0  0  0
 30 20  1  0  0  0  0
 31 19  1  0  0  0  0
 32 18  1  6  0  0  0
 32 31  1  0  0  0  0
 32 30  1  0  0  0  0
 34 33  1  0  0  0  0
M  END
>  <MODEL>
5

>  <REMARK>
 VINA RESULT:      -7.4      3.199      9.134
  Name = 
  7 active torsions:
  status: ('A' for Active; 'I' for Inactive)
    1  A    between atoms: C_1  and  C_20
    2  A    between atoms: C_1  and  C_34
    3  A    between atoms: O_5  and  C_18
    4  A    between atoms: O_5  and  C_34
    5  A    between atoms: C_8  and  C_18
    6  A    between atoms: C_13  and  C_23
    7  A    between atoms: C_18  and  C_33
                            x       y       z     vdW  Elec       q    Type
                         _______ _______ _______ _____ _____    ______ ____

>  <TORSDO>
F 7

$$$$
=
 OpenBabel10262423213D

 34 37  0  0  1  0  0  0  0  0999 V2000
  189.0690  178.4030  144.2760 O   0  0  0  0  0  0  0  0  0  0  0  0
  190.5510  175.4150  142.8890 C   0  0  0  0  0  2  0  0  0  0  0  0
  191.6840  176.1410  143.5930 C   0  0  1  0  0  3  0  0  0  0  0  0
  191.6790  178.2940  144.7620 O   0  0  0  0  0  1  0  0  0  0  0  0
  191.3080  177.6240  143.5910 C   0  0  2  0  0  3  0  0  0  0  0  0
  189.3190  176.3000  142.9920 C   0  0  0  0  0  2  0  0  0  0  0  0
  189.8090  177.7330  143.2600 C   0  0  1  0  0  0  0  0  0  0  0  0
  191.6030  176.2660  146.1040 O   0  0  0  0  0  1  0  0  0  0  0  0
  191.9280  175.5580  144.9530 C   0  0  0  0  0  0  0  0  0  0  0  0
  192.4310  174.4090  145.0500 O   0  0  0  0  0  0  0  0  0  0  0  0
  189.6260  178.5620  141.9770 C   0  0  0  0  0  2  0  0  0  0  0  0
  188.6820  177.4580  139.9200 C   0  0  0  0  0  3  0  0  0  0  0  0
  190.1320  176.4050  138.2910 C   0  0  0  0  0  3  0  0  0  0  0  0
  188.8490  176.7560  138.7210 C   0  0  0  0  0  3  0  0  0  0  0  0
  191.0800  177.4540  140.2580 C   0  0  0  0  0  3  0  0  0  0  0  0
  189.7970  177.8050  140.6930 C   0  0  0  0  0  0  0  0  0  0  0  0
  191.2470  176.7540  139.0580 C   0  0  0  0  0  3  0  0  0  0  0  0
  188.1880  177.5280  144.9460 C   0  0  2  0  0  3  0  0  0  0  0  0
  185.7180  178.2970  142.4320 C   0  0  0  0  0  2  0  0  0  0  0  0
  184.9320  178.8410  145.3530 C   0  0  0  0  0  2  0  0  0  0  0  0
  181.9690  178.7080  142.3670 N   0  0  0  0  0  0  0  0  0  0  0  0
  180.8710  178.3110  141.5370 C   0  0  0  0  0  0  0  0  0  0  0  0
  183.3380  178.6180  141.8730 C   0  0  0  0  0  2  0  0  0  0  0  0
  181.0810  177.7800  140.4140 O   0  0  0  0  0  0  0  0  0  0  0  0
  184.2910  178.2520  143.0110 C   0  0  2  0  0  3  0  0  0  0  0  0
  179.5620  178.5120  141.9630 O   0  0  0  0  0  1  0  0  0  0  0  0
  182.7160  179.0040  144.6560 C   0  0  0  0  0  2  0  0  0  0  0  0
  184.0930  179.1500  144.1770 N   0  0  1  0  0  0  0  0  0  0  0  0
  181.7250  179.4570  143.5930 C   0  0  0  0  0  2  0  0  0  0  0  0
  185.6820  177.5030  145.2920 C   0  0  0  0  0  2  0  0  0  0  0  0
  186.6980  178.6260  143.3800 O   0  0  0  0  0  0  0  0  0  0  0  0
  186.8180  177.5310  144.2580 C   0  0  1  0  0  3  0  0  0  0  0  0
  188.1080  177.8790  146.4340 C   0  0  0  0  0  2  0  0  0  0  0  0
  188.5970  176.8370  147.2240 O   0  0  0  0  0  1  0  0  0  0  0  0
  1 18  1  0  0  0  0
  2  6  1  0  0  0  0
  2  3  1  0  0  0  0
  3  9  1  1  0  0  0
  5  3  1  0  0  0  0
  5  4  1  1  0  0  0
  6  7  1  0  0  0  0
  7 11  1  6  0  0  0
  7  5  1  0  0  0  0
  7  1  1  0  0  0  0
  9 10  2  0  0  0  0
  9  8  1  0  0  0  0
 12 16  1  0  0  0  0
 13 14  1  0  0  0  0
 13 17  2  0  0  0  0
 14 12  2  0  0  0  0
 15 16  2  0  0  0  0
 16 11  1  0  0  0  0
 17 15  1  0  0  0  0
 18 33  1  1  0  0  0
 19 25  1  0  0  0  0
 19 31  1  0  0  0  0
 21 29  1  0  0  0  0
 22 26  1  0  0  0  0
 22 21  1  0  0  0  0
 23 21  1  0  0  0  0
 24 22  2  0  0  0  0
 25 23  1  6  0  0  0
 25 28  1  0  0  0  0
 28 27  1  1  0  0  0
 28 20  1  0  0  0  0
 29 27  1  0  0  0  0
 30 20  1  0  0  0  0
 31 32  1  0  0  0  0
 32 18  1  1  0  0  0
 32 30  1  0  0  0  0
 33 34  1  0  0  0  0
M  END
>  <MODEL>
6

>  <REMARK>
 VINA RESULT:      -7.3      4.030      8.128
  Name = 
  7 active torsions:
  status: ('A' for Active; 'I' for Inactive)
    1  A    between atoms: C_1  and  C_20
    2  A    between atoms: C_1  and  C_34
    3  A    between atoms: O_5  and  C_18
    4  A    between atoms: O_5  and  C_34
    5  A    between atoms: C_8  and  C_18
    6  A    between atoms: C_13  and  C_23
    7  A    between atoms: C_18  and  C_33
                            x       y       z     vdW  Elec       q    Type
                         _______ _______ _______ _____ _____    ______ ____

>  <TORSDO>
F 7

$$$$
=
 OpenBabel10262423213D

 34 37  0  0  1  0  0  0  0  0999 V2000
  190.3790  177.6810  139.3500 O   0  0  0  0  0  0  0  0  0  0  0  0
  189.6580  176.9480  135.8870 C   0  0  0  0  0  2  0  0  0  0  0  0
  188.3200  176.8840  136.6040 C   0  0  1  0  0  3  0  0  0  0  0  0
  187.8000  177.1590  138.9820 O   0  0  0  0  0  1  0  0  0  0  0  0
  188.6300  176.5170  138.0560 C   0  0  2  0  0  3  0  0  0  0  0  0
  190.7210  177.1970  136.9450 C   0  0  0  0  0  2  0  0  0  0  0  0
  190.1310  176.7560  138.2950 C   0  0  1  0  0  0  0  0  0  0  0  0
  188.0940  179.3760  136.8440 O   0  0  0  0  0  1  0  0  0  0  0  0
  187.5580  178.1630  136.4280 C   0  0  0  0  0  0  0  0  0  0  0  0
  186.4200  178.1360  135.8930 O   0  0  0  0  0  0  0  0  0  0  0  0
  190.8000  175.4360  138.7150 C   0  0  0  0  0  2  0  0  0  0  0  0
  190.6950  173.7760  136.8240 C   0  0  0  0  0  3  0  0  0  0  0  0
  192.6670  173.2370  135.5250 C   0  0  0  0  0  3  0  0  0  0  0  0
  191.3050  173.0620  135.7860 C   0  0  0  0  0  3  0  0  0  0  0  0
  192.8110  174.8370  137.3380 C   0  0  0  0  0  3  0  0  0  0  0  0
  191.4480  174.6620  137.6040 C   0  0  0  0  0  0  0  0  0  0  0  0
  193.4200  174.1240  136.3000 C   0  0  0  0  0  3  0  0  0  0  0  0
  191.3750  177.2140  140.2330 C   0  0  2  0  0  3  0  0  0  0  0  0
  191.2190  176.7450  143.8060 C   0  0  0  0  0  2  0  0  0  0  0  0
  188.5410  177.1030  142.3410 C   0  0  0  0  0  2  0  0  0  0  0  0
  188.7220  177.5230  146.5250 N   0  0  0  0  0  0  0  0  0  0  0  0
  188.7310  178.0600  147.8530 C   0  0  0  0  0  0  0  0  0  0  0  0
  189.9610  177.0740  145.9020 C   0  0  0  0  0  2  0  0  0  0  0  0
  189.8210  178.2490  148.4560 O   0  0  0  0  0  0  0  0  0  0  0  0
  189.9340  177.3550  144.3990 C   0  0  2  0  0  3  0  0  0  0  0  0
  187.5340  178.3740  148.4900 O   0  0  0  0  0  1  0  0  0  0  0  0
  187.5400  177.4990  144.4060 C   0  0  0  0  0  2  0  0  0  0  0  0
  188.6870  176.8320  143.7860 N   0  0  1  0  0  0  0  0  0  0  0  0
  187.4610  177.1650  145.8890 C   0  0  0  0  0  2  0  0  0  0  0  0
  189.5540  178.0950  141.7520 C   0  0  0  0  0  2  0  0  0  0  0  0
  191.0800  176.3330  142.4720 O   0  0  0  0  0  0  0  0  0  0  0  0
  190.9670  177.4950  141.6840 C   0  0  1  0  0  3  0  0  0  0  0  0
  192.7390  177.8080  139.8720 C   0  0  0  0  0  2  0  0  0  0  0  0
  193.7460  176.8460  139.9580 O   0  0  0  0  0  1  0  0  0  0  0  0
  1 18  1  0  0  0  0
  2  3  1  0  0  0  0
  2  6  1  0  0  0  0
  3  9  1  1  0  0  0
  3  5  1  0  0  0  0
  5  7  1  0  0  0  0
  5  4  1  1  0  0  0
  6  7  1  0  0  0  0
  7 11  1  1  0  0  0
  7  1  1  0  0  0  0
  9  8  1  0  0  0  0
 10  9  2  0  0  0  0
 12 16  1  0  0  0  0
 13 14  1  0  0  0  0
 13 17  2  0  0  0  0
 14 12  2  0  0  0  0
 15 16  2  0  0  0  0
 16 11  1  0  0  0  0
 17 15  1  0  0  0  0
 18 33  1  6  0  0  0
 21 22  1  0  0  0  0
 22 24  2  0  0  0  0
 22 26  1  0  0  0  0
 23 21  1  0  0  0  0
 25 19  1  6  0  0  0
 25 23  1  0  0  0  0
 27 29  1  0  0  0  0
 28 20  1  6  0  0  0
 28 25  1  0  0  0  0
 28 27  1  0  0  0  0
 29 21  1  0  0  0  0
 30 20  1  0  0  0  0
 31 19  1  0  0  0  0
 32 18  1  6  0  0  0
 32 30  1  0  0  0  0
 32 31  1  0  0  0  0
 33 34  1  0  0  0  0
M  END
>  <MODEL>
7

>  <REMARK>
 VINA RESULT:      -7.3      2.919      9.097
  Name = 
  7 active torsions:
  status: ('A' for Active; 'I' for Inactive)
    1  A    between atoms: C_1  and  C_20
    2  A    between atoms: C_1  and  C_34
    3  A    between atoms: O_5  and  C_18
    4  A    between atoms: O_5  and  C_34
    5  A    between atoms: C_8  and  C_18
    6  A    between atoms: C_13  and  C_23
    7  A    between atoms: C_18  and  C_33
                            x       y       z     vdW  Elec       q    Type
                         _______ _______ _______ _____ _____    ______ ____

>  <TORSDO>
F 7

$$$$
=
 OpenBabel10262423213D

 34 37  0  0  1  0  0  0  0  0999 V2000
  187.9800  177.0200  142.4530 O   0  0  0  0  0  0  0  0  0  0  0  0
  190.7970  178.2660  144.3380 C   0  0  0  0  0  2  0  0  0  0  0  0
  191.3190  177.0590  143.5780 C   0  0  1  0  0  3  0  0  0  0  0  0
  190.1360  175.5080  142.0950 O   0  0  0  0  0  1  0  0  0  0  0  0
  190.1120  176.1500  143.3390 C   0  0  2  0  0  3  0  0  0  0  0  0
  189.3070  178.3670  144.0520 C   0  0  0  0  0  2  0  0  0  0  0  0
  188.8390  176.9770  143.5880 C   0  0  1  0  0  0  0  0  0  0  0  0
  193.1110  176.7440  141.8430 O   0  0  0  0  0  1  0  0  0  0  0  0
  192.0420  177.4830  142.3350 C   0  0  0  0  0  0  0  0  0  0  0  0
  191.6700  178.5200  141.7280 O   0  0  0  0  0  0  0  0  0  0  0  0
  188.0210  176.3320  144.7210 C   0  0  0  0  0  2  0  0  0  0  0  0
  188.6910  177.2110  146.9840 C   0  0  0  0  0  3  0  0  0  0  0  0
  187.3330  178.8500  148.1390 C   0  0  0  0  0  3  0  0  0  0  0  0
  188.4650  178.0320  148.0950 C   0  0  0  0  0  3  0  0  0  0  0  0
  186.6520  178.0280  145.9640 C   0  0  0  0  0  3  0  0  0  0  0  0
  187.7830  177.2050  145.9180 C   0  0  0  0  0  0  0  0  0  0  0  0
  186.4270  178.8490  147.0750 C   0  0  0  0  0  3  0  0  0  0  0  0
  187.8710  178.3240  141.9260 C   0  0  2  0  0  3  0  0  0  0  0  0
  184.4770  178.5810  143.1220 C   0  0  0  0  0  2  0  0  0  0  0  0
  184.8470  177.9250  140.1420 C   0  0  0  0  0  2  0  0  0  0  0  0
  181.1070  179.2350  141.5590 N   0  0  0  0  0  0  0  0  0  0  0  0
  179.9410  180.0180  141.8380 C   0  0  0  0  0  0  0  0  0  0  0  0
  182.1050  179.0020  142.5960 C   0  0  0  0  0  2  0  0  0  0  0  0
  179.8170  180.6030  142.9480 O   0  0  0  0  0  1  0  0  0  0  0  0
  183.5050  178.9480  141.9840 C   0  0  2  0  0  3  0  0  0  0  0  0
  178.9320  180.1380  140.8870 O   0  0  0  0  0  0  0  0  0  0  0  0
  182.6060  178.4680  139.8130 C   0  0  0  0  0  2  0  0  0  0  0  0
  183.5460  178.0060  140.8370 N   0  0  1  0  0  0  0  0  0  0  0  0
  181.1790  178.4400  140.3400 C   0  0  0  0  0  2  0  0  0  0  0  0
  185.8700  179.0010  140.5340 C   0  0  0  0  0  2  0  0  0  0  0  0
  185.6120  177.8810  142.6850 O   0  0  0  0  0  0  0  0  0  0  0  0
  186.4090  178.7850  141.9560 C   0  0  1  0  0  3  0  0  0  0  0  0
  188.4890  178.3940  140.5270 C   0  0  0  0  0  2  0  0  0  0  0  0
  188.5900  177.1240  139.9570 O   0  0  0  0  0  1  0  0  0  0  0  0
  1  7  1  0  0  0  0
  3  9  1  6  0  0  0
  3  2  1  0  0  0  0
  5  4  1  6  0  0  0
  5  3  1  0  0  0  0
  5  7  1  0  0  0  0
  6  2  1  0  0  0  0
  7  6  1  0  0  0  0
  7 11  1  1  0  0  0
  8  9  1  0  0  0  0
 10  9  2  0  0  0  0
 11 16  1  0  0  0  0
 12 14  1  0  0  0  0
 14 13  2  0  0  0  0
 15 17  2  0  0  0  0
 16 15  1  0  0  0  0
 16 12  2  0  0  0  0
 17 13  1  0  0  0  0
 18 33  1  6  0  0  0
 18  1  1  0  0  0  0
 20 30  1  0  0  0  0
 20 28  1  0  0  0  0
 21 22  1  0  0  0  0
 21 23  1  0  0  0  0
 22 24  1  0  0  0  0
 25 23  1  1  0  0  0
 25 19  1  0  0  0  0
 26 22  2  0  0  0  0
 27 29  1  0  0  0  0
 28 27  1  6  0  0  0
 28 25  1  0  0  0  0
 29 21  1  0  0  0  0
 30 32  1  0  0  0  0
 31 19  1  0  0  0  0
 32 18  1  6  0  0  0
 32 31  1  0  0  0  0
 34 33  1  0  0  0  0
M  END
>  <MODEL>
8

>  <REMARK>
 VINA RESULT:      -7.2      4.032      7.537
  Name = 
  7 active torsions:
  status: ('A' for Active; 'I' for Inactive)
    1  A    between atoms: C_1  and  C_20
    2  A    between atoms: C_1  and  C_34
    3  A    between atoms: O_5  and  C_18
    4  A    between atoms: O_5  and  C_34
    5  A    between atoms: C_8  and  C_18
    6  A    between atoms: C_13  and  C_23
    7  A    between atoms: C_18  and  C_33
                            x       y       z     vdW  Elec       q    Type
                         _______ _______ _______ _____ _____    ______ ____

>  <TORSDO>
F 7

$$$$
=
 OpenBabel10262423213D

 34 37  0  0  1  0  0  0  0  0999 V2000
  183.3990  178.0760  141.8630 O   0  0  0  0  0  0  0  0  0  0  0  0
  180.3340  178.8660  140.1230 C   0  0  0  0  0  2  0  0  0  0  0  0
  180.7180  177.4720  139.6570 C   0  0  1  0  0  3  0  0  0  0  0  0
  182.6800  176.1170  140.2180 O   0  0  0  0  0  1  0  0  0  0  0  0
  182.2380  177.3770  139.8010 C   0  0  2  0  0  3  0  0  0  0  0  0
  181.4460  179.3550  141.0380 C   0  0  0  0  0  2  0  0  0  0  0  0
  182.7010  178.5310  140.7080 C   0  0  1  0  0  0  0  0  0  0  0  0
  179.4030  176.7020  141.6570 O   0  0  0  0  0  1  0  0  0  0  0  0
  179.9500  176.4270  140.4090 C   0  0  0  0  0  0  0  0  0  0  0  0
  179.7970  175.2880  139.9000 O   0  0  0  0  0  0  0  0  0  0  0  0
  183.6870  179.4260  139.9360 C   0  0  0  0  0  2  0  0  0  0  0  0
  184.3650  178.1400  137.8790 C   0  0  0  0  0  3  0  0  0  0  0  0
  186.6370  177.3500  137.5930 C   0  0  0  0  0  3  0  0  0  0  0  0
  185.3270  177.4660  137.1190 C   0  0  0  0  0  3  0  0  0  0  0  0
  186.0240  178.5820  139.5880 C   0  0  0  0  0  3  0  0  0  0  0  0
  184.7120  178.6960  139.1180 C   0  0  0  0  0  0  0  0  0  0  0  0
  186.9860  177.9080  138.8270 C   0  0  0  0  0  3  0  0  0  0  0  0
  183.8230  179.1480  142.6750 C   0  0  2  0  0  3  0  0  0  0  0  0
  186.9510  177.4040  143.1070 C   0  0  0  0  0  2  0  0  0  0  0  0
  185.4770  178.2510  145.6670 C   0  0  0  0  0  2  0  0  0  0  0  0
  189.5250  177.1140  145.8500 N   0  0  0  0  0  0  0  0  0  0  0  0
  190.9520  177.1280  145.9730 C   0  0  0  0  0  0  0  0  0  0  0  0
  188.8980  176.9340  144.5460 C   0  0  0  0  0  2  0  0  0  0  0  0
  191.6810  177.0920  144.9450 O   0  0  0  0  0  0  0  0  0  0  0  0
  187.6050  177.7440  144.4600 C   0  0  2  0  0  3  0  0  0  0  0  0
  191.5470  177.1770  147.2300 O   0  0  0  0  0  1  0  0  0  0  0  0
  187.4430  177.8560  146.8510 C   0  0  0  0  0  2  0  0  0  0  0  0
  186.7310  177.4720  145.6300 N   0  0  1  0  0  0  0  0  0  0  0  0
  188.6890  177.0030  147.0390 C   0  0  0  0  0  2  0  0  0  0  0  0
  185.3850  179.3980  144.6510 C   0  0  0  0  0  2  0  0  0  0  0  0
  185.5520  177.5080  143.1180 O   0  0  0  0  0  0  0  0  0  0  0  0
  185.2330  178.8760  143.2130 C   0  0  1  0  0  3  0  0  0  0  0  0
  182.8050  179.4210  143.7850 C   0  0  0  0  0  2  0  0  0  0  0  0
  182.1300  178.2530  144.1470 O   0  0  0  0  0  1  0  0  0  0  0  0
  1 18  1  0  0  0  0
  2  6  1  0  0  0  0
  3  5  1  0  0  0  0
  3  2  1  0  0  0  0
  3  9  1  1  0  0  0
  5  4  1  1  0  0  0
  5  7  1  0  0  0  0
  7 11  1  6  0  0  0
  7  6  1  0  0  0  0
  7  1  1  0  0  0  0
  9  8  1  0  0  0  0
 10  9  2  0  0  0  0
 12 16  1  0  0  0  0
 13 17  2  0  0  0  0
 14 13  1  0  0  0  0
 14 12  2  0  0  0  0
 16 15  2  0  0  0  0
 16 11  1  0  0  0  0
 17 15  1  0  0  0  0
 18 33  1  1  0  0  0
 19 31  1  0  0  0  0
 21 22  1  0  0  0  0
 21 29  1  0  0  0  0
 22 26  1  0  0  0  0
 23 21  1  0  0  0  0
 24 22  2  0  0  0  0
 25 19  1  6  0  0  0
 25 23  1  0  0  0  0
 25 28  1  0  0  0  0
 27 29  1  0  0  0  0
 28 20  1  6  0  0  0
 28 27  1  0  0  0  0
 30 20  1  0  0  0  0
 31 32  1  0  0  0  0
 32 18  1  1  0  0  0
 32 30  1  0  0  0  0
 33 34  1  0  0  0  0
M  END
>  <MODEL>
9

>  <REMARK>
 VINA RESULT:      -7.1      4.561      8.877
  Name = 
  7 active torsions:
  status: ('A' for Active; 'I' for Inactive)
    1  A    between atoms: C_1  and  C_20
    2  A    between atoms: C_1  and  C_34
    3  A    between atoms: O_5  and  C_18
    4  A    between atoms: O_5  and  C_34
    5  A    between atoms: C_8  and  C_18
    6  A    between atoms: C_13  and  C_23
    7  A    between atoms: C_18  and  C_33
                            x       y       z     vdW  Elec       q    Type
                         _______ _______ _______ _____ _____    ______ ____

>  <TORSDO>
F 7

$$$$
