=
 OpenBabel10262423293D

 34 39  0  0  0  0  0  0  0  0999 V2000
  187.0630  178.1750  144.3370 C   0  0  0  0  0  0  0  0  0  0  0  0
  183.3860  179.0780  144.7660 C   0  0  0  0  0  3  0  0  0  0  0  0
  185.1810  178.9580  146.3780 O   0  0  0  0  0  0  0  0  0  0  0  0
  189.5590  176.9680  145.2030 C   0  0  0  0  0  2  0  0  0  0  0  0
  187.6170  177.0130  143.6470 N   0  0  0  0  0  2  0  0  0  0  0  0
  188.6200  177.5750  146.2090 C   0  0  0  0  0  0  0  0  0  0  0  0
  188.0730  178.0870  148.5140 C   0  0  0  0  0  3  0  0  0  0  0  0
  188.9660  177.5830  147.5630 C   0  0  0  0  0  3  0  0  0  0  0  0
  189.0140  177.0420  143.8400 N   0  0  0  0  0  0  0  0  0  0  0  0
  186.4600  178.5490  146.7660 C   0  0  0  0  0  0  0  0  0  0  0  0
  187.3730  178.0820  145.8060 C   0  0  0  0  0  0  0  0  0  0  0  0
  186.8190  178.5630  148.1160 C   0  0  0  0  0  3  0  0  0  0  0  0
  182.9010  178.9200  143.4640 C   0  0  0  0  0  0  0  0  0  0  0  0
  183.7730  178.4920  142.4520 C   0  0  0  0  0  3  0  0  0  0  0  0
  184.7240  178.8010  145.0650 C   0  0  0  0  0  0  0  0  0  0  0  0
  185.1130  178.2210  142.7410 C   0  0  0  0  0  2  0  0  0  0  0  0
  185.5930  178.3550  144.0500 C   0  0  0  0  0  0  0  0  0  0  0  0
  192.1140  177.3250  141.7520 C   0  0  0  0  0  3  0  0  0  0  0  0
  189.4060  176.6810  141.4270 C   0  0  0  0  0  3  0  0  0  0  0  0
  191.9970  176.6210  138.1170 C   0  0  0  0  0  0  0  0  0  0  0  0
  192.4850  176.9640  139.3850 C   0  0  0  0  0  3  0  0  0  0  0  0
  191.6280  176.9850  140.4890 C   0  0  0  0  0  0  0  0  0  0  0  0
  189.7750  176.3190  139.0610 C   0  0  0  0  0  3  0  0  0  0  0  0
  190.2620  176.6600  140.3240 C   0  0  0  0  0  0  0  0  0  0  0  0
  190.6400  176.3000  137.9620 C   0  0  0  0  0  3  0  0  0  0  0  0
  189.8900  177.0250  142.7000 C   0  0  0  0  0  0  0  0  0  0  0  0
  191.2500  177.3440  142.8500 C   0  0  0  0  0  3  0  0  0  0  0  0
  192.9060  176.6000  136.9590 C   0  0  0  0  0  0  0  0  0  0  0  0
  192.4690  176.1010  135.7370 O   0  0  0  0  0  0  0  0  0  0  0  0
  194.0840  177.0330  137.0630 O   0  0  0  0  0  1  0  0  0  0  0  0
  181.5160  179.2110  143.2010 N   0  0  0  0  0  2  0  0  0  0  0  0
  180.4310  178.3270  143.3750 N   0  0  0  0  0  0  0  0  0  0  0  0
  179.7820  178.1090  142.0900 C   0  0  0  0  0  1  0  0  0  0  0  0
  179.4680  178.9270  144.2870 C   0  0  0  0  0  1  0  0  0  0  0  0
  1 11  1  0  0  0  0
  2 15  2  0  0  0  0
  3 10  1  0  0  0  0
  4  6  1  0  0  0  0
  5  9  1  0  0  0  0
  5  1  1  0  0  0  0
  6  8  1  0  0  0  0
  8  7  2  0  0  0  0
  9  4  1  0  0  0  0
 10 12  2  0  0  0  0
 11  6  2  0  0  0  0
 11 10  1  0  0  0  0
 12  7  1  0  0  0  0
 13  2  1  0  0  0  0
 14 16  1  0  0  0  0
 14 13  2  0  0  0  0
 15  3  1  0  0  0  0
 16 17  1  0  0  0  0
 17  1  2  0  0  0  0
 17 15  1  0  0  0  0
 18 27  1  0  0  0  0
 19 26  1  0  0  0  0
 20 21  2  0  0  0  0
 21 22  1  0  0  0  0
 22 18  2  0  0  0  0
 23 24  1  0  0  0  0
 24 22  1  0  0  0  0
 24 19  2  0  0  0  0
 25 20  1  0  0  0  0
 25 23  2  0  0  0  0
 26 27  2  0  0  0  0
 26  9  1  0  0  0  0
 28 30  1  0  0  0  0
 28 20  1  0  0  0  0
 29 28  2  0  0  0  0
 31 32  1  0  0  0  0
 31 13  1  0  0  0  0
 32 34  1  0  0  0  0
 33 32  1  0  0  0  0
M  END
>  <MODEL>
1

>  <REMARK>
 VINA RESULT:     -10.6      0.000      0.000
  Name = 
  4 active torsions:
  status: ('A' for Active; 'I' for Inactive)
    1  A    between atoms: N_3  and  N_25
    2  A    between atoms: C_7  and  C_11
    3  A    between atoms: N_18  and  C_30
    4  A    between atoms: C_23  and  N_25
                            x       y       z     vdW  Elec       q    Type
                         _______ _______ _______ _____ _____    ______ ____

>  <TORSDO>
F 4

$$$$
=
 OpenBabel10262423293D

 34 39  0  0  0  0  0  0  0  0999 V2000
  188.9280  177.3010  143.5650 C   0  0  0  0  0  0  0  0  0  0  0  0
  191.8320  176.7070  141.1720 C   0  0  0  0  0  3  0  0  0  0  0  0
  191.6510  176.3500  143.5540 O   0  0  0  0  0  0  0  0  0  0  0  0
  187.7840  178.0740  146.1210 C   0  0  0  0  0  2  0  0  0  0  0  0
  188.1160  178.5080  143.6930 N   0  0  0  0  0  2  0  0  0  0  0  0
  189.1230  177.3910  146.0640 C   0  0  0  0  0  0  0  0  0  0  0  0
  191.0780  176.5240  147.2040 C   0  0  0  0  0  3  0  0  0  0  0  0
  189.8050  177.1010  147.2490 C   0  0  0  0  0  3  0  0  0  0  0  0
  187.2360  178.3050  144.7770 N   0  0  0  0  0  0  0  0  0  0  0  0
  191.0150  176.5520  144.7830 C   0  0  0  0  0  0  0  0  0  0  0  0
  189.7200  177.0930  144.8270 C   0  0  0  0  0  0  0  0  0  0  0  0
  191.6850  176.2560  145.9730 C   0  0  0  0  0  3  0  0  0  0  0  0
  191.2950  177.1470  139.9590 C   0  0  0  0  0  0  0  0  0  0  0  0
  189.9910  177.6630  139.9300 C   0  0  0  0  0  3  0  0  0  0  0  0
  191.0860  176.7900  142.3520 C   0  0  0  0  0  0  0  0  0  0  0  0
  189.2360  177.7420  141.1030 C   0  0  0  0  0  2  0  0  0  0  0  0
  189.7820  177.3240  142.3230 C   0  0  0  0  0  0  0  0  0  0  0  0
  183.5880  178.7690  145.5020 C   0  0  0  0  0  3  0  0  0  0  0  0
  185.2670  178.4040  143.2880 C   0  0  0  0  0  3  0  0  0  0  0  0
  181.1200  178.8270  142.7410 C   0  0  0  0  0  0  0  0  0  0  0  0
  181.6660  178.8680  144.0300 C   0  0  0  0  0  3  0  0  0  0  0  0
  183.0440  178.7280  144.2170 C   0  0  0  0  0  0  0  0  0  0  0  0
  183.3470  178.5020  141.8150 C   0  0  0  0  0  3  0  0  0  0  0  0
  183.8900  178.5440  143.1010 C   0  0  0  0  0  0  0  0  0  0  0  0
  181.9670  178.6440  141.6370 C   0  0  0  0  0  3  0  0  0  0  0  0
  185.8190  178.4420  144.5790 C   0  0  0  0  0  0  0  0  0  0  0  0
  184.9670  178.6280  145.6810 C   0  0  0  0  0  3  0  0  0  0  0  0
  179.6680  178.9760  142.5500 C   0  0  0  0  0  0  0  0  0  0  0  0
  179.0570  180.2070  142.7610 O   0  0  0  0  0  1  0  0  0  0  0  0
  178.9660  177.9920  142.1960 O   0  0  0  0  0  0  0  0  0  0  0  0
  192.1000  177.0490  138.7690 N   0  0  0  0  0  2  0  0  0  0  0  0
  192.5310  175.8560  138.1500 N   0  0  0  0  0  0  0  0  0  0  0  0
  193.4470  176.1850  137.0670 C   0  0  0  0  0  1  0  0  0  0  0  0
  191.3780  175.1660  137.5900 C   0  0  0  0  0  1  0  0  0  0  0  0
  1  5  1  0  0  0  0
  1 11  1  0  0  0  0
  2 15  2  0  0  0  0
  3 10  1  0  0  0  0
  5  9  1  0  0  0  0
  6  4  1  0  0  0  0
  6  8  1  0  0  0  0
  7  8  2  0  0  0  0
  9  4  1  0  0  0  0
 10 11  1  0  0  0  0
 10 12  2  0  0  0  0
 11  6  2  0  0  0  0
 12  7  1  0  0  0  0
 13  2  1  0  0  0  0
 14 13  2  0  0  0  0
 14 16  1  0  0  0  0
 15  3  1  0  0  0  0
 16 17  1  0  0  0  0
 17 15  1  0  0  0  0
 17  1  2  0  0  0  0
 18 27  1  0  0  0  0
 19 26  1  0  0  0  0
 20 21  2  0  0  0  0
 21 22  1  0  0  0  0
 22 18  2  0  0  0  0
 23 24  1  0  0  0  0
 24 19  2  0  0  0  0
 24 22  1  0  0  0  0
 25 23  2  0  0  0  0
 25 20  1  0  0  0  0
 26  9  1  0  0  0  0
 26 27  2  0  0  0  0
 28 20  1  0  0  0  0
 28 29  1  0  0  0  0
 30 28  2  0  0  0  0
 31 13  1  0  0  0  0
 32 31  1  0  0  0  0
 33 32  1  0  0  0  0
 34 32  1  0  0  0  0
M  END
>  <MODEL>
2

>  <REMARK>
 VINA RESULT:     -10.5      2.920      8.881
  Name = 
  4 active torsions:
  status: ('A' for Active; 'I' for Inactive)
    1  A    between atoms: N_3  and  N_25
    2  A    between atoms: C_7  and  C_11
    3  A    between atoms: N_18  and  C_30
    4  A    between atoms: C_23  and  N_25
                            x       y       z     vdW  Elec       q    Type
                         _______ _______ _______ _____ _____    ______ ____

>  <TORSDO>
F 4

$$$$
=
 OpenBabel10262423293D

 34 39  0  0  1  0  0  0  0  0999 V2000
  188.2180  177.5340  143.3640 C   0  0  0  0  0  0  0  0  0  0  0  0
  189.1950  177.3860  147.0430 C   0  0  0  0  0  3  0  0  0  0  0  0
  187.0450  177.7160  145.9930 O   0  0  0  0  0  0  0  0  0  0  0  0
  186.6670  178.5470  141.1270 C   0  0  0  0  0  2  0  0  0  0  0  0
  188.8450  178.3280  142.3110 N   0  0  0  0  0  2  0  0  0  0  0  0
  186.0450  178.4310  142.4920 C   0  0  2  0  0  3  0  0  0  0  0  0
  184.1360  178.7420  143.9520 C   0  0  0  0  0  3  0  0  0  0  0  0
  184.7050  178.7860  142.6760 C   0  0  0  0  0  3  0  0  0  0  0  0
  188.0800  178.1430  141.1400 N   0  0  0  0  0  0  0  0  0  0  0  0
  186.2540  178.0210  144.8830 C   0  0  0  0  0  0  0  0  0  0  0  0
  186.8150  178.0250  143.5950 C   0  0  0  0  0  0  0  0  0  0  0  0
  184.9110  178.3670  145.0550 C   0  0  0  0  0  3  0  0  0  0  0  0
  190.5800  177.2090  146.9630 C   0  0  0  0  0  0  0  0  0  0  0  0
  191.1960  177.1660  145.7040 C   0  0  0  0  0  3  0  0  0  0  0  0
  188.4280  177.5310  145.8840 C   0  0  0  0  0  0  0  0  0  0  0  0
  190.4360  177.3020  144.5400 C   0  0  0  0  0  3  0  0  0  0  0  0
  189.0520  177.5040  144.6200 C   0  0  0  0  0  0  0  0  0  0  0  0
  188.5780  177.0640  137.5850 C   0  0  0  0  0  3  0  0  0  0  0  0
  190.0900  177.3800  139.9230 C   0  0  0  0  0  3  0  0  0  0  0  0
  191.9280  176.0280  136.3920 C   0  0  0  0  0  0  0  0  0  0  0  0
  190.5580  176.3210  136.4030 C   0  0  0  0  0  3  0  0  0  0  0  0
  189.9430  176.7710  137.5750 C   0  0  0  0  0  0  0  0  0  0  0  0
  192.0710  176.6380  138.7430 C   0  0  0  0  0  3  0  0  0  0  0  0
  190.7060  176.9310  138.7530 C   0  0  0  0  0  0  0  0  0  0  0  0
  192.6790  176.1890  137.5660 C   0  0  0  0  0  3  0  0  0  0  0  0
  188.7160  177.6740  139.9390 C   0  0  0  0  0  0  0  0  0  0  0  0
  187.9700  177.5130  138.7610 C   0  0  0  0  0  3  0  0  0  0  0  0
  192.5710  175.5550  135.1550 C   0  0  0  0  0  0  0  0  0  0  0  0
  192.1980  174.3380  134.5950 O   0  0  0  0  0  1  0  0  0  0  0  0
  193.4630  176.2450  134.5940 O   0  0  0  0  0  0  0  0  0  0  0  0
  191.3320  177.0690  148.1820 N   0  0  0  0  0  2  0  0  0  0  0  0
  192.6870  176.6880  148.2870 N   0  0  0  0  0  0  0  0  0  0  0  0
  192.7920  175.2480  148.1010 C   0  0  0  0  0  1  0  0  0  0  0  0
  193.1750  177.0220  149.6170 C   0  0  0  0  0  1  0  0  0  0  0  0
  1 11  2  0  0  0  0
  1 17  1  0  0  0  0
  4  9  1  0  0  0  0
  5  1  1  0  0  0  0
  6  4  1  1  0  0  0
  6  8  1  0  0  0  0
  6 11  1  0  0  0  0
  7 12  1  0  0  0  0
  8  7  2  0  0  0  0
  9  5  1  0  0  0  0
 10 12  2  0  0  0  0
 10  3  1  0  0  0  0
 11 10  1  0  0  0  0
 13  2  1  0  0  0  0
 13 31  1  0  0  0  0
 14 13  2  0  0  0  0
 15  3  1  0  0  0  0
 15  2  2  0  0  0  0
 16 17  2  0  0  0  0
 16 14  1  0  0  0  0
 17 15  1  0  0  0  0
 18 27  1  0  0  0  0
 19 26  1  0  0  0  0
 20 21  2  0  0  0  0
 20 25  1  0  0  0  0
 21 22  1  0  0  0  0
 22 18  2  0  0  0  0
 22 24  1  0  0  0  0
 23 24  1  0  0  0  0
 24 19  2  0  0  0  0
 25 23  2  0  0  0  0
 26  9  1  0  0  0  0
 27 26  2  0  0  0  0
 28 20  1  0  0  0  0
 29 28  1  0  0  0  0
 30 28  2  0  0  0  0
 31 32  1  0  0  0  0
 32 34  1  0  0  0  0
 33 32  1  0  0  0  0
M  END
>  <MODEL>
3

>  <REMARK>
 VINA RESULT:      -9.4      2.607      6.138
  Name = 
  4 active torsions:
  status: ('A' for Active; 'I' for Inactive)
    1  A    between atoms: N_3  and  N_25
    2  A    between atoms: C_7  and  C_11
    3  A    between atoms: N_18  and  C_30
    4  A    between atoms: C_23  and  N_25
                            x       y       z     vdW  Elec       q    Type
                         _______ _______ _______ _____ _____    ______ ____

>  <TORSDO>
F 4

$$$$
=
 OpenBabel10262423293D

 34 39  0  0  1  0  0  0  0  0999 V2000
  186.7700  177.9800  139.5920 C   0  0  0  0  0  0  0  0  0  0  0  0
  183.1170  178.7020  138.7840 C   0  0  0  0  0  3  0  0  0  0  0  0
  184.9660  178.1160  137.3450 O   0  0  0  0  0  0  0  0  0  0  0  0
  189.6190  178.0670  139.0360 C   0  0  0  0  0  2  0  0  0  0  0  0
  187.6730  178.7840  140.4120 N   0  0  0  0  0  2  0  0  0  0  0  0
  188.6300  177.9380  137.9110 C   0  0  0  0  0  0  0  0  0  0  0  0
  188.1740  177.7740  135.5360 C   0  0  0  0  0  3  0  0  0  0  0  0
  189.0870  177.8300  136.5940 C   0  0  0  0  0  3  0  0  0  0  0  0
  188.9470  178.1820  140.3380 N   0  0  0  0  0  0  0  0  0  0  0  0
  186.3340  177.9690  137.1000 C   0  0  2  0  0  3  0  0  0  0  0  0
  187.2490  177.9830  138.1660 C   0  0  0  0  0  0  0  0  0  0  0  0
  186.8010  177.8500  135.7880 C   0  0  0  0  0  3  0  0  0  0  0  0
  182.6010  179.0050  140.0480 C   0  0  0  0  0  0  0  0  0  0  0  0
  183.4560  178.9990  141.1600 C   0  0  0  0  0  3  0  0  0  0  0  0
  184.4740  178.4070  138.6230 C   0  0  0  0  0  0  0  0  0  0  0  0
  184.8120  178.6970  141.0080 C   0  0  0  0  0  3  0  0  0  0  0  0
  185.3340  178.4180  139.7390 C   0  0  0  0  0  0  0  0  0  0  0  0
  191.6140  176.9480  142.6640 C   0  0  0  0  0  3  0  0  0  0  0  0
  188.9830  177.9000  142.7930 C   0  0  0  0  0  3  0  0  0  0  0  0
  190.9940  176.7840  146.3120 C   0  0  0  0  0  0  0  0  0  0  0  0
  191.6370  176.6800  145.0710 C   0  0  0  0  0  3  0  0  0  0  0  0
  190.9730  177.0500  143.8990 C   0  0  0  0  0  0  0  0  0  0  0  0
  189.0040  177.6340  145.2000 C   0  0  0  0  0  3  0  0  0  0  0  0
  189.6460  177.5310  143.9640 C   0  0  0  0  0  0  0  0  0  0  0  0
  189.6760  177.2620  146.3680 C   0  0  0  0  0  3  0  0  0  0  0  0
  189.6240  177.7970  141.5470 C   0  0  0  0  0  0  0  0  0  0  0  0
  190.9430  177.3200  141.4960 C   0  0  0  0  0  3  0  0  0  0  0  0
  191.6990  176.3930  147.5430 C   0  0  0  0  0  0  0  0  0  0  0  0
  192.1370  177.3640  148.4370 O   0  0  0  0  0  1  0  0  0  0  0  0
  191.9130  175.1780  147.7990 O   0  0  0  0  0  0  0  0  0  0  0  0
  181.1990  179.3080  140.1690 N   0  0  0  0  0  2  0  0  0  0  0  0
  180.4660  179.3960  141.3720 N   0  0  0  0  0  0  0  0  0  0  0  0
  179.6620  178.1930  141.5300 C   0  0  0  0  0  1  0  0  0  0  0  0
  179.5750  180.5460  141.3040 C   0  0  0  0  0  1  0  0  0  0  0  0
  1 17  1  0  0  0  0
  1  5  1  0  0  0  0
  2 13  1  0  0  0  0
  3 15  1  0  0  0  0
  4  9  1  0  0  0  0
  6 11  1  0  0  0  0
  6  4  1  0  0  0  0
  7 12  2  0  0  0  0
  7  8  1  0  0  0  0
  8  6  2  0  0  0  0
  9  5  1  0  0  0  0
  9 26  1  0  0  0  0
 10 12  1  6  0  0  0
 10  3  1  0  0  0  0
 10 11  1  0  0  0  0
 11  1  2  0  0  0  0
 13 31  1  0  0  0  0
 13 14  2  0  0  0  0
 15  2  2  0  0  0  0
 15 17  1  0  0  0  0
 16 14  1  0  0  0  0
 17 16  2  0  0  0  0
 18 22  1  0  0  0  0
 19 24  1  0  0  0  0
 20 25  1  0  0  0  0
 20 28  1  0  0  0  0
 21 20  2  0  0  0  0
 22 24  2  0  0  0  0
 22 21  1  0  0  0  0
 23 25  2  0  0  0  0
 24 23  1  0  0  0  0
 26 19  2  0  0  0  0
 27 26  1  0  0  0  0
 27 18  2  0  0  0  0
 28 30  2  0  0  0  0
 28 29  1  0  0  0  0
 31 32  1  0  0  0  0
 32 33  1  0  0  0  0
 34 32  1  0  0  0  0
M  END
>  <MODEL>
4

>  <REMARK>
 VINA RESULT:      -9.4      3.414      6.908
  Name = 
  4 active torsions:
  status: ('A' for Active; 'I' for Inactive)
    1  A    between atoms: N_3  and  N_25
    2  A    between atoms: C_7  and  C_11
    3  A    between atoms: N_18  and  C_30
    4  A    between atoms: C_23  and  N_25
                            x       y       z     vdW  Elec       q    Type
                         _______ _______ _______ _____ _____    ______ ____

>  <TORSDO>
F 4

$$$$
=
 OpenBabel10262423293D

 34 39  0  0  0  0  0  0  0  0999 V2000
  186.6050  178.1730  143.3860 C   0  0  0  0  0  0  0  0  0  0  0  0
  182.8740  178.8810  143.0830 C   0  0  0  0  0  3  0  0  0  0  0  0
  184.3420  178.9450  145.0000 O   0  0  0  0  0  0  0  0  0  0  0  0
  188.9530  177.1560  144.7620 C   0  0  0  0  0  2  0  0  0  0  0  0
  187.3320  177.0120  142.8790 N   0  0  0  0  0  2  0  0  0  0  0  0
  187.8160  177.7560  145.5420 C   0  0  0  0  0  0  0  0  0  0  0  0
  186.8270  178.3500  147.6740 C   0  0  0  0  0  3  0  0  0  0  0  0
  187.9040  177.8520  146.9350 C   0  0  0  0  0  3  0  0  0  0  0  0
  188.6660  177.1310  143.3210 N   0  0  0  0  0  0  0  0  0  0  0  0
  185.5450  178.6300  145.6380 C   0  0  0  0  0  0  0  0  0  0  0  0
  186.6420  178.1700  144.8900 C   0  0  0  0  0  0  0  0  0  0  0  0
  185.6470  178.7320  147.0280 C   0  0  0  0  0  3  0  0  0  0  0  0
  182.6460  178.6320  141.7270 C   0  0  0  0  0  0  0  0  0  0  0  0
  183.7100  178.2050  140.9180 C   0  0  0  0  0  3  0  0  0  0  0  0
  184.1440  178.6970  143.6370 C   0  0  0  0  0  0  0  0  0  0  0  0
  184.9840  178.0270  141.4610 C   0  0  0  0  0  2  0  0  0  0  0  0
  185.2070  178.2530  142.8250 C   0  0  0  0  0  0  0  0  0  0  0  0
  192.0740  177.5240  141.8090 C   0  0  0  0  0  3  0  0  0  0  0  0
  189.5240  176.6410  141.0560 C   0  0  0  0  0  3  0  0  0  0  0  0
  192.6830  176.5680  138.2830 C   0  0  0  0  0  0  0  0  0  0  0  0
  192.9020  177.0350  139.5860 C   0  0  0  0  0  3  0  0  0  0  0  0
  191.8550  177.0600  140.5120 C   0  0  0  0  0  0  0  0  0  0  0  0
  190.3500  176.1500  138.8330 C   0  0  0  0  0  3  0  0  0  0  0  0
  190.5690  176.6140  140.1310 C   0  0  0  0  0  0  0  0  0  0  0  0
  191.4030  176.1270  137.9130 C   0  0  0  0  0  3  0  0  0  0  0  0
  189.7380  177.1090  142.3630 C   0  0  0  0  0  0  0  0  0  0  0  0
  191.0220  177.5470  142.7290 C   0  0  0  0  0  3  0  0  0  0  0  0
  193.7900  176.5430  137.3130 C   0  0  0  0  0  0  0  0  0  0  0  0
  194.7040  175.4950  137.3220 O   0  0  0  0  0  1  0  0  0  0  0  0
  193.9210  177.4680  136.4680 O   0  0  0  0  0  0  0  0  0  0  0  0
  181.3220  178.8280  141.1990 N   0  0  0  0  0  2  0  0  0  0  0  0
  181.0000  179.3280  139.9190 N   0  0  0  0  0  0  0  0  0  0  0  0
  180.4340  180.6620  140.0560 C   0  0  0  0  0  1  0  0  0  0  0  0
  180.0040  178.4610  139.3050 C   0  0  0  0  0  1  0  0  0  0  0  0
  1 11  1  0  0  0  0
  2 15  2  0  0  0  0
  3 10  1  0  0  0  0
  4  6  1  0  0  0  0
  5  9  1  0  0  0  0
  5  1  1  0  0  0  0
  6  8  1  0  0  0  0
  8  7  2  0  0  0  0
  9  4  1  0  0  0  0
 10 12  2  0  0  0  0
 11  6  2  0  0  0  0
 11 10  1  0  0  0  0
 12  7  1  0  0  0  0
 13  2  1  0  0  0  0
 14 16  1  0  0  0  0
 14 13  2  0  0  0  0
 15  3  1  0  0  0  0
 16 17  1  0  0  0  0
 17  1  2  0  0  0  0
 17 15  1  0  0  0  0
 18 27  1  0  0  0  0
 19 26  1  0  0  0  0
 20 21  2  0  0  0  0
 21 22  1  0  0  0  0
 22 18  2  0  0  0  0
 23 24  1  0  0  0  0
 24 22  1  0  0  0  0
 24 19  2  0  0  0  0
 25 20  1  0  0  0  0
 25 23  2  0  0  0  0
 26 27  2  0  0  0  0
 26  9  1  0  0  0  0
 28 29  1  0  0  0  0
 28 20  1  0  0  0  0
 30 28  2  0  0  0  0
 31 13  1  0  0  0  0
 32 33  1  0  0  0  0
 32 31  1  0  0  0  0
 34 32  1  0  0  0  0
M  END
>  <MODEL>
5

>  <REMARK>
 VINA RESULT:      -9.2      1.306      1.686
  Name = 
  4 active torsions:
  status: ('A' for Active; 'I' for Inactive)
    1  A    between atoms: N_3  and  N_25
    2  A    between atoms: C_7  and  C_11
    3  A    between atoms: N_18  and  C_30
    4  A    between atoms: C_23  and  N_25
                            x       y       z     vdW  Elec       q    Type
                         _______ _______ _______ _____ _____    ______ ____

>  <TORSDO>
F 4

$$$$
=
 OpenBabel10262423293D

 34 39  0  0  1  0  0  0  0  0999 V2000
  189.5070  176.7870  138.5340 C   0  0  0  0  0  0  0  0  0  0  0  0
  187.1950  176.7480  135.5060 C   0  0  0  0  0  3  0  0  0  0  0  0
  189.5250  176.1510  135.7200 O   0  0  0  0  0  0  0  0  0  0  0  0
  192.0720  177.1840  139.8390 C   0  0  0  0  0  2  0  0  0  0  0  0
  189.7080  177.8790  139.4830 N   0  0  0  0  0  2  0  0  0  0  0  0
  192.0100  176.6630  138.4300 C   0  0  0  0  0  0  0  0  0  0  0  0
  193.1490  175.9140  136.4250 C   0  0  0  0  0  3  0  0  0  0  0  0
  193.1920  176.3400  137.7570 C   0  0  0  0  0  3  0  0  0  0  0  0
  190.7320  177.4780  140.3670 N   0  0  0  0  0  0  0  0  0  0  0  0
  190.7390  176.1640  136.4140 C   0  0  0  0  0  0  0  0  0  0  0  0
  190.7770  176.5510  137.7630 C   0  0  0  0  0  0  0  0  0  0  0  0
  191.9250  175.8330  135.7530 C   0  0  0  0  0  3  0  0  0  0  0  0
  186.0040  177.2380  136.0520 C   0  0  0  0  0  0  0  0  0  0  0  0
  185.9670  177.6070  137.4050 C   0  0  0  0  0  3  0  0  0  0  0  0
  188.3440  176.6360  136.2940 C   0  0  1  0  0  3  0  0  0  0  0  0
  187.1100  177.4900  138.2010 C   0  0  0  0  0  3  0  0  0  0  0  0
  188.3090  177.0220  137.6490 C   0  0  0  0  0  0  0  0  0  0  0  0
  191.3420  177.4730  144.0650 C   0  0  0  0  0  3  0  0  0  0  0  0
  189.1760  177.4870  142.2870 C   0  0  0  0  0  3  0  0  0  0  0  0
  188.4950  177.4960  146.4350 C   0  0  0  0  0  0  0  0  0  0  0  0
  189.8050  177.4860  145.9380 C   0  0  0  0  0  3  0  0  0  0  0  0
  190.0370  177.4830  144.5600 C   0  0  0  0  0  0  0  0  0  0  0  0
  187.6390  177.5000  144.1580 C   0  0  0  0  0  3  0  0  0  0  0  0
  188.9450  177.4900  143.6640 C   0  0  0  0  0  0  0  0  0  0  0  0
  187.4160  177.5040  145.5390 C   0  0  0  0  0  3  0  0  0  0  0  0
  190.4880  177.4750  141.7840 C   0  0  0  0  0  0  0  0  0  0  0  0
  191.5650  177.4700  142.6860 C   0  0  0  0  0  3  0  0  0  0  0  0
  188.2580  177.5000  147.8880 C   0  0  0  0  0  0  0  0  0  0  0  0
  188.3740  178.6810  148.6130 O   0  0  0  0  0  1  0  0  0  0  0  0
  187.9490  176.4360  148.4880 O   0  0  0  0  0  0  0  0  0  0  0  0
  184.8450  177.3430  135.2040 N   0  0  0  0  0  2  0  0  0  0  0  0
  183.5410  176.9020  135.5160 N   0  0  0  0  0  0  0  0  0  0  0  0
  183.4750  175.4570  135.3560 C   0  0  0  0  0  1  0  0  0  0  0  0
  182.5970  177.5160  134.5940 C   0  0  0  0  0  1  0  0  0  0  0  0
  1  5  1  0  0  0  0
  2 13  2  0  0  0  0
  3 15  1  0  0  0  0
  3 10  1  0  0  0  0
  4  9  1  0  0  0  0
  5  9  1  0  0  0  0
  6  4  1  0  0  0  0
  7  8  1  0  0  0  0
  8  6  2  0  0  0  0
  9 26  1  0  0  0  0
 10 11  2  0  0  0  0
 11  6  1  0  0  0  0
 11  1  1  0  0  0  0
 12 10  1  0  0  0  0
 12  7  2  0  0  0  0
 13 14  1  0  0  0  0
 14 16  2  0  0  0  0
 15  2  1  6  0  0  0
 15 17  1  0  0  0  0
 17 16  1  0  0  0  0
 17  1  2  0  0  0  0
 18 22  1  0  0  0  0
 19 24  1  0  0  0  0
 20 28  1  0  0  0  0
 21 20  1  0  0  0  0
 22 21  2  0  0  0  0
 23 25  1  0  0  0  0
 24 23  2  0  0  0  0
 24 22  1  0  0  0  0
 25 20  2  0  0  0  0
 26 19  2  0  0  0  0
 26 27  1  0  0  0  0
 27 18  2  0  0  0  0
 28 30  2  0  0  0  0
 28 29  1  0  0  0  0
 31 32  1  0  0  0  0
 31 13  1  0  0  0  0
 33 32  1  0  0  0  0
 34 32  1  0  0  0  0
M  END
>  <MODEL>
6

>  <REMARK>
 VINA RESULT:      -9.0      3.670      8.556
  Name = 
  4 active torsions:
  status: ('A' for Active; 'I' for Inactive)
    1  A    between atoms: N_3  and  N_25
    2  A    between atoms: C_7  and  C_11
    3  A    between atoms: N_18  and  C_30
    4  A    between atoms: C_23  and  N_25
                            x       y       z     vdW  Elec       q    Type
                         _______ _______ _______ _____ _____    ______ ____

>  <TORSDO>
F 4

$$$$
=
 OpenBabel10262423293D

 34 39  0  0  0  0  0  0  0  0999 V2000
  187.7130  177.5490  142.5620 C   0  0  0  0  0  0  0  0  0  0  0  0
  191.3080  176.8350  141.5240 C   0  0  0  0  0  3  0  0  0  0  0  0
  190.2490  176.7710  143.6940 O   0  0  0  0  0  0  0  0  0  0  0  0
  185.6870  178.5680  144.3780 C   0  0  0  0  0  2  0  0  0  0  0  0
  186.9020  178.7120  142.2100 N   0  0  0  0  0  2  0  0  0  0  0  0
  186.9550  177.9650  144.9160 C   0  0  0  0  0  0  0  0  0  0  0  0
  188.3460  177.3680  146.8090 C   0  0  0  0  0  3  0  0  0  0  0  0
  187.1440  177.8690  146.2980 C   0  0  0  0  0  3  0  0  0  0  0  0
  185.6820  178.5950  142.9080 N   0  0  0  0  0  0  0  0  0  0  0  0
  189.1970  177.0870  144.5580 C   0  0  0  0  0  0  0  0  0  0  0  0
  187.9750  177.5510  144.0440 C   0  0  0  0  0  0  0  0  0  0  0  0
  189.3730  176.9840  145.9410 C   0  0  0  0  0  3  0  0  0  0  0  0
  191.2620  177.0850  140.1490 C   0  0  0  0  0  0  0  0  0  0  0  0
  190.0600  177.5150  139.5680 C   0  0  0  0  0  3  0  0  0  0  0  0
  190.1730  177.0210  142.3190 C   0  0  0  0  0  0  0  0  0  0  0  0
  188.9190  177.6950  140.3540 C   0  0  0  0  0  2  0  0  0  0  0  0
  188.9710  177.4680  141.7350 C   0  0  0  0  0  0  0  0  0  0  0  0
  182.0060  178.6990  142.1800 C   0  0  0  0  0  3  0  0  0  0  0  0
  184.4300  178.6090  140.7770 C   0  0  0  0  0  3  0  0  0  0  0  0
  180.7860  178.7040  138.6820 C   0  0  0  0  0  0  0  0  0  0  0  0
  180.7920  178.7170  140.0840 C   0  0  0  0  0  3  0  0  0  0  0  0
  182.0010  178.6860  140.7850 C   0  0  0  0  0  0  0  0  0  0  0  0
  183.2180  178.6260  138.6810 C   0  0  0  0  0  3  0  0  0  0  0  0
  183.2230  178.6400  140.0770 C   0  0  0  0  0  0  0  0  0  0  0  0
  182.0040  178.6580  137.9870 C   0  0  0  0  0  3  0  0  0  0  0  0
  184.4400  178.6200  142.1820 C   0  0  0  0  0  0  0  0  0  0  0  0
  183.2190  178.6680  142.8740 C   0  0  0  0  0  3  0  0  0  0  0  0
  179.5100  178.7370  137.9500 C   0  0  0  0  0  0  0  0  0  0  0  0
  178.9310  179.9550  137.6100 O   0  0  0  0  0  0  0  0  0  0  0  0
  178.9310  177.6670  137.6260 O   0  0  0  0  0  1  0  0  0  0  0  0
  192.4550  176.8870  139.3690 N   0  0  0  0  0  2  0  0  0  0  0  0
  192.6330  175.9320  138.3450 N   0  0  0  0  0  0  0  0  0  0  0  0
  194.0090  175.4590  138.3680 C   0  0  0  0  0  1  0  0  0  0  0  0
  192.3780  176.5620  137.0570 C   0  0  0  0  0  1  0  0  0  0  0  0
  1 11  1  0  0  0  0
  2 15  2  0  0  0  0
  3 10  1  0  0  0  0
  4  6  1  0  0  0  0
  5  1  1  0  0  0  0
  5  9  1  0  0  0  0
  6  8  1  0  0  0  0
  8  7  2  0  0  0  0
  9  4  1  0  0  0  0
 10 12  2  0  0  0  0
 11 10  1  0  0  0  0
 11  6  2  0  0  0  0
 12  7  1  0  0  0  0
 13  2  1  0  0  0  0
 14 13  2  0  0  0  0
 14 16  1  0  0  0  0
 15  3  1  0  0  0  0
 16 17  1  0  0  0  0
 17 15  1  0  0  0  0
 17  1  2  0  0  0  0
 18 27  1  0  0  0  0
 19 26  1  0  0  0  0
 20 21  2  0  0  0  0
 21 22  1  0  0  0  0
 22 18  2  0  0  0  0
 23 24  1  0  0  0  0
 24 19  2  0  0  0  0
 24 22  1  0  0  0  0
 25 23  2  0  0  0  0
 25 20  1  0  0  0  0
 26 27  2  0  0  0  0
 26  9  1  0  0  0  0
 28 20  1  0  0  0  0
 29 28  2  0  0  0  0
 30 28  1  0  0  0  0
 31 13  1  0  0  0  0
 32 33  1  0  0  0  0
 32 31  1  0  0  0  0
 34 32  1  0  0  0  0
M  END
>  <MODEL>
7

>  <REMARK>
 VINA RESULT:      -8.6      3.720      8.710
  Name = 
  4 active torsions:
  status: ('A' for Active; 'I' for Inactive)
    1  A    between atoms: N_3  and  N_25
    2  A    between atoms: C_7  and  C_11
    3  A    between atoms: N_18  and  C_30
    4  A    between atoms: C_23  and  N_25
                            x       y       z     vdW  Elec       q    Type
                         _______ _______ _______ _____ _____    ______ ____

>  <TORSDO>
F 4

$$$$
=
 OpenBabel10262423293D

 34 39  0  0  1  0  0  0  0  0999 V2000
  186.5210  177.5520  138.5030 C   0  0  0  0  0  0  0  0  0  0  0  0
  183.2530  177.7750  136.5580 C   0  0  0  0  0  3  0  0  0  0  0  0
  185.4720  177.1370  135.8480 O   0  0  0  0  0  0  0  0  0  0  0  0
  189.4000  177.8180  138.7840 C   0  0  0  0  0  2  0  0  0  0  0  0
  187.1020  178.5640  139.3810 N   0  0  0  0  0  2  0  0  0  0  0  0
  188.8010  177.4090  137.4670 C   0  0  0  0  0  0  0  0  0  0  0  0
  189.0870  176.8070  135.1360 C   0  0  0  0  0  3  0  0  0  0  0  0
  189.6370  177.1270  136.3820 C   0  0  0  0  0  3  0  0  0  0  0  0
  188.3640  178.0840  139.7910 N   0  0  0  0  0  0  0  0  0  0  0  0
  186.8560  177.0830  136.0390 C   0  0  2  0  0  3  0  0  0  0  0  0
  187.4060  177.3630  137.3010 C   0  0  0  0  0  0  0  0  0  0  0  0
  187.6990  176.7920  134.9640 C   0  0  0  0  0  3  0  0  0  0  0  0
  182.3690  178.2340  137.5390 C   0  0  0  0  0  0  0  0  0  0  0  0
  182.8500  178.4960  138.8300 C   0  0  0  0  0  3  0  0  0  0  0  0
  184.6070  177.5890  136.8510 C   0  0  0  0  0  0  0  0  0  0  0  0
  184.2000  178.3040  139.1340 C   0  0  0  0  0  3  0  0  0  0  0  0
  185.0910  177.8690  138.1450 C   0  0  0  0  0  0  0  0  0  0  0  0
  190.2980  177.7760  142.9870 C   0  0  0  0  0  3  0  0  0  0  0  0
  187.6310  177.9670  142.1480 C   0  0  0  0  0  3  0  0  0  0  0  0
  188.5340  177.6590  146.2430 C   0  0  0  0  0  0  0  0  0  0  0  0
  189.5660  177.6660  145.2940 C   0  0  0  0  0  3  0  0  0  0  0  0
  189.2700  177.7680  143.9320 C   0  0  0  0  0  0  0  0  0  0  0  0
  186.8970  177.8570  144.4540 C   0  0  0  0  0  3  0  0  0  0  0  0
  187.9260  177.8650  143.5090 C   0  0  0  0  0  0  0  0  0  0  0  0
  187.2010  177.7550  145.8150 C   0  0  0  0  0  3  0  0  0  0  0  0
  188.6620  177.9730  141.1940 C   0  0  0  0  0  0  0  0  0  0  0  0
  189.9940  177.8780  141.6270 C   0  0  0  0  0  3  0  0  0  0  0  0
  188.8520  177.5510  147.6760 C   0  0  0  0  0  0  0  0  0  0  0  0
  190.1760  177.5020  148.0970 O   0  0  0  0  0  0  0  0  0  0  0  0
  187.9300  177.5020  148.5330 O   0  0  0  0  0  1  0  0  0  0  0  0
  180.9840  178.4170  137.1920 N   0  0  0  0  0  2  0  0  0  0  0  0
  180.4890  179.1460  136.0900 N   0  0  0  0  0  0  0  0  0  0  0  0
  180.7130  180.5660  136.3190 C   0  0  0  0  0  1  0  0  0  0  0  0
  179.0570  178.9140  135.9690 C   0  0  0  0  0  1  0  0  0  0  0  0
  1  5  1  0  0  0  0
  2 15  2  0  0  0  0
  2 13  1  0  0  0  0
  3 10  1  0  0  0  0
  3 15  1  0  0  0  0
  4  9  1  0  0  0  0
  5  9  1  0  0  0  0
  6  4  1  0  0  0  0
  7  8  1  0  0  0  0
  8  6  2  0  0  0  0
  9 26  1  0  0  0  0
 10 12  1  6  0  0  0
 10 11  1  0  0  0  0
 11  6  1  0  0  0  0
 11  1  2  0  0  0  0
 12  7  2  0  0  0  0
 13 14  2  0  0  0  0
 14 16  1  0  0  0  0
 15 17  1  0  0  0  0
 17  1  1  0  0  0  0
 17 16  2  0  0  0  0
 18 22  1  0  0  0  0
 19 24  1  0  0  0  0
 20 28  1  0  0  0  0
 21 20  2  0  0  0  0
 22 21  1  0  0  0  0
 23 25  2  0  0  0  0
 24 22  2  0  0  0  0
 24 23  1  0  0  0  0
 25 20  1  0  0  0  0
 26 27  1  0  0  0  0
 26 19  2  0  0  0  0
 27 18  2  0  0  0  0
 28 29  2  0  0  0  0
 28 30  1  0  0  0  0
 31 13  1  0  0  0  0
 32 33  1  0  0  0  0
 32 31  1  0  0  0  0
 34 32  1  0  0  0  0
M  END
>  <MODEL>
8

>  <REMARK>
 VINA RESULT:      -8.5      3.966      7.992
  Name = 
  4 active torsions:
  status: ('A' for Active; 'I' for Inactive)
    1  A    between atoms: N_3  and  N_25
    2  A    between atoms: C_7  and  C_11
    3  A    between atoms: N_18  and  C_30
    4  A    between atoms: C_23  and  N_25
                            x       y       z     vdW  Elec       q    Type
                         _______ _______ _______ _____ _____    ______ ____

>  <TORSDO>
F 4

$$$$
=
 OpenBabel10262423293D

 34 39  0  0  1  0  0  0  0  0999 V2000
  187.9470  177.9560  141.7610 C   0  0  0  0  0  0  0  0  0  0  0  0
  188.5190  177.9220  137.9950 C   0  0  0  0  0  3  0  0  0  0  0  0
  186.6260  178.6650  139.2970 O   0  0  0  0  0  0  0  0  0  0  0  0
  186.3030  177.6940  144.1410 C   0  0  0  0  0  2  0  0  0  0  0  0
  188.1510  176.8560  142.7000 N   0  0  0  0  0  2  0  0  0  0  0  0
  185.7170  178.2460  142.8710 C   0  0  0  0  0  0  0  0  0  0  0  0
  183.8110  179.1190  141.6540 C   0  0  0  0  0  3  0  0  0  0  0  0
  184.3830  178.6630  142.8460 C   0  0  0  0  0  3  0  0  0  0  0  0
  187.7080  177.3000  143.9630 N   0  0  0  0  0  0  0  0  0  0  0  0
  185.8960  178.7130  140.4880 C   0  0  0  0  0  0  0  0  0  0  0  0
  186.4830  178.2950  141.6940 C   0  0  0  0  0  0  0  0  0  0  0  0
  184.5650  179.1370  140.4750 C   0  0  0  0  0  3  0  0  0  0  0  0
  189.7880  177.3420  137.9050 C   0  0  0  0  0  0  0  0  0  0  0  0
  190.4440  176.9370  139.0770 C   0  0  0  0  0  3  0  0  0  0  0  0
  187.9000  178.0890  139.2370 C   0  0  1  0  0  3  0  0  0  0  0  0
  189.8350  177.1080  140.3230 C   0  0  0  0  0  3  0  0  0  0  0  0
  188.5540  177.6660  140.4110 C   0  0  0  0  0  0  0  0  0  0  0  0
  189.1220  177.8590  147.3890 C   0  0  0  0  0  3  0  0  0  0  0  0
  189.8140  176.5450  145.0130 C   0  0  0  0  0  3  0  0  0  0  0  0
  192.3960  176.4040  148.3270 C   0  0  0  0  0  0  0  0  0  0  0  0
  191.1880  177.1090  148.4080 C   0  0  0  0  0  3  0  0  0  0  0  0
  190.3260  177.1580  147.3090 C   0  0  0  0  0  0  0  0  0  0  0  0
  191.8790  175.7940  146.0290 C   0  0  0  0  0  3  0  0  0  0  0  0
  190.6750  176.4950  146.1110 C   0  0  0  0  0  0  0  0  0  0  0  0
  192.7360  175.7490  147.1340 C   0  0  0  0  0  3  0  0  0  0  0  0
  188.6010  177.2510  145.0890 C   0  0  0  0  0  0  0  0  0  0  0  0
  188.2650  177.9040  146.2860 C   0  0  0  0  0  3  0  0  0  0  0  0
  193.3000  176.3550  149.4880 C   0  0  0  0  0  0  0  0  0  0  0  0
  193.3660  175.2110  150.2750 O   0  0  0  0  0  1  0  0  0  0  0  0
  194.0200  177.3470  149.7800 O   0  0  0  0  0  0  0  0  0  0  0  0
  190.3880  177.1830  136.6060 N   0  0  0  0  0  2  0  0  0  0  0  0
  190.4590  175.9880  135.8600 N   0  0  0  0  0  0  0  0  0  0  0  0
  191.8550  175.6820  135.5810 C   0  0  0  0  0  1  0  0  0  0  0  0
  189.7610  176.1710  134.5960 C   0  0  0  0  0  1  0  0  0  0  0  0
  1  5  1  0  0  0  0
  3 10  1  0  0  0  0
  5  9  1  0  0  0  0
  6  4  1  0  0  0  0
  7  8  2  0  0  0  0
  8  6  1  0  0  0  0
  9  4  1  0  0  0  0
  9 26  1  0  0  0  0
 10 11  1  0  0  0  0
 11  1  1  0  0  0  0
 11  6  2  0  0  0  0
 12 10  2  0  0  0  0
 12  7  1  0  0  0  0
 13  2  2  0  0  0  0
 13 14  1  0  0  0  0
 14 16  2  0  0  0  0
 15  2  1  6  0  0  0
 15  3  1  0  0  0  0
 15 17  1  0  0  0  0
 16 17  1  0  0  0  0
 17  1  2  0  0  0  0
 19 26  2  0  0  0  0
 19 24  1  0  0  0  0
 20 21  1  0  0  0  0
 20 28  1  0  0  0  0
 22 18  1  0  0  0  0
 22 21  2  0  0  0  0
 23 24  2  0  0  0  0
 23 25  1  0  0  0  0
 24 22  1  0  0  0  0
 25 20  2  0  0  0  0
 26 27  1  0  0  0  0
 27 18  2  0  0  0  0
 28 30  2  0  0  0  0
 28 29  1  0  0  0  0
 31 13  1  0  0  0  0
 32 31  1  0  0  0  0
 33 32  1  0  0  0  0
 34 32  1  0  0  0  0
M  END
>  <MODEL>
9

>  <REMARK>
 VINA RESULT:      -8.4      3.796      8.318
  Name = 
  4 active torsions:
  status: ('A' for Active; 'I' for Inactive)
    1  A    between atoms: N_3  and  N_25
    2  A    between atoms: C_7  and  C_11
    3  A    between atoms: N_18  and  C_30
    4  A    between atoms: C_23  and  N_25
                            x       y       z     vdW  Elec       q    Type
                         _______ _______ _______ _____ _____    ______ ____

>  <TORSDO>
F 4

$$$$
