=
 OpenBabel10262421563D

 30 33  0  0  1  0  0  0  0  0999 V2000
  189.0690  174.8590  137.6200 O   0  0  0  0  0  0  0  0  0  0  0  0
  188.2610  173.0050  136.2900 C   0  0  0  0  0  0  0  0  0  0  0  0
  192.1930  175.3960  135.5440 C   0  0  0  0  0  2  0  0  0  0  0  0
  190.0230  175.8770  137.9200 C   0  0  2  0  0  0  0  0  0  0  0  0
  189.7040  177.9750  139.0050 C   0  0  0  0  0  2  0  0  0  0  0  0
  189.6140  176.5070  139.2530 C   0  0  2  0  0  3  0  0  0  0  0  0
  193.4630  176.1120  135.9720 C   0  0  0  0  0  2  0  0  0  0  0  0
  189.9580  176.8700  136.9170 O   0  0  0  0  0  0  0  0  0  0  0  0
  188.5020  171.9590  135.3950 C   0  0  0  0  0  3  0  0  0  0  0  0
  186.9720  173.2240  136.7610 O   0  0  0  0  0  1  0  0  0  0  0  0
  191.7650  174.4600  136.6660 C   0  0  1  0  0  3  0  0  0  0  0  0
  189.7940  171.7280  134.9190 C   0  0  0  0  0  3  0  0  0  0  0  0
  189.3150  173.8280  136.7080 C   0  0  0  0  0  0  0  0  0  0  0  0
  191.4520  175.2710  137.9440 C   0  0  1  0  0  3  0  0  0  0  0  0
  193.3170  176.7210  137.3420 C   0  0  0  0  0  3  0  0  0  0  0  0
  192.4490  176.3030  138.2040 N   0  0  0  0  0  0  0  0  0  0  0  0
  189.5170  178.0690  137.5120 C   0  0  1  0  0  3  0  0  0  0  0  0
  190.8500  172.5420  135.3370 C   0  0  0  0  0  3  0  0  0  0  0  0
  190.6180  173.5930  136.2310 C   0  0  0  0  0  0  0  0  0  0  0  0
  190.4330  176.1280  140.3240 O   0  0  0  0  0  0  0  0  0  0  0  0
  190.2830  177.1500  141.2670 C   0  0  0  0  0  2  0  0  0  0  0  0
  190.3640  175.2700  142.7500 O   0  0  0  0  0  1  0  0  0  0  0  0
  189.9000  176.5800  142.6260 C   0  0  2  0  0  3  0  0  0  0  0  0
  188.3970  176.6170  142.8200 C   0  0  0  0  0  1  0  0  0  0  0  0
  188.0450  178.3100  137.1870 C   0  0  0  0  0  2  0  0  0  0  0  0
  187.3060  178.6450  138.3930 N   0  0  0  0  0  2  0  0  0  0  0  0
  185.9460  178.4980  138.0880 N   0  0  0  0  0  2  0  0  0  0  0  0
  185.2450  179.4400  140.1030 O   0  0  0  0  0  0  0  0  0  0  0  0
  184.9340  178.9260  138.9960 C   0  0  0  0  0  0  0  0  0  0  0  0
  183.5030  178.7740  138.6280 C   0  0  0  0  0  1  0  0  0  0  0  0
  1  4  1  0  0  0  0
  2 13  1  0  0  0  0
  2 10  1  0  0  0  0
  3  7  1  0  0  0  0
  4  8  1  6  0  0  0
  4 14  1  0  0  0  0
  4  6  1  0  0  0  0
  5  6  1  0  0  0  0
  6 20  1  1  0  0  0
  7 15  1  0  0  0  0
  8 17  1  0  0  0  0
  9  2  2  0  0  0  0
 11  3  1  6  0  0  0
 11 14  1  0  0  0  0
 12 18  2  0  0  0  0
 12  9  1  0  0  0  0
 13  1  1  0  0  0  0
 14 16  1  6  0  0  0
 15 16  2  0  0  0  0
 17 25  1  1  0  0  0
 17  5  1  0  0  0  0
 18 19  1  0  0  0  0
 19 11  1  0  0  0  0
 19 13  2  0  0  0  0
 20 21  1  0  0  0  0
 21 23  1  0  0  0  0
 23 22  1  0  0  0  0
 23 24  1  6  0  0  0
 25 26  1  0  0  0  0
 27 26  1  0  0  0  0
 27 29  1  0  0  0  0
 29 28  2  0  0  0  0
 30 29  1  0  0  0  0
M  END
>  <MODEL>
1

>  <REMARK>
 VINA RESULT:      -6.4      0.000      0.000
  Name = 
  6 active torsions:
  status: ('A' for Active; 'I' for Inactive)
    1  A    between atoms: N_7  and  N_16
    2  A    between atoms: C_8  and  O_12
    3  A    between atoms: C_9  and  O_12
    4  A    between atoms: C_9  and  C_17
    5  A    between atoms: N_16  and  C_30
    6  A    between atoms: C_27  and  C_30
                            x       y       z     vdW  Elec       q    Type
                         _______ _______ _______ _____ _____    ______ ____

>  <TORSDO>
F 6

$$$$
=
 OpenBabel10262421563D

 30 33  0  0  1  0  0  0  0  0999 V2000
  190.5790  176.0000  139.6380 O   0  0  0  0  0  0  0  0  0  0  0  0
  190.3240  177.0530  141.8030 C   0  0  0  0  0  0  0  0  0  0  0  0
  188.6920  178.6930  137.7550 C   0  0  0  0  0  2  0  0  0  0  0  0
  190.3720  175.9470  138.2270 C   0  0  2  0  0  0  0  0  0  0  0  0
  191.7040  174.9140  136.5430 C   0  0  0  0  0  2  0  0  0  0  0  0
  190.8810  174.5870  137.7430 C   0  0  2  0  0  3  0  0  0  0  0  0
  188.0380  178.5650  136.3890 C   0  0  0  0  0  2  0  0  0  0  0  0
  191.1470  176.9590  137.6170 O   0  0  0  0  0  0  0  0  0  0  0  0
  189.6440  177.9310  142.6510 C   0  0  0  0  0  3  0  0  0  0  0  0
  191.4140  176.3390  142.2830 O   0  0  0  0  0  1  0  0  0  0  0  0
  188.3280  177.4660  138.5820 C   0  0  1  0  0  3  0  0  0  0  0  0
  188.5440  178.6510  142.1800 C   0  0  0  0  0  3  0  0  0  0  0  0
  189.9060  176.8960  140.4750 C   0  0  0  0  0  0  0  0  0  0  0  0
  188.8730  176.1890  137.9030 C   0  0  1  0  0  3  0  0  0  0  0  0
  188.3200  177.2230  135.7670 C   0  0  0  0  0  3  0  0  0  0  0  0
  188.6460  176.1840  136.4630 N   0  0  0  0  0  0  0  0  0  0  0  0
  192.1180  176.3400  136.8040 C   0  0  1  0  0  3  0  0  0  0  0  0
  188.1210  178.4940  140.8580 C   0  0  0  0  0  3  0  0  0  0  0  0
  188.7960  177.6190  140.0000 C   0  0  0  0  0  0  0  0  0  0  0  0
  189.8550  173.6910  137.4190 O   0  0  0  0  0  0  0  0  0  0  0  0
  190.2350  173.1440  136.1890 C   0  0  0  0  0  2  0  0  0  0  0  0
  188.4600  173.3600  134.5950 O   0  0  0  0  0  1  0  0  0  0  0  0
  189.0500  172.4790  135.5030 C   0  0  2  0  0  3  0  0  0  0  0  0
  188.0240  172.0240  136.5220 C   0  0  0  0  0  1  0  0  0  0  0  0
  193.4790  176.3680  137.4940 C   0  0  0  0  0  2  0  0  0  0  0  0
  194.5380  176.5910  136.5230 N   0  0  0  0  0  2  0  0  0  0  0  0
  195.2240  175.3770  136.3860 N   0  0  0  0  0  2  0  0  0  0  0  0
  197.3040  176.4120  136.1790 O   0  0  0  0  0  0  0  0  0  0  0  0
  196.6390  175.3430  136.2190 C   0  0  0  0  0  0  0  0  0  0  0  0
  197.3350  174.0350  136.1000 C   0  0  0  0  0  1  0  0  0  0  0  0
  1 13  1  0  0  0  0
  2 10  1  0  0  0  0
  2  9  1  0  0  0  0
  4  8  1  6  0  0  0
  4  1  1  0  0  0  0
  5 17  1  0  0  0  0
  5  6  1  0  0  0  0
  6 20  1  6  0  0  0
  6  4  1  0  0  0  0
  7  3  1  0  0  0  0
 11  3  1  6  0  0  0
 11 19  1  0  0  0  0
 12  9  2  0  0  0  0
 13  2  2  0  0  0  0
 14 16  1  6  0  0  0
 14  4  1  0  0  0  0
 14 11  1  0  0  0  0
 15  7  1  0  0  0  0
 15 16  2  0  0  0  0
 17 25  1  1  0  0  0
 17  8  1  0  0  0  0
 18 12  1  0  0  0  0
 19 13  1  0  0  0  0
 19 18  2  0  0  0  0
 21 20  1  0  0  0  0
 22 23  1  0  0  0  0
 23 21  1  0  0  0  0
 23 24  1  1  0  0  0
 26 25  1  0  0  0  0
 27 26  1  0  0  0  0
 28 29  2  0  0  0  0
 29 27  1  0  0  0  0
 30 29  1  0  0  0  0
M  END
>  <MODEL>
2

>  <REMARK>
 VINA RESULT:      -6.3      2.302      7.351
  Name = 
  6 active torsions:
  status: ('A' for Active; 'I' for Inactive)
    1  A    between atoms: N_7  and  N_16
    2  A    between atoms: C_8  and  O_12
    3  A    between atoms: C_9  and  O_12
    4  A    between atoms: C_9  and  C_17
    5  A    between atoms: N_16  and  C_30
    6  A    between atoms: C_27  and  C_30
                            x       y       z     vdW  Elec       q    Type
                         _______ _______ _______ _____ _____    ______ ____

>  <TORSDO>
F 6

$$$$
=
 OpenBabel10262421563D

 30 33  0  0  1  0  0  0  0  0999 V2000
  182.8690  178.9690  139.6970 O   0  0  0  0  0  0  0  0  0  0  0  0
  185.1050  178.9470  140.6250 C   0  0  0  0  0  0  0  0  0  0  0  0
  181.1650  179.7050  143.0010 C   0  0  0  0  0  2  0  0  0  0  0  0
  181.4530  179.1070  139.8160 C   0  0  2  0  0  0  0  0  0  0  0  0
  179.8650  179.8290  138.1930 C   0  0  0  0  0  2  0  0  0  0  0  0
  180.8450  178.7370  138.4610 C   0  0  2  0  0  3  0  0  0  0  0  0
  179.7090  179.4550  143.3540 C   0  0  0  0  0  2  0  0  0  0  0  0
  181.1510  180.4600  140.0880 O   0  0  0  0  0  0  0  0  0  0  0  0
  185.9610  178.8030  141.7200 C   0  0  0  0  0  3  0  0  0  0  0  0
  185.6350  179.1930  139.3650 O   0  0  0  0  0  1  0  0  0  0  0  0
  181.7100  178.4710  142.2940 C   0  0  1  0  0  3  0  0  0  0  0  0
  185.4400  178.5510  142.9900 C   0  0  0  0  0  3  0  0  0  0  0  0
  183.7180  178.8440  140.8010 C   0  0  0  0  0  0  0  0  0  0  0  0
  180.9320  178.2250  140.9810 C   0  0  1  0  0  3  0  0  0  0  0  0
  178.9310  178.9590  142.1630 C   0  0  0  0  0  3  0  0  0  0  0  0
  179.4930  178.3850  141.1510 N   0  0  0  0  0  0  0  0  0  0  0  0
  180.4180  180.9760  139.0000 C   0  0  1  0  0  3  0  0  0  0  0  0
  184.0580  178.4430  143.1700 C   0  0  0  0  0  3  0  0  0  0  0  0
  183.1920  178.5870  142.0800 C   0  0  0  0  0  0  0  0  0  0  0  0
  180.2150  177.4870  138.4560 O   0  0  0  0  0  0  0  0  0  0  0  0
  180.9880  176.7010  137.5950 C   0  0  0  0  0  2  0  0  0  0  0  0
  180.4280  174.9610  139.1440 O   0  0  0  0  0  1  0  0  0  0  0  0
  181.4280  175.4160  138.2830 C   0  0  2  0  0  3  0  0  0  0  0  0
  182.7150  175.6310  139.0540 C   0  0  0  0  0  1  0  0  0  0  0  0
  181.3180  181.8430  138.1220 C   0  0  0  0  0  2  0  0  0  0  0  0
  180.5860  182.3210  136.9600 N   0  0  0  0  0  2  0  0  0  0  0  0
  179.8420  183.4320  137.3790 N   0  0  0  0  0  2  0  0  0  0  0  0
  181.4080  184.9630  136.5770 O   0  0  0  0  0  0  0  0  0  0  0  0
  180.3060  184.7600  137.1530 C   0  0  0  0  0  0  0  0  0  0  0  0
  179.4790  185.9140  137.5920 C   0  0  0  0  0  1  0  0  0  0  0  0
  1 13  1  0  0  0  0
  2 13  2  0  0  0  0
  2  9  1  0  0  0  0
  3  7  1  0  0  0  0
  4  1  1  6  0  0  0
  4  8  1  0  0  0  0
  4 14  1  0  0  0  0
  5  6  1  0  0  0  0
  5 17  1  0  0  0  0
  6 20  1  1  0  0  0
  6  4  1  0  0  0  0
  9 12  2  0  0  0  0
 10  2  1  0  0  0  0
 11  3  1  6  0  0  0
 12 18  1  0  0  0  0
 13 19  1  0  0  0  0
 14 16  1  1  0  0  0
 14 11  1  0  0  0  0
 15  7  1  0  0  0  0
 16 15  2  0  0  0  0
 17 25  1  6  0  0  0
 17  8  1  0  0  0  0
 19 11  1  0  0  0  0
 19 18  2  0  0  0  0
 21 23  1  0  0  0  0
 21 20  1  0  0  0  0
 23 24  1  1  0  0  0
 23 22  1  0  0  0  0
 26 27  1  0  0  0  0
 26 25  1  0  0  0  0
 28 29  2  0  0  0  0
 29 27  1  0  0  0  0
 29 30  1  0  0  0  0
M  END
>  <MODEL>
3

>  <REMARK>
 VINA RESULT:      -6.2      7.016     10.260
  Name = 
  6 active torsions:
  status: ('A' for Active; 'I' for Inactive)
    1  A    between atoms: N_7  and  N_16
    2  A    between atoms: C_8  and  O_12
    3  A    between atoms: C_9  and  O_12
    4  A    between atoms: C_9  and  C_17
    5  A    between atoms: N_16  and  C_30
    6  A    between atoms: C_27  and  C_30
                            x       y       z     vdW  Elec       q    Type
                         _______ _______ _______ _____ _____    ______ ____

>  <TORSDO>
F 6

$$$$
=
 OpenBabel10262421563D

 30 33  0  0  1  0  0  0  0  0999 V2000
  181.2120  181.9450  138.2420 O   0  0  0  0  0  0  0  0  0  0  0  0
  181.3790  183.9650  136.9180 C   0  0  0  0  0  0  0  0  0  0  0  0
  179.9600  179.7980  135.3810 C   0  0  0  0  0  2  0  0  0  0  0  0
  180.9050  180.5600  138.4000 C   0  0  2  0  0  0  0  0  0  0  0  0
  181.8120  178.9780  139.9330 C   0  0  0  0  0  2  0  0  0  0  0  0
  181.0140  180.2370  139.8920 C   0  0  2  0  0  3  0  0  0  0  0  0
  179.2060  178.4830  135.4880 C   0  0  0  0  0  2  0  0  0  0  0  0
  181.8720  179.7990  137.7050 O   0  0  0  0  0  0  0  0  0  0  0  0
  181.0060  184.7160  135.8000 C   0  0  0  0  0  3  0  0  0  0  0  0
  182.2790  184.4950  137.8330 O   0  0  0  0  0  1  0  0  0  0  0  0
  179.3480  180.7860  136.3660 C   0  0  1  0  0  3  0  0  0  0  0  0
  180.0990  184.1940  134.8750 C   0  0  0  0  0  3  0  0  0  0  0  0
  180.8480  182.6820  137.1100 C   0  0  0  0  0  0  0  0  0  0  0  0
  179.5010  180.2590  137.8110 C   0  0  1  0  0  3  0  0  0  0  0  0
  179.0920  178.0280  136.9190 C   0  0  0  0  0  3  0  0  0  0  0  0
  179.1850  178.8400  137.9200 N   0  0  0  0  0  0  0  0  0  0  0  0
  182.5950  179.0400  138.6460 C   0  0  1  0  0  3  0  0  0  0  0  0
  179.5630  182.9180  135.0660 C   0  0  0  0  0  3  0  0  0  0  0  0
  179.9320  182.1570  136.1800 C   0  0  0  0  0  0  0  0  0  0  0  0
  179.7740  180.0650  140.5170 O   0  0  0  0  0  0  0  0  0  0  0  0
  179.9760  179.0250  141.4310 C   0  0  0  0  0  2  0  0  0  0  0  0
  179.9650  180.7910  143.0490 O   0  0  0  0  0  1  0  0  0  0  0  0
  179.5970  179.4620  142.8400 C   0  0  2  0  0  3  0  0  0  0  0  0
  180.2610  178.5740  143.8740 C   0  0  0  0  0  1  0  0  0  0  0  0
  183.9610  179.6750  138.8990 C   0  0  0  0  0  2  0  0  0  0  0  0
  184.4320  179.3520  140.2360 N   0  0  0  0  0  2  0  0  0  0  0  0
  185.7800  178.9890  140.1130 N   0  0  0  0  0  2  0  0  0  0  0  0
  186.0850  178.7910  142.4160 O   0  0  0  0  0  0  0  0  0  0  0  0
  186.5770  178.7070  141.2600 C   0  0  0  0  0  0  0  0  0  0  0  0
  187.9970  178.3030  141.0890 C   0  0  0  0  0  1  0  0  0  0  0  0
  1  4  1  0  0  0  0
  2 13  1  0  0  0  0
  2 10  1  0  0  0  0
  3  7  1  0  0  0  0
  4  8  1  6  0  0  0
  4  6  1  0  0  0  0
  6  5  1  0  0  0  0
  6 20  1  6  0  0  0
  7 15  1  0  0  0  0
  8 17  1  0  0  0  0
  9  2  2  0  0  0  0
 11  3  1  6  0  0  0
 11 14  1  0  0  0  0
 12 18  2  0  0  0  0
 12  9  1  0  0  0  0
 13  1  1  0  0  0  0
 14 16  1  6  0  0  0
 14  4  1  0  0  0  0
 15 16  2  0  0  0  0
 17 25  1  1  0  0  0
 17  5  1  0  0  0  0
 18 19  1  0  0  0  0
 19 11  1  0  0  0  0
 19 13  2  0  0  0  0
 20 21  1  0  0  0  0
 21 23  1  0  0  0  0
 23 22  1  0  0  0  0
 23 24  1  1  0  0  0
 25 26  1  0  0  0  0
 27 26  1  0  0  0  0
 27 29  1  0  0  0  0
 29 28  2  0  0  0  0
 30 29  1  0  0  0  0
M  END
>  <MODEL>
4

>  <REMARK>
 VINA RESULT:      -6.1      5.781     10.990
  Name = 
  6 active torsions:
  status: ('A' for Active; 'I' for Inactive)
    1  A    between atoms: N_7  and  N_16
    2  A    between atoms: C_8  and  O_12
    3  A    between atoms: C_9  and  O_12
    4  A    between atoms: C_9  and  C_17
    5  A    between atoms: N_16  and  C_30
    6  A    between atoms: C_27  and  C_30
                            x       y       z     vdW  Elec       q    Type
                         _______ _______ _______ _____ _____    ______ ____

>  <TORSDO>
F 6

$$$$
=
 OpenBabel10262421563D

 30 33  0  0  1  0  0  0  0  0999 V2000
  184.7510  178.4630  138.1270 O   0  0  0  0  0  0  0  0  0  0  0  0
  186.8420  177.7370  137.1470 C   0  0  0  0  0  0  0  0  0  0  0  0
  183.0810  175.0730  137.8510 C   0  0  0  0  0  2  0  0  0  0  0  0
  183.4120  178.2300  138.5650 C   0  0  2  0  0  0  0  0  0  0  0  0
  182.1690  179.3290  140.2750 C   0  0  0  0  0  2  0  0  0  0  0  0
  182.8190  179.5850  138.9570 C   0  0  2  0  0  3  0  0  0  0  0  0
  181.5890  174.7850  137.8640 C   0  0  0  0  0  2  0  0  0  0  0  0
  183.4480  177.4080  139.7140 O   0  0  0  0  0  0  0  0  0  0  0  0
  187.5600  176.8430  136.3490 C   0  0  0  0  0  3  0  0  0  0  0  0
  187.4970  178.8070  137.7440 O   0  0  0  0  0  1  0  0  0  0  0  0
  183.3370  176.2530  136.9220 C   0  0  1  0  0  3  0  0  0  0  0  0
  186.9100  175.7670  135.7410 C   0  0  0  0  0  3  0  0  0  0  0  0
  185.4660  177.5520  137.3440 C   0  0  0  0  0  0  0  0  0  0  0  0
  182.6090  177.5100  137.4490 C   0  0  1  0  0  3  0  0  0  0  0  0
  180.7890  176.0360  138.1220 C   0  0  0  0  0  3  0  0  0  0  0  0
  181.2500  177.2210  137.8910 N   0  0  0  0  0  0  0  0  0  0  0  0
  182.9430  178.1480  140.8020 C   0  0  1  0  0  3  0  0  0  0  0  0
  185.5390  175.5820  135.9300 C   0  0  0  0  0  3  0  0  0  0  0  0
  184.8100  176.4710  136.7290 C   0  0  0  0  0  0  0  0  0  0  0  0
  181.8920  180.0770  138.0290 O   0  0  0  0  0  0  0  0  0  0  0  0
  181.7050  181.4160  138.3870 C   0  0  0  0  0  2  0  0  0  0  0  0
  180.8050  181.4650  136.1680 O   0  0  0  0  0  1  0  0  0  0  0  0
  180.7780  182.1150  137.4020 C   0  0  2  0  0  3  0  0  0  0  0  0
  181.1750  183.5680  137.2290 C   0  0  0  0  0  1  0  0  0  0  0  0
  184.0890  178.6310  141.6880 C   0  0  0  0  0  2  0  0  0  0  0  0
  183.6850  178.6340  143.0850 N   0  0  0  0  0  2  0  0  0  0  0  0
  184.8470  178.4420  143.8420 N   0  0  0  0  0  2  0  0  0  0  0  0
  183.8030  179.0030  145.8510 O   0  0  0  0  0  0  0  0  0  0  0  0
  184.8500  178.6380  145.2540 C   0  0  0  0  0  0  0  0  0  0  0  0
  186.0970  178.4020  146.0280 C   0  0  0  0  0  1  0  0  0  0  0  0
  2 13  1  0  0  0  0
  2 10  1  0  0  0  0
  3  7  1  0  0  0  0
  4  1  1  6  0  0  0
  4  6  1  0  0  0  0
  4  8  1  0  0  0  0
  5 17  1  0  0  0  0
  6 20  1  6  0  0  0
  6  5  1  0  0  0  0
  7 15  1  0  0  0  0
  8 17  1  0  0  0  0
  9  2  2  0  0  0  0
 11 14  1  0  0  0  0
 11  3  1  1  0  0  0
 12 18  2  0  0  0  0
 12  9  1  0  0  0  0
 13  1  1  0  0  0  0
 14 16  1  1  0  0  0
 14  4  1  0  0  0  0
 16 15  2  0  0  0  0
 17 25  1  1  0  0  0
 18 19  1  0  0  0  0
 19 11  1  0  0  0  0
 19 13  2  0  0  0  0
 20 21  1  0  0  0  0
 22 23  1  0  0  0  0
 23 24  1  6  0  0  0
 23 21  1  0  0  0  0
 25 26  1  0  0  0  0
 26 27  1  0  0  0  0
 27 29  1  0  0  0  0
 29 28  2  0  0  0  0
 29 30  1  0  0  0  0
M  END
>  <MODEL>
5

>  <REMARK>
 VINA RESULT:      -5.9      4.673      8.323
  Name = 
  6 active torsions:
  status: ('A' for Active; 'I' for Inactive)
    1  A    between atoms: N_7  and  N_16
    2  A    between atoms: C_8  and  O_12
    3  A    between atoms: C_9  and  O_12
    4  A    between atoms: C_9  and  C_17
    5  A    between atoms: N_16  and  C_30
    6  A    between atoms: C_27  and  C_30
                            x       y       z     vdW  Elec       q    Type
                         _______ _______ _______ _____ _____    ______ ____

>  <TORSDO>
F 6

$$$$
=
 OpenBabel10262421563D

 30 33  0  0  1  0  0  0  0  0999 V2000
  182.3150  179.2760  139.8700 O   0  0  0  0  0  0  0  0  0  0  0  0
  184.4400  178.9290  138.7640 C   0  0  0  0  0  0  0  0  0  0  0  0
  181.3460  175.6130  139.8440 C   0  0  0  0  0  2  0  0  0  0  0  0
  181.0820  178.8050  140.4160 C   0  0  2  0  0  0  0  0  0  0  0  0
  179.7590  179.7220  142.1720 C   0  0  0  0  0  2  0  0  0  0  0  0
  180.2560  180.0340  140.8000 C   0  0  2  0  0  3  0  0  0  0  0  0
  179.9460  175.0370  139.9790 C   0  0  0  0  0  2  0  0  0  0  0  0
  181.3580  178.0650  141.5870 O   0  0  0  0  0  0  0  0  0  0  0  0
  185.2690  178.1560  137.9480 C   0  0  0  0  0  3  0  0  0  0  0  0
  184.9050  180.1360  139.2700 O   0  0  0  0  0  1  0  0  0  0  0  0
  181.2980  176.7710  138.8560 C   0  0  1  0  0  3  0  0  0  0  0  0
  184.8100  176.9430  137.4300 C   0  0  0  0  0  3  0  0  0  0  0  0
  183.1460  178.4860  139.0690 C   0  0  0  0  0  0  0  0  0  0  0  0
  180.3680  177.8850  139.3890 C   0  0  1  0  0  3  0  0  0  0  0  0
  178.9310  176.1160  140.2510 C   0  0  0  0  0  3  0  0  0  0  0  0
  179.1280  177.3550  139.9430 N   0  0  0  0  0  0  0  0  0  0  0  0
  180.7880  178.7460  142.6820 C   0  0  1  0  0  3  0  0  0  0  0  0
  183.5190  176.5000  137.7270 C   0  0  0  0  0  3  0  0  0  0  0  0
  182.6810  177.2660  138.5450 C   0  0  0  0  0  0  0  0  0  0  0  0
  179.1910  180.2850  139.9270 O   0  0  0  0  0  0  0  0  0  0  0  0
  179.3320  181.6300  139.5690 C   0  0  0  0  0  2  0  0  0  0  0  0
  179.3670  180.6070  137.4030 O   0  0  0  0  0  1  0  0  0  0  0  0
  179.7190  181.7620  138.1020 C   0  0  2  0  0  3  0  0  0  0  0  0
  181.2060  182.0200  137.9590 C   0  0  0  0  0  1  0  0  0  0  0  0
  181.8700  179.4900  143.4620 C   0  0  0  0  0  2  0  0  0  0  0  0
  183.0740  178.6810  143.5610 N   0  0  0  0  0  2  0  0  0  0  0  0
  183.6850  179.0110  144.7770 N   0  0  0  0  0  2  0  0  0  0  0  0
  185.6560  177.8780  144.2600 O   0  0  0  0  0  0  0  0  0  0  0  0
  185.0090  178.5800  145.0810 C   0  0  0  0  0  0  0  0  0  0  0  0
  185.6320  178.9690  146.3720 C   0  0  0  0  0  1  0  0  0  0  0  0
  2 13  1  0  0  0  0
  2 10  1  0  0  0  0
  3  7  1  0  0  0  0
  4  1  1  6  0  0  0
  4  6  1  0  0  0  0
  4  8  1  0  0  0  0
  5 17  1  0  0  0  0
  6 20  1  6  0  0  0
  6  5  1  0  0  0  0
  7 15  1  0  0  0  0
  8 17  1  0  0  0  0
  9  2  2  0  0  0  0
 11 14  1  0  0  0  0
 11  3  1  1  0  0  0
 12 18  2  0  0  0  0
 12  9  1  0  0  0  0
 13  1  1  0  0  0  0
 14 16  1  1  0  0  0
 14  4  1  0  0  0  0
 16 15  2  0  0  0  0
 17 25  1  6  0  0  0
 18 19  1  0  0  0  0
 19 11  1  0  0  0  0
 19 13  2  0  0  0  0
 21 20  1  0  0  0  0
 22 23  1  0  0  0  0
 23 24  1  1  0  0  0
 23 21  1  0  0  0  0
 25 26  1  0  0  0  0
 26 27  1  0  0  0  0
 27 29  1  0  0  0  0
 28 29  2  0  0  0  0
 29 30  1  0  0  0  0
M  END
>  <MODEL>
6

>  <REMARK>
 VINA RESULT:      -5.8      6.296     10.051
  Name = 
  6 active torsions:
  status: ('A' for Active; 'I' for Inactive)
    1  A    between atoms: N_7  and  N_16
    2  A    between atoms: C_8  and  O_12
    3  A    between atoms: C_9  and  O_12
    4  A    between atoms: C_9  and  C_17
    5  A    between atoms: N_16  and  C_30
    6  A    between atoms: C_27  and  C_30
                            x       y       z     vdW  Elec       q    Type
                         _______ _______ _______ _____ _____    ______ ____

>  <TORSDO>
F 6

$$$$
=
 OpenBabel10262421563D

 30 33  0  0  1  0  0  0  0  0999 V2000
  187.7050  175.1110  137.4850 O   0  0  0  0  0  0  0  0  0  0  0  0
  186.2280  173.2970  136.8620 C   0  0  0  0  0  0  0  0  0  0  0  0
  190.2820  174.3500  134.8130 C   0  0  0  0  0  2  0  0  0  0  0  0
  188.8970  175.8810  137.3280 C   0  0  2  0  0  0  0  0  0  0  0  0
  189.2970  178.1690  137.8570 C   0  0  0  0  0  2  0  0  0  0  0  0
  188.9600  176.8650  138.4980 C   0  0  2  0  0  3  0  0  0  0  0  0
  191.7390  174.7800  134.8000 C   0  0  0  0  0  2  0  0  0  0  0  0
  188.8040  176.6190  136.1260 O   0  0  0  0  0  0  0  0  0  0  0  0
  186.0220  172.0590  136.2480 C   0  0  0  0  0  3  0  0  0  0  0  0
  185.1660  173.9420  137.4820 O   0  0  0  0  0  1  0  0  0  0  0  0
  189.9460  173.8210  136.2010 C   0  0  1  0  0  3  0  0  0  0  0  0
  187.0830  171.3990  135.6250 C   0  0  0  0  0  3  0  0  0  0  0  0
  187.5020  173.8820  136.8500 C   0  0  0  0  0  0  0  0  0  0  0  0
  190.1280  174.9390  137.2530 C   0  0  1  0  0  3  0  0  0  0  0  0
  192.0570  175.6830  135.9630 C   0  0  0  0  0  3  0  0  0  0  0  0
  191.3530  175.7020  137.0460 N   0  0  0  0  0  0  0  0  0  0  0  0
  188.7830  177.9900  136.4520 C   0  0  1  0  0  3  0  0  0  0  0  0
  188.3550  171.9760  135.6150 C   0  0  0  0  0  3  0  0  0  0  0  0
  188.5720  173.2160  136.2260 C   0  0  0  0  0  0  0  0  0  0  0  0
  189.9130  176.5210  139.4640 O   0  0  0  0  0  0  0  0  0  0  0  0
  189.5690  177.2750  140.5900 C   0  0  0  0  0  2  0  0  0  0  0  0
  189.4760  176.9610  142.9630 O   0  0  0  0  0  1  0  0  0  0  0  0
  190.2660  176.7420  141.8340 C   0  0  2  0  0  3  0  0  0  0  0  0
  191.6200  177.4000  142.0150 C   0  0  0  0  0  1  0  0  0  0  0  0
  187.3610  178.5350  136.3450 C   0  0  0  0  0  2  0  0  0  0  0  0
  186.8610  178.9140  137.6570 N   0  0  0  0  0  2  0  0  0  0  0  0
  185.6840  178.1840  137.8680 N   0  0  0  0  0  2  0  0  0  0  0  0
  184.8490  179.7070  139.4250 O   0  0  0  0  0  0  0  0  0  0  0  0
  184.6860  178.6380  138.7780 C   0  0  0  0  0  0  0  0  0  0  0  0
  183.4400  177.8480  138.9590 C   0  0  0  0  0  1  0  0  0  0  0  0
  2 10  1  0  0  0  0
  4  8  1  6  0  0  0
  4  1  1  0  0  0  0
  4  6  1  0  0  0  0
  5  6  1  0  0  0  0
  6 20  1  1  0  0  0
  7  3  1  0  0  0  0
  7 15  1  0  0  0  0
  8 17  1  0  0  0  0
  9  2  2  0  0  0  0
 11  3  1  6  0  0  0
 11 19  1  0  0  0  0
 11 14  1  0  0  0  0
 12  9  1  0  0  0  0
 13  2  1  0  0  0  0
 13  1  1  0  0  0  0
 14 16  1  6  0  0  0
 14  4  1  0  0  0  0
 15 16  2  0  0  0  0
 17 25  1  1  0  0  0
 17  5  1  0  0  0  0
 18 12  2  0  0  0  0
 18 19  1  0  0  0  0
 19 13  2  0  0  0  0
 20 21  1  0  0  0  0
 21 23  1  0  0  0  0
 23 24  1  1  0  0  0
 23 22  1  0  0  0  0
 25 26  1  0  0  0  0
 26 27  1  0  0  0  0
 27 29  1  0  0  0  0
 29 30  1  0  0  0  0
 29 28  2  0  0  0  0
M  END
>  <MODEL>
7

>  <REMARK>
 VINA RESULT:      -5.7      1.275      1.783
  Name = 
  6 active torsions:
  status: ('A' for Active; 'I' for Inactive)
    1  A    between atoms: N_7  and  N_16
    2  A    between atoms: C_8  and  O_12
    3  A    between atoms: C_9  and  O_12
    4  A    between atoms: C_9  and  C_17
    5  A    between atoms: N_16  and  C_30
    6  A    between atoms: C_27  and  C_30
                            x       y       z     vdW  Elec       q    Type
                         _______ _______ _______ _____ _____    ______ ____

>  <TORSDO>
F 6

$$$$
=
 OpenBabel10262421563D

 30 33  0  0  1  0  0  0  0  0999 V2000
  181.5220  180.6140  138.5610 O   0  0  0  0  0  0  0  0  0  0  0  0
  181.1930  182.5540  137.1510 C   0  0  0  0  0  0  0  0  0  0  0  0
  181.1010  178.1080  135.7500 C   0  0  0  0  0  2  0  0  0  0  0  0
  181.6100  179.2050  138.7710 C   0  0  2  0  0  0  0  0  0  0  0  0
  182.8330  177.9960  140.4200 C   0  0  0  0  0  2  0  0  0  0  0  0
  181.7160  178.9750  140.2800 C   0  0  2  0  0  3  0  0  0  0  0  0
  180.7440  176.6370  135.8830 C   0  0  0  0  0  2  0  0  0  0  0  0
  182.7920  178.7280  138.1600 O   0  0  0  0  0  0  0  0  0  0  0  0
  180.6900  183.1310  135.9820 C   0  0  0  0  0  3  0  0  0  0  0  0
  181.8500  183.3480  138.0820 O   0  0  0  0  0  1  0  0  0  0  0  0
  180.1770  178.9130  136.6550 C   0  0  1  0  0  3  0  0  0  0  0  0
  180.0250  182.3430  135.0400 C   0  0  0  0  0  3  0  0  0  0  0  0
  181.0350  181.1800  137.3790 C   0  0  0  0  0  0  0  0  0  0  0  0
  180.3860  178.4980  138.1300 C   0  0  1  0  0  3  0  0  0  0  0  0
  180.6770  176.2150  137.3280 C   0  0  0  0  0  3  0  0  0  0  0  0
  180.4770  177.0520  138.2920 N   0  0  0  0  0  0  0  0  0  0  0  0
  183.6420  178.2370  139.1710 C   0  0  1  0  0  3  0  0  0  0  0  0
  179.8600  180.9740  135.2660 C   0  0  0  0  0  3  0  0  0  0  0  0
  180.3610  180.3860  136.4320 C   0  0  0  0  0  0  0  0  0  0  0  0
  180.5390  178.4780  140.8520 O   0  0  0  0  0  0  0  0  0  0  0  0
  180.7220  178.6240  142.2310 C   0  0  0  0  0  2  0  0  0  0  0  0
  180.0550  180.8420  142.8420 O   0  0  0  0  0  1  0  0  0  0  0  0
  179.6390  179.5100  142.8300 C   0  0  2  0  0  3  0  0  0  0  0  0
  179.2960  179.0640  144.2380 C   0  0  0  0  0  1  0  0  0  0  0  0
  184.7550  179.2410  139.4590 C   0  0  0  0  0  2  0  0  0  0  0  0
  186.0580  178.6270  139.2590 N   0  0  0  0  0  2  0  0  0  0  0  0
  186.0270  178.0130  138.0000 N   0  0  0  0  0  2  0  0  0  0  0  0
  187.7870  179.2990  137.1700 O   0  0  0  0  0  0  0  0  0  0  0  0
  186.9380  178.3900  136.9710 C   0  0  0  0  0  0  0  0  0  0  0  0
  186.8900  177.7010  135.6550 C   0  0  0  0  0  1  0  0  0  0  0  0
  1  4  1  0  0  0  0
  2 13  1  0  0  0  0
  2 10  1  0  0  0  0
  3  7  1  0  0  0  0
  4  8  1  6  0  0  0
  4  6  1  0  0  0  0
  6  5  1  0  0  0  0
  6 20  1  6  0  0  0
  7 15  1  0  0  0  0
  8 17  1  0  0  0  0
  9  2  2  0  0  0  0
 11  3  1  6  0  0  0
 11 14  1  0  0  0  0
 12 18  2  0  0  0  0
 12  9  1  0  0  0  0
 13  1  1  0  0  0  0
 14 16  1  6  0  0  0
 14  4  1  0  0  0  0
 15 16  2  0  0  0  0
 17 25  1  1  0  0  0
 17  5  1  0  0  0  0
 18 19  1  0  0  0  0
 19 11  1  0  0  0  0
 19 13  2  0  0  0  0
 20 21  1  0  0  0  0
 21 23  1  0  0  0  0
 23 22  1  0  0  0  0
 23 24  1  1  0  0  0
 26 25  1  0  0  0  0
 27 26  1  0  0  0  0
 29 28  2  0  0  0  0
 29 27  1  0  0  0  0
 30 29  1  0  0  0  0
M  END
>  <MODEL>
8

>  <REMARK>
 VINA RESULT:      -5.4      5.024     10.012
  Name = 
  6 active torsions:
  status: ('A' for Active; 'I' for Inactive)
    1  A    between atoms: N_7  and  N_16
    2  A    between atoms: C_8  and  O_12
    3  A    between atoms: C_9  and  O_12
    4  A    between atoms: C_9  and  C_17
    5  A    between atoms: N_16  and  C_30
    6  A    between atoms: C_27  and  C_30
                            x       y       z     vdW  Elec       q    Type
                         _______ _______ _______ _____ _____    ______ ____

>  <TORSDO>
F 6

$$$$
=
 OpenBabel10262421563D

 30 33  0  0  1  0  0  0  0  0999 V2000
  181.9230  178.2870  140.7860 O   0  0  0  0  0  0  0  0  0  0  0  0
  180.9520  179.1040  142.8470 C   0  0  0  0  0  0  0  0  0  0  0  0
  180.8790  181.2960  138.7330 C   0  0  0  0  0  2  0  0  0  0  0  0
  182.2220  178.4080  139.3950 C   0  0  2  0  0  0  0  0  0  0  0  0
  184.0340  177.4840  138.1540 C   0  0  0  0  0  2  0  0  0  0  0  0
  182.8350  177.0800  138.9450 C   0  0  2  0  0  3  0  0  0  0  0  0
  180.7420  181.3680  137.2210 C   0  0  0  0  0  2  0  0  0  0  0  0
  183.1850  179.4270  139.2250 O   0  0  0  0  0  0  0  0  0  0  0  0
  180.0400  179.9250  143.5150 C   0  0  0  0  0  3  0  0  0  0  0  0
  181.7880  178.2690  143.5770 O   0  0  0  0  0  1  0  0  0  0  0  0
  180.2200  180.0120  139.2180 C   0  0  1  0  0  3  0  0  0  0  0  0
  179.1920  180.7660  142.7920 C   0  0  0  0  0  3  0  0  0  0  0  0
  181.0220  179.1270  141.4480 C   0  0  0  0  0  0  0  0  0  0  0  0
  180.9380  178.7850  138.6100 C   0  0  1  0  0  3  0  0  0  0  0  0
  181.1910  180.0890  136.5660 C   0  0  0  0  0  3  0  0  0  0  0  0
  181.2280  178.9580  137.1910 N   0  0  0  0  0  0  0  0  0  0  0  0
  184.3640  178.8400  138.7230 C   0  0  1  0  0  3  0  0  0  0  0  0
  179.2540  180.7880  141.3960 C   0  0  0  0  0  3  0  0  0  0  0  0
  180.1660  179.9710  140.7180 C   0  0  0  0  0  0  0  0  0  0  0  0
  181.9670  176.2980  138.1740 O   0  0  0  0  0  0  0  0  0  0  0  0
  181.5700  175.2610  139.0250 C   0  0  0  0  0  2  0  0  0  0  0  0
  179.6240  175.8770  140.2790 O   0  0  0  0  0  1  0  0  0  0  0  0
  180.0520  175.2030  139.1350 C   0  0  2  0  0  3  0  0  0  0  0  0
  179.5710  173.7650  139.1720 C   0  0  0  0  0  1  0  0  0  0  0  0
  185.3980  178.6980  139.8380 C   0  0  0  0  0  2  0  0  0  0  0  0
  184.9510  179.3880  141.0370 N   0  0  0  0  0  2  0  0  0  0  0  0
  185.4020  178.6340  142.1290 N   0  0  0  0  0  2  0  0  0  0  0  0
  184.5490  180.1330  143.6990 O   0  0  0  0  0  0  0  0  0  0  0  0
  185.1640  179.0580  143.4690 C   0  0  0  0  0  0  0  0  0  0  0  0
  185.6370  178.2210  144.6010 C   0  0  0  0  0  1  0  0  0  0  0  0
  1 13  1  0  0  0  0
  2  9  1  0  0  0  0
  2 10  1  0  0  0  0
  4  8  1  6  0  0  0
  4  1  1  0  0  0  0
  5 17  1  0  0  0  0
  5  6  1  0  0  0  0
  6 20  1  6  0  0  0
  6  4  1  0  0  0  0
  7  3  1  0  0  0  0
 11  3  1  1  0  0  0
 11 19  1  0  0  0  0
 12  9  2  0  0  0  0
 13  2  2  0  0  0  0
 14 16  1  6  0  0  0
 14 11  1  0  0  0  0
 14  4  1  0  0  0  0
 15 16  2  0  0  0  0
 15  7  1  0  0  0  0
 17  8  1  0  0  0  0
 17 25  1  1  0  0  0
 18 12  1  0  0  0  0
 19 18  2  0  0  0  0
 19 13  1  0  0  0  0
 20 21  1  0  0  0  0
 21 23  1  0  0  0  0
 23 24  1  1  0  0  0
 23 22  1  0  0  0  0
 25 26  1  0  0  0  0
 26 27  1  0  0  0  0
 27 29  1  0  0  0  0
 29 28  2  0  0  0  0
 29 30  1  0  0  0  0
M  END
>  <MODEL>
9

>  <REMARK>
 VINA RESULT:      -5.4      6.488     10.147
  Name = 
  6 active torsions:
  status: ('A' for Active; 'I' for Inactive)
    1  A    between atoms: N_7  and  N_16
    2  A    between atoms: C_8  and  O_12
    3  A    between atoms: C_9  and  O_12
    4  A    between atoms: C_9  and  C_17
    5  A    between atoms: N_16  and  C_30
    6  A    between atoms: C_27  and  C_30
                            x       y       z     vdW  Elec       q    Type
                         _______ _______ _______ _____ _____    ______ ____

>  <TORSDO>
F 6

$$$$
