=
 OpenBabel10262423283D

 34 39  0  0  1  0  0  0  0  0999 V2000
  188.6930  178.0000  141.3380 C   0  0  0  0  0  0  0  0  0  0  0  0
  190.4160  176.1110  139.2240 C   0  0  0  0  0  2  0  0  0  0  0  0
  191.4320  177.5000  140.9330 O   0  0  0  0  0  0  0  0  0  0  0  0
  187.5810  177.5920  143.8930 C   0  0  0  0  0  3  0  0  0  0  0  0
  187.3330  178.2530  141.5800 C   0  0  0  0  0  3  0  0  0  0  0  0
  188.9410  177.3610  143.6840 C   0  0  0  0  0  0  0  0  0  0  0  0
  191.1230  176.7520  144.5410 C   0  0  0  0  0  3  0  0  0  0  0  0
  189.7550  176.9560  144.7460 C   0  0  0  0  0  3  0  0  0  0  0  0
  186.7620  178.0370  142.8440 C   0  0  0  0  0  0  0  0  0  0  0  0
  190.8730  177.3330  142.2020 C   0  0  0  0  0  0  0  0  0  0  0  0
  189.5010  177.5580  142.4010 C   0  0  0  0  0  0  0  0  0  0  0  0
  191.6810  176.9430  143.2740 C   0  0  0  0  0  3  0  0  0  0  0  0
  189.7800  176.0350  137.8260 C   0  0  0  0  0  2  0  0  0  0  0  0
  189.9240  177.3340  137.0290 C   0  0  2  0  0  3  0  0  0  0  0  0
  188.9120  178.4150  137.4510 C   0  0  0  0  0  2  0  0  0  0  0  0
  190.6250  177.5370  139.7560 C   0  0  2  0  0  3  0  0  0  0  0  0
  188.3010  178.2080  138.8420 C   0  0  0  0  0  2  0  0  0  0  0  0
  189.3140  178.3270  139.9930 C   0  0  1  0  0  3  0  0  0  0  0  0
  183.4660  178.7610  144.6010 C   0  0  0  0  0  3  0  0  0  0  0  0
  184.4180  178.3150  141.9880 C   0  0  0  0  0  3  0  0  0  0  0  0
  180.7280  178.9270  142.0630 C   0  0  2  0  0  3  0  0  0  0  0  0
  181.1480  179.0260  143.5380 C   0  0  0  0  0  2  0  0  0  0  0  0
  182.6040  178.7750  143.5060 C   0  0  0  0  0  0  0  0  0  0  0  0
  181.9830  178.6270  141.2270 C   0  0  1  0  0  3  0  0  0  0  0  0
  183.0650  178.5550  142.2350 C   0  0  0  0  0  0  0  0  0  0  0  0
  181.8370  177.3890  140.6020 O   0  0  0  0  0  1  0  0  0  0  0  0
  185.3200  178.2910  143.0710 C   0  0  0  0  0  0  0  0  0  0  0  0
  184.8290  178.5160  144.3770 C   0  0  0  0  0  3  0  0  0  0  0  0
  180.0950  180.2030  141.6140 C   0  0  0  0  0  0  0  0  0  0  0  0
  179.6720  181.0230  142.4690 O   0  0  0  0  0  1  0  0  0  0  0  0
  179.9700  180.4920  140.2600 O   0  0  0  0  0  0  0  0  0  0  0  0
  189.7800  177.0360  135.5480 C   0  0  0  0  0  2  0  0  0  0  0  0
  188.4060  177.4500  135.0550 C   0  0  0  0  0  2  0  0  0  0  0  0
  187.5740  176.2150  134.7830 C   0  0  0  0  0  1  0  0  0  0  0  0
  1  5  2  0  0  0  0
  1 11  1  0  0  0  0
  3 10  1  0  0  0  0
  5  9  1  0  0  0  0
  6  4  1  0  0  0  0
  6  8  1  0  0  0  0
  7  8  2  0  0  0  0
  9 27  1  0  0  0  0
  9  4  2  0  0  0  0
 10 11  1  0  0  0  0
 10 12  2  0  0  0  0
 11  6  2  0  0  0  0
 12  7  1  0  0  0  0
 13  2  1  0  0  0  0
 14 32  1  6  0  0  0
 14 15  1  0  0  0  0
 14 13  1  0  0  0  0
 15 17  1  0  0  0  0
 16  2  1  1  0  0  0
 16 18  1  0  0  0  0
 16  3  1  0  0  0  0
 18 17  1  6  0  0  0
 18  1  1  0  0  0  0
 20 25  2  0  0  0  0
 20 27  1  0  0  0  0
 21 29  1  6  0  0  0
 21 22  1  0  0  0  0
 23 22  1  0  0  0  0
 23 19  2  0  0  0  0
 24 26  1  1  0  0  0
 24 21  1  0  0  0  0
 24 25  1  0  0  0  0
 25 23  1  0  0  0  0
 27 28  2  0  0  0  0
 28 19  1  0  0  0  0
 29 30  1  0  0  0  0
 31 29  2  0  0  0  0
 33 32  1  0  0  0  0
 34 33  1  0  0  0  0
M  END
>  <MODEL>
1

>  <REMARK>
 VINA RESULT:     -10.6      0.000      0.000
  Name = 
  4 active torsions:
  status: ('A' for Active; 'I' for Inactive)
    1  A    between atoms: C_3  and  C_13
    2  A    between atoms: C_3  and  C_25
    3  A    between atoms: C_7  and  C_11
    4  A    between atoms: C_18  and  C_30
                            x       y       z     vdW  Elec       q    Type
                         _______ _______ _______ _____ _____    ______ ____

>  <TORSDO>
F 4

$$$$
=
 OpenBabel10262423283D

 34 39  0  0  1  0  0  0  0  0999 V2000
  187.9000  178.2370  142.9930 C   0  0  0  0  0  0  0  0  0  0  0  0
  190.2560  176.3110  141.6730 C   0  0  0  0  0  2  0  0  0  0  0  0
  190.6270  177.8100  143.5430 O   0  0  0  0  0  0  0  0  0  0  0  0
  186.0110  177.9110  145.0570 C   0  0  0  0  0  3  0  0  0  0  0  0
  186.5330  178.4560  142.7590 C   0  0  0  0  0  3  0  0  0  0  0  0
  187.3680  177.7150  145.3210 C   0  0  0  0  0  0  0  0  0  0  0  0
  189.1510  177.2190  146.8820 C   0  0  0  0  0  3  0  0  0  0  0  0
  187.7900  177.3870  146.6120 C   0  0  0  0  0  3  0  0  0  0  0  0
  185.5790  178.2800  143.7740 C   0  0  0  0  0  0  0  0  0  0  0  0
  189.6810  177.6830  144.5630 C   0  0  0  0  0  0  0  0  0  0  0  0
  188.3170  177.8720  144.2870 C   0  0  0  0  0  0  0  0  0  0  0  0
  190.0940  177.3700  145.8610 C   0  0  0  0  0  3  0  0  0  0  0  0
  190.1200  176.1500  140.1500 C   0  0  0  0  0  2  0  0  0  0  0  0
  190.5000  177.4150  139.3750 C   0  0  2  0  0  3  0  0  0  0  0  0
  189.3880  178.4800  139.3810 C   0  0  0  0  0  2  0  0  0  0  0  0
  190.2540  177.7660  142.1660 C   0  0  2  0  0  3  0  0  0  0  0  0
  188.3540  178.3170  140.5010 C   0  0  0  0  0  2  0  0  0  0  0  0
  188.9260  178.5220  141.9130 C   0  0  1  0  0  3  0  0  0  0  0  0
  181.8580  178.8630  144.3100 C   0  0  0  0  0  3  0  0  0  0  0  0
  183.6640  178.5510  142.1720 C   0  0  0  0  0  3  0  0  0  0  0  0
  180.1560  179.0900  140.9900 C   0  0  2  0  0  3  0  0  0  0  0  0
  180.0400  179.1310  142.5230 C   0  0  0  0  0  2  0  0  0  0  0  0
  181.4250  178.9090  142.9860 C   0  0  0  0  0  0  0  0  0  0  0  0
  181.6310  178.8500  140.6290 C   0  0  1  0  0  3  0  0  0  0  0  0
  182.3020  178.7540  141.9450 C   0  0  0  0  0  0  0  0  0  0  0  0
  181.7500  177.6390  139.9480 O   0  0  0  0  0  1  0  0  0  0  0  0
  184.1390  178.4960  143.4990 C   0  0  0  0  0  0  0  0  0  0  0  0
  183.2210  178.6540  144.5620 C   0  0  0  0  0  3  0  0  0  0  0  0
  179.6750  180.3720  140.3960 C   0  0  0  0  0  0  0  0  0  0  0  0
  179.5430  181.3870  141.1280 O   0  0  0  0  0  1  0  0  0  0  0  0
  179.3700  180.4530  139.0420 O   0  0  0  0  0  0  0  0  0  0  0  0
  190.8590  177.0440  137.9480 C   0  0  0  0  0  2  0  0  0  0  0  0
  191.8500  175.8950  137.9310 C   0  0  0  0  0  2  0  0  0  0  0  0
  193.1510  176.3600  137.3140 C   0  0  0  0  0  1  0  0  0  0  0  0
  1 11  1  0  0  0  0
  3 10  1  0  0  0  0
  4  6  1  0  0  0  0
  5  1  2  0  0  0  0
  5  9  1  0  0  0  0
  6  8  1  0  0  0  0
  8  7  2  0  0  0  0
  9  4  2  0  0  0  0
 10 12  2  0  0  0  0
 11 10  1  0  0  0  0
 11  6  2  0  0  0  0
 12  7  1  0  0  0  0
 13  2  1  0  0  0  0
 14 32  1  6  0  0  0
 14 15  1  0  0  0  0
 14 13  1  0  0  0  0
 15 17  1  0  0  0  0
 16  2  1  1  0  0  0
 16  3  1  0  0  0  0
 18 17  1  6  0  0  0
 18 16  1  0  0  0  0
 18  1  1  0  0  0  0
 19 28  1  0  0  0  0
 20 27  1  0  0  0  0
 21 29  1  6  0  0  0
 21 22  1  0  0  0  0
 22 23  1  0  0  0  0
 23 19  2  0  0  0  0
 24 26  1  1  0  0  0
 24 21  1  0  0  0  0
 24 25  1  0  0  0  0
 25 20  2  0  0  0  0
 25 23  1  0  0  0  0
 27  9  1  0  0  0  0
 27 28  2  0  0  0  0
 29 30  1  0  0  0  0
 31 29  2  0  0  0  0
 33 32  1  0  0  0  0
 34 33  1  0  0  0  0
M  END
>  <MODEL>
2

>  <REMARK>
 VINA RESULT:     -10.1      1.593      2.330
  Name = 
  4 active torsions:
  status: ('A' for Active; 'I' for Inactive)
    1  A    between atoms: C_3  and  C_13
    2  A    between atoms: C_3  and  C_25
    3  A    between atoms: C_7  and  C_11
    4  A    between atoms: C_18  and  C_30
                            x       y       z     vdW  Elec       q    Type
                         _______ _______ _______ _____ _____    ______ ____

>  <TORSDO>
F 4

$$$$
=
 OpenBabel10262423283D

 34 39  0  0  1  0  0  0  0  0999 V2000
  187.5770  177.4550  144.2670 C   0  0  0  0  0  0  0  0  0  0  0  0
  185.3260  179.5910  145.4380 C   0  0  0  0  0  2  0  0  0  0  0  0
  186.1770  177.7000  146.6960 O   0  0  0  0  0  0  0  0  0  0  0  0
  190.3910  177.3350  144.3040 C   0  0  0  0  0  3  0  0  0  0  0  0
  188.3070  177.3170  143.0760 C   0  0  0  0  0  3  0  0  0  0  0  0
  189.6860  177.4430  145.5040 C   0  0  0  0  0  0  0  0  0  0  0  0
  189.6630  177.5410  147.9230 C   0  0  0  0  0  3  0  0  0  0  0  0
  190.3720  177.4620  146.7210 C   0  0  0  0  0  3  0  0  0  0  0  0
  189.7110  177.2740  143.0780 C   0  0  0  0  0  0  0  0  0  0  0  0
  187.5710  177.6080  146.7000 C   0  0  0  0  0  0  0  0  0  0  0  0
  188.2740  177.5090  145.4880 C   0  0  0  0  0  0  0  0  0  0  0  0
  188.2660  177.6110  147.9130 C   0  0  0  0  0  3  0  0  0  0  0  0
  184.3540  180.0960  144.3590 C   0  0  0  0  0  2  0  0  0  0  0  0
  183.3450  179.0340  143.9130 C   0  0  2  0  0  3  0  0  0  0  0  0
  183.9420  178.0140  142.9260 C   0  0  0  0  0  2  0  0  0  0  0  0
  185.4540  178.0620  145.5200 C   0  0  2  0  0  3  0  0  0  0  0  0
  185.4730  177.9350  142.9380 C   0  0  0  0  0  2  0  0  0  0  0  0
  186.0610  177.4050  144.2560 C   0  0  1  0  0  3  0  0  0  0  0  0
  192.5510  177.3720  140.5480 C   0  0  0  0  0  3  0  0  0  0  0  0
  189.8210  176.6870  140.6390 C   0  0  0  0  0  3  0  0  0  0  0  0
  191.2900  176.1930  137.2340 C   0  0  2  0  0  3  0  0  0  0  0  0
  192.4690  176.7100  138.0730 C   0  0  0  0  0  2  0  0  0  0  0  0
  191.8830  176.9130  139.4150 C   0  0  0  0  0  0  0  0  0  0  0  0
  190.0550  176.1090  138.1460 C   0  0  1  0  0  3  0  0  0  0  0  0
  190.5550  176.5820  139.4560 C   0  0  0  0  0  0  0  0  0  0  0  0
  189.0710  176.9770  137.6730 O   0  0  0  0  0  1  0  0  0  0  0  0
  190.4620  177.1500  141.8070 C   0  0  0  0  0  0  0  0  0  0  0  0
  191.8320  177.4900  141.7470 C   0  0  0  0  0  3  0  0  0  0  0  0
  191.6070  174.8510  136.6610 C   0  0  0  0  0  0  0  0  0  0  0  0
  192.4160  174.7590  135.7020 O   0  0  0  0  0  0  0  0  0  0  0  0
  191.0160  173.7040  137.1770 O   0  0  0  0  0  1  0  0  0  0  0  0
  182.1380  179.7140  143.2940 C   0  0  0  0  0  2  0  0  0  0  0  0
  181.0860  178.6870  142.9190 C   0  0  0  0  0  2  0  0  0  0  0  0
  180.0620  178.5840  144.0300 C   0  0  0  0  0  1  0  0  0  0  0  0
  1 11  1  0  0  0  0
  3 10  1  0  0  0  0
  4  6  1  0  0  0  0
  5  9  1  0  0  0  0
  5  1  2  0  0  0  0
  6  8  1  0  0  0  0
  8  7  2  0  0  0  0
  9  4  2  0  0  0  0
 10 12  2  0  0  0  0
 11  6  2  0  0  0  0
 11 10  1  0  0  0  0
 12  7  1  0  0  0  0
 13  2  1  0  0  0  0
 14 32  1  6  0  0  0
 14 13  1  0  0  0  0
 15 17  1  0  0  0  0
 15 14  1  0  0  0  0
 16  2  1  6  0  0  0
 16  3  1  0  0  0  0
 18 17  1  6  0  0  0
 18  1  1  0  0  0  0
 18 16  1  0  0  0  0
 19 28  1  0  0  0  0
 20 27  1  0  0  0  0
 21 29  1  1  0  0  0
 21 22  1  0  0  0  0
 21 24  1  0  0  0  0
 22 23  1  0  0  0  0
 23 25  1  0  0  0  0
 23 19  2  0  0  0  0
 24 26  1  6  0  0  0
 24 25  1  0  0  0  0
 25 20  2  0  0  0  0
 27  9  1  0  0  0  0
 28 27  2  0  0  0  0
 29 31  1  0  0  0  0
 30 29  2  0  0  0  0
 33 32  1  0  0  0  0
 33 34  1  0  0  0  0
M  END
>  <MODEL>
3

>  <REMARK>
 VINA RESULT:     -10.1      3.083      8.511
  Name = 
  4 active torsions:
  status: ('A' for Active; 'I' for Inactive)
    1  A    between atoms: C_3  and  C_13
    2  A    between atoms: C_3  and  C_25
    3  A    between atoms: C_7  and  C_11
    4  A    between atoms: C_18  and  C_30
                            x       y       z     vdW  Elec       q    Type
                         _______ _______ _______ _____ _____    ______ ____

>  <TORSDO>
F 4

$$$$
=
 OpenBabel10262423283D

 34 39  0  0  1  0  0  0  0  0999 V2000
  188.3670  177.2800  142.8620 C   0  0  0  0  0  0  0  0  0  0  0  0
  191.2990  178.1710  144.1310 C   0  0  0  0  0  2  0  0  0  0  0  0
  191.0450  176.7140  142.2090 O   0  0  0  0  0  0  0  0  0  0  0  0
  186.6650  178.3470  140.8880 C   0  0  0  0  0  3  0  0  0  0  0  0
  187.0220  177.5610  143.1470 C   0  0  0  0  0  3  0  0  0  0  0  0
  187.9910  178.0500  140.5720 C   0  0  0  0  0  0  0  0  0  0  0  0
  189.7850  177.9290  138.9510 C   0  0  0  0  0  3  0  0  0  0  0  0
  188.4640  178.2540  139.2740 C   0  0  0  0  0  3  0  0  0  0  0  0
  186.1660  178.1100  142.1790 C   0  0  0  0  0  0  0  0  0  0  0  0
  190.1800  177.2140  141.2330 C   0  0  0  0  0  0  0  0  0  0  0  0
  188.8500  177.5200  141.5620 C   0  0  0  0  0  0  0  0  0  0  0  0
  190.6390  177.4070  139.9270 C   0  0  0  0  0  3  0  0  0  0  0  0
  191.2770  178.3100  145.6620 C   0  0  0  0  0  2  0  0  0  0  0  0
  191.1950  176.9640  146.3870 C   0  0  2  0  0  3  0  0  0  0  0  0
  189.7720  176.3740  146.4010 C   0  0  0  0  0  2  0  0  0  0  0  0
  190.7550  176.8350  143.6010 C   0  0  2  0  0  3  0  0  0  0  0  0
  188.8350  176.9440  145.3300 C   0  0  0  0  0  2  0  0  0  0  0  0
  189.2510  176.6010  143.8900 C   0  0  1  0  0  3  0  0  0  0  0  0
  183.0580  179.0940  144.1400 C   0  0  0  0  0  3  0  0  0  0  0  0
  183.7550  178.3390  141.5180 C   0  0  0  0  0  3  0  0  0  0  0  0
  180.0950  179.0320  141.8640 C   0  0  2  0  0  3  0  0  0  0  0  0
  180.6540  179.2870  143.2740 C   0  0  0  0  0  2  0  0  0  0  0  0
  182.0970  179.0030  143.1350 C   0  0  0  0  0  0  0  0  0  0  0  0
  181.2620  178.6140  140.9560 C   0  0  1  0  0  3  0  0  0  0  0  0
  182.4330  178.6330  141.8600 C   0  0  0  0  0  0  0  0  0  0  0  0
  181.0450  177.3170  140.4900 O   0  0  0  0  0  1  0  0  0  0  0  0
  184.7550  178.4180  142.5090 C   0  0  0  0  0  0  0  0  0  0  0  0
  184.3910  178.7970  143.8210 C   0  0  0  0  0  3  0  0  0  0  0  0
  179.4360  180.2630  141.3350 C   0  0  0  0  0  0  0  0  0  0  0  0
  179.3040  181.2680  142.0790 O   0  0  0  0  0  1  0  0  0  0  0  0
  178.9660  180.3060  140.0270 O   0  0  0  0  0  0  0  0  0  0  0  0
  191.7060  177.1240  147.8070 C   0  0  0  0  0  2  0  0  0  0  0  0
  192.6680  176.0030  148.1540 C   0  0  0  0  0  2  0  0  0  0  0  0
  193.4540  176.3760  149.3930 C   0  0  0  0  0  1  0  0  0  0  0  0
  1  5  1  0  0  0  0
  1 18  1  0  0  0  0
  2 13  1  0  0  0  0
  3 16  1  0  0  0  0
  4  9  1  0  0  0  0
  6  4  2  0  0  0  0
  6 11  1  0  0  0  0
  7  8  2  0  0  0  0
  7 12  1  0  0  0  0
  8  6  1  0  0  0  0
  9 27  1  0  0  0  0
  9  5  2  0  0  0  0
 10 11  1  0  0  0  0
 10  3  1  0  0  0  0
 11  1  2  0  0  0  0
 12 10  2  0  0  0  0
 13 14  1  0  0  0  0
 14 15  1  0  0  0  0
 14 32  1  1  0  0  0
 16 18  1  0  0  0  0
 16  2  1  6  0  0  0
 17 15  1  0  0  0  0
 18 17  1  1  0  0  0
 20 25  2  0  0  0  0
 20 27  1  0  0  0  0
 21 29  1  6  0  0  0
 21 22  1  0  0  0  0
 23 22  1  0  0  0  0
 23 19  2  0  0  0  0
 24 26  1  1  0  0  0
 24 25  1  0  0  0  0
 24 21  1  0  0  0  0
 25 23  1  0  0  0  0
 27 28  2  0  0  0  0
 28 19  1  0  0  0  0
 29 30  1  0  0  0  0
 31 29  2  0  0  0  0
 32 33  1  0  0  0  0
 33 34  1  0  0  0  0
M  END
>  <MODEL>
4

>  <REMARK>
 VINA RESULT:      -9.5      1.619      5.595
  Name = 
  4 active torsions:
  status: ('A' for Active; 'I' for Inactive)
    1  A    between atoms: C_3  and  C_13
    2  A    between atoms: C_3  and  C_25
    3  A    between atoms: C_7  and  C_11
    4  A    between atoms: C_18  and  C_30
                            x       y       z     vdW  Elec       q    Type
                         _______ _______ _______ _____ _____    ______ ____

>  <TORSDO>
F 4

$$$$
=
 OpenBabel10262423283D

 34 39  0  0  1  0  0  0  0  0999 V2000
  190.0340  177.5080  139.9310 C   0  0  0  0  0  0  0  0  0  0  0  0
  188.2350  176.8290  142.6340 C   0  0  0  0  0  2  0  0  0  0  0  0
  187.6760  178.5700  141.0410 O   0  0  0  0  0  0  0  0  0  0  0  0
  190.0130  176.5970  137.2660 C   0  0  0  0  0  3  0  0  0  0  0  0
  191.1960  176.9860  139.3400 C   0  0  0  0  0  3  0  0  0  0  0  0
  188.8540  177.1380  137.8230 C   0  0  0  0  0  0  0  0  0  0  0  0
  186.5420  177.8230  137.6010 C   0  0  0  0  0  3  0  0  0  0  0  0
  187.6940  177.2540  137.0520 C   0  0  0  0  0  3  0  0  0  0  0  0
  191.1950  176.5110  138.0190 C   0  0  0  0  0  0  0  0  0  0  0  0
  187.6910  178.1430  139.7110 C   0  0  0  0  0  0  0  0  0  0  0  0
  188.8590  177.5900  139.1620 C   0  0  0  0  0  0  0  0  0  0  0  0
  186.5410  178.2690  138.9260 C   0  0  0  0  0  3  0  0  0  0  0  0
  189.0920  176.4020  143.8370 C   0  0  0  0  0  2  0  0  0  0  0  0
  189.8760  177.5590  144.4590 C   0  0  2  0  0  3  0  0  0  0  0  0
  191.1430  177.9240  143.6620 C   0  0  0  0  0  2  0  0  0  0  0  0
  188.6690  178.1470  141.9750 C   0  0  2  0  0  3  0  0  0  0  0  0
  191.1450  177.4370  142.2090 C   0  0  0  0  0  2  0  0  0  0  0  0
  190.0750  178.1010  141.3260 C   0  0  1  0  0  3  0  0  0  0  0  0
  193.7370  175.3310  135.4460 C   0  0  0  0  0  3  0  0  0  0  0  0
  193.4750  175.4840  138.2460 C   0  0  0  0  0  3  0  0  0  0  0  0
  196.7520  174.0050  137.2120 C   0  0  2  0  0  3  0  0  0  0  0  0
  196.0470  174.3080  135.8800 C   0  0  0  0  0  2  0  0  0  0  0  0
  194.7500  174.8830  136.2920 C   0  0  0  0  0  0  0  0  0  0  0  0
  195.8190  174.4350  138.3550 C   0  0  1  0  0  3  0  0  0  0  0  0
  194.6230  174.9530  137.6540 C   0  0  0  0  0  0  0  0  0  0  0  0
  195.4730  173.3170  139.1150 O   0  0  0  0  0  1  0  0  0  0  0  0
  192.4280  175.9450  137.4220 C   0  0  0  0  0  0  0  0  0  0  0  0
  192.5720  175.8630  136.0190 C   0  0  0  0  0  3  0  0  0  0  0  0
  198.0490  174.7400  137.2930 C   0  0  0  0  0  0  0  0  0  0  0  0
  198.3520  175.3550  138.3480 O   0  0  0  0  0  1  0  0  0  0  0  0
  198.9250  174.7500  136.2130 O   0  0  0  0  0  0  0  0  0  0  0  0
  190.2430  177.2100  145.8900 C   0  0  0  0  0  2  0  0  0  0  0  0
  191.5800  176.4950  145.9350 C   0  0  0  0  0  2  0  0  0  0  0  0
  191.8500  176.0180  147.3460 C   0  0  0  0  0  1  0  0  0  0  0  0
  1 18  1  0  0  0  0
  2 13  1  0  0  0  0
  3 16  1  0  0  0  0
  4  6  2  0  0  0  0
  4  9  1  0  0  0  0
  5  1  1  0  0  0  0
  6 11  1  0  0  0  0
  7 12  1  0  0  0  0
  8  7  2  0  0  0  0
  8  6  1  0  0  0  0
  9  5  2  0  0  0  0
 10  3  1  0  0  0  0
 11 10  1  0  0  0  0
 11  1  2  0  0  0  0
 12 10  2  0  0  0  0
 13 14  1  0  0  0  0
 14 32  1  1  0  0  0
 15 14  1  0  0  0  0
 16  2  1  6  0  0  0
 17 15  1  0  0  0  0
 18 16  1  0  0  0  0
 18 17  1  1  0  0  0
 19 28  2  0  0  0  0
 19 23  1  0  0  0  0
 21 29  1  6  0  0  0
 21 24  1  0  0  0  0
 22 23  1  0  0  0  0
 22 21  1  0  0  0  0
 23 25  2  0  0  0  0
 24 26  1  1  0  0  0
 25 20  1  0  0  0  0
 25 24  1  0  0  0  0
 27  9  1  0  0  0  0
 27 20  2  0  0  0  0
 28 27  1  0  0  0  0
 29 30  1  0  0  0  0
 31 29  2  0  0  0  0
 32 33  1  0  0  0  0
 33 34  1  0  0  0  0
M  END
>  <MODEL>
5

>  <REMARK>
 VINA RESULT:      -9.5      3.941     10.976
  Name = 
  4 active torsions:
  status: ('A' for Active; 'I' for Inactive)
    1  A    between atoms: C_3  and  C_13
    2  A    between atoms: C_3  and  C_25
    3  A    between atoms: C_7  and  C_11
    4  A    between atoms: C_18  and  C_30
                            x       y       z     vdW  Elec       q    Type
                         _______ _______ _______ _____ _____    ______ ____

>  <TORSDO>
F 4

$$$$
=
 OpenBabel10262423283D

 34 39  0  0  1  0  0  0  0  0999 V2000
  187.5260  177.4650  143.3820 C   0  0  0  0  0  0  0  0  0  0  0  0
  185.6770  179.5360  145.1990 C   0  0  0  0  0  2  0  0  0  0  0  0
  186.8080  177.5880  146.1000 O   0  0  0  0  0  0  0  0  0  0  0  0
  190.2510  177.3520  142.6810 C   0  0  0  0  0  3  0  0  0  0  0  0
  187.9200  177.3880  142.0370 C   0  0  0  0  0  3  0  0  0  0  0  0
  189.8830  177.4000  144.0260 C   0  0  0  0  0  0  0  0  0  0  0  0
  190.4910  177.3800  146.3700 C   0  0  0  0  0  3  0  0  0  0  0  0
  190.8620  177.3610  145.0230 C   0  0  0  0  0  3  0  0  0  0  0  0
  189.2760  177.3490  141.6720 C   0  0  0  0  0  0  0  0  0  0  0  0
  188.1540  177.5000  145.7370 C   0  0  0  0  0  0  0  0  0  0  0  0
  188.5170  177.4630  144.3810 C   0  0  0  0  0  0  0  0  0  0  0  0
  189.1400  177.4460  146.7260 C   0  0  0  0  0  3  0  0  0  0  0  0
  184.4630  180.0890  144.4350 C   0  0  0  0  0  2  0  0  0  0  0  0
  183.3630  179.0470  144.2170 C   0  0  2  0  0  3  0  0  0  0  0  0
  183.6730  178.0780  143.0600 C   0  0  0  0  0  2  0  0  0  0  0  0
  185.8070  178.0050  145.1720 C   0  0  2  0  0  3  0  0  0  0  0  0
  185.1540  178.0030  142.6700 C   0  0  0  0  0  2  0  0  0  0  0  0
  186.0590  177.4120  143.7630 C   0  0  1  0  0  3  0  0  0  0  0  0
  189.4360  178.0980  137.9450 C   0  0  0  0  0  3  0  0  0  0  0  0
  190.6530  176.3770  139.8120 C   0  0  0  0  0  3  0  0  0  0  0  0
  191.9780  175.8730  136.3500 C   0  0  2  0  0  3  0  0  0  0  0  0
  190.9380  176.9920  136.1870 C   0  0  0  0  0  2  0  0  0  0  0  0
  190.4100  177.1820  137.5550 C   0  0  0  0  0  0  0  0  0  0  0  0
  192.0140  175.4640  137.8310 C   0  0  1  0  0  3  0  0  0  0  0  0
  191.0010  176.3420  138.4600 C   0  0  0  0  0  0  0  0  0  0  0  0
  191.6230  174.1300  137.9530 O   0  0  0  0  0  1  0  0  0  0  0  0
  189.6690  177.2890  140.2450 C   0  0  0  0  0  0  0  0  0  0  0  0
  189.0660  178.1470  139.2980 C   0  0  0  0  0  3  0  0  0  0  0  0
  193.3240  176.3430  135.9060 C   0  0  0  0  0  0  0  0  0  0  0  0
  193.6040  176.3630  134.6800 O   0  0  0  0  0  0  0  0  0  0  0  0
  194.2700  176.7590  136.8370 O   0  0  0  0  0  1  0  0  0  0  0  0
  182.0430  179.7520  143.9650 C   0  0  0  0  0  2  0  0  0  0  0  0
  181.1340  178.8880  143.1110 C   0  0  0  0  0  2  0  0  0  0  0  0
  180.0230  178.3230  143.9690 C   0  0  0  0  0  1  0  0  0  0  0  0
  1 18  1  0  0  0  0
  1 11  1  0  0  0  0
  4  6  1  0  0  0  0
  5  1  2  0  0  0  0
  6 11  2  0  0  0  0
  6  8  1  0  0  0  0
  7 12  1  0  0  0  0
  8  7  2  0  0  0  0
  9  5  1  0  0  0  0
  9  4  2  0  0  0  0
 10  3  1  0  0  0  0
 10 12  2  0  0  0  0
 11 10  1  0  0  0  0
 13  2  1  0  0  0  0
 14 32  1  6  0  0  0
 14 13  1  0  0  0  0
 15 14  1  0  0  0  0
 16  2  1  6  0  0  0
 16  3  1  0  0  0  0
 17 15  1  0  0  0  0
 18 17  1  6  0  0  0
 18 16  1  0  0  0  0
 19 28  1  0  0  0  0
 20 27  1  0  0  0  0
 21 29  1  1  0  0  0
 21 24  1  0  0  0  0
 22 21  1  0  0  0  0
 22 23  1  0  0  0  0
 23 19  2  0  0  0  0
 23 25  1  0  0  0  0
 24 26  1  6  0  0  0
 24 25  1  0  0  0  0
 25 20  2  0  0  0  0
 27  9  1  0  0  0  0
 28 27  2  0  0  0  0
 29 31  1  0  0  0  0
 30 29  2  0  0  0  0
 33 32  1  0  0  0  0
 33 34  1  0  0  0  0
M  END
>  <MODEL>
6

>  <REMARK>
 VINA RESULT:      -9.4      2.952      8.764
  Name = 
  4 active torsions:
  status: ('A' for Active; 'I' for Inactive)
    1  A    between atoms: C_3  and  C_13
    2  A    between atoms: C_3  and  C_25
    3  A    between atoms: C_7  and  C_11
    4  A    between atoms: C_18  and  C_30
                            x       y       z     vdW  Elec       q    Type
                         _______ _______ _______ _____ _____    ______ ____

>  <TORSDO>
F 4

$$$$
=
 OpenBabel10262423283D

 34 39  0  0  1  0  0  0  0  0999 V2000
  185.5660  178.4690  140.7560 C   0  0  0  0  0  0  0  0  0  0  0  0
  183.0810  177.1020  139.0350 C   0  0  0  0  0  2  0  0  0  0  0  0
  184.4950  178.8810  138.1870 O   0  0  0  0  0  0  0  0  0  0  0  0
  188.3140  177.9180  141.0320 C   0  0  0  0  0  3  0  0  0  0  0  0
  186.1370  178.2730  142.0240 C   0  0  0  0  0  3  0  0  0  0  0  0
  187.7750  178.1370  139.7640 C   0  0  0  0  0  0  0  0  0  0  0  0
  188.0650  178.3600  137.3700 C   0  0  0  0  0  3  0  0  0  0  0  0
  188.6010  178.1120  138.6370 C   0  0  0  0  0  3  0  0  0  0  0  0
  187.5020  177.9800  142.1750 C   0  0  0  0  0  0  0  0  0  0  0  0
  185.8620  178.6380  138.3430 C   0  0  0  0  0  0  0  0  0  0  0  0
  186.3950  178.4080  139.6210 C   0  0  0  0  0  0  0  0  0  0  0  0
  186.7000  178.6250  137.2240 C   0  0  0  0  0  3  0  0  0  0  0  0
  181.8830  176.7090  139.9140 C   0  0  0  0  0  2  0  0  0  0  0  0
  181.0820  177.9140  140.4140 C   0  0  2  0  0  3  0  0  0  0  0  0
  181.7480  178.6260  141.6070 C   0  0  0  0  0  2  0  0  0  0  0  0
  183.5540  178.5540  139.2090 C   0  0  2  0  0  3  0  0  0  0  0  0
  183.2450  178.3370  141.7670 C   0  0  0  0  0  2  0  0  0  0  0  0
  184.1120  178.8770  140.6170 C   0  0  1  0  0  3  0  0  0  0  0  0
  187.7750  177.3920  145.9240 C   0  0  0  0  0  3  0  0  0  0  0  0
  189.4760  177.6850  143.6980 C   0  0  0  0  0  3  0  0  0  0  0  0
  191.3810  177.1240  146.8680 C   0  0  2  0  0  3  0  0  0  0  0  0
  189.9100  177.0980  147.3130 C   0  0  0  0  0  2  0  0  0  0  0  0
  189.1610  177.3300  146.0600 C   0  0  0  0  0  0  0  0  0  0  0  0
  191.4180  177.3630  145.3500 C   0  0  1  0  0  3  0  0  0  0  0  0
  189.9900  177.4760  144.9790 C   0  0  0  0  0  0  0  0  0  0  0  0
  192.0710  178.5680  145.0880 O   0  0  0  0  0  1  0  0  0  0  0  0
  188.0790  177.7560  143.5210 C   0  0  0  0  0  0  0  0  0  0  0  0
  187.2370  177.6070  144.6470 C   0  0  0  0  0  3  0  0  0  0  0  0
  192.0510  175.8340  147.2090 C   0  0  0  0  0  0  0  0  0  0  0  0
  192.1160  174.9190  146.3480 O   0  0  0  0  0  0  0  0  0  0  0  0
  192.6020  175.6350  148.4700 O   0  0  0  0  0  1  0  0  0  0  0  0
  179.6810  177.4690  140.7890 C   0  0  0  0  0  2  0  0  0  0  0  0
  179.2730  176.2560  139.9740 C   0  0  0  0  0  2  0  0  0  0  0  0
  179.0060  175.0900  140.9020 C   0  0  0  0  0  1  0  0  0  0  0  0
  1  5  1  0  0  0  0
  2 13  1  0  0  0  0
  3 10  1  0  0  0  0
  3 16  1  0  0  0  0
  4  9  1  0  0  0  0
  5  9  2  0  0  0  0
  6  4  2  0  0  0  0
  7  8  2  0  0  0  0
  8  6  1  0  0  0  0
  9 27  1  0  0  0  0
 10 11  1  0  0  0  0
 11  6  1  0  0  0  0
 11  1  2  0  0  0  0
 12  7  1  0  0  0  0
 12 10  2  0  0  0  0
 13 14  1  0  0  0  0
 14 32  1  1  0  0  0
 14 15  1  0  0  0  0
 15 17  1  0  0  0  0
 16  2  1  1  0  0  0
 16 18  1  0  0  0  0
 18  1  1  0  0  0  0
 18 17  1  1  0  0  0
 19 23  1  0  0  0  0
 20 25  1  0  0  0  0
 21 29  1  6  0  0  0
 21 22  1  0  0  0  0
 23 22  1  0  0  0  0
 24 26  1  1  0  0  0
 24 21  1  0  0  0  0
 25 24  1  0  0  0  0
 25 23  2  0  0  0  0
 27 20  2  0  0  0  0
 27 28  1  0  0  0  0
 28 19  2  0  0  0  0
 29 31  1  0  0  0  0
 30 29  2  0  0  0  0
 33 32  1  0  0  0  0
 33 34  1  0  0  0  0
M  END
>  <MODEL>
7

>  <REMARK>
 VINA RESULT:      -9.3      2.698      8.335
  Name = 
  4 active torsions:
  status: ('A' for Active; 'I' for Inactive)
    1  A    between atoms: C_3  and  C_13
    2  A    between atoms: C_3  and  C_25
    3  A    between atoms: C_7  and  C_11
    4  A    between atoms: C_18  and  C_30
                            x       y       z     vdW  Elec       q    Type
                         _______ _______ _______ _____ _____    ______ ____

>  <TORSDO>
F 4

$$$$
=
 OpenBabel10262423283D

 34 39  0  0  1  0  0  0  0  0999 V2000
  187.4920  177.3900  143.7030 C   0  0  0  0  0  0  0  0  0  0  0  0
  185.6040  179.5040  145.4270 C   0  0  0  0  0  2  0  0  0  0  0  0
  186.6200  177.5170  146.3760 O   0  0  0  0  0  0  0  0  0  0  0  0
  190.2500  177.1980  143.1620 C   0  0  0  0  0  3  0  0  0  0  0  0
  187.9630  177.3100  142.3830 C   0  0  0  0  0  3  0  0  0  0  0  0
  189.8050  177.2470  144.4840 C   0  0  0  0  0  0  0  0  0  0  0  0
  190.2720  177.1930  146.8590 C   0  0  0  0  0  3  0  0  0  0  0  0
  190.7220  177.1720  145.5350 C   0  0  0  0  0  3  0  0  0  0  0  0
  189.3350  177.2320  142.0980 C   0  0  0  0  0  0  0  0  0  0  0  0
  187.9820  177.3890  146.0920 C   0  0  0  0  0  0  0  0  0  0  0  0
  188.4220  177.3500  144.7590 C   0  0  0  0  0  0  0  0  0  0  0  0
  188.9060  177.2980  147.1360 C   0  0  0  0  0  3  0  0  0  0  0  0
  184.4550  180.1000  144.5980 C   0  0  0  0  0  2  0  0  0  0  0  0
  183.3380  179.0940  144.3060 C   0  0  2  0  0  3  0  0  0  0  0  0
  183.6860  178.1240  143.1620 C   0  0  0  0  0  2  0  0  0  0  0  0
  185.6890  177.9700  145.3940 C   0  0  2  0  0  3  0  0  0  0  0  0
  185.1840  178.0070  142.8580 C   0  0  0  0  0  2  0  0  0  0  0  0
  186.0050  177.3800  143.9970 C   0  0  1  0  0  3  0  0  0  0  0  0
  191.6050  176.7530  139.0820 C   0  0  0  0  0  3  0  0  0  0  0  0
  188.9340  177.4570  139.6290 C   0  0  0  0  0  3  0  0  0  0  0  0
  189.6610  177.4150  135.9600 C   0  0  2  0  0  3  0  0  0  0  0  0
  190.9980  177.0190  136.6060 C   0  0  0  0  0  2  0  0  0  0  0  0
  190.7100  177.0460  138.0550 C   0  0  0  0  0  0  0  0  0  0  0  0
  188.6380  177.6480  137.0840 C   0  0  1  0  0  3  0  0  0  0  0  0
  189.4110  177.3920  138.3190 C   0  0  0  0  0  0  0  0  0  0  0  0
  188.2160  178.9780  137.0570 O   0  0  0  0  0  1  0  0  0  0  0  0
  189.8100  177.1700  140.6950 C   0  0  0  0  0  0  0  0  0  0  0  0
  191.1480  176.8180  140.4060 C   0  0  0  0  0  3  0  0  0  0  0  0
  189.1880  176.3400  135.0390 C   0  0  0  0  0  0  0  0  0  0  0  0
  187.9960  176.3420  134.6380 O   0  0  0  0  0  1  0  0  0  0  0  0
  190.0540  175.3350  134.6220 O   0  0  0  0  0  0  0  0  0  0  0  0
  182.0570  179.8420  143.9850 C   0  0  0  0  0  2  0  0  0  0  0  0
  181.0980  178.9460  143.2230 C   0  0  0  0  0  2  0  0  0  0  0  0
  180.0540  178.4000  144.1730 C   0  0  0  0  0  1  0  0  0  0  0  0
  1 18  1  0  0  0  0
  1 11  1  0  0  0  0
  4  6  1  0  0  0  0
  5  1  2  0  0  0  0
  6 11  2  0  0  0  0
  6  8  1  0  0  0  0
  7 12  1  0  0  0  0
  8  7  2  0  0  0  0
  9  5  1  0  0  0  0
  9  4  2  0  0  0  0
 10  3  1  0  0  0  0
 10 12  2  0  0  0  0
 11 10  1  0  0  0  0
 13  2  1  0  0  0  0
 14 32  1  6  0  0  0
 14 13  1  0  0  0  0
 15 14  1  0  0  0  0
 16  2  1  6  0  0  0
 16  3  1  0  0  0  0
 17 15  1  0  0  0  0
 18 17  1  6  0  0  0
 18 16  1  0  0  0  0
 19 28  1  0  0  0  0
 20 27  1  0  0  0  0
 21 29  1  6  0  0  0
 21 22  1  0  0  0  0
 21 24  1  0  0  0  0
 22 23  1  0  0  0  0
 23 25  1  0  0  0  0
 23 19  2  0  0  0  0
 24 26  1  1  0  0  0
 24 25  1  0  0  0  0
 25 20  2  0  0  0  0
 27  9  1  0  0  0  0
 28 27  2  0  0  0  0
 30 29  1  0  0  0  0
 31 29  2  0  0  0  0
 33 32  1  0  0  0  0
 33 34  1  0  0  0  0
M  END
>  <MODEL>
8

>  <REMARK>
 VINA RESULT:      -9.3      2.891      8.030
  Name = 
  4 active torsions:
  status: ('A' for Active; 'I' for Inactive)
    1  A    between atoms: C_3  and  C_13
    2  A    between atoms: C_3  and  C_25
    3  A    between atoms: C_7  and  C_11
    4  A    between atoms: C_18  and  C_30
                            x       y       z     vdW  Elec       q    Type
                         _______ _______ _______ _____ _____    ______ ____

>  <TORSDO>
F 4

$$$$
=
 OpenBabel10262423283D

 34 39  0  0  1  0  0  0  0  0999 V2000
  188.3550  178.1070  140.3270 C   0  0  0  0  0  0  0  0  0  0  0  0
  187.0740  177.2630  143.2680 C   0  0  0  0  0  2  0  0  0  0  0  0
  186.2660  179.1110  141.9220 O   0  0  0  0  0  0  0  0  0  0  0  0
  187.8240  177.3760  137.6600 C   0  0  0  0  0  3  0  0  0  0  0  0
  189.3770  177.6160  139.4980 C   0  0  0  0  0  3  0  0  0  0  0  0
  186.7980  177.8870  138.4560 C   0  0  0  0  0  0  0  0  0  0  0  0
  184.5000  178.6040  138.7120 C   0  0  0  0  0  3  0  0  0  0  0  0
  185.5190  178.0640  137.9220 C   0  0  0  0  0  3  0  0  0  0  0  0
  189.1220  177.2310  138.1720 C   0  0  0  0  0  0  0  0  0  0  0  0
  186.0250  178.7740  140.5870 C   0  0  0  0  0  0  0  0  0  0  0  0
  187.0600  178.2490  139.7960 C   0  0  0  0  0  0  0  0  0  0  0  0
  184.7530  178.9600  140.0400 C   0  0  0  0  0  3  0  0  0  0  0  0
  188.1300  176.7490  144.2610 C   0  0  0  0  0  2  0  0  0  0  0  0
  189.0390  177.8570  144.7990 C   0  0  2  0  0  3  0  0  0  0  0  0
  190.1440  178.2630  143.8060 C   0  0  0  0  0  2  0  0  0  0  0  0
  187.4060  178.6190  142.6260 C   0  0  2  0  0  3  0  0  0  0  0  0
  189.8660  177.8750  142.3490 C   0  0  0  0  0  2  0  0  0  0  0  0
  188.6660  178.6050  141.7250 C   0  0  1  0  0  3  0  0  0  0  0  0
  190.9510  175.6410  135.2390 C   0  0  0  0  0  3  0  0  0  0  0  0
  191.5490  176.7310  137.7660 C   0  0  0  0  0  3  0  0  0  0  0  0
  194.6110  175.5290  135.9830 C   0  0  2  0  0  3  0  0  0  0  0  0
  193.4690  175.2230  135.0020 C   0  0  0  0  0  2  0  0  0  0  0  0
  192.2600  175.6900  135.7130 C   0  0  0  0  0  0  0  0  0  0  0  0
  194.0030  176.1800  137.2370 C   0  0  1  0  0  3  0  0  0  0  0  0
  192.5530  176.2170  136.9430 C   0  0  0  0  0  0  0  0  0  0  0  0
  194.2400  175.3640  138.3430 O   0  0  0  0  0  1  0  0  0  0  0  0
  190.2120  176.6960  137.3210 C   0  0  0  0  0  0  0  0  0  0  0  0
  189.9250  176.1460  136.0510 C   0  0  0  0  0  3  0  0  0  0  0  0
  195.6090  176.4430  135.3530 C   0  0  0  0  0  0  0  0  0  0  0  0
  195.4160  177.6860  135.3740 O   0  0  0  0  0  1  0  0  0  0  0  0
  196.7490  175.9320  134.7430 O   0  0  0  0  0  0  0  0  0  0  0  0
  189.6570  177.4100  146.1110 C   0  0  0  0  0  2  0  0  0  0  0  0
  188.5770  177.1330  147.1390 C   0  0  0  0  0  2  0  0  0  0  0  0
  188.6490  178.1710  148.2390 C   0  0  0  0  0  1  0  0  0  0  0  0
  1 18  1  0  0  0  0
  2 13  1  0  0  0  0
  3 16  1  0  0  0  0
  4  9  2  0  0  0  0
  4  6  1  0  0  0  0
  5  1  2  0  0  0  0
  6 11  1  0  0  0  0
  7 12  2  0  0  0  0
  8  6  2  0  0  0  0
  8  7  1  0  0  0  0
  9  5  1  0  0  0  0
 10  3  1  0  0  0  0
 11  1  1  0  0  0  0
 11 10  2  0  0  0  0
 12 10  1  0  0  0  0
 13 14  1  0  0  0  0
 14 32  1  1  0  0  0
 15 14  1  0  0  0  0
 16  2  1  6  0  0  0
 17 15  1  0  0  0  0
 18 17  1  1  0  0  0
 18 16  1  0  0  0  0
 19 23  2  0  0  0  0
 19 28  1  0  0  0  0
 21 29  1  6  0  0  0
 21 24  1  0  0  0  0
 22 23  1  0  0  0  0
 22 21  1  0  0  0  0
 23 25  1  0  0  0  0
 24 26  1  1  0  0  0
 25 24  1  0  0  0  0
 25 20  2  0  0  0  0
 27 20  1  0  0  0  0
 27  9  1  0  0  0  0
 28 27  2  0  0  0  0
 29 30  1  0  0  0  0
 31 29  2  0  0  0  0
 32 33  1  0  0  0  0
 33 34  1  0  0  0  0
M  END
>  <MODEL>
9

>  <REMARK>
 VINA RESULT:      -9.0      3.196     10.099
  Name = 
  4 active torsions:
  status: ('A' for Active; 'I' for Inactive)
    1  A    between atoms: C_3  and  C_13
    2  A    between atoms: C_3  and  C_25
    3  A    between atoms: C_7  and  C_11
    4  A    between atoms: C_18  and  C_30
                            x       y       z     vdW  Elec       q    Type
                         _______ _______ _______ _____ _____    ______ ____

>  <TORSDO>
F 4

$$$$
