=
 OpenBabel10262422583D

 37 40  0  0  1  0  0  0  0  0999 V2000
  180.8010  179.0440  142.4240 C   0  0  0  0  0  2  0  0  0  0  0  0
  183.9280  178.4560  139.4770 C   0  0  0  0  0  2  0  0  0  0  0  0
  178.9310  175.5600  140.0920 C   0  0  0  0  0  2  0  0  0  0  0  0
  181.8740  178.4000  141.5390 C   0  0  2  0  0  3  0  0  0  0  0  0
  179.5800  176.8630  140.4580 C   0  0  0  0  0  0  0  0  0  0  0  0
  183.2150  178.9360  141.8220 N   0  0  0  0  0  0  0  0  0  0  0  0
  179.0460  177.5270  141.4400 N   0  0  0  0  0  0  0  0  0  0  0  0
  180.7220  177.3510  139.5550 C   0  0  2  0  0  3  0  0  0  0  0  0
  180.9830  174.9650  138.7630 C   0  0  0  0  0  2  0  0  0  0  0  0
  179.3590  178.8640  141.9140 C   0  0  2  0  0  3  0  0  0  0  0  0
  181.7030  176.2010  139.2830 C   0  0  0  0  0  2  0  0  0  0  0  0
  184.1730  178.2210  140.9760 C   0  0  0  0  0  2  0  0  0  0  0  0
  181.4810  178.5860  140.0680 C   0  0  2  0  0  3  0  0  0  0  0  0
  179.9810  174.4850  139.8110 C   0  0  2  0  0  3  0  0  0  0  0  0
  182.6080  179.1780  139.1640 C   0  0  1  0  0  0  0  0  0  0  0  0
  179.3620  173.2410  139.4120 N   0  0  0  0  0  0  0  0  0  0  0  0
  179.1880  172.9230  138.1780 C   0  0  0  0  0  2  0  0  0  0  0  0
  179.1610  181.0920  141.1550 O   0  0  0  0  0  0  0  0  0  0  0  0
  178.9310  179.9150  140.9370 C   0  0  0  0  0  3  0  0  0  0  0  0
  182.8070  180.5540  139.4530 O   0  0  0  0  0  0  0  0  0  0  0  0
  181.7280  181.3150  138.9660 C   0  0  0  0  0  2  0  0  0  0  0  0
  181.1250  182.9610  137.6280 C   0  0  0  0  0  1  0  0  0  0  0  0
  182.2140  182.4620  138.3410 O   0  0  0  0  0  0  0  0  0  0  0  0
  182.2890  178.9710  137.6670 C   0  0  0  0  0  2  0  0  0  0  0  0
  183.3040  178.0730  136.9740 C   0  0  0  0  0  2  0  0  0  0  0  0
  182.6300  177.2650  135.9730 N   0  0  0  0  0  2  0  0  0  0  0  0
  184.4690  175.9400  136.8270 C   0  0  0  0  0  1  0  0  0  0  0  0
  183.5130  176.1530  135.6720 C   0  0  0  0  0  2  0  0  0  0  0  0
  183.5760  178.5810  143.1870 C   0  0  0  0  0  2  0  0  0  0  0  0
  184.6590  179.5180  143.6900 C   0  0  0  0  0  2  0  0  0  0  0  0
  185.5240  178.9670  145.9700 C   0  0  0  0  0  3  0  0  0  0  0  0
  185.5910  178.7820  144.5850 C   0  0  0  0  0  0  0  0  0  0  0  0
  186.5560  177.9280  144.0420 C   0  0  0  0  0  3  0  0  0  0  0  0
  188.3780  176.4250  144.3540 F   0  0  0  0  0  0  0  0  0  0  0  0
  187.3740  177.4320  146.2660 C   0  0  0  0  0  3  0  0  0  0  0  0
  187.4450  177.2520  144.8820 C   0  0  0  0  0  0  0  0  0  0  0  0
  186.4140  178.2900  146.8100 C   0  0  0  0  0  3  0  0  0  0  0  0
  2 12  1  0  0  0  0
  3  5  1  0  0  0  0
  4  6  1  0  0  0  0
  4  1  1  1  0  0  0
  5  7  2  0  0  0  0
  6 29  1  0  0  0  0
  7 10  1  0  0  0  0
  8 11  1  1  0  0  0
  8 13  1  0  0  0  0
  8  5  1  0  0  0  0
  9 11  1  0  0  0  0
  9 14  1  0  0  0  0
 10 19  1  6  0  0  0
 10  1  1  0  0  0  0
 12  6  1  0  0  0  0
 13  4  1  0  0  0  0
 14  3  1  0  0  0  0
 15 20  1  0  0  0  0
 15  2  1  0  0  0  0
 15 13  1  0  0  0  0
 16 14  1  0  0  0  0
 17 16  2  0  0  0  0
 19 18  2  0  0  0  0
 21 20  1  0  0  0  0
 22 23  1  0  0  0  0
 23 21  1  0  0  0  0
 24 15  1  0  0  0  0
 25 24  1  0  0  0  0
 26 25  1  0  0  0  0
 28 26  1  0  0  0  0
 28 27  1  0  0  0  0
 29 30  1  0  0  0  0
 30 32  1  0  0  0  0
 31 37  1  0  0  0  0
 32 31  2  0  0  0  0
 33 32  1  0  0  0  0
 33 36  2  0  0  0  0
 34 36  1  0  0  0  0
 35 37  2  0  0  0  0
 36 35  1  0  0  0  0
M  END
>  <MODEL>
1

>  <REMARK>
 VINA RESULT:      -5.8      0.000      0.000
  Name = 
  12 active torsions:
  status: ('A' for Active; 'I' for Inactive)
    1  A    between atoms: O_1  and  C_5
    2  A    between atoms: O_1  and  C_36
    3  A    between atoms: N_3  and  C_32
    4  A    between atoms: C_5  and  O_23
    5  A    between atoms: C_6  and  C_31
    6  A    between atoms: N_14  and  C_37
    7  A    between atoms: C_17  and  N_26
    8  A    between atoms: C_17  and  C_33
    9  A    between atoms: CA_24  and  C_28
   10  A    between atoms: N_26  and  C_34
   11  A    between atoms: C_31  and  C_37
   12  A    between atoms: C_33  and  C_36
                            x       y       z     vdW  Elec       q    Type
                         _______ _______ _______ _____ _____    ______ ____

>  <TORSDO>
F 12

$$$$
=
 OpenBabel10262422583D

 37 40  0  0  1  0  0  0  0  0999 V2000
  182.5350  179.7530  138.5450 C   0  0  0  0  0  2  0  0  0  0  0  0
  181.4870  176.2910  136.1520 C   0  0  0  0  0  2  0  0  0  0  0  0
  186.7500  178.0770  137.8390 C   0  0  0  0  0  2  0  0  0  0  0  0
  182.4800  178.7190  137.4150 C   0  0  2  0  0  3  0  0  0  0  0  0
  185.2980  178.2190  138.1930 C   0  0  0  0  0  0  0  0  0  0  0  0
  181.1660  178.6930  136.7550 N   0  0  0  0  0  0  0  0  0  0  0  0
  184.9720  179.2400  138.9280 N   0  0  0  0  0  0  0  0  0  0  0  0
  184.3630  177.0770  137.7700 C   0  0  2  0  0  3  0  0  0  0  0  0
  186.1070  176.4110  136.0670 C   0  0  0  0  0  2  0  0  0  0  0  0
  183.6920  179.5530  139.5410 C   0  0  2  0  0  3  0  0  0  0  0  0
  184.6310  176.6940  136.3070 C   0  0  0  0  0  2  0  0  0  0  0  0
  181.2300  177.7240  135.6590 C   0  0  0  0  0  2  0  0  0  0  0  0
  182.8640  177.3460  137.9810 C   0  0  2  0  0  3  0  0  0  0  0  0
  186.9200  177.6660  136.3770 C   0  0  2  0  0  3  0  0  0  0  0  0
  181.8610  176.1980  137.6400 C   0  0  1  0  0  0  0  0  0  0  0  0
  188.3150  177.4820  136.0440 N   0  0  0  0  0  0  0  0  0  0  0  0
  189.2620  178.0380  136.7140 C   0  0  0  0  0  2  0  0  0  0  0  0
  182.3720  178.7840  141.3430 O   0  0  0  0  0  0  0  0  0  0  0  0
  183.3670  178.6110  140.6590 C   0  0  0  0  0  3  0  0  0  0  0  0
  180.6600  176.3500  138.3820 O   0  0  0  0  0  0  0  0  0  0  0  0
  180.8290  175.8580  139.6890 C   0  0  0  0  0  2  0  0  0  0  0  0
  179.3990  177.5340  139.7640 C   0  0  0  0  0  1  0  0  0  0  0  0
  180.0760  176.6240  140.5750 O   0  0  0  0  0  0  0  0  0  0  0  0
  182.4930  174.8120  137.8920 C   0  0  0  0  0  2  0  0  0  0  0  0
  182.3890  173.8950  136.6810 C   0  0  0  0  0  2  0  0  0  0  0  0
  183.6310  173.1630  136.5210 N   0  0  0  0  0  2  0  0  0  0  0  0
  185.8370  172.9600  137.5030 C   0  0  0  0  0  1  0  0  0  0  0  0
  184.3970  173.3700  137.7360 C   0  0  0  0  0  2  0  0  0  0  0  0
  180.9480  179.9810  136.1110 C   0  0  0  0  0  2  0  0  0  0  0  0
  180.1340  180.8780  137.0250 C   0  0  0  0  0  2  0  0  0  0  0  0
  179.8060  182.8900  135.5760 C   0  0  0  0  0  3  0  0  0  0  0  0
  180.3970  182.3060  136.7010 C   0  0  0  0  0  0  0  0  0  0  0  0
  181.2610  183.0580  137.5050 C   0  0  0  0  0  3  0  0  0  0  0  0
  182.3600  185.1210  137.9680 F   0  0  0  0  0  0  0  0  0  0  0  0
  180.9290  184.9780  136.0680 C   0  0  0  0  0  3  0  0  0  0  0  0
  181.5240  184.3940  137.1890 C   0  0  0  0  0  0  0  0  0  0  0  0
  180.0710  184.2270  135.2610 C   0  0  0  0  0  3  0  0  0  0  0  0
  1 10  1  0  0  0  0
  2 15  1  0  0  0  0
  3  5  1  0  0  0  0
  4 13  1  0  0  0  0
  4  1  1  1  0  0  0
  5  7  2  0  0  0  0
  6  4  1  0  0  0  0
  7 10  1  0  0  0  0
  8 11  1  6  0  0  0
  8 13  1  0  0  0  0
  8  5  1  0  0  0  0
  9 11  1  0  0  0  0
  9 14  1  0  0  0  0
 10 19  1  1  0  0  0
 12  2  1  0  0  0  0
 12  6  1  0  0  0  0
 14  3  1  0  0  0  0
 15 24  1  0  0  0  0
 15 13  1  0  0  0  0
 15 20  1  0  0  0  0
 16 14  1  0  0  0  0
 16 17  2  0  0  0  0
 19 18  2  0  0  0  0
 20 21  1  0  0  0  0
 21 23  1  0  0  0  0
 22 23  1  0  0  0  0
 25 24  1  0  0  0  0
 26 25  1  0  0  0  0
 26 28  1  0  0  0  0
 27 28  1  0  0  0  0
 29  6  1  0  0  0  0
 29 30  1  0  0  0  0
 31 32  1  0  0  0  0
 32 30  1  0  0  0  0
 32 33  2  0  0  0  0
 35 36  2  0  0  0  0
 36 33  1  0  0  0  0
 36 34  1  0  0  0  0
 37 31  2  0  0  0  0
 37 35  1  0  0  0  0
M  END
>  <MODEL>
2

>  <REMARK>
 VINA RESULT:      -5.5      3.893      7.614
  Name = 
  12 active torsions:
  status: ('A' for Active; 'I' for Inactive)
    1  A    between atoms: O_1  and  C_5
    2  A    between atoms: O_1  and  C_36
    3  A    between atoms: N_3  and  C_32
    4  A    between atoms: C_5  and  O_23
    5  A    between atoms: C_6  and  C_31
    6  A    between atoms: N_14  and  C_37
    7  A    between atoms: C_17  and  N_26
    8  A    between atoms: C_17  and  C_33
    9  A    between atoms: CA_24  and  C_28
   10  A    between atoms: N_26  and  C_34
   11  A    between atoms: C_31  and  C_37
   12  A    between atoms: C_33  and  C_36
                            x       y       z     vdW  Elec       q    Type
                         _______ _______ _______ _____ _____    ______ ____

>  <TORSDO>
F 12

$$$$
=
 OpenBabel10262422583D

 37 40  0  0  1  0  0  0  0  0999 V2000
  188.3080  177.9900  137.2940 C   0  0  0  0  0  2  0  0  0  0  0  0
  191.1480  174.7190  137.4930 C   0  0  0  0  0  2  0  0  0  0  0  0
  185.4270  174.5010  136.5220 C   0  0  0  0  0  2  0  0  0  0  0  0
  189.0010  176.6760  137.6700 C   0  0  2  0  0  3  0  0  0  0  0  0
  186.5880  175.4490  136.4580 C   0  0  0  0  0  0  0  0  0  0  0  0
  190.2900  176.9050  138.3420 N   0  0  0  0  0  0  0  0  0  0  0  0
  186.3070  176.7180  136.4400 N   0  0  0  0  0  0  0  0  0  0  0  0
  187.9830  174.8320  136.2810 C   0  0  2  0  0  3  0  0  0  0  0  0
  187.0240  172.6600  137.1480 C   0  0  0  0  0  2  0  0  0  0  0  0
  187.1980  177.8480  136.2360 C   0  0  2  0  0  3  0  0  0  0  0  0
  188.1660  173.6610  137.2570 C   0  0  0  0  0  2  0  0  0  0  0  0
  190.8420  175.6010  138.7140 C   0  0  0  0  0  2  0  0  0  0  0  0
  189.1560  175.8180  136.4080 C   0  0  2  0  0  3  0  0  0  0  0  0
  185.7090  173.3550  137.4940 C   0  0  2  0  0  3  0  0  0  0  0  0
  190.5990  175.2710  136.1680 C   0  0  1  0  0  0  0  0  0  0  0  0
  184.6110  172.4130  137.5240 N   0  0  0  0  0  0  0  0  0  0  0  0
  184.1870  171.8160  136.4660 C   0  0  0  0  0  2  0  0  0  0  0  0
  188.8550  178.2190  134.5940 O   0  0  0  0  0  0  0  0  0  0  0  0
  187.6970  177.9140  134.8260 C   0  0  0  0  0  3  0  0  0  0  0  0
  191.4670  176.3180  135.7600 O   0  0  0  0  0  0  0  0  0  0  0  0
  192.1760  175.9400  134.6050 C   0  0  0  0  0  2  0  0  0  0  0  0
  194.2920  175.4080  134.9210 C   0  0  0  0  0  1  0  0  0  0  0  0
  193.4560  176.4890  134.6450 O   0  0  0  0  0  0  0  0  0  0  0  0
  190.5950  174.1240  135.1340 C   0  0  0  0  0  2  0  0  0  0  0  0
  191.0750  172.8050  135.7240 C   0  0  0  0  0  2  0  0  0  0  0  0
  192.1600  172.2800  134.9140 N   0  0  0  0  0  2  0  0  0  0  0  0
  193.4990  170.5490  135.9530 C   0  0  0  0  0  1  0  0  0  0  0  0
  193.2740  172.0410  135.8140 C   0  0  0  0  0  2  0  0  0  0  0  0
  190.0380  177.5860  139.6040 C   0  0  0  0  0  2  0  0  0  0  0  0
  191.0400  177.1200  140.6440 C   0  0  0  0  0  2  0  0  0  0  0  0
  191.2100  177.9860  142.9840 C   0  0  0  0  0  3  0  0  0  0  0  0
  190.4770  177.3020  142.0090 C   0  0  0  0  0  0  0  0  0  0  0  0
  189.2260  176.7640  142.3280 C   0  0  0  0  0  3  0  0  0  0  0  0
  187.4940  176.3970  143.9220 F   0  0  0  0  0  0  0  0  0  0  0  0
  189.4360  177.6060  144.5880 C   0  0  0  0  0  3  0  0  0  0  0  0
  188.7060  176.9180  143.6160 C   0  0  0  0  0  0  0  0  0  0  0  0
  190.6890  178.1400  144.2730 C   0  0  0  0  0  3  0  0  0  0  0  0
  2 12  1  0  0  0  0
  3 14  1  0  0  0  0
  4  1  1  6  0  0  0
  4  6  1  0  0  0  0
  5  3  1  0  0  0  0
  6 12  1  0  0  0  0
  6 29  1  0  0  0  0
  7  5  2  0  0  0  0
  8 13  1  0  0  0  0
  8  5  1  0  0  0  0
  8 11  1  1  0  0  0
  9 11  1  0  0  0  0
  9 14  1  0  0  0  0
 10 19  1  6  0  0  0
 10  7  1  0  0  0  0
 10  1  1  0  0  0  0
 13  4  1  0  0  0  0
 14 16  1  0  0  0  0
 15 13  1  0  0  0  0
 15  2  1  0  0  0  0
 17 16  2  0  0  0  0
 18 19  2  0  0  0  0
 20 15  1  0  0  0  0
 21 23  1  0  0  0  0
 21 20  1  0  0  0  0
 23 22  1  0  0  0  0
 24 25  1  0  0  0  0
 24 15  1  0  0  0  0
 26 25  1  0  0  0  0
 26 28  1  0  0  0  0
 28 27  1  0  0  0  0
 29 30  1  0  0  0  0
 30 32  1  0  0  0  0
 31 37  1  0  0  0  0
 32 33  1  0  0  0  0
 32 31  2  0  0  0  0
 33 36  2  0  0  0  0
 36 34  1  0  0  0  0
 36 35  1  0  0  0  0
 37 35  2  0  0  0  0
M  END
>  <MODEL>
3

>  <REMARK>
 VINA RESULT:      -4.8      6.268      8.668
  Name = 
  12 active torsions:
  status: ('A' for Active; 'I' for Inactive)
    1  A    between atoms: O_1  and  C_5
    2  A    between atoms: O_1  and  C_36
    3  A    between atoms: N_3  and  C_32
    4  A    between atoms: C_5  and  O_23
    5  A    between atoms: C_6  and  C_31
    6  A    between atoms: N_14  and  C_37
    7  A    between atoms: C_17  and  N_26
    8  A    between atoms: C_17  and  C_33
    9  A    between atoms: CA_24  and  C_28
   10  A    between atoms: N_26  and  C_34
   11  A    between atoms: C_31  and  C_37
   12  A    between atoms: C_33  and  C_36
                            x       y       z     vdW  Elec       q    Type
                         _______ _______ _______ _____ _____    ______ ____

>  <TORSDO>
F 12

$$$$
=
 OpenBabel10262422583D

 37 40  0  0  1  0  0  0  0  0999 V2000
  179.9370  177.0720  136.0760 C   0  0  0  0  0  2  0  0  0  0  0  0
  181.8430  177.2460  139.9680 C   0  0  0  0  0  2  0  0  0  0  0  0
  184.3110  176.6620  134.7430 C   0  0  0  0  0  2  0  0  0  0  0  0
  180.8040  176.7410  137.2960 C   0  0  2  0  0  3  0  0  0  0  0  0
  183.0420  177.1350  135.3910 C   0  0  0  0  0  0  0  0  0  0  0  0
  179.9910  176.4590  138.4900 N   0  0  0  0  0  0  0  0  0  0  0  0
  181.9940  177.2240  134.6270 N   0  0  0  0  0  0  0  0  0  0  0  0
  183.1350  177.5970  136.8520 C   0  0  2  0  0  3  0  0  0  0  0  0
  185.2770  176.2680  137.0330 C   0  0  0  0  0  2  0  0  0  0  0  0
  180.6860  177.7810  134.9330 C   0  0  2  0  0  3  0  0  0  0  0  0
  183.9320  176.5740  137.6750 C   0  0  0  0  0  2  0  0  0  0  0  0
  180.9000  176.0970  139.5790 C   0  0  0  0  0  2  0  0  0  0  0  0
  181.7890  177.8930  137.5330 C   0  0  2  0  0  3  0  0  0  0  0  0
  185.0500  175.6730  135.6440 C   0  0  2  0  0  3  0  0  0  0  0  0
  181.8140  178.4360  138.9960 C   0  0  1  0  0  0  0  0  0  0  0  0
  186.2970  175.2510  135.0450 N   0  0  0  0  0  0  0  0  0  0  0  0
  187.4240  175.3580  135.6540 C   0  0  0  0  0  2  0  0  0  0  0  0
  179.7200  179.9360  134.9850 O   0  0  0  0  0  0  0  0  0  0  0  0
  180.7380  179.2700  135.0780 C   0  0  0  0  0  3  0  0  0  0  0  0
  180.6330  179.1730  139.2750 O   0  0  0  0  0  0  0  0  0  0  0  0
  180.8740  180.5520  139.1340 C   0  0  0  0  0  2  0  0  0  0  0  0
  180.4050  182.4140  138.0500 C   0  0  0  0  0  1  0  0  0  0  0  0
  180.1390  181.0450  138.0580 O   0  0  0  0  0  0  0  0  0  0  0  0
  183.0720  179.2950  139.2510 C   0  0  0  0  0  2  0  0  0  0  0  0
  183.8530  178.8380  140.4750 C   0  0  0  0  0  2  0  0  0  0  0  0
  185.1830  179.4190  140.4440 N   0  0  0  0  0  2  0  0  0  0  0  0
  184.8630  178.3950  142.6160 C   0  0  0  0  0  1  0  0  0  0  0  0
  185.8730  178.9440  141.6290 C   0  0  0  0  0  2  0  0  0  0  0  0
  179.2020  175.2610  138.2380 C   0  0  0  0  0  2  0  0  0  0  0  0
  179.9000  174.0550  138.8390 C   0  0  0  0  0  2  0  0  0  0  0  0
  179.4700  172.0840  137.3610 C   0  0  0  0  0  3  0  0  0  0  0  0
  180.3190  173.1210  137.7600 C   0  0  0  0  0  0  0  0  0  0  0  0
  181.5760  173.2600  137.1630 C   0  0  0  0  0  3  0  0  0  0  0  0
  183.1960  172.5080  135.5860 F   0  0  0  0  0  0  0  0  0  0  0  0
  181.1270  171.3380  135.7610 C   0  0  0  0  0  3  0  0  0  0  0  0
  181.9790  172.3710  136.1630 C   0  0  0  0  0  0  0  0  0  0  0  0
  179.8730  171.1940  136.3600 C   0  0  0  0  0  3  0  0  0  0  0  0
  3  5  1  0  0  0  0
  3 14  1  0  0  0  0
  4  1  1  6  0  0  0
  4 13  1  0  0  0  0
  4  6  1  0  0  0  0
  5  8  1  0  0  0  0
  6 12  1  0  0  0  0
  7 10  1  0  0  0  0
  7  5  2  0  0  0  0
  8 13  1  0  0  0  0
  8 11  1  1  0  0  0
  9 11  1  0  0  0  0
 10 19  1  1  0  0  0
 10  1  1  0  0  0  0
 12  2  1  0  0  0  0
 13 15  1  0  0  0  0
 14  9  1  0  0  0  0
 15 24  1  0  0  0  0
 15 20  1  0  0  0  0
 15  2  1  0  0  0  0
 16 14  1  0  0  0  0
 16 17  2  0  0  0  0
 18 19  2  0  0  0  0
 21 20  1  0  0  0  0
 22 23  1  0  0  0  0
 23 21  1  0  0  0  0
 24 25  1  0  0  0  0
 26 25  1  0  0  0  0
 26 28  1  0  0  0  0
 28 27  1  0  0  0  0
 29  6  1  0  0  0  0
 29 30  1  0  0  0  0
 31 32  1  0  0  0  0
 32 30  1  0  0  0  0
 33 32  2  0  0  0  0
 34 36  1  0  0  0  0
 35 36  2  0  0  0  0
 35 37  1  0  0  0  0
 36 33  1  0  0  0  0
 37 31  2  0  0  0  0
M  END
>  <MODEL>
4

>  <REMARK>
 VINA RESULT:      -4.4      2.890      7.213
  Name = 
  12 active torsions:
  status: ('A' for Active; 'I' for Inactive)
    1  A    between atoms: O_1  and  C_5
    2  A    between atoms: O_1  and  C_36
    3  A    between atoms: N_3  and  C_32
    4  A    between atoms: C_5  and  O_23
    5  A    between atoms: C_6  and  C_31
    6  A    between atoms: N_14  and  C_37
    7  A    between atoms: C_17  and  N_26
    8  A    between atoms: C_17  and  C_33
    9  A    between atoms: CA_24  and  C_28
   10  A    between atoms: N_26  and  C_34
   11  A    between atoms: C_31  and  C_37
   12  A    between atoms: C_33  and  C_36
                            x       y       z     vdW  Elec       q    Type
                         _______ _______ _______ _____ _____    ______ ____

>  <TORSDO>
F 12

$$$$
=
 OpenBabel10262422583D

 37 40  0  0  1  0  0  0  0  0999 V2000
  183.2280  179.5110  139.6040 C   0  0  0  0  0  2  0  0  0  0  0  0
  181.7700  176.6470  136.6930 C   0  0  0  0  0  2  0  0  0  0  0  0
  187.2540  178.1660  137.8560 C   0  0  0  0  0  2  0  0  0  0  0  0
  182.9780  178.7560  138.2940 C   0  0  2  0  0  3  0  0  0  0  0  0
  185.8820  178.1800  138.4650 C   0  0  0  0  0  0  0  0  0  0  0  0
  181.5720  178.8410  137.8700 N   0  0  0  0  0  0  0  0  0  0  0  0
  185.6910  178.9990  139.4560 N   0  0  0  0  0  0  0  0  0  0  0  0
  184.8810  177.1350  137.9530 C   0  0  2  0  0  3  0  0  0  0  0  0
  186.3120  176.9220  135.8810 C   0  0  0  0  0  2  0  0  0  0  0  0
  184.5340  179.1270  140.3250 C   0  0  2  0  0  3  0  0  0  0  0  0
  184.8990  177.1000  136.4180 C   0  0  0  0  0  2  0  0  0  0  0  0
  181.4460  178.1460  136.5870 C   0  0  0  0  0  2  0  0  0  0  0  0
  183.4400  177.3040  138.4630 C   0  0  2  0  0  3  0  0  0  0  0  0
  187.1740  178.1000  136.3300 C   0  0  2  0  0  3  0  0  0  0  0  0
  182.3850  176.2330  138.0390 C   0  0  1  0  0  0  0  0  0  0  0  0
  188.4940  178.0380  135.7400 N   0  0  0  0  0  0  0  0  0  0  0  0
  189.2000  176.9640  135.7450 C   0  0  0  0  0  2  0  0  0  0  0  0
  184.6700  178.0470  142.4220 O   0  0  0  0  0  0  0  0  0  0  0  0
  184.3920  177.9480  141.2390 C   0  0  0  0  0  3  0  0  0  0  0  0
  181.3260  176.1760  138.9820 O   0  0  0  0  0  0  0  0  0  0  0  0
  180.7560  174.8900  138.9990 C   0  0  0  0  0  2  0  0  0  0  0  0
  179.0980  173.6110  138.3100 C   0  0  0  0  0  1  0  0  0  0  0  0
  179.4690  174.9450  138.4670 O   0  0  0  0  0  0  0  0  0  0  0  0
  183.0390  174.8450  137.8620 C   0  0  0  0  0  2  0  0  0  0  0  0
  182.8320  174.2770  136.4650 C   0  0  0  0  0  2  0  0  0  0  0  0
  182.8640  172.8260  136.5240 N   0  0  0  0  0  2  0  0  0  0  0  0
  184.2500  172.3590  134.5940 C   0  0  0  0  0  1  0  0  0  0  0  0
  184.1930  172.4210  136.1060 C   0  0  0  0  0  2  0  0  0  0  0  0
  181.2600  180.2330  137.5800 C   0  0  0  0  0  2  0  0  0  0  0  0
  179.8670  180.5610  138.0860 C   0  0  0  0  0  2  0  0  0  0  0  0
  179.1420  178.6660  139.5490 C   0  0  0  0  0  3  0  0  0  0  0  0
  179.6620  179.9600  139.4310 C   0  0  0  0  0  0  0  0  0  0  0  0
  179.9600  180.6980  140.5810 C   0  0  0  0  0  3  0  0  0  0  0  0
  180.0380  180.8570  142.9570 F   0  0  0  0  0  0  0  0  0  0  0  0
  179.2340  178.8470  141.9620 C   0  0  0  0  0  3  0  0  0  0  0  0
  179.7480  180.1410  141.8450 C   0  0  0  0  0  0  0  0  0  0  0  0
  178.9310  178.1090  140.8140 C   0  0  0  0  0  3  0  0  0  0  0  0
  1 10  1  0  0  0  0
  2 15  1  0  0  0  0
  3  5  1  0  0  0  0
  4 13  1  0  0  0  0
  4  1  1  1  0  0  0
  5  7  2  0  0  0  0
  6  4  1  0  0  0  0
  7 10  1  0  0  0  0
  8 11  1  6  0  0  0
  8 13  1  0  0  0  0
  8  5  1  0  0  0  0
  9 14  1  0  0  0  0
  9 11  1  0  0  0  0
 10 19  1  6  0  0  0
 12  2  1  0  0  0  0
 12  6  1  0  0  0  0
 14  3  1  0  0  0  0
 15 13  1  0  0  0  0
 15 20  1  0  0  0  0
 16 17  2  0  0  0  0
 16 14  1  0  0  0  0
 19 18  2  0  0  0  0
 20 21  1  0  0  0  0
 22 23  1  0  0  0  0
 23 21  1  0  0  0  0
 24 15  1  0  0  0  0
 25 26  1  0  0  0  0
 25 24  1  0  0  0  0
 27 28  1  0  0  0  0
 28 26  1  0  0  0  0
 29  6  1  0  0  0  0
 29 30  1  0  0  0  0
 30 32  1  0  0  0  0
 31 37  1  0  0  0  0
 32 31  2  0  0  0  0
 32 33  1  0  0  0  0
 33 36  2  0  0  0  0
 36 35  1  0  0  0  0
 36 34  1  0  0  0  0
 37 35  2  0  0  0  0
M  END
>  <MODEL>
5

>  <REMARK>
 VINA RESULT:      -4.2      3.499      6.857
  Name = 
  12 active torsions:
  status: ('A' for Active; 'I' for Inactive)
    1  A    between atoms: O_1  and  C_5
    2  A    between atoms: O_1  and  C_36
    3  A    between atoms: N_3  and  C_32
    4  A    between atoms: C_5  and  O_23
    5  A    between atoms: C_6  and  C_31
    6  A    between atoms: N_14  and  C_37
    7  A    between atoms: C_17  and  N_26
    8  A    between atoms: C_17  and  C_33
    9  A    between atoms: CA_24  and  C_28
   10  A    between atoms: N_26  and  C_34
   11  A    between atoms: C_31  and  C_37
   12  A    between atoms: C_33  and  C_36
                            x       y       z     vdW  Elec       q    Type
                         _______ _______ _______ _____ _____    ______ ____

>  <TORSDO>
F 12

$$$$
=
 OpenBabel10262422583D

 37 40  0  0  1  0  0  0  0  0999 V2000
  181.4320  177.1450  140.7800 C   0  0  0  0  0  2  0  0  0  0  0  0
  182.8140  178.3000  136.8350 C   0  0  0  0  0  2  0  0  0  0  0  0
  179.5880  173.7140  138.3500 C   0  0  0  0  0  2  0  0  0  0  0  0
  182.0740  177.1150  139.3890 C   0  0  2  0  0  3  0  0  0  0  0  0
  179.9940  175.0720  138.8430 C   0  0  0  0  0  0  0  0  0  0  0  0
  183.2120  178.0420  139.2870 N   0  0  0  0  0  0  0  0  0  0  0  0
  179.8480  175.3010  140.1140 N   0  0  0  0  0  0  0  0  0  0  0  0
  180.4110  176.1030  137.7840 C   0  0  2  0  0  3  0  0  0  0  0  0
  180.8340  174.1700  136.2120 C   0  0  0  0  0  2  0  0  0  0  0  0
  180.0140  176.5470  140.8430 C   0  0  2  0  0  3  0  0  0  0  0  0
  181.3900  175.4640  136.7880 C   0  0  0  0  0  2  0  0  0  0  0  0
  183.7920  177.8980  137.9500 C   0  0  0  0  0  2  0  0  0  0  0  0
  180.9970  177.4120  138.3380 C   0  0  2  0  0  3  0  0  0  0  0  0
  180.6030  173.1710  137.3440 C   0  0  2  0  0  3  0  0  0  0  0  0
  181.3740  178.5330  137.3190 C   0  0  1  0  0  0  0  0  0  0  0  0
  180.1910  171.8830  136.8300 N   0  0  0  0  0  0  0  0  0  0  0  0
  179.2370  171.7550  135.9770 C   0  0  0  0  0  2  0  0  0  0  0  0
  178.9350  178.6410  141.0180 O   0  0  0  0  0  0  0  0  0  0  0  0
  178.9310  177.5290  140.5180 C   0  0  0  0  0  3  0  0  0  0  0  0
  181.3450  179.8070  137.9450 O   0  0  0  0  0  0  0  0  0  0  0  0
  180.0530  180.0840  138.4260 C   0  0  0  0  0  2  0  0  0  0  0  0
  180.6160  182.2000  138.1680 C   0  0  0  0  0  1  0  0  0  0  0  0
  180.0560  181.3120  139.0850 O   0  0  0  0  0  0  0  0  0  0  0  0
  180.4420  178.5040  136.0870 C   0  0  0  0  0  2  0  0  0  0  0  0
  179.9650  179.8920  135.6850 C   0  0  0  0  0  2  0  0  0  0  0  0
  180.7940  180.3930  134.6040 N   0  0  0  0  0  2  0  0  0  0  0  0
  179.4180  182.3170  135.1280 C   0  0  0  0  0  1  0  0  0  0  0  0
  180.7960  181.8400  134.7160 C   0  0  0  0  0  2  0  0  0  0  0  0
  184.2530  177.5980  140.2030 C   0  0  0  0  0  2  0  0  0  0  0  0
  184.8940  178.8010  140.8700 C   0  0  0  0  0  2  0  0  0  0  0  0
  186.0480  178.1260  142.9830 C   0  0  0  0  0  3  0  0  0  0  0  0
  184.9040  178.6170  142.3460 C   0  0  0  0  0  0  0  0  0  0  0  0
  183.7600  178.9070  143.0960 C   0  0  0  0  0  3  0  0  0  0  0  0
  182.6540  178.9970  145.2040 F   0  0  0  0  0  0  0  0  0  0  0  0
  184.9080  178.2290  145.1170 C   0  0  0  0  0  3  0  0  0  0  0  0
  183.7630  178.7150  144.4800 C   0  0  0  0  0  0  0  0  0  0  0  0
  186.0510  177.9340  144.3680 C   0  0  0  0  0  3  0  0  0  0  0  0
  1 10  1  0  0  0  0
  2 15  1  0  0  0  0
  2 12  1  0  0  0  0
  3  5  1  0  0  0  0
  4  1  1  1  0  0  0
  5  7  2  0  0  0  0
  6  4  1  0  0  0  0
  6 29  1  0  0  0  0
  7 10  1  0  0  0  0
  8 11  1  6  0  0  0
  8 13  1  0  0  0  0
  8  5  1  0  0  0  0
  9 11  1  0  0  0  0
  9 14  1  0  0  0  0
 10 19  1  6  0  0  0
 12  6  1  0  0  0  0
 13  4  1  0  0  0  0
 14  3  1  0  0  0  0
 15 20  1  0  0  0  0
 15 13  1  0  0  0  0
 16 14  1  0  0  0  0
 17 16  2  0  0  0  0
 19 18  2  0  0  0  0
 20 21  1  0  0  0  0
 21 23  1  0  0  0  0
 22 23  1  0  0  0  0
 24 15  1  0  0  0  0
 25 24  1  0  0  0  0
 26 28  1  0  0  0  0
 26 25  1  0  0  0  0
 28 27  1  0  0  0  0
 29 30  1  0  0  0  0
 30 32  1  0  0  0  0
 31 37  1  0  0  0  0
 32 31  2  0  0  0  0
 32 33  1  0  0  0  0
 33 36  2  0  0  0  0
 36 35  1  0  0  0  0
 36 34  1  0  0  0  0
 37 35  2  0  0  0  0
M  END
>  <MODEL>
6

>  <REMARK>
 VINA RESULT:      -3.7      2.185      3.320
  Name = 
  12 active torsions:
  status: ('A' for Active; 'I' for Inactive)
    1  A    between atoms: O_1  and  C_5
    2  A    between atoms: O_1  and  C_36
    3  A    between atoms: N_3  and  C_32
    4  A    between atoms: C_5  and  O_23
    5  A    between atoms: C_6  and  C_31
    6  A    between atoms: N_14  and  C_37
    7  A    between atoms: C_17  and  N_26
    8  A    between atoms: C_17  and  C_33
    9  A    between atoms: CA_24  and  C_28
   10  A    between atoms: N_26  and  C_34
   11  A    between atoms: C_31  and  C_37
   12  A    between atoms: C_33  and  C_36
                            x       y       z     vdW  Elec       q    Type
                         _______ _______ _______ _____ _____    ______ ____

>  <TORSDO>
F 12

$$$$
=
 OpenBabel10262422583D

 37 40  0  0  1  0  0  0  0  0999 V2000
  187.9850  177.8690  140.3630 C   0  0  0  0  0  2  0  0  0  0  0  0
  191.8030  176.2940  141.6860 C   0  0  0  0  0  2  0  0  0  0  0  0
  189.1700  175.5920  136.5570 C   0  0  0  0  0  2  0  0  0  0  0  0
  189.1400  176.9150  140.6890 C   0  0  2  0  0  3  0  0  0  0  0  0
  189.1780  176.4990  137.7530 C   0  0  0  0  0  0  0  0  0  0  0  0
  189.4110  176.8510  142.1340 N   0  0  0  0  0  0  0  0  0  0  0  0
  188.1310  177.2500  137.9250 N   0  0  0  0  0  0  0  0  0  0  0  0
  190.4720  176.5540  138.5770 C   0  0  2  0  0  3  0  0  0  0  0  0
  191.0960  174.3250  137.5640 C   0  0  0  0  0  2  0  0  0  0  0  0
  187.9190  178.3150  138.8910 C   0  0  2  0  0  3  0  0  0  0  0  0
  190.9810  175.1310  138.8500 C   0  0  0  0  0  2  0  0  0  0  0  0
  190.4820  175.8760  142.3490 C   0  0  0  0  0  2  0  0  0  0  0  0
  190.3780  177.3450  139.8920 C   0  0  2  0  0  3  0  0  0  0  0  0
  189.7190  174.2110  136.9140 C   0  0  2  0  0  3  0  0  0  0  0  0
  191.6770  177.5020  140.7440 C   0  0  1  0  0  0  0  0  0  0  0  0
  189.7560  173.3470  135.7540 N   0  0  0  0  0  0  0  0  0  0  0  0
  190.8580  173.0090  135.1840 C   0  0  0  0  0  2  0  0  0  0  0  0
  189.0380  179.8000  137.4340 O   0  0  0  0  0  0  0  0  0  0  0  0
  188.7610  179.5150  138.5870 C   0  0  0  0  0  3  0  0  0  0  0  0
  191.6000  178.6610  141.5620 O   0  0  0  0  0  0  0  0  0  0  0  0
  192.1080  178.3870  142.8440 C   0  0  0  0  0  2  0  0  0  0  0  0
  191.1660  178.4580  144.8360 C   0  0  0  0  0  1  0  0  0  0  0  0
  191.5440  179.2670  143.7660 O   0  0  0  0  0  0  0  0  0  0  0  0
  192.9320  177.5450  139.8460 C   0  0  0  0  0  2  0  0  0  0  0  0
  193.9650  176.4980  140.2360 C   0  0  0  0  0  2  0  0  0  0  0  0
  194.4640  175.8420  139.0420 N   0  0  0  0  0  2  0  0  0  0  0  0
  195.4130  173.6380  138.7110 C   0  0  0  0  0  1  0  0  0  0  0  0
  195.5220  174.9450  139.4690 C   0  0  0  0  0  2  0  0  0  0  0  0
  188.2430  176.2860  142.7970 C   0  0  0  0  0  2  0  0  0  0  0  0
  188.2020  176.7520  144.2410 C   0  0  0  0  0  2  0  0  0  0  0  0
  186.1520  177.9390  143.4390 C   0  0  0  0  0  3  0  0  0  0  0  0
  186.9270  177.4720  144.5050 C   0  0  0  0  0  0  0  0  0  0  0  0
  186.5170  177.7090  145.8210 C   0  0  0  0  0  3  0  0  0  0  0  0
  184.9330  178.6300  147.3450 F   0  0  0  0  0  0  0  0  0  0  0  0
  184.5520  178.8630  145.0040 C   0  0  0  0  0  3  0  0  0  0  0  0
  185.3290  178.4020  146.0700 C   0  0  0  0  0  0  0  0  0  0  0  0
  184.9630  178.6320  143.6890 C   0  0  0  0  0  3  0  0  0  0  0  0
  2 12  1  0  0  0  0
  3 14  1  0  0  0  0
  3  5  1  0  0  0  0
  4  1  1  1  0  0  0
  4  6  1  0  0  0  0
  5  7  2  0  0  0  0
  5  8  1  0  0  0  0
  6 12  1  0  0  0  0
  6 29  1  0  0  0  0
  7 10  1  0  0  0  0
  8 11  1  1  0  0  0
  8 13  1  0  0  0  0
  9 11  1  0  0  0  0
 10 19  1  1  0  0  0
 10  1  1  0  0  0  0
 13  4  1  0  0  0  0
 13 15  1  0  0  0  0
 14  9  1  0  0  0  0
 15 20  1  0  0  0  0
 15  2  1  0  0  0  0
 16 14  1  0  0  0  0
 17 16  2  0  0  0  0
 18 19  2  0  0  0  0
 20 21  1  0  0  0  0
 21 23  1  0  0  0  0
 23 22  1  0  0  0  0
 24 25  1  0  0  0  0
 24 15  1  0  0  0  0
 26 28  1  0  0  0  0
 26 25  1  0  0  0  0
 27 28  1  0  0  0  0
 29 30  1  0  0  0  0
 30 32  1  0  0  0  0
 31 37  2  0  0  0  0
 31 32  1  0  0  0  0
 32 33  2  0  0  0  0
 33 36  1  0  0  0  0
 35 36  2  0  0  0  0
 36 34  1  0  0  0  0
 37 35  1  0  0  0  0
M  END
>  <MODEL>
7

>  <REMARK>
 VINA RESULT:      -3.6      6.106      9.054
  Name = 
  12 active torsions:
  status: ('A' for Active; 'I' for Inactive)
    1  A    between atoms: O_1  and  C_5
    2  A    between atoms: O_1  and  C_36
    3  A    between atoms: N_3  and  C_32
    4  A    between atoms: C_5  and  O_23
    5  A    between atoms: C_6  and  C_31
    6  A    between atoms: N_14  and  C_37
    7  A    between atoms: C_17  and  N_26
    8  A    between atoms: C_17  and  C_33
    9  A    between atoms: CA_24  and  C_28
   10  A    between atoms: N_26  and  C_34
   11  A    between atoms: C_31  and  C_37
   12  A    between atoms: C_33  and  C_36
                            x       y       z     vdW  Elec       q    Type
                         _______ _______ _______ _____ _____    ______ ____

>  <TORSDO>
F 12

$$$$
=
 OpenBabel10262422583D

 37 40  0  0  1  0  0  0  0  0999 V2000
  181.4510  176.5430  135.8120 C   0  0  0  0  0  2  0  0  0  0  0  0
  182.9010  176.8720  139.8860 C   0  0  0  0  0  2  0  0  0  0  0  0
  185.9260  177.0700  134.9320 C   0  0  0  0  0  2  0  0  0  0  0  0
  182.2460  176.3210  137.1040 C   0  0  2  0  0  3  0  0  0  0  0  0
  184.5320  177.2490  135.4590 C   0  0  0  0  0  0  0  0  0  0  0  0
  181.3950  175.8210  138.1950 N   0  0  0  0  0  0  0  0  0  0  0  0
  183.5650  177.1730  134.5940 N   0  0  0  0  0  0  0  0  0  0  0  0
  184.3910  177.6400  136.9370 C   0  0  2  0  0  3  0  0  0  0  0  0
  186.7270  176.7470  137.2950 C   0  0  0  0  0  2  0  0  0  0  0  0
  182.1500  177.4460  134.7790 C   0  0  2  0  0  3  0  0  0  0  0  0
  185.2930  176.7490  137.8040 C   0  0  0  0  0  2  0  0  0  0  0  0
  182.2490  175.5840  139.3610 C   0  0  0  0  0  2  0  0  0  0  0  0
  182.9530  177.6290  137.4830 C   0  0  2  0  0  3  0  0  0  0  0  0
  186.7580  176.1970  135.8710 C   0  0  2  0  0  3  0  0  0  0  0  0
  182.7280  178.0850  138.9590 C   0  0  1  0  0  0  0  0  0  0  0  0
  188.1160  176.0600  135.3920 N   0  0  0  0  0  0  0  0  0  0  0  0
  189.1130  176.6190  135.9800 C   0  0  0  0  0  2  0  0  0  0  0  0
  180.7720  179.2990  135.2760 O   0  0  0  0  0  0  0  0  0  0  0  0
  181.8880  178.9070  134.9810 C   0  0  0  0  0  3  0  0  0  0  0  0
  181.4020  178.5610  139.1370 O   0  0  0  0  0  0  0  0  0  0  0  0
  181.0580  178.5430  140.5010 C   0  0  0  0  0  2  0  0  0  0  0  0
  179.0210  179.0250  141.1930 C   0  0  0  0  0  1  0  0  0  0  0  0
  180.2140  179.6160  140.7810 O   0  0  0  0  0  0  0  0  0  0  0  0
  183.7590  179.1590  139.3740 C   0  0  0  0  0  2  0  0  0  0  0  0
  184.7690  178.6370  140.3860 C   0  0  0  0  0  2  0  0  0  0  0  0
  184.5680  179.3060  141.6580 N   0  0  0  0  0  2  0  0  0  0  0  0
  185.1200  178.7860  143.9590 C   0  0  0  0  0  1  0  0  0  0  0  0
  184.5140  178.2680  142.6710 C   0  0  0  0  0  2  0  0  0  0  0  0
  180.8900  174.5070  137.8200 C   0  0  0  0  0  2  0  0  0  0  0  0
  182.0490  173.5410  137.6600 C   0  0  0  0  0  2  0  0  0  0  0  0
  182.4420  172.3110  135.5180 C   0  0  0  0  0  3  0  0  0  0  0  0
  181.6900  172.4750  136.6860 C   0  0  0  0  0  0  0  0  0  0  0  0
  180.5820  171.6550  136.9220 C   0  0  0  0  0  3  0  0  0  0  0  0
  179.1590  169.8750  136.2280 F   0  0  0  0  0  0  0  0  0  0  0  0
  180.9880  170.5000  134.8330 C   0  0  0  0  0  3  0  0  0  0  0  0
  180.2330  170.6680  135.9970 C   0  0  0  0  0  0  0  0  0  0  0  0
  182.0920  171.3220  134.5940 C   0  0  0  0  0  3  0  0  0  0  0  0
  3  5  1  0  0  0  0
  3 14  1  0  0  0  0
  4  1  1  6  0  0  0
  4 13  1  0  0  0  0
  4  6  1  0  0  0  0
  5  8  1  0  0  0  0
  6 12  1  0  0  0  0
  7 10  1  0  0  0  0
  7  5  2  0  0  0  0
  8 13  1  0  0  0  0
  8 11  1  1  0  0  0
  9 11  1  0  0  0  0
 10 19  1  1  0  0  0
 10  1  1  0  0  0  0
 12  2  1  0  0  0  0
 13 15  1  0  0  0  0
 14  9  1  0  0  0  0
 15 20  1  0  0  0  0
 15 24  1  0  0  0  0
 15  2  1  0  0  0  0
 16 14  1  0  0  0  0
 16 17  2  0  0  0  0
 19 18  2  0  0  0  0
 20 21  1  0  0  0  0
 21 23  1  0  0  0  0
 23 22  1  0  0  0  0
 24 25  1  0  0  0  0
 25 26  1  0  0  0  0
 26 28  1  0  0  0  0
 28 27  1  0  0  0  0
 29  6  1  0  0  0  0
 30 29  1  0  0  0  0
 31 32  1  0  0  0  0
 32 33  2  0  0  0  0
 32 30  1  0  0  0  0
 35 36  2  0  0  0  0
 36 34  1  0  0  0  0
 36 33  1  0  0  0  0
 37 35  1  0  0  0  0
 37 31  2  0  0  0  0
M  END
>  <MODEL>
8

>  <REMARK>
 VINA RESULT:      -3.3      3.434      8.068
  Name = 
  12 active torsions:
  status: ('A' for Active; 'I' for Inactive)
    1  A    between atoms: O_1  and  C_5
    2  A    between atoms: O_1  and  C_36
    3  A    between atoms: N_3  and  C_32
    4  A    between atoms: C_5  and  O_23
    5  A    between atoms: C_6  and  C_31
    6  A    between atoms: N_14  and  C_37
    7  A    between atoms: C_17  and  N_26
    8  A    between atoms: C_17  and  C_33
    9  A    between atoms: CA_24  and  C_28
   10  A    between atoms: N_26  and  C_34
   11  A    between atoms: C_31  and  C_37
   12  A    between atoms: C_33  and  C_36
                            x       y       z     vdW  Elec       q    Type
                         _______ _______ _______ _____ _____    ______ ____

>  <TORSDO>
F 12

$$$$
=
 OpenBabel10262422583D

 37 40  0  0  1  0  0  0  0  0999 V2000
  187.8050  178.2600  139.0890 C   0  0  0  0  0  2  0  0  0  0  0  0
  190.9340  175.2760  138.7480 C   0  0  0  0  0  2  0  0  0  0  0  0
  185.5310  175.1250  136.6240 C   0  0  0  0  0  2  0  0  0  0  0  0
  188.5730  176.9340  139.1340 C   0  0  2  0  0  3  0  0  0  0  0  0
  186.5660  176.0930  137.1180 C   0  0  0  0  0  0  0  0  0  0  0  0
  189.6910  176.9760  140.0890 N   0  0  0  0  0  0  0  0  0  0  0  0
  186.1440  177.2710  137.4720 N   0  0  0  0  0  0  0  0  0  0  0  0
  188.0330  175.6490  137.0300 C   0  0  2  0  0  3  0  0  0  0  0  0
  187.2020  173.2660  136.9040 C   0  0  0  0  0  2  0  0  0  0  0  0
  186.9180  178.4430  137.8440 C   0  0  2  0  0  3  0  0  0  0  0  0
  188.1820  174.2200  137.5720 C   0  0  0  0  0  2  0  0  0  0  0  0
  190.3210  175.6550  140.1050 C   0  0  0  0  0  2  0  0  0  0  0  0
  189.0430  176.5840  137.7170 C   0  0  2  0  0  3  0  0  0  0  0  0
  185.7750  173.7260  137.1900 C   0  0  2  0  0  3  0  0  0  0  0  0
  190.5590  176.2310  137.6030 C   0  0  1  0  0  0  0  0  0  0  0  0
  184.8070  172.7800  136.6790 N   0  0  0  0  0  0  0  0  0  0  0  0
  183.9880  173.0760  135.7320 C   0  0  0  0  0  2  0  0  0  0  0  0
  188.6770  179.6510  136.8300 O   0  0  0  0  0  0  0  0  0  0  0  0
  187.6410  179.0270  136.6700 C   0  0  0  0  0  3  0  0  0  0  0  0
  191.3550  177.3970  137.7550 O   0  0  0  0  0  0  0  0  0  0  0  0
  192.6390  177.0530  138.2170 C   0  0  0  0  0  2  0  0  0  0  0  0
  193.9350  176.9790  139.9990 C   0  0  0  0  0  1  0  0  0  0  0  0
  192.8850  177.6960  139.4290 O   0  0  0  0  0  0  0  0  0  0  0  0
  190.8690  175.5240  136.2660 C   0  0  0  0  0  2  0  0  0  0  0  0
  191.7820  174.3180  136.4420 C   0  0  0  0  0  2  0  0  0  0  0  0
  191.9950  173.6810  135.1550 N   0  0  0  0  0  2  0  0  0  0  0  0
  194.0580  173.6050  136.4220 C   0  0  0  0  0  1  0  0  0  0  0  0
  193.4090  173.3660  135.0740 C   0  0  0  0  0  2  0  0  0  0  0  0
  189.1470  177.1540  141.4290 C   0  0  0  0  0  2  0  0  0  0  0  0
  189.7950  176.1640  142.3790 C   0  0  0  0  0  2  0  0  0  0  0  0
  188.1940  176.8580  144.1710 C   0  0  0  0  0  3  0  0  0  0  0  0
  189.5030  176.5460  143.7870 C   0  0  0  0  0  0  0  0  0  0  0  0
  190.5410  176.6240  144.7200 C   0  0  0  0  0  3  0  0  0  0  0  0
  191.2760  177.0770  146.9410 F   0  0  0  0  0  0  0  0  0  0  0  0
  188.9620  177.3090  146.4230 C   0  0  0  0  0  3  0  0  0  0  0  0
  190.2700  177.0030  146.0380 C   0  0  0  0  0  0  0  0  0  0  0  0
  187.9240  177.2360  145.4900 C   0  0  0  0  0  3  0  0  0  0  0  0
  2 12  1  0  0  0  0
  3  5  1  0  0  0  0
  3 14  1  0  0  0  0
  4  1  1  6  0  0  0
  4  6  1  0  0  0  0
  5  7  2  0  0  0  0
  6 12  1  0  0  0  0
  6 29  1  0  0  0  0
  7 10  1  0  0  0  0
  8  5  1  0  0  0  0
  8 11  1  1  0  0  0
  8 13  1  0  0  0  0
  9 14  1  0  0  0  0
  9 11  1  0  0  0  0
 10 19  1  6  0  0  0
 10  1  1  0  0  0  0
 13  4  1  0  0  0  0
 15 13  1  0  0  0  0
 15 20  1  0  0  0  0
 15  2  1  0  0  0  0
 16 14  1  0  0  0  0
 17 16  2  0  0  0  0
 19 18  2  0  0  0  0
 20 21  1  0  0  0  0
 21 23  1  0  0  0  0
 23 22  1  0  0  0  0
 24 25  1  0  0  0  0
 24 15  1  0  0  0  0
 26 25  1  0  0  0  0
 28 26  1  0  0  0  0
 28 27  1  0  0  0  0
 29 30  1  0  0  0  0
 30 32  1  0  0  0  0
 31 37  1  0  0  0  0
 32 31  2  0  0  0  0
 32 33  1  0  0  0  0
 33 36  2  0  0  0  0
 36 35  1  0  0  0  0
 36 34  1  0  0  0  0
 37 35  2  0  0  0  0
M  END
>  <MODEL>
9

>  <REMARK>
 VINA RESULT:      -2.8      5.687      7.956
  Name = 
  12 active torsions:
  status: ('A' for Active; 'I' for Inactive)
    1  A    between atoms: O_1  and  C_5
    2  A    between atoms: O_1  and  C_36
    3  A    between atoms: N_3  and  C_32
    4  A    between atoms: C_5  and  O_23
    5  A    between atoms: C_6  and  C_31
    6  A    between atoms: N_14  and  C_37
    7  A    between atoms: C_17  and  N_26
    8  A    between atoms: C_17  and  C_33
    9  A    between atoms: CA_24  and  C_28
   10  A    between atoms: N_26  and  C_34
   11  A    between atoms: C_31  and  C_37
   12  A    between atoms: C_33  and  C_36
                            x       y       z     vdW  Elec       q    Type
                         _______ _______ _______ _____ _____    ______ ____

>  <TORSDO>
F 12

$$$$
