=
 OpenBabel10262420543D

 28 32  0  0  1  0  0  0  0  0999 V2000
  188.9140  177.1270  138.9440 N   0  0  0  0  0  0  0  0  0  0  0  0
  184.7270  179.1850  138.6940 C   0  0  0  0  0  3  0  0  0  0  0  0
  187.4360  176.9640  134.5940 C   0  0  0  0  0  1  0  0  0  0  0  0
  184.2550  176.8480  138.2330 C   0  0  0  0  0  0  0  0  0  0  0  0
  186.3210  177.8980  137.1940 C   0  0  1  0  0  3  0  0  0  0  0  0
  182.7460  178.1440  139.6220 C   0  0  0  0  0  0  0  0  0  0  0  0
  185.1010  177.9710  138.0930 C   0  0  0  0  0  0  0  0  0  0  0  0
  185.6080  175.7100  136.4820 C   0  0  0  0  0  2  0  0  0  0  0  0
  183.0950  176.9370  139.0100 C   0  0  0  0  0  3  0  0  0  0  0  0
  189.0600  177.2500  136.4590 C   0  0  2  0  0  3  0  0  0  0  0  0
  187.4850  178.7540  137.7400 C   0  0  0  0  0  2  0  0  0  0  0  0
  184.6110  175.5270  137.6170 C   0  0  0  0  0  2  0  0  0  0  0  0
  190.2000  175.5850  137.5580 C   0  0  0  0  0  2  0  0  0  0  0  0
  187.8420  176.4480  135.9730 C   0  0  1  0  0  3  0  0  0  0  0  0
  190.2480  176.4800  136.4710 O   0  0  0  0  0  0  0  0  0  0  0  0
  181.2930  178.2450  140.5910 Cl  0  0  0  0  0  0  0  0  0  0  0  0
  183.5600  179.2680  139.4590 C   0  0  0  0  0  3  0  0  0  0  0  0
  186.7430  176.5030  136.9590 N   0  0  1  0  0  0  0  0  0  0  0  0
  190.1560  176.3590  138.8700 C   0  0  0  0  0  2  0  0  0  0  0  0
  188.8370  178.0220  137.7800 C   0  0  1  0  0  3  0  0  0  0  0  0
  189.0250  177.9690  140.1310 C   0  0  0  0  0  2  0  0  0  0  0  0
  188.0080  177.5780  141.2030 C   0  0  2  0  0  3  0  0  0  0  0  0
  186.6850  177.6550  143.7430 C   0  0  0  0  0  0  0  0  0  0  0  0
  187.0280  178.7140  141.5100 C   0  0  0  0  0  2  0  0  0  0  0  0
  188.6690  177.0560  142.4520 C   0  0  0  0  0  3  0  0  0  0  0  0
  188.0330  177.0720  143.6260 C   0  0  0  0  0  3  0  0  0  0  0  0
  186.0970  177.6450  144.8550 O   0  0  0  0  0  0  0  0  0  0  0  0
  186.0010  178.2400  142.5390 C   0  0  0  0  0  2  0  0  0  0  0  0
  1 21  1  0  0  0  0
  2 17  1  0  0  0  0
  4  9  2  0  0  0  0
  5 11  1  1  0  0  0
  5  7  1  0  0  0  0
  6 16  1  0  0  0  0
  7  4  1  0  0  0  0
  7  2  2  0  0  0  0
  8 12  1  0  0  0  0
  9  6  1  0  0  0  0
 10 15  1  1  0  0  0
 10 20  1  0  0  0  0
 12  4  1  0  0  0  0
 13 19  1  0  0  0  0
 14  3  1  6  0  0  0
 14 10  1  0  0  0  0
 14 18  1  0  0  0  0
 15 13  1  0  0  0  0
 17  6  2  0  0  0  0
 18  8  1  6  0  0  0
 18  5  1  0  0  0  0
 19  1  1  0  0  0  0
 20 11  1  6  0  0  0
 20  1  1  0  0  0  0
 22 21  1  6  0  0  0
 22 24  1  0  0  0  0
 22 25  1  0  0  0  0
 23 27  2  0  0  0  0
 24 28  1  0  0  0  0
 25 26  2  0  0  0  0
 26 23  1  0  0  0  0
 28 23  1  0  0  0  0
M  END
>  <MODEL>
1

>  <REMARK>
 VINA RESULT:      -6.5      0.000      0.000
  Name = 
  2 active torsions:
  status: ('A' for Active; 'I' for Inactive)
    1  A    between atoms: N_1  and  C_2
    2  A    between atoms: C_2  and  C_3
                            x       y       z     vdW  Elec       q    Type
                         _______ _______ _______ _____ _____    ______ ____

>  <TORSDO>
F 2

$$$$
=
 OpenBabel10262420543D

 28 32  0  0  1  0  0  0  0  0999 V2000
  188.8510  177.2400  139.5090 N   0  0  0  0  0  0  0  0  0  0  0  0
  184.5670  177.9010  137.7670 C   0  0  0  0  0  3  0  0  0  0  0  0
  188.9630  176.5090  134.9720 C   0  0  0  0  0  1  0  0  0  0  0  0
  184.9510  175.5200  137.4800 C   0  0  0  0  0  0  0  0  0  0  0  0
  186.8540  177.1260  136.9830 C   0  0  1  0  0  3  0  0  0  0  0  0
  182.7730  176.3270  138.1830 C   0  0  0  0  0  0  0  0  0  0  0  0
  185.4410  176.8440  137.4610 C   0  0  0  0  0  0  0  0  0  0  0  0
  187.0590  174.8060  136.3690 C   0  0  0  0  0  2  0  0  0  0  0  0
  183.6270  175.2690  137.8580 C   0  0  0  0  0  3  0  0  0  0  0  0
  189.7490  177.3320  137.1860 C   0  0  2  0  0  3  0  0  0  0  0  0
  187.4870  178.3130  137.7410 C   0  0  0  0  0  2  0  0  0  0  0  0
  185.8440  174.3560  137.1680 C   0  0  0  0  0  2  0  0  0  0  0  0
  190.8960  176.1300  138.7730 C   0  0  0  0  0  2  0  0  0  0  0  0
  189.0320  176.1810  136.4620 C   0  0  1  0  0  3  0  0  0  0  0  0
  191.0360  176.9660  137.6470 O   0  0  0  0  0  0  0  0  0  0  0  0
  181.1200  176.0020  138.6540 Cl  0  0  0  0  0  0  0  0  0  0  0  0
  183.2420  177.6420  138.1320 C   0  0  0  0  0  3  0  0  0  0  0  0
  187.7060  175.9220  137.0600 N   0  0  1  0  0  0  0  0  0  0  0  0
  190.2150  176.8900  139.9050 C   0  0  0  0  0  2  0  0  0  0  0  0
  188.9030  178.0350  138.2730 C   0  0  1  0  0  3  0  0  0  0  0  0
  188.3310  178.1070  140.5610 C   0  0  0  0  0  2  0  0  0  0  0  0
  188.5100  177.4910  141.9480 C   0  0  2  0  0  3  0  0  0  0  0  0
  188.5840  177.4030  144.8110 C   0  0  0  0  0  0  0  0  0  0  0  0
  187.1980  177.4520  142.7360 C   0  0  0  0  0  2  0  0  0  0  0  0
  189.6130  178.1570  142.7290 C   0  0  0  0  0  3  0  0  0  0  0  0
  189.6520  178.0870  144.0620 C   0  0  0  0  0  3  0  0  0  0  0  0
  188.6480  177.3340  146.0650 O   0  0  0  0  0  0  0  0  0  0  0  0
  187.4310  176.7680  144.0840 C   0  0  0  0  0  2  0  0  0  0  0  0
  1 19  1  0  0  0  0
  1 21  1  0  0  0  0
  2 17  1  0  0  0  0
  4  9  2  0  0  0  0
  5 18  1  0  0  0  0
  5  7  1  0  0  0  0
  5 11  1  1  0  0  0
  6 16  1  0  0  0  0
  7  4  1  0  0  0  0
  7  2  2  0  0  0  0
  8 12  1  0  0  0  0
  9  6  1  0  0  0  0
 10 15  1  1  0  0  0
 10 20  1  0  0  0  0
 12  4  1  0  0  0  0
 13 19  1  0  0  0  0
 14  3  1  6  0  0  0
 14 18  1  0  0  0  0
 14 10  1  0  0  0  0
 15 13  1  0  0  0  0
 17  6  2  0  0  0  0
 18  8  1  6  0  0  0
 20 11  1  6  0  0  0
 20  1  1  0  0  0  0
 22 21  1  6  0  0  0
 22 25  1  0  0  0  0
 22 24  1  0  0  0  0
 23 27  2  0  0  0  0
 24 28  1  0  0  0  0
 25 26  2  0  0  0  0
 26 23  1  0  0  0  0
 28 23  1  0  0  0  0
M  END
>  <MODEL>
2

>  <REMARK>
 VINA RESULT:      -6.4      1.385      1.697
  Name = 
  2 active torsions:
  status: ('A' for Active; 'I' for Inactive)
    1  A    between atoms: N_1  and  C_2
    2  A    between atoms: C_2  and  C_3
                            x       y       z     vdW  Elec       q    Type
                         _______ _______ _______ _____ _____    ______ ____

>  <TORSDO>
F 2

$$$$
=
 OpenBabel10262420543D

 28 32  0  0  1  0  0  0  0  0999 V2000
  188.5640  176.6990  142.2080 N   0  0  0  0  0  0  0  0  0  0  0  0
  187.6830  178.4890  137.9830 C   0  0  0  0  0  3  0  0  0  0  0  0
  192.5450  177.8780  140.2330 C   0  0  0  0  0  1  0  0  0  0  0  0
  188.8370  176.4070  137.5040 C   0  0  0  0  0  0  0  0  0  0  0  0
  189.6810  177.8510  139.4130 C   0  0  1  0  0  3  0  0  0  0  0  0
  186.9480  177.0930  136.1440 C   0  0  0  0  0  0  0  0  0  0  0  0
  188.6860  177.5590  138.3060 C   0  0  0  0  0  0  0  0  0  0  0  0
  190.9960  175.9780  138.6630 C   0  0  0  0  0  2  0  0  0  0  0  0
  187.9570  176.1730  136.4420 C   0  0  0  0  0  3  0  0  0  0  0  0
  190.8710  177.6320  142.0600 C   0  0  2  0  0  3  0  0  0  0  0  0
  189.0090  178.5470  140.6170 C   0  0  0  0  0  2  0  0  0  0  0  0
  189.8860  175.3800  137.8090 C   0  0  0  0  0  2  0  0  0  0  0  0
  190.5080  175.7660  143.3510 C   0  0  0  0  0  2  0  0  0  0  0  0
  191.4640  176.9640  140.8080 C   0  0  1  0  0  3  0  0  0  0  0  0
  191.2380  176.9670  143.2540 O   0  0  0  0  0  0  0  0  0  0  0  0
  185.8540  176.7920  134.8130 Cl  0  0  0  0  0  0  0  0  0  0  0  0
  186.8160  178.2530  136.9120 C   0  0  0  0  0  3  0  0  0  0  0  0
  190.4060  176.6340  139.8310 N   0  0  1  0  0  0  0  0  0  0  0  0
  189.0170  176.0680  143.4470 C   0  0  0  0  0  2  0  0  0  0  0  0
  189.3530  177.9190  141.9780 C   0  0  1  0  0  3  0  0  0  0  0  0
  187.1850  177.1140  142.4410 C   0  0  0  0  0  2  0  0  0  0  0  0
  187.0350  177.8770  143.7560 C   0  0  2  0  0  3  0  0  0  0  0  0
  185.8500  178.6320  146.2540 C   0  0  0  0  0  0  0  0  0  0  0  0
  187.1970  176.9650  144.9760 C   0  0  0  0  0  2  0  0  0  0  0  0
  185.7530  178.6670  143.8150 C   0  0  0  0  0  3  0  0  0  0  0  0
  185.2230  179.0360  144.9830 C   0  0  0  0  0  3  0  0  0  0  0  0
  185.3440  179.0050  147.3440 O   0  0  0  0  0  0  0  0  0  0  0  0
  187.1010  177.7980  146.2550 C   0  0  0  0  0  2  0  0  0  0  0  0
  1 21  1  0  0  0  0
  1 19  1  0  0  0  0
  2  7  1  0  0  0  0
  4 12  1  0  0  0  0
  4  7  2  0  0  0  0
  5 18  1  0  0  0  0
  5 11  1  1  0  0  0
  6  9  2  0  0  0  0
  6 17  1  0  0  0  0
  7  5  1  0  0  0  0
  9  4  1  0  0  0  0
 10 15  1  1  0  0  0
 12  8  1  0  0  0  0
 13 19  1  0  0  0  0
 14  3  1  6  0  0  0
 14 10  1  0  0  0  0
 15 13  1  0  0  0  0
 16  6  1  0  0  0  0
 17  2  2  0  0  0  0
 18  8  1  6  0  0  0
 18 14  1  0  0  0  0
 20 11  1  6  0  0  0
 20 10  1  0  0  0  0
 20  1  1  0  0  0  0
 22 21  1  6  0  0  0
 22 25  1  0  0  0  0
 22 24  1  0  0  0  0
 23 28  1  0  0  0  0
 23 27  2  0  0  0  0
 24 28  1  0  0  0  0
 25 26  2  0  0  0  0
 26 23  1  0  0  0  0
M  END
>  <MODEL>
3

>  <REMARK>
 VINA RESULT:      -6.1      3.015      4.795
  Name = 
  2 active torsions:
  status: ('A' for Active; 'I' for Inactive)
    1  A    between atoms: N_1  and  C_2
    2  A    between atoms: C_2  and  C_3
                            x       y       z     vdW  Elec       q    Type
                         _______ _______ _______ _____ _____    ______ ____

>  <TORSDO>
F 2

$$$$
=
 OpenBabel10262420543D

 28 32  0  0  1  0  0  0  0  0999 V2000
  188.5740  177.7800  140.7220 N   0  0  0  0  0  0  0  0  0  0  0  0
  186.9960  178.2540  136.3500 C   0  0  0  0  0  3  0  0  0  0  0  0
  191.8360  176.3710  137.8040 C   0  0  0  0  0  1  0  0  0  0  0  0
  187.1710  175.8510  136.6480 C   0  0  0  0  0  0  0  0  0  0  0  0
  189.0240  177.3260  137.5640 C   0  0  1  0  0  3  0  0  0  0  0  0
  185.2800  176.7960  135.4570 C   0  0  0  0  0  0  0  0  0  0  0  0
  187.6820  177.1470  136.8770 C   0  0  0  0  0  0  0  0  0  0  0  0
  189.3200  174.9360  137.5040 C   0  0  0  0  0  2  0  0  0  0  0  0
  185.9660  175.6850  135.9570 C   0  0  0  0  0  3  0  0  0  0  0  0
  190.8740  177.5030  139.8020 C   0  0  2  0  0  3  0  0  0  0  0  0
  189.0550  178.6010  138.4340 C   0  0  0  0  0  2  0  0  0  0  0  0
  187.8600  174.6360  137.1940 C   0  0  0  0  0  2  0  0  0  0  0  0
  190.3610  176.5320  141.8200 C   0  0  0  0  0  2  0  0  0  0  0  0
  190.7660  176.2700  138.8900 C   0  0  1  0  0  3  0  0  0  0  0  0
  191.3720  177.1860  141.0880 O   0  0  0  0  0  0  0  0  0  0  0  0
  183.7740  176.5780  134.5940 Cl  0  0  0  0  0  0  0  0  0  0  0  0
  185.7990  178.0790  135.6500 C   0  0  0  0  0  3  0  0  0  0  0  0
  189.4000  176.1310  138.3460 N   0  0  1  0  0  0  0  0  0  0  0  0
  189.1730  177.4660  142.0190 C   0  0  0  0  0  2  0  0  0  0  0  0
  189.6000  178.3780  139.8550 C   0  0  1  0  0  3  0  0  0  0  0  0
  187.5680  178.8050  140.9750 C   0  0  0  0  0  2  0  0  0  0  0  0
  186.1490  178.2470  140.8770 C   0  0  2  0  0  3  0  0  0  0  0  0
  183.2840  178.2870  140.9240 C   0  0  0  0  0  0  0  0  0  0  0  0
  185.3820  178.8240  139.6840 C   0  0  0  0  0  2  0  0  0  0  0  0
  185.3830  178.4070  142.1650 C   0  0  0  0  0  3  0  0  0  0  0  0
  184.0480  178.3990  142.1790 C   0  0  0  0  0  3  0  0  0  0  0  0
  182.0270  178.2640  140.9610 O   0  0  0  0  0  0  0  0  0  0  0  0
  183.9970  178.1790  139.6050 C   0  0  0  0  0  2  0  0  0  0  0  0
  1 21  1  0  0  0  0
  1 19  1  0  0  0  0
  2  7  1  0  0  0  0
  4  7  2  0  0  0  0
  4 12  1  0  0  0  0
  5 18  1  0  0  0  0
  5 11  1  1  0  0  0
  6 17  1  0  0  0  0
  6  9  2  0  0  0  0
  7  5  1  0  0  0  0
  9  4  1  0  0  0  0
 10 20  1  0  0  0  0
 10 15  1  1  0  0  0
 12  8  1  0  0  0  0
 13 19  1  0  0  0  0
 14  3  1  6  0  0  0
 14 10  1  0  0  0  0
 15 13  1  0  0  0  0
 16  6  1  0  0  0  0
 17  2  2  0  0  0  0
 18  8  1  6  0  0  0
 18 14  1  0  0  0  0
 20 11  1  6  0  0  0
 20  1  1  0  0  0  0
 22 21  1  1  0  0  0
 22 25  1  0  0  0  0
 23 27  2  0  0  0  0
 23 26  1  0  0  0  0
 24 22  1  0  0  0  0
 25 26  2  0  0  0  0
 28 24  1  0  0  0  0
 28 23  1  0  0  0  0
M  END
>  <MODEL>
4

>  <REMARK>
 VINA RESULT:      -5.8      2.362      3.896
  Name = 
  2 active torsions:
  status: ('A' for Active; 'I' for Inactive)
    1  A    between atoms: N_1  and  C_2
    2  A    between atoms: C_2  and  C_3
                            x       y       z     vdW  Elec       q    Type
                         _______ _______ _______ _____ _____    ______ ____

>  <TORSDO>
F 2

$$$$
=
 OpenBabel10262420543D

 28 32  0  0  1  0  0  0  0  0999 V2000
  188.9950  176.9200  139.2990 N   0  0  0  0  0  0  0  0  0  0  0  0
  184.5780  178.1030  138.3420 C   0  0  0  0  0  3  0  0  0  0  0  0
  188.5120  177.3040  134.7430 C   0  0  0  0  0  1  0  0  0  0  0  0
  184.7830  175.8520  137.4550 C   0  0  0  0  0  0  0  0  0  0  0  0
  186.7030  177.4760  137.1030 C   0  0  1  0  0  3  0  0  0  0  0  0
  182.7580  176.5260  138.6090 C   0  0  0  0  0  0  0  0  0  0  0  0
  185.3450  177.1280  137.6840 C   0  0  0  0  0  0  0  0  0  0  0  0
  186.6950  175.3680  135.9380 C   0  0  0  0  0  2  0  0  0  0  0  0
  183.5030  175.5550  137.9340 C   0  0  0  0  0  3  0  0  0  0  0  0
  189.6080  177.5460  136.9650 C   0  0  2  0  0  3  0  0  0  0  0  0
  187.4930  178.4270  138.0290 C   0  0  0  0  0  2  0  0  0  0  0  0
  185.5610  174.7740  136.7620 C   0  0  0  0  0  2  0  0  0  0  0  0
  190.8670  175.9640  138.0580 C   0  0  0  0  0  2  0  0  0  0  0  0
  188.7420  176.6240  136.0910 C   0  0  1  0  0  3  0  0  0  0  0  0
  190.9180  177.0430  137.1530 O   0  0  0  0  0  0  0  0  0  0  0  0
  181.1580  176.1440  139.2040 Cl  0  0  0  0  0  0  0  0  0  0  0  0
  183.2940  177.8010  138.8080 C   0  0  0  0  0  3  0  0  0  0  0  0
  187.4850  176.2660  136.7810 N   0  0  1  0  0  0  0  0  0  0  0  0
  190.3740  176.4470  139.4170 C   0  0  0  0  0  2  0  0  0  0  0  0
  188.9440  177.9890  138.2900 C   0  0  1  0  0  3  0  0  0  0  0  0
  188.6590  177.5220  140.5840 C   0  0  0  0  0  2  0  0  0  0  0  0
  189.7550  177.2950  141.6240 C   0  0  2  0  0  3  0  0  0  0  0  0
  190.9480  177.1890  144.2270 C   0  0  0  0  0  0  0  0  0  0  0  0
  189.4350  176.1220  142.5540 C   0  0  0  0  0  2  0  0  0  0  0  0
  190.0790  178.5480  142.3940 C   0  0  0  0  0  3  0  0  0  0  0  0
  190.6590  178.4890  143.5960 C   0  0  0  0  0  3  0  0  0  0  0  0
  191.5100  177.1550  145.3520 O   0  0  0  0  0  0  0  0  0  0  0  0
  190.5960  175.9070  143.5260 C   0  0  0  0  0  2  0  0  0  0  0  0
  1 19  1  0  0  0  0
  1 21  1  0  0  0  0
  2 17  1  0  0  0  0
  4  7  1  0  0  0  0
  4  9  2  0  0  0  0
  5  7  1  0  0  0  0
  5 11  1  1  0  0  0
  6 17  2  0  0  0  0
  6 16  1  0  0  0  0
  7  2  2  0  0  0  0
  8 12  1  0  0  0  0
  9  6  1  0  0  0  0
 10 15  1  1  0  0  0
 10 20  1  0  0  0  0
 12  4  1  0  0  0  0
 13 19  1  0  0  0  0
 14  3  1  6  0  0  0
 14 18  1  0  0  0  0
 14 10  1  0  0  0  0
 15 13  1  0  0  0  0
 18  8  1  6  0  0  0
 18  5  1  0  0  0  0
 20 11  1  6  0  0  0
 20  1  1  0  0  0  0
 22 21  1  6  0  0  0
 22 25  1  0  0  0  0
 22 24  1  0  0  0  0
 23 27  2  0  0  0  0
 24 28  1  0  0  0  0
 25 26  2  0  0  0  0
 26 23  1  0  0  0  0
 28 23  1  0  0  0  0
M  END
>  <MODEL>
5

>  <REMARK>
 VINA RESULT:      -5.6      1.752      2.213
  Name = 
  2 active torsions:
  status: ('A' for Active; 'I' for Inactive)
    1  A    between atoms: N_1  and  C_2
    2  A    between atoms: C_2  and  C_3
                            x       y       z     vdW  Elec       q    Type
                         _______ _______ _______ _____ _____    ______ ____

>  <TORSDO>
F 2

$$$$
=
 OpenBabel10262420543D

 28 32  0  0  1  0  0  0  0  0999 V2000
  184.6710  177.4950  137.5710 N   0  0  0  0  0  0  0  0  0  0  0  0
  182.6050  174.0670  135.1610 C   0  0  0  0  0  3  0  0  0  0  0  0
  187.9060  175.0110  135.4490 C   0  0  0  0  0  1  0  0  0  0  0  0
  183.8110  172.8990  136.9140 C   0  0  0  0  0  0  0  0  0  0  0  0
  184.9460  174.8500  135.7510 C   0  0  1  0  0  3  0  0  0  0  0  0
  181.5880  172.1710  136.2740 C   0  0  0  0  0  0  0  0  0  0  0  0
  183.7450  173.9500  135.9730 C   0  0  0  0  0  0  0  0  0  0  0  0
  186.2210  173.4360  137.2260 C   0  0  0  0  0  2  0  0  0  0  0  0
  182.7270  172.0300  137.0710 C   0  0  0  0  0  3  0  0  0  0  0  0
  186.7640  177.0570  136.2900 C   0  0  2  0  0  3  0  0  0  0  0  0
  184.5220  176.2950  135.4080 C   0  0  0  0  0  2  0  0  0  0  0  0
  185.0030  172.7330  137.8100 C   0  0  0  0  0  2  0  0  0  0  0  0
  186.9200  177.9510  138.4010 C   0  0  0  0  0  2  0  0  0  0  0  0
  187.0970  175.5900  136.6080 C   0  0  1  0  0  3  0  0  0  0  0  0
  187.4780  177.9660  137.1080 O   0  0  0  0  0  0  0  0  0  0  0  0
  180.2370  171.0770  136.4770 Cl  0  0  0  0  0  0  0  0  0  0  0  0
  181.5300  173.1860  135.3160 C   0  0  0  0  0  3  0  0  0  0  0  0
  185.8710  174.8190  136.9020 N   0  0  1  0  0  0  0  0  0  0  0  0
  185.4750  178.4340  138.3520 C   0  0  0  0  0  2  0  0  0  0  0  0
  185.2520  177.3750  136.2250 C   0  0  1  0  0  3  0  0  0  0  0  0
  183.3560  178.1090  137.4220 C   0  0  0  0  0  2  0  0  0  0  0  0
  182.2610  177.2790  138.0890 C   0  0  2  0  0  3  0  0  0  0  0  0
  180.5510  175.0210  138.5230 C   0  0  0  0  0  0  0  0  0  0  0  0
  182.8200  176.0280  138.7730 C   0  0  0  0  0  2  0  0  0  0  0  0
  181.1410  176.9430  137.1390 C   0  0  0  0  0  3  0  0  0  0  0  0
  180.3330  175.9040  137.3640 C   0  0  0  0  0  3  0  0  0  0  0  0
  179.7680  174.0570  138.7270 O   0  0  0  0  0  0  0  0  0  0  0  0
  181.6870  175.2780  139.4740 C   0  0  0  0  0  2  0  0  0  0  0  0
  1 19  1  0  0  0  0
  2 17  2  0  0  0  0
  2  7  1  0  0  0  0
  4  9  1  0  0  0  0
  4 12  1  0  0  0  0
  5 11  1  1  0  0  0
  5  7  1  0  0  0  0
  5 18  1  0  0  0  0
  6 16  1  0  0  0  0
  6  9  2  0  0  0  0
  7  4  2  0  0  0  0
  8 12  1  0  0  0  0
 10 14  1  0  0  0  0
 10 15  1  1  0  0  0
 14  3  1  6  0  0  0
 14 18  1  0  0  0  0
 15 13  1  0  0  0  0
 17  6  1  0  0  0  0
 18  8  1  6  0  0  0
 19 13  1  0  0  0  0
 20 11  1  6  0  0  0
 20 10  1  0  0  0  0
 20  1  1  0  0  0  0
 21  1  1  0  0  0  0
 22 21  1  6  0  0  0
 22 24  1  0  0  0  0
 23 27  2  0  0  0  0
 23 28  1  0  0  0  0
 24 28  1  0  0  0  0
 25 26  2  0  0  0  0
 25 22  1  0  0  0  0
 26 23  1  0  0  0  0
M  END
>  <MODEL>
6

>  <REMARK>
 VINA RESULT:      -5.4      3.526      5.789
  Name = 
  2 active torsions:
  status: ('A' for Active; 'I' for Inactive)
    1  A    between atoms: N_1  and  C_2
    2  A    between atoms: C_2  and  C_3
                            x       y       z     vdW  Elec       q    Type
                         _______ _______ _______ _____ _____    ______ ____

>  <TORSDO>
F 2

$$$$
=
 OpenBabel10262420543D

 28 32  0  0  1  0  0  0  0  0999 V2000
  187.9570  177.5350  138.8250 N   0  0  0  0  0  0  0  0  0  0  0  0
  183.6910  177.2670  136.9380 C   0  0  0  0  0  3  0  0  0  0  0  0
  188.2390  175.2800  134.8280 C   0  0  0  0  0  1  0  0  0  0  0  0
  184.2230  174.9660  137.5020 C   0  0  0  0  0  0  0  0  0  0  0  0
  186.0410  176.4190  136.4860 C   0  0  1  0  0  3  0  0  0  0  0  0
  181.9830  175.8230  137.8680 C   0  0  0  0  0  0  0  0  0  0  0  0
  184.6350  176.2300  137.0250 C   0  0  0  0  0  0  0  0  0  0  0  0
  186.4000  174.0490  136.7210 C   0  0  0  0  0  2  0  0  0  0  0  0
  182.9070  174.7770  137.9360 C   0  0  0  0  0  3  0  0  0  0  0  0
  188.9130  176.8710  136.6200 C   0  0  2  0  0  3  0  0  0  0  0  0
  186.5820  177.8350  136.7850 C   0  0  0  0  0  2  0  0  0  0  0  0
  185.1920  173.8270  137.6200 C   0  0  0  0  0  2  0  0  0  0  0  0
  190.0840  176.3740  138.5330 C   0  0  0  0  0  2  0  0  0  0  0  0
  188.2850  175.4960  136.3400 C   0  0  1  0  0  3  0  0  0  0  0  0
  190.2050  176.7730  137.1880 O   0  0  0  0  0  0  0  0  0  0  0  0
  180.3390  175.5750  138.4130 Cl  0  0  0  0  0  0  0  0  0  0  0  0
  182.3750  177.0660  137.3630 C   0  0  0  0  0  3  0  0  0  0  0  0
  186.9610  175.3760  136.9830 N   0  0  1  0  0  0  0  0  0  0  0  0
  189.3280  177.4340  139.3260 C   0  0  0  0  0  2  0  0  0  0  0  0
  187.9960  177.8520  137.3900 C   0  0  1  0  0  3  0  0  0  0  0  0
  187.3570  178.6780  139.5050 C   0  0  0  0  0  2  0  0  0  0  0  0
  186.2070  178.2570  140.4180 C   0  0  2  0  0  3  0  0  0  0  0  0
  184.0410  178.5910  142.2640 C   0  0  0  0  0  0  0  0  0  0  0  0
  184.8530  178.7630  139.9110 C   0  0  0  0  0  2  0  0  0  0  0  0
  186.4470  178.6450  141.8540 C   0  0  0  0  0  3  0  0  0  0  0  0
  185.4320  178.7720  142.7130 C   0  0  0  0  0  3  0  0  0  0  0  0
  183.1000  178.6980  143.0920 O   0  0  0  0  0  0  0  0  0  0  0  0
  183.7400  178.2560  140.8290 C   0  0  0  0  0  2  0  0  0  0  0  0
  1 19  1  0  0  0  0
  1 21  1  0  0  0  0
  2  7  2  0  0  0  0
  2 17  1  0  0  0  0
  4 12  1  0  0  0  0
  4  9  2  0  0  0  0
  5 11  1  1  0  0  0
  5 18  1  0  0  0  0
  5  7  1  0  0  0  0
  6  9  1  0  0  0  0
  6 16  1  0  0  0  0
  7  4  1  0  0  0  0
  8 12  1  0  0  0  0
 10 15  1  1  0  0  0
 10 20  1  0  0  0  0
 13 19  1  0  0  0  0
 14  3  1  6  0  0  0
 14 10  1  0  0  0  0
 14 18  1  0  0  0  0
 15 13  1  0  0  0  0
 17  6  2  0  0  0  0
 18  8  1  6  0  0  0
 20 11  1  6  0  0  0
 20  1  1  0  0  0  0
 22 21  1  6  0  0  0
 22 25  1  0  0  0  0
 23 26  1  0  0  0  0
 23 27  2  0  0  0  0
 24 22  1  0  0  0  0
 24 28  1  0  0  0  0
 25 26  2  0  0  0  0
 28 23  1  0  0  0  0
M  END
>  <MODEL>
7

>  <REMARK>
 VINA RESULT:      -5.4      1.695      2.268
  Name = 
  2 active torsions:
  status: ('A' for Active; 'I' for Inactive)
    1  A    between atoms: N_1  and  C_2
    2  A    between atoms: C_2  and  C_3
                            x       y       z     vdW  Elec       q    Type
                         _______ _______ _______ _____ _____    ______ ____

>  <TORSDO>
F 2

$$$$
=
 OpenBabel10262420543D

 28 32  0  0  1  0  0  0  0  0999 V2000
  189.7710  176.7820  139.1810 N   0  0  0  0  0  0  0  0  0  0  0  0
  185.6740  176.5560  136.9450 C   0  0  0  0  0  3  0  0  0  0  0  0
  190.5390  175.7360  134.7700 C   0  0  0  0  0  1  0  0  0  0  0  0
  186.4730  174.2630  136.9290 C   0  0  0  0  0  0  0  0  0  0  0  0
  188.1330  176.1310  136.4820 C   0  0  1  0  0  3  0  0  0  0  0  0
  184.1250  174.7320  137.3210 C   0  0  0  0  0  0  0  0  0  0  0  0
  186.7390  175.6470  136.8350 C   0  0  0  0  0  0  0  0  0  0  0  0
  188.7860  173.8410  136.1170 C   0  0  0  0  0  2  0  0  0  0  0  0
  185.1730  173.8170  137.1890 C   0  0  0  0  0  3  0  0  0  0  0  0
  190.9110  176.8500  136.9650 C   0  0  2  0  0  3  0  0  0  0  0  0
  188.4700  177.4650  137.1850 C   0  0  0  0  0  2  0  0  0  0  0  0
  187.5740  173.2510  136.8250 C   0  0  0  0  0  2  0  0  0  0  0  0
  192.0420  175.9890  138.7710 C   0  0  0  0  0  2  0  0  0  0  0  0
  190.4830  175.5400  136.2840 C   0  0  1  0  0  3  0  0  0  0  0  0
  192.1760  176.7480  137.5910 O   0  0  0  0  0  0  0  0  0  0  0  0
  182.5020  174.1630  137.6460 Cl  0  0  0  0  0  0  0  0  0  0  0  0
  184.3750  176.1000  137.1940 C   0  0  0  0  0  3  0  0  0  0  0  0
  189.1550  175.1020  136.7620 N   0  0  1  0  0  0  0  0  0  0  0  0
  191.1160  176.7040  139.7480 C   0  0  0  0  0  2  0  0  0  0  0  0
  189.8390  177.4770  137.8860 C   0  0  1  0  0  3  0  0  0  0  0  0
  188.9950  177.6240  140.0840 C   0  0  0  0  0  2  0  0  0  0  0  0
  189.1120  177.1600  141.5360 C   0  0  2  0  0  3  0  0  0  0  0  0
  189.0490  177.3770  144.3920 C   0  0  0  0  0  0  0  0  0  0  0  0
  187.7640  177.1880  142.2620 C   0  0  0  0  0  2  0  0  0  0  0  0
  190.1710  177.9190  142.2930 C   0  0  0  0  0  3  0  0  0  0  0  0
  190.1470  177.9920  143.6260 C   0  0  0  0  0  3  0  0  0  0  0  0
  189.0540  177.4410  145.6480 O   0  0  0  0  0  0  0  0  0  0  0  0
  187.9370  176.6540  143.6840 C   0  0  0  0  0  2  0  0  0  0  0  0
  1 19  1  0  0  0  0
  1 21  1  0  0  0  0
  2 17  1  0  0  0  0
  4  9  2  0  0  0  0
  5 18  1  0  0  0  0
  5  7  1  0  0  0  0
  5 11  1  1  0  0  0
  6 16  1  0  0  0  0
  7  4  1  0  0  0  0
  7  2  2  0  0  0  0
  8 12  1  0  0  0  0
  9  6  1  0  0  0  0
 10 15  1  1  0  0  0
 10 20  1  0  0  0  0
 12  4  1  0  0  0  0
 13 19  1  0  0  0  0
 14  3  1  6  0  0  0
 14 18  1  0  0  0  0
 14 10  1  0  0  0  0
 15 13  1  0  0  0  0
 17  6  2  0  0  0  0
 18  8  1  6  0  0  0
 20 11  1  6  0  0  0
 20  1  1  0  0  0  0
 22 21  1  6  0  0  0
 22 24  1  0  0  0  0
 22 25  1  0  0  0  0
 23 27  2  0  0  0  0
 24 28  1  0  0  0  0
 25 26  2  0  0  0  0
 26 23  1  0  0  0  0
 28 23  1  0  0  0  0
M  END
>  <MODEL>
8

>  <REMARK>
 VINA RESULT:      -5.2      2.157      2.879
  Name = 
  2 active torsions:
  status: ('A' for Active; 'I' for Inactive)
    1  A    between atoms: N_1  and  C_2
    2  A    between atoms: C_2  and  C_3
                            x       y       z     vdW  Elec       q    Type
                         _______ _______ _______ _____ _____    ______ ____

>  <TORSDO>
F 2

$$$$
=
 OpenBabel10262420543D

 28 32  0  0  1  0  0  0  0  0999 V2000
  189.1320  177.3040  138.9700 N   0  0  0  0  0  0  0  0  0  0  0  0
  185.1940  176.5390  136.5730 C   0  0  0  0  0  3  0  0  0  0  0  0
  190.1690  175.1040  135.0680 C   0  0  0  0  0  1  0  0  0  0  0  0
  185.9170  174.3160  137.2290 C   0  0  0  0  0  0  0  0  0  0  0  0
  187.6650  175.9740  136.4270 C   0  0  1  0  0  3  0  0  0  0  0  0
  183.5640  174.9030  137.3040 C   0  0  0  0  0  0  0  0  0  0  0  0
  186.2350  175.6200  136.7900 C   0  0  0  0  0  0  0  0  0  0  0  0
  188.2670  173.6630  136.7360 C   0  0  0  0  0  2  0  0  0  0  0  0
  184.5890  173.9730  137.5000 C   0  0  0  0  0  3  0  0  0  0  0  0
  190.4250  176.7610  136.9090 C   0  0  2  0  0  3  0  0  0  0  0  0
  187.9950  177.4430  136.7720 C   0  0  0  0  0  2  0  0  0  0  0  0
  186.9900  173.2990  137.4810 C   0  0  0  0  0  2  0  0  0  0  0  0
  191.3990  176.4020  138.9590 C   0  0  0  0  0  2  0  0  0  0  0  0
  190.0020  175.3220  136.5710 C   0  0  1  0  0  3  0  0  0  0  0  0
  191.6390  176.8140  137.6330 O   0  0  0  0  0  0  0  0  0  0  0  0
  181.9060  174.4630  137.6450 Cl  0  0  0  0  0  0  0  0  0  0  0  0
  183.8680  176.1840  136.8350 C   0  0  0  0  0  3  0  0  0  0  0  0
  188.6310  175.0450  137.0470 N   0  0  1  0  0  0  0  0  0  0  0  0
  190.4310  177.3640  139.6370 C   0  0  0  0  0  2  0  0  0  0  0  0
  189.3120  177.6260  137.5460 C   0  0  1  0  0  3  0  0  0  0  0  0
  188.3230  178.3670  139.5550 C   0  0  0  0  0  2  0  0  0  0  0  0
  188.2330  178.2430  141.0750 C   0  0  2  0  0  3  0  0  0  0  0  0
  187.2710  177.2780  143.5960 C   0  0  0  0  0  0  0  0  0  0  0  0
  188.6630  176.8580  141.5680 C   0  0  0  0  0  2  0  0  0  0  0  0
  186.8740  178.6270  141.6000 C   0  0  0  0  0  3  0  0  0  0  0  0
  186.4450  178.1920  142.7880 C   0  0  0  0  0  3  0  0  0  0  0  0
  186.8570  176.8940  144.7200 O   0  0  0  0  0  0  0  0  0  0  0  0
  188.6130  176.8200  143.0960 C   0  0  0  0  0  2  0  0  0  0  0  0
  1 21  1  0  0  0  0
  1 19  1  0  0  0  0
  2  7  2  0  0  0  0
  2 17  1  0  0  0  0
  4 12  1  0  0  0  0
  4  9  2  0  0  0  0
  5 11  1  1  0  0  0
  5  7  1  0  0  0  0
  5 18  1  0  0  0  0
  6  9  1  0  0  0  0
  6 16  1  0  0  0  0
  7  4  1  0  0  0  0
  8 12  1  0  0  0  0
 10 20  1  0  0  0  0
 10 15  1  1  0  0  0
 13 19  1  0  0  0  0
 14  3  1  6  0  0  0
 14 10  1  0  0  0  0
 14 18  1  0  0  0  0
 15 13  1  0  0  0  0
 17  6  2  0  0  0  0
 18  8  1  6  0  0  0
 20 11  1  6  0  0  0
 20  1  1  0  0  0  0
 22 21  1  6  0  0  0
 22 24  1  0  0  0  0
 22 25  1  0  0  0  0
 23 27  2  0  0  0  0
 24 28  1  0  0  0  0
 25 26  2  0  0  0  0
 26 23  1  0  0  0  0
 28 23  1  0  0  0  0
M  END
>  <MODEL>
9

>  <REMARK>
 VINA RESULT:      -5.2      1.962      2.642
  Name = 
  2 active torsions:
  status: ('A' for Active; 'I' for Inactive)
    1  A    between atoms: N_1  and  C_2
    2  A    between atoms: C_2  and  C_3
                            x       y       z     vdW  Elec       q    Type
                         _______ _______ _______ _____ _____    ______ ____

>  <TORSDO>
F 2

$$$$
