=
 OpenBabel10262421493D

 30 32  0  0  1  0  0  0  0  0999 V2000
  191.1620  177.2100  144.9240 C   0  0  0  0  0  0  0  0  0  0  0  0
  191.8380  176.6580  146.0140 C   0  0  0  0  0  3  0  0  0  0  0  0
  191.8760  177.5290  143.7750 O   0  0  0  0  0  1  0  0  0  0  0  0
  189.0730  177.1110  146.1800 C   0  0  0  0  0  0  0  0  0  0  0  0
  191.1440  176.3320  147.1800 C   0  0  0  0  0  3  0  0  0  0  0  0
  189.7740  177.4380  144.9930 C   0  0  0  0  0  0  0  0  0  0  0  0
  189.7700  176.5590  147.2610 C   0  0  0  0  0  3  0  0  0  0  0  0
  186.1120  178.9380  147.4940 C   0  0  0  0  0  3  0  0  0  0  0  0
  182.8510  179.4080  145.1290 O   0  0  0  0  0  0  0  0  0  0  0  0
  185.2460  178.9130  146.3500 N   0  0  0  0  0  0  0  0  0  0  0  0
  187.2520  178.2490  147.5110 C   0  0  0  0  0  0  0  0  0  0  0  0
  183.3550  178.8920  144.0970 C   0  0  0  0  0  0  0  0  0  0  0  0
  184.6810  178.3530  144.1080 N   0  0  0  0  0  2  0  0  0  0  0  0
  186.9560  177.7850  145.0320 C   0  0  0  0  0  2  0  0  0  0  0  0
  188.0600  178.2400  148.7640 C   0  0  0  0  0  1  0  0  0  0  0  0
  185.5770  178.3460  145.2260 C   0  0  0  0  0  0  0  0  0  0  0  0
  182.5580  178.8410  142.8440 C   0  0  0  0  0  1  0  0  0  0  0  0
  187.5930  177.3370  146.3520 C   0  0  1  0  0  3  0  0  0  0  0  0
  189.0590  178.0200  143.8110 C   0  0  0  0  0  2  0  0  0  0  0  0
  188.9490  176.9940  142.7000 C   0  0  0  0  0  2  0  0  0  0  0  0
  188.2060  177.6040  141.5280 C   0  0  0  0  0  2  0  0  0  0  0  0
  189.1720  178.0640  140.4400 C   0  0  2  0  0  3  0  0  0  0  0  0
  188.4470  178.6350  139.3950 O   0  0  0  0  0  1  0  0  0  0  0  0
  191.8480  176.5550  138.6820 C   0  0  0  0  0  2  0  0  0  0  0  0
  190.0430  176.9320  139.8920 C   0  0  1  0  0  3  0  0  0  0  0  0
  190.6420  175.9860  137.9900 C   0  0  2  0  0  0  0  0  0  0  0  0
  189.5240  176.4430  138.6830 O   0  0  0  0  0  0  0  0  0  0  0  0
  191.3760  177.3450  139.7270 O   0  0  0  0  0  0  0  0  0  0  0  0
  190.6860  174.5920  138.0240 O   0  0  0  0  0  1  0  0  0  0  0  0
  190.5890  176.4620  136.5530 C   0  0  0  0  0  1  0  0  0  0  0  0
  1  6  2  0  0  0  0
  1  2  1  0  0  0  0
  2  5  2  0  0  0  0
  3  1  1  0  0  0  0
  4  7  2  0  0  0  0
  5  7  1  0  0  0  0
  6  4  1  0  0  0  0
  8 11  2  0  0  0  0
 10  8  1  0  0  0  0
 11 15  1  0  0  0  0
 12 13  1  0  0  0  0
 12  9  2  0  0  0  0
 13 16  1  0  0  0  0
 14 16  1  0  0  0  0
 14 18  1  0  0  0  0
 16 10  2  0  0  0  0
 17 12  1  0  0  0  0
 18  4  1  6  0  0  0
 18 11  1  0  0  0  0
 19  6  1  0  0  0  0
 20 19  1  0  0  0  0
 21 20  1  0  0  0  0
 22 23  1  6  0  0  0
 22 21  1  0  0  0  0
 24 28  1  0  0  0  0
 25 22  1  6  0  0  0
 26 30  1  6  0  0  0
 26 29  1  0  0  0  0
 26 24  1  0  0  0  0
 26 27  1  0  0  0  0
 27 25  1  0  0  0  0
 28 25  1  0  0  0  0
M  END
>  <MODEL>
1

>  <REMARK>
 VINA RESULT:     -10.2      0.000      0.000
  Name = 
  6 active torsions:
  status: ('A' for Active; 'I' for Inactive)
    1  A    between atoms: C_1  and  C_4
    2  A    between atoms: C_1  and  C_5
    3  A    between atoms: C_4  and  C_27
    4  A    between atoms: C_5  and  C_22
    5  A    between atoms: C_8  and  C_27
    6  A    between atoms: C_19  and  C_29
                            x       y       z     vdW  Elec       q    Type
                         _______ _______ _______ _____ _____    ______ ____

>  <TORSDO>
F 6

$$$$
=
 OpenBabel10262421493D

 30 32  0  0  1  0  0  0  0  0999 V2000
  191.1620  177.3460  145.1410 C   0  0  0  0  0  0  0  0  0  0  0  0
  191.6840  176.7610  146.2980 C   0  0  0  0  0  3  0  0  0  0  0  0
  192.0280  177.7160  144.1190 O   0  0  0  0  0  1  0  0  0  0  0  0
  188.9170  177.1780  146.0810 C   0  0  0  0  0  0  0  0  0  0  0  0
  190.8360  176.3840  147.3390 C   0  0  0  0  0  3  0  0  0  0  0  0
  189.7750  177.5580  145.0200 C   0  0  0  0  0  0  0  0  0  0  0  0
  189.4610  176.5940  147.2310 C   0  0  0  0  0  3  0  0  0  0  0  0
  185.7830  179.0030  146.9090 C   0  0  0  0  0  3  0  0  0  0  0  0
  182.8560  179.3020  144.1190 O   0  0  0  0  0  0  0  0  0  0  0  0
  185.0770  178.9090  145.6650 N   0  0  0  0  0  0  0  0  0  0  0  0
  186.9210  178.3370  147.1080 C   0  0  0  0  0  0  0  0  0  0  0  0
  183.4990  178.7510  143.1870 C   0  0  0  0  0  0  0  0  0  0  0  0
  184.8190  178.2390  143.3960 N   0  0  0  0  0  2  0  0  0  0  0  0
  186.9610  177.7590  144.6360 C   0  0  0  0  0  2  0  0  0  0  0  0
  187.5570  178.4000  148.4550 C   0  0  0  0  0  1  0  0  0  0  0  0
  185.5600  178.3000  144.6210 C   0  0  0  0  0  0  0  0  0  0  0  0
  182.8740  178.6280  141.8440 C   0  0  0  0  0  1  0  0  0  0  0  0
  187.4240  177.3820  146.0480 C   0  0  1  0  0  3  0  0  0  0  0  0
  189.2270  178.1760  143.7690 C   0  0  0  0  0  2  0  0  0  0  0  0
  189.7410  177.4420  142.5450 C   0  0  0  0  0  2  0  0  0  0  0  0
  188.5870  177.1820  141.5970 C   0  0  0  0  0  2  0  0  0  0  0  0
  188.3590  178.3690  140.6660 C   0  0  2  0  0  3  0  0  0  0  0  0
  186.9920  178.6280  140.5800 O   0  0  0  0  0  1  0  0  0  0  0  0
  188.9110  179.0030  137.2270 C   0  0  0  0  0  2  0  0  0  0  0  0
  188.9220  178.1490  139.2600 C   0  0  1  0  0  3  0  0  0  0  0  0
  188.2850  177.6380  137.2100 C   0  0  2  0  0  0  0  0  0  0  0  0
  188.1220  177.2500  138.5380 O   0  0  0  0  0  0  0  0  0  0  0  0
  189.0550  179.3620  138.5650 O   0  0  0  0  0  0  0  0  0  0  0  0
  189.1210  176.7380  136.5500 O   0  0  0  0  0  1  0  0  0  0  0  0
  186.9380  177.6880  136.5180 C   0  0  0  0  0  1  0  0  0  0  0  0
  1  2  1  0  0  0  0
  2  5  2  0  0  0  0
  3  1  1  0  0  0  0
  4  7  2  0  0  0  0
  6  1  2  0  0  0  0
  6  4  1  0  0  0  0
  7  5  1  0  0  0  0
  8 11  2  0  0  0  0
 10  8  1  0  0  0  0
 11 15  1  0  0  0  0
 12 13  1  0  0  0  0
 12  9  2  0  0  0  0
 13 16  1  0  0  0  0
 14 18  1  0  0  0  0
 16 14  1  0  0  0  0
 16 10  2  0  0  0  0
 17 12  1  0  0  0  0
 18  4  1  6  0  0  0
 18 11  1  0  0  0  0
 19  6  1  0  0  0  0
 20 19  1  0  0  0  0
 21 20  1  0  0  0  0
 22 23  1  6  0  0  0
 22 21  1  0  0  0  0
 24 28  1  0  0  0  0
 25 22  1  1  0  0  0
 26 30  1  6  0  0  0
 26 24  1  0  0  0  0
 26 27  1  0  0  0  0
 27 25  1  0  0  0  0
 28 25  1  0  0  0  0
 29 26  1  0  0  0  0
M  END
>  <MODEL>
2

>  <REMARK>
 VINA RESULT:     -10.1      1.452      1.616
  Name = 
  6 active torsions:
  status: ('A' for Active; 'I' for Inactive)
    1  A    between atoms: C_1  and  C_4
    2  A    between atoms: C_1  and  C_5
    3  A    between atoms: C_4  and  C_27
    4  A    between atoms: C_5  and  C_22
    5  A    between atoms: C_8  and  C_27
    6  A    between atoms: C_19  and  C_29
                            x       y       z     vdW  Elec       q    Type
                         _______ _______ _______ _____ _____    ______ ____

>  <TORSDO>
F 6

$$$$
=
 OpenBabel10262421493D

 30 32  0  0  1  0  0  0  0  0999 V2000
  189.6950  177.3710  145.1380 C   0  0  0  0  0  0  0  0  0  0  0  0
  190.9660  177.9330  145.2870 C   0  0  0  0  0  3  0  0  0  0  0  0
  188.9330  177.1090  146.2710 O   0  0  0  0  0  1  0  0  0  0  0  0
  190.0020  177.3460  142.7180 C   0  0  0  0  0  0  0  0  0  0  0  0
  191.7510  178.2030  144.1670 C   0  0  0  0  0  3  0  0  0  0  0  0
  189.1990  177.0750  143.8540 C   0  0  0  0  0  0  0  0  0  0  0  0
  191.2710  177.9090  142.8910 C   0  0  0  0  0  3  0  0  0  0  0  0
  189.0650  178.2960  139.2460 C   0  0  0  0  0  3  0  0  0  0  0  0
  190.2820  175.9780  136.1490 O   0  0  0  0  0  0  0  0  0  0  0  0
  189.7230  177.2670  138.4950 N   0  0  0  0  0  0  0  0  0  0  0  0
  189.0130  178.2520  140.5770 C   0  0  0  0  0  0  0  0  0  0  0  0
  190.9830  175.1890  136.8360 C   0  0  0  0  0  0  0  0  0  0  0  0
  191.0680  175.3180  138.2590 N   0  0  0  0  0  2  0  0  0  0  0  0
  190.6750  176.3330  140.5330 C   0  0  0  0  0  2  0  0  0  0  0  0
  188.2320  179.3000  141.2940 C   0  0  0  0  0  1  0  0  0  0  0  0
  190.4220  176.3210  139.0530 C   0  0  0  0  0  0  0  0  0  0  0  0
  191.7360  174.1030  136.1570 C   0  0  0  0  0  1  0  0  0  0  0  0
  189.5620  177.0460  141.3080 C   0  0  1  0  0  3  0  0  0  0  0  0
  187.8300  176.4840  143.7080 C   0  0  0  0  0  2  0  0  0  0  0  0
  186.7670  177.5180  144.0280 C   0  0  0  0  0  2  0  0  0  0  0  0
  185.8370  177.6630  142.8400 C   0  0  0  0  0  2  0  0  0  0  0  0
  184.8370  178.7950  143.0570 C   0  0  2  0  0  3  0  0  0  0  0  0
  183.8730  178.3850  143.9770 O   0  0  0  0  0  1  0  0  0  0  0  0
  183.1840  178.4620  139.9440 C   0  0  0  0  0  2  0  0  0  0  0  0
  184.1470  179.2440  141.7680 C   0  0  1  0  0  3  0  0  0  0  0  0
  184.4160  179.2390  139.5770 C   0  0  2  0  0  0  0  0  0  0  0  0
  185.0900  179.5150  140.7650 O   0  0  0  0  0  0  0  0  0  0  0  0
  183.2140  178.2910  141.3260 O   0  0  0  0  0  0  0  0  0  0  0  0
  184.0570  180.4300  138.9460 O   0  0  0  0  0  1  0  0  0  0  0  0
  185.3000  178.4190  138.6600 C   0  0  0  0  0  1  0  0  0  0  0  0
  1  2  1  0  0  0  0
  1  3  1  0  0  0  0
  4  7  2  0  0  0  0
  4  6  1  0  0  0  0
  5  2  2  0  0  0  0
  6  1  2  0  0  0  0
  7  5  1  0  0  0  0
  8 11  2  0  0  0  0
  9 12  2  0  0  0  0
 10 16  2  0  0  0  0
 10  8  1  0  0  0  0
 11 15  1  0  0  0  0
 11 18  1  0  0  0  0
 12 13  1  0  0  0  0
 13 16  1  0  0  0  0
 14 18  1  0  0  0  0
 16 14  1  0  0  0  0
 17 12  1  0  0  0  0
 18  4  1  1  0  0  0
 19  6  1  0  0  0  0
 19 20  1  0  0  0  0
 21 22  1  0  0  0  0
 21 20  1  0  0  0  0
 22 23  1  1  0  0  0
 24 28  1  0  0  0  0
 25 22  1  1  0  0  0
 26 30  1  6  0  0  0
 26 24  1  0  0  0  0
 26 27  1  0  0  0  0
 27 25  1  0  0  0  0
 28 25  1  0  0  0  0
 29 26  1  0  0  0  0
M  END
>  <MODEL>
3

>  <REMARK>
 VINA RESULT:      -9.8      3.180      6.977
  Name = 
  6 active torsions:
  status: ('A' for Active; 'I' for Inactive)
    1  A    between atoms: C_1  and  C_4
    2  A    between atoms: C_1  and  C_5
    3  A    between atoms: C_4  and  C_27
    4  A    between atoms: C_5  and  C_22
    5  A    between atoms: C_8  and  C_27
    6  A    between atoms: C_19  and  C_29
                            x       y       z     vdW  Elec       q    Type
                         _______ _______ _______ _____ _____    ______ ____

>  <TORSDO>
F 6

$$$$
=
 OpenBabel10262421493D

 30 32  0  0  1  0  0  0  0  0999 V2000
  189.9180  177.1120  145.6410 C   0  0  0  0  0  0  0  0  0  0  0  0
  189.8610  177.4970  146.9830 C   0  0  0  0  0  3  0  0  0  0  0  0
  191.1370  176.7230  145.0990 O   0  0  0  0  0  1  0  0  0  0  0  0
  187.5230  177.5300  145.4300 C   0  0  0  0  0  0  0  0  0  0  0  0
  188.6500  177.8950  147.5490 C   0  0  0  0  0  3  0  0  0  0  0  0
  188.7510  177.1210  144.8530 C   0  0  0  0  0  0  0  0  0  0  0  0
  187.4890  177.9120  146.7760 C   0  0  0  0  0  3  0  0  0  0  0  0
  184.1490  178.9050  144.6830 C   0  0  0  0  0  3  0  0  0  0  0  0
  182.9670  179.2970  140.8230 O   0  0  0  0  0  0  0  0  0  0  0  0
  184.1700  178.9150  143.2490 N   0  0  0  0  0  0  0  0  0  0  0  0
  185.1290  178.3340  145.3830 C   0  0  0  0  0  0  0  0  0  0  0  0
  184.0620  178.9460  140.3090 C   0  0  0  0  0  0  0  0  0  0  0  0
  185.1690  178.5430  141.1220 N   0  0  0  0  0  2  0  0  0  0  0  0
  186.4680  178.1090  143.2380 C   0  0  0  0  0  2  0  0  0  0  0  0
  185.0010  178.2720  146.8670 C   0  0  0  0  0  1  0  0  0  0  0  0
  185.1920  178.5060  142.5540 C   0  0  0  0  0  0  0  0  0  0  0  0
  184.2070  178.9490  138.8310 C   0  0  0  0  0  1  0  0  0  0  0  0
  186.2290  177.5890  144.6600 C   0  0  1  0  0  3  0  0  0  0  0  0
  188.8240  176.6940  143.4180 C   0  0  0  0  0  2  0  0  0  0  0  0
  189.5170  177.7530  142.5830 C   0  0  0  0  0  2  0  0  0  0  0  0
  190.5600  177.0920  141.7030 C   0  0  0  0  0  2  0  0  0  0  0  0
  189.9530  176.6200  140.3860 C   0  0  2  0  0  3  0  0  0  0  0  0
  190.9570  176.0700  139.5910 O   0  0  0  0  0  1  0  0  0  0  0  0
  187.6200  178.0960  138.1700 C   0  0  0  0  0  2  0  0  0  0  0  0
  189.2500  177.7360  139.6120 C   0  0  1  0  0  3  0  0  0  0  0  0
  188.9380  178.4750  137.5550 C   0  0  2  0  0  0  0  0  0  0  0  0
  189.9320  178.0240  138.4200 O   0  0  0  0  0  0  0  0  0  0  0  0
  187.9090  177.4120  139.3480 O   0  0  0  0  0  0  0  0  0  0  0  0
  189.0190  179.8600  137.4190 O   0  0  0  0  0  1  0  0  0  0  0  0
  189.0940  177.8160  136.2010 C   0  0  0  0  0  1  0  0  0  0  0  0
  1  2  1  0  0  0  0
  2  5  2  0  0  0  0
  3  1  1  0  0  0  0
  4  7  2  0  0  0  0
  6  4  1  0  0  0  0
  6  1  2  0  0  0  0
  7  5  1  0  0  0  0
  8 11  2  0  0  0  0
 10  8  1  0  0  0  0
 11 15  1  0  0  0  0
 12  9  2  0  0  0  0
 12 13  1  0  0  0  0
 13 16  1  0  0  0  0
 14 18  1  0  0  0  0
 16 14  1  0  0  0  0
 16 10  2  0  0  0  0
 17 12  1  0  0  0  0
 18 11  1  0  0  0  0
 18  4  1  1  0  0  0
 19  6  1  0  0  0  0
 20 19  1  0  0  0  0
 21 20  1  0  0  0  0
 22 23  1  6  0  0  0
 22 21  1  0  0  0  0
 24 28  1  0  0  0  0
 25 22  1  6  0  0  0
 26 30  1  6  0  0  0
 26 24  1  0  0  0  0
 26 27  1  0  0  0  0
 27 25  1  0  0  0  0
 28 25  1  0  0  0  0
 29 26  1  0  0  0  0
M  END
>  <MODEL>
4

>  <REMARK>
 VINA RESULT:      -9.7      1.971      2.933
  Name = 
  6 active torsions:
  status: ('A' for Active; 'I' for Inactive)
    1  A    between atoms: C_1  and  C_4
    2  A    between atoms: C_1  and  C_5
    3  A    between atoms: C_4  and  C_27
    4  A    between atoms: C_5  and  C_22
    5  A    between atoms: C_8  and  C_27
    6  A    between atoms: C_19  and  C_29
                            x       y       z     vdW  Elec       q    Type
                         _______ _______ _______ _____ _____    ______ ____

>  <TORSDO>
F 6

$$$$
=
 OpenBabel10262421493D

 30 32  0  0  1  0  0  0  0  0999 V2000
  187.8380  177.7400  146.4110 C   0  0  0  0  0  0  0  0  0  0  0  0
  187.2470  178.6100  147.3300 C   0  0  0  0  0  3  0  0  0  0  0  0
  189.0350  177.1140  146.7420 O   0  0  0  0  0  1  0  0  0  0  0  0
  186.0110  178.1630  144.8510 C   0  0  0  0  0  0  0  0  0  0  0  0
  186.0490  179.2520  147.0200 C   0  0  0  0  0  3  0  0  0  0  0  0
  187.2260  177.5050  145.1650 C   0  0  0  0  0  0  0  0  0  0  0  0
  185.4360  179.0300  145.7870 C   0  0  0  0  0  3  0  0  0  0  0  0
  183.3950  179.0020  142.3430 C   0  0  0  0  0  3  0  0  0  0  0  0
  184.3280  178.9460  138.3970 O   0  0  0  0  0  0  0  0  0  0  0  0
  184.1470  178.9110  141.1250 N   0  0  0  0  0  0  0  0  0  0  0  0
  183.9220  178.6240  143.5080 C   0  0  0  0  0  0  0  0  0  0  0  0
  185.5560  178.7120  138.5500 C   0  0  0  0  0  0  0  0  0  0  0  0
  186.1200  178.5250  139.8530 N   0  0  0  0  0  2  0  0  0  0  0  0
  186.1830  178.4300  142.3710 C   0  0  0  0  0  2  0  0  0  0  0  0
  183.0580  178.6540  144.7220 C   0  0  0  0  0  1  0  0  0  0  0  0
  185.4090  178.5970  141.0950 C   0  0  0  0  0  0  0  0  0  0  0  0
  186.4360  178.6280  137.3560 C   0  0  0  0  0  1  0  0  0  0  0  0
  185.2930  177.9870  143.5370 C   0  0  1  0  0  3  0  0  0  0  0  0
  187.8640  176.5600  144.1920 C   0  0  0  0  0  2  0  0  0  0  0  0
  189.1060  177.1820  143.5840 C   0  0  0  0  0  2  0  0  0  0  0  0
  189.1880  176.8050  142.1180 C   0  0  0  0  0  2  0  0  0  0  0  0
  190.6370  176.6880  141.6570 C   0  0  2  0  0  3  0  0  0  0  0  0
  191.4450  177.4630  142.4880 O   0  0  0  0  0  1  0  0  0  0  0  0
  189.7430  177.7620  138.4050 C   0  0  0  0  0  2  0  0  0  0  0  0
  190.8440  177.1200  140.2040 C   0  0  1  0  0  3  0  0  0  0  0  0
  190.4430  176.4600  138.1370 C   0  0  2  0  0  0  0  0  0  0  0  0
  190.9300  176.0030  139.3590 O   0  0  0  0  0  0  0  0  0  0  0  0
  189.8260  177.9880  139.7760 O   0  0  0  0  0  0  0  0  0  0  0  0
  191.4990  176.6610  137.2490 O   0  0  0  0  0  1  0  0  0  0  0  0
  189.4710  175.4520  137.5590 C   0  0  0  0  0  1  0  0  0  0  0  0
  1  3  1  0  0  0  0
  1  2  1  0  0  0  0
  4  6  1  0  0  0  0
  4  7  2  0  0  0  0
  5  2  2  0  0  0  0
  6  1  2  0  0  0  0
  7  5  1  0  0  0  0
  8 11  2  0  0  0  0
  9 12  2  0  0  0  0
 10  8  1  0  0  0  0
 11 18  1  0  0  0  0
 11 15  1  0  0  0  0
 12 13  1  0  0  0  0
 13 16  1  0  0  0  0
 14 18  1  0  0  0  0
 16 10  2  0  0  0  0
 16 14  1  0  0  0  0
 17 12  1  0  0  0  0
 18  4  1  1  0  0  0
 19  6  1  0  0  0  0
 20 19  1  0  0  0  0
 21 20  1  0  0  0  0
 22 21  1  0  0  0  0
 22 23  1  1  0  0  0
 24 28  1  0  0  0  0
 25 22  1  1  0  0  0
 26 30  1  6  0  0  0
 26 24  1  0  0  0  0
 26 27  1  0  0  0  0
 27 25  1  0  0  0  0
 28 25  1  0  0  0  0
 29 26  1  0  0  0  0
M  END
>  <MODEL>
5

>  <REMARK>
 VINA RESULT:      -9.7      2.301      4.122
  Name = 
  6 active torsions:
  status: ('A' for Active; 'I' for Inactive)
    1  A    between atoms: C_1  and  C_4
    2  A    between atoms: C_1  and  C_5
    3  A    between atoms: C_4  and  C_27
    4  A    between atoms: C_5  and  C_22
    5  A    between atoms: C_8  and  C_27
    6  A    between atoms: C_19  and  C_29
                            x       y       z     vdW  Elec       q    Type
                         _______ _______ _______ _____ _____    ______ ____

>  <TORSDO>
F 6

$$$$
=
 OpenBabel10262421493D

 30 32  0  0  1  0  0  0  0  0999 V2000
  186.1980  177.9110  145.9730 C   0  0  0  0  0  0  0  0  0  0  0  0
  185.1330  178.6620  146.4740 C   0  0  0  0  0  3  0  0  0  0  0  0
  187.1510  177.4130  146.8550 O   0  0  0  0  0  1  0  0  0  0  0  0
  185.3200  178.1900  143.7140 C   0  0  0  0  0  0  0  0  0  0  0  0
  184.1660  179.1740  145.6090 C   0  0  0  0  0  3  0  0  0  0  0  0
  186.3020  177.6640  144.5910 C   0  0  0  0  0  0  0  0  0  0  0  0
  184.2620  178.9410  144.2380 C   0  0  0  0  0  3  0  0  0  0  0  0
  184.2990  178.9670  140.2230 C   0  0  0  0  0  3  0  0  0  0  0  0
  187.0810  178.9070  137.2730 O   0  0  0  0  0  0  0  0  0  0  0  0
  185.5600  178.8830  139.5450 N   0  0  0  0  0  0  0  0  0  0  0  0
  184.1770  178.6050  141.5000 C   0  0  0  0  0  0  0  0  0  0  0  0
  188.0710  178.6980  138.0230 C   0  0  0  0  0  0  0  0  0  0  0  0
  187.9100  178.5280  139.4350 N   0  0  0  0  0  2  0  0  0  0  0  0
  186.7070  178.4480  141.6490 C   0  0  0  0  0  2  0  0  0  0  0  0
  182.8220  178.6250  142.1190 C   0  0  0  0  0  1  0  0  0  0  0  0
  186.6730  178.5930  140.1550 C   0  0  0  0  0  0  0  0  0  0  0  0
  189.4310  178.6230  137.4310 C   0  0  0  0  0  1  0  0  0  0  0  0
  185.3590  177.9940  142.2210 C   0  0  1  0  0  3  0  0  0  0  0  0
  187.4430  176.8460  144.0670 C   0  0  0  0  0  2  0  0  0  0  0  0
  188.6830  177.7050  143.9080 C   0  0  0  0  0  2  0  0  0  0  0  0
  189.8310  176.8410  143.4250 C   0  0  0  0  0  2  0  0  0  0  0  0
  191.1760  177.5120  143.6880 C   0  0  2  0  0  3  0  0  0  0  0  0
  192.0550  177.1960  142.6530 O   0  0  0  0  0  1  0  0  0  0  0  0
  191.9600  175.4150  146.4300 C   0  0  0  0  0  2  0  0  0  0  0  0
  191.8020  177.1060  145.0230 C   0  0  1  0  0  3  0  0  0  0  0  0
  191.2500  176.5630  147.0900 C   0  0  2  0  0  0  0  0  0  0  0  0
  190.9890  177.5030  146.0970 O   0  0  0  0  0  0  0  0  0  0  0  0
  192.0500  175.7250  145.0760 O   0  0  0  0  0  0  0  0  0  0  0  0
  192.0630  177.1240  148.0740 O   0  0  0  0  0  1  0  0  0  0  0  0
  189.9500  176.0900  147.7080 C   0  0  0  0  0  1  0  0  0  0  0  0
  1  2  1  0  0  0  0
  1  3  1  0  0  0  0
  4  7  2  0  0  0  0
  4  6  1  0  0  0  0
  5  2  2  0  0  0  0
  6  1  2  0  0  0  0
  7  5  1  0  0  0  0
  8 11  2  0  0  0  0
  9 12  2  0  0  0  0
 10 16  2  0  0  0  0
 10  8  1  0  0  0  0
 11 15  1  0  0  0  0
 11 18  1  0  0  0  0
 12 13  1  0  0  0  0
 13 16  1  0  0  0  0
 14 18  1  0  0  0  0
 16 14  1  0  0  0  0
 17 12  1  0  0  0  0
 18  4  1  1  0  0  0
 19  6  1  0  0  0  0
 20 19  1  0  0  0  0
 21 22  1  0  0  0  0
 21 20  1  0  0  0  0
 22 23  1  6  0  0  0
 24 26  1  0  0  0  0
 25 22  1  6  0  0  0
 25 28  1  0  0  0  0
 25 27  1  0  0  0  0
 26 30  1  1  0  0  0
 26 29  1  0  0  0  0
 27 26  1  0  0  0  0
 28 24  1  0  0  0  0
M  END
>  <MODEL>
6

>  <REMARK>
 VINA RESULT:      -9.5      2.779      6.650
  Name = 
  6 active torsions:
  status: ('A' for Active; 'I' for Inactive)
    1  A    between atoms: C_1  and  C_4
    2  A    between atoms: C_1  and  C_5
    3  A    between atoms: C_4  and  C_27
    4  A    between atoms: C_5  and  C_22
    5  A    between atoms: C_8  and  C_27
    6  A    between atoms: C_19  and  C_29
                            x       y       z     vdW  Elec       q    Type
                         _______ _______ _______ _____ _____    ______ ____

>  <TORSDO>
F 6

$$$$
=
 OpenBabel10262421493D

 30 32  0  0  1  0  0  0  0  0999 V2000
  186.6380  177.9490  146.8980 C   0  0  0  0  0  0  0  0  0  0  0  0
  187.3270  178.1810  148.0900 C   0  0  0  0  0  3  0  0  0  0  0  0
  185.2500  177.8750  146.9200 O   0  0  0  0  0  1  0  0  0  0  0  0
  188.7610  177.8650  145.6990 C   0  0  0  0  0  0  0  0  0  0  0  0
  188.7200  178.2560  148.0950 C   0  0  0  0  0  3  0  0  0  0  0  0
  187.3460  177.7920  145.6910 C   0  0  0  0  0  0  0  0  0  0  0  0
  189.4310  178.0970  146.9060 C   0  0  0  0  0  3  0  0  0  0  0  0
  191.1200  176.0030  143.5070 C   0  0  0  0  0  3  0  0  0  0  0  0
  190.6020  176.1010  139.4860 O   0  0  0  0  0  0  0  0  0  0  0  0
  190.5540  176.2620  142.2150 N   0  0  0  0  0  0  0  0  0  0  0  0
  190.6630  176.6200  144.5970 C   0  0  0  0  0  0  0  0  0  0  0  0
  189.5250  176.7530  139.5030 C   0  0  0  0  0  0  0  0  0  0  0  0
  188.9550  177.2130  140.7320 N   0  0  0  0  0  2  0  0  0  0  0  0
  188.7160  177.5000  143.2250 C   0  0  0  0  0  2  0  0  0  0  0  0
  191.3560  176.3800  145.8940 C   0  0  0  0  0  1  0  0  0  0  0  0
  189.4880  176.9880  142.0430 C   0  0  0  0  0  0  0  0  0  0  0  0
  188.8340  177.0520  138.2220 C   0  0  0  0  0  1  0  0  0  0  0  0
  189.6030  177.6910  144.4610 C   0  0  1  0  0  3  0  0  0  0  0  0
  186.5940  177.5560  144.4160 C   0  0  0  0  0  2  0  0  0  0  0  0
  185.6180  178.6880  144.1580 C   0  0  0  0  0  2  0  0  0  0  0  0
  184.7490  178.3360  142.9660 C   0  0  0  0  0  2  0  0  0  0  0  0
  185.4950  178.5550  141.6540 C   0  0  2  0  0  3  0  0  0  0  0  0
  186.1510  179.7840  141.7000 O   0  0  0  0  0  1  0  0  0  0  0  0
  183.2980  179.7910  139.1690 C   0  0  0  0  0  2  0  0  0  0  0  0
  184.5820  178.5140  140.4270 C   0  0  1  0  0  3  0  0  0  0  0  0
  182.4650  178.7400  139.8470 C   0  0  2  0  0  0  0  0  0  0  0  0
  183.2850  178.1150  140.7830 O   0  0  0  0  0  0  0  0  0  0  0  0
  184.5560  179.7520  139.7650 O   0  0  0  0  0  0  0  0  0  0  0  0
  182.0180  177.8090  138.9100 O   0  0  0  0  0  1  0  0  0  0  0  0
  181.2800  179.3780  140.5420 C   0  0  0  0  0  1  0  0  0  0  0  0
  1  3  1  0  0  0  0
  1  2  1  0  0  0  0
  2  5  2  0  0  0  0
  4  7  2  0  0  0  0
  6  4  1  0  0  0  0
  6  1  2  0  0  0  0
  7  5  1  0  0  0  0
  8 11  2  0  0  0  0
  9 12  2  0  0  0  0
 10  8  1  0  0  0  0
 11 15  1  0  0  0  0
 12 13  1  0  0  0  0
 13 16  1  0  0  0  0
 14 18  1  0  0  0  0
 16 10  2  0  0  0  0
 16 14  1  0  0  0  0
 17 12  1  0  0  0  0
 18 11  1  0  0  0  0
 18  4  1  1  0  0  0
 19  6  1  0  0  0  0
 20 19  1  0  0  0  0
 21 20  1  0  0  0  0
 22 23  1  1  0  0  0
 22 21  1  0  0  0  0
 24 28  1  0  0  0  0
 24 26  1  0  0  0  0
 25 27  1  0  0  0  0
 25 22  1  1  0  0  0
 26 30  1  1  0  0  0
 26 27  1  0  0  0  0
 28 25  1  0  0  0  0
 29 26  1  0  0  0  0
M  END
>  <MODEL>
7

>  <REMARK>
 VINA RESULT:      -9.5      2.879      6.140
  Name = 
  6 active torsions:
  status: ('A' for Active; 'I' for Inactive)
    1  A    between atoms: C_1  and  C_4
    2  A    between atoms: C_1  and  C_5
    3  A    between atoms: C_4  and  C_27
    4  A    between atoms: C_5  and  C_22
    5  A    between atoms: C_8  and  C_27
    6  A    between atoms: C_19  and  C_29
                            x       y       z     vdW  Elec       q    Type
                         _______ _______ _______ _____ _____    ______ ____

>  <TORSDO>
F 6

$$$$
=
 OpenBabel10262421493D

 30 32  0  0  1  0  0  0  0  0999 V2000
  185.5340  178.4870  140.0410 C   0  0  0  0  0  0  0  0  0  0  0  0
  184.1670  178.2000  140.0090 C   0  0  0  0  0  3  0  0  0  0  0  0
  186.2320  178.5920  138.8440 O   0  0  0  0  0  1  0  0  0  0  0  0
  185.4540  178.5430  142.4790 C   0  0  0  0  0  0  0  0  0  0  0  0
  183.4440  178.0860  141.1970 C   0  0  0  0  0  3  0  0  0  0  0  0
  186.1900  178.6640  141.2740 C   0  0  0  0  0  0  0  0  0  0  0  0
  184.0860  178.2550  142.4230 C   0  0  0  0  0  3  0  0  0  0  0  0
  185.4530  178.2880  146.1900 C   0  0  0  0  0  3  0  0  0  0  0  0
  188.8260  177.1050  148.1060 O   0  0  0  0  0  0  0  0  0  0  0  0
  186.7820  177.8040  146.4300 N   0  0  0  0  0  0  0  0  0  0  0  0
  185.0680  178.6700  144.9720 C   0  0  0  0  0  0  0  0  0  0  0  0
  189.4940  176.8580  147.0670 C   0  0  0  0  0  0  0  0  0  0  0  0
  188.9500  177.0850  145.7630 N   0  0  0  0  0  2  0  0  0  0  0  0
  187.2170  177.6940  144.0360 C   0  0  0  0  0  2  0  0  0  0  0  0
  183.7060  179.2530  144.8070 C   0  0  0  0  0  1  0  0  0  0  0  0
  187.6350  177.5750  145.4740 C   0  0  0  0  0  0  0  0  0  0  0  0
  190.8730  176.3220  147.1980 C   0  0  0  0  0  1  0  0  0  0  0  0
  186.0750  178.6980  143.8430 C   0  0  1  0  0  3  0  0  0  0  0  0
  187.6540  178.9840  141.2940 C   0  0  0  0  0  2  0  0  0  0  0  0
  188.4750  177.7270  141.0780 C   0  0  0  0  0  2  0  0  0  0  0  0
  189.4610  177.9610  139.9500 C   0  0  0  0  0  2  0  0  0  0  0  0
  190.6090  176.9580  140.0020 C   0  0  2  0  0  3  0  0  0  0  0  0
  191.7030  177.5470  140.6360 O   0  0  0  0  0  1  0  0  0  0  0  0
  191.7000  174.6450  137.5550 C   0  0  0  0  0  2  0  0  0  0  0  0
  191.0340  176.4570  138.6210 C   0  0  1  0  0  3  0  0  0  0  0  0
  192.7910  175.6770  137.5370 C   0  0  2  0  0  0  0  0  0  0  0  0
  192.4000  176.6960  138.4010 O   0  0  0  0  0  0  0  0  0  0  0  0
  190.7380  175.0940  138.4550 O   0  0  0  0  0  0  0  0  0  0  0  0
  192.9480  176.1820  136.2460 O   0  0  0  0  0  1  0  0  0  0  0  0
  194.0960  175.0700  138.0110 C   0  0  0  0  0  1  0  0  0  0  0  0
  1  6  1  0  0  0  0
  2  1  2  0  0  0  0
  2  5  1  0  0  0  0
  3  1  1  0  0  0  0
  5  7  2  0  0  0  0
  6 19  1  0  0  0  0
  6  4  2  0  0  0  0
  7  4  1  0  0  0  0
  8 10  1  0  0  0  0
 11  8  2  0  0  0  0
 12 17  1  0  0  0  0
 12  9  2  0  0  0  0
 13 12  1  0  0  0  0
 14 16  1  0  0  0  0
 15 11  1  0  0  0  0
 16 13  1  0  0  0  0
 16 10  2  0  0  0  0
 18  4  1  6  0  0  0
 18 14  1  0  0  0  0
 18 11  1  0  0  0  0
 20 19  1  0  0  0  0
 21 22  1  0  0  0  0
 21 20  1  0  0  0  0
 22 23  1  6  0  0  0
 24 28  1  0  0  0  0
 25 22  1  1  0  0  0
 26 24  1  0  0  0  0
 26 30  1  1  0  0  0
 26 27  1  0  0  0  0
 27 25  1  0  0  0  0
 28 25  1  0  0  0  0
 29 26  1  0  0  0  0
M  END
>  <MODEL>
8

>  <REMARK>
 VINA RESULT:      -9.4      2.117      5.169
  Name = 
  6 active torsions:
  status: ('A' for Active; 'I' for Inactive)
    1  A    between atoms: C_1  and  C_4
    2  A    between atoms: C_1  and  C_5
    3  A    between atoms: C_4  and  C_27
    4  A    between atoms: C_5  and  C_22
    5  A    between atoms: C_8  and  C_27
    6  A    between atoms: C_19  and  C_29
                            x       y       z     vdW  Elec       q    Type
                         _______ _______ _______ _____ _____    ______ ____

>  <TORSDO>
F 6

$$$$
=
 OpenBabel10262421493D

 30 32  0  0  1  0  0  0  0  0999 V2000
  186.9170  177.8980  147.2850 C   0  0  0  0  0  0  0  0  0  0  0  0
  187.6540  177.9190  148.4720 C   0  0  0  0  0  3  0  0  0  0  0  0
  185.5290  177.9260  147.3490 O   0  0  0  0  0  1  0  0  0  0  0  0
  188.9940  177.8150  146.0080 C   0  0  0  0  0  0  0  0  0  0  0  0
  189.0480  177.8890  148.4340 C   0  0  0  0  0  3  0  0  0  0  0  0
  187.5780  177.8500  146.0430 C   0  0  0  0  0  0  0  0  0  0  0  0
  189.7120  177.8360  147.2090 C   0  0  0  0  0  3  0  0  0  0  0  0
  191.3060  176.1650  143.6070 C   0  0  0  0  0  3  0  0  0  0  0  0
  190.6120  176.4960  139.6250 O   0  0  0  0  0  0  0  0  0  0  0  0
  190.6770  176.4860  142.3580 N   0  0  0  0  0  0  0  0  0  0  0  0
  190.8800  176.6990  144.7510 C   0  0  0  0  0  0  0  0  0  0  0  0
  189.5190  177.1130  139.7280 C   0  0  0  0  0  0  0  0  0  0  0  0
  188.9900  177.4790  141.0060 N   0  0  0  0  0  2  0  0  0  0  0  0
  188.8520  177.6040  143.5200 C   0  0  0  0  0  2  0  0  0  0  0  0
  191.6350  176.4000  146.0010 C   0  0  0  0  0  1  0  0  0  0  0  0
  189.5850  177.1890  142.2770 C   0  0  0  0  0  0  0  0  0  0  0  0
  188.7650  177.4700  138.4980 C   0  0  0  0  0  1  0  0  0  0  0  0
  189.7860  177.7430  144.7280 C   0  0  1  0  0  3  0  0  0  0  0  0
  186.7760  177.8400  144.7770 C   0  0  0  0  0  2  0  0  0  0  0  0
  185.8210  179.0190  144.7440 C   0  0  0  0  0  2  0  0  0  0  0  0
  184.7840  178.7910  143.6620 C   0  0  0  0  0  2  0  0  0  0  0  0
  183.4240  179.3480  144.0750 C   0  0  2  0  0  3  0  0  0  0  0  0
  183.2580  179.1790  145.4480 O   0  0  0  0  0  1  0  0  0  0  0  0
  181.2140  178.6600  141.3960 C   0  0  0  0  0  2  0  0  0  0  0  0
  182.2550  178.6880  143.3400 C   0  0  1  0  0  3  0  0  0  0  0  0
  180.2850  179.1590  142.4650 C   0  0  2  0  0  0  0  0  0  0  0  0
  181.0530  179.3610  143.6090 O   0  0  0  0  0  0  0  0  0  0  0  0
  182.4890  178.6250  141.9560 O   0  0  0  0  0  0  0  0  0  0  0  0
  179.2960  178.2090  142.7190 O   0  0  0  0  0  1  0  0  0  0  0  0
  179.6450  180.4630  142.0360 C   0  0  0  0  0  1  0  0  0  0  0  0
  1  3  1  0  0  0  0
  1  2  1  0  0  0  0
  4  6  1  0  0  0  0
  4  7  2  0  0  0  0
  5  2  2  0  0  0  0
  6  1  2  0  0  0  0
  7  5  1  0  0  0  0
  8 11  2  0  0  0  0
  9 12  2  0  0  0  0
 10  8  1  0  0  0  0
 11 15  1  0  0  0  0
 12 13  1  0  0  0  0
 13 16  1  0  0  0  0
 14 18  1  0  0  0  0
 16 10  2  0  0  0  0
 16 14  1  0  0  0  0
 17 12  1  0  0  0  0
 18 11  1  0  0  0  0
 18  4  1  1  0  0  0
 19  6  1  0  0  0  0
 20 19  1  0  0  0  0
 21 22  1  0  0  0  0
 21 20  1  0  0  0  0
 22 23  1  1  0  0  0
 24 28  1  0  0  0  0
 24 26  1  0  0  0  0
 25 27  1  0  0  0  0
 25 22  1  1  0  0  0
 26 30  1  6  0  0  0
 26 29  1  0  0  0  0
 26 27  1  0  0  0  0
 28 25  1  0  0  0  0
M  END
>  <MODEL>
9

>  <REMARK>
 VINA RESULT:      -9.3      2.319      7.227
  Name = 
  6 active torsions:
  status: ('A' for Active; 'I' for Inactive)
    1  A    between atoms: C_1  and  C_4
    2  A    between atoms: C_1  and  C_5
    3  A    between atoms: C_4  and  C_27
    4  A    between atoms: C_5  and  C_22
    5  A    between atoms: C_8  and  C_27
    6  A    between atoms: C_19  and  C_29
                            x       y       z     vdW  Elec       q    Type
                         _______ _______ _______ _____ _____    ______ ____

>  <TORSDO>
F 6

$$$$
