=
 OpenBabel10262419573D

 25 29  0  0  1  0  0  0  0  0999 V2000
  186.5250  176.9620  143.7800 C   0  0  1  0  0  3  0  0  0  0  0  0
  187.7370  176.8130  142.8310 C   0  0  0  0  0  0  0  0  0  0  0  0
  185.8280  178.6510  141.9290 C   0  0  0  0  0  2  0  0  0  0  0  0
  186.9070  177.5280  145.1010 C   0  0  1  0  0  3  0  0  0  0  0  0
  190.1140  176.2860  143.4220 C   0  0  0  0  0  0  0  0  0  0  0  0
  185.5670  179.6020  147.4720 O   0  0  0  0  0  0  0  0  0  0  0  0
  187.2840  179.0220  141.8860 C   0  0  0  0  0  2  0  0  0  0  0  0
  186.2600  178.6220  145.3880 C   0  0  2  0  0  3  0  0  0  0  0  0
  186.1810  178.7190  146.8210 C   0  0  0  0  0  0  0  0  0  0  0  0
  189.6530  178.5540  142.2400 C   0  0  0  0  0  0  0  0  0  0  0  0
  191.2890  179.8180  143.5930 C   0  0  0  0  0  1  0  0  0  0  0  0
  188.8180  175.9600  143.4250 C   0  0  0  0  0  3  0  0  0  0  0  0
  186.8380  177.6420  147.3910 O   0  0  0  0  0  0  0  0  0  0  0  0
  185.4610  177.9810  143.2620 C   0  0  2  0  0  3  0  0  0  0  0  0
  185.2870  179.0430  144.3580 C   0  0  0  0  0  2  0  0  0  0  0  0
  190.6610  177.5570  142.8180 C   0  0  0  0  0  0  0  0  0  0  0  0
  187.3130  176.7900  146.3470 C   0  0  0  0  0  2  0  0  0  0  0  0
  190.2110  178.7550  143.6360 C   0  0  2  0  0  3  0  0  0  0  0  0
  188.2080  178.1510  142.3100 C   0  0  0  0  0  0  0  0  0  0  0  0
  191.0810  175.3400  144.0610 C   0  0  0  0  0  2  0  0  0  0  0  0
  191.9300  176.0550  145.1000 C   0  0  0  0  0  2  0  0  0  0  0  0
  192.2560  175.1150  146.2560 C   0  0  0  0  0  2  0  0  0  0  0  0
  191.7580  175.6410  147.5980 C   0  0  0  0  0  3  0  0  0  0  0  0
  192.9050  175.9220  148.5520 C   0  0  0  0  0  1  0  0  0  0  0  0
  190.8950  176.8770  147.4240 C   0  0  0  0  0  1  0  0  0  0  0  0
  1  2  1  6  0  0  0
  1  4  1  0  0  0  0
  2 12  1  0  0  0  0
  4  8  1  0  0  0  0
  4 17  1  1  0  0  0
  5 12  2  0  0  0  0
  5 20  1  0  0  0  0
  7  3  1  0  0  0  0
  7 19  1  0  0  0  0
  8 15  1  6  0  0  0
  8  9  1  0  0  0  0
  9 13  1  0  0  0  0
  9  6  2  0  0  0  0
 10 19  1  0  0  0  0
 10 16  2  0  0  0  0
 10 18  1  0  0  0  0
 14  3  1  6  0  0  0
 14  1  1  0  0  0  0
 14 15  1  0  0  0  0
 16  5  1  0  0  0  0
 16 18  1  0  0  0  0
 17 13  1  0  0  0  0
 18 11  1  6  0  0  0
 19  2  2  0  0  0  0
 20 21  1  0  0  0  0
 21 22  1  0  0  0  0
 22 23  1  0  0  0  0
 23 24  1  0  0  0  0
 25 23  1  0  0  0  0
M  END
>  <MODEL>
1

>  <REMARK>
 VINA RESULT:      -7.2      0.000      0.000
  Name = 
  4 active torsions:
  status: ('A' for Active; 'I' for Inactive)
    1  A    between atoms: C_2  and  C_21
    2  A    between atoms: C_6  and  C_15
    3  A    between atoms: C_15  and  C_25
    4  A    between atoms: C_21  and  C_25
                            x       y       z     vdW  Elec       q    Type
                         _______ _______ _______ _____ _____    ______ ____

>  <TORSDO>
F 4

$$$$
=
 OpenBabel10262419573D

 25 29  0  0  1  0  0  0  0  0999 V2000
  189.0080  176.3760  141.5840 C   0  0  1  0  0  3  0  0  0  0  0  0
  190.3380  176.2950  142.3700 C   0  0  0  0  0  0  0  0  0  0  0  0
  190.6550  177.1140  139.7120 C   0  0  0  0  0  2  0  0  0  0  0  0
  188.0920  177.4150  142.1270 C   0  0  1  0  0  3  0  0  0  0  0  0
  190.7240  176.6990  144.8120 C   0  0  0  0  0  0  0  0  0  0  0  0
  185.7790  179.6460  140.9460 O   0  0  0  0  0  0  0  0  0  0  0  0
  191.3730  177.8610  140.8020 C   0  0  0  0  0  2  0  0  0  0  0  0
  187.7550  178.3060  141.2370 C   0  0  2  0  0  3  0  0  0  0  0  0
  186.4640  178.8220  141.6050 C   0  0  0  0  0  0  0  0  0  0  0  0
  191.9760  178.2400  143.1360 C   0  0  0  0  0  0  0  0  0  0  0  0
  191.6830  180.2840  144.4910 C   0  0  0  0  0  1  0  0  0  0  0  0
  190.1170  176.0270  143.8280 C   0  0  0  0  0  3  0  0  0  0  0  0
  186.0460  178.2200  142.7790 O   0  0  0  0  0  0  0  0  0  0  0  0
  189.1970  176.8220  140.1010 C   0  0  2  0  0  3  0  0  0  0  0  0
  188.3340  178.0770  139.8970 C   0  0  0  0  0  2  0  0  0  0  0  0
  191.7140  177.8150  144.5830 C   0  0  0  0  0  0  0  0  0  0  0  0
  187.0260  177.2600  143.1770 C   0  0  0  0  0  2  0  0  0  0  0  0
  191.0050  179.0240  143.9970 C   0  0  2  0  0  3  0  0  0  0  0  0
  191.2330  177.4770  142.0770 C   0  0  0  0  0  0  0  0  0  0  0  0
  190.3980  176.3270  146.2250 C   0  0  0  0  0  2  0  0  0  0  0  0
  189.7480  177.4930  146.9540 C   0  0  0  0  0  2  0  0  0  0  0  0
  188.3680  177.7780  146.3710 C   0  0  0  0  0  2  0  0  0  0  0  0
  187.2750  177.7960  147.4350 C   0  0  0  0  0  3  0  0  0  0  0  0
  187.8280  178.1450  148.8040 C   0  0  0  0  0  1  0  0  0  0  0  0
  186.1490  178.7410  147.0570 C   0  0  0  0  0  1  0  0  0  0  0  0
  1  4  1  0  0  0  0
  1  2  1  1  0  0  0
  2 12  1  0  0  0  0
  3  7  1  0  0  0  0
  4 17  1  6  0  0  0
  5 20  1  0  0  0  0
  6  9  2  0  0  0  0
  7 19  1  0  0  0  0
  8 15  1  6  0  0  0
  8  9  1  0  0  0  0
  8  4  1  0  0  0  0
  9 13  1  0  0  0  0
 10 18  1  0  0  0  0
 10 16  2  0  0  0  0
 12  5  2  0  0  0  0
 13 17  1  0  0  0  0
 14  3  1  1  0  0  0
 14  1  1  0  0  0  0
 15 14  1  0  0  0  0
 16  5  1  0  0  0  0
 18 11  1  1  0  0  0
 18 16  1  0  0  0  0
 19  2  2  0  0  0  0
 19 10  1  0  0  0  0
 20 21  1  0  0  0  0
 22 21  1  0  0  0  0
 22 23  1  0  0  0  0
 23 24  1  0  0  0  0
 25 23  1  0  0  0  0
M  END
>  <MODEL>
2

>  <REMARK>
 VINA RESULT:      -7.2      2.245      4.015
  Name = 
  4 active torsions:
  status: ('A' for Active; 'I' for Inactive)
    1  A    between atoms: C_2  and  C_21
    2  A    between atoms: C_6  and  C_15
    3  A    between atoms: C_15  and  C_25
    4  A    between atoms: C_21  and  C_25
                            x       y       z     vdW  Elec       q    Type
                         _______ _______ _______ _____ _____    ______ ____

>  <TORSDO>
F 4

$$$$
=
 OpenBabel10262419573D

 25 29  0  0  1  0  0  0  0  0999 V2000
  179.9750  178.5690  139.1850 C   0  0  1  0  0  3  0  0  0  0  0  0
  180.8300  177.7430  140.1750 C   0  0  0  0  0  0  0  0  0  0  0  0
  180.8370  176.7230  137.5690 C   0  0  0  0  0  2  0  0  0  0  0  0
  180.5080  179.9430  138.9870 C   0  0  1  0  0  3  0  0  0  0  0  0
  182.0980  178.5540  142.1790 C   0  0  0  0  0  0  0  0  0  0  0  0
  180.7560  182.2440  136.4630 O   0  0  0  0  0  0  0  0  0  0  0  0
  182.1370  176.8440  138.3150 C   0  0  0  0  0  2  0  0  0  0  0  0
  180.7780  180.2050  137.7390 C   0  0  2  0  0  3  0  0  0  0  0  0
  180.6450  181.6250  137.5530 C   0  0  0  0  0  0  0  0  0  0  0  0
  183.4630  177.4200  140.2810 C   0  0  0  0  0  0  0  0  0  0  0  0
  185.3700  178.9810  140.4510 C   0  0  0  0  0  1  0  0  0  0  0  0
  180.9470  178.4110  141.5130 C   0  0  0  0  0  3  0  0  0  0  0  0
  180.3070  182.2160  138.7580 O   0  0  0  0  0  0  0  0  0  0  0  0
  179.9760  177.9850  137.7380 C   0  0  2  0  0  3  0  0  0  0  0  0
  180.4810  179.0980  136.8070 C   0  0  0  0  0  2  0  0  0  0  0  0
  183.4300  178.0580  141.6720 C   0  0  0  0  0  0  0  0  0  0  0  0
  180.1590  181.1950  139.7450 C   0  0  0  0  0  2  0  0  0  0  0  0
  183.8600  178.8720  140.4640 C   0  0  2  0  0  3  0  0  0  0  0  0
  182.1470  177.3260  139.5640 C   0  0  0  0  0  0  0  0  0  0  0  0
  182.0640  179.2510  143.5020 C   0  0  0  0  0  2  0  0  0  0  0  0
  183.4680  179.6210  143.9530 C   0  0  0  0  0  2  0  0  0  0  0  0
  183.8520  178.8250  145.1970 C   0  0  0  0  0  2  0  0  0  0  0  0
  185.3520  178.8540  145.4720 C   0  0  0  0  0  3  0  0  0  0  0  0
  185.6600  178.6000  146.9360 C   0  0  0  0  0  1  0  0  0  0  0  0
  186.0960  177.8650  144.5920 C   0  0  0  0  0  1  0  0  0  0  0  0
  1  2  1  1  0  0  0
  2 12  1  0  0  0  0
  3 14  1  0  0  0  0
  3  7  1  0  0  0  0
  4  1  1  0  0  0  0
  4 17  1  6  0  0  0
  5 20  1  0  0  0  0
  6  9  2  0  0  0  0
  7 19  1  0  0  0  0
  8 15  1  6  0  0  0
  8  4  1  0  0  0  0
  9  8  1  0  0  0  0
  9 13  1  0  0  0  0
 10 18  1  0  0  0  0
 10 16  2  0  0  0  0
 12  5  2  0  0  0  0
 13 17  1  0  0  0  0
 14 15  1  6  0  0  0
 14  1  1  0  0  0  0
 16  5  1  0  0  0  0
 18 11  1  1  0  0  0
 18 16  1  0  0  0  0
 19  2  2  0  0  0  0
 19 10  1  0  0  0  0
 20 21  1  0  0  0  0
 21 22  1  0  0  0  0
 22 23  1  0  0  0  0
 23 24  1  0  0  0  0
 25 23  1  0  0  0  0
M  END
>  <MODEL>
3

>  <REMARK>
 VINA RESULT:      -6.3      5.662      8.620
  Name = 
  4 active torsions:
  status: ('A' for Active; 'I' for Inactive)
    1  A    between atoms: C_2  and  C_21
    2  A    between atoms: C_6  and  C_15
    3  A    between atoms: C_15  and  C_25
    4  A    between atoms: C_21  and  C_25
                            x       y       z     vdW  Elec       q    Type
                         _______ _______ _______ _____ _____    ______ ____

>  <TORSDO>
F 4

$$$$
=
 OpenBabel10262419573D

 25 29  0  0  1  0  0  0  0  0999 V2000
  181.4390  178.4950  139.0360 C   0  0  1  0  0  3  0  0  0  0  0  0
  181.7560  179.4210  140.2330 C   0  0  0  0  0  0  0  0  0  0  0  0
  179.4700  180.1780  138.8060 C   0  0  0  0  0  2  0  0  0  0  0  0
  181.0990  177.1110  139.4650 C   0  0  1  0  0  3  0  0  0  0  0  0
  182.8400  178.8230  142.4120 C   0  0  0  0  0  0  0  0  0  0  0  0
  179.0210  174.5740  138.4820 O   0  0  0  0  0  0  0  0  0  0  0  0
  179.4210  180.1420  140.3090 C   0  0  0  0  0  2  0  0  0  0  0  0
  179.9230  176.7300  139.0530 C   0  0  2  0  0  3  0  0  0  0  0  0
  179.9500  175.2970  138.9260 C   0  0  0  0  0  0  0  0  0  0  0  0
  180.4230  179.7750  142.5030 C   0  0  0  0  0  0  0  0  0  0  0  0
  179.6810  178.2530  144.3020 C   0  0  0  0  0  1  0  0  0  0  0  0
  182.8760  178.8900  141.0770 C   0  0  0  0  0  3  0  0  0  0  0  0
  181.1940  174.8260  139.3090 O   0  0  0  0  0  0  0  0  0  0  0  0
  180.1690  178.9320  138.2400 C   0  0  2  0  0  3  0  0  0  0  0  0
  179.2050  177.7360  138.2430 C   0  0  0  0  0  2  0  0  0  0  0  0
  181.6660  179.2770  143.2450 C   0  0  0  0  0  0  0  0  0  0  0  0
  182.0240  175.9390  139.6420 C   0  0  0  0  0  2  0  0  0  0  0  0
  180.4830  178.3510  143.0220 C   0  0  2  0  0  3  0  0  0  0  0  0
  180.5080  179.7860  141.0030 C   0  0  0  0  0  0  0  0  0  0  0  0
  184.0310  178.2610  143.1220 C   0  0  0  0  0  2  0  0  0  0  0  0
  184.0030  178.6280  144.5970 C   0  0  0  0  0  2  0  0  0  0  0  0
  185.3930  179.0460  145.0650 C   0  0  0  0  0  2  0  0  0  0  0  0
  186.1780  177.8890  145.6760 C   0  0  0  0  0  3  0  0  0  0  0  0
  187.3120  177.4390  144.7730 C   0  0  0  0  0  1  0  0  0  0  0  0
  186.7030  178.2430  147.0560 C   0  0  0  0  0  1  0  0  0  0  0  0
  1  4  1  0  0  0  0
  1  2  1  1  0  0  0
  2 19  2  0  0  0  0
  2 12  1  0  0  0  0
  3  7  1  0  0  0  0
  4 17  1  6  0  0  0
  5 20  1  0  0  0  0
  5 16  1  0  0  0  0
  6  9  2  0  0  0  0
  7 19  1  0  0  0  0
  8 15  1  6  0  0  0
  8  4  1  0  0  0  0
  9  8  1  0  0  0  0
  9 13  1  0  0  0  0
 10 18  1  0  0  0  0
 10 16  2  0  0  0  0
 12  5  2  0  0  0  0
 13 17  1  0  0  0  0
 14 15  1  1  0  0  0
 14  3  1  0  0  0  0
 14  1  1  0  0  0  0
 18 16  1  0  0  0  0
 18 11  1  1  0  0  0
 19 10  1  0  0  0  0
 20 21  1  0  0  0  0
 21 22  1  0  0  0  0
 22 23  1  0  0  0  0
 23 25  1  0  0  0  0
 24 23  1  0  0  0  0
M  END
>  <MODEL>
4

>  <REMARK>
 VINA RESULT:      -6.0      5.717      8.522
  Name = 
  4 active torsions:
  status: ('A' for Active; 'I' for Inactive)
    1  A    between atoms: C_2  and  C_21
    2  A    between atoms: C_6  and  C_15
    3  A    between atoms: C_15  and  C_25
    4  A    between atoms: C_21  and  C_25
                            x       y       z     vdW  Elec       q    Type
                         _______ _______ _______ _____ _____    ______ ____

>  <TORSDO>
F 4

$$$$
=
 OpenBabel10262419573D

 25 29  0  0  1  0  0  0  0  0999 V2000
  190.0380  176.2910  140.3390 C   0  0  1  0  0  3  0  0  0  0  0  0
  190.5190  176.1770  141.8050 C   0  0  0  0  0  0  0  0  0  0  0  0
  192.6060  176.4500  139.9600 C   0  0  0  0  0  2  0  0  0  0  0  0
  189.2420  177.5240  140.0990 C   0  0  1  0  0  3  0  0  0  0  0  0
  189.3600  176.9630  143.8830 C   0  0  0  0  0  0  0  0  0  0  0  0
  188.7490  179.7920  137.5820 O   0  0  0  0  0  0  0  0  0  0  0  0
  192.6200  177.2790  141.2140 C   0  0  0  0  0  2  0  0  0  0  0  0
  189.7450  178.2750  139.1600 C   0  0  2  0  0  3  0  0  0  0  0  0
  188.6640  179.0170  138.5700 C   0  0  0  0  0  0  0  0  0  0  0  0
  191.6860  177.9920  143.3530 C   0  0  0  0  0  0  0  0  0  0  0  0
  191.0650  180.2690  144.0820 C   0  0  0  0  0  1  0  0  0  0  0  0
  189.3780  176.2110  142.7780 C   0  0  0  0  0  3  0  0  0  0  0  0
  187.4820  178.7000  139.2160 O   0  0  0  0  0  0  0  0  0  0  0  0
  191.2100  176.4310  139.3180 C   0  0  2  0  0  3  0  0  0  0  0  0
  190.9690  177.7310  138.5360 C   0  0  0  0  0  2  0  0  0  0  0  0
  190.4880  177.8760  144.2980 C   0  0  0  0  0  0  0  0  0  0  0  0
  187.7530  177.7060  140.2050 C   0  0  0  0  0  2  0  0  0  0  0  0
  190.5930  179.0420  143.3300 C   0  0  2  0  0  3  0  0  0  0  0  0
  191.6310  177.1550  142.1070 C   0  0  0  0  0  0  0  0  0  0  0  0
  188.1470  176.9010  144.7580 C   0  0  0  0  0  2  0  0  0  0  0  0
  186.9160  177.3870  144.0090 C   0  0  0  0  0  2  0  0  0  0  0  0
  186.0370  178.2290  144.9270 C   0  0  0  0  0  2  0  0  0  0  0  0
  184.9260  178.9540  144.1730 C   0  0  0  0  0  3  0  0  0  0  0  0
  184.7200  178.3770  142.7840 C   0  0  0  0  0  1  0  0  0  0  0  0
  183.6250  178.9410  144.9540 C   0  0  0  0  0  1  0  0  0  0  0  0
  1  2  1  1  0  0  0
  2 19  2  0  0  0  0
  2 12  1  0  0  0  0
  3  7  1  0  0  0  0
  4 17  1  6  0  0  0
  4  1  1  0  0  0  0
  5 16  1  0  0  0  0
  5 20  1  0  0  0  0
  6  9  2  0  0  0  0
  7 19  1  0  0  0  0
  8 15  1  6  0  0  0
  8  4  1  0  0  0  0
  9  8  1  0  0  0  0
  9 13  1  0  0  0  0
 10 16  2  0  0  0  0
 12  5  2  0  0  0  0
 13 17  1  0  0  0  0
 14 15  1  1  0  0  0
 14  3  1  0  0  0  0
 14  1  1  0  0  0  0
 18 10  1  0  0  0  0
 18 11  1  1  0  0  0
 18 16  1  0  0  0  0
 19 10  1  0  0  0  0
 21 20  1  0  0  0  0
 21 22  1  0  0  0  0
 23 22  1  0  0  0  0
 23 25  1  0  0  0  0
 24 23  1  0  0  0  0
M  END
>  <MODEL>
5

>  <REMARK>
 VINA RESULT:      -5.7      3.351      6.205
  Name = 
  4 active torsions:
  status: ('A' for Active; 'I' for Inactive)
    1  A    between atoms: C_2  and  C_21
    2  A    between atoms: C_6  and  C_15
    3  A    between atoms: C_15  and  C_25
    4  A    between atoms: C_21  and  C_25
                            x       y       z     vdW  Elec       q    Type
                         _______ _______ _______ _____ _____    ______ ____

>  <TORSDO>
F 4

$$$$
=
 OpenBabel10262419573D

 25 29  0  0  1  0  0  0  0  0999 V2000
  187.9450  178.4060  137.1230 C   0  0  1  0  0  3  0  0  0  0  0  0
  186.5070  178.1220  136.6300 C   0  0  0  0  0  0  0  0  0  0  0  0
  188.4790  177.5040  134.7430 C   0  0  0  0  0  2  0  0  0  0  0  0
  188.3300  177.5450  138.2740 C   0  0  1  0  0  3  0  0  0  0  0  0
  184.5160  177.4190  137.9790 C   0  0  0  0  0  0  0  0  0  0  0  0
  191.1350  175.9910  139.4720 O   0  0  0  0  0  0  0  0  0  0  0  0
  187.3700  176.5210  134.9960 C   0  0  0  0  0  2  0  0  0  0  0  0
  189.3970  176.8360  138.0390 C   0  0  2  0  0  3  0  0  0  0  0  0
  190.0370  176.5820  139.3020 C   0  0  0  0  0  0  0  0  0  0  0  0
  185.3190  175.8050  136.1080 C   0  0  0  0  0  0  0  0  0  0  0  0
  184.9160  173.7570  137.4290 C   0  0  0  0  0  1  0  0  0  0  0  0
  185.4920  178.2950  137.7200 C   0  0  0  0  0  3  0  0  0  0  0  0
  189.2880  177.1480  140.3190 O   0  0  0  0  0  0  0  0  0  0  0  0
  189.0370  178.0680  136.0590 C   0  0  2  0  0  3  0  0  0  0  0  0
  189.9950  177.0560  136.7060 C   0  0  0  0  0  2  0  0  0  0  0  0
  184.3060  176.1400  137.2050 C   0  0  0  0  0  0  0  0  0  0  0  0
  188.1740  177.8300  139.7420 C   0  0  0  0  0  2  0  0  0  0  0  0
  185.4450  175.1740  137.4810 C   0  0  2  0  0  3  0  0  0  0  0  0
  186.4180  176.8060  135.8920 C   0  0  0  0  0  0  0  0  0  0  0  0
  183.5790  177.7210  139.1060 C   0  0  0  0  0  2  0  0  0  0  0  0
  184.2620  178.5790  140.1600 C   0  0  0  0  0  2  0  0  0  0  0  0
  183.8880  178.0980  141.5580 C   0  0  0  0  0  2  0  0  0  0  0  0
  184.7200  178.7640  142.6490 C   0  0  0  0  0  3  0  0  0  0  0  0
  183.9760  178.8150  143.9720 C   0  0  0  0  0  1  0  0  0  0  0  0
  186.0640  178.0770  142.8200 C   0  0  0  0  0  1  0  0  0  0  0  0
  1  2  1  6  0  0  0
  1  4  1  0  0  0  0
  2 12  1  0  0  0  0
  3  7  1  0  0  0  0
  4 17  1  1  0  0  0
  5 20  1  0  0  0  0
  7 19  1  0  0  0  0
  8 15  1  6  0  0  0
  8  4  1  0  0  0  0
  8  9  1  0  0  0  0
  9  6  2  0  0  0  0
  9 13  1  0  0  0  0
 10 16  2  0  0  0  0
 10 18  1  0  0  0  0
 12  5  2  0  0  0  0
 14  3  1  6  0  0  0
 14 15  1  0  0  0  0
 14  1  1  0  0  0  0
 16 18  1  0  0  0  0
 16  5  1  0  0  0  0
 17 13  1  0  0  0  0
 18 11  1  6  0  0  0
 19 10  1  0  0  0  0
 19  2  2  0  0  0  0
 20 21  1  0  0  0  0
 21 22  1  0  0  0  0
 22 23  1  0  0  0  0
 23 25  1  0  0  0  0
 23 24  1  0  0  0  0
M  END
>  <MODEL>
6

>  <REMARK>
 VINA RESULT:      -5.7      5.227      8.377
  Name = 
  4 active torsions:
  status: ('A' for Active; 'I' for Inactive)
    1  A    between atoms: C_2  and  C_21
    2  A    between atoms: C_6  and  C_15
    3  A    between atoms: C_15  and  C_25
    4  A    between atoms: C_21  and  C_25
                            x       y       z     vdW  Elec       q    Type
                         _______ _______ _______ _____ _____    ______ ____

>  <TORSDO>
F 4

$$$$
=
 OpenBabel10262419573D

 25 29  0  0  1  0  0  0  0  0999 V2000
  189.7880  176.9260  137.0300 C   0  0  1  0  0  3  0  0  0  0  0  0
  189.2100  175.9410  135.9870 C   0  0  0  0  0  0  0  0  0  0  0  0
  191.3930  174.9150  137.4070 C   0  0  0  0  0  2  0  0  0  0  0  0
  188.8190  177.2310  138.1170 C   0  0  1  0  0  3  0  0  0  0  0  0
  186.8360  175.7120  135.2170 C   0  0  0  0  0  0  0  0  0  0  0  0
  188.8790  177.8860  141.4770 O   0  0  0  0  0  0  0  0  0  0  0  0
  190.1720  174.0580  137.2140 C   0  0  0  0  0  2  0  0  0  0  0  0
  189.2820  176.9440  139.3010 C   0  0  2  0  0  3  0  0  0  0  0  0
  188.6360  177.8160  140.2450 C   0  0  0  0  0  0  0  0  0  0  0  0
  187.9280  173.6440  136.3510 C   0  0  0  0  0  0  0  0  0  0  0  0
  185.8920  173.0040  137.5940 C   0  0  0  0  0  1  0  0  0  0  0  0
  187.9400  176.4500  135.3720 C   0  0  0  0  0  3  0  0  0  0  0  0
  187.7350  178.6280  139.5770 O   0  0  0  0  0  0  0  0  0  0  0  0
  191.0110  176.3490  137.8090 C   0  0  2  0  0  3  0  0  0  0  0  0
  190.6580  176.4050  139.3020 C   0  0  0  0  0  2  0  0  0  0  0  0
  186.7230  174.2680  135.6410 C   0  0  0  0  0  0  0  0  0  0  0  0
  187.8110  178.3450  138.1800 C   0  0  0  0  0  2  0  0  0  0  0  0
  186.7540  174.1680  137.1560 C   0  0  2  0  0  3  0  0  0  0  0  0
  189.1230  174.5350  136.5330 C   0  0  0  0  0  0  0  0  0  0  0  0
  185.6390  176.3580  134.5940 C   0  0  0  0  0  2  0  0  0  0  0  0
  184.9600  177.2990  135.5760 C   0  0  0  0  0  2  0  0  0  0  0  0
  183.8920  176.5540  136.3710 C   0  0  0  0  0  2  0  0  0  0  0  0
  184.1000  176.6640  137.8780 C   0  0  0  0  0  3  0  0  0  0  0  0
  184.1200  178.1100  138.3400 C   0  0  0  0  0  1  0  0  0  0  0  0
  183.0500  175.8750  138.6410 C   0  0  0  0  0  1  0  0  0  0  0  0
  1  2  1  6  0  0  0
  1 14  1  0  0  0  0
  1  4  1  0  0  0  0
  2 19  1  0  0  0  0
  4 17  1  1  0  0  0
  4  8  1  0  0  0  0
  5 12  1  0  0  0  0
  5 16  2  3  0  0  0
  7  3  1  0  0  0  0
  8 15  1  6  0  0  0
  8  9  1  0  0  0  0
  9  6  2  0  0  0  0
 10 19  2  3  0  0  0
 10 18  1  0  0  0  0
 12  2  2  0  0  0  0
 13  9  1  0  0  0  0
 14  3  1  6  0  0  0
 14 15  1  0  0  0  0
 16 10  1  0  0  0  0
 16 18  1  0  0  0  0
 17 13  1  0  0  0  0
 18 11  1  6  0  0  0
 19  7  1  0  0  0  0
 20  5  1  0  0  0  0
 20 21  1  0  0  0  0
 21 22  1  0  0  0  0
 22 23  1  0  0  0  0
 23 24  1  0  0  0  0
 23 25  1  0  0  0  0
M  END
>  <MODEL>
7

>  <REMARK>
 VINA RESULT:      -5.5      6.006      9.194
  Name = 
  4 active torsions:
  status: ('A' for Active; 'I' for Inactive)
    1  A    between atoms: C_2  and  C_21
    2  A    between atoms: C_6  and  C_15
    3  A    between atoms: C_15  and  C_25
    4  A    between atoms: C_21  and  C_25
                            x       y       z     vdW  Elec       q    Type
                         _______ _______ _______ _____ _____    ______ ____

>  <TORSDO>
F 4

$$$$
=
 OpenBabel10262419573D

 25 29  0  0  1  0  0  0  0  0999 V2000
  190.1070  176.2800  140.0380 C   0  0  1  0  0  3  0  0  0  0  0  0
  190.5580  176.1220  141.5090 C   0  0  0  0  0  0  0  0  0  0  0  0
  192.6740  176.5610  139.7310 C   0  0  0  0  0  2  0  0  0  0  0  0
  189.2660  177.4900  139.8320 C   0  0  1  0  0  3  0  0  0  0  0  0
  189.3190  176.7660  143.5900 C   0  0  0  0  0  0  0  0  0  0  0  0
  188.7360  179.8440  137.4030 O   0  0  0  0  0  0  0  0  0  0  0  0
  192.6240  177.3340  141.0200 C   0  0  0  0  0  2  0  0  0  0  0  0
  189.7580  178.3010  138.9390 C   0  0  2  0  0  3  0  0  0  0  0  0
  188.6610  179.0240  138.3540 C   0  0  0  0  0  0  0  0  0  0  0  0
  191.6120  177.9120  143.1630 C   0  0  0  0  0  0  0  0  0  0  0  0
  190.8780  180.1280  143.9740 C   0  0  0  0  0  1  0  0  0  0  0  0
  189.3950  176.0650  142.4540 C   0  0  0  0  0  3  0  0  0  0  0  0
  187.4790  178.6300  138.9570 O   0  0  0  0  0  0  0  0  0  0  0  0
  191.2950  176.5130  139.0530 C   0  0  2  0  0  3  0  0  0  0  0  0
  191.0190  177.8360  138.3230 C   0  0  0  0  0  2  0  0  0  0  0  0
  190.3970  177.7060  144.0720 C   0  0  0  0  0  0  0  0  0  0  0  0
  187.7680  177.6060  139.9090 C   0  0  0  0  0  2  0  0  0  0  0  0
  190.4760  178.9170  143.1590 C   0  0  2  0  0  3  0  0  0  0  0  0
  191.6200  177.1300  141.8810 C   0  0  0  0  0  0  0  0  0  0  0  0
  188.0900  176.6160  144.4300 C   0  0  0  0  0  2  0  0  0  0  0  0
  187.8560  177.8600  145.2720 C   0  0  0  0  0  2  0  0  0  0  0  0
  187.7890  177.4940  146.7510 C   0  0  0  0  0  2  0  0  0  0  0  0
  189.0600  177.8700  147.5070 C   0  0  0  0  0  3  0  0  0  0  0  0
  188.7660  178.2540  148.9460 C   0  0  0  0  0  1  0  0  0  0  0  0
  190.0890  176.7550  147.4520 C   0  0  0  0  0  1  0  0  0  0  0  0
  1  2  1  1  0  0  0
  2 19  2  0  0  0  0
  2 12  1  0  0  0  0
  3  7  1  0  0  0  0
  4 17  1  6  0  0  0
  4  1  1  0  0  0  0
  5 16  1  0  0  0  0
  5 20  1  0  0  0  0
  6  9  2  0  0  0  0
  7 19  1  0  0  0  0
  8 15  1  6  0  0  0
  8  4  1  0  0  0  0
  9  8  1  0  0  0  0
  9 13  1  0  0  0  0
 10 16  2  0  0  0  0
 12  5  2  0  0  0  0
 13 17  1  0  0  0  0
 14 15  1  1  0  0  0
 14  3  1  0  0  0  0
 14  1  1  0  0  0  0
 18 10  1  0  0  0  0
 18 11  1  1  0  0  0
 18 16  1  0  0  0  0
 19 10  1  0  0  0  0
 20 21  1  0  0  0  0
 21 22  1  0  0  0  0
 22 23  1  0  0  0  0
 23 24  1  0  0  0  0
 25 23  1  0  0  0  0
M  END
>  <MODEL>
8

>  <REMARK>
 VINA RESULT:      -5.5      3.538      5.501
  Name = 
  4 active torsions:
  status: ('A' for Active; 'I' for Inactive)
    1  A    between atoms: C_2  and  C_21
    2  A    between atoms: C_6  and  C_15
    3  A    between atoms: C_15  and  C_25
    4  A    between atoms: C_21  and  C_25
                            x       y       z     vdW  Elec       q    Type
                         _______ _______ _______ _____ _____    ______ ____

>  <TORSDO>
F 4

$$$$
=
 OpenBabel10262419573D

 25 29  0  0  1  0  0  0  0  0999 V2000
  187.3760  178.2520  136.5060 C   0  0  1  0  0  3  0  0  0  0  0  0
  186.7190  177.2020  135.5800 C   0  0  0  0  0  0  0  0  0  0  0  0
  189.5170  177.1570  135.5150 C   0  0  0  0  0  2  0  0  0  0  0  0
  187.0910  177.9960  137.9440 C   0  0  1  0  0  3  0  0  0  0  0  0
  184.5490  175.9910  135.9020 C   0  0  0  0  0  0  0  0  0  0  0  0
  188.6790  178.3280  140.9590 O   0  0  0  0  0  0  0  0  0  0  0  0
  188.7640  175.8610  135.6290 C   0  0  0  0  0  2  0  0  0  0  0  0
  188.1730  177.8520  138.6560 C   0  0  2  0  0  3  0  0  0  0  0  0
  187.8660  178.2580  140.0010 C   0  0  0  0  0  0  0  0  0  0  0  0
  186.7090  174.5520  135.7590 C   0  0  0  0  0  0  0  0  0  0  0  0
  186.0020  172.9620  137.5120 C   0  0  0  0  0  1  0  0  0  0  0  0
  185.2340  177.1320  135.7710 C   0  0  0  0  0  3  0  0  0  0  0  0
  186.5350  178.6280  140.0770 O   0  0  0  0  0  0  0  0  0  0  0  0
  188.9360  178.2270  136.4540 C   0  0  2  0  0  3  0  0  0  0  0  0
  189.4290  177.9930  137.8900 C   0  0  0  0  0  2  0  0  0  0  0  0
  185.1840  174.6210  135.8750 C   0  0  0  0  0  0  0  0  0  0  0  0
  185.9550  178.5260  138.7760 C   0  0  0  0  0  2  0  0  0  0  0  0
  186.0400  174.4220  137.1140 C   0  0  2  0  0  3  0  0  0  0  0  0
  187.4260  175.8680  135.6570 C   0  0  0  0  0  0  0  0  0  0  0  0
  183.0680  176.0760  136.0950 C   0  0  0  0  0  2  0  0  0  0  0  0
  182.7330  176.7950  137.3920 C   0  0  0  0  0  2  0  0  0  0  0  0
  182.9580  175.8700  138.5840 C   0  0  0  0  0  2  0  0  0  0  0  0
  182.2570  176.3600  139.8470 C   0  0  0  0  0  3  0  0  0  0  0  0
  183.0080  177.5080  140.4980 C   0  0  0  0  0  1  0  0  0  0  0  0
  180.8190  176.7550  139.5660 C   0  0  0  0  0  1  0  0  0  0  0  0
  1  2  1  6  0  0  0
  1  4  1  0  0  0  0
  2 19  2  0  0  0  0
  2 12  1  0  0  0  0
  3  7  1  0  0  0  0
  4  8  1  0  0  0  0
  4 17  1  1  0  0  0
  5 20  1  0  0  0  0
  7 19  1  0  0  0  0
  8 15  1  6  0  0  0
  8  9  1  0  0  0  0
  9 13  1  0  0  0  0
  9  6  2  0  0  0  0
 10 16  2  0  0  0  0
 10 18  1  0  0  0  0
 12  5  2  0  0  0  0
 14  3  1  6  0  0  0
 14  1  1  0  0  0  0
 14 15  1  0  0  0  0
 16  5  1  0  0  0  0
 16 18  1  0  0  0  0
 17 13  1  0  0  0  0
 18 11  1  6  0  0  0
 19 10  1  0  0  0  0
 20 21  1  0  0  0  0
 21 22  1  0  0  0  0
 22 23  1  0  0  0  0
 23 24  1  0  0  0  0
 25 23  1  0  0  0  0
M  END
>  <MODEL>
9

>  <REMARK>
 VINA RESULT:      -5.4      5.910      9.187
  Name = 
  4 active torsions:
  status: ('A' for Active; 'I' for Inactive)
    1  A    between atoms: C_2  and  C_21
    2  A    between atoms: C_6  and  C_15
    3  A    between atoms: C_15  and  C_25
    4  A    between atoms: C_21  and  C_25
                            x       y       z     vdW  Elec       q    Type
                         _______ _______ _______ _____ _____    ______ ____

>  <TORSDO>
F 4

$$$$
