=
 OpenBabel10262419333D

 31 33  0  0  1  0  0  0  0  0999 V2000
  189.7300  177.3490  146.8520 C   0  0  0  0  0  0  0  0  0  0  0  0
  188.1650  176.8850  144.8140 C   0  0  0  0  0  0  0  0  0  0  0  0
  189.5250  178.5580  147.6910 C   0  0  0  0  0  1  0  0  0  0  0  0
  188.9480  177.1200  145.8350 C   0  0  0  0  0  0  0  0  0  0  0  0
  188.7560  176.5680  143.4880 C   0  0  0  0  0  0  0  0  0  0  0  0
  188.9400  175.3630  143.1630 O   0  0  0  0  0  0  0  0  0  0  0  0
  189.1460  177.6240  142.4920 C   0  0  2  0  0  3  0  0  0  0  0  0
  188.6950  178.5280  140.1920 C   0  0  0  0  0  2  0  0  0  0  0  0
  188.1110  177.7660  141.3690 C   0  0  0  0  0  2  0  0  0  0  0  0
  189.9200  177.7670  139.7090 C   0  0  0  0  0  2  0  0  0  0  0  0
  190.8980  177.6350  140.7700 N   0  0  0  0  0  0  0  0  0  0  0  0
  190.5830  177.4930  142.0180 C   0  0  0  0  0  0  0  0  0  0  0  0
  191.6030  176.1960  143.7260 O   0  0  0  0  0  1  0  0  0  0  0  0
  191.5780  178.5560  144.0290 C   0  0  0  0  0  1  0  0  0  0  0  0
  191.6740  177.4090  143.0430 C   0  0  2  0  0  3  0  0  0  0  0  0
  190.7780  176.4210  147.1720 C   0  0  0  0  0  0  0  0  0  0  0  0
  191.6600  175.6460  147.4450 C   0  0  0  0  0  3  0  0  0  0  0  0
  186.6960  177.1030  145.0010 C   0  0  0  0  0  2  0  0  0  0  0  0
  186.4030  178.1200  146.0960 C   0  0  0  0  0  2  0  0  0  0  0  0
  185.5240  179.2450  145.5790 C   0  0  0  0  0  2  0  0  0  0  0  0
  184.2250  178.6890  145.0220 C   0  0  0  0  0  2  0  0  0  0  0  0
  180.7340  178.3550  141.0750 C   0  0  1  0  0  3  0  0  0  0  0  0
  181.4990  179.2330  143.3240 C   0  0  0  0  0  2  0  0  0  0  0  0
  184.5510  178.7170  141.4620 C   0  0  0  0  0  2  0  0  0  0  0  0
  185.0870  179.2720  142.7700 C   0  0  0  0  0  2  0  0  0  0  0  0
  179.8830  177.4390  140.4600 O   0  0  0  0  0  1  0  0  0  0  0  0
  183.8810  179.3630  143.7040 C   0  0  1  0  0  3  0  0  0  0  0  0
  180.4300  178.4180  142.5830 C   0  0  0  0  0  2  0  0  0  0  0  0
  183.0690  178.8840  141.6350 C   0  0  2  0  0  3  0  0  0  0  0  0
  182.8030  178.6460  143.0390 N   0  0  2  0  0  0  0  0  0  0  0  0
  182.1930  177.9710  140.7950 C   0  0  0  0  0  2  0  0  0  0  0  0
  1 16  1  0  0  0  0
  1  3  1  0  0  0  0
  2 18  1  0  0  0  0
  2  4  2  0  0  0  0
  4  1  2  0  0  0  0
  5  2  1  0  0  0  0
  6  5  2  0  0  0  0
  7  5  1  6  0  0  0
  8  9  1  0  0  0  0
  9  7  1  0  0  0  0
 10  8  1  0  0  0  0
 10 11  1  0  0  0  0
 11 12  2  0  0  0  0
 12  7  1  0  0  0  0
 12 15  1  0  0  0  0
 15 13  1  0  0  0  0
 15 14  1  1  0  0  0
 16 17  3  0  0  0  0
 18 19  1  0  0  0  0
 20 19  1  0  0  0  0
 21 20  1  0  0  0  0
 22 26  1  6  0  0  0
 22 28  1  0  0  0  0
 24 29  1  0  0  0  0
 24 25  1  0  0  0  0
 25 27  1  0  0  0  0
 27 21  1  1  0  0  0
 28 23  1  0  0  0  0
 29 31  1  6  0  0  0
 29 30  1  0  0  0  0
 30 23  1  1  0  0  0
 30 27  1  0  0  0  0
 31 22  1  0  0  0  0
M  END
>  <MODEL>
1

>  <REMARK>
 VINA RESULT:      -7.9      0.000      0.000
  Name = 
  9 active torsions:
  status: ('A' for Active; 'I' for Inactive)
    1  A    between atoms: C_2  and  C_13
    2  A    between atoms: C_4  and  C_5
    3  A    between atoms: C_4  and  C_12
    4  A    between atoms: C_9  and  C_23
    5  A    between atoms: C_12  and  C_27
    6  A    between atoms: C_15  and  C_20
    7  A    between atoms: C_15  and  C_23
    8  A    between atoms: C_20  and  C_27
    9  A    between atoms: C_30  and  C_31
                            x       y       z     vdW  Elec       q    Type
                         _______ _______ _______ _____ _____    ______ ____

>  <TORSDO>
F 9

$$$$
=
 OpenBabel10262419333D

 31 33  0  0  1  0  0  0  0  0999 V2000
  189.3700  177.5490  147.0390 C   0  0  0  0  0  0  0  0  0  0  0  0
  187.5880  177.0940  145.1860 C   0  0  0  0  0  0  0  0  0  0  0  0
  189.2770  178.7700  147.8800 C   0  0  0  0  0  1  0  0  0  0  0  0
  188.4800  177.3250  146.1140 C   0  0  0  0  0  0  0  0  0  0  0  0
  188.0260  176.7530  143.8080 C   0  0  0  0  0  0  0  0  0  0  0  0
  187.9240  175.5630  143.4000 O   0  0  0  0  0  0  0  0  0  0  0  0
  188.5880  177.7690  142.8530 C   0  0  2  0  0  3  0  0  0  0  0  0
  188.4410  178.6740  140.5140 C   0  0  0  0  0  2  0  0  0  0  0  0
  187.6880  177.9660  141.6270 C   0  0  0  0  0  2  0  0  0  0  0  0
  189.6560  177.8270  140.1660 C   0  0  0  0  0  2  0  0  0  0  0  0
  190.5070  177.6420  141.3240 N   0  0  0  0  0  0  0  0  0  0  0  0
  190.0550  177.5370  142.5330 C   0  0  0  0  0  0  0  0  0  0  0  0
  192.0450  178.3360  143.5530 O   0  0  0  0  0  1  0  0  0  0  0  0
  191.6210  175.9980  143.6920 C   0  0  0  0  0  1  0  0  0  0  0  0
  191.0250  177.3920  143.6670 C   0  0  2  0  0  3  0  0  0  0  0  0
  190.4310  176.6060  147.2550 C   0  0  0  0  0  0  0  0  0  0  0  0
  191.3220  175.8170  147.4410 C   0  0  0  0  0  3  0  0  0  0  0  0
  186.1510  177.3400  145.5280 C   0  0  0  0  0  2  0  0  0  0  0  0
  185.9000  178.7830  145.9470 C   0  0  0  0  0  2  0  0  0  0  0  0
  184.7050  179.3670  145.2150 C   0  0  0  0  0  2  0  0  0  0  0  0
  184.8430  179.1520  143.7180 C   0  0  0  0  0  2  0  0  0  0  0  0
  182.0280  178.6730  139.2770 C   0  0  1  0  0  3  0  0  0  0  0  0
  183.9270  178.0000  140.8130 C   0  0  0  0  0  2  0  0  0  0  0  0
  181.3350  179.1830  143.0330 C   0  0  0  0  0  2  0  0  0  0  0  0
  182.4110  178.7680  144.0210 C   0  0  0  0  0  2  0  0  0  0  0  0
  181.7250  179.3710  138.1100 O   0  0  0  0  0  1  0  0  0  0  0  0
  183.6330  178.4110  143.1740 C   0  0  1  0  0  3  0  0  0  0  0  0
  183.5560  178.5500  139.4290 C   0  0  0  0  0  2  0  0  0  0  0  0
  181.8960  178.6860  141.7320 C   0  0  2  0  0  3  0  0  0  0  0  0
  183.3310  178.8640  141.8240 N   0  0  2  0  0  0  0  0  0  0  0  0
  181.3830  179.3750  140.4790 C   0  0  0  0  0  2  0  0  0  0  0  0
  1 16  1  0  0  0  0
  1  3  1  0  0  0  0
  2 18  1  0  0  0  0
  2  4  2  0  0  0  0
  4  1  2  0  0  0  0
  5  2  1  0  0  0  0
  6  5  2  0  0  0  0
  7  5  1  6  0  0  0
  8  9  1  0  0  0  0
  9  7  1  0  0  0  0
 10  8  1  0  0  0  0
 10 11  1  0  0  0  0
 11 12  2  0  0  0  0
 12  7  1  0  0  0  0
 12 15  1  0  0  0  0
 13 15  1  0  0  0  0
 15 14  1  6  0  0  0
 16 17  3  0  0  0  0
 18 19  1  0  0  0  0
 20 19  1  0  0  0  0
 21 20  1  0  0  0  0
 22 26  1  6  0  0  0
 22 28  1  0  0  0  0
 22 31  1  0  0  0  0
 24 25  1  0  0  0  0
 27 21  1  1  0  0  0
 27 25  1  0  0  0  0
 28 23  1  0  0  0  0
 29 31  1  6  0  0  0
 29 30  1  0  0  0  0
 29 24  1  0  0  0  0
 30 23  1  6  0  0  0
 30 27  1  0  0  0  0
M  END
>  <MODEL>
2

>  <REMARK>
 VINA RESULT:      -7.9      1.207      1.819
  Name = 
  9 active torsions:
  status: ('A' for Active; 'I' for Inactive)
    1  A    between atoms: C_2  and  C_13
    2  A    between atoms: C_4  and  C_5
    3  A    between atoms: C_4  and  C_12
    4  A    between atoms: C_9  and  C_23
    5  A    between atoms: C_12  and  C_27
    6  A    between atoms: C_15  and  C_20
    7  A    between atoms: C_15  and  C_23
    8  A    between atoms: C_20  and  C_27
    9  A    between atoms: C_30  and  C_31
                            x       y       z     vdW  Elec       q    Type
                         _______ _______ _______ _____ _____    ______ ____

>  <TORSDO>
F 9

$$$$
=
 OpenBabel10262419333D

 31 33  0  0  1  0  0  0  0  0999 V2000
  183.8610  178.5130  140.8260 C   0  0  0  0  0  0  0  0  0  0  0  0
  181.9530  178.8860  142.5690 C   0  0  0  0  0  0  0  0  0  0  0  0
  185.2290  179.0270  141.0940 C   0  0  0  0  0  1  0  0  0  0  0  0
  182.9110  178.7010  141.6970 C   0  0  0  0  0  0  0  0  0  0  0  0
  180.6490  179.4430  142.1270 C   0  0  0  0  0  0  0  0  0  0  0  0
  180.2850  180.5770  142.5440 O   0  0  0  0  0  0  0  0  0  0  0  0
  179.7250  178.7190  141.1880 C   0  0  2  0  0  3  0  0  0  0  0  0
  179.0010  176.4540  140.3790 C   0  0  0  0  0  2  0  0  0  0  0  0
  179.6010  177.2310  141.5380 C   0  0  0  0  0  2  0  0  0  0  0  0
  179.9030  176.6550  139.1700 C   0  0  0  0  0  2  0  0  0  0  0  0
  180.0190  178.0610  138.8400 N   0  0  0  0  0  0  0  0  0  0  0  0
  180.0190  179.0050  139.7260 C   0  0  0  0  0  0  0  0  0  0  0  0
  179.1370  180.6840  138.2970 O   0  0  0  0  0  1  0  0  0  0  0  0
  181.4770  180.7480  138.7250 C   0  0  0  0  0  1  0  0  0  0  0  0
  180.1000  180.4330  139.2730 C   0  0  2  0  0  3  0  0  0  0  0  0
  183.5890  177.7920  139.6140 C   0  0  0  0  0  0  0  0  0  0  0  0
  183.3660  177.1850  138.5980 C   0  0  0  0  0  3  0  0  0  0  0  0
  182.2790  178.6680  144.0140 C   0  0  0  0  0  2  0  0  0  0  0  0
  183.5510  179.3960  144.4310 C   0  0  0  0  0  2  0  0  0  0  0  0
  184.2030  178.7210  145.6240 C   0  0  0  0  0  2  0  0  0  0  0  0
  185.6930  179.0110  145.6480 C   0  0  0  0  0  2  0  0  0  0  0  0
  190.3200  176.8830  147.0390 C   0  0  1  0  0  3  0  0  0  0  0  0
  187.8650  177.3650  147.4320 C   0  0  0  0  0  2  0  0  0  0  0  0
  188.2010  177.2180  143.8390 C   0  0  0  0  0  2  0  0  0  0  0  0
  186.7110  177.4710  143.9910 C   0  0  0  0  0  2  0  0  0  0  0  0
  191.6090  177.2530  147.4180 O   0  0  0  0  0  1  0  0  0  0  0  0
  186.4870  177.7260  145.4820 C   0  0  1  0  0  3  0  0  0  0  0  0
  189.2910  177.5590  147.9650 C   0  0  0  0  0  2  0  0  0  0  0  0
  188.6270  176.9890  145.2610 C   0  0  2  0  0  3  0  0  0  0  0  0
  187.8120  177.8740  146.0670 N   0  0  2  0  0  0  0  0  0  0  0  0
  190.0940  177.2390  145.5650 C   0  0  0  0  0  2  0  0  0  0  0  0
  1  3  1  0  0  0  0
  1  4  2  0  0  0  0
  2 18  1  0  0  0  0
  4  2  2  0  0  0  0
  5  6  2  0  0  0  0
  5  2  1  0  0  0  0
  7  9  1  0  0  0  0
  7  5  1  1  0  0  0
  8  9  1  0  0  0  0
 10  8  1  0  0  0  0
 11 10  1  0  0  0  0
 11 12  2  0  0  0  0
 12  7  1  0  0  0  0
 13 15  1  0  0  0  0
 15 14  1  6  0  0  0
 15 12  1  0  0  0  0
 16  1  1  0  0  0  0
 17 16  3  0  0  0  0
 18 19  1  0  0  0  0
 19 20  1  0  0  0  0
 20 21  1  0  0  0  0
 22 26  1  1  0  0  0
 22 28  1  0  0  0  0
 23 28  1  0  0  0  0
 24 25  1  0  0  0  0
 25 27  1  0  0  0  0
 27 21  1  6  0  0  0
 27 30  1  0  0  0  0
 29 24  1  6  0  0  0
 29 31  1  0  0  0  0
 29 30  1  0  0  0  0
 30 23  1  1  0  0  0
 31 22  1  0  0  0  0
M  END
>  <MODEL>
3

>  <REMARK>
 VINA RESULT:      -7.8      2.582      9.005
  Name = 
  9 active torsions:
  status: ('A' for Active; 'I' for Inactive)
    1  A    between atoms: C_2  and  C_13
    2  A    between atoms: C_4  and  C_5
    3  A    between atoms: C_4  and  C_12
    4  A    between atoms: C_9  and  C_23
    5  A    between atoms: C_12  and  C_27
    6  A    between atoms: C_15  and  C_20
    7  A    between atoms: C_15  and  C_23
    8  A    between atoms: C_20  and  C_27
    9  A    between atoms: C_30  and  C_31
                            x       y       z     vdW  Elec       q    Type
                         _______ _______ _______ _____ _____    ______ ____

>  <TORSDO>
F 9

$$$$
=
 OpenBabel10262419333D

 31 33  0  0  1  0  0  0  0  0999 V2000
  189.7860  177.2750  146.8000 C   0  0  0  0  0  0  0  0  0  0  0  0
  189.0290  177.8500  144.3680 C   0  0  0  0  0  0  0  0  0  0  0  0
  191.0580  176.5420  147.0330 C   0  0  0  0  0  1  0  0  0  0  0  0
  189.4100  177.5600  145.5860 C   0  0  0  0  0  0  0  0  0  0  0  0
  187.6490  177.5210  143.9280 C   0  0  0  0  0  0  0  0  0  0  0  0
  187.4090  176.3860  143.4340 O   0  0  0  0  0  0  0  0  0  0  0  0
  186.5000  178.4840  144.0480 C   0  0  2  0  0  3  0  0  0  0  0  0
  184.4880  179.1020  145.4190 C   0  0  0  0  0  2  0  0  0  0  0  0
  185.8540  178.4390  145.4380 C   0  0  0  0  0  2  0  0  0  0  0  0
  183.6320  178.3690  144.3980 C   0  0  0  0  0  2  0  0  0  0  0  0
  184.2410  178.4130  143.0840 N   0  0  0  0  0  0  0  0  0  0  0  0
  185.5220  178.3890  142.8890 C   0  0  0  0  0  0  0  0  0  0  0  0
  187.0870  179.4140  141.4280 O   0  0  0  0  0  1  0  0  0  0  0  0
  184.9520  178.8800  140.5240 C   0  0  0  0  0  1  0  0  0  0  0  0
  186.0510  178.4840  141.4900 C   0  0  2  0  0  3  0  0  0  0  0  0
  188.9790  177.6850  147.9140 C   0  0  0  0  0  0  0  0  0  0  0  0
  188.2970  178.0300  148.8460 C   0  0  0  0  0  3  0  0  0  0  0  0
  190.0670  178.3660  143.4200 C   0  0  0  0  0  2  0  0  0  0  0  0
  191.0530  177.2820  143.0050 C   0  0  0  0  0  2  0  0  0  0  0  0
  191.2190  177.2400  141.4970 C   0  0  0  0  0  2  0  0  0  0  0  0
  189.8710  177.3770  140.8110 C   0  0  0  0  0  2  0  0  0  0  0  0
  187.1130  176.5360  136.3890 C   0  0  1  0  0  3  0  0  0  0  0  0
  187.9560  178.0240  138.2580 C   0  0  0  0  0  2  0  0  0  0  0  0
  190.5570  175.5580  137.8110 C   0  0  0  0  0  2  0  0  0  0  0  0
  191.1490  176.4230  138.9110 C   0  0  0  0  0  2  0  0  0  0  0  0
  185.9970  175.8400  135.9270 O   0  0  0  0  0  1  0  0  0  0  0  0
  190.0440  177.4040  139.3010 C   0  0  1  0  0  3  0  0  0  0  0  0
  186.7140  177.4290  137.5790 C   0  0  0  0  0  2  0  0  0  0  0  0
  189.3330  176.3370  137.4230 C   0  0  2  0  0  3  0  0  0  0  0  0
  188.8340  176.9270  138.6480 N   0  0  2  0  0  0  0  0  0  0  0  0
  188.2230  175.5440  136.7570 C   0  0  0  0  0  2  0  0  0  0  0  0
  1  3  1  0  0  0  0
  1 16  1  0  0  0  0
  2  4  2  0  0  0  0
  4  1  2  0  0  0  0
  5  2  1  0  0  0  0
  6  5  2  0  0  0  0
  7  5  1  1  0  0  0
  7  9  1  0  0  0  0
  8  9  1  0  0  0  0
 10  8  1  0  0  0  0
 11 10  1  0  0  0  0
 12 11  2  0  0  0  0
 12  7  1  0  0  0  0
 13 15  1  0  0  0  0
 15 14  1  6  0  0  0
 15 12  1  0  0  0  0
 16 17  3  0  0  0  0
 18  2  1  0  0  0  0
 19 18  1  0  0  0  0
 20 19  1  0  0  0  0
 21 20  1  0  0  0  0
 22 26  1  1  0  0  0
 22 31  1  0  0  0  0
 22 28  1  0  0  0  0
 24 25  1  0  0  0  0
 25 27  1  0  0  0  0
 27 21  1  1  0  0  0
 28 23  1  0  0  0  0
 29 31  1  1  0  0  0
 29 24  1  0  0  0  0
 29 30  1  0  0  0  0
 30 23  1  6  0  0  0
 30 27  1  0  0  0  0
M  END
>  <MODEL>
4

>  <REMARK>
 VINA RESULT:      -7.8      2.505      6.110
  Name = 
  9 active torsions:
  status: ('A' for Active; 'I' for Inactive)
    1  A    between atoms: C_2  and  C_13
    2  A    between atoms: C_4  and  C_5
    3  A    between atoms: C_4  and  C_12
    4  A    between atoms: C_9  and  C_23
    5  A    between atoms: C_12  and  C_27
    6  A    between atoms: C_15  and  C_20
    7  A    between atoms: C_15  and  C_23
    8  A    between atoms: C_20  and  C_27
    9  A    between atoms: C_30  and  C_31
                            x       y       z     vdW  Elec       q    Type
                         _______ _______ _______ _____ _____    ______ ____

>  <TORSDO>
F 9

$$$$
=
 OpenBabel10262419333D

 31 33  0  0  1  0  0  0  0  0999 V2000
  180.8420  179.0260  143.1580 C   0  0  0  0  0  0  0  0  0  0  0  0
  183.2310  178.5920  142.1970 C   0  0  0  0  0  0  0  0  0  0  0  0
  180.3560  178.2510  144.3290 C   0  0  0  0  0  1  0  0  0  0  0  0
  182.0350  178.8070  142.6800 C   0  0  0  0  0  0  0  0  0  0  0  0
  183.4110  178.3640  140.7400 C   0  0  0  0  0  0  0  0  0  0  0  0
  184.4550  178.7830  140.1700 O   0  0  0  0  0  0  0  0  0  0  0  0
  182.4000  177.6400  139.8950 C   0  0  2  0  0  3  0  0  0  0  0  0
  182.0580  175.7130  138.3210 C   0  0  0  0  0  2  0  0  0  0  0  0
  182.8930  176.2530  139.4690 C   0  0  0  0  0  2  0  0  0  0  0  0
  182.1600  176.7020  137.1700 C   0  0  0  0  0  2  0  0  0  0  0  0
  181.6920  178.0130  137.5720 N   0  0  0  0  0  0  0  0  0  0  0  0
  181.8510  178.4940  138.7640 C   0  0  0  0  0  0  0  0  0  0  0  0
  179.9870  179.9560  138.6020 O   0  0  0  0  0  1  0  0  0  0  0  0
  182.1490  180.9440  138.4990 C   0  0  0  0  0  1  0  0  0  0  0  0
  181.2880  179.8450  139.0890 C   0  0  2  0  0  3  0  0  0  0  0  0
  180.0050  180.0290  142.5620 C   0  0  0  0  0  0  0  0  0  0  0  0
  179.3020  180.8680  142.0590 C   0  0  0  0  0  3  0  0  0  0  0  0
  184.3550  178.4320  143.1740 C   0  0  0  0  0  2  0  0  0  0  0  0
  184.1350  179.2500  144.4400 C   0  0  0  0  0  2  0  0  0  0  0  0
  184.7090  178.5450  145.6550 C   0  0  0  0  0  2  0  0  0  0  0  0
  185.9870  177.8110  145.2880 C   0  0  0  0  0  2  0  0  0  0  0  0
  191.1200  176.8990  146.1200 C   0  0  1  0  0  3  0  0  0  0  0  0
  189.2080  177.9480  144.8300 C   0  0  0  0  0  2  0  0  0  0  0  0
  188.0120  177.7490  148.2330 C   0  0  0  0  0  2  0  0  0  0  0  0
  186.8350  178.4140  147.5390 C   0  0  0  0  0  2  0  0  0  0  0  0
  192.0500  175.8620  146.0990 O   0  0  0  0  0  1  0  0  0  0  0  0
  187.1690  178.3880  146.0470 C   0  0  1  0  0  3  0  0  0  0  0  0
  190.3970  176.9780  144.7630 C   0  0  0  0  0  2  0  0  0  0  0  0
  189.0490  177.7360  147.1480 C   0  0  2  0  0  3  0  0  0  0  0  0
  188.3280  177.5180  145.9110 N   0  0  2  0  0  0  0  0  0  0  0  0
  190.1420  176.6910  147.2840 C   0  0  0  0  0  2  0  0  0  0  0  0
  1  3  1  0  0  0  0
  2  4  2  0  0  0  0
  2 18  1  0  0  0  0
  4  1  2  0  0  0  0
  5  2  1  0  0  0  0
  6  5  2  0  0  0  0
  7  5  1  6  0  0  0
  8  9  1  0  0  0  0
  9  7  1  0  0  0  0
 10 11  1  0  0  0  0
 10  8  1  0  0  0  0
 11 12  2  0  0  0  0
 12 15  1  0  0  0  0
 12  7  1  0  0  0  0
 13 15  1  0  0  0  0
 15 14  1  6  0  0  0
 16  1  1  0  0  0  0
 17 16  3  0  0  0  0
 18 19  1  0  0  0  0
 19 20  1  0  0  0  0
 21 20  1  0  0  0  0
 22 26  1  6  0  0  0
 22 31  1  0  0  0  0
 25 24  1  0  0  0  0
 27 21  1  6  0  0  0
 27 25  1  0  0  0  0
 28 23  1  0  0  0  0
 28 22  1  0  0  0  0
 29 31  1  1  0  0  0
 29 24  1  0  0  0  0
 30 23  1  6  0  0  0
 30 27  1  0  0  0  0
 30 29  1  0  0  0  0
M  END
>  <MODEL>
5

>  <REMARK>
 VINA RESULT:      -7.5      2.613      8.754
  Name = 
  9 active torsions:
  status: ('A' for Active; 'I' for Inactive)
    1  A    between atoms: C_2  and  C_13
    2  A    between atoms: C_4  and  C_5
    3  A    between atoms: C_4  and  C_12
    4  A    between atoms: C_9  and  C_23
    5  A    between atoms: C_12  and  C_27
    6  A    between atoms: C_15  and  C_20
    7  A    between atoms: C_15  and  C_23
    8  A    between atoms: C_20  and  C_27
    9  A    between atoms: C_30  and  C_31
                            x       y       z     vdW  Elec       q    Type
                         _______ _______ _______ _____ _____    ______ ____

>  <TORSDO>
F 9

$$$$
=
 OpenBabel10262419333D

 31 33  0  0  1  0  0  0  0  0999 V2000
  182.3130  178.8980  143.1000 C   0  0  0  0  0  0  0  0  0  0  0  0
  183.8640  178.5220  141.0330 C   0  0  0  0  0  0  0  0  0  0  0  0
  182.8200  178.6350  144.4710 C   0  0  0  0  0  1  0  0  0  0  0  0
  183.0890  178.7090  142.0700 C   0  0  0  0  0  0  0  0  0  0  0  0
  183.3770  177.7210  139.8810 C   0  0  0  0  0  0  0  0  0  0  0  0
  183.0470  176.5160  140.0580 O   0  0  0  0  0  0  0  0  0  0  0  0
  183.2470  178.2800  138.4910 C   0  0  2  0  0  3  0  0  0  0  0  0
  181.6670  178.6320  136.5710 C   0  0  0  0  0  2  0  0  0  0  0  0
  181.7820  178.4510  138.0740 C   0  0  0  0  0  2  0  0  0  0  0  0
  182.2810  177.4070  135.9090 C   0  0  0  0  0  2  0  0  0  0  0  0
  183.6660  177.2470  136.3020 N   0  0  0  0  0  0  0  0  0  0  0  0
  184.1160  177.5570  137.4760 C   0  0  0  0  0  0  0  0  0  0  0  0
  186.2050  178.6380  137.8030 O   0  0  0  0  0  1  0  0  0  0  0  0
  186.2410  176.5200  136.7190 C   0  0  0  0  0  1  0  0  0  0  0  0
  185.5780  177.3930  137.7660 C   0  0  2  0  0  3  0  0  0  0  0  0
  180.9740  179.3780  142.9080 C   0  0  0  0  0  0  0  0  0  0  0  0
  179.8500  179.7800  142.7420 C   0  0  0  0  0  3  0  0  0  0  0  0
  185.2790  179.0030  141.1280 C   0  0  0  0  0  2  0  0  0  0  0  0
  185.8320  178.8790  142.5420 C   0  0  0  0  0  2  0  0  0  0  0  0
  186.9000  177.8030  142.6210 C   0  0  0  0  0  2  0  0  0  0  0  0
  186.8500  177.1050  143.9680 C   0  0  0  0  0  2  0  0  0  0  0  0
  191.4480  176.8060  146.5460 C   0  0  1  0  0  3  0  0  0  0  0  0
  190.0220  177.5230  144.5790 C   0  0  0  0  0  2  0  0  0  0  0  0
  187.7630  177.5380  147.3980 C   0  0  0  0  0  2  0  0  0  0  0  0
  186.8500  178.0090  146.2780 C   0  0  0  0  0  2  0  0  0  0  0  0
  192.3950  175.8710  146.9620 O   0  0  0  0  0  1  0  0  0  0  0  0
  187.6690  177.8710  144.9940 C   0  0  1  0  0  3  0  0  0  0  0  0
  191.2220  176.6780  145.0280 C   0  0  0  0  0  2  0  0  0  0  0  0
  189.1040  177.5250  146.7230 C   0  0  2  0  0  3  0  0  0  0  0  0
  188.8580  177.1140  145.3560 N   0  0  2  0  0  0  0  0  0  0  0  0
  190.1510  176.6140  147.3410 C   0  0  0  0  0  2  0  0  0  0  0  0
  1  3  1  0  0  0  0
  2 18  1  0  0  0  0
  2  4  2  0  0  0  0
  4  1  2  0  0  0  0
  5  6  2  0  0  0  0
  5  2  1  0  0  0  0
  7  5  1  1  0  0  0
  8  9  1  0  0  0  0
  9  7  1  0  0  0  0
 10 11  1  0  0  0  0
 10  8  1  0  0  0  0
 11 12  2  0  0  0  0
 12 15  1  0  0  0  0
 12  7  1  0  0  0  0
 15 14  1  6  0  0  0
 15 13  1  0  0  0  0
 16  1  1  0  0  0  0
 17 16  3  0  0  0  0
 18 19  1  0  0  0  0
 19 20  1  0  0  0  0
 20 21  1  0  0  0  0
 22 26  1  1  0  0  0
 22 31  1  0  0  0  0
 23 28  1  0  0  0  0
 25 24  1  0  0  0  0
 27 21  1  6  0  0  0
 27 30  1  0  0  0  0
 27 25  1  0  0  0  0
 28 22  1  0  0  0  0
 29 31  1  1  0  0  0
 29 24  1  0  0  0  0
 30 23  1  6  0  0  0
 30 29  1  0  0  0  0
M  END
>  <MODEL>
6

>  <REMARK>
 VINA RESULT:      -7.3      3.020      8.241
  Name = 
  9 active torsions:
  status: ('A' for Active; 'I' for Inactive)
    1  A    between atoms: C_2  and  C_13
    2  A    between atoms: C_4  and  C_5
    3  A    between atoms: C_4  and  C_12
    4  A    between atoms: C_9  and  C_23
    5  A    between atoms: C_12  and  C_27
    6  A    between atoms: C_15  and  C_20
    7  A    between atoms: C_15  and  C_23
    8  A    between atoms: C_20  and  C_27
    9  A    between atoms: C_30  and  C_31
                            x       y       z     vdW  Elec       q    Type
                         _______ _______ _______ _____ _____    ______ ____

>  <TORSDO>
F 9

$$$$
=
 OpenBabel10262419333D

 31 33  0  0  1  0  0  0  0  0999 V2000
  191.1890  177.1560  139.6750 C   0  0  0  0  0  0  0  0  0  0  0  0
  188.7740  177.9470  139.0750 C   0  0  0  0  0  0  0  0  0  0  0  0
  191.7830  177.5030  140.9920 C   0  0  0  0  0  1  0  0  0  0  0  0
  189.9840  177.5520  139.3780 C   0  0  0  0  0  0  0  0  0  0  0  0
  188.5220  178.6320  137.7810 C   0  0  0  0  0  0  0  0  0  0  0  0
  189.0560  179.7530  137.5570 O   0  0  0  0  0  0  0  0  0  0  0  0
  187.6540  178.0470  136.7010 C   0  0  2  0  0  3  0  0  0  0  0  0
  185.3780  177.1150  136.1900 C   0  0  0  0  0  2  0  0  0  0  0  0
  186.1720  178.0450  137.0920 C   0  0  0  0  0  2  0  0  0  0  0  0
  185.9770  175.7230  136.3190 C   0  0  0  0  0  2  0  0  0  0  0  0
  187.3770  175.7250  135.9480 N   0  0  0  0  0  0  0  0  0  0  0  0
  188.1740  176.7210  136.1730 C   0  0  0  0  0  0  0  0  0  0  0  0
  189.8030  177.5010  134.6310 O   0  0  0  0  0  1  0  0  0  0  0  0
  189.9510  175.2220  135.3010 C   0  0  0  0  0  1  0  0  0  0  0  0
  189.5970  176.6390  135.7070 C   0  0  2  0  0  3  0  0  0  0  0  0
  191.9350  176.3670  138.7350 C   0  0  0  0  0  0  0  0  0  0  0  0
  192.5610  175.7020  137.9500 C   0  0  0  0  0  3  0  0  0  0  0  0
  187.7190  177.8250  140.1310 C   0  0  0  0  0  2  0  0  0  0  0  0
  188.2370  178.2230  141.5070 C   0  0  0  0  0  2  0  0  0  0  0  0
  187.1250  178.2000  142.5400 C   0  0  0  0  0  2  0  0  0  0  0  0
  187.4380  177.1950  143.6340 C   0  0  0  0  0  2  0  0  0  0  0  0
  191.6810  176.6540  146.7280 C   0  0  1  0  0  3  0  0  0  0  0  0
  190.5130  177.5220  144.6550 C   0  0  0  0  0  2  0  0  0  0  0  0
  187.9230  177.3840  147.1700 C   0  0  0  0  0  2  0  0  0  0  0  0
  187.1590  177.9430  145.9820 C   0  0  0  0  0  2  0  0  0  0  0  0
  192.5620  175.6790  147.1930 O   0  0  0  0  0  1  0  0  0  0  0  0
  188.1280  177.8780  144.8020 C   0  0  1  0  0  3  0  0  0  0  0  0
  191.6420  176.6310  145.1890 C   0  0  0  0  0  2  0  0  0  0  0  0
  189.3380  177.3950  146.6660 C   0  0  2  0  0  3  0  0  0  0  0  0
  189.2590  177.0810  145.2540 N   0  0  2  0  0  0  0  0  0  0  0  0
  190.2940  176.4290  147.3440 C   0  0  0  0  0  2  0  0  0  0  0  0
  1  3  1  0  0  0  0
  2  4  2  0  0  0  0
  2 18  1  0  0  0  0
  4  1  2  0  0  0  0
  5  2  1  0  0  0  0
  6  5  2  0  0  0  0
  7  9  1  0  0  0  0
  7  5  1  1  0  0  0
  8 10  1  0  0  0  0
  8  9  1  0  0  0  0
 11 12  2  0  0  0  0
 11 10  1  0  0  0  0
 12  7  1  0  0  0  0
 13 15  1  0  0  0  0
 15 14  1  6  0  0  0
 15 12  1  0  0  0  0
 16  1  1  0  0  0  0
 17 16  3  0  0  0  0
 18 19  1  0  0  0  0
 19 20  1  0  0  0  0
 20 21  1  0  0  0  0
 22 26  1  1  0  0  0
 22 31  1  0  0  0  0
 23 28  1  0  0  0  0
 25 24  1  0  0  0  0
 27 21  1  6  0  0  0
 27 30  1  0  0  0  0
 27 25  1  0  0  0  0
 28 22  1  0  0  0  0
 29 24  1  1  0  0  0
 29 31  1  0  0  0  0
 30 23  1  6  0  0  0
 30 29  1  0  0  0  0
M  END
>  <MODEL>
7

>  <REMARK>
 VINA RESULT:      -7.2      3.786      7.705
  Name = 
  9 active torsions:
  status: ('A' for Active; 'I' for Inactive)
    1  A    between atoms: C_2  and  C_13
    2  A    between atoms: C_4  and  C_5
    3  A    between atoms: C_4  and  C_12
    4  A    between atoms: C_9  and  C_23
    5  A    between atoms: C_12  and  C_27
    6  A    between atoms: C_15  and  C_20
    7  A    between atoms: C_15  and  C_23
    8  A    between atoms: C_20  and  C_27
    9  A    between atoms: C_30  and  C_31
                            x       y       z     vdW  Elec       q    Type
                         _______ _______ _______ _____ _____    ______ ____

>  <TORSDO>
F 9

$$$$
=
 OpenBabel10262419333D

 31 33  0  0  1  0  0  0  0  0999 V2000
  185.9240  178.4970  142.8040 C   0  0  0  0  0  0  0  0  0  0  0  0
  188.2630  177.4200  143.2350 C   0  0  0  0  0  0  0  0  0  0  0  0
  185.5850  179.0320  141.4600 C   0  0  0  0  0  1  0  0  0  0  0  0
  187.0920  177.9600  143.0170 C   0  0  0  0  0  0  0  0  0  0  0  0
  189.0690  177.8510  144.4060 C   0  0  0  0  0  0  0  0  0  0  0  0
  189.9130  178.7790  144.2710 O   0  0  0  0  0  0  0  0  0  0  0  0
  188.9270  177.2340  145.7700 C   0  0  2  0  0  3  0  0  0  0  0  0
  187.8080  177.4600  148.0070 C   0  0  0  0  0  2  0  0  0  0  0  0
  187.7120  177.7840  146.5260 C   0  0  0  0  0  2  0  0  0  0  0  0
  189.0970  178.0720  148.5320 C   0  0  0  0  0  2  0  0  0  0  0  0
  190.2450  177.5500  147.8190 N   0  0  0  0  0  0  0  0  0  0  0  0
  190.2230  177.2360  146.5620 C   0  0  0  0  0  0  0  0  0  0  0  0
  191.1150  175.9080  144.8080 O   0  0  0  0  0  1  0  0  0  0  0  0
  192.2140  175.7970  146.9150 C   0  0  0  0  0  1  0  0  0  0  0  0
  191.4550  176.6630  145.9300 C   0  0  2  0  0  3  0  0  0  0  0  0
  184.9580  178.5540  143.8650 C   0  0  0  0  0  0  0  0  0  0  0  0
  184.1490  178.6070  144.7560 C   0  0  0  0  0  3  0  0  0  0  0  0
  188.8040  176.4920  142.1920 C   0  0  0  0  0  2  0  0  0  0  0  0
  189.7230  177.2070  141.2110 C   0  0  0  0  0  2  0  0  0  0  0  0
  188.9800  178.2940  140.4560 C   0  0  0  0  0  2  0  0  0  0  0  0
  189.3410  178.2580  138.9820 C   0  0  0  0  0  2  0  0  0  0  0  0
  192.8970  175.4600  136.2620 C   0  0  1  0  0  3  0  0  0  0  0  0
  191.9990  176.4660  138.4060 C   0  0  0  0  0  2  0  0  0  0  0  0
  189.0610  175.7810  136.4180 C   0  0  0  0  0  2  0  0  0  0  0  0
  188.4420  176.3420  137.6880 C   0  0  0  0  0  2  0  0  0  0  0  0
  193.8650  175.6150  135.2710 O   0  0  0  0  0  1  0  0  0  0  0  0
  189.6150  176.8310  138.5370 C   0  0  1  0  0  3  0  0  0  0  0  0
  193.1710  176.4430  137.4150 C   0  0  0  0  0  2  0  0  0  0  0  0
  190.5080  175.6630  136.8020 C   0  0  2  0  0  3  0  0  0  0  0  0
  190.7830  176.7900  137.6690 N   0  0  2  0  0  0  0  0  0  0  0  0
  191.5020  175.6560  135.6550 C   0  0  0  0  0  2  0  0  0  0  0  0
  1  4  2  0  0  0  0
  1 16  1  0  0  0  0
  2  5  1  0  0  0  0
  3  1  1  0  0  0  0
  4  2  2  0  0  0  0
  6  5  2  0  0  0  0
  7  5  1  6  0  0  0
  7  9  1  0  0  0  0
  7 12  1  0  0  0  0
  8 10  1  0  0  0  0
  9  8  1  0  0  0  0
 11 10  1  0  0  0  0
 12 11  2  0  0  0  0
 13 15  1  0  0  0  0
 15 12  1  0  0  0  0
 15 14  1  1  0  0  0
 16 17  3  0  0  0  0
 18  2  1  0  0  0  0
 19 18  1  0  0  0  0
 20 19  1  0  0  0  0
 21 20  1  0  0  0  0
 22 26  1  6  0  0  0
 22 28  1  0  0  0  0
 24 29  1  0  0  0  0
 24 25  1  0  0  0  0
 25 27  1  0  0  0  0
 27 21  1  6  0  0  0
 28 23  1  0  0  0  0
 29 31  1  6  0  0  0
 29 30  1  0  0  0  0
 30 23  1  1  0  0  0
 30 27  1  0  0  0  0
 31 22  1  0  0  0  0
M  END
>  <MODEL>
8

>  <REMARK>
 VINA RESULT:      -7.0      3.247      7.781
  Name = 
  9 active torsions:
  status: ('A' for Active; 'I' for Inactive)
    1  A    between atoms: C_2  and  C_13
    2  A    between atoms: C_4  and  C_5
    3  A    between atoms: C_4  and  C_12
    4  A    between atoms: C_9  and  C_23
    5  A    between atoms: C_12  and  C_27
    6  A    between atoms: C_15  and  C_20
    7  A    between atoms: C_15  and  C_23
    8  A    between atoms: C_20  and  C_27
    9  A    between atoms: C_30  and  C_31
                            x       y       z     vdW  Elec       q    Type
                         _______ _______ _______ _____ _____    ______ ____

>  <TORSDO>
F 9

$$$$
=
 OpenBabel10262419333D

 31 33  0  0  1  0  0  0  0  0999 V2000
  190.4130  176.2810  138.2100 C   0  0  0  0  0  0  0  0  0  0  0  0
  188.3970  177.7760  138.9330 C   0  0  0  0  0  0  0  0  0  0  0  0
  191.8060  176.7430  138.4430 C   0  0  0  0  0  1  0  0  0  0  0  0
  189.4090  177.0290  138.5710 C   0  0  0  0  0  0  0  0  0  0  0  0
  187.3040  178.0580  137.9670 C   0  0  0  0  0  0  0  0  0  0  0  0
  187.4080  179.0400  137.1820 O   0  0  0  0  0  0  0  0  0  0  0  0
  186.0620  177.2170  137.8670 C   0  0  2  0  0  3  0  0  0  0  0  0
  184.7480  175.6840  136.3740 C   0  0  0  0  0  2  0  0  0  0  0  0
  186.1280  176.2300  136.6960 C   0  0  0  0  0  2  0  0  0  0  0  0
  183.8500  176.8650  136.0390 C   0  0  0  0  0  2  0  0  0  0  0  0
  183.7860  177.7970  137.1470 N   0  0  0  0  0  0  0  0  0  0  0  0
  184.7830  178.0340  137.9390 C   0  0  0  0  0  0  0  0  0  0  0  0
  184.6450  178.2970  140.2940 O   0  0  0  0  0  1  0  0  0  0  0  0
  183.2790  179.7210  138.9650 C   0  0  0  0  0  1  0  0  0  0  0  0
  184.5990  178.9850  139.0830 C   0  0  2  0  0  3  0  0  0  0  0  0
  190.1720  175.0020  137.6040 C   0  0  0  0  0  0  0  0  0  0  0  0
  189.9660  173.9310  137.0920 C   0  0  0  0  0  3  0  0  0  0  0  0
  188.4710  178.4430  140.2710 C   0  0  0  0  0  2  0  0  0  0  0  0
  188.4640  177.4370  141.4140 C   0  0  0  0  0  2  0  0  0  0  0  0
  187.3450  177.7310  142.3970 C   0  0  0  0  0  2  0  0  0  0  0  0
  187.5080  176.8910  143.6520 C   0  0  0  0  0  2  0  0  0  0  0  0
  191.6990  176.6280  146.8520 C   0  0  1  0  0  3  0  0  0  0  0  0
  190.5770  177.2710  144.6740 C   0  0  0  0  0  2  0  0  0  0  0  0
  187.9540  177.4860  147.1490 C   0  0  0  0  0  2  0  0  0  0  0  0
  187.2180  177.9170  145.8920 C   0  0  0  0  0  2  0  0  0  0  0  0
  192.5510  175.6960  147.4410 O   0  0  0  0  0  1  0  0  0  0  0  0
  188.2000  177.6920  144.7420 C   0  0  1  0  0  3  0  0  0  0  0  0
  191.6790  176.4250  145.3250 C   0  0  0  0  0  2  0  0  0  0  0  0
  189.3750  177.4070  146.6680 C   0  0  2  0  0  3  0  0  0  0  0  0
  189.3060  176.9300  145.3020 N   0  0  2  0  0  0  0  0  0  0  0  0
  190.2990  176.5080  147.4690 C   0  0  0  0  0  2  0  0  0  0  0  0
  1  3  1  0  0  0  0
  1  4  2  0  0  0  0
  2 18  1  0  0  0  0
  4  2  2  0  0  0  0
  5  2  1  0  0  0  0
  6  5  2  0  0  0  0
  7 12  1  0  0  0  0
  7  5  1  6  0  0  0
  8  9  1  0  0  0  0
  9  7  1  0  0  0  0
 10  8  1  0  0  0  0
 10 11  1  0  0  0  0
 11 12  2  0  0  0  0
 12 15  1  0  0  0  0
 15 14  1  6  0  0  0
 15 13  1  0  0  0  0
 16  1  1  0  0  0  0
 17 16  3  0  0  0  0
 18 19  1  0  0  0  0
 19 20  1  0  0  0  0
 20 21  1  0  0  0  0
 22 26  1  1  0  0  0
 22 31  1  0  0  0  0
 23 28  1  0  0  0  0
 25 24  1  0  0  0  0
 27 21  1  6  0  0  0
 27 30  1  0  0  0  0
 27 25  1  0  0  0  0
 28 22  1  0  0  0  0
 29 24  1  1  0  0  0
 29 31  1  0  0  0  0
 30 23  1  6  0  0  0
 30 29  1  0  0  0  0
M  END
>  <MODEL>
9

>  <REMARK>
 VINA RESULT:      -7.0      3.336      8.109
  Name = 
  9 active torsions:
  status: ('A' for Active; 'I' for Inactive)
    1  A    between atoms: C_2  and  C_13
    2  A    between atoms: C_4  and  C_5
    3  A    between atoms: C_4  and  C_12
    4  A    between atoms: C_9  and  C_23
    5  A    between atoms: C_12  and  C_27
    6  A    between atoms: C_15  and  C_20
    7  A    between atoms: C_15  and  C_23
    8  A    between atoms: C_20  and  C_27
    9  A    between atoms: C_30  and  C_31
                            x       y       z     vdW  Elec       q    Type
                         _______ _______ _______ _____ _____    ______ ____

>  <TORSDO>
F 9

$$$$
