=
 OpenBabel10262421243D

 32 36  0  0  1  0  0  0  0  0999 V2000
  190.1400  177.5670  139.3290 C   0  0  0  0  0  3  0  0  0  0  0  0
  184.8750  178.9420  138.8620 C   0  0  0  0  0  3  0  0  0  0  0  0
  184.7700  178.5980  144.8440 C   0  0  0  0  0  3  0  0  0  0  0  0
  183.3880  178.7980  144.6280 C   0  0  0  0  0  3  0  0  0  0  0  0
  187.0750  177.8530  138.6140 C   0  0  0  0  0  0  0  0  0  0  0  0
  187.1730  178.5340  141.0030 C   0  0  0  0  0  3  0  0  0  0  0  0
  189.2480  178.3670  139.9030 C   0  0  0  0  0  3  0  0  0  0  0  0
  185.6570  178.5010  143.7570 C   0  0  0  0  0  3  0  0  0  0  0  0
  185.7290  178.5690  141.2360 C   0  0  0  0  0  0  0  0  0  0  0  0
  185.1200  178.6000  142.4750 C   0  0  0  0  0  0  0  0  0  0  0  0
  183.5210  178.9060  140.9460 N   0  0  0  0  0  0  0  0  0  0  0  0
  188.7640  176.1160  137.8630 C   0  0  0  0  0  3  0  0  0  0  0  0
  187.7890  178.2280  139.8630 C   0  0  0  0  0  0  0  0  0  0  0  0
  187.5460  176.9350  137.7690 C   0  0  0  0  0  3  0  0  0  0  0  0
  189.8890  176.3490  138.5480 C   0  0  0  0  0  0  0  0  0  0  0  0
  182.8770  178.9060  143.3220 C   0  0  0  0  0  3  0  0  0  0  0  0
  183.7790  178.7990  142.2630 C   0  0  0  0  0  0  0  0  0  0  0  0
  185.8960  178.5390  138.1710 N   0  0  0  0  0  0  0  0  0  0  0  0
  184.7130  178.7660  140.3100 C   0  0  0  0  0  0  0  0  0  0  0  0
  192.0970  175.4880  137.5390 C   0  0  0  0  0  0  0  0  0  0  0  0
  190.9890  175.4310  138.4500 N   0  0  0  0  0  2  0  0  0  0  0  0
  192.1690  176.3740  136.6460 O   0  0  0  0  0  0  0  0  0  0  0  0
  193.1740  174.4710  137.6440 C   0  0  0  0  0  1  0  0  0  0  0  0
  182.2290  179.2050  140.3350 C   0  0  0  0  0  2  0  0  0  0  0  0
  180.5750  177.4560  140.4290 O   0  0  0  0  0  0  0  0  0  0  0  0
  180.3930  176.1200  140.0140 C   0  0  2  0  0  3  0  0  0  0  0  0
  181.2000  178.2080  138.2230 C   0  0  1  0  0  3  0  0  0  0  0  0
  180.4600  177.0000  137.7100 C   0  0  0  0  0  3  0  0  0  0  0  0
  180.0380  176.0410  138.5470 C   0  0  0  0  0  3  0  0  0  0  0  0
  179.3040  175.4700  140.8410 C   0  0  0  0  0  1  0  0  0  0  0  0
  180.3480  179.3140  138.1660 O   0  0  0  0  0  1  0  0  0  0  0  0
  181.6520  177.9570  139.6750 C   0  0  1  0  0  3  0  0  0  0  0  0
  1  7  1  0  0  0  0
  2 19  2  0  0  0  0
  4  3  1  0  0  0  0
  5 13  1  0  0  0  0
  6  9  2  0  0  0  0
  8  3  2  0  0  0  0
  9 10  1  0  0  0  0
 10  8  1  0  0  0  0
 11 17  1  0  0  0  0
 12 15  1  0  0  0  0
 13  7  2  0  0  0  0
 13  6  1  0  0  0  0
 14 12  2  0  0  0  0
 14  5  1  0  0  0  0
 15  1  2  0  0  0  0
 16  4  2  0  0  0  0
 17 10  2  0  0  0  0
 17 16  1  0  0  0  0
 18  5  2  0  0  0  0
 18  2  1  0  0  0  0
 19 11  1  0  0  0  0
 19  9  1  0  0  0  0
 20 23  1  0  0  0  0
 20 21  1  0  0  0  0
 21 15  1  0  0  0  0
 22 20  2  0  0  0  0
 24 11  1  0  0  0  0
 26 25  1  0  0  0  0
 26 30  1  1  0  0  0
 27 31  1  1  0  0  0
 27 32  1  0  0  0  0
 28 27  1  0  0  0  0
 28 29  2  0  0  0  0
 29 26  1  0  0  0  0
 32 24  1  1  0  0  0
 32 25  1  0  0  0  0
M  END
>  <MODEL>
1

>  <REMARK>
 VINA RESULT:      -8.4      0.000      0.000
  Name = 
  3 active torsions:
  status: ('A' for Active; 'I' for Inactive)
    1  A    between atoms: N_10  and  C_24
    2  A    between atoms: N_16  and  C_27
    3  A    between atoms: C_27  and  C_32
                            x       y       z     vdW  Elec       q    Type
                         _______ _______ _______ _____ _____    ______ ____

>  <TORSDO>
F 3

$$$$
=
 OpenBabel10262421243D

 32 36  0  0  1  0  0  0  0  0999 V2000
  184.9990  179.0860  145.0680 C   0  0  0  0  0  3  0  0  0  0  0  0
  184.5570  179.0220  139.6250 C   0  0  0  0  0  3  0  0  0  0  0  0
  179.0460  176.8780  140.5950 C   0  0  0  0  0  3  0  0  0  0  0  0
  179.0710  176.7420  139.1890 C   0  0  0  0  0  3  0  0  0  0  0  0
  185.3290  178.7120  141.9480 C   0  0  0  0  0  0  0  0  0  0  0  0
  182.8660  178.6420  142.2760 C   0  0  0  0  0  3  0  0  0  0  0  0
  184.1210  179.3950  144.1200 C   0  0  0  0  0  3  0  0  0  0  0  0
  180.1700  177.3630  141.2870 C   0  0  0  0  0  3  0  0  0  0  0  0
  182.5200  178.2030  140.9240 C   0  0  0  0  0  0  0  0  0  0  0  0
  181.2980  177.6900  140.5380 C   0  0  0  0  0  0  0  0  0  0  0  0
  182.5040  177.9850  138.6820 N   0  0  0  0  0  0  0  0  0  0  0  0
  186.7500  177.8210  143.8510 C   0  0  0  0  0  3  0  0  0  0  0  0
  184.0880  178.8770  142.7490 C   0  0  0  0  0  0  0  0  0  0  0  0
  186.4670  178.2590  142.4760 C   0  0  0  0  0  3  0  0  0  0  0  0
  186.1190  178.1400  144.9870 C   0  0  0  0  0  0  0  0  0  0  0  0
  180.2210  177.0920  138.4580 C   0  0  0  0  0  3  0  0  0  0  0  0
  181.3230  177.5640  139.1720 C   0  0  0  0  0  0  0  0  0  0  0  0
  185.4220  179.1450  140.5830 N   0  0  0  0  0  0  0  0  0  0  0  0
  183.2430  178.3800  139.7510 C   0  0  0  0  0  0  0  0  0  0  0  0
  187.9620  177.6210  146.7090 C   0  0  0  0  0  0  0  0  0  0  0  0
  186.6060  177.6370  146.2410 N   0  0  0  0  0  2  0  0  0  0  0  0
  188.9130  178.0150  145.9820 O   0  0  0  0  0  0  0  0  0  0  0  0
  188.2510  177.1130  148.0740 C   0  0  0  0  0  1  0  0  0  0  0  0
  182.8750  178.0840  137.2730 C   0  0  0  0  0  2  0  0  0  0  0  0
  183.4570  175.7490  137.1620 O   0  0  0  0  0  0  0  0  0  0  0  0
  184.5930  174.9150  137.2420 C   0  0  2  0  0  3  0  0  0  0  0  0
  184.4420  177.1700  135.4790 C   0  0  1  0  0  3  0  0  0  0  0  0
  185.3330  176.0000  135.1540 C   0  0  0  0  0  3  0  0  0  0  0  0
  185.3750  174.9210  135.9500 C   0  0  0  0  0  3  0  0  0  0  0  0
  184.1680  173.5020  137.5790 C   0  0  0  0  0  1  0  0  0  0  0  0
  183.3600  177.1700  134.5940 O   0  0  0  0  0  1  0  0  0  0  0  0
  183.9420  177.0500  136.9310 C   0  0  1  0  0  3  0  0  0  0  0  0
  2 19  1  0  0  0  0
  2 18  2  0  0  0  0
  3  8  1  0  0  0  0
  4  3  2  0  0  0  0
  5 14  2  0  0  0  0
  5 13  1  0  0  0  0
  6 13  2  0  0  0  0
  7  1  2  0  0  0  0
  9  6  1  0  0  0  0
 10  9  1  0  0  0  0
 10  8  2  0  0  0  0
 11 17  1  0  0  0  0
 11 19  1  0  0  0  0
 12 15  2  0  0  0  0
 13  7  1  0  0  0  0
 14 12  1  0  0  0  0
 15  1  1  0  0  0  0
 15 21  1  0  0  0  0
 16 17  2  0  0  0  0
 16  4  1  0  0  0  0
 17 10  1  0  0  0  0
 18  5  1  0  0  0  0
 19  9  2  0  0  0  0
 20 23  1  0  0  0  0
 21 20  1  0  0  0  0
 22 20  2  0  0  0  0
 24 11  1  0  0  0  0
 25 26  1  0  0  0  0
 26 30  1  6  0  0  0
 27 31  1  6  0  0  0
 27 32  1  0  0  0  0
 28 27  1  0  0  0  0
 28 29  2  0  0  0  0
 29 26  1  0  0  0  0
 32 25  1  0  0  0  0
 32 24  1  6  0  0  0
M  END
>  <MODEL>
2

>  <REMARK>
 VINA RESULT:      -8.1      3.650      6.093
  Name = 
  3 active torsions:
  status: ('A' for Active; 'I' for Inactive)
    1  A    between atoms: N_10  and  C_24
    2  A    between atoms: N_16  and  C_27
    3  A    between atoms: C_27  and  C_32
                            x       y       z     vdW  Elec       q    Type
                         _______ _______ _______ _____ _____    ______ ____

>  <TORSDO>
F 3

$$$$
=
 OpenBabel10262421243D

 32 36  0  0  1  0  0  0  0  0999 V2000
  192.5160  176.4550  138.9880 C   0  0  0  0  0  3  0  0  0  0  0  0
  187.6230  178.8170  139.5450 C   0  0  0  0  0  3  0  0  0  0  0  0
  187.9580  177.0200  145.2510 C   0  0  0  0  0  3  0  0  0  0  0  0
  186.6330  177.5100  145.2710 C   0  0  0  0  0  3  0  0  0  0  0  0
  189.5250  177.4500  138.7680 C   0  0  0  0  0  0  0  0  0  0  0  0
  189.9620  177.4870  141.2150 C   0  0  0  0  0  3  0  0  0  0  0  0
  191.8580  177.2320  139.8420 C   0  0  0  0  0  3  0  0  0  0  0  0
  188.7110  177.0400  144.0640 C   0  0  0  0  0  3  0  0  0  0  0  0
  188.5810  177.7180  141.6380 C   0  0  0  0  0  0  0  0  0  0  0  0
  188.0980  177.5490  142.9200 C   0  0  0  0  0  0  0  0  0  0  0  0
  186.4720  178.5040  141.7250 N   0  0  0  0  0  0  0  0  0  0  0  0
  190.7520  175.6820  137.4260 C   0  0  0  0  0  3  0  0  0  0  0  0
  190.4040  177.3690  139.9640 C   0  0  0  0  0  0  0  0  0  0  0  0
  189.7250  176.7020  137.6820 C   0  0  0  0  0  3  0  0  0  0  0  0
  191.9560  175.5340  137.9910 C   0  0  0  0  0  0  0  0  0  0  0  0
  186.0460  178.0280  144.1030 C   0  0  0  0  0  3  0  0  0  0  0  0
  186.8130  178.0290  142.9370 C   0  0  0  0  0  0  0  0  0  0  0  0
  188.4770  178.4230  138.6510 N   0  0  0  0  0  0  0  0  0  0  0  0
  187.5510  178.3180  140.9220 C   0  0  0  0  0  0  0  0  0  0  0  0
  194.1660  174.6260  137.0310 C   0  0  0  0  0  0  0  0  0  0  0  0
  192.8330  174.4880  137.5420 N   0  0  0  0  0  2  0  0  0  0  0  0
  194.6930  175.7580  136.8620 O   0  0  0  0  0  0  0  0  0  0  0  0
  194.9370  173.4050  136.6800 C   0  0  0  0  0  1  0  0  0  0  0  0
  185.2210  179.1710  141.3740 C   0  0  0  0  0  2  0  0  0  0  0  0
  183.1270  178.1720  140.7240 O   0  0  0  0  0  0  0  0  0  0  0  0
  182.6380  177.0940  139.9570 C   0  0  2  0  0  3  0  0  0  0  0  0
  184.5060  179.0090  138.9290 C   0  0  1  0  0  3  0  0  0  0  0  0
  183.5750  178.2710  138.0030 C   0  0  0  0  0  3  0  0  0  0  0  0
  182.6670  177.4080  138.4800 C   0  0  0  0  0  3  0  0  0  0  0  0
  181.2240  176.7610  140.3840 C   0  0  0  0  0  1  0  0  0  0  0  0
  184.1010  180.3450  139.0040 O   0  0  0  0  0  1  0  0  0  0  0  0
  184.4640  178.3610  140.3270 C   0  0  1  0  0  3  0  0  0  0  0  0
  1  7  1  0  0  0  0
  2 19  2  0  0  0  0
  3  4  1  0  0  0  0
  5 13  1  0  0  0  0
  6  9  2  0  0  0  0
  7 13  2  0  0  0  0
  8  3  2  0  0  0  0
  9 10  1  0  0  0  0
 10 17  2  0  0  0  0
 10  8  1  0  0  0  0
 11 17  1  0  0  0  0
 12 14  2  0  0  0  0
 12 15  1  0  0  0  0
 13  6  1  0  0  0  0
 14  5  1  0  0  0  0
 15  1  2  0  0  0  0
 16  4  2  0  0  0  0
 17 16  1  0  0  0  0
 18  5  2  0  0  0  0
 18  2  1  0  0  0  0
 19  9  1  0  0  0  0
 19 11  1  0  0  0  0
 20 21  1  0  0  0  0
 21 15  1  0  0  0  0
 22 20  2  0  0  0  0
 23 20  1  0  0  0  0
 24 11  1  0  0  0  0
 26 30  1  1  0  0  0
 26 25  1  0  0  0  0
 27 31  1  1  0  0  0
 27 32  1  0  0  0  0
 28 29  2  0  0  0  0
 28 27  1  0  0  0  0
 29 26  1  0  0  0  0
 32 25  1  0  0  0  0
 32 24  1  1  0  0  0
M  END
>  <MODEL>
3

>  <REMARK>
 VINA RESULT:      -8.0      1.926      2.909
  Name = 
  3 active torsions:
  status: ('A' for Active; 'I' for Inactive)
    1  A    between atoms: N_10  and  C_24
    2  A    between atoms: N_16  and  C_27
    3  A    between atoms: C_27  and  C_32
                            x       y       z     vdW  Elec       q    Type
                         _______ _______ _______ _____ _____    ______ ____

>  <TORSDO>
F 3

$$$$
=
 OpenBabel10262421243D

 32 36  0  0  1  0  0  0  0  0999 V2000
  189.8270  177.7760  137.7590 C   0  0  0  0  0  3  0  0  0  0  0  0
  185.0900  179.1250  140.1190 C   0  0  0  0  0  3  0  0  0  0  0  0
  187.7310  177.4490  145.2310 C   0  0  0  0  0  3  0  0  0  0  0  0
  186.4300  177.6670  145.7370 C   0  0  0  0  0  3  0  0  0  0  0  0
  186.8180  178.1590  138.6470 C   0  0  0  0  0  0  0  0  0  0  0  0
  188.0700  178.2900  140.7910 C   0  0  0  0  0  3  0  0  0  0  0  0
  189.3770  178.4110  138.8370 C   0  0  0  0  0  3  0  0  0  0  0  0
  188.0020  177.6140  143.8610 C   0  0  0  0  0  3  0  0  0  0  0  0
  186.9070  178.2450  141.6770 C   0  0  0  0  0  0  0  0  0  0  0  0
  186.9450  177.9880  143.0330 C   0  0  0  0  0  0  0  0  0  0  0  0
  184.8550  178.5980  142.5360 N   0  0  0  0  0  0  0  0  0  0  0  0
  187.8050  176.6640  136.8510 C   0  0  0  0  0  3  0  0  0  0  0  0
  188.0590  178.2580  139.4600 C   0  0  0  0  0  0  0  0  0  0  0  0
  186.7610  177.4610  137.5120 C   0  0  0  0  0  3  0  0  0  0  0  0
  189.1360  176.7590  136.9570 C   0  0  0  0  0  0  0  0  0  0  0  0
  185.3850  178.0550  144.8790 C   0  0  0  0  0  3  0  0  0  0  0  0
  185.6820  178.2050  143.5240 C   0  0  0  0  0  0  0  0  0  0  0  0
  185.6340  178.9050  138.9630 N   0  0  0  0  0  0  0  0  0  0  0  0
  185.6000  178.6260  141.4010 C   0  0  0  0  0  0  0  0  0  0  0  0
  190.4290  174.5820  136.4860 C   0  0  0  0  0  0  0  0  0  0  0  0
  189.9780  175.9060  136.1660 N   0  0  0  0  0  2  0  0  0  0  0  0
  190.1570  174.0450  137.5940 O   0  0  0  0  0  0  0  0  0  0  0  0
  191.2470  173.8360  135.4970 C   0  0  0  0  0  1  0  0  0  0  0  0
  183.4600  179.0030  142.6820 C   0  0  0  0  0  2  0  0  0  0  0  0
  182.6990  177.2720  141.1880 O   0  0  0  0  0  0  0  0  0  0  0  0
  182.3450  177.0950  139.8340 C   0  0  2  0  0  3  0  0  0  0  0  0
  181.2150  179.1520  141.4780 C   0  0  1  0  0  3  0  0  0  0  0  0
  180.4510  178.6040  140.3010 C   0  0  0  0  0  3  0  0  0  0  0  0
  180.9530  177.6090  139.5540 C   0  0  0  0  0  3  0  0  0  0  0  0
  182.4330  175.6280  139.4690 C   0  0  0  0  0  1  0  0  0  0  0  0
  180.6020  178.7130  142.6550 O   0  0  0  0  0  1  0  0  0  0  0  0
  182.6740  178.6600  141.4210 C   0  0  1  0  0  3  0  0  0  0  0  0
  1  7  1  0  0  0  0
  2 19  2  0  0  0  0
  3  4  1  0  0  0  0
  5 18  2  0  0  0  0
  5 13  1  0  0  0  0
  6  9  2  0  0  0  0
  7 13  2  0  0  0  0
  8  3  2  0  0  0  0
  9 10  1  0  0  0  0
 10 17  2  0  0  0  0
 10  8  1  0  0  0  0
 11 24  1  0  0  0  0
 11 17  1  0  0  0  0
 12 15  1  0  0  0  0
 12 14  2  0  0  0  0
 13  6  1  0  0  0  0
 14  5  1  0  0  0  0
 15  1  2  0  0  0  0
 16  4  2  0  0  0  0
 17 16  1  0  0  0  0
 18  2  1  0  0  0  0
 19  9  1  0  0  0  0
 19 11  1  0  0  0  0
 20 22  2  0  0  0  0
 21 20  1  0  0  0  0
 21 15  1  0  0  0  0
 23 20  1  0  0  0  0
 25 32  1  0  0  0  0
 26 30  1  1  0  0  0
 26 25  1  0  0  0  0
 27 31  1  1  0  0  0
 28 27  1  0  0  0  0
 29 26  1  0  0  0  0
 29 28  2  0  0  0  0
 32 27  1  0  0  0  0
 32 24  1  1  0  0  0
M  END
>  <MODEL>
4

>  <REMARK>
 VINA RESULT:      -7.9      1.784      2.363
  Name = 
  3 active torsions:
  status: ('A' for Active; 'I' for Inactive)
    1  A    between atoms: N_10  and  C_24
    2  A    between atoms: N_16  and  C_27
    3  A    between atoms: C_27  and  C_32
                            x       y       z     vdW  Elec       q    Type
                         _______ _______ _______ _____ _____    ______ ____

>  <TORSDO>
F 3

$$$$
=
 OpenBabel10262421243D

 32 36  0  0  1  0  0  0  0  0999 V2000
  192.6580  175.2870  136.9020 C   0  0  0  0  0  3  0  0  0  0  0  0
  188.8570  178.6580  138.9070 C   0  0  0  0  0  3  0  0  0  0  0  0
  190.3110  176.3260  144.2320 C   0  0  0  0  0  3  0  0  0  0  0  0
  189.2090  177.1060  144.6470 C   0  0  0  0  0  3  0  0  0  0  0  0
  190.0670  176.9640  137.5830 C   0  0  0  0  0  0  0  0  0  0  0  0
  191.1640  176.6780  139.7960 C   0  0  0  0  0  3  0  0  0  0  0  0
  192.4770  176.1160  137.9250 C   0  0  0  0  0  3  0  0  0  0  0  0
  190.6840  176.2780  142.8770 C   0  0  0  0  0  3  0  0  0  0  0  0
  190.0570  177.1840  140.6080 C   0  0  0  0  0  0  0  0  0  0  0  0
  189.9240  177.0160  141.9720 C   0  0  0  0  0  0  0  0  0  0  0  0
  188.3180  178.4250  141.3220 N   0  0  0  0  0  0  0  0  0  0  0  0
  190.3950  175.0880  135.9070 C   0  0  0  0  0  3  0  0  0  0  0  0
  191.1960  176.5740  138.4680 C   0  0  0  0  0  0  0  0  0  0  0  0
  189.7650  176.2910  136.4720 C   0  0  0  0  0  3  0  0  0  0  0  0
  191.6320  174.6150  136.0940 C   0  0  0  0  0  0  0  0  0  0  0  0
  188.4670  177.8490  143.7110 C   0  0  0  0  0  3  0  0  0  0  0  0
  188.8550  177.7780  142.3730 C   0  0  0  0  0  0  0  0  0  0  0  0
  189.3030  178.1600  137.7960 N   0  0  0  0  0  0  0  0  0  0  0  0
  189.0510  178.0670  140.2360 C   0  0  0  0  0  0  0  0  0  0  0  0
  193.0230  172.4650  135.8190 C   0  0  0  0  0  0  0  0  0  0  0  0
  192.0620  173.4390  135.3890 N   0  0  0  0  0  2  0  0  0  0  0  0
  193.6620  172.6020  136.8960 O   0  0  0  0  0  0  0  0  0  0  0  0
  193.2810  171.2770  134.9660 C   0  0  0  0  0  1  0  0  0  0  0  0
  187.2250  179.3930  141.3640 C   0  0  0  0  0  2  0  0  0  0  0  0
  185.1600  179.3370  142.6050 O   0  0  0  0  0  0  0  0  0  0  0  0
  184.1950  178.4100  143.0510 C   0  0  2  0  0  3  0  0  0  0  0  0
  185.0470  178.5710  140.3190 C   0  0  1  0  0  3  0  0  0  0  0  0
  183.6770  178.0490  140.6660 C   0  0  0  0  0  3  0  0  0  0  0  0
  183.2530  178.0140  141.9390 C   0  0  0  0  0  3  0  0  0  0  0  0
  183.4100  179.0030  144.2020 C   0  0  0  0  0  1  0  0  0  0  0  0
  184.9100  179.8270  139.7190 O   0  0  0  0  0  1  0  0  0  0  0  0
  185.8970  178.6820  141.6000 C   0  0  1  0  0  3  0  0  0  0  0  0
  1  7  1  0  0  0  0
  2 19  2  0  0  0  0
  3  4  1  0  0  0  0
  5 18  2  0  0  0  0
  5 13  1  0  0  0  0
  6  9  2  0  0  0  0
  7 13  2  0  0  0  0
  8  3  2  0  0  0  0
  9 10  1  0  0  0  0
 10 17  2  0  0  0  0
 10  8  1  0  0  0  0
 11 24  1  0  0  0  0
 11 17  1  0  0  0  0
 12 15  1  0  0  0  0
 12 14  2  0  0  0  0
 13  6  1  0  0  0  0
 14  5  1  0  0  0  0
 15  1  2  0  0  0  0
 16  4  2  0  0  0  0
 17 16  1  0  0  0  0
 18  2  1  0  0  0  0
 19  9  1  0  0  0  0
 19 11  1  0  0  0  0
 20 22  2  0  0  0  0
 21 20  1  0  0  0  0
 21 15  1  0  0  0  0
 23 20  1  0  0  0  0
 25 26  1  0  0  0  0
 26 30  1  1  0  0  0
 27 31  1  1  0  0  0
 27 28  1  0  0  0  0
 27 32  1  0  0  0  0
 28 29  2  0  0  0  0
 29 26  1  0  0  0  0
 32 24  1  6  0  0  0
 32 25  1  0  0  0  0
M  END
>  <MODEL>
5

>  <REMARK>
 VINA RESULT:      -7.8      2.759      4.641
  Name = 
  3 active torsions:
  status: ('A' for Active; 'I' for Inactive)
    1  A    between atoms: N_10  and  C_24
    2  A    between atoms: N_16  and  C_27
    3  A    between atoms: C_27  and  C_32
                            x       y       z     vdW  Elec       q    Type
                         _______ _______ _______ _____ _____    ______ ____

>  <TORSDO>
F 3

$$$$
=
 OpenBabel10262421243D

 32 36  0  0  1  0  0  0  0  0999 V2000
  189.8600  177.8750  138.9960 C   0  0  0  0  0  3  0  0  0  0  0  0
  184.4410  178.3170  138.4750 C   0  0  0  0  0  3  0  0  0  0  0  0
  184.4210  178.9590  144.4340 C   0  0  0  0  0  3  0  0  0  0  0  0
  183.0240  178.9030  144.2310 C   0  0  0  0  0  3  0  0  0  0  0  0
  186.7850  177.5580  138.3400 C   0  0  0  0  0  0  0  0  0  0  0  0
  186.7850  178.6330  140.5820 C   0  0  0  0  0  3  0  0  0  0  0  0
  188.8550  178.6100  139.4600 C   0  0  0  0  0  3  0  0  0  0  0  0
  185.3070  178.8220  143.3500 C   0  0  0  0  0  3  0  0  0  0  0  0
  185.3550  178.4800  140.8510 C   0  0  0  0  0  0  0  0  0  0  0  0
  184.7550  178.6220  142.0860 C   0  0  0  0  0  0  0  0  0  0  0  0
  183.1210  178.4160  140.5780 N   0  0  0  0  0  0  0  0  0  0  0  0
  188.7240  176.0040  137.8310 C   0  0  0  0  0  3  0  0  0  0  0  0
  187.4370  178.2410  139.4880 C   0  0  0  0  0  0  0  0  0  0  0  0
  187.3920  176.5970  137.6430 C   0  0  0  0  0  3  0  0  0  0  0  0
  189.8020  176.5200  138.4330 C   0  0  0  0  0  0  0  0  0  0  0  0
  182.4960  178.7110  142.9420 C   0  0  0  0  0  3  0  0  0  0  0  0
  183.3980  178.5720  141.8860 C   0  0  0  0  0  0  0  0  0  0  0  0
  185.5100  177.9680  137.8280 N   0  0  0  0  0  0  0  0  0  0  0  0
  184.3160  178.3610  139.9370 C   0  0  0  0  0  0  0  0  0  0  0  0
  191.9460  175.5760  137.3640 C   0  0  0  0  0  0  0  0  0  0  0  0
  191.0330  175.7810  138.4520 N   0  0  0  0  0  2  0  0  0  0  0  0
  191.6950  176.0030  136.2050 O   0  0  0  0  0  0  0  0  0  0  0  0
  193.2080  174.8310  137.6070 C   0  0  0  0  0  1  0  0  0  0  0  0
  181.7950  178.4050  139.9670 C   0  0  0  0  0  2  0  0  0  0  0  0
  181.0290  179.9900  138.3210 O   0  0  0  0  0  0  0  0  0  0  0  0
  181.0310  181.3800  138.0800 C   0  0  2  0  0  3  0  0  0  0  0  0
  180.1060  180.2320  140.5380 C   0  0  1  0  0  3  0  0  0  0  0  0
  179.5790  181.5610  140.0660 C   0  0  0  0  0  3  0  0  0  0  0  0
  179.9710  182.0840  138.8950 C   0  0  0  0  0  3  0  0  0  0  0  0
  180.8050  181.6440  136.6060 C   0  0  0  0  0  1  0  0  0  0  0  0
  179.0940  179.2760  140.4130 O   0  0  0  0  0  1  0  0  0  0  0  0
  181.3270  179.8290  139.6880 C   0  0  1  0  0  3  0  0  0  0  0  0
  1  7  1  0  0  0  0
  2 19  2  0  0  0  0
  4  3  1  0  0  0  0
  5 13  1  0  0  0  0
  6  9  2  0  0  0  0
  7 13  2  0  0  0  0
  8  3  2  0  0  0  0
  9 10  1  0  0  0  0
 10  8  1  0  0  0  0
 11 17  1  0  0  0  0
 12 15  1  0  0  0  0
 13  6  1  0  0  0  0
 14 12  2  0  0  0  0
 14  5  1  0  0  0  0
 15 21  1  0  0  0  0
 15  1  2  0  0  0  0
 16  4  2  0  0  0  0
 17 10  2  0  0  0  0
 17 16  1  0  0  0  0
 18  5  2  0  0  0  0
 18  2  1  0  0  0  0
 19 11  1  0  0  0  0
 19  9  1  0  0  0  0
 20 23  1  0  0  0  0
 20 21  1  0  0  0  0
 22 20  2  0  0  0  0
 24 11  1  0  0  0  0
 25 32  1  0  0  0  0
 26 30  1  6  0  0  0
 26 25  1  0  0  0  0
 26 29  1  0  0  0  0
 27 31  1  6  0  0  0
 28 27  1  0  0  0  0
 29 28  2  0  0  0  0
 32 24  1  6  0  0  0
 32 27  1  0  0  0  0
M  END
>  <MODEL>
6

>  <REMARK>
 VINA RESULT:      -7.6      1.522      2.463
  Name = 
  3 active torsions:
  status: ('A' for Active; 'I' for Inactive)
    1  A    between atoms: N_10  and  C_24
    2  A    between atoms: N_16  and  C_27
    3  A    between atoms: C_27  and  C_32
                            x       y       z     vdW  Elec       q    Type
                         _______ _______ _______ _____ _____    ______ ____

>  <TORSDO>
F 3

$$$$
=
 OpenBabel10262421243D

 32 36  0  0  1  0  0  0  0  0999 V2000
  191.1020  177.9930  144.6990 C   0  0  0  0  0  3  0  0  0  0  0  0
  189.3450  178.1420  139.5300 C   0  0  0  0  0  3  0  0  0  0  0  0
  183.9190  179.0030  141.9240 C   0  0  0  0  0  3  0  0  0  0  0  0
  183.5260  178.8690  140.5740 C   0  0  0  0  0  3  0  0  0  0  0  0
  190.4260  177.4970  141.6520 C   0  0  0  0  0  0  0  0  0  0  0  0
  188.3980  178.6540  142.5090 C   0  0  0  0  0  3  0  0  0  0  0  0
  190.2740  178.6930  143.9300 C   0  0  0  0  0  3  0  0  0  0  0  0
  185.2700  178.8710  142.2920 C   0  0  0  0  0  3  0  0  0  0  0  0
  187.5610  178.4390  141.3290 C   0  0  0  0  0  0  0  0  0  0  0  0
  186.1900  178.5960  141.2820 C   0  0  0  0  0  0  0  0  0  0  0  0
  186.8860  178.2530  139.1880 N   0  0  0  0  0  0  0  0  0  0  0  0
  191.6700  176.0250  143.3010 C   0  0  0  0  0  3  0  0  0  0  0  0
  189.6580  178.2550  142.6750 C   0  0  0  0  0  0  0  0  0  0  0  0
  191.2990  176.5430  141.9750 C   0  0  0  0  0  3  0  0  0  0  0  0
  191.5740  176.6170  144.4970 C   0  0  0  0  0  0  0  0  0  0  0  0
  184.4790  178.6030  139.5750 C   0  0  0  0  0  3  0  0  0  0  0  0
  185.8110  178.4700  139.9690 C   0  0  0  0  0  0  0  0  0  0  0  0
  190.3710  177.8240  140.2560 N   0  0  0  0  0  0  0  0  0  0  0  0
  187.9630  178.2340  140.0150 C   0  0  0  0  0  0  0  0  0  0  0  0
  191.6000  176.1040  147.0210 C   0  0  0  0  0  0  0  0  0  0  0  0
  192.0560  175.9420  145.6700 N   0  0  0  0  0  2  0  0  0  0  0  0
  190.7240  176.9580  147.3210 O   0  0  0  0  0  0  0  0  0  0  0  0
  192.1880  175.2570  148.0900 C   0  0  0  0  0  1  0  0  0  0  0  0
  186.8940  178.1520  137.7310 C   0  0  0  0  0  2  0  0  0  0  0  0
  186.0260  175.9710  137.1900 O   0  0  0  0  0  0  0  0  0  0  0  0
  186.4190  174.6160  137.2180 C   0  0  2  0  0  3  0  0  0  0  0  0
  187.9920  176.6640  135.9730 C   0  0  1  0  0  3  0  0  0  0  0  0
  188.0870  175.2340  135.5090 C   0  0  0  0  0  3  0  0  0  0  0  0
  187.3200  174.2770  136.0550 C   0  0  0  0  0  3  0  0  0  0  0  0
  185.1930  173.7270  137.1940 C   0  0  0  0  0  1  0  0  0  0  0  0
  187.3360  177.4120  134.9910 O   0  0  0  0  0  1  0  0  0  0  0  0
  187.2100  176.7240  137.3000 C   0  0  1  0  0  3  0  0  0  0  0  0
  2 19  1  0  0  0  0
  2 18  2  0  0  0  0
  3  8  1  0  0  0  0
  4  3  2  0  0  0  0
  5 14  2  0  0  0  0
  5 13  1  0  0  0  0
  6 13  2  0  0  0  0
  7  1  2  0  0  0  0
  9  6  1  0  0  0  0
 10  9  1  0  0  0  0
 10  8  2  0  0  0  0
 11 17  1  0  0  0  0
 11 19  1  0  0  0  0
 12 15  2  0  0  0  0
 13  7  1  0  0  0  0
 14 12  1  0  0  0  0
 15  1  1  0  0  0  0
 15 21  1  0  0  0  0
 16 17  2  0  0  0  0
 16  4  1  0  0  0  0
 17 10  1  0  0  0  0
 18  5  1  0  0  0  0
 19  9  2  0  0  0  0
 20 22  2  0  0  0  0
 20 23  1  0  0  0  0
 21 20  1  0  0  0  0
 24 11  1  0  0  0  0
 25 26  1  0  0  0  0
 25 32  1  0  0  0  0
 26 30  1  6  0  0  0
 27 31  1  6  0  0  0
 27 32  1  0  0  0  0
 28 27  1  0  0  0  0
 28 29  2  0  0  0  0
 29 26  1  0  0  0  0
 32 24  1  6  0  0  0
M  END
>  <MODEL>
7

>  <REMARK>
 VINA RESULT:      -7.5      4.103      5.986
  Name = 
  3 active torsions:
  status: ('A' for Active; 'I' for Inactive)
    1  A    between atoms: N_10  and  C_24
    2  A    between atoms: N_16  and  C_27
    3  A    between atoms: C_27  and  C_32
                            x       y       z     vdW  Elec       q    Type
                         _______ _______ _______ _____ _____    ______ ____

>  <TORSDO>
F 3

$$$$
=
 OpenBabel10262421243D

 32 36  0  0  1  0  0  0  0  0999 V2000
  180.4780  180.0330  139.9110 C   0  0  0  0  0  3  0  0  0  0  0  0
  185.4560  177.8720  140.5290 C   0  0  0  0  0  3  0  0  0  0  0  0
  184.5110  178.6290  146.3980 C   0  0  0  0  0  3  0  0  0  0  0  0
  185.8590  178.2130  146.4620 C   0  0  0  0  0  3  0  0  0  0  0  0
  183.5390  179.2510  139.8140 C   0  0  0  0  0  0  0  0  0  0  0  0
  182.8960  178.7660  142.1670 C   0  0  0  0  0  3  0  0  0  0  0  0
  181.1130  179.1550  140.6810 C   0  0  0  0  0  3  0  0  0  0  0  0
  183.8660  178.7760  145.1570 C   0  0  0  0  0  3  0  0  0  0  0  0
  184.2490  178.5380  142.6760 C   0  0  0  0  0  0  0  0  0  0  0  0
  184.6070  178.5070  144.0090 C   0  0  0  0  0  0  0  0  0  0  0  0
  186.3910  177.8610  142.8320 N   0  0  0  0  0  0  0  0  0  0  0  0
  182.3120  181.1580  138.6780 C   0  0  0  0  0  3  0  0  0  0  0  0
  182.5570  179.0760  140.9170 C   0  0  0  0  0  0  0  0  0  0  0  0
  183.3820  180.1650  138.8560 C   0  0  0  0  0  3  0  0  0  0  0  0
  181.0570  181.1420  139.1410 C   0  0  0  0  0  0  0  0  0  0  0  0
  186.5790  177.9380  145.2860 C   0  0  0  0  0  3  0  0  0  0  0  0
  185.9160  178.0990  144.0680 C   0  0  0  0  0  0  0  0  0  0  0  0
  184.6570  178.3700  139.6370 N   0  0  0  0  0  0  0  0  0  0  0  0
  185.3750  178.1270  141.9720 C   0  0  0  0  0  0  0  0  0  0  0  0
  180.0160  182.8520  137.5210 C   0  0  0  0  0  0  0  0  0  0  0  0
  180.1530  182.2020  138.7930 N   0  0  0  0  0  2  0  0  0  0  0  0
  180.7750  182.5710  136.5540 O   0  0  0  0  0  0  0  0  0  0  0  0
  178.9670  183.8880  137.3460 C   0  0  0  0  0  1  0  0  0  0  0  0
  187.7100  177.3330  142.4950 C   0  0  0  0  0  2  0  0  0  0  0  0
  189.2210  176.9780  144.3390 O   0  0  0  0  0  0  0  0  0  0  0  0
  189.8430  177.7020  145.3770 C   0  0  2  0  0  3  0  0  0  0  0  0
  189.9720  178.5060  142.6290 C   0  0  1  0  0  3  0  0  0  0  0  0
  191.0630  178.8930  143.5940 C   0  0  0  0  0  3  0  0  0  0  0  0
  191.0340  178.4820  144.8710 C   0  0  0  0  0  3  0  0  0  0  0  0
  190.2810  176.7530  146.4730 C   0  0  0  0  0  1  0  0  0  0  0  0
  190.4750  177.5470  141.7450 O   0  0  0  0  0  1  0  0  0  0  0  0
  188.7720  177.9350  143.4090 C   0  0  1  0  0  3  0  0  0  0  0  0
  1  7  1  0  0  0  0
  2 19  2  0  0  0  0
  3  4  1  0  0  0  0
  5 13  1  0  0  0  0
  6  9  2  0  0  0  0
  7 13  2  0  0  0  0
  8  3  2  0  0  0  0
  9 10  1  0  0  0  0
 10 17  2  0  0  0  0
 10  8  1  0  0  0  0
 11 17  1  0  0  0  0
 12 14  2  0  0  0  0
 12 15  1  0  0  0  0
 13  6  1  0  0  0  0
 14  5  1  0  0  0  0
 15  1  2  0  0  0  0
 16  4  2  0  0  0  0
 17 16  1  0  0  0  0
 18  5  2  0  0  0  0
 18  2  1  0  0  0  0
 19  9  1  0  0  0  0
 19 11  1  0  0  0  0
 20 21  1  0  0  0  0
 21 15  1  0  0  0  0
 22 20  2  0  0  0  0
 23 20  1  0  0  0  0
 24 11  1  0  0  0  0
 25 26  1  0  0  0  0
 26 30  1  1  0  0  0
 27 31  1  6  0  0  0
 27 32  1  0  0  0  0
 27 28  1  0  0  0  0
 28 29  2  0  0  0  0
 29 26  1  0  0  0  0
 32 24  1  6  0  0  0
 32 25  1  0  0  0  0
M  END
>  <MODEL>
8

>  <REMARK>
 VINA RESULT:      -7.5      3.514      8.530
  Name = 
  3 active torsions:
  status: ('A' for Active; 'I' for Inactive)
    1  A    between atoms: N_10  and  C_24
    2  A    between atoms: N_16  and  C_27
    3  A    between atoms: C_27  and  C_32
                            x       y       z     vdW  Elec       q    Type
                         _______ _______ _______ _____ _____    ______ ____

>  <TORSDO>
F 3

$$$$
=
 OpenBabel10262421243D

 32 36  0  0  1  0  0  0  0  0999 V2000
  187.1870  178.6520  145.6200 C   0  0  0  0  0  3  0  0  0  0  0  0
  184.5030  178.9690  140.8740 C   0  0  0  0  0  3  0  0  0  0  0  0
  179.5490  178.5350  144.2180 C   0  0  0  0  0  3  0  0  0  0  0  0
  178.9410  178.4620  142.9450 C   0  0  0  0  0  3  0  0  0  0  0  0
  186.0530  178.3380  142.6870 C   0  0  0  0  0  0  0  0  0  0  0  0
  184.0520  178.9950  144.0090 C   0  0  0  0  0  3  0  0  0  0  0  0
  186.1240  179.2530  145.0960 C   0  0  0  0  0  3  0  0  0  0  0  0
  180.9470  178.6290  144.3390 C   0  0  0  0  0  3  0  0  0  0  0  0
  183.0590  178.7410  142.9650 C   0  0  0  0  0  0  0  0  0  0  0  0
  181.6970  178.6360  143.1650 C   0  0  0  0  0  0  0  0  0  0  0  0
  182.0410  178.6390  140.9580 N   0  0  0  0  0  0  0  0  0  0  0  0
  187.8140  176.9770  143.9030 C   0  0  0  0  0  3  0  0  0  0  0  0
  185.3700  178.8300  143.9120 C   0  0  0  0  0  0  0  0  0  0  0  0
  187.1210  177.5410  142.7350 C   0  0  0  0  0  3  0  0  0  0  0  0
  187.8420  177.4180  145.1650 C   0  0  0  0  0  0  0  0  0  0  0  0
  179.7240  178.4830  141.7770 C   0  0  0  0  0  3  0  0  0  0  0  0
  181.1080  178.5690  141.9270 C   0  0  0  0  0  0  0  0  0  0  0  0
  185.6850  178.7830  141.3740 N   0  0  0  0  0  0  0  0  0  0  0  0
  183.2400  178.7460  141.5870 C   0  0  0  0  0  0  0  0  0  0  0  0
  190.0520  176.8690  146.3670 C   0  0  0  0  0  0  0  0  0  0  0  0
  188.6410  176.7360  146.1440 N   0  0  0  0  0  2  0  0  0  0  0  0
  190.7680  177.5980  145.6300 O   0  0  0  0  0  0  0  0  0  0  0  0
  190.6830  176.1190  147.4830 C   0  0  0  0  0  1  0  0  0  0  0  0
  181.7960  178.6860  139.5190 C   0  0  0  0  0  2  0  0  0  0  0  0
  180.6520  176.7680  138.6150 O   0  0  0  0  0  0  0  0  0  0  0  0
  180.8240  175.3740  138.4810 C   0  0  2  0  0  3  0  0  0  0  0  0
  182.8060  177.2710  137.6510 C   0  0  1  0  0  3  0  0  0  0  0  0
  182.7190  175.9170  136.9970 C   0  0  0  0  0  3  0  0  0  0  0  0
  181.7650  175.0400  137.3470 C   0  0  0  0  0  3  0  0  0  0  0  0
  179.4820  174.7130  138.2440 C   0  0  0  0  0  1  0  0  0  0  0  0
  182.3690  178.2380  136.7410 O   0  0  0  0  0  1  0  0  0  0  0  0
  181.9230  177.2920  138.9140 C   0  0  1  0  0  3  0  0  0  0  0  0
  2 18  2  0  0  0  0
  2 19  1  0  0  0  0
  3  8  1  0  0  0  0
  4  3  2  0  0  0  0
  5 14  2  0  0  0  0
  5 13  1  0  0  0  0
  7  1  2  0  0  0  0
  9 10  1  0  0  0  0
  9  6  1  0  0  0  0
 10  8  2  0  0  0  0
 11 19  1  0  0  0  0
 11 17  1  0  0  0  0
 12 15  2  0  0  0  0
 13  6  2  0  0  0  0
 13  7  1  0  0  0  0
 14 12  1  0  0  0  0
 15  1  1  0  0  0  0
 15 21  1  0  0  0  0
 16 17  2  0  0  0  0
 16  4  1  0  0  0  0
 17 10  1  0  0  0  0
 18  5  1  0  0  0  0
 19  9  2  0  0  0  0
 20 23  1  0  0  0  0
 21 20  1  0  0  0  0
 22 20  2  0  0  0  0
 24 11  1  0  0  0  0
 25 32  1  0  0  0  0
 26 30  1  6  0  0  0
 26 25  1  0  0  0  0
 27 31  1  6  0  0  0
 27 32  1  0  0  0  0
 28 29  2  0  0  0  0
 28 27  1  0  0  0  0
 29 26  1  0  0  0  0
 32 24  1  6  0  0  0
M  END
>  <MODEL>
9

>  <REMARK>
 VINA RESULT:      -7.3      3.750      4.920
  Name = 
  3 active torsions:
  status: ('A' for Active; 'I' for Inactive)
    1  A    between atoms: N_10  and  C_24
    2  A    between atoms: N_16  and  C_27
    3  A    between atoms: C_27  and  C_32
                            x       y       z     vdW  Elec       q    Type
                         _______ _______ _______ _____ _____    ______ ____

>  <TORSDO>
F 3

$$$$
