=
 OpenBabel10262419303D

 31 34  0  0  1  0  0  0  0  0999 V2000
  185.2190  178.4040  145.9030 C   0  0  0  0  0  0  0  0  0  0  0  0
  188.5350  177.7980  144.0840 C   0  0  0  0  0  0  0  0  0  0  0  0
  189.4610  177.3430  145.0690 C   0  0  0  0  0  0  0  0  0  0  0  0
  190.0190  176.6550  147.3440 C   0  0  0  0  0  3  0  0  0  0  0  0
  187.0920  178.0960  144.3700 C   0  0  0  0  0  0  0  0  0  0  0  0
  184.3490  178.5660  144.8240 C   0  0  0  0  0  3  0  0  0  0  0  0
  189.0900  177.1050  146.4030 C   0  0  0  0  0  3  0  0  0  0  0  0
  188.1050  178.4640  141.6470 C   0  0  1  0  0  3  0  0  0  0  0  0
  184.7440  178.4630  147.1700 F   0  0  0  0  0  0  0  0  0  0  0  0
  191.2130  177.3110  143.3940 C   0  0  0  0  0  3  0  0  0  0  0  0
  191.3420  176.4310  146.9650 C   0  0  0  0  0  0  0  0  0  0  0  0
  186.6960  178.2700  141.9570 N   0  0  0  0  0  2  0  0  0  0  0  0
  189.0070  177.9460  142.7520 C   0  0  0  0  0  0  0  0  0  0  0  0
  186.5760  178.1680  145.6750 C   0  0  0  0  0  3  0  0  0  0  0  0
  192.5080  175.8680  148.1430 Cl  0  0  0  0  0  0  0  0  0  0  0  0
  186.2070  178.2970  143.2940 C   0  0  0  0  0  0  0  0  0  0  0  0
  184.8440  178.5120  143.5210 C   0  0  0  0  0  3  0  0  0  0  0  0
  190.3200  177.7260  142.4650 N   0  0  0  0  0  0  0  0  0  0  0  0
  190.8080  177.1020  144.7030 C   0  0  0  0  0  0  0  0  0  0  0  0
  191.7360  176.6540  145.6450 C   0  0  0  0  0  3  0  0  0  0  0  0
  187.8990  178.2790  139.2490 N   0  0  0  0  0  0  0  0  0  0  0  0
  188.4030  177.8140  140.3340 C   0  0  0  0  0  3  0  0  0  0  0  0
  187.0530  178.2850  136.7110 S   0  0  0  0  0  1  0  0  0  0  0  0
  188.2190  177.6900  137.9730 C   0  0  1  0  0  3  0  0  0  0  0  0
  189.6620  178.0030  137.5670 C   0  0  0  0  0  2  0  0  0  0  0  0
  190.4260  176.7470  137.1660 C   0  0  0  0  0  2  0  0  0  0  0  0
  191.2200  174.7190  138.1500 O   0  0  0  0  0  1  0  0  0  0  0  0
  191.0210  176.0800  138.3930 C   0  0  1  0  0  3  0  0  0  0  0  0
  192.3150  176.7300  138.7490 C   0  0  0  0  0  0  0  0  0  0  0  0
  192.4680  177.2790  139.8720 O   0  0  0  0  0  1  0  0  0  0  0  0
  193.3690  176.7060  137.8450 O   0  0  0  0  0  0  0  0  0  0  0  0
  1  9  1  0  0  0  0
  2  5  1  0  0  0  0
  2  3  1  0  0  0  0
  3  7  1  0  0  0  0
  5 14  2  0  0  0  0
  6  1  2  0  0  0  0
  7  4  2  0  0  0  0
  8 22  1  6  0  0  0
  8 12  1  0  0  0  0
  8 13  1  0  0  0  0
 10 19  1  0  0  0  0
 11  4  1  0  0  0  0
 11 15  1  0  0  0  0
 12 16  1  0  0  0  0
 13  2  2  0  0  0  0
 14  1  1  0  0  0  0
 16 17  2  0  0  0  0
 16  5  1  0  0  0  0
 17  6  1  0  0  0  0
 18 13  1  0  0  0  0
 18 10  2  0  0  0  0
 19  3  2  0  0  0  0
 19 20  1  0  0  0  0
 20 11  2  0  0  0  0
 21 22  2  0  0  0  0
 24 23  1  6  0  0  0
 24 21  1  0  0  0  0
 25 24  1  0  0  0  0
 26 25  1  0  0  0  0
 26 28  1  0  0  0  0
 28 27  1  6  0  0  0
 28 29  1  0  0  0  0
 29 30  1  0  0  0  0
 31 29  2  0  0  0  0
M  END
>  <MODEL>
1

>  <REMARK>
 VINA RESULT:     -10.5      0.000      0.000
  Name = 
  6 active torsions:
  status: ('A' for Active; 'I' for Inactive)
    1  A    between atoms: C_1  and  C_24
    2  A    between atoms: C_3  and  C_19
    3  A    between atoms: C_3  and  C_22
    4  A    between atoms: N_9  and  C_22
    5  A    between atoms: C_15  and  C_23
    6  A    between atoms: C_19  and  C_24
                            x       y       z     vdW  Elec       q    Type
                         _______ _______ _______ _____ _____    ______ ____

>  <TORSDO>
F 6

$$$$
=
 OpenBabel10262419303D

 31 34  0  0  1  0  0  0  0  0999 V2000
  185.1960  178.4200  146.0500 C   0  0  0  0  0  0  0  0  0  0  0  0
  188.4520  177.7900  144.1310 C   0  0  0  0  0  0  0  0  0  0  0  0
  189.4050  177.3330  145.0890 C   0  0  0  0  0  0  0  0  0  0  0  0
  190.0290  176.6510  147.3480 C   0  0  0  0  0  3  0  0  0  0  0  0
  187.0190  178.0980  144.4610 C   0  0  0  0  0  0  0  0  0  0  0  0
  184.2940  178.5840  144.9970 C   0  0  0  0  0  3  0  0  0  0  0  0
  189.0740  177.1030  146.4350 C   0  0  0  0  0  3  0  0  0  0  0  0
  187.9500  178.4500  141.7070 C   0  0  1  0  0  3  0  0  0  0  0  0
  184.7620  178.4860  147.3310 F   0  0  0  0  0  0  0  0  0  0  0  0
  191.1040  177.2860  143.3600 C   0  0  0  0  0  3  0  0  0  0  0  0
  191.3390  176.4180  146.9290 C   0  0  0  0  0  0  0  0  0  0  0  0
  186.5490  178.2650  142.0600 N   0  0  0  0  0  2  0  0  0  0  0  0
  188.8830  177.9320  142.7850 C   0  0  0  0  0  0  0  0  0  0  0  0
  186.5450  178.1760  145.7810 C   0  0  0  0  0  3  0  0  0  0  0  0
  192.5380  175.8520  148.0720 Cl  0  0  0  0  0  0  0  0  0  0  0  0
  186.1020  178.2990  143.4120 C   0  0  0  0  0  0  0  0  0  0  0  0
  184.7480  178.5220  143.6800 C   0  0  0  0  0  3  0  0  0  0  0  0
  190.1850  177.7030  142.4580 N   0  0  0  0  0  0  0  0  0  0  0  0
  190.7380  177.0840  144.6820 C   0  0  0  0  0  0  0  0  0  0  0  0
  191.6930  176.6340  145.5970 C   0  0  0  0  0  3  0  0  0  0  0  0
  188.3180  178.5000  139.3210 N   0  0  0  0  0  0  0  0  0  0  0  0
  188.2030  177.7940  140.3870 C   0  0  0  0  0  3  0  0  0  0  0  0
  189.8300  176.5530  138.2820 S   0  0  0  0  0  1  0  0  0  0  0  0
  188.6110  177.8820  138.0520 C   0  0  1  0  0  3  0  0  0  0  0  0
  187.3380  177.3410  137.3960 C   0  0  0  0  0  2  0  0  0  0  0  0
  186.2810  178.4260  137.2220 C   0  0  0  0  0  2  0  0  0  0  0  0
  184.9380  176.5250  137.7650 O   0  0  0  0  0  1  0  0  0  0  0  0
  184.9270  177.9190  137.6830 C   0  0  1  0  0  3  0  0  0  0  0  0
  184.5870  178.5070  139.0100 C   0  0  0  0  0  0  0  0  0  0  0  0
  184.9880  179.6600  139.3210 O   0  0  0  0  0  0  0  0  0  0  0  0
  183.7980  177.7890  139.8990 O   0  0  0  0  0  1  0  0  0  0  0  0
  1  9  1  0  0  0  0
  2  5  1  0  0  0  0
  2  3  1  0  0  0  0
  3  7  1  0  0  0  0
  5 14  2  0  0  0  0
  6  1  2  0  0  0  0
  7  4  2  0  0  0  0
  8 22  1  6  0  0  0
  8 12  1  0  0  0  0
  8 13  1  0  0  0  0
 10 19  1  0  0  0  0
 11  4  1  0  0  0  0
 11 15  1  0  0  0  0
 12 16  1  0  0  0  0
 13  2  2  0  0  0  0
 14  1  1  0  0  0  0
 16 17  2  0  0  0  0
 16  5  1  0  0  0  0
 17  6  1  0  0  0  0
 18 13  1  0  0  0  0
 18 10  2  0  0  0  0
 19  3  2  0  0  0  0
 19 20  1  0  0  0  0
 20 11  2  0  0  0  0
 21 22  2  0  0  0  0
 24 23  1  1  0  0  0
 24 21  1  0  0  0  0
 25 24  1  0  0  0  0
 26 25  1  0  0  0  0
 26 28  1  0  0  0  0
 28 27  1  1  0  0  0
 28 29  1  0  0  0  0
 29 30  2  0  0  0  0
 29 31  1  0  0  0  0
M  END
>  <MODEL>
2

>  <REMARK>
 VINA RESULT:     -10.2      2.671      3.339
  Name = 
  6 active torsions:
  status: ('A' for Active; 'I' for Inactive)
    1  A    between atoms: C_1  and  C_24
    2  A    between atoms: C_3  and  C_19
    3  A    between atoms: C_3  and  C_22
    4  A    between atoms: N_9  and  C_22
    5  A    between atoms: C_15  and  C_23
    6  A    between atoms: C_19  and  C_24
                            x       y       z     vdW  Elec       q    Type
                         _______ _______ _______ _____ _____    ______ ____

>  <TORSDO>
F 6

$$$$
=
 OpenBabel10262419303D

 31 34  0  0  1  0  0  0  0  0999 V2000
  185.1310  178.3680  145.8500 C   0  0  0  0  0  0  0  0  0  0  0  0
  188.4570  177.8340  144.0260 C   0  0  0  0  0  0  0  0  0  0  0  0
  189.3870  177.3720  145.0040 C   0  0  0  0  0  0  0  0  0  0  0  0
  189.9490  176.6490  147.2670 C   0  0  0  0  0  3  0  0  0  0  0  0
  187.0100  178.1110  144.3150 C   0  0  0  0  0  0  0  0  0  0  0  0
  184.2610  178.5400  144.7720 C   0  0  0  0  0  3  0  0  0  0  0  0
  189.0160  177.1060  146.3330 C   0  0  0  0  0  3  0  0  0  0  0  0
  188.0230  178.5400  141.6010 C   0  0  1  0  0  3  0  0  0  0  0  0
  184.6540  178.3980  147.1170 F   0  0  0  0  0  0  0  0  0  0  0  0
  191.1410  177.3910  143.3320 C   0  0  0  0  0  3  0  0  0  0  0  0
  191.2760  176.4480  146.8870 C   0  0  0  0  0  0  0  0  0  0  0  0
  186.6150  178.3230  141.9040 N   0  0  0  0  0  2  0  0  0  0  0  0
  188.9290  178.0130  142.6980 C   0  0  0  0  0  0  0  0  0  0  0  0
  186.4910  178.1520  145.6200 C   0  0  0  0  0  3  0  0  0  0  0  0
  192.4460  175.8770  148.0560 Cl  0  0  0  0  0  0  0  0  0  0  0  0
  186.1240  178.3200  143.2410 C   0  0  0  0  0  0  0  0  0  0  0  0
  184.7590  178.5150  143.4690 C   0  0  0  0  0  3  0  0  0  0  0  0
  190.2450  177.8130  142.4090 N   0  0  0  0  0  0  0  0  0  0  0  0
  190.7360  177.1540  144.6360 C   0  0  0  0  0  0  0  0  0  0  0  0
  191.6690  176.6990  145.5720 C   0  0  0  0  0  3  0  0  0  0  0  0
  187.7430  178.3300  139.2120 N   0  0  0  0  0  0  0  0  0  0  0  0
  188.3310  177.9180  140.2760 C   0  0  0  0  0  3  0  0  0  0  0  0
  189.4400  176.5900  138.0950 S   0  0  0  0  0  1  0  0  0  0  0  0
  188.0680  177.7700  137.9240 C   0  0  1  0  0  3  0  0  0  0  0  0
  186.8480  177.0950  137.2930 C   0  0  0  0  0  2  0  0  0  0  0  0
  187.0630  175.5990  137.0950 C   0  0  0  0  0  2  0  0  0  0  0  0
  185.1420  174.9770  135.8160 O   0  0  0  0  0  1  0  0  0  0  0  0
  185.7300  174.8740  137.0790 C   0  0  1  0  0  3  0  0  0  0  0  0
  185.9270  173.4390  137.4360 C   0  0  0  0  0  0  0  0  0  0  0  0
  184.9990  172.7800  137.9750 O   0  0  0  0  0  1  0  0  0  0  0  0
  187.1340  172.8180  137.1450 O   0  0  0  0  0  0  0  0  0  0  0  0
  1  9  1  0  0  0  0
  2  5  1  0  0  0  0
  2  3  1  0  0  0  0
  3  7  1  0  0  0  0
  5 14  2  0  0  0  0
  6  1  2  0  0  0  0
  7  4  2  0  0  0  0
  8 22  1  6  0  0  0
  8 12  1  0  0  0  0
  8 13  1  0  0  0  0
 10 19  1  0  0  0  0
 11  4  1  0  0  0  0
 11 15  1  0  0  0  0
 12 16  1  0  0  0  0
 13  2  2  0  0  0  0
 14  1  1  0  0  0  0
 16 17  2  0  0  0  0
 16  5  1  0  0  0  0
 17  6  1  0  0  0  0
 18 13  1  0  0  0  0
 18 10  2  0  0  0  0
 19  3  2  0  0  0  0
 19 20  1  0  0  0  0
 20 11  2  0  0  0  0
 21 22  2  0  0  0  0
 24 23  1  1  0  0  0
 24 21  1  0  0  0  0
 25 24  1  0  0  0  0
 26 25  1  0  0  0  0
 28 27  1  6  0  0  0
 28 26  1  0  0  0  0
 28 29  1  0  0  0  0
 29 30  1  0  0  0  0
 31 29  2  0  0  0  0
M  END
>  <MODEL>
3

>  <REMARK>
 VINA RESULT:      -9.7      2.434      3.076
  Name = 
  6 active torsions:
  status: ('A' for Active; 'I' for Inactive)
    1  A    between atoms: C_1  and  C_24
    2  A    between atoms: C_3  and  C_19
    3  A    between atoms: C_3  and  C_22
    4  A    between atoms: N_9  and  C_22
    5  A    between atoms: C_15  and  C_23
    6  A    between atoms: C_19  and  C_24
                            x       y       z     vdW  Elec       q    Type
                         _______ _______ _______ _____ _____    ______ ____

>  <TORSDO>
F 6

$$$$
=
 OpenBabel10262419303D

 31 34  0  0  1  0  0  0  0  0999 V2000
  188.2460  177.5180  147.9980 C   0  0  0  0  0  0  0  0  0  0  0  0
  187.2920  177.7400  144.2950 C   0  0  0  0  0  0  0  0  0  0  0  0
  185.9300  178.1610  144.2510 C   0  0  0  0  0  0  0  0  0  0  0  0
  183.8720  178.9080  145.3310 C   0  0  0  0  0  3  0  0  0  0  0  0
  188.0770  177.5840  145.5650 C   0  0  0  0  0  0  0  0  0  0  0  0
  189.6320  177.3790  147.9080 C   0  0  0  0  0  3  0  0  0  0  0  0
  185.2040  178.4950  145.4070 C   0  0  0  0  0  3  0  0  0  0  0  0
  189.3800  176.9950  143.0090 C   0  0  1  0  0  3  0  0  0  0  0  0
  187.6470  177.5630  149.2120 F   0  0  0  0  0  0  0  0  0  0  0  0
  185.9540  177.9560  141.8360 C   0  0  0  0  0  3  0  0  0  0  0  0
  183.2390  178.9970  144.0920 C   0  0  0  0  0  0  0  0  0  0  0  0
  190.1130  177.3270  144.2230 N   0  0  0  0  0  2  0  0  0  0  0  0
  187.9450  177.4850  143.0590 C   0  0  0  0  0  0  0  0  0  0  0  0
  187.4790  177.6230  146.8360 C   0  0  0  0  0  3  0  0  0  0  0  0
  181.5690  179.5130  143.9960 Cl  0  0  0  0  0  0  0  0  0  0  0  0
  189.4720  177.4090  145.4920 C   0  0  0  0  0  0  0  0  0  0  0  0
  190.2430  177.3250  146.6560 C   0  0  0  0  0  3  0  0  0  0  0  0
  187.2520  177.5760  141.8900 N   0  0  0  0  0  0  0  0  0  0  0  0
  185.2710  178.2640  143.0020 C   0  0  0  0  0  0  0  0  0  0  0  0
  183.9380  178.6760  142.9280 C   0  0  0  0  0  3  0  0  0  0  0  0
  190.3910  176.8050  140.8250 N   0  0  0  0  0  0  0  0  0  0  0  0
  190.1190  177.5500  141.8340 C   0  0  0  0  0  3  0  0  0  0  0  0
  192.8600  177.3080  139.9250 S   0  0  0  0  0  1  0  0  0  0  0  0
  191.0600  177.3430  139.6680 C   0  0  1  0  0  3  0  0  0  0  0  0
  190.6790  176.5710  138.4020 C   0  0  0  0  0  2  0  0  0  0  0  0
  189.9590  177.4550  137.3910 C   0  0  0  0  0  2  0  0  0  0  0  0
  189.0160  179.6460  137.5380 O   0  0  0  0  0  1  0  0  0  0  0  0
  188.9730  178.3680  138.0980 C   0  0  1  0  0  3  0  0  0  0  0  0
  187.5950  177.8080  137.9930 C   0  0  0  0  0  0  0  0  0  0  0  0
  187.4060  176.6530  137.5290 O   0  0  0  0  0  0  0  0  0  0  0  0
  186.5140  178.5570  138.4360 O   0  0  0  0  0  1  0  0  0  0  0  0
  1  9  1  0  0  0  0
  2  5  1  0  0  0  0
  3  2  1  0  0  0  0
  3  7  1  0  0  0  0
  4  7  2  0  0  0  0
  5 14  1  0  0  0  0
  6  1  1  0  0  0  0
  8 22  1  6  0  0  0
  8 13  1  0  0  0  0
  8 12  1  0  0  0  0
 10 18  2  0  0  0  0
 10 19  1  0  0  0  0
 11  4  1  0  0  0  0
 12 16  1  0  0  0  0
 13  2  2  0  0  0  0
 14  1  2  0  0  0  0
 15 11  1  0  0  0  0
 16  5  2  0  0  0  0
 16 17  1  0  0  0  0
 17  6  2  0  0  0  0
 18 13  1  0  0  0  0
 19  3  2  0  0  0  0
 20 19  1  0  0  0  0
 20 11  2  0  0  0  0
 21 22  2  0  0  0  0
 24 23  1  1  0  0  0
 24 21  1  0  0  0  0
 25 24  1  0  0  0  0
 26 28  1  0  0  0  0
 26 25  1  0  0  0  0
 28 27  1  6  0  0  0
 29 28  1  0  0  0  0
 29 31  1  0  0  0  0
 30 29  2  0  0  0  0
M  END
>  <MODEL>
4

>  <REMARK>
 VINA RESULT:      -9.6      3.234      5.186
  Name = 
  6 active torsions:
  status: ('A' for Active; 'I' for Inactive)
    1  A    between atoms: C_1  and  C_24
    2  A    between atoms: C_3  and  C_19
    3  A    between atoms: C_3  and  C_22
    4  A    between atoms: N_9  and  C_22
    5  A    between atoms: C_15  and  C_23
    6  A    between atoms: C_19  and  C_24
                            x       y       z     vdW  Elec       q    Type
                         _______ _______ _______ _____ _____    ______ ____

>  <TORSDO>
F 6

$$$$
=
 OpenBabel10262419303D

 31 34  0  0  1  0  0  0  0  0999 V2000
  188.1770  177.6200  148.0940 C   0  0  0  0  0  0  0  0  0  0  0  0
  187.2920  177.7710  144.3700 C   0  0  0  0  0  0  0  0  0  0  0  0
  185.9260  178.1730  144.2940 C   0  0  0  0  0  0  0  0  0  0  0  0
  183.8390  178.9120  145.3220 C   0  0  0  0  0  3  0  0  0  0  0  0
  188.0540  177.6450  145.6580 C   0  0  0  0  0  0  0  0  0  0  0  0
  189.5660  177.4970  148.0330 C   0  0  0  0  0  3  0  0  0  0  0  0
  185.1740  178.5170  145.4300 C   0  0  0  0  0  3  0  0  0  0  0  0
  189.4130  177.0310  143.1380 C   0  0  1  0  0  3  0  0  0  0  0  0
  187.5540  177.6780  149.2960 F   0  0  0  0  0  0  0  0  0  0  0  0
  186.0000  177.9300  141.8830 C   0  0  0  0  0  3  0  0  0  0  0  0
  183.2280  178.9730  144.0690 C   0  0  0  0  0  0  0  0  0  0  0  0
  190.1180  177.3920  144.3590 N   0  0  0  0  0  2  0  0  0  0  0  0
  187.9720  177.5040  143.1510 C   0  0  0  0  0  0  0  0  0  0  0  0
  187.4310  177.6960  146.9160 C   0  0  0  0  0  3  0  0  0  0  0  0
  181.5550  179.4660  143.9330 Cl  0  0  0  0  0  0  0  0  0  0  0  0
  189.4520  177.4860  145.6140 C   0  0  0  0  0  0  0  0  0  0  0  0
  190.2020  177.4310  146.7940 C   0  0  0  0  0  3  0  0  0  0  0  0
  187.3010  177.5670  141.9680 N   0  0  0  0  0  0  0  0  0  0  0  0
  185.2900  178.2480  143.0310 C   0  0  0  0  0  0  0  0  0  0  0  0
  183.9540  178.6420  142.9250 C   0  0  0  0  0  3  0  0  0  0  0  0
  190.4140  176.8350  140.9490 N   0  0  0  0  0  0  0  0  0  0  0  0
  190.1680  177.5760  141.9680 C   0  0  0  0  0  3  0  0  0  0  0  0
  192.8810  177.4770  140.1370 S   0  0  0  0  0  1  0  0  0  0  0  0
  191.0980  177.3650  139.7970 C   0  0  1  0  0  3  0  0  0  0  0  0
  190.8360  176.5070  138.5560 C   0  0  0  0  0  2  0  0  0  0  0  0
  192.0280  175.6220  138.2140 C   0  0  0  0  0  2  0  0  0  0  0  0
  191.2670  176.3350  136.0640 O   0  0  0  0  0  1  0  0  0  0  0  0
  192.1640  175.4810  136.7090 C   0  0  1  0  0  3  0  0  0  0  0  0
  193.5610  175.7970  136.2920 C   0  0  0  0  0  0  0  0  0  0  0  0
  194.1740  176.7760  136.7950 O   0  0  0  0  0  1  0  0  0  0  0  0
  194.2000  174.9890  135.3620 O   0  0  0  0  0  0  0  0  0  0  0  0
  1  9  1  0  0  0  0
  2  5  1  0  0  0  0
  3  2  1  0  0  0  0
  3  7  1  0  0  0  0
  4  7  2  0  0  0  0
  5 14  1  0  0  0  0
  6  1  1  0  0  0  0
  8 22  1  6  0  0  0
  8 13  1  0  0  0  0
  8 12  1  0  0  0  0
 10 18  2  0  0  0  0
 10 19  1  0  0  0  0
 11  4  1  0  0  0  0
 12 16  1  0  0  0  0
 13  2  2  0  0  0  0
 14  1  2  0  0  0  0
 15 11  1  0  0  0  0
 16  5  2  0  0  0  0
 16 17  1  0  0  0  0
 17  6  2  0  0  0  0
 18 13  1  0  0  0  0
 19  3  2  0  0  0  0
 20 19  1  0  0  0  0
 20 11  2  0  0  0  0
 21 22  2  0  0  0  0
 24 23  1  1  0  0  0
 24 21  1  0  0  0  0
 25 24  1  0  0  0  0
 26 25  1  0  0  0  0
 28 27  1  6  0  0  0
 28 26  1  0  0  0  0
 29 28  1  0  0  0  0
 29 30  1  0  0  0  0
 31 29  2  0  0  0  0
M  END
>  <MODEL>
5

>  <REMARK>
 VINA RESULT:      -8.7      3.067      4.883
  Name = 
  6 active torsions:
  status: ('A' for Active; 'I' for Inactive)
    1  A    between atoms: C_1  and  C_24
    2  A    between atoms: C_3  and  C_19
    3  A    between atoms: C_3  and  C_22
    4  A    between atoms: N_9  and  C_22
    5  A    between atoms: C_15  and  C_23
    6  A    between atoms: C_19  and  C_24
                            x       y       z     vdW  Elec       q    Type
                         _______ _______ _______ _____ _____    ______ ____

>  <TORSDO>
F 6

$$$$
=
 OpenBabel10262419303D

 31 34  0  0  1  0  0  0  0  0999 V2000
  188.7900  177.4190  146.1740 C   0  0  0  0  0  0  0  0  0  0  0  0
  187.5570  178.0260  142.5980 C   0  0  0  0  0  0  0  0  0  0  0  0
  188.6470  177.7130  141.7340 C   0  0  0  0  0  0  0  0  0  0  0  0
  190.9120  176.8930  141.3360 C   0  0  0  0  0  3  0  0  0  0  0  0
  187.6020  177.8670  144.0910 C   0  0  0  0  0  0  0  0  0  0  0  0
  187.5900  177.4840  146.8840 C   0  0  0  0  0  3  0  0  0  0  0  0
  189.8640  177.1950  142.2090 C   0  0  0  0  0  3  0  0  0  0  0  0
  185.1550  178.8840  142.8450 C   0  0  1  0  0  3  0  0  0  0  0  0
  189.9500  177.1630  146.8250 F   0  0  0  0  0  0  0  0  0  0  0  0
  187.3220  178.4080  139.8270 C   0  0  0  0  0  3  0  0  0  0  0  0
  190.7610  177.1020  139.9660 C   0  0  0  0  0  0  0  0  0  0  0  0
  185.1830  178.2630  144.1610 N   0  0  0  0  0  2  0  0  0  0  0  0
  186.3520  178.4880  142.0020 C   0  0  0  0  0  0  0  0  0  0  0  0
  188.7920  177.6060  144.7900 C   0  0  0  0  0  3  0  0  0  0  0  0
  192.0730  176.7260  138.8720 Cl  0  0  0  0  0  0  0  0  0  0  0  0
  186.4060  177.9630  144.8270 C   0  0  0  0  0  0  0  0  0  0  0  0
  186.4000  177.7550  146.2100 C   0  0  0  0  0  3  0  0  0  0  0  0
  186.2890  178.6850  140.6560 N   0  0  0  0  0  0  0  0  0  0  0  0
  188.5110  177.9120  140.3390 C   0  0  0  0  0  0  0  0  0  0  0  0
  189.5610  177.6110  139.4670 C   0  0  0  0  0  3  0  0  0  0  0  0
  182.7440  178.8640  142.7150 N   0  0  0  0  0  0  0  0  0  0  0  0
  183.8630  178.5370  142.1770 C   0  0  0  0  0  3  0  0  0  0  0  0
  180.1460  178.5570  143.2740 S   0  0  0  0  0  1  0  0  0  0  0  0
  181.4950  178.5760  142.0550 C   0  0  1  0  0  3  0  0  0  0  0  0
  181.2100  179.5940  140.9480 C   0  0  0  0  0  2  0  0  0  0  0  0
  181.1300  178.9350  139.5760 C   0  0  0  0  0  2  0  0  0  0  0  0
  181.6150  181.1220  138.7430 O   0  0  0  0  0  1  0  0  0  0  0  0
  181.8810  179.7650  138.5500 C   0  0  1  0  0  3  0  0  0  0  0  0
  183.3450  179.5090  138.6620 C   0  0  0  0  0  0  0  0  0  0  0  0
  184.1300  180.4240  139.0280 O   0  0  0  0  0  1  0  0  0  0  0  0
  183.8450  178.2440  138.3860 O   0  0  0  0  0  0  0  0  0  0  0  0
  1  9  1  0  0  0  0
  1  6  1  0  0  0  0
  2  5  1  0  0  0  0
  3  7  1  0  0  0  0
  3  2  2  0  0  0  0
  4  7  2  0  0  0  0
  5 14  1  0  0  0  0
  5 16  2  0  0  0  0
  8 22  1  6  0  0  0
  8 12  1  0  0  0  0
 10 19  2  0  0  0  0
 10 18  1  0  0  0  0
 11  4  1  0  0  0  0
 12 16  1  0  0  0  0
 13  2  1  0  0  0  0
 13  8  1  0  0  0  0
 14  1  2  0  0  0  0
 15 11  1  0  0  0  0
 16 17  1  0  0  0  0
 17  6  2  0  0  0  0
 18 13  2  0  0  0  0
 19  3  1  0  0  0  0
 20 11  2  0  0  0  0
 20 19  1  0  0  0  0
 22 21  2  0  0  0  0
 24 21  1  0  0  0  0
 24 23  1  1  0  0  0
 25 24  1  0  0  0  0
 26 25  1  0  0  0  0
 28 29  1  0  0  0  0
 28 27  1  1  0  0  0
 28 26  1  0  0  0  0
 29 30  1  0  0  0  0
 31 29  2  0  0  0  0
M  END
>  <MODEL>
6

>  <REMARK>
 VINA RESULT:      -8.7      4.631      6.526
  Name = 
  6 active torsions:
  status: ('A' for Active; 'I' for Inactive)
    1  A    between atoms: C_1  and  C_24
    2  A    between atoms: C_3  and  C_19
    3  A    between atoms: C_3  and  C_22
    4  A    between atoms: N_9  and  C_22
    5  A    between atoms: C_15  and  C_23
    6  A    between atoms: C_19  and  C_24
                            x       y       z     vdW  Elec       q    Type
                         _______ _______ _______ _____ _____    ______ ____

>  <TORSDO>
F 6

$$$$
=
 OpenBabel10262419303D

 31 34  0  0  1  0  0  0  0  0999 V2000
  184.4230  178.6260  145.5980 C   0  0  0  0  0  0  0  0  0  0  0  0
  186.4460  178.2860  142.3630 C   0  0  0  0  0  0  0  0  0  0  0  0
  187.7050  177.7250  142.7290 C   0  0  0  0  0  0  0  0  0  0  0  0
  189.2420  176.7720  144.3690 C   0  0  0  0  0  3  0  0  0  0  0  0
  185.3270  178.5300  143.3340 C   0  0  0  0  0  0  0  0  0  0  0  0
  183.1540  178.9080  145.0900 C   0  0  0  0  0  3  0  0  0  0  0  0
  188.0010  177.3220  144.0420 C   0  0  0  0  0  3  0  0  0  0  0  0
  184.9440  179.2390  140.5190 C   0  0  1  0  0  3  0  0  0  0  0  0
  184.6100  178.5240  146.9360 F   0  0  0  0  0  0  0  0  0  0  0  0
  188.4480  177.9180  140.4300 C   0  0  0  0  0  3  0  0  0  0  0  0
  190.2150  176.6110  143.3820 C   0  0  0  0  0  0  0  0  0  0  0  0
  183.8420  178.9920  141.4390 N   0  0  0  0  0  2  0  0  0  0  0  0
  186.2350  178.6010  140.9940 C   0  0  0  0  0  0  0  0  0  0  0  0
  185.4970  178.4350  144.7260 C   0  0  0  0  0  3  0  0  0  0  0  0
  191.7710  175.9220  143.7900 Cl  0  0  0  0  0  0  0  0  0  0  0  0
  184.0480  178.8500  142.8400 C   0  0  0  0  0  0  0  0  0  0  0  0
  182.9680  179.0190  143.7130 C   0  0  0  0  0  3  0  0  0  0  0  0
  187.2420  178.4330  140.0930 N   0  0  0  0  0  0  0  0  0  0  0  0
  188.7030  177.5470  141.7410 C   0  0  0  0  0  0  0  0  0  0  0  0
  189.9450  176.9970  142.0690 C   0  0  0  0  0  3  0  0  0  0  0  0
  183.8050  177.7220  139.0250 N   0  0  0  0  0  0  0  0  0  0  0  0
  184.5510  178.7580  139.1590 C   0  0  0  0  0  3  0  0  0  0  0  0
  184.7780  176.5110  136.8470 S   0  0  0  0  0  1  0  0  0  0  0  0
  183.3810  177.2790  137.7200 C   0  0  1  0  0  3  0  0  0  0  0  0
  182.2050  176.3050  137.8240 C   0  0  0  0  0  2  0  0  0  0  0  0
  181.6990  176.1730  139.2550 C   0  0  0  0  0  2  0  0  0  0  0  0
  179.5950  175.1070  138.8650 O   0  0  0  0  0  1  0  0  0  0  0  0
  180.1860  176.2990  139.2910 C   0  0  1  0  0  3  0  0  0  0  0  0
  179.7360  176.6280  140.6740 C   0  0  0  0  0  0  0  0  0  0  0  0
  178.9380  175.8690  141.2860 O   0  0  0  0  0  0  0  0  0  0  0  0
  180.2230  177.7650  141.3040 O   0  0  0  0  0  1  0  0  0  0  0  0
  1  9  1  0  0  0  0
  2  3  1  0  0  0  0
  2  5  1  0  0  0  0
  3  7  1  0  0  0  0
  5 14  1  0  0  0  0
  6  1  1  0  0  0  0
  7  4  2  0  0  0  0
  8 22  1  6  0  0  0
  8 13  1  0  0  0  0
  8 12  1  0  0  0  0
 10 19  1  0  0  0  0
 11 15  1  0  0  0  0
 11  4  1  0  0  0  0
 12 16  1  0  0  0  0
 13  2  2  0  0  0  0
 14  1  2  0  0  0  0
 16  5  2  0  0  0  0
 16 17  1  0  0  0  0
 17  6  2  0  0  0  0
 18 10  2  0  0  0  0
 18 13  1  0  0  0  0
 19 20  1  0  0  0  0
 19  3  2  0  0  0  0
 20 11  2  0  0  0  0
 21 22  2  0  0  0  0
 24 23  1  1  0  0  0
 24 25  1  0  0  0  0
 24 21  1  0  0  0  0
 25 26  1  0  0  0  0
 26 28  1  0  0  0  0
 28 27  1  1  0  0  0
 28 29  1  0  0  0  0
 29 30  2  0  0  0  0
 29 31  1  0  0  0  0
M  END
>  <MODEL>
7

>  <REMARK>
 VINA RESULT:      -8.5      4.811      6.150
  Name = 
  6 active torsions:
  status: ('A' for Active; 'I' for Inactive)
    1  A    between atoms: C_1  and  C_24
    2  A    between atoms: C_3  and  C_19
    3  A    between atoms: C_3  and  C_22
    4  A    between atoms: N_9  and  C_22
    5  A    between atoms: C_15  and  C_23
    6  A    between atoms: C_19  and  C_24
                            x       y       z     vdW  Elec       q    Type
                         _______ _______ _______ _____ _____    ______ ____

>  <TORSDO>
F 6

$$$$
=
 OpenBabel10262419303D

 31 34  0  0  1  0  0  0  0  0999 V2000
  190.4060  177.4330  140.7910 C   0  0  0  0  0  0  0  0  0  0  0  0
  187.0070  178.0320  142.4520 C   0  0  0  0  0  0  0  0  0  0  0  0
  187.2250  177.9620  143.8600 C   0  0  0  0  0  0  0  0  0  0  0  0
  188.6850  177.7370  145.8030 C   0  0  0  0  0  3  0  0  0  0  0  0
  188.1000  177.9090  141.4300 C   0  0  0  0  0  0  0  0  0  0  0  0
  190.1260  177.7950  139.4730 C   0  0  0  0  0  3  0  0  0  0  0  0
  188.5030  177.7970  144.4190 C   0  0  0  0  0  3  0  0  0  0  0  0
  185.3460  178.3080  140.5200 C   0  0  1  0  0  3  0  0  0  0  0  0
  191.6550  177.0340  141.1330 F   0  0  0  0  0  0  0  0  0  0  0  0
  184.8470  178.2520  144.2320 C   0  0  0  0  0  3  0  0  0  0  0  0
  187.5870  177.8440  146.6560 C   0  0  0  0  0  0  0  0  0  0  0  0
  186.5120  178.6280  139.7070 N   0  0  0  0  0  2  0  0  0  0  0  0
  185.6790  178.2600  141.9990 C   0  0  0  0  0  0  0  0  0  0  0  0
  189.4020  177.4930  141.7590 C   0  0  0  0  0  3  0  0  0  0  0  0
  187.8140  177.7680  148.3900 Cl  0  0  0  0  0  0  0  0  0  0  0  0
  187.8260  178.2380  140.0890 C   0  0  0  0  0  0  0  0  0  0  0  0
  188.8370  178.1980  139.1240 C   0  0  0  0  0  3  0  0  0  0  0  0
  184.6570  178.3340  142.8950 N   0  0  0  0  0  0  0  0  0  0  0  0
  186.1240  178.0750  144.7430 C   0  0  0  0  0  0  0  0  0  0  0  0
  186.3080  178.0130  146.1260 C   0  0  0  0  0  3  0  0  0  0  0  0
  183.1100  178.9050  139.8300 N   0  0  0  0  0  0  0  0  0  0  0  0
  184.2670  179.3000  140.2230 C   0  0  0  0  0  3  0  0  0  0  0  0
  181.6400  179.8760  137.8170 S   0  0  0  0  0  1  0  0  0  0  0  0
  182.0490  179.8490  139.5890 C   0  0  1  0  0  3  0  0  0  0  0  0
  180.8110  179.5140  140.4250 C   0  0  0  0  0  2  0  0  0  0  0  0
  181.1530  178.6300  141.6180 C   0  0  0  0  0  2  0  0  0  0  0  0
  179.5170  176.9480  142.0720 O   0  0  0  0  0  1  0  0  0  0  0  0
  179.8910  178.2580  142.3760 C   0  0  1  0  0  3  0  0  0  0  0  0
  180.1190  178.3990  143.8430 C   0  0  0  0  0  0  0  0  0  0  0  0
  181.2720  178.6290  144.2940 O   0  0  0  0  0  0  0  0  0  0  0  0
  179.0450  178.3040  144.7180 O   0  0  0  0  0  1  0  0  0  0  0  0
  1  9  1  0  0  0  0
  1 14  1  0  0  0  0
  2  3  1  0  0  0  0
  3  7  2  0  0  0  0
  3 19  1  0  0  0  0
  4 11  2  0  0  0  0
  5 14  2  0  0  0  0
  5  2  1  0  0  0  0
  6  1  2  0  0  0  0
  7  4  1  0  0  0  0
  8 22  1  1  0  0  0
  8 13  1  0  0  0  0
 10 19  1  0  0  0  0
 11 15  1  0  0  0  0
 12 16  1  0  0  0  0
 12  8  1  0  0  0  0
 13  2  2  0  0  0  0
 13 18  1  0  0  0  0
 16  5  1  0  0  0  0
 17  6  1  0  0  0  0
 17 16  2  0  0  0  0
 18 10  2  0  0  0  0
 19 20  2  0  0  0  0
 20 11  1  0  0  0  0
 21 22  2  0  0  0  0
 24 23  1  6  0  0  0
 24 21  1  0  0  0  0
 24 25  1  0  0  0  0
 25 26  1  0  0  0  0
 26 28  1  0  0  0  0
 28 27  1  1  0  0  0
 28 29  1  0  0  0  0
 29 30  2  0  0  0  0
 29 31  1  0  0  0  0
M  END
>  <MODEL>
8

>  <REMARK>
 VINA RESULT:      -8.5      5.185      7.414
  Name = 
  6 active torsions:
  status: ('A' for Active; 'I' for Inactive)
    1  A    between atoms: C_1  and  C_24
    2  A    between atoms: C_3  and  C_19
    3  A    between atoms: C_3  and  C_22
    4  A    between atoms: N_9  and  C_22
    5  A    between atoms: C_15  and  C_23
    6  A    between atoms: C_19  and  C_24
                            x       y       z     vdW  Elec       q    Type
                         _______ _______ _______ _____ _____    ______ ____

>  <TORSDO>
F 6

$$$$
=
 OpenBabel10262419303D

 31 34  0  0  1  0  0  0  0  0999 V2000
  188.6910  177.4330  146.1630 C   0  0  0  0  0  0  0  0  0  0  0  0
  187.5150  178.0520  142.5700 C   0  0  0  0  0  0  0  0  0  0  0  0
  188.6180  177.7380  141.7220 C   0  0  0  0  0  0  0  0  0  0  0  0
  190.8870  176.9140  141.3580 C   0  0  0  0  0  3  0  0  0  0  0  0
  187.5360  177.8890  144.0630 C   0  0  0  0  0  0  0  0  0  0  0  0
  187.4810  177.4990  146.8540 C   0  0  0  0  0  3  0  0  0  0  0  0
  189.8260  177.2160  142.2150 C   0  0  0  0  0  3  0  0  0  0  0  0
  185.1110  178.9140  142.7810 C   0  0  1  0  0  3  0  0  0  0  0  0
  189.8400  177.1730  146.8320 F   0  0  0  0  0  0  0  0  0  0  0  0
  187.3250  178.4410  139.7960 C   0  0  0  0  0  3  0  0  0  0  0  0
  190.7580  177.1270  139.9860 C   0  0  0  0  0  0  0  0  0  0  0  0
  185.1180  178.2900  144.0970 N   0  0  0  0  0  2  0  0  0  0  0  0
  186.3210  178.5170  141.9560 C   0  0  0  0  0  0  0  0  0  0  0  0
  188.7160  177.6230  144.7800 C   0  0  0  0  0  3  0  0  0  0  0  0
  192.0870  176.7510  138.9120 Cl  0  0  0  0  0  0  0  0  0  0  0  0
  186.3290  177.9860  144.7800 C   0  0  0  0  0  0  0  0  0  0  0  0
  186.3020  177.7740  146.1620 C   0  0  0  0  0  3  0  0  0  0  0  0
  186.2800  178.7180  140.6100 N   0  0  0  0  0  0  0  0  0  0  0  0
  188.5050  177.9400  140.3250 C   0  0  0  0  0  0  0  0  0  0  0  0
  189.5670  177.6390  139.4700 C   0  0  0  0  0  3  0  0  0  0  0  0
  182.7040  178.7540  142.6830 N   0  0  0  0  0  0  0  0  0  0  0  0
  183.8290  178.5710  142.0920 C   0  0  0  0  0  3  0  0  0  0  0  0
  180.2360  179.7530  142.4180 S   0  0  0  0  0  1  0  0  0  0  0  0
  181.4610  178.4730  142.0090 C   0  0  1  0  0  3  0  0  0  0  0  0
  181.6640  178.3800  140.4950 C   0  0  0  0  0  2  0  0  0  0  0  0
  180.4960  177.6850  139.8050 C   0  0  0  0  0  2  0  0  0  0  0  0
  182.1860  175.9950  139.8250 O   0  0  0  0  0  1  0  0  0  0  0  0
  180.8530  176.2430  139.4930 C   0  0  1  0  0  3  0  0  0  0  0  0
  179.9570  175.3220  140.2490 C   0  0  0  0  0  0  0  0  0  0  0  0
  179.8580  174.1100  139.9190 O   0  0  0  0  0  0  0  0  0  0  0  0
  179.2470  175.7970  141.3430 O   0  0  0  0  0  1  0  0  0  0  0  0
  1  9  1  0  0  0  0
  1  6  1  0  0  0  0
  2  5  1  0  0  0  0
  3  7  1  0  0  0  0
  3  2  2  0  0  0  0
  4  7  2  0  0  0  0
  5 16  2  0  0  0  0
  5 14  1  0  0  0  0
  8 22  1  6  0  0  0
  8 12  1  0  0  0  0
 10 19  2  0  0  0  0
 10 18  1  0  0  0  0
 11  4  1  0  0  0  0
 12 16  1  0  0  0  0
 13  2  1  0  0  0  0
 13  8  1  0  0  0  0
 14  1  2  0  0  0  0
 15 11  1  0  0  0  0
 16 17  1  0  0  0  0
 17  6  2  0  0  0  0
 18 13  2  0  0  0  0
 19  3  1  0  0  0  0
 20 11  2  0  0  0  0
 20 19  1  0  0  0  0
 22 21  2  0  0  0  0
 24 23  1  6  0  0  0
 24 21  1  0  0  0  0
 25 24  1  0  0  0  0
 26 25  1  0  0  0  0
 28 26  1  0  0  0  0
 28 27  1  1  0  0  0
 28 29  1  0  0  0  0
 29 31  1  0  0  0  0
 30 29  2  0  0  0  0
M  END
>  <MODEL>
9

>  <REMARK>
 VINA RESULT:      -8.3      4.982      7.049
  Name = 
  6 active torsions:
  status: ('A' for Active; 'I' for Inactive)
    1  A    between atoms: C_1  and  C_24
    2  A    between atoms: C_3  and  C_19
    3  A    between atoms: C_3  and  C_22
    4  A    between atoms: N_9  and  C_22
    5  A    between atoms: C_15  and  C_23
    6  A    between atoms: C_19  and  C_24
                            x       y       z     vdW  Elec       q    Type
                         _______ _______ _______ _____ _____    ______ ____

>  <TORSDO>
F 6

$$$$
