=
 OpenBabel10262419163D

 34 38  0  0  1  0  0  0  0  0999 V2000
  181.0570  180.8900  139.2450 C   0  0  1  0  0  3  0  0  0  0  0  0
  179.6900  179.2250  140.3320 C   0  0  1  0  0  3  0  0  0  0  0  0
  181.8640  178.4750  139.2210 C   0  0  1  0  0  3  0  0  0  0  0  0
  179.8280  181.6100  139.8020 C   0  0  2  0  0  3  0  0  0  0  0  0
  178.9310  180.5370  140.4100 C   0  0  0  0  0  2  0  0  0  0  0  0
  181.7020  178.6160  141.6800 C   0  0  0  0  0  3  0  0  0  0  0  0
  180.6620  179.4310  139.1790 C   0  0  2  0  0  3  0  0  0  0  0  0
  179.1230  182.2730  138.7940 O   0  0  0  0  0  1  0  0  0  0  0  0
  180.3680  179.0250  141.5750 O   0  0  0  0  0  0  0  0  0  0  0  0
  182.4610  178.3720  140.6020 C   0  0  0  0  0  0  0  0  0  0  0  0
  182.6690  176.3650  137.9770 C   0  0  1  0  0  3  0  0  0  0  0  0
  183.3760  174.2590  137.0760 O   0  0  0  0  0  1  0  0  0  0  0  0
  181.1860  174.2660  138.0280 C   0  0  0  0  0  2  0  0  0  0  0  0
  179.5230  174.7970  136.3600 O   0  0  0  0  0  1  0  0  0  0  0  0
  181.4950  177.0810  138.6770 C   0  0  2  0  0  3  0  0  0  0  0  0
  182.2530  175.0620  137.2770 C   0  0  1  0  0  3  0  0  0  0  0  0
  179.5070  176.1560  138.3470 C   0  0  0  0  0  2  0  0  0  0  0  0
  179.7720  174.7800  137.7340 C   0  0  2  0  0  3  0  0  0  0  0  0
  180.3810  177.1230  137.8280 O   0  0  0  0  0  0  0  0  0  0  0  0
  183.3420  177.2690  136.9540 C   0  0  0  0  0  1  0  0  0  0  0  0
  183.9200  177.9960  140.7140 C   0  0  2  0  0  3  0  0  0  0  0  0
  184.6400  178.9890  141.6100 C   0  0  2  0  0  3  0  0  0  0  0  0
  184.8750  179.0170  140.1140 C   0  0  0  0  0  2  0  0  0  0  0  0
  185.8060  178.2950  142.2880 C   0  0  0  0  0  2  0  0  0  0  0  0
  185.7700  178.5370  143.7890 C   0  0  0  0  0  2  0  0  0  0  0  0
  186.1430  177.2660  144.5740 C   0  0  2  0  0  3  0  0  0  0  0  0
  186.2240  177.4800  146.0240 N   0  0  0  0  0  0  0  0  0  0  0  0
  187.7540  178.3050  146.3580 S   0  0  0  0  0  0  0  0  0  0  0  0
  188.5430  177.5820  144.8840 C   0  0  0  0  0  2  0  0  0  0  0  0
  187.5040  176.7680  144.1400 C   0  0  0  0  0  2  0  0  0  0  0  0
  185.6450  179.4350  147.1610 O   0  0  0  0  0  1  0  0  0  0  0  0
  185.1290  178.3020  146.5290 C   0  0  0  0  0  2  0  0  0  0  0  0
  181.4170  181.3580  137.9760 O   0  0  0  0  0  0  0  0  0  0  0  0
  180.8190  180.4660  137.0850 C   0  0  0  0  0  1  0  0  0  0  0  0
  1 33  1  6  0  0  0
  1  4  1  0  0  0  0
  2  5  1  1  0  0  0
  2  9  1  0  0  0  0
  3 10  1  1  0  0  0
  4  8  1  6  0  0  0
  4  5  1  0  0  0  0
  7  3  1  0  0  0  0
  7  1  1  0  0  0  0
  7  2  1  0  0  0  0
  9  6  1  0  0  0  0
 10 21  1  0  0  0  0
 10  6  2  0  0  0  0
 11 15  1  0  0  0  0
 12 16  1  0  0  0  0
 14 18  1  0  0  0  0
 15  3  1  0  0  0  0
 16 11  1  0  0  0  0
 16 13  1  0  0  0  0
 18 13  1  0  0  0  0
 18 17  1  0  0  0  0
 19 17  1  0  0  0  0
 19 15  1  0  0  0  0
 20 11  1  0  0  0  0
 21 22  1  0  0  0  0
 22 24  1  0  0  0  0
 23 21  1  0  0  0  0
 23 22  1  0  0  0  0
 24 25  1  0  0  0  0
 25 26  1  0  0  0  0
 26 27  1  0  0  0  0
 27 28  1  0  0  0  0
 27 32  1  0  0  0  0
 29 28  1  0  0  0  0
 30 26  1  0  0  0  0
 30 29  1  0  0  0  0
 32 31  1  0  0  0  0
 34 33  1  0  0  0  0
M  END
>  <MODEL>
1

>  <REMARK>
 VINA RESULT:      -6.0      0.000      0.000
  Name = 
  7 active torsions:
  status: ('A' for Active; 'I' for Inactive)
    1  A    between atoms: C_1  and  O_24
    2  A    between atoms: C_3  and  C_13
    3  A    between atoms: C_3  and  C_17
    4  A    between atoms: C_4  and  C_21
    5  A    between atoms: C_5  and  C_31
    6  A    between atoms: N_14  and  C_34
    7  A    between atoms: C_17  and  C_18
                            x       y       z     vdW  Elec       q    Type
                         _______ _______ _______ _____ _____    ______ ____

>  <TORSDO>
F 7

$$$$
=
 OpenBabel10262419163D

 34 38  0  0  1  0  0  0  0  0999 V2000
  182.7440  175.6850  138.9030 C   0  0  1  0  0  3  0  0  0  0  0  0
  183.1840  177.3250  137.1890 C   0  0  1  0  0  3  0  0  0  0  0  0
  182.5120  178.1460  139.5130 C   0  0  1  0  0  3  0  0  0  0  0  0
  183.1050  174.9200  137.6280 C   0  0  2  0  0  3  0  0  0  0  0  0
  183.2960  175.9620  136.5320 C   0  0  0  0  0  2  0  0  0  0  0  0
  184.8510  178.3410  138.7480 C   0  0  0  0  0  3  0  0  0  0  0  0
  182.3450  177.0660  138.4330 C   0  0  2  0  0  3  0  0  0  0  0  0
  182.0830  174.0450  137.2500 O   0  0  0  0  0  1  0  0  0  0  0  0
  184.5020  177.7760  137.5160 O   0  0  0  0  0  0  0  0  0  0  0  0
  183.9590  178.5110  139.7340 C   0  0  0  0  0  0  0  0  0  0  0  0
  180.8100  179.8770  140.3780 C   0  0  1  0  0  3  0  0  0  0  0  0
  179.4430  181.6880  141.1560 O   0  0  0  0  0  1  0  0  0  0  0  0
  180.4080  182.0060  138.9940 C   0  0  0  0  0  2  0  0  0  0  0  0
  178.9310  181.1970  137.2650 O   0  0  0  0  0  1  0  0  0  0  0  0
  181.6720  179.3980  139.1930 C   0  0  2  0  0  3  0  0  0  0  0  0
  179.8400  181.0080  140.0040 C   0  0  1  0  0  3  0  0  0  0  0  0
  181.1740  180.3240  137.2410 C   0  0  0  0  0  2  0  0  0  0  0  0
  180.2610  181.5110  137.5520 C   0  0  2  0  0  3  0  0  0  0  0  0
  180.8730  179.2220  138.0550 O   0  0  0  0  0  0  0  0  0  0  0  0
  180.0070  178.7330  140.9820 C   0  0  0  0  0  1  0  0  0  0  0  0
  184.3500  179.0590  141.0860 C   0  0  2  0  0  3  0  0  0  0  0  0
  184.8750  177.9360  141.9640 C   0  0  2  0  0  3  0  0  0  0  0  0
  183.5090  178.5300  142.2390 C   0  0  0  0  0  2  0  0  0  0  0  0
  185.8770  178.5020  142.9520 C   0  0  0  0  0  2  0  0  0  0  0  0
  187.0230  177.5250  143.1670 C   0  0  0  0  0  2  0  0  0  0  0  0
  188.3880  178.2350  143.1110 C   0  0  2  0  0  3  0  0  0  0  0  0
  189.2690  177.7230  142.0540 N   0  0  0  0  0  0  0  0  0  0  0  0
  189.9350  176.1810  142.6140 S   0  0  0  0  0  0  0  0  0  0  0  0
  189.7900  176.6750  144.3610 C   0  0  0  0  0  2  0  0  0  0  0  0
  189.1290  178.0380  144.4170 C   0  0  0  0  0  2  0  0  0  0  0  0
  188.1680  178.7200  140.2530 O   0  0  0  0  0  1  0  0  0  0  0  0
  188.5610  177.4970  140.7980 C   0  0  0  0  0  2  0  0  0  0  0  0
  181.6930  175.0830  139.6030 O   0  0  0  0  0  0  0  0  0  0  0  0
  180.5460  175.7400  139.1580 C   0  0  0  0  0  1  0  0  0  0  0  0
  1 33  1  6  0  0  0
  2  5  1  1  0  0  0
  2  9  1  0  0  0  0
  2  7  1  0  0  0  0
  3 10  1  6  0  0  0
  4  8  1  6  0  0  0
  4  1  1  0  0  0  0
  5  4  1  0  0  0  0
  6 10  2  0  0  0  0
  7  1  1  0  0  0  0
  7  3  1  0  0  0  0
  9  6  1  0  0  0  0
 10 21  1  0  0  0  0
 11 20  1  0  0  0  0
 13 16  1  0  0  0  0
 14 18  1  0  0  0  0
 15  3  1  0  0  0  0
 15 11  1  0  0  0  0
 16 11  1  0  0  0  0
 16 12  1  0  0  0  0
 17 18  1  0  0  0  0
 17 19  1  0  0  0  0
 18 13  1  0  0  0  0
 19 15  1  0  0  0  0
 21 22  1  0  0  0  0
 21 23  1  0  0  0  0
 22 23  1  0  0  0  0
 22 24  1  0  0  0  0
 24 25  1  0  0  0  0
 26 25  1  0  0  0  0
 26 30  1  0  0  0  0
 27 28  1  0  0  0  0
 27 26  1  0  0  0  0
 28 29  1  0  0  0  0
 29 30  1  0  0  0  0
 31 32  1  0  0  0  0
 32 27  1  0  0  0  0
 34 33  1  0  0  0  0
M  END
>  <MODEL>
2

>  <REMARK>
 VINA RESULT:      -5.8      2.307      5.227
  Name = 
  7 active torsions:
  status: ('A' for Active; 'I' for Inactive)
    1  A    between atoms: C_1  and  O_24
    2  A    between atoms: C_3  and  C_13
    3  A    between atoms: C_3  and  C_17
    4  A    between atoms: C_4  and  C_21
    5  A    between atoms: C_5  and  C_31
    6  A    between atoms: N_14  and  C_34
    7  A    between atoms: C_17  and  C_18
                            x       y       z     vdW  Elec       q    Type
                         _______ _______ _______ _____ _____    ______ ____

>  <TORSDO>
F 7

$$$$
=
 OpenBabel10262419163D

 34 38  0  0  1  0  0  0  0  0999 V2000
  181.0420  179.8420  138.8340 C   0  0  1  0  0  3  0  0  0  0  0  0
  180.0890  177.6850  139.3490 C   0  0  1  0  0  3  0  0  0  0  0  0
  182.6190  177.8520  139.0290 C   0  0  1  0  0  3  0  0  0  0  0  0
  179.5300  180.0350  138.9560 C   0  0  2  0  0  3  0  0  0  0  0  0
  178.9310  178.6530  139.1950 C   0  0  0  0  0  2  0  0  0  0  0  0
  181.6610  177.5800  141.2880 C   0  0  0  0  0  3  0  0  0  0  0  0
  181.2330  178.3590  138.6020 C   0  0  2  0  0  3  0  0  0  0  0  0
  178.9870  180.5690  137.7840 O   0  0  0  0  0  1  0  0  0  0  0  0
  180.3720  177.5420  140.7440 O   0  0  0  0  0  0  0  0  0  0  0  0
  182.7520  177.7530  140.5280 C   0  0  0  0  0  0  0  0  0  0  0  0
  184.4260  176.4030  137.8980 C   0  0  1  0  0  3  0  0  0  0  0  0
  186.0840  174.8760  137.0810 O   0  0  0  0  0  1  0  0  0  0  0  0
  183.9510  173.9030  137.5360 C   0  0  0  0  0  2  0  0  0  0  0  0
  182.5470  173.9490  135.5720 O   0  0  0  0  0  1  0  0  0  0  0  0
  182.9580  176.5070  138.3580 C   0  0  2  0  0  3  0  0  0  0  0  0
  184.7140  175.1420  137.0690 C   0  0  1  0  0  3  0  0  0  0  0  0
  181.6180  174.9270  137.5660 C   0  0  0  0  0  2  0  0  0  0  0  0
  182.5290  173.8550  136.9650 C   0  0  2  0  0  3  0  0  0  0  0  0
  182.0970  176.2160  137.2900 O   0  0  0  0  0  0  0  0  0  0  0  0
  184.8430  177.6210  137.0850 C   0  0  0  0  0  1  0  0  0  0  0  0
  184.1360  177.8610  141.1220 C   0  0  2  0  0  3  0  0  0  0  0  0
  184.0980  178.7410  142.3600 C   0  0  2  0  0  3  0  0  0  0  0  0
  184.7230  179.2650  141.0840 C   0  0  0  0  0  2  0  0  0  0  0  0
  185.1940  178.3070  143.3150 C   0  0  0  0  0  2  0  0  0  0  0  0
  186.3850  177.7590  142.5440 C   0  0  0  0  0  2  0  0  0  0  0  0
  187.7060  178.3870  143.0260 C   0  0  2  0  0  3  0  0  0  0  0  0
  188.8200  178.1910  142.0910 N   0  0  0  0  0  0  0  0  0  0  0  0
  189.3830  176.5230  142.2730 S   0  0  0  0  0  0  0  0  0  0  0  0
  188.8270  176.4530  144.0060 C   0  0  0  0  0  2  0  0  0  0  0  0
  188.1330  177.7590  144.3360 C   0  0  0  0  0  2  0  0  0  0  0  0
  188.9790  177.4030  139.8990 O   0  0  0  0  0  1  0  0  0  0  0  0
  188.4250  178.4020  140.7010 C   0  0  0  0  0  2  0  0  0  0  0  0
  181.5880  180.5770  137.7760 O   0  0  0  0  0  0  0  0  0  0  0  0
  181.9550  181.7980  138.3430 C   0  0  0  0  0  1  0  0  0  0  0  0
  1 33  1  6  0  0  0
  1  4  1  0  0  0  0
  2  5  1  1  0  0  0
  2  9  1  0  0  0  0
  3 10  1  1  0  0  0
  4  8  1  6  0  0  0
  4  5  1  0  0  0  0
  7  1  1  0  0  0  0
  7  3  1  0  0  0  0
  7  2  1  0  0  0  0
  9  6  1  0  0  0  0
 10 21  1  0  0  0  0
 10  6  2  0  0  0  0
 11 15  1  0  0  0  0
 14 18  1  0  0  0  0
 15  3  1  0  0  0  0
 16 12  1  0  0  0  0
 16 13  1  0  0  0  0
 16 11  1  0  0  0  0
 18 13  1  0  0  0  0
 18 17  1  0  0  0  0
 19 17  1  0  0  0  0
 19 15  1  0  0  0  0
 20 11  1  0  0  0  0
 21 22  1  0  0  0  0
 22 24  1  0  0  0  0
 23 21  1  0  0  0  0
 23 22  1  0  0  0  0
 25 26  1  0  0  0  0
 25 24  1  0  0  0  0
 26 30  1  0  0  0  0
 27 28  1  0  0  0  0
 27 26  1  0  0  0  0
 28 29  1  0  0  0  0
 29 30  1  0  0  0  0
 31 32  1  0  0  0  0
 32 27  1  0  0  0  0
 33 34  1  0  0  0  0
M  END
>  <MODEL>
3

>  <REMARK>
 VINA RESULT:      -5.6      2.331      2.785
  Name = 
  7 active torsions:
  status: ('A' for Active; 'I' for Inactive)
    1  A    between atoms: C_1  and  O_24
    2  A    between atoms: C_3  and  C_13
    3  A    between atoms: C_3  and  C_17
    4  A    between atoms: C_4  and  C_21
    5  A    between atoms: C_5  and  C_31
    6  A    between atoms: N_14  and  C_34
    7  A    between atoms: C_17  and  C_18
                            x       y       z     vdW  Elec       q    Type
                         _______ _______ _______ _____ _____    ______ ____

>  <TORSDO>
F 7

$$$$
=
 OpenBabel10262419163D

 34 38  0  0  1  0  0  0  0  0999 V2000
  181.8240  175.6150  137.5470 C   0  0  1  0  0  3  0  0  0  0  0  0
  183.1170  177.0700  136.1200 C   0  0  1  0  0  3  0  0  0  0  0  0
  181.6690  178.1260  137.9400 C   0  0  1  0  0  3  0  0  0  0  0  0
  182.5730  174.7240  136.5540 C   0  0  2  0  0  3  0  0  0  0  0  0
  183.3170  175.6570  135.6040 C   0  0  0  0  0  2  0  0  0  0  0  0
  184.1220  178.0270  138.1970 C   0  0  0  0  0  3  0  0  0  0  0  0
  181.8220  176.9910  136.9160 C   0  0  2  0  0  3  0  0  0  0  0  0
  181.6930  173.9310  135.8140 O   0  0  0  0  0  1  0  0  0  0  0  0
  184.2340  177.4090  136.9460 O   0  0  0  0  0  0  0  0  0  0  0  0
  182.9350  178.3600  138.7250 C   0  0  0  0  0  0  0  0  0  0  0  0
  180.4650  180.3860  138.2370 C   0  0  1  0  0  3  0  0  0  0  0  0
  179.6070  182.6140  138.4570 O   0  0  0  0  0  1  0  0  0  0  0  0
  180.6540  182.1370  136.3640 C   0  0  0  0  0  2  0  0  0  0  0  0
  179.0430  181.3190  134.7620 O   0  0  0  0  0  1  0  0  0  0  0  0
  181.1900  179.4290  137.2700 C   0  0  2  0  0  3  0  0  0  0  0  0
  179.8300  181.5940  137.5320 C   0  0  1  0  0  3  0  0  0  0  0  0
  180.9800  179.9370  135.1220 C   0  0  0  0  0  2  0  0  0  0  0  0
  180.4040  181.3530  135.0720 C   0  0  2  0  0  3  0  0  0  0  0  0
  180.3900  179.1820  136.1460 O   0  0  0  0  0  0  0  0  0  0  0  0
  179.3820  179.6640  139.0280 C   0  0  0  0  0  1  0  0  0  0  0  0
  182.8100  178.9650  140.1030 C   0  0  2  0  0  3  0  0  0  0  0  0
  183.5780  178.1230  141.1070 C   0  0  2  0  0  3  0  0  0  0  0  0
  182.0640  178.0930  141.1020 C   0  0  0  0  0  2  0  0  0  0  0  0
  184.0590  179.0110  142.2390 C   0  0  0  0  0  2  0  0  0  0  0  0
  184.6890  178.1750  143.3420 C   0  0  0  0  0  2  0  0  0  0  0  0
  185.7810  178.9590  144.0910 C   0  0  2  0  0  3  0  0  0  0  0  0
  186.9950  178.1730  144.3430 N   0  0  0  0  0  0  0  0  0  0  0  0
  186.6550  177.0810  145.6940 S   0  0  0  0  0  0  0  0  0  0  0  0
  185.4120  178.2180  146.3880 C   0  0  0  0  0  2  0  0  0  0  0  0
  185.2690  179.3970  145.4470 C   0  0  0  0  0  2  0  0  0  0  0  0
  188.0730  178.1790  142.2720 O   0  0  0  0  0  1  0  0  0  0  0  0
  187.3930  177.3750  143.1870 C   0  0  0  0  0  2  0  0  0  0  0  0
  180.5150  175.1770  137.7700 O   0  0  0  0  0  0  0  0  0  0  0  0
  180.4820  174.8270  139.1200 C   0  0  0  0  0  1  0  0  0  0  0  0
  1 33  1  6  0  0  0
  2  5  1  1  0  0  0
  2  7  1  0  0  0  0
  2  9  1  0  0  0  0
  3 10  1  6  0  0  0
  4  8  1  6  0  0  0
  4  1  1  0  0  0  0
  5  4  1  0  0  0  0
  6 10  2  0  0  0  0
  7  1  1  0  0  0  0
  7  3  1  0  0  0  0
  9  6  1  0  0  0  0
 10 21  1  0  0  0  0
 11 20  1  0  0  0  0
 13 16  1  0  0  0  0
 14 18  1  0  0  0  0
 15  3  1  0  0  0  0
 15 11  1  0  0  0  0
 16 11  1  0  0  0  0
 16 12  1  0  0  0  0
 17 19  1  0  0  0  0
 18 17  1  0  0  0  0
 18 13  1  0  0  0  0
 19 15  1  0  0  0  0
 21 23  1  0  0  0  0
 21 22  1  0  0  0  0
 22 24  1  0  0  0  0
 23 22  1  0  0  0  0
 24 25  1  0  0  0  0
 25 26  1  0  0  0  0
 26 27  1  0  0  0  0
 26 30  1  0  0  0  0
 27 28  1  0  0  0  0
 28 29  1  0  0  0  0
 30 29  1  0  0  0  0
 31 32  1  0  0  0  0
 32 27  1  0  0  0  0
 33 34  1  0  0  0  0
M  END
>  <MODEL>
4

>  <REMARK>
 VINA RESULT:      -5.4      1.908      5.204
  Name = 
  7 active torsions:
  status: ('A' for Active; 'I' for Inactive)
    1  A    between atoms: C_1  and  O_24
    2  A    between atoms: C_3  and  C_13
    3  A    between atoms: C_3  and  C_17
    4  A    between atoms: C_4  and  C_21
    5  A    between atoms: C_5  and  C_31
    6  A    between atoms: N_14  and  C_34
    7  A    between atoms: C_17  and  C_18
                            x       y       z     vdW  Elec       q    Type
                         _______ _______ _______ _____ _____    ______ ____

>  <TORSDO>
F 7

$$$$
=
 OpenBabel10262419163D

 34 38  0  0  1  0  0  0  0  0999 V2000
  181.3460  178.6900  137.9850 C   0  0  1  0  0  3  0  0  0  0  0  0
  181.6870  176.3370  138.3990 C   0  0  1  0  0  3  0  0  0  0  0  0
  183.7220  177.8820  138.4170 C   0  0  1  0  0  3  0  0  0  0  0  0
  179.9770  178.0140  137.9010 C   0  0  2  0  0  3  0  0  0  0  0  0
  180.2160  176.5180  138.0780 C   0  0  0  0  0  2  0  0  0  0  0  0
  182.8120  176.9920  140.5320 C   0  0  0  0  0  3  0  0  0  0  0  0
  182.3490  177.5720  137.8020 C   0  0  2  0  0  3  0  0  0  0  0  0
  179.3730  178.2340  136.6600 O   0  0  0  0  0  1  0  0  0  0  0  0
  181.8340  176.2870  139.8210 O   0  0  0  0  0  0  0  0  0  0  0  0
  183.7080  177.7810  139.9220 C   0  0  0  0  0  0  0  0  0  0  0  0
  186.2310  177.6140  137.8920 C   0  0  1  0  0  3  0  0  0  0  0  0
  188.5650  177.1430  137.6020 O   0  0  0  0  0  1  0  0  0  0  0  0
  187.1060  175.2920  137.2180 C   0  0  0  0  0  2  0  0  0  0  0  0
  186.4550  175.1760  134.8960 O   0  0  0  0  0  1  0  0  0  0  0  0
  184.8240  176.9880  137.8170 C   0  0  2  0  0  3  0  0  0  0  0  0
  187.2950  176.8070  137.1320 C   0  0  1  0  0  3  0  0  0  0  0  0
  184.6620  175.2100  136.5020 C   0  0  0  0  0  2  0  0  0  0  0  0
  186.0960  174.7800  136.1860 C   0  0  2  0  0  3  0  0  0  0  0  0
  184.5360  176.6060  136.4990 O   0  0  0  0  0  0  0  0  0  0  0  0
  186.2360  179.0400  137.3590 C   0  0  0  0  0  1  0  0  0  0  0  0
  184.7200  178.5940  140.6930 C   0  0  2  0  0  3  0  0  0  0  0  0
  185.0840  177.8750  141.9810 C   0  0  2  0  0  3  0  0  0  0  0  0
  184.2130  179.1140  142.0300 C   0  0  0  0  0  2  0  0  0  0  0  0
  186.5020  178.2420  142.3740 C   0  0  0  0  0  2  0  0  0  0  0  0
  186.7030  178.0660  143.8710 C   0  0  0  0  0  2  0  0  0  0  0  0
  187.6590  176.8990  144.1790 C   0  0  2  0  0  3  0  0  0  0  0  0
  188.6120  177.1950  145.2550 N   0  0  0  0  0  0  0  0  0  0  0  0
  189.8750  178.2360  144.5790 S   0  0  0  0  0  0  0  0  0  0  0  0
  189.6370  177.5530  142.9080 C   0  0  0  0  0  2  0  0  0  0  0  0
  188.4860  176.5680  142.9550 C   0  0  0  0  0  2  0  0  0  0  0  0
  187.7760  176.9880  147.4250 O   0  0  0  0  0  1  0  0  0  0  0  0
  187.9890  177.8870  146.3790 C   0  0  0  0  0  2  0  0  0  0  0  0
  181.5170  179.6680  136.9980 O   0  0  0  0  0  0  0  0  0  0  0  0
  181.2190  180.8720  137.6350 C   0  0  0  0  0  1  0  0  0  0  0  0
  1 33  1  6  0  0  0
  2  5  1  1  0  0  0
  2  9  1  0  0  0  0
  3 10  1  1  0  0  0
  4  8  1  6  0  0  0
  4  1  1  0  0  0  0
  4  5  1  0  0  0  0
  7  1  1  0  0  0  0
  7  2  1  0  0  0  0
  7  3  1  0  0  0  0
  9  6  1  0  0  0  0
 10  6  2  0  0  0  0
 10 21  1  0  0  0  0
 14 18  1  0  0  0  0
 15 11  1  0  0  0  0
 15  3  1  0  0  0  0
 16 13  1  0  0  0  0
 16 12  1  0  0  0  0
 16 11  1  0  0  0  0
 18 17  1  0  0  0  0
 18 13  1  0  0  0  0
 19 17  1  0  0  0  0
 19 15  1  0  0  0  0
 20 11  1  0  0  0  0
 21 22  1  0  0  0  0
 21 23  1  0  0  0  0
 22 23  1  0  0  0  0
 22 24  1  0  0  0  0
 24 25  1  0  0  0  0
 25 26  1  0  0  0  0
 26 27  1  0  0  0  0
 27 32  1  0  0  0  0
 28 27  1  0  0  0  0
 29 30  1  0  0  0  0
 29 28  1  0  0  0  0
 30 26  1  0  0  0  0
 32 31  1  0  0  0  0
 33 34  1  0  0  0  0
M  END
>  <MODEL>
5

>  <REMARK>
 VINA RESULT:      -5.3      2.429      3.652
  Name = 
  7 active torsions:
  status: ('A' for Active; 'I' for Inactive)
    1  A    between atoms: C_1  and  O_24
    2  A    between atoms: C_3  and  C_13
    3  A    between atoms: C_3  and  C_17
    4  A    between atoms: C_4  and  C_21
    5  A    between atoms: C_5  and  C_31
    6  A    between atoms: N_14  and  C_34
    7  A    between atoms: C_17  and  C_18
                            x       y       z     vdW  Elec       q    Type
                         _______ _______ _______ _____ _____    ______ ____

>  <TORSDO>
F 7

$$$$
=
 OpenBabel10262419163D

 34 38  0  0  1  0  0  0  0  0999 V2000
  180.0250  179.5980  140.0920 C   0  0  1  0  0  3  0  0  0  0  0  0
  182.0680  180.3360  139.0400 C   0  0  1  0  0  3  0  0  0  0  0  0
  182.1260  178.2040  140.4470 C   0  0  1  0  0  3  0  0  0  0  0  0
  179.7030  180.8890  139.3370 C   0  0  2  0  0  3  0  0  0  0  0  0
  181.0180  181.3910  138.7490 C   0  0  0  0  0  2  0  0  0  0  0  0
  182.2060  178.0770  137.9830 C   0  0  0  0  0  3  0  0  0  0  0  0
  181.5280  179.6070  140.2630 C   0  0  2  0  0  3  0  0  0  0  0  0
  179.1850  181.8650  140.1910 O   0  0  0  0  0  1  0  0  0  0  0  0
  182.1650  179.4730  137.9030 O   0  0  0  0  0  0  0  0  0  0  0  0
  182.1610  177.4270  139.1550 C   0  0  0  0  0  0  0  0  0  0  0  0
  183.4940  178.3090  142.6290 C   0  0  1  0  0  3  0  0  0  0  0  0
  184.8660  178.1370  144.5880 O   0  0  0  0  0  1  0  0  0  0  0  0
  186.0260  177.8770  142.5160 C   0  0  0  0  0  2  0  0  0  0  0  0
  186.8520  180.0020  141.7190 O   0  0  0  0  0  1  0  0  0  0  0  0
  183.5260  178.2670  141.0880 C   0  0  2  0  0  3  0  0  0  0  0  0
  184.8740  178.5570  143.2570 C   0  0  1  0  0  3  0  0  0  0  0  0
  185.4920  178.7460  140.1810 C   0  0  0  0  0  2  0  0  0  0  0  0
  186.5100  178.7070  141.3220 C   0  0  2  0  0  3  0  0  0  0  0  0
  184.2870  179.3340  140.5910 O   0  0  0  0  0  0  0  0  0  0  0  0
  182.5340  179.3760  143.1370 C   0  0  0  0  0  1  0  0  0  0  0  0
  182.1370  175.9190  139.2370 C   0  0  2  0  0  3  0  0  0  0  0  0
  181.3460  175.3520  138.0710 C   0  0  2  0  0  3  0  0  0  0  0  0
  180.7540  175.3290  139.4650 C   0  0  0  0  0  2  0  0  0  0  0  0
  181.8790  173.9740  137.7290 C   0  0  0  0  0  2  0  0  0  0  0  0
  183.0560  174.0810  136.7720 C   0  0  0  0  0  2  0  0  0  0  0  0
  184.4000  174.0570  137.5240 C   0  0  2  0  0  3  0  0  0  0  0  0
  185.4450  174.8580  136.8750 N   0  0  0  0  0  0  0  0  0  0  0  0
  186.0440  173.9340  135.4900 S   0  0  0  0  0  0  0  0  0  0  0  0
  185.6170  172.3480  136.2770 C   0  0  0  0  0  2  0  0  0  0  0  0
  184.9300  172.6410  137.5960 C   0  0  0  0  0  2  0  0  0  0  0  0
  185.6510  177.1800  137.0150 O   0  0  0  0  0  1  0  0  0  0  0  0
  184.9470  176.1450  136.3980 C   0  0  0  0  0  2  0  0  0  0  0  0
  179.3900  179.5390  141.3370 O   0  0  0  0  0  0  0  0  0  0  0  0
  178.9480  178.2210  141.4490 C   0  0  0  0  0  1  0  0  0  0  0  0
  1  7  1  0  0  0  0
  1 33  1  1  0  0  0
  2  5  1  6  0  0  0
  2  7  1  0  0  0  0
  3 10  1  6  0  0  0
  3 15  1  0  0  0  0
  4  1  1  0  0  0  0
  4  8  1  1  0  0  0
  5  4  1  0  0  0  0
  6 10  2  0  0  0  0
  7  3  1  0  0  0  0
  9  6  1  0  0  0  0
  9  2  1  0  0  0  0
 10 21  1  0  0  0  0
 11 20  1  0  0  0  0
 11 16  1  0  0  0  0
 13 16  1  0  0  0  0
 15 11  1  0  0  0  0
 16 12  1  0  0  0  0
 17 19  1  0  0  0  0
 17 18  1  0  0  0  0
 18 14  1  0  0  0  0
 18 13  1  0  0  0  0
 19 15  1  0  0  0  0
 21 23  1  0  0  0  0
 22 21  1  0  0  0  0
 22 23  1  0  0  0  0
 24 22  1  0  0  0  0
 25 26  1  0  0  0  0
 25 24  1  0  0  0  0
 26 30  1  0  0  0  0
 27 26  1  0  0  0  0
 28 29  1  0  0  0  0
 28 27  1  0  0  0  0
 29 30  1  0  0  0  0
 32 27  1  0  0  0  0
 32 31  1  0  0  0  0
 33 34  1  0  0  0  0
M  END
>  <MODEL>
6

>  <REMARK>
 VINA RESULT:      -5.1      3.350      6.696
  Name = 
  7 active torsions:
  status: ('A' for Active; 'I' for Inactive)
    1  A    between atoms: C_1  and  O_24
    2  A    between atoms: C_3  and  C_13
    3  A    between atoms: C_3  and  C_17
    4  A    between atoms: C_4  and  C_21
    5  A    between atoms: C_5  and  C_31
    6  A    between atoms: N_14  and  C_34
    7  A    between atoms: C_17  and  C_18
                            x       y       z     vdW  Elec       q    Type
                         _______ _______ _______ _____ _____    ______ ____

>  <TORSDO>
F 7

$$$$
=
 OpenBabel10262419163D

 34 38  0  0  1  0  0  0  0  0999 V2000
  193.2800  175.9550  136.5230 C   0  0  1  0  0  3  0  0  0  0  0  0
  192.1790  174.3670  137.9690 C   0  0  1  0  0  3  0  0  0  0  0  0
  191.0910  176.6520  137.6220 C   0  0  1  0  0  3  0  0  0  0  0  0
  194.1500  174.6970  136.5560 C   0  0  2  0  0  3  0  0  0  0  0  0
  193.4900  173.7350  137.5390 C   0  0  0  0  0  2  0  0  0  0  0  0
  190.1490  174.6440  136.5390 C   0  0  0  0  0  3  0  0  0  0  0  0
  192.4000  175.8570  137.7500 C   0  0  2  0  0  3  0  0  0  0  0  0
  195.4440  174.9820  136.9990 O   0  0  0  0  0  1  0  0  0  0  0  0
  191.1380  173.8520  137.1340 O   0  0  0  0  0  0  0  0  0  0  0  0
  190.0990  175.9720  136.7120 C   0  0  0  0  0  0  0  0  0  0  0  0
  189.2000  177.8130  138.9340 C   0  0  1  0  0  3  0  0  0  0  0  0
  187.3470  178.6200  140.2230 O   0  0  0  0  0  1  0  0  0  0  0  0
  188.8430  177.1780  141.4000 C   0  0  0  0  0  2  0  0  0  0  0  0
  190.5830  178.4470  142.4910 O   0  0  0  0  0  1  0  0  0  0  0  0
  190.4670  176.9360  139.0020 C   0  0  2  0  0  3  0  0  0  0  0  0
  188.6870  178.2450  140.3160 C   0  0  1  0  0  3  0  0  0  0  0  0
  191.3140  176.6760  141.0340 C   0  0  0  0  0  2  0  0  0  0  0  0
  190.2490  177.1800  142.0100 C   0  0  2  0  0  3  0  0  0  0  0  0
  191.3910  177.4920  139.8970 O   0  0  0  0  0  0  0  0  0  0  0  0
  189.4310  179.0610  138.0930 C   0  0  0  0  0  1  0  0  0  0  0  0
  189.0730  176.8350  136.0170 C   0  0  2  0  0  3  0  0  0  0  0  0
  187.7190  176.1480  136.0440 C   0  0  2  0  0  3  0  0  0  0  0  0
  188.4990  176.2210  134.7480 C   0  0  0  0  0  2  0  0  0  0  0  0
  186.6250  177.1990  136.0320 C   0  0  0  0  0  2  0  0  0  0  0  0
  185.7310  177.0520  137.2530 C   0  0  0  0  0  2  0  0  0  0  0  0
  184.3300  177.6380  137.0010 C   0  0  2  0  0  3  0  0  0  0  0  0
  183.6420  178.0530  138.2300 N   0  0  0  0  0  0  0  0  0  0  0  0
  183.0410  176.5900  139.0260 S   0  0  0  0  0  0  0  0  0  0  0  0
  182.9140  175.6990  137.4420 C   0  0  0  0  0  2  0  0  0  0  0  0
  183.4440  176.6010  136.3450 C   0  0  0  0  0  2  0  0  0  0  0  0
  184.2710  180.1280  139.0950 O   0  0  0  0  0  1  0  0  0  0  0  0
  184.5260  178.7570  139.1530 C   0  0  0  0  0  2  0  0  0  0  0  0
  194.0410  177.1280  136.5580 O   0  0  0  0  0  0  0  0  0  0  0  0
  194.6860  177.1720  135.3220 C   0  0  0  0  0  1  0  0  0  0  0  0
  1  4  1  0  0  0  0
  1 33  1  1  0  0  0
  1  7  1  0  0  0  0
  2  5  1  6  0  0  0
  3 10  1  6  0  0  0
  3  7  1  0  0  0  0
  3 15  1  0  0  0  0
  4  8  1  1  0  0  0
  4  5  1  0  0  0  0
  6 10  2  0  0  0  0
  6  9  1  0  0  0  0
  7  2  1  0  0  0  0
  9  2  1  0  0  0  0
 11 15  1  0  0  0  0
 11 16  1  0  0  0  0
 12 16  1  0  0  0  0
 13 18  1  0  0  0  0
 15 19  1  0  0  0  0
 16 13  1  0  0  0  0
 17 18  1  0  0  0  0
 18 14  1  0  0  0  0
 19 17  1  0  0  0  0
 20 11  1  0  0  0  0
 21 22  1  0  0  0  0
 21 10  1  0  0  0  0
 23 21  1  0  0  0  0
 23 22  1  0  0  0  0
 24 22  1  0  0  0  0
 24 25  1  0  0  0  0
 26 25  1  0  0  0  0
 26 27  1  0  0  0  0
 27 28  1  0  0  0  0
 27 32  1  0  0  0  0
 29 28  1  0  0  0  0
 30 26  1  0  0  0  0
 30 29  1  0  0  0  0
 31 32  1  0  0  0  0
 34 33  1  0  0  0  0
M  END
>  <MODEL>
7

>  <REMARK>
 VINA RESULT:      -5.0      6.857     10.664
  Name = 
  7 active torsions:
  status: ('A' for Active; 'I' for Inactive)
    1  A    between atoms: C_1  and  O_24
    2  A    between atoms: C_3  and  C_13
    3  A    between atoms: C_3  and  C_17
    4  A    between atoms: C_4  and  C_21
    5  A    between atoms: C_5  and  C_31
    6  A    between atoms: N_14  and  C_34
    7  A    between atoms: C_17  and  C_18
                            x       y       z     vdW  Elec       q    Type
                         _______ _______ _______ _____ _____    ______ ____

>  <TORSDO>
F 7

$$$$
=
 OpenBabel10262419163D

 34 38  0  0  1  0  0  0  0  0999 V2000
  190.6030  175.2970  135.2290 C   0  0  1  0  0  3  0  0  0  0  0  0
  190.1670  173.8720  137.1270 C   0  0  1  0  0  3  0  0  0  0  0  0
  189.2440  176.2540  137.1580 C   0  0  1  0  0  3  0  0  0  0  0  0
  191.2780  173.9530  134.9480 C   0  0  2  0  0  3  0  0  0  0  0  0
  191.0690  173.0920  136.1890 C   0  0  0  0  0  2  0  0  0  0  0  0
  187.7380  174.3360  136.7740 C   0  0  0  0  0  3  0  0  0  0  0  0
  190.3890  175.3240  136.7260 C   0  0  2  0  0  3  0  0  0  0  0  0
  192.6490  174.1050  134.7260 O   0  0  0  0  0  1  0  0  0  0  0  0
  188.8180  173.4540  136.9020 O   0  0  0  0  0  0  0  0  0  0  0  0
  187.8890  175.6650  136.8560 C   0  0  0  0  0  0  0  0  0  0  0  0
  188.4800  177.8400  139.0400 C   0  0  1  0  0  3  0  0  0  0  0  0
  187.6400  179.0790  140.9130 O   0  0  0  0  0  1  0  0  0  0  0  0
  189.0210  177.2130  141.4740 C   0  0  0  0  0  2  0  0  0  0  0  0
  191.3360  177.8760  141.6500 O   0  0  0  0  0  1  0  0  0  0  0  0
  189.3580  176.6350  138.6460 C   0  0  2  0  0  3  0  0  0  0  0  0
  188.7330  178.3320  140.4730 C   0  0  1  0  0  3  0  0  0  0  0  0
  190.8650  176.0440  140.1610 C   0  0  0  0  0  2  0  0  0  0  0  0
  190.4910  176.7820  141.4480 C   0  0  2  0  0  3  0  0  0  0  0  0
  190.6870  176.8590  139.0340 O   0  0  0  0  0  0  0  0  0  0  0  0
  188.6790  179.0100  138.0860 C   0  0  0  0  0  1  0  0  0  0  0  0
  186.7360  176.6190  136.6490 C   0  0  2  0  0  3  0  0  0  0  0  0
  185.8360  176.1060  135.5380 C   0  0  2  0  0  3  0  0  0  0  0  0
  186.7290  177.3040  135.2910 C   0  0  0  0  0  2  0  0  0  0  0  0
  184.4170  176.5800  135.7860 C   0  0  0  0  0  2  0  0  0  0  0  0
  184.2060  176.8820  137.2620 C   0  0  0  0  0  2  0  0  0  0  0  0
  183.0260  177.8480  137.4770 C   0  0  2  0  0  3  0  0  0  0  0  0
  182.9470  178.3740  138.8450 N   0  0  0  0  0  0  0  0  0  0  0  0
  182.2730  177.0990  139.8710 S   0  0  0  0  0  0  0  0  0  0  0  0
  181.3670  176.3610  138.4740 C   0  0  0  0  0  2  0  0  0  0  0  0
  181.7170  177.1340  137.2190 C   0  0  0  0  0  2  0  0  0  0  0  0
  184.4570  180.1240  139.1790 O   0  0  0  0  0  1  0  0  0  0  0  0
  184.2530  178.7570  139.3730 C   0  0  0  0  0  2  0  0  0  0  0  0
  191.3920  176.3800  134.8270 O   0  0  0  0  0  0  0  0  0  0  0  0
  190.4860  177.4140  134.5950 C   0  0  0  0  0  1  0  0  0  0  0  0
  1 33  1  1  0  0  0
  1  7  1  0  0  0  0
  2  5  1  6  0  0  0
  3 10  1  1  0  0  0
  3 15  1  0  0  0  0
  4  8  1  1  0  0  0
  4  1  1  0  0  0  0
  4  5  1  0  0  0  0
  6 10  2  0  0  0  0
  6  9  1  0  0  0  0
  7  2  1  0  0  0  0
  7  3  1  0  0  0  0
  9  2  1  0  0  0  0
 11 16  1  0  0  0  0
 15 19  1  0  0  0  0
 15 11  1  0  0  0  0
 16 12  1  0  0  0  0
 16 13  1  0  0  0  0
 17 18  1  0  0  0  0
 18 13  1  0  0  0  0
 18 14  1  0  0  0  0
 19 17  1  0  0  0  0
 20 11  1  0  0  0  0
 21 10  1  0  0  0  0
 22 24  1  0  0  0  0
 22 21  1  0  0  0  0
 23 22  1  0  0  0  0
 23 21  1  0  0  0  0
 24 25  1  0  0  0  0
 25 26  1  0  0  0  0
 26 27  1  0  0  0  0
 27 32  1  0  0  0  0
 27 28  1  0  0  0  0
 29 28  1  0  0  0  0
 30 26  1  0  0  0  0
 30 29  1  0  0  0  0
 31 32  1  0  0  0  0
 34 33  1  0  0  0  0
M  END
>  <MODEL>
8

>  <REMARK>
 VINA RESULT:      -5.0      5.838      9.756
  Name = 
  7 active torsions:
  status: ('A' for Active; 'I' for Inactive)
    1  A    between atoms: C_1  and  O_24
    2  A    between atoms: C_3  and  C_13
    3  A    between atoms: C_3  and  C_17
    4  A    between atoms: C_4  and  C_21
    5  A    between atoms: C_5  and  C_31
    6  A    between atoms: N_14  and  C_34
    7  A    between atoms: C_17  and  C_18
                            x       y       z     vdW  Elec       q    Type
                         _______ _______ _______ _____ _____    ______ ____

>  <TORSDO>
F 7

$$$$
=
 OpenBabel10262419163D

 34 38  0  0  1  0  0  0  0  0999 V2000
  190.7420  175.7520  135.2490 C   0  0  1  0  0  3  0  0  0  0  0  0
  191.4000  174.6660  137.3010 C   0  0  1  0  0  3  0  0  0  0  0  0
  189.1710  175.9150  137.2470 C   0  0  1  0  0  3  0  0  0  0  0  0
  192.1060  175.1060  135.0000 C   0  0  2  0  0  3  0  0  0  0  0  0
  192.5500  174.4970  136.3260 C   0  0  0  0  0  2  0  0  0  0  0  0
  189.2210  173.4460  137.2210 C   0  0  0  0  0  3  0  0  0  0  0  0
  190.6250  175.8580  136.7540 C   0  0  2  0  0  3  0  0  0  0  0  0
  193.0530  176.0490  134.5940 O   0  0  0  0  0  1  0  0  0  0  0  0
  190.6190  173.4680  137.2860 O   0  0  0  0  0  0  0  0  0  0  0  0
  188.4910  174.5700  137.1700 C   0  0  0  0  0  0  0  0  0  0  0  0
  187.9630  177.5450  138.8360 C   0  0  1  0  0  3  0  0  0  0  0  0
  186.7460  178.8210  140.4610 O   0  0  0  0  0  1  0  0  0  0  0  0
  188.3940  177.3470  141.3630 C   0  0  0  0  0  2  0  0  0  0  0  0
  190.5210  178.4680  141.5880 O   0  0  0  0  0  1  0  0  0  0  0  0
  189.0810  176.4960  138.6710 C   0  0  2  0  0  3  0  0  0  0  0  0
  187.9930  178.2530  140.1990 C   0  0  1  0  0  3  0  0  0  0  0  0
  190.5330  176.4070  140.3450 C   0  0  0  0  0  2  0  0  0  0  0  0
  189.9160  177.2140  141.4890 C   0  0  2  0  0  3  0  0  0  0  0  0
  190.3050  177.0230  139.1050 O   0  0  0  0  0  0  0  0  0  0  0  0
  188.0240  178.6010  137.7410 C   0  0  0  0  0  1  0  0  0  0  0  0
  186.9880  174.5470  137.0320 C   0  0  2  0  0  3  0  0  0  0  0  0
  186.4780  173.1250  137.1920 C   0  0  2  0  0  3  0  0  0  0  0  0
  186.4850  173.7720  135.8230 C   0  0  0  0  0  2  0  0  0  0  0  0
  185.0710  173.1600  137.7570 C   0  0  0  0  0  2  0  0  0  0  0  0
  184.1250  173.8550  136.7900 C   0  0  0  0  0  2  0  0  0  0  0  0
  183.2610  174.9100  137.5050 C   0  0  2  0  0  3  0  0  0  0  0  0
  181.9840  175.1720  136.8300 N   0  0  0  0  0  0  0  0  0  0  0  0
  182.3220  176.1960  135.4260 S   0  0  0  0  0  0  0  0  0  0  0  0
  183.7940  176.9160  136.2200 C   0  0  0  0  0  2  0  0  0  0  0  0
  183.9950  176.2330  137.5580 C   0  0  0  0  0  2  0  0  0  0  0  0
  180.3500  173.5670  137.2830 O   0  0  0  0  0  1  0  0  0  0  0  0
  181.3340  173.9490  136.3710 C   0  0  0  0  0  2  0  0  0  0  0  0
  190.6400  177.0180  134.6600 O   0  0  0  0  0  0  0  0  0  0  0  0
  189.2690  177.2700  134.5940 C   0  0  0  0  0  1  0  0  0  0  0  0
  1 33  1  6  0  0  0
  1  7  1  0  0  0  0
  2  5  1  6  0  0  0
  3 10  1  1  0  0  0
  3 15  1  0  0  0  0
  4  8  1  1  0  0  0
  4  1  1  0  0  0  0
  4  5  1  0  0  0  0
  6  9  1  0  0  0  0
  7  3  1  0  0  0  0
  7  2  1  0  0  0  0
  9  2  1  0  0  0  0
 10  6  2  0  0  0  0
 11 16  1  0  0  0  0
 13 18  1  0  0  0  0
 15 11  1  0  0  0  0
 15 19  1  0  0  0  0
 16 12  1  0  0  0  0
 16 13  1  0  0  0  0
 17 18  1  0  0  0  0
 18 14  1  0  0  0  0
 19 17  1  0  0  0  0
 20 11  1  0  0  0  0
 21 10  1  0  0  0  0
 21 22  1  0  0  0  0
 22 24  1  0  0  0  0
 23 21  1  0  0  0  0
 23 22  1  0  0  0  0
 25 26  1  0  0  0  0
 25 24  1  0  0  0  0
 26 30  1  0  0  0  0
 27 26  1  0  0  0  0
 28 29  1  0  0  0  0
 28 27  1  0  0  0  0
 29 30  1  0  0  0  0
 32 27  1  0  0  0  0
 32 31  1  0  0  0  0
 34 33  1  0  0  0  0
M  END
>  <MODEL>
9

>  <REMARK>
 VINA RESULT:      -4.9      6.319     10.205
  Name = 
  7 active torsions:
  status: ('A' for Active; 'I' for Inactive)
    1  A    between atoms: C_1  and  O_24
    2  A    between atoms: C_3  and  C_13
    3  A    between atoms: C_3  and  C_17
    4  A    between atoms: C_4  and  C_21
    5  A    between atoms: C_5  and  C_31
    6  A    between atoms: N_14  and  C_34
    7  A    between atoms: C_17  and  C_18
                            x       y       z     vdW  Elec       q    Type
                         _______ _______ _______ _____ _____    ______ ____

>  <TORSDO>
F 7

$$$$
