=
 OpenBabel10262419353D

 31 34  0  0  1  0  0  0  0  0999 V2000
  184.9610  178.2560  145.1690 C   0  0  0  0  0  0  0  0  0  0  0  0
  188.3970  177.4850  143.8950 C   0  0  0  0  0  0  0  0  0  0  0  0
  189.1470  177.0070  145.1380 C   0  0  2  0  0  3  0  0  0  0  0  0
  189.8060  177.8180  147.4010 C   0  0  0  0  0  0  0  0  0  0  0  0
  187.0330  177.8690  143.9490 C   0  0  0  0  0  0  0  0  0  0  0  0
  184.3290  178.6520  143.9890 C   0  0  0  0  0  3  0  0  0  0  0  0
  188.9620  177.8780  146.3560 C   0  0  0  0  0  3  0  0  0  0  0  0
  188.3240  177.8030  141.4740 C   0  0  0  0  0  0  0  0  0  0  0  0
  184.2730  178.2530  146.3370 F   0  0  0  0  0  0  0  0  0  0  0  0
  190.8770  176.0260  143.6360 C   0  0  0  0  0  2  0  0  0  0  0  0
  189.5750  178.6140  148.4750 F   0  0  0  0  0  0  0  0  0  0  0  0
  187.0340  178.2190  141.5740 N   0  0  0  0  0  0  0  0  0  0  0  0
  189.0210  177.3920  142.6220 C   0  0  0  0  0  0  0  0  0  0  0  0
  188.9630  177.7630  140.1930 N   0  0  0  0  0  2  0  0  0  0  0  0
  186.3020  177.8650  145.1480 C   0  0  0  0  0  3  0  0  0  0  0  0
  191.0880  177.0100  147.3570 C   0  0  0  0  0  2  0  0  0  0  0  0
  186.3760  178.2530  142.7570 C   0  0  0  0  0  0  0  0  0  0  0  0
  185.0350  178.6490  142.7850 C   0  0  0  0  0  3  0  0  0  0  0  0
  190.4440  176.9070  142.4730 C   0  0  0  0  0  2  0  0  0  0  0  0
  190.6450  176.8090  144.9060 C   0  0  2  0  0  3  0  0  0  0  0  0
  191.2160  176.1030  146.1250 C   0  0  0  0  0  2  0  0  0  0  0  0
  189.2420  179.1080  138.1910 C   0  0  0  0  0  1  0  0  0  0  0  0
  188.3060  178.1960  138.9660 C   0  0  1  0  0  3  0  0  0  0  0  0
  186.8770  177.3040  137.2550 O   0  0  0  0  0  1  0  0  0  0  0  0
  187.9230  176.9780  138.1220 C   0  0  1  0  0  3  0  0  0  0  0  0
  189.1770  176.7350  136.1300 O   0  0  0  0  0  0  0  0  0  0  0  0
  189.0850  176.4700  137.3190 C   0  0  0  0  0  0  0  0  0  0  0  0
  190.1010  175.5840  137.9690 C   0  0  0  0  0  2  0  0  0  0  0  0
  191.5180  176.0350  137.6500 C   0  0  0  0  0  3  0  0  0  0  0  0
  192.3650  174.8230  137.3260 C   0  0  0  0  0  1  0  0  0  0  0  0
  192.1180  176.7530  138.8430 C   0  0  0  0  0  1  0  0  0  0  0  0
  1  9  1  0  0  0  0
  2  5  1  0  0  0  0
  2  3  1  0  0  0  0
  3  7  1  1  0  0  0
  4 11  1  0  0  0  0
  5 15  2  0  0  0  0
  6  1  2  0  0  0  0
  7  4  2  0  0  0  0
  8 12  2  0  0  0  0
  8 13  1  0  0  0  0
 12 17  1  0  0  0  0
 13  2  2  0  0  0  0
 14  8  1  0  0  0  0
 15  1  1  0  0  0  0
 16  4  1  0  0  0  0
 17 18  2  0  0  0  0
 17  5  1  0  0  0  0
 18  6  1  0  0  0  0
 19 13  1  0  0  0  0
 19 10  1  0  0  0  0
 20 10  1  6  0  0  0
 20  3  1  0  0  0  0
 20 21  1  0  0  0  0
 21 16  1  0  0  0  0
 23 22  1  6  0  0  0
 23 14  1  0  0  0  0
 25 24  1  6  0  0  0
 25 23  1  0  0  0  0
 26 27  2  0  0  0  0
 27 28  1  0  0  0  0
 27 25  1  0  0  0  0
 29 28  1  0  0  0  0
 29 31  1  0  0  0  0
 30 29  1  0  0  0  0
M  END
>  <MODEL>
1

>  <REMARK>
 VINA RESULT:      -9.6      0.000      0.000
  Name = 
  5 active torsions:
  status: ('A' for Active; 'I' for Inactive)
    1  A    between atoms: C_1  and  C_24
    2  A    between atoms: C_9  and  C_22
    3  A    between atoms: C_9  and  N_23
    4  A    between atoms: C_19  and  C_22
    5  A    between atoms: C_19  and  C_24
                            x       y       z     vdW  Elec       q    Type
                         _______ _______ _______ _____ _____    ______ ____

>  <TORSDO>
F 5

$$$$
=
 OpenBabel10262419353D

 31 34  0  0  1  0  0  0  0  0999 V2000
  185.5470  177.9810  145.2990 C   0  0  0  0  0  0  0  0  0  0  0  0
  189.0300  177.1040  144.2390 C   0  0  0  0  0  0  0  0  0  0  0  0
  189.7260  176.7290  145.5470 C   0  0  2  0  0  3  0  0  0  0  0  0
  190.2930  177.7240  147.7610 C   0  0  0  0  0  0  0  0  0  0  0  0
  187.6660  177.4920  144.2030 C   0  0  0  0  0  0  0  0  0  0  0  0
  184.9670  178.2790  144.0650 C   0  0  0  0  0  3  0  0  0  0  0  0
  189.4930  177.6990  146.6800 C   0  0  0  0  0  3  0  0  0  0  0  0
  189.0600  177.2210  141.7990 C   0  0  0  0  0  0  0  0  0  0  0  0
  184.8110  178.0750  146.4330 F   0  0  0  0  0  0  0  0  0  0  0  0
  191.5120  175.6260  144.2050 C   0  0  0  0  0  2  0  0  0  0  0  0
  190.0200  178.6070  148.7550 F   0  0  0  0  0  0  0  0  0  0  0  0
  187.7680  177.6440  141.8090 N   0  0  0  0  0  0  0  0  0  0  0  0
  189.7060  176.9060  143.0050 C   0  0  0  0  0  0  0  0  0  0  0  0
  189.7520  177.0750  140.5530 N   0  0  0  0  0  2  0  0  0  0  0  0
  186.8860  177.5880  145.3670 C   0  0  0  0  0  3  0  0  0  0  0  0
  191.5720  176.9150  147.8380 C   0  0  0  0  0  2  0  0  0  0  0  0
  187.0620  177.7770  142.9570 C   0  0  0  0  0  0  0  0  0  0  0  0
  185.7230  178.1750  142.8960 C   0  0  0  0  0  3  0  0  0  0  0  0
  191.1320  176.4090  142.9570 C   0  0  0  0  0  2  0  0  0  0  0  0
  191.2300  176.5120  145.3960 C   0  0  2  0  0  3  0  0  0  0  0  0
  191.7470  175.9080  146.6920 C   0  0  0  0  0  2  0  0  0  0  0  0
  189.2320  178.9060  139.0460 C   0  0  0  0  0  1  0  0  0  0  0  0
  189.1480  177.4050  139.2680 C   0  0  1  0  0  3  0  0  0  0  0  0
  190.4700  175.4990  138.6480 O   0  0  0  0  0  1  0  0  0  0  0  0
  189.8690  176.6550  138.1450 C   0  0  1  0  0  3  0  0  0  0  0  0
  189.3510  176.1090  135.9020 O   0  0  0  0  0  0  0  0  0  0  0  0
  188.9300  176.2770  137.0370 C   0  0  0  0  0  0  0  0  0  0  0  0
  187.4640  176.1660  137.3150 C   0  0  0  0  0  2  0  0  0  0  0  0
  186.6830  177.2800  136.6350 C   0  0  0  0  0  3  0  0  0  0  0  0
  185.7970  177.9610  137.6560 C   0  0  0  0  0  1  0  0  0  0  0  0
  185.8140  176.7090  135.5310 C   0  0  0  0  0  1  0  0  0  0  0  0
  1 15  1  0  0  0  0
  1  9  1  0  0  0  0
  2  3  1  0  0  0  0
  3  7  1  1  0  0  0
  4 16  1  0  0  0  0
  4 11  1  0  0  0  0
  5  2  1  0  0  0  0
  5 15  2  0  0  0  0
  6  1  2  0  0  0  0
  7  4  2  0  0  0  0
  8 12  2  0  0  0  0
  8 13  1  0  0  0  0
 12 17  1  0  0  0  0
 13  2  2  0  0  0  0
 14  8  1  0  0  0  0
 17  5  1  0  0  0  0
 18 17  2  0  0  0  0
 18  6  1  0  0  0  0
 19 13  1  0  0  0  0
 19 10  1  0  0  0  0
 20 10  1  6  0  0  0
 20  3  1  0  0  0  0
 20 21  1  0  0  0  0
 21 16  1  0  0  0  0
 23 22  1  6  0  0  0
 23 14  1  0  0  0  0
 25 24  1  1  0  0  0
 25 23  1  0  0  0  0
 26 27  2  0  0  0  0
 27 28  1  0  0  0  0
 27 25  1  0  0  0  0
 29 28  1  0  0  0  0
 29 30  1  0  0  0  0
 31 29  1  0  0  0  0
M  END
>  <MODEL>
2

>  <REMARK>
 VINA RESULT:      -9.5      1.255      2.383
  Name = 
  5 active torsions:
  status: ('A' for Active; 'I' for Inactive)
    1  A    between atoms: C_1  and  C_24
    2  A    between atoms: C_9  and  C_22
    3  A    between atoms: C_9  and  N_23
    4  A    between atoms: C_19  and  C_22
    5  A    between atoms: C_19  and  C_24
                            x       y       z     vdW  Elec       q    Type
                         _______ _______ _______ _____ _____    ______ ____

>  <TORSDO>
F 5

$$$$
=
 OpenBabel10262419353D

 31 34  0  0  1  0  0  0  0  0999 V2000
  184.8450  178.3560  144.6990 C   0  0  0  0  0  0  0  0  0  0  0  0
  188.2940  177.4900  143.5250 C   0  0  0  0  0  0  0  0  0  0  0  0
  188.9980  177.0040  144.7920 C   0  0  2  0  0  3  0  0  0  0  0  0
  189.6160  177.8180  147.0650 C   0  0  0  0  0  0  0  0  0  0  0  0
  186.9380  177.9080  143.5390 C   0  0  0  0  0  0  0  0  0  0  0  0
  184.2550  178.7580  143.4990 C   0  0  0  0  0  3  0  0  0  0  0  0
  188.8020  177.8900  145.9970 C   0  0  0  0  0  3  0  0  0  0  0  0
  188.2950  177.7890  141.1000 C   0  0  0  0  0  0  0  0  0  0  0  0
  184.1260  178.3800  145.8470 F   0  0  0  0  0  0  0  0  0  0  0  0
  190.7430  175.9680  143.3450 C   0  0  0  0  0  2  0  0  0  0  0  0
  189.3750  178.6290  148.1270 F   0  0  0  0  0  0  0  0  0  0  0  0
  187.0130  178.2370  141.1610 N   0  0  0  0  0  0  0  0  0  0  0  0
  188.9500  177.3710  142.2700 C   0  0  0  0  0  0  0  0  0  0  0  0
  188.9670  177.7220  139.8380 N   0  0  0  0  0  2  0  0  0  0  0  0
  186.1750  177.9320  144.7170 C   0  0  0  0  0  3  0  0  0  0  0  0
  190.8770  176.9790  147.0630 C   0  0  0  0  0  2  0  0  0  0  0  0
  186.3240  178.2970  142.3260 C   0  0  0  0  0  0  0  0  0  0  0  0
  184.9930  178.7260  142.3140 C   0  0  0  0  0  3  0  0  0  0  0  0
  190.3630  176.8500  142.1640 C   0  0  0  0  0  2  0  0  0  0  0  0
  190.4960  176.7680  144.6020 C   0  0  2  0  0  3  0  0  0  0  0  0
  191.0160  176.0580  145.8420 C   0  0  0  0  0  2  0  0  0  0  0  0
  189.1540  179.3200  138.0190 C   0  0  0  0  0  1  0  0  0  0  0  0
  188.3540  178.1610  138.5900 C   0  0  1  0  0  3  0  0  0  0  0  0
  188.9930  175.8960  138.1120 O   0  0  0  0  0  1  0  0  0  0  0  0
  188.3090  176.9990  137.5950 C   0  0  1  0  0  3  0  0  0  0  0  0
  186.6020  175.4130  137.1780 O   0  0  0  0  0  0  0  0  0  0  0  0
  186.8990  176.5950  137.2740 C   0  0  0  0  0  0  0  0  0  0  0  0
  185.8690  177.6490  137.0130 C   0  0  0  0  0  2  0  0  0  0  0  0
  184.6950  177.5300  137.9720 C   0  0  0  0  0  3  0  0  0  0  0  0
  183.4530  177.1500  137.1940 C   0  0  0  0  0  1  0  0  0  0  0  0
  184.4550  178.8540  138.6700 C   0  0  0  0  0  1  0  0  0  0  0  0
  1 15  1  0  0  0  0
  1  9  1  0  0  0  0
  2  5  1  0  0  0  0
  2  3  1  0  0  0  0
  3  7  1  1  0  0  0
  4 11  1  0  0  0  0
  5 15  2  0  0  0  0
  6  1  2  0  0  0  0
  7  4  2  0  0  0  0
  8 12  2  0  0  0  0
  8 13  1  0  0  0  0
 12 17  1  0  0  0  0
 13  2  2  0  0  0  0
 14  8  1  0  0  0  0
 16  4  1  0  0  0  0
 17  5  1  0  0  0  0
 18 17  2  0  0  0  0
 18  6  1  0  0  0  0
 19 13  1  0  0  0  0
 19 10  1  0  0  0  0
 20 10  1  6  0  0  0
 20  3  1  0  0  0  0
 20 21  1  0  0  0  0
 21 16  1  0  0  0  0
 23 22  1  6  0  0  0
 23 14  1  0  0  0  0
 25 24  1  1  0  0  0
 25 23  1  0  0  0  0
 26 27  2  0  0  0  0
 27 25  1  0  0  0  0
 28 27  1  0  0  0  0
 28 29  1  0  0  0  0
 29 31  1  0  0  0  0
 30 29  1  0  0  0  0
M  END
>  <MODEL>
3

>  <REMARK>
 VINA RESULT:      -9.4      1.473      2.815
  Name = 
  5 active torsions:
  status: ('A' for Active; 'I' for Inactive)
    1  A    between atoms: C_1  and  C_24
    2  A    between atoms: C_9  and  C_22
    3  A    between atoms: C_9  and  N_23
    4  A    between atoms: C_19  and  C_22
    5  A    between atoms: C_19  and  C_24
                            x       y       z     vdW  Elec       q    Type
                         _______ _______ _______ _____ _____    ______ ____

>  <TORSDO>
F 5

$$$$
=
 OpenBabel10262419353D

 31 34  0  0  1  0  0  0  0  0999 V2000
  190.7280  177.6040  142.2900 C   0  0  0  0  0  0  0  0  0  0  0  0
  187.4630  177.9470  144.0910 C   0  0  0  0  0  0  0  0  0  0  0  0
  187.8700  178.0960  145.5570 C   0  0  2  0  0  3  0  0  0  0  0  0
  189.1000  176.8540  147.3330 C   0  0  0  0  0  0  0  0  0  0  0  0
  188.4260  177.8030  143.0610 C   0  0  0  0  0  0  0  0  0  0  0  0
  190.2870  177.5050  140.9690 C   0  0  0  0  0  3  0  0  0  0  0  0
  188.9000  177.0980  146.0260 C   0  0  0  0  0  3  0  0  0  0  0  0
  185.7280  178.0130  142.3730 C   0  0  0  0  0  0  0  0  0  0  0  0
  192.0530  177.5520  142.5660 F   0  0  0  0  0  0  0  0  0  0  0  0
  185.5870  178.9750  146.0330 C   0  0  0  0  0  2  0  0  0  0  0  0
  190.0550  175.9580  147.6920 F   0  0  0  0  0  0  0  0  0  0  0  0
  186.6750  177.8180  141.4180 N   0  0  0  0  0  0  0  0  0  0  0  0
  186.1020  178.1190  143.7220 C   0  0  0  0  0  0  0  0  0  0  0  0
  184.3510  178.1320  141.9970 N   0  0  0  0  0  2  0  0  0  0  0  0
  189.8040  177.7540  143.3270 C   0  0  0  0  0  3  0  0  0  0  0  0
  188.1970  177.4230  148.4090 C   0  0  0  0  0  2  0  0  0  0  0  0
  187.9930  177.7220  141.7170 C   0  0  0  0  0  0  0  0  0  0  0  0
  188.9210  177.5660  140.6840 C   0  0  0  0  0  3  0  0  0  0  0  0
  185.0280  178.3660  144.7550 C   0  0  0  0  0  2  0  0  0  0  0  0
  186.6860  178.0620  146.5240 C   0  0  2  0  0  3  0  0  0  0  0  0
  187.1950  178.4680  147.8980 C   0  0  0  0  0  2  0  0  0  0  0  0
  182.5770  177.2480  140.5940 C   0  0  0  0  0  1  0  0  0  0  0  0
  183.8930  178.0090  140.6180 C   0  0  1  0  0  3  0  0  0  0  0  0
  184.9410  179.8510  139.4890 O   0  0  0  0  0  1  0  0  0  0  0  0
  183.7210  179.3980  139.9990 C   0  0  1  0  0  3  0  0  0  0  0  0
  182.8870  178.7360  137.8860 O   0  0  0  0  0  0  0  0  0  0  0  0
  182.7000  179.3950  138.8990 C   0  0  0  0  0  0  0  0  0  0  0  0
  181.4790  180.2510  139.0210 C   0  0  0  0  0  2  0  0  0  0  0  0
  181.1450  180.9330  137.7040 C   0  0  0  0  0  3  0  0  0  0  0  0
  181.1620  182.4340  137.9020 C   0  0  0  0  0  1  0  0  0  0  0  0
  179.7660  180.5130  137.2340 C   0  0  0  0  0  1  0  0  0  0  0  0
  1  9  1  0  0  0  0
  1 15  1  0  0  0  0
  2  3  1  0  0  0  0
  3  7  1  1  0  0  0
  3 20  1  0  0  0  0
  4 11  1  0  0  0  0
  4 16  1  0  0  0  0
  5 15  2  0  0  0  0
  5  2  1  0  0  0  0
  6  1  2  0  0  0  0
  7  4  2  0  0  0  0
  8 13  1  0  0  0  0
 12 17  1  0  0  0  0
 12  8  2  0  0  0  0
 13  2  2  0  0  0  0
 13 19  1  0  0  0  0
 14  8  1  0  0  0  0
 17  5  1  0  0  0  0
 18  6  1  0  0  0  0
 18 17  2  0  0  0  0
 19 10  1  0  0  0  0
 20 10  1  6  0  0  0
 20 21  1  0  0  0  0
 21 16  1  0  0  0  0
 23 22  1  1  0  0  0
 23 14  1  0  0  0  0
 25 24  1  6  0  0  0
 25 23  1  0  0  0  0
 26 27  2  0  0  0  0
 27 28  1  0  0  0  0
 27 25  1  0  0  0  0
 29 30  1  0  0  0  0
 29 28  1  0  0  0  0
 31 29  1  0  0  0  0
M  END
>  <MODEL>
4

>  <REMARK>
 VINA RESULT:      -8.9      3.400      6.209
  Name = 
  5 active torsions:
  status: ('A' for Active; 'I' for Inactive)
    1  A    between atoms: C_1  and  C_24
    2  A    between atoms: C_9  and  C_22
    3  A    between atoms: C_9  and  N_23
    4  A    between atoms: C_19  and  C_22
    5  A    between atoms: C_19  and  C_24
                            x       y       z     vdW  Elec       q    Type
                         _______ _______ _______ _____ _____    ______ ____

>  <TORSDO>
F 5

$$$$
=
 OpenBabel10262419353D

 31 34  0  0  1  0  0  0  0  0999 V2000
  187.3450  178.5960  139.7860 C   0  0  0  0  0  0  0  0  0  0  0  0
  185.2420  178.5010  142.8830 C   0  0  0  0  0  0  0  0  0  0  0  0
  186.2660  178.4970  144.0180 C   0  0  2  0  0  3  0  0  0  0  0  0
  188.1700  177.1300  144.8680 C   0  0  0  0  0  0  0  0  0  0  0  0
  185.6380  178.5470  141.5220 C   0  0  0  0  0  0  0  0  0  0  0  0
  186.3560  178.6300  138.8010 C   0  0  0  0  0  3  0  0  0  0  0  0
  187.4010  177.5190  143.8350 C   0  0  0  0  0  3  0  0  0  0  0  0
  182.9190  178.6610  142.1470 C   0  0  0  0  0  0  0  0  0  0  0  0
  188.6530  178.5980  139.4320 F   0  0  0  0  0  0  0  0  0  0  0  0
  184.4400  179.1590  145.5800 C   0  0  0  0  0  2  0  0  0  0  0  0
  189.1870  176.2630  144.6350 F   0  0  0  0  0  0  0  0  0  0  0  0
  183.3340  178.6470  140.8530 N   0  0  0  0  0  0  0  0  0  0  0  0
  183.8600  178.6270  143.1880 C   0  0  0  0  0  0  0  0  0  0  0  0
  181.5200  178.7340  142.4450 N   0  0  0  0  0  2  0  0  0  0  0  0
  186.9880  178.5570  141.1360 C   0  0  0  0  0  3  0  0  0  0  0  0
  187.8470  177.5040  146.3000 C   0  0  0  0  0  2  0  0  0  0  0  0
  184.6460  178.6020  140.5160 C   0  0  0  0  0  0  0  0  0  0  0  0
  185.0090  178.6350  139.1670 C   0  0  0  0  0  3  0  0  0  0  0  0
  183.3670  178.6750  144.6150 C   0  0  0  0  0  2  0  0  0  0  0  0
  185.6460  178.2670  145.3960 C   0  0  2  0  0  3  0  0  0  0  0  0
  186.7180  178.5350  146.4400 C   0  0  0  0  0  2  0  0  0  0  0  0
  179.6690  177.4740  141.5050 C   0  0  0  0  0  1  0  0  0  0  0  0
  180.4900  178.7500  141.4140 C   0  0  1  0  0  3  0  0  0  0  0  0
  180.0530  180.7590  142.6540 O   0  0  0  0  0  1  0  0  0  0  0  0
  179.5930  179.9780  141.5910 C   0  0  1  0  0  3  0  0  0  0  0  0
  179.0720  181.9440  140.3810 O   0  0  0  0  0  0  0  0  0  0  0  0
  179.5490  180.8180  140.3480 C   0  0  0  0  0  0  0  0  0  0  0  0
  180.0350  180.2490  139.0530 C   0  0  0  0  0  2  0  0  0  0  0  0
  180.8580  181.2620  138.2730 C   0  0  0  0  0  3  0  0  0  0  0  0
  180.7850  180.9330  136.7970 C   0  0  0  0  0  1  0  0  0  0  0  0
  182.3060  181.2120  138.7190 C   0  0  0  0  0  1  0  0  0  0  0  0
  1 15  1  0  0  0  0
  2 13  2  0  0  0  0
  2  3  1  0  0  0  0
  3  7  1  6  0  0  0
  3 20  1  0  0  0  0
  4 16  1  0  0  0  0
  5  2  1  0  0  0  0
  6 18  1  0  0  0  0
  6  1  2  0  0  0  0
  7  4  2  0  0  0  0
  8 14  1  0  0  0  0
  8 13  1  0  0  0  0
  9  1  1  0  0  0  0
 11  4  1  0  0  0  0
 12  8  2  0  0  0  0
 13 19  1  0  0  0  0
 15  5  2  0  0  0  0
 16 21  1  0  0  0  0
 17 12  1  0  0  0  0
 17  5  1  0  0  0  0
 18 17  2  0  0  0  0
 19 10  1  0  0  0  0
 20 10  1  1  0  0  0
 20 21  1  0  0  0  0
 23 22  1  1  0  0  0
 23 25  1  0  0  0  0
 23 14  1  0  0  0  0
 25 24  1  1  0  0  0
 27 26  2  0  0  0  0
 27 25  1  0  0  0  0
 28 27  1  0  0  0  0
 29 31  1  0  0  0  0
 29 28  1  0  0  0  0
 30 29  1  0  0  0  0
M  END
>  <MODEL>
5

>  <REMARK>
 VINA RESULT:      -8.7      4.585      7.461
  Name = 
  5 active torsions:
  status: ('A' for Active; 'I' for Inactive)
    1  A    between atoms: C_1  and  C_24
    2  A    between atoms: C_9  and  C_22
    3  A    between atoms: C_9  and  N_23
    4  A    between atoms: C_19  and  C_22
    5  A    between atoms: C_19  and  C_24
                            x       y       z     vdW  Elec       q    Type
                         _______ _______ _______ _____ _____    ______ ____

>  <TORSDO>
F 5

$$$$
=
 OpenBabel10262419353D

 31 34  0  0  1  0  0  0  0  0999 V2000
  183.3180  178.6280  143.3970 C   0  0  0  0  0  0  0  0  0  0  0  0
  186.9640  177.9110  143.8640 C   0  0  0  0  0  0  0  0  0  0  0  0
  187.1120  177.7440  145.3760 C   0  0  2  0  0  3  0  0  0  0  0  0
  186.7530  179.0260  147.4830 C   0  0  0  0  0  0  0  0  0  0  0  0
  185.7090  178.1850  143.2630 C   0  0  0  0  0  0  0  0  0  0  0  0
  183.2500  178.7370  142.0080 C   0  0  0  0  0  3  0  0  0  0  0  0
  186.4330  178.8150  146.1940 C   0  0  0  0  0  3  0  0  0  0  0  0
  187.9290  177.7510  141.6250 C   0  0  0  0  0  0  0  0  0  0  0  0
  182.1990  178.7920  144.1450 F   0  0  0  0  0  0  0  0  0  0  0  0
  189.3080  176.6380  144.9730 C   0  0  0  0  0  2  0  0  0  0  0  0
  186.0920  179.9910  148.1710 F   0  0  0  0  0  0  0  0  0  0  0  0
  186.7220  178.0710  141.0890 N   0  0  0  0  0  0  0  0  0  0  0  0
  188.0690  177.6280  143.0170 C   0  0  0  0  0  0  0  0  0  0  0  0
  189.0520  177.5190  140.7670 N   0  0  0  0  0  2  0  0  0  0  0  0
  184.5380  178.3510  144.0190 C   0  0  0  0  0  3  0  0  0  0  0  0
  187.9250  178.3330  148.1480 C   0  0  0  0  0  2  0  0  0  0  0  0
  185.6240  178.2780  141.8540 C   0  0  0  0  0  0  0  0  0  0  0  0
  184.4010  178.5600  141.2370 C   0  0  0  0  0  3  0  0  0  0  0  0
  189.4170  177.2420  143.5800 C   0  0  0  0  0  2  0  0  0  0  0  0
  188.5640  177.6300  145.8370 C   0  0  2  0  0  3  0  0  0  0  0  0
  188.5580  177.2200  147.3010 C   0  0  0  0  0  2  0  0  0  0  0  0
  189.0240  179.1260  138.9470 C   0  0  0  0  0  1  0  0  0  0  0  0
  188.9810  177.6530  139.3170 C   0  0  1  0  0  3  0  0  0  0  0  0
  190.6140  175.9050  139.5260 O   0  0  0  0  0  1  0  0  0  0  0  0
  190.1460  176.9020  138.6670 C   0  0  1  0  0  3  0  0  0  0  0  0
  190.4870  176.3450  136.3930 O   0  0  0  0  0  0  0  0  0  0  0  0
  189.7460  176.2770  137.3620 C   0  0  0  0  0  0  0  0  0  0  0  0
  188.4060  175.6230  137.2360 C   0  0  0  0  0  2  0  0  0  0  0  0
  187.4840  176.4150  136.3230 C   0  0  0  0  0  3  0  0  0  0  0  0
  186.1620  176.6420  137.0260 C   0  0  0  0  0  1  0  0  0  0  0  0
  187.2340  175.6490  135.0390 C   0  0  0  0  0  1  0  0  0  0  0  0
  1 15  1  0  0  0  0
  1  9  1  0  0  0  0
  2  3  1  0  0  0  0
  3 20  1  0  0  0  0
  3  7  1  1  0  0  0
  4 16  1  0  0  0  0
  4 11  1  0  0  0  0
  5  2  1  0  0  0  0
  5 15  2  0  0  0  0
  6  1  2  0  0  0  0
  7  4  2  0  0  0  0
  8 13  1  0  0  0  0
 12  8  2  0  0  0  0
 12 17  1  0  0  0  0
 13 19  1  0  0  0  0
 13  2  2  0  0  0  0
 14  8  1  0  0  0  0
 17  5  1  0  0  0  0
 18 17  2  0  0  0  0
 18  6  1  0  0  0  0
 19 10  1  0  0  0  0
 20 10  1  6  0  0  0
 20 21  1  0  0  0  0
 21 16  1  0  0  0  0
 23 22  1  1  0  0  0
 23 14  1  0  0  0  0
 25 23  1  0  0  0  0
 25 24  1  1  0  0  0
 26 27  2  0  0  0  0
 27 25  1  0  0  0  0
 28 27  1  0  0  0  0
 29 30  1  0  0  0  0
 29 28  1  0  0  0  0
 31 29  1  0  0  0  0
M  END
>  <MODEL>
6

>  <REMARK>
 VINA RESULT:      -8.7      1.715      2.788
  Name = 
  5 active torsions:
  status: ('A' for Active; 'I' for Inactive)
    1  A    between atoms: C_1  and  C_24
    2  A    between atoms: C_9  and  C_22
    3  A    between atoms: C_9  and  N_23
    4  A    between atoms: C_19  and  C_22
    5  A    between atoms: C_19  and  C_24
                            x       y       z     vdW  Elec       q    Type
                         _______ _______ _______ _____ _____    ______ ____

>  <TORSDO>
F 5

$$$$
=
 OpenBabel10262419353D

 31 34  0  0  1  0  0  0  0  0999 V2000
  182.7240  178.6520  143.1090 C   0  0  0  0  0  0  0  0  0  0  0  0
  186.4310  178.1270  143.1930 C   0  0  0  0  0  0  0  0  0  0  0  0
  186.7170  177.7830  144.6540 C   0  0  2  0  0  3  0  0  0  0  0  0
  186.4690  178.7650  146.9320 C   0  0  0  0  0  0  0  0  0  0  0  0
  185.1150  178.3900  142.7320 C   0  0  0  0  0  0  0  0  0  0  0  0
  182.5310  178.9290  141.7550 C   0  0  0  0  0  3  0  0  0  0  0  0
  186.0520  178.6960  145.6550 C   0  0  0  0  0  3  0  0  0  0  0  0
  187.2070  178.3130  140.8840 C   0  0  0  0  0  0  0  0  0  0  0  0
  181.6660  178.6470  143.9560 F   0  0  0  0  0  0  0  0  0  0  0  0
  188.9290  176.8850  143.9410 C   0  0  0  0  0  2  0  0  0  0  0  0
  185.8170  179.5920  147.7880 F   0  0  0  0  0  0  0  0  0  0  0  0
  185.9430  178.6160  140.4890 N   0  0  0  0  0  0  0  0  0  0  0  0
  187.4730  178.0260  142.2330 C   0  0  0  0  0  0  0  0  0  0  0  0
  188.2630  178.2640  139.9180 N   0  0  0  0  0  2  0  0  0  0  0  0
  184.0060  178.3820  143.5930 C   0  0  0  0  0  3  0  0  0  0  0  0
  187.7310  178.0750  147.4070 C   0  0  0  0  0  2  0  0  0  0  0  0
  184.9040  178.6510  141.3590 C   0  0  0  0  0  0  0  0  0  0  0  0
  183.6200  178.9260  140.8810 C   0  0  0  0  0  3  0  0  0  0  0  0
  188.8840  177.6630  142.6340 C   0  0  0  0  0  2  0  0  0  0  0  0
  188.2080  177.7090  144.9810 C   0  0  2  0  0  3  0  0  0  0  0  0
  188.3500  177.1200  146.3760 C   0  0  0  0  0  2  0  0  0  0  0  0
  189.3640  179.0850  137.9150 C   0  0  0  0  0  1  0  0  0  0  0  0
  188.0610  178.5730  138.5070 C   0  0  1  0  0  3  0  0  0  0  0  0
  186.5140  177.6380  136.9260 O   0  0  0  0  0  1  0  0  0  0  0  0
  187.5880  177.3220  137.7630 C   0  0  1  0  0  3  0  0  0  0  0  0
  188.9310  177.1430  135.8230 O   0  0  0  0  0  0  0  0  0  0  0  0
  188.6870  176.7140  136.9410 C   0  0  0  0  0  0  0  0  0  0  0  0
  189.4440  175.5390  137.4730 C   0  0  0  0  0  2  0  0  0  0  0  0
  190.9080  175.8790  137.7060 C   0  0  0  0  0  3  0  0  0  0  0  0
  191.7500  174.6420  137.4720 C   0  0  0  0  0  1  0  0  0  0  0  0
  191.1130  176.3530  139.1310 C   0  0  0  0  0  1  0  0  0  0  0  0
  1 15  1  0  0  0  0
  1  9  1  0  0  0  0
  2  3  1  0  0  0  0
  3 20  1  0  0  0  0
  3  7  1  1  0  0  0
  4 16  1  0  0  0  0
  4 11  1  0  0  0  0
  5  2  1  0  0  0  0
  5 15  2  0  0  0  0
  6  1  2  0  0  0  0
  7  4  2  0  0  0  0
  8 13  1  0  0  0  0
 12  8  2  0  0  0  0
 12 17  1  0  0  0  0
 13 19  1  0  0  0  0
 13  2  2  0  0  0  0
 14  8  1  0  0  0  0
 17  5  1  0  0  0  0
 18 17  2  0  0  0  0
 18  6  1  0  0  0  0
 19 10  1  0  0  0  0
 20 10  1  6  0  0  0
 20 21  1  0  0  0  0
 21 16  1  0  0  0  0
 23 22  1  6  0  0  0
 23 14  1  0  0  0  0
 25 24  1  6  0  0  0
 25 23  1  0  0  0  0
 26 27  2  0  0  0  0
 27 28  1  0  0  0  0
 27 25  1  0  0  0  0
 28 29  1  0  0  0  0
 29 31  1  0  0  0  0
 30 29  1  0  0  0  0
M  END
>  <MODEL>
7

>  <REMARK>
 VINA RESULT:      -8.7      1.508      2.211
  Name = 
  5 active torsions:
  status: ('A' for Active; 'I' for Inactive)
    1  A    between atoms: C_1  and  C_24
    2  A    between atoms: C_9  and  C_22
    3  A    between atoms: C_9  and  N_23
    4  A    between atoms: C_19  and  C_22
    5  A    between atoms: C_19  and  C_24
                            x       y       z     vdW  Elec       q    Type
                         _______ _______ _______ _____ _____    ______ ____

>  <TORSDO>
F 5

$$$$
=
 OpenBabel10262419353D

 31 34  0  0  1  0  0  0  0  0999 V2000
  185.0020  178.8390  142.3800 C   0  0  0  0  0  0  0  0  0  0  0  0
  188.2330  177.8100  140.7910 C   0  0  0  0  0  0  0  0  0  0  0  0
  188.0950  178.2850  139.3440 C   0  0  2  0  0  3  0  0  0  0  0  0
  186.6270  177.9530  137.3570 C   0  0  0  0  0  0  0  0  0  0  0  0
  187.2080  178.0240  141.7470 C   0  0  0  0  0  0  0  0  0  0  0  0
  185.2080  178.4070  143.6910 C   0  0  0  0  0  3  0  0  0  0  0  0
  186.7790  177.9370  138.6940 C   0  0  0  0  0  3  0  0  0  0  0  0
  189.6160  176.8790  142.5760 C   0  0  0  0  0  0  0  0  0  0  0  0
  183.8360  179.4400  142.0410 F   0  0  0  0  0  0  0  0  0  0  0  0
  190.5630  178.0450  139.0990 C   0  0  0  0  0  2  0  0  0  0  0  0
  185.4130  177.6490  136.8340 F   0  0  0  0  0  0  0  0  0  0  0  0
  188.5900  177.0480  143.4510 N   0  0  0  0  0  0  0  0  0  0  0  0
  189.4760  177.2890  141.2400 C   0  0  0  0  0  0  0  0  0  0  0  0
  190.8480  176.3040  143.0250 N   0  0  0  0  0  2  0  0  0  0  0  0
  185.9950  178.6500  141.4160 C   0  0  0  0  0  3  0  0  0  0  0  0
  187.7980  178.1460  136.4140 C   0  0  0  0  0  2  0  0  0  0  0  0
  187.4130  177.6090  143.0830 C   0  0  0  0  0  0  0  0  0  0  0  0
  186.4130  177.7950  144.0420 C   0  0  0  0  0  3  0  0  0  0  0  0
  190.6460  177.1150  140.3010 C   0  0  0  0  0  2  0  0  0  0  0  0
  189.2270  177.8060  138.4360 C   0  0  2  0  0  3  0  0  0  0  0  0
  189.1060  178.5450  137.1120 C   0  0  0  0  0  2  0  0  0  0  0  0
  191.9700  174.6250  144.3750 C   0  0  0  0  0  1  0  0  0  0  0  0
  191.0530  175.8370  144.3910 C   0  0  1  0  0  3  0  0  0  0  0  0
  191.2840  178.2020  144.7310 O   0  0  0  0  0  1  0  0  0  0  0  0
  191.6600  176.9570  145.2400 C   0  0  1  0  0  3  0  0  0  0  0  0
  192.0500  176.9780  147.5740 O   0  0  0  0  0  0  0  0  0  0  0  0
  191.2300  176.8630  146.6750 C   0  0  0  0  0  0  0  0  0  0  0  0
  189.8000  176.5660  147.0000 C   0  0  0  0  0  2  0  0  0  0  0  0
  189.0160  177.8390  147.2770 C   0  0  0  0  0  3  0  0  0  0  0  0
  189.2300  178.2520  148.7170 C   0  0  0  0  0  1  0  0  0  0  0  0
  187.5360  177.6020  147.0460 C   0  0  0  0  0  1  0  0  0  0  0  0
  1  6  1  0  0  0  0
  2 13  2  0  0  0  0
  2  5  1  0  0  0  0
  3  7  1  6  0  0  0
  3  2  1  0  0  0  0
  4  7  2  0  0  0  0
  5 17  2  0  0  0  0
  6 18  2  0  0  0  0
  8 14  1  0  0  0  0
  8 12  2  0  0  0  0
  9  1  1  0  0  0  0
 10 19  1  0  0  0  0
 11  4  1  0  0  0  0
 13  8  1  0  0  0  0
 14 23  1  0  0  0  0
 15  5  1  0  0  0  0
 15  1  2  0  0  0  0
 16 21  1  0  0  0  0
 16  4  1  0  0  0  0
 17 12  1  0  0  0  0
 17 18  1  0  0  0  0
 19 13  1  0  0  0  0
 20 21  1  6  0  0  0
 20 10  1  0  0  0  0
 20  3  1  0  0  0  0
 23 22  1  6  0  0  0
 23 25  1  0  0  0  0
 25 24  1  6  0  0  0
 25 27  1  0  0  0  0
 27 28  1  0  0  0  0
 27 26  2  0  0  0  0
 28 29  1  0  0  0  0
 29 30  1  0  0  0  0
 31 29  1  0  0  0  0
M  END
>  <MODEL>
8

>  <REMARK>
 VINA RESULT:      -8.6      3.526      7.316
  Name = 
  5 active torsions:
  status: ('A' for Active; 'I' for Inactive)
    1  A    between atoms: C_1  and  C_24
    2  A    between atoms: C_9  and  C_22
    3  A    between atoms: C_9  and  N_23
    4  A    between atoms: C_19  and  C_22
    5  A    between atoms: C_19  and  C_24
                            x       y       z     vdW  Elec       q    Type
                         _______ _______ _______ _____ _____    ______ ____

>  <TORSDO>
F 5

$$$$
=
 OpenBabel10262419353D

 31 34  0  0  1  0  0  0  0  0999 V2000
  187.4230  178.0980  136.7860 C   0  0  0  0  0  0  0  0  0  0  0  0
  186.2750  178.3850  140.3390 C   0  0  0  0  0  0  0  0  0  0  0  0
  184.7510  178.4280  140.2270 C   0  0  2  0  0  3  0  0  0  0  0  0
  182.9510  179.8010  139.1840 C   0  0  0  0  0  0  0  0  0  0  0  0
  187.1040  178.2640  139.1950 C   0  0  0  0  0  0  0  0  0  0  0  0
  188.8050  178.0320  136.9640 C   0  0  0  0  0  3  0  0  0  0  0  0
  184.2260  179.3750  139.1760 C   0  0  0  0  0  3  0  0  0  0  0  0
  188.2790  178.2300  141.7280 C   0  0  0  0  0  0  0  0  0  0  0  0
  186.8980  178.0540  135.5370 F   0  0  0  0  0  0  0  0  0  0  0  0
  184.6230  177.8780  142.6540 C   0  0  0  0  0  2  0  0  0  0  0  0
  182.5340  180.6370  138.2000 F   0  0  0  0  0  0  0  0  0  0  0  0
  189.0440  178.1720  140.6060 N   0  0  0  0  0  0  0  0  0  0  0  0
  186.8800  178.2990  141.6220 C   0  0  0  0  0  0  0  0  0  0  0  0
  188.9000  178.1970  143.0170 N   0  0  0  0  0  2  0  0  0  0  0  0
  186.5790  178.2100  137.8930 C   0  0  0  0  0  3  0  0  0  0  0  0
  182.0090  179.5050  140.3340 C   0  0  0  0  0  2  0  0  0  0  0  0
  188.5050  178.1760  139.3630 C   0  0  0  0  0  0  0  0  0  0  0  0
  189.3450  178.0690  138.2510 C   0  0  0  0  0  3  0  0  0  0  0  0
  186.0570  178.3320  142.8870 C   0  0  0  0  0  2  0  0  0  0  0  0
  184.0520  178.7370  141.5500 C   0  0  2  0  0  3  0  0  0  0  0  0
  182.5620  178.5020  141.3570 C   0  0  0  0  0  2  0  0  0  0  0  0
  190.7970  179.3780  143.9690 C   0  0  0  0  0  1  0  0  0  0  0  0
  190.3460  178.1480  143.1990 C   0  0  1  0  0  3  0  0  0  0  0  0
  192.0220  176.4710  143.5830 O   0  0  0  0  0  1  0  0  0  0  0  0
  190.7350  176.8720  143.9500 C   0  0  1  0  0  3  0  0  0  0  0  0
  191.6800  177.4420  146.0430 O   0  0  0  0  0  0  0  0  0  0  0  0
  190.6870  177.0670  145.4380 C   0  0  0  0  0  0  0  0  0  0  0  0
  189.4330  176.7400  146.1860 C   0  0  0  0  0  2  0  0  0  0  0  0
  188.7380  177.9970  146.6820 C   0  0  0  0  0  3  0  0  0  0  0  0
  188.9370  178.1200  148.1780 C   0  0  0  0  0  1  0  0  0  0  0  0
  187.2520  177.9240  146.3870 C   0  0  0  0  0  1  0  0  0  0  0  0
  1  6  2  0  0  0  0
  1 15  1  0  0  0  0
  2 13  2  0  0  0  0
  3  7  1  6  0  0  0
  3  2  1  0  0  0  0
  3 20  1  0  0  0  0
  4 16  1  0  0  0  0
  5 17  1  0  0  0  0
  5  2  1  0  0  0  0
  6 18  1  0  0  0  0
  7  4  2  0  0  0  0
  8 14  1  0  0  0  0
  9  1  1  0  0  0  0
 10 19  1  0  0  0  0
 11  4  1  0  0  0  0
 12  8  2  0  0  0  0
 13  8  1  0  0  0  0
 13 19  1  0  0  0  0
 14 23  1  0  0  0  0
 15  5  2  0  0  0  0
 16 21  1  0  0  0  0
 17 12  1  0  0  0  0
 18 17  2  0  0  0  0
 20 21  1  6  0  0  0
 20 10  1  0  0  0  0
 23 25  1  0  0  0  0
 23 22  1  1  0  0  0
 25 24  1  6  0  0  0
 25 27  1  0  0  0  0
 27 26  2  0  0  0  0
 27 28  1  0  0  0  0
 28 29  1  0  0  0  0
 29 30  1  0  0  0  0
 31 29  1  0  0  0  0
M  END
>  <MODEL>
9

>  <REMARK>
 VINA RESULT:      -8.5      3.899      7.887
  Name = 
  5 active torsions:
  status: ('A' for Active; 'I' for Inactive)
    1  A    between atoms: C_1  and  C_24
    2  A    between atoms: C_9  and  C_22
    3  A    between atoms: C_9  and  N_23
    4  A    between atoms: C_19  and  C_22
    5  A    between atoms: C_19  and  C_24
                            x       y       z     vdW  Elec       q    Type
                         _______ _______ _______ _____ _____    ______ ____

>  <TORSDO>
F 5

$$$$
