=
 OpenBabel10262421303D

 32 37  0  0  1  0  0  0  0  0999 V2000
  185.3060  178.8830  141.4680 C   0  0  1  0  0  3  0  0  0  0  0  0
  180.9630  177.7020  139.9740 C   0  0  0  0  0  2  0  0  0  0  0  0
  181.9670  176.5690  140.1330 C   0  0  0  0  0  2  0  0  0  0  0  0
  187.3670  178.4910  140.0410 C   0  0  2  0  0  3  0  0  0  0  0  0
  187.8540  178.2390  138.6460 C   0  0  0  0  0  0  0  0  0  0  0  0
  185.2670  178.2800  143.8800 C   0  0  0  0  0  0  0  0  0  0  0  0
  183.1860  178.9520  142.8240 C   0  0  0  0  0  3  0  0  0  0  0  0
  187.7490  177.8920  136.3490 C   0  0  0  0  0  0  0  0  0  0  0  0
  181.5330  179.0190  140.5130 C   0  0  0  0  0  2  0  0  0  0  0  0
  183.8270  178.8550  141.5370 N   0  0  0  0  0  0  0  0  0  0  0  0
  183.0600  179.1740  140.3230 C   0  0  1  0  0  3  0  0  0  0  0  0
  185.0570  178.5720  138.9540 C   0  0  2  0  0  3  0  0  0  0  0  0
  189.1280  178.0500  136.4730 C   0  0  0  0  0  3  0  0  0  0  0  0
  183.8550  178.6830  143.9430 C   0  0  0  0  0  3  0  0  0  0  0  0
  189.4400  178.3360  138.1070 S   0  0  0  0  0  0  0  0  0  0  0  0
  183.2290  176.8320  139.3060 C   0  0  0  0  0  2  0  0  0  0  0  0
  183.5610  178.3330  139.1440 C   0  0  1  0  0  3  0  0  0  0  0  0
  185.5590  177.8610  137.6930 C   0  0  0  0  0  2  0  0  0  0  0  0
  185.9280  178.3170  142.7220 C   0  0  0  0  0  3  0  0  0  0  0  0
  188.1220  177.7270  140.9340 O   0  0  0  0  0  1  0  0  0  0  0  0
  187.1000  177.6210  135.0350 C   0  0  0  0  0  1  0  0  0  0  0  0
  185.8620  178.1710  140.2140 C   0  0  2  0  0  3  0  0  0  0  0  0
  187.0390  178.0190  137.5520 C   0  0  0  0  0  0  0  0  0  0  0  0
  185.9390  177.7490  145.0970 C   0  0  0  0  0  2  0  0  0  0  0  0
  187.3530  177.3110  144.7650 C   0  0  0  0  0  2  0  0  0  0  0  0
  188.2950  177.7540  145.8650 C   0  0  2  0  0  3  0  0  0  0  0  0
  189.4740  178.2610  145.2860 O   0  0  0  0  0  0  0  0  0  0  0  0
  189.5380  176.9560  145.8080 C   0  0  1  0  0  3  0  0  0  0  0  0
  190.2370  176.9910  147.1540 C   0  0  0  0  0  2  0  0  0  0  0  0
  191.6150  176.5550  147.0070 N   0  0  0  0  0  0  0  0  0  0  0  0
  192.4240  176.4730  148.1160 O   0  0  0  0  0  0  0  0  0  0  0  0
  192.0040  176.0830  145.9210 O   0  0  0  0  0  0  0  0  0  0  0  0
  1 10  1  0  0  0  0
  1 19  1  1  0  0  0
  2  3  1  0  0  0  0
  2  9  1  0  0  0  0
  4 22  1  0  0  0  0
  4 20  1  1  0  0  0
  5  4  1  0  0  0  0
  6 14  1  0  0  0  0
  6 24  1  0  0  0  0
  7 14  2  0  0  0  0
  8 13  2  0  0  0  0
  8 23  1  0  0  0  0
 10  7  1  0  0  0  0
 11  9  1  1  0  0  0
 11 10  1  0  0  0  0
 12 18  1  6  0  0  0
 12 17  1  0  0  0  0
 12 22  1  0  0  0  0
 13 15  1  0  0  0  0
 15  5  1  0  0  0  0
 16  3  1  0  0  0  0
 17 16  1  1  0  0  0
 17 11  1  0  0  0  0
 19  6  2  0  0  0  0
 21  8  1  0  0  0  0
 22  1  1  0  0  0  0
 23 18  1  0  0  0  0
 23  5  2  0  0  0  0
 25 24  1  0  0  0  0
 25 26  1  0  0  0  0
 27 28  1  0  0  0  0
 27 26  1  0  0  0  0
 28 26  1  0  0  0  0
 28 29  1  0  0  0  0
 30 29  1  0  0  0  0
 30 31  2  0  0  0  0
 32 30  2  0  0  0  0
M  END
>  <MODEL>
1

>  <REMARK>
 VINA RESULT:      -8.7      0.000      0.000
  Name = 
  5 active torsions:
  status: ('A' for Active; 'I' for Inactive)
    1  A    between atoms: N_1  and  C_10
    2  A    between atoms: C_2  and  C_19
    3  A    between atoms: C_8  and  C_23
    4  A    between atoms: C_10  and  C_24
    5  A    between atoms: C_19  and  C_23
                            x       y       z     vdW  Elec       q    Type
                         _______ _______ _______ _____ _____    ______ ____

>  <TORSDO>
F 5

$$$$
=
 OpenBabel10262421303D

 32 37  0  0  1  0  0  0  0  0999 V2000
  187.8380  177.2190  142.4520 C   0  0  1  0  0  3  0  0  0  0  0  0
  191.5340  177.5440  145.4070 C   0  0  0  0  0  2  0  0  0  0  0  0
  191.2570  178.7480  144.5170 C   0  0  0  0  0  2  0  0  0  0  0  0
  188.1240  177.3220  139.9330 C   0  0  2  0  0  3  0  0  0  0  0  0
  189.1060  177.1770  138.8100 C   0  0  0  0  0  0  0  0  0  0  0  0
  186.0620  178.5190  143.6080 C   0  0  0  0  0  0  0  0  0  0  0  0
  187.7380  177.3970  144.9610 C   0  0  0  0  0  3  0  0  0  0  0  0
  191.1460  176.8030  137.7560 C   0  0  0  0  0  0  0  0  0  0  0  0
  190.4160  176.5020  145.2810 C   0  0  0  0  0  2  0  0  0  0  0  0
  188.5100  177.1490  143.7700 N   0  0  0  0  0  0  0  0  0  0  0  0
  189.7830  176.4190  143.8740 C   0  0  1  0  0  3  0  0  0  0  0  0
  190.1140  176.7330  141.4210 C   0  0  2  0  0  3  0  0  0  0  0  0
  190.3250  176.7990  136.6300 C   0  0  0  0  0  3  0  0  0  0  0  0
  186.5760  178.0440  144.9010 C   0  0  0  0  0  3  0  0  0  0  0  0
  188.7470  177.0470  137.1760 S   0  0  0  0  0  0  0  0  0  0  0  0
  191.2410  178.3480  143.0380 C   0  0  0  0  0  2  0  0  0  0  0  0
  190.7590  176.9000  142.7950 C   0  0  1  0  0  3  0  0  0  0  0  0
  191.1190  177.0660  140.3130 C   0  0  0  0  0  2  0  0  0  0  0  0
  186.6790  178.1860  142.4740 C   0  0  0  0  0  3  0  0  0  0  0  0
  187.2550  178.3780  139.6470 O   0  0  0  0  0  1  0  0  0  0  0  0
  192.6200  176.6120  137.6600 C   0  0  0  0  0  1  0  0  0  0  0  0
  188.8110  177.5600  141.3000 C   0  0  2  0  0  3  0  0  0  0  0  0
  190.4670  176.9910  138.9690 C   0  0  0  0  0  0  0  0  0  0  0  0
  184.8980  179.4450  143.5720 C   0  0  0  0  0  2  0  0  0  0  0  0
  183.6110  178.6610  143.4000 C   0  0  0  0  0  2  0  0  0  0  0  0
  182.8180  179.2300  142.2410 C   0  0  2  0  0  3  0  0  0  0  0  0
  181.7750  178.3440  141.9160 O   0  0  0  0  0  0  0  0  0  0  0  0
  182.9060  178.3190  141.0810 C   0  0  1  0  0  3  0  0  0  0  0  0
  182.5990  179.0780  139.8030 C   0  0  0  0  0  2  0  0  0  0  0  0
  183.8010  179.1960  138.9970 N   0  0  0  0  0  0  0  0  0  0  0  0
  184.0680  178.2540  138.0310 O   0  0  0  0  0  0  0  0  0  0  0  0
  184.4860  180.2360  139.0520 O   0  0  0  0  0  0  0  0  0  0  0  0
  1 19  1  1  0  0  0
  1 10  1  0  0  0  0
  3  2  1  0  0  0  0
  4 20  1  6  0  0  0
  4 22  1  0  0  0  0
  5 23  2  0  0  0  0
  5  4  1  0  0  0  0
  6 14  1  0  0  0  0
  8 23  1  0  0  0  0
  9  2  1  0  0  0  0
 10 11  1  0  0  0  0
 10  7  1  0  0  0  0
 11  9  1  1  0  0  0
 12 18  1  6  0  0  0
 12 17  1  0  0  0  0
 13 15  1  0  0  0  0
 13  8  2  0  0  0  0
 14  7  2  0  0  0  0
 15  5  1  0  0  0  0
 16  3  1  0  0  0  0
 17 16  1  1  0  0  0
 17 11  1  0  0  0  0
 19  6  2  0  0  0  0
 21  8  1  0  0  0  0
 22 12  1  0  0  0  0
 22  1  1  0  0  0  0
 23 18  1  0  0  0  0
 24  6  1  0  0  0  0
 25 24  1  0  0  0  0
 26 25  1  0  0  0  0
 27 26  1  0  0  0  0
 28 27  1  0  0  0  0
 28 26  1  0  0  0  0
 29 28  1  0  0  0  0
 30 32  2  0  0  0  0
 30 29  1  0  0  0  0
 31 30  2  0  0  0  0
M  END
>  <MODEL>
2

>  <REMARK>
 VINA RESULT:      -8.5      3.215      7.000
  Name = 
  5 active torsions:
  status: ('A' for Active; 'I' for Inactive)
    1  A    between atoms: N_1  and  C_10
    2  A    between atoms: C_2  and  C_19
    3  A    between atoms: C_8  and  C_23
    4  A    between atoms: C_10  and  C_24
    5  A    between atoms: C_19  and  C_23
                            x       y       z     vdW  Elec       q    Type
                         _______ _______ _______ _____ _____    ______ ____

>  <TORSDO>
F 5

$$$$
=
 OpenBabel10262421303D

 32 37  0  0  1  0  0  0  0  0999 V2000
  187.7950  177.2890  142.2850 C   0  0  1  0  0  3  0  0  0  0  0  0
  191.3460  177.5960  145.4150 C   0  0  0  0  0  2  0  0  0  0  0  0
  191.1330  178.7920  144.4960 C   0  0  0  0  0  2  0  0  0  0  0  0
  188.2060  177.3530  139.7820 C   0  0  2  0  0  3  0  0  0  0  0  0
  189.2400  177.1770  138.7110 C   0  0  0  0  0  0  0  0  0  0  0  0
  185.9860  178.6330  143.3350 C   0  0  0  0  0  0  0  0  0  0  0  0
  187.5740  177.5030  144.7840 C   0  0  0  0  0  3  0  0  0  0  0  0
  191.3230  176.7550  137.7650 C   0  0  0  0  0  0  0  0  0  0  0  0
  190.2180  176.5700  145.2480 C   0  0  0  0  0  2  0  0  0  0  0  0
  188.4000  177.2270  143.6350 N   0  0  0  0  0  0  0  0  0  0  0  0
  189.6540  176.4770  143.8120 C   0  0  1  0  0  3  0  0  0  0  0  0
  190.1110  176.7520  141.3750 C   0  0  2  0  0  3  0  0  0  0  0  0
  190.5580  176.7490  136.5990 C   0  0  0  0  0  3  0  0  0  0  0  0
  186.4280  178.1680  144.6570 C   0  0  0  0  0  3  0  0  0  0  0  0
  188.9600  177.0300  137.0630 S   0  0  0  0  0  0  0  0  0  0  0  0
  191.1830  178.3710  143.0240 C   0  0  0  0  0  2  0  0  0  0  0  0
  190.6890  176.9280  142.7760 C   0  0  1  0  0  3  0  0  0  0  0  0
  191.1740  177.0540  140.3130 C   0  0  0  0  0  2  0  0  0  0  0  0
  186.6520  178.2740  142.2370 C   0  0  0  0  0  3  0  0  0  0  0  0
  187.3700  178.4180  139.4400 O   0  0  0  0  0  1  0  0  0  0  0  0
  192.7960  176.5390  137.7440 C   0  0  0  0  0  1  0  0  0  0  0  0
  188.8290  177.5980  141.1780 C   0  0  2  0  0  3  0  0  0  0  0  0
  190.5880  176.9710  138.9400 C   0  0  0  0  0  0  0  0  0  0  0  0
  184.8410  179.5770  143.2290 C   0  0  0  0  0  2  0  0  0  0  0  0
  183.9130  179.4090  144.4180 C   0  0  0  0  0  2  0  0  0  0  0  0
  182.7520  178.5140  144.0350 C   0  0  2  0  0  3  0  0  0  0  0  0
  182.3890  178.7750  142.7000 O   0  0  0  0  0  0  0  0  0  0  0  0
  181.5750  179.3420  143.6970 C   0  0  1  0  0  3  0  0  0  0  0  0
  180.3080  178.5190  143.8330 C   0  0  0  0  0  2  0  0  0  0  0  0
  179.5110  178.6330  142.6250 N   0  0  0  0  0  0  0  0  0  0  0  0
  179.3040  179.8690  142.0600 O   0  0  0  0  0  0  0  0  0  0  0  0
  179.1760  177.6060  142.0030 O   0  0  0  0  0  0  0  0  0  0  0  0
  1 19  1  1  0  0  0
  1 10  1  0  0  0  0
  3  2  1  0  0  0  0
  4 20  1  6  0  0  0
  4 22  1  0  0  0  0
  5 23  2  0  0  0  0
  5  4  1  0  0  0  0
  6 14  1  0  0  0  0
  8 23  1  0  0  0  0
  9  2  1  0  0  0  0
 10 11  1  0  0  0  0
 10  7  1  0  0  0  0
 11  9  1  1  0  0  0
 12 18  1  6  0  0  0
 12 17  1  0  0  0  0
 13 15  1  0  0  0  0
 13  8  2  0  0  0  0
 14  7  2  0  0  0  0
 15  5  1  0  0  0  0
 16  3  1  0  0  0  0
 17 16  1  1  0  0  0
 17 11  1  0  0  0  0
 19  6  2  0  0  0  0
 21  8  1  0  0  0  0
 22 12  1  0  0  0  0
 22  1  1  0  0  0  0
 23 18  1  0  0  0  0
 24  6  1  0  0  0  0
 24 25  1  0  0  0  0
 26 25  1  0  0  0  0
 27 28  1  0  0  0  0
 27 26  1  0  0  0  0
 28 29  1  0  0  0  0
 28 26  1  0  0  0  0
 30 29  1  0  0  0  0
 31 30  2  0  0  0  0
 32 30  2  0  0  0  0
M  END
>  <MODEL>
3

>  <REMARK>
 VINA RESULT:      -8.4      3.709      7.235
  Name = 
  5 active torsions:
  status: ('A' for Active; 'I' for Inactive)
    1  A    between atoms: N_1  and  C_10
    2  A    between atoms: C_2  and  C_19
    3  A    between atoms: C_8  and  C_23
    4  A    between atoms: C_10  and  C_24
    5  A    between atoms: C_19  and  C_23
                            x       y       z     vdW  Elec       q    Type
                         _______ _______ _______ _____ _____    ______ ____

>  <TORSDO>
F 5

$$$$
=
 OpenBabel10262421303D

 32 37  0  0  1  0  0  0  0  0999 V2000
  188.3040  178.3360  141.0850 C   0  0  1  0  0  3  0  0  0  0  0  0
  191.6850  176.1210  143.5670 C   0  0  0  0  0  2  0  0  0  0  0  0
  190.4450  175.3090  143.2160 C   0  0  0  0  0  2  0  0  0  0  0  0
  185.9690  178.6820  142.0140 C   0  0  2  0  0  3  0  0  0  0  0  0
  185.1470  178.7130  143.2670 C   0  0  0  0  0  0  0  0  0  0  0  0
  188.6670  177.5200  138.7650 C   0  0  0  0  0  0  0  0  0  0  0  0
  190.5840  177.6720  140.2480 C   0  0  0  0  0  3  0  0  0  0  0  0
  184.6600  178.5710  145.5370 C   0  0  0  0  0  0  0  0  0  0  0  0
  191.6580  177.4880  142.8730 C   0  0  0  0  0  2  0  0  0  0  0  0
  189.6880  177.8840  141.3570 N   0  0  0  0  0  0  0  0  0  0  0  0
  190.2430  178.0860  142.7050 C   0  0  1  0  0  3  0  0  0  0  0  0
  187.9170  178.2090  143.5970 C   0  0  2  0  0  3  0  0  0  0  0  0
  183.4490  179.1020  145.0960 C   0  0  0  0  0  3  0  0  0  0  0  0
  190.1150  177.4980  139.0150 C   0  0  0  0  0  3  0  0  0  0  0  0
  183.5860  179.3070  143.4270 S   0  0  0  0  0  0  0  0  0  0  0  0
  189.1740  175.9970  143.7240 C   0  0  0  0  0  2  0  0  0  0  0  0
  189.2780  177.5380  143.7620 C   0  0  1  0  0  3  0  0  0  0  0  0
  186.9730  177.7930  144.7310 C   0  0  0  0  0  2  0  0  0  0  0  0
  187.8200  177.8530  139.7390 C   0  0  0  0  0  3  0  0  0  0  0  0
  185.2260  178.0820  140.9950 O   0  0  0  0  0  1  0  0  0  0  0  0
  184.9080  178.2530  146.9720 C   0  0  0  0  0  1  0  0  0  0  0  0
  187.3110  177.9340  142.1990 C   0  0  2  0  0  3  0  0  0  0  0  0
  185.6110  178.3760  144.5250 C   0  0  0  0  0  0  0  0  0  0  0  0
  188.1390  177.0870  137.4430 C   0  0  0  0  0  2  0  0  0  0  0  0
  186.8480  177.8210  137.1300 C   0  0  0  0  0  2  0  0  0  0  0  0
  185.7160  176.8240  136.9950 C   0  0  2  0  0  3  0  0  0  0  0  0
  184.7030  177.3810  136.1920 O   0  0  0  0  0  0  0  0  0  0  0  0
  184.4820  177.3890  137.5810 C   0  0  1  0  0  3  0  0  0  0  0  0
  183.5200  176.2710  137.9390 C   0  0  0  0  0  2  0  0  0  0  0  0
  182.6940  176.6700  139.0640 N   0  0  0  0  0  0  0  0  0  0  0  0
  182.2430  177.9660  139.1520 O   0  0  0  0  0  0  0  0  0  0  0  0
  182.2450  175.8050  139.8420 O   0  0  0  0  0  0  0  0  0  0  0  0
  1 19  1  6  0  0  0
  1 10  1  0  0  0  0
  1 22  1  0  0  0  0
  3  2  1  0  0  0  0
  3 16  1  0  0  0  0
  4 20  1  6  0  0  0
  4 22  1  0  0  0  0
  4  5  1  0  0  0  0
  5 15  1  0  0  0  0
  5 23  2  0  0  0  0
  6 14  1  0  0  0  0
  6 19  2  0  0  0  0
  7 10  1  0  0  0  0
  8 21  1  0  0  0  0
  9  2  1  0  0  0  0
 10 11  1  0  0  0  0
 11  9  1  6  0  0  0
 11 17  1  0  0  0  0
 12 17  1  0  0  0  0
 12 18  1  1  0  0  0
 13  8  2  0  0  0  0
 14  7  2  0  0  0  0
 15 13  1  0  0  0  0
 17 16  1  6  0  0  0
 22 12  1  0  0  0  0
 23 18  1  0  0  0  0
 23  8  1  0  0  0  0
 24  6  1  0  0  0  0
 25 24  1  0  0  0  0
 26 25  1  0  0  0  0
 26 28  1  0  0  0  0
 27 26  1  0  0  0  0
 27 28  1  0  0  0  0
 28 29  1  0  0  0  0
 29 30  1  0  0  0  0
 30 31  2  0  0  0  0
 30 32  2  0  0  0  0
M  END
>  <MODEL>
4

>  <REMARK>
 VINA RESULT:      -8.2      3.718      8.499
  Name = 
  5 active torsions:
  status: ('A' for Active; 'I' for Inactive)
    1  A    between atoms: N_1  and  C_10
    2  A    between atoms: C_2  and  C_19
    3  A    between atoms: C_8  and  C_23
    4  A    between atoms: C_10  and  C_24
    5  A    between atoms: C_19  and  C_23
                            x       y       z     vdW  Elec       q    Type
                         _______ _______ _______ _____ _____    ______ ____

>  <TORSDO>
F 5

$$$$
=
 OpenBabel10262421303D

 32 37  0  0  1  0  0  0  0  0999 V2000
  188.3980  178.3970  141.0510 C   0  0  1  0  0  3  0  0  0  0  0  0
  191.6470  176.0690  143.6040 C   0  0  0  0  0  2  0  0  0  0  0  0
  190.4090  175.2860  143.1870 C   0  0  0  0  0  2  0  0  0  0  0  0
  186.0350  178.7600  141.9000 C   0  0  2  0  0  3  0  0  0  0  0  0
  185.1670  178.7750  143.1220 C   0  0  0  0  0  0  0  0  0  0  0  0
  188.8350  177.6300  138.7270 C   0  0  0  0  0  0  0  0  0  0  0  0
  190.6970  177.7160  140.2850 C   0  0  0  0  0  3  0  0  0  0  0  0
  184.5920  178.5870  145.3680 C   0  0  0  0  0  0  0  0  0  0  0  0
  191.6680  177.4520  142.9420 C   0  0  0  0  0  2  0  0  0  0  0  0
  189.7630  177.9170  141.3640 N   0  0  0  0  0  0  0  0  0  0  0  0
  190.2690  178.0770  142.7360 C   0  0  1  0  0  3  0  0  0  0  0  0
  187.9130  178.2170  143.5430 C   0  0  2  0  0  3  0  0  0  0  0  0
  183.4060  179.1480  144.8950 C   0  0  0  0  0  3  0  0  0  0  0  0
  190.2730  177.5790  139.0310 C   0  0  0  0  0  3  0  0  0  0  0  0
  183.6100  179.3900  143.2380 S   0  0  0  0  0  0  0  0  0  0  0  0
  189.1310  175.9830  143.6640 C   0  0  0  0  0  2  0  0  0  0  0  0
  189.2570  177.5210  143.7420 C   0  0  1  0  0  3  0  0  0  0  0  0
  186.9210  177.7910  144.6300 C   0  0  0  0  0  2  0  0  0  0  0  0
  187.9570  177.9540  139.6770 C   0  0  0  0  0  3  0  0  0  0  0  0
  185.3220  178.1960  140.8400 O   0  0  0  0  0  1  0  0  0  0  0  0
  184.7800  178.2320  146.8030 C   0  0  0  0  0  1  0  0  0  0  0  0
  187.3570  177.9850  142.1170 C   0  0  2  0  0  3  0  0  0  0  0  0
  185.5770  178.4010  144.3880 C   0  0  0  0  0  0  0  0  0  0  0  0
  188.3510  177.2380  137.3760 C   0  0  0  0  0  2  0  0  0  0  0  0
  188.9110  175.8800  136.9940 C   0  0  0  0  0  2  0  0  0  0  0  0
  190.0130  176.0530  135.9700 C   0  0  2  0  0  3  0  0  0  0  0  0
  190.3220  174.8010  135.4080 O   0  0  0  0  0  0  0  0  0  0  0  0
  191.2060  175.2870  136.3870 C   0  0  1  0  0  3  0  0  0  0  0  0
  192.4430  175.8460  135.7090 C   0  0  0  0  0  2  0  0  0  0  0  0
  193.5340  175.9340  136.6640 N   0  0  0  0  0  0  0  0  0  0  0  0
  194.6660  175.1760  136.4760 O   0  0  0  0  0  0  0  0  0  0  0  0
  193.5230  176.8220  137.5390 O   0  0  0  0  0  0  0  0  0  0  0  0
  1 19  1  6  0  0  0
  1 10  1  0  0  0  0
  1 22  1  0  0  0  0
  3  2  1  0  0  0  0
  3 16  1  0  0  0  0
  4 20  1  6  0  0  0
  4 22  1  0  0  0  0
  4  5  1  0  0  0  0
  5 15  1  0  0  0  0
  5 23  2  0  0  0  0
  6 14  1  0  0  0  0
  6 19  2  0  0  0  0
  7 10  1  0  0  0  0
  8 21  1  0  0  0  0
  9  2  1  0  0  0  0
 10 11  1  0  0  0  0
 11  9  1  6  0  0  0
 11 17  1  0  0  0  0
 12 17  1  0  0  0  0
 12 18  1  1  0  0  0
 13  8  2  0  0  0  0
 14  7  2  0  0  0  0
 15 13  1  0  0  0  0
 17 16  1  6  0  0  0
 22 12  1  0  0  0  0
 23 18  1  0  0  0  0
 23  8  1  0  0  0  0
 24  6  1  0  0  0  0
 25 24  1  0  0  0  0
 26 28  1  0  0  0  0
 26 25  1  0  0  0  0
 27 26  1  0  0  0  0
 27 28  1  0  0  0  0
 29 28  1  0  0  0  0
 29 30  1  0  0  0  0
 30 32  2  0  0  0  0
 31 30  2  0  0  0  0
M  END
>  <MODEL>
5

>  <REMARK>
 VINA RESULT:      -8.1      4.115      8.294
  Name = 
  5 active torsions:
  status: ('A' for Active; 'I' for Inactive)
    1  A    between atoms: N_1  and  C_10
    2  A    between atoms: C_2  and  C_19
    3  A    between atoms: C_8  and  C_23
    4  A    between atoms: C_10  and  C_24
    5  A    between atoms: C_19  and  C_23
                            x       y       z     vdW  Elec       q    Type
                         _______ _______ _______ _____ _____    ______ ____

>  <TORSDO>
F 5

$$$$
=
 OpenBabel10262421303D

 32 37  0  0  1  0  0  0  0  0999 V2000
  188.2820  178.4160  141.0180 C   0  0  1  0  0  3  0  0  0  0  0  0
  191.6200  176.1010  143.4650 C   0  0  0  0  0  2  0  0  0  0  0  0
  190.3730  175.3130  143.0890 C   0  0  0  0  0  2  0  0  0  0  0  0
  185.9460  178.7710  141.9430 C   0  0  2  0  0  3  0  0  0  0  0  0
  185.1180  178.7820  143.1930 C   0  0  0  0  0  0  0  0  0  0  0  0
  188.6470  177.6500  138.6820 C   0  0  0  0  0  0  0  0  0  0  0  0
  190.5570  177.7430  140.1780 C   0  0  0  0  0  3  0  0  0  0  0  0
  184.6160  178.5930  145.4560 C   0  0  0  0  0  0  0  0  0  0  0  0
  191.6150  177.4840  142.8030 C   0  0  0  0  0  2  0  0  0  0  0  0
  189.6580  177.9410  141.2870 N   0  0  0  0  0  0  0  0  0  0  0  0
  190.2080  178.1040  142.6420 C   0  0  1  0  0  3  0  0  0  0  0  0
  187.8790  178.2350  143.5250 C   0  0  2  0  0  3  0  0  0  0  0  0
  183.4140  179.1490  145.0220 C   0  0  0  0  0  3  0  0  0  0  0  0
  190.0930  177.6050  138.9380 C   0  0  0  0  0  3  0  0  0  0  0  0
  183.5630  179.3920  143.3580 S   0  0  0  0  0  0  0  0  0  0  0  0
  189.1080  176.0050  143.6060 C   0  0  0  0  0  2  0  0  0  0  0  0
  189.2300  177.5440  143.6800 C   0  0  1  0  0  3  0  0  0  0  0  0
  186.9240  177.8050  144.6440 C   0  0  0  0  0  2  0  0  0  0  0  0
  187.7980  177.9710  139.6590 C   0  0  0  0  0  3  0  0  0  0  0  0
  185.2010  178.2040  140.9070 O   0  0  0  0  0  1  0  0  0  0  0  0
  184.8530  178.2390  146.8840 C   0  0  0  0  0  1  0  0  0  0  0  0
  187.2780  178.0010  142.1180 C   0  0  2  0  0  3  0  0  0  0  0  0
  185.5710  178.4100  144.4450 C   0  0  0  0  0  0  0  0  0  0  0  0
  188.1210  177.2560  137.3470 C   0  0  0  0  0  2  0  0  0  0  0  0
  186.6280  177.5190  137.2750 C   0  0  0  0  0  2  0  0  0  0  0  0
  185.9920  176.5770  136.2740 C   0  0  2  0  0  3  0  0  0  0  0  0
  184.6870  177.0180  135.9890 O   0  0  0  0  0  0  0  0  0  0  0  0
  184.8050  175.9350  136.8780 C   0  0  1  0  0  3  0  0  0  0  0  0
  184.4820  174.6480  136.1420 C   0  0  0  0  0  2  0  0  0  0  0  0
  184.1030  173.6170  137.0920 N   0  0  0  0  0  0  0  0  0  0  0  0
  185.0420  173.1130  137.9600 O   0  0  0  0  0  0  0  0  0  0  0  0
  182.9000  173.3270  137.2450 O   0  0  0  0  0  0  0  0  0  0  0  0
  1 19  1  6  0  0  0
  1 10  1  0  0  0  0
  1 22  1  0  0  0  0
  3  2  1  0  0  0  0
  3 16  1  0  0  0  0
  4 20  1  6  0  0  0
  4 22  1  0  0  0  0
  4  5  1  0  0  0  0
  5 15  1  0  0  0  0
  5 23  2  0  0  0  0
  6 14  1  0  0  0  0
  6 19  2  0  0  0  0
  7 10  1  0  0  0  0
  8 21  1  0  0  0  0
  9  2  1  0  0  0  0
 10 11  1  0  0  0  0
 11  9  1  6  0  0  0
 11 17  1  0  0  0  0
 12 17  1  0  0  0  0
 12 18  1  1  0  0  0
 13  8  2  0  0  0  0
 14  7  2  0  0  0  0
 15 13  1  0  0  0  0
 17 16  1  6  0  0  0
 22 12  1  0  0  0  0
 23 18  1  0  0  0  0
 23  8  1  0  0  0  0
 24  6  1  0  0  0  0
 25 24  1  0  0  0  0
 26 28  1  0  0  0  0
 26 25  1  0  0  0  0
 27 26  1  0  0  0  0
 27 28  1  0  0  0  0
 29 28  1  0  0  0  0
 29 30  1  0  0  0  0
 30 32  2  0  0  0  0
 30 31  2  0  0  0  0
M  END
>  <MODEL>
6

>  <REMARK>
 VINA RESULT:      -8.0      4.019      8.636
  Name = 
  5 active torsions:
  status: ('A' for Active; 'I' for Inactive)
    1  A    between atoms: N_1  and  C_10
    2  A    between atoms: C_2  and  C_19
    3  A    between atoms: C_8  and  C_23
    4  A    between atoms: C_10  and  C_24
    5  A    between atoms: C_19  and  C_23
                            x       y       z     vdW  Elec       q    Type
                         _______ _______ _______ _____ _____    ______ ____

>  <TORSDO>
F 5

$$$$
=
 OpenBabel10262421303D

 32 37  0  0  1  0  0  0  0  0999 V2000
  183.7660  179.0080  141.1480 C   0  0  1  0  0  3  0  0  0  0  0  0
  180.1400  176.8400  138.9920 C   0  0  0  0  0  2  0  0  0  0  0  0
  181.1860  175.9460  139.6460 C   0  0  0  0  0  2  0  0  0  0  0  0
  186.1630  178.6920  140.3820 C   0  0  2  0  0  3  0  0  0  0  0  0
  187.0310  178.2530  139.2410 C   0  0  0  0  0  0  0  0  0  0  0  0
  183.1510  178.9000  143.5550 C   0  0  0  0  0  0  0  0  0  0  0  0
  181.3670  178.9880  141.9100 C   0  0  0  0  0  3  0  0  0  0  0  0
  187.5840  177.4420  137.1320 C   0  0  0  0  0  0  0  0  0  0  0  0
  180.3950  178.3150  139.3260 C   0  0  0  0  0  2  0  0  0  0  0  0
  182.3350  178.7470  140.8710 N   0  0  0  0  0  0  0  0  0  0  0  0
  181.8900  178.6830  139.4700 C   0  0  1  0  0  3  0  0  0  0  0  0
  184.2340  178.1650  138.7930 C   0  0  2  0  0  3  0  0  0  0  0  0
  188.8530  177.8520  137.5370 C   0  0  0  0  0  3  0  0  0  0  0  0
  181.7380  179.0640  143.1860 C   0  0  0  0  0  3  0  0  0  0  0  0
  188.6830  178.5060  139.0840 S   0  0  0  0  0  0  0  0  0  0  0  0
  182.5860  176.2480  139.1030 C   0  0  0  0  0  2  0  0  0  0  0  0
  182.7790  177.7200  138.6750 C   0  0  1  0  0  3  0  0  0  0  0  0
  185.1310  177.3120  137.8900 C   0  0  0  0  0  2  0  0  0  0  0  0
  184.0890  178.8160  142.6110 C   0  0  0  0  0  3  0  0  0  0  0  0
  186.7320  178.2590  141.5820 O   0  0  0  0  0  1  0  0  0  0  0  0
  187.3440  176.8100  135.8040 C   0  0  0  0  0  1  0  0  0  0  0  0
  184.7130  178.1640  140.2650 C   0  0  2  0  0  3  0  0  0  0  0  0
  186.5690  177.6850  138.0690 C   0  0  0  0  0  0  0  0  0  0  0  0
  183.5270  178.7430  144.9860 C   0  0  0  0  0  2  0  0  0  0  0  0
  185.0110  179.0010  145.1670 C   0  0  0  0  0  2  0  0  0  0  0  0
  185.5390  178.1590  146.3100 C   0  0  2  0  0  3  0  0  0  0  0  0
  185.7440  178.9810  147.4340 O   0  0  0  0  0  0  0  0  0  0  0  0
  186.8870  178.6280  146.6940 C   0  0  1  0  0  3  0  0  0  0  0  0
  187.6310  177.5240  147.4220 C   0  0  0  0  0  2  0  0  0  0  0  0
  188.8720  177.2250  146.7320 N   0  0  0  0  0  0  0  0  0  0  0  0
  189.0930  177.7380  145.4750 O   0  0  0  0  0  0  0  0  0  0  0  0
  189.8040  176.6650  147.3430 O   0  0  0  0  0  0  0  0  0  0  0  0
  1 19  1  1  0  0  0
  2  9  1  0  0  0  0
  2  3  1  0  0  0  0
  4 20  1  1  0  0  0
  5  4  1  0  0  0  0
  6 24  1  0  0  0  0
  7 14  2  0  0  0  0
  8 13  2  0  0  0  0
  8 23  1  0  0  0  0
 10  1  1  0  0  0  0
 10  7  1  0  0  0  0
 11  9  1  1  0  0  0
 11 10  1  0  0  0  0
 12 18  1  6  0  0  0
 12 22  1  0  0  0  0
 13 15  1  0  0  0  0
 14  6  1  0  0  0  0
 15  5  1  0  0  0  0
 16  3  1  0  0  0  0
 17 12  1  0  0  0  0
 17 16  1  1  0  0  0
 17 11  1  0  0  0  0
 18 23  1  0  0  0  0
 19  6  2  0  0  0  0
 21  8  1  0  0  0  0
 22  4  1  0  0  0  0
 22  1  1  0  0  0  0
 23  5  2  0  0  0  0
 24 25  1  0  0  0  0
 25 26  1  0  0  0  0
 26 28  1  0  0  0  0
 26 27  1  0  0  0  0
 28 29  1  0  0  0  0
 28 27  1  0  0  0  0
 30 32  2  0  0  0  0
 30 29  1  0  0  0  0
 31 30  2  0  0  0  0
M  END
>  <MODEL>
7

>  <REMARK>
 VINA RESULT:      -7.8      1.553      2.113
  Name = 
  5 active torsions:
  status: ('A' for Active; 'I' for Inactive)
    1  A    between atoms: N_1  and  C_10
    2  A    between atoms: C_2  and  C_19
    3  A    between atoms: C_8  and  C_23
    4  A    between atoms: C_10  and  C_24
    5  A    between atoms: C_19  and  C_23
                            x       y       z     vdW  Elec       q    Type
                         _______ _______ _______ _____ _____    ______ ____

>  <TORSDO>
F 5

$$$$
=
 OpenBabel10262421303D

 32 37  0  0  1  0  0  0  0  0999 V2000
  187.7890  178.2850  140.0370 C   0  0  1  0  0  3  0  0  0  0  0  0
  184.8230  176.7290  136.6780 C   0  0  0  0  0  2  0  0  0  0  0  0
  185.4480  175.6770  137.5860 C   0  0  0  0  0  2  0  0  0  0  0  0
  190.2320  177.6050  140.0870 C   0  0  2  0  0  3  0  0  0  0  0  0
  191.3590  177.0450  139.2720 C   0  0  0  0  0  0  0  0  0  0  0  0
  186.3930  178.2540  142.0940 C   0  0  0  0  0  0  0  0  0  0  0  0
  185.2970  178.6340  139.9610 C   0  0  0  0  0  3  0  0  0  0  0  0
  192.4640  176.1760  137.4190 C   0  0  0  0  0  0  0  0  0  0  0  0
  185.1620  178.1430  137.1660 C   0  0  0  0  0  2  0  0  0  0  0  0
  186.5120  178.2530  139.2870 N   0  0  0  0  0  0  0  0  0  0  0  0
  186.5580  178.2710  137.8170 C   0  0  1  0  0  3  0  0  0  0  0  0
  188.8930  177.4000  137.9210 C   0  0  2  0  0  3  0  0  0  0  0  0
  193.5690  176.3790  138.2440 C   0  0  0  0  0  3  0  0  0  0  0  0
  185.2250  178.6400  141.2900 C   0  0  0  0  0  3  0  0  0  0  0  0
  192.9860  177.0380  139.6840 S   0  0  0  0  0  0  0  0  0  0  0  0
  186.9770  175.7610  137.5540 C   0  0  0  0  0  2  0  0  0  0  0  0
  187.5140  177.1890  137.3040 C   0  0  1  0  0  3  0  0  0  0  0  0
  189.9080  176.4250  137.3150 C   0  0  0  0  0  2  0  0  0  0  0  0
  187.5710  178.0320  141.5090 C   0  0  0  0  0  3  0  0  0  0  0  0
  190.2970  177.0780  141.3790 O   0  0  0  0  0  1  0  0  0  0  0  0
  192.5950  175.6000  136.0510 C   0  0  0  0  0  1  0  0  0  0  0  0
  188.8450  177.3110  139.4660 C   0  0  2  0  0  3  0  0  0  0  0  0
  191.2400  176.5660  137.9810 C   0  0  0  0  0  0  0  0  0  0  0  0
  186.2410  178.0270  143.5570 C   0  0  0  0  0  2  0  0  0  0  0  0
  187.2690  177.0210  144.0400 C   0  0  0  0  0  2  0  0  0  0  0  0
  188.0460  177.6040  145.2020 C   0  0  2  0  0  3  0  0  0  0  0  0
  189.1940  178.2530  144.7100 O   0  0  0  0  0  0  0  0  0  0  0  0
  189.3830  176.9770  145.2710 C   0  0  1  0  0  3  0  0  0  0  0  0
  189.9520  177.1270  146.6700 C   0  0  0  0  0  2  0  0  0  0  0  0
  191.3570  176.7590  146.6740 N   0  0  0  0  0  0  0  0  0  0  0  0
  192.0550  176.7530  147.8590 O   0  0  0  0  0  0  0  0  0  0  0  0
  191.8750  176.2740  145.6490 O   0  0  0  0  0  0  0  0  0  0  0  0
  1 19  1  1  0  0  0
  2  9  1  0  0  0  0
  2  3  1  0  0  0  0
  4 20  1  1  0  0  0
  5 15  1  0  0  0  0
  5  4  1  0  0  0  0
  6 24  1  0  0  0  0
  7 14  2  0  0  0  0
  8 23  1  0  0  0  0
  8 13  2  0  0  0  0
 10  7  1  0  0  0  0
 10  1  1  0  0  0  0
 11  9  1  6  0  0  0
 11 10  1  0  0  0  0
 12 18  1  6  0  0  0
 12 22  1  0  0  0  0
 13 15  1  0  0  0  0
 14  6  1  0  0  0  0
 16  3  1  0  0  0  0
 17 16  1  1  0  0  0
 17 11  1  0  0  0  0
 17 12  1  0  0  0  0
 18 23  1  0  0  0  0
 19  6  2  0  0  0  0
 21  8  1  0  0  0  0
 22  1  1  0  0  0  0
 22  4  1  0  0  0  0
 23  5  2  0  0  0  0
 24 25  1  0  0  0  0
 25 26  1  0  0  0  0
 26 28  1  0  0  0  0
 27 26  1  0  0  0  0
 27 28  1  0  0  0  0
 28 29  1  0  0  0  0
 29 30  1  0  0  0  0
 30 31  2  0  0  0  0
 32 30  2  0  0  0  0
M  END
>  <MODEL>
8

>  <REMARK>
 VINA RESULT:      -7.7      2.208      3.478
  Name = 
  5 active torsions:
  status: ('A' for Active; 'I' for Inactive)
    1  A    between atoms: N_1  and  C_10
    2  A    between atoms: C_2  and  C_19
    3  A    between atoms: C_8  and  C_23
    4  A    between atoms: C_10  and  C_24
    5  A    between atoms: C_19  and  C_23
                            x       y       z     vdW  Elec       q    Type
                         _______ _______ _______ _____ _____    ______ ____

>  <TORSDO>
F 5

$$$$
=
 OpenBabel10262421303D

 32 37  0  0  1  0  0  0  0  0999 V2000
  183.5610  178.9820  141.1560 C   0  0  1  0  0  3  0  0  0  0  0  0
  179.5060  176.8780  139.8800 C   0  0  0  0  0  2  0  0  0  0  0  0
  180.6680  175.9650  140.2500 C   0  0  0  0  0  2  0  0  0  0  0  0
  185.7050  178.6700  139.8370 C   0  0  2  0  0  3  0  0  0  0  0  0
  186.2740  178.2500  138.5150 C   0  0  0  0  0  0  0  0  0  0  0  0
  183.5320  178.8270  143.6370 C   0  0  0  0  0  0  0  0  0  0  0  0
  181.4100  178.9590  142.4640 C   0  0  0  0  0  3  0  0  0  0  0  0
  186.3030  177.4810  136.3200 C   0  0  0  0  0  0  0  0  0  0  0  0
  179.8480  178.3440  140.1710 C   0  0  0  0  0  2  0  0  0  0  0  0
  182.1030  178.7340  141.2200 N   0  0  0  0  0  0  0  0  0  0  0  0
  181.3370  178.7010  139.9640 C   0  0  1  0  0  3  0  0  0  0  0  0
  183.4500  178.1860  138.7410 C   0  0  2  0  0  3  0  0  0  0  0  0
  187.6360  177.8760  136.4200 C   0  0  0  0  0  3  0  0  0  0  0  0
  182.0740  179.0060  143.6170 C   0  0  0  0  0  3  0  0  0  0  0  0
  187.8440  178.4980  137.9750 S   0  0  0  0  0  0  0  0  0  0  0  0
  181.9020  176.2710  139.3960 C   0  0  0  0  0  2  0  0  0  0  0  0
  182.0040  177.7510  138.9630 C   0  0  1  0  0  3  0  0  0  0  0  0
  184.0990  177.3480  137.6340 C   0  0  0  0  0  2  0  0  0  0  0  0
  184.2190  178.7580  142.4960 C   0  0  0  0  0  3  0  0  0  0  0  0
  186.5380  178.2090  140.8590 O   0  0  0  0  0  1  0  0  0  0  0  0
  185.7500  176.8770  135.0750 C   0  0  0  0  0  1  0  0  0  0  0  0
  184.2630  178.1520  140.0570 C   0  0  2  0  0  3  0  0  0  0  0  0
  185.5410  177.7090  137.4750 C   0  0  0  0  0  0  0  0  0  0  0  0
  184.2350  178.6380  144.9340 C   0  0  0  0  0  2  0  0  0  0  0  0
  185.7280  178.8440  144.7550 C   0  0  0  0  0  2  0  0  0  0  0  0
  186.4230  177.5000  144.6810 C   0  0  2  0  0  3  0  0  0  0  0  0
  187.5080  177.4910  145.5770 O   0  0  0  0  0  0  0  0  0  0  0  0
  187.8150  177.6830  144.2180 C   0  0  1  0  0  3  0  0  0  0  0  0
  188.3420  176.3850  143.6380 C   0  0  0  0  0  2  0  0  0  0  0  0
  189.5850  176.6290  142.9270 N   0  0  0  0  0  0  0  0  0  0  0  0
  189.5620  177.2960  141.7250 O   0  0  0  0  0  0  0  0  0  0  0  0
  190.6750  176.4020  143.4880 O   0  0  0  0  0  0  0  0  0  0  0  0
  1 10  1  0  0  0  0
  1 19  1  1  0  0  0
  2  9  1  0  0  0  0
  2  3  1  0  0  0  0
  4 22  1  0  0  0  0
  4 20  1  1  0  0  0
  5  4  1  0  0  0  0
  6 24  1  0  0  0  0
  7 14  2  0  0  0  0
  8 13  2  0  0  0  0
  8 23  1  0  0  0  0
 10  7  1  0  0  0  0
 11  9  1  1  0  0  0
 11 10  1  0  0  0  0
 12 18  1  6  0  0  0
 12 17  1  0  0  0  0
 12 22  1  0  0  0  0
 13 15  1  0  0  0  0
 14  6  1  0  0  0  0
 15  5  1  0  0  0  0
 16  3  1  0  0  0  0
 17 16  1  1  0  0  0
 17 11  1  0  0  0  0
 19  6  2  0  0  0  0
 21  8  1  0  0  0  0
 22  1  1  0  0  0  0
 23 18  1  0  0  0  0
 23  5  2  0  0  0  0
 25 24  1  0  0  0  0
 26 25  1  0  0  0  0
 26 27  1  0  0  0  0
 28 26  1  0  0  0  0
 28 27  1  0  0  0  0
 29 28  1  0  0  0  0
 30 32  2  0  0  0  0
 30 29  1  0  0  0  0
 31 30  2  0  0  0  0
M  END
>  <MODEL>
9

>  <REMARK>
 VINA RESULT:      -7.3      1.916      2.388
  Name = 
  5 active torsions:
  status: ('A' for Active; 'I' for Inactive)
    1  A    between atoms: N_1  and  C_10
    2  A    between atoms: C_2  and  C_19
    3  A    between atoms: C_8  and  C_23
    4  A    between atoms: C_10  and  C_24
    5  A    between atoms: C_19  and  C_23
                            x       y       z     vdW  Elec       q    Type
                         _______ _______ _______ _____ _____    ______ ____

>  <TORSDO>
F 5

$$$$
