=
 OpenBabel10262423283D

 34 39  0  0  0  0  0  0  0  0999 V2000
  189.2930  177.4910  143.3490 N   0  0  0  0  0  0  0  0  0  0  0  0
  192.4100  176.9850  141.3630 C   0  0  0  0  0  3  0  0  0  0  0  0
  191.9870  176.9230  143.7510 O   0  0  0  0  0  0  0  0  0  0  0  0
  187.6150  177.6750  145.6160 C   0  0  0  0  0  3  0  0  0  0  0  0
  187.8940  177.7830  143.1880 C   0  0  0  0  0  3  0  0  0  0  0  0
  188.9020  177.3920  145.8260 C   0  0  0  0  0  0  0  0  0  0  0  0
  190.6550  176.3260  147.2210 C   0  0  0  0  0  2  0  0  0  0  0  0
  189.4170  177.2230  147.2230 C   0  0  0  0  0  2  0  0  0  0  0  0
  187.0730  177.8780  144.2470 C   0  0  0  0  0  0  0  0  0  0  0  0
  191.1280  177.0220  144.8560 C   0  0  0  0  0  0  0  0  0  0  0  0
  189.8220  177.3040  144.6750 C   0  0  0  0  0  0  0  0  0  0  0  0
  191.7010  176.8580  146.2390 C   0  0  0  0  0  2  0  0  0  0  0  0
  191.9530  177.1580  140.0530 C   0  0  0  0  0  0  0  0  0  0  0  0
  190.5980  177.4460  139.8290 C   0  0  0  0  0  3  0  0  0  0  0  0
  191.5270  177.0960  142.4410 C   0  0  0  0  0  0  0  0  0  0  0  0
  189.7100  177.5590  140.9020 C   0  0  0  0  0  3  0  0  0  0  0  0
  190.1720  177.3840  142.2150 C   0  0  0  0  0  0  0  0  0  0  0  0
  183.5300  179.2190  144.9950 C   0  0  0  0  0  2  0  0  0  0  0  0
  185.1350  178.2660  142.8040 C   0  0  0  0  0  3  0  0  0  0  0  0
  181.0000  179.1470  142.1600 C   0  0  0  0  0  0  0  0  0  0  0  0
  181.5620  179.2850  143.4370 C   0  0  0  0  0  3  0  0  0  0  0  0
  182.9100  178.9870  143.6500 C   0  0  0  0  0  0  0  0  0  0  0  0
  183.1610  178.4420  141.2990 C   0  0  0  0  0  3  0  0  0  0  0  0
  183.7140  178.5690  142.5750 C   0  0  0  0  0  0  0  0  0  0  0  0
  181.8090  178.7280  141.0930 C   0  0  0  0  0  3  0  0  0  0  0  0
  185.6350  178.1780  144.0460 C   0  0  0  0  0  0  0  0  0  0  0  0
  184.7000  178.2580  145.2350 C   0  0  0  0  0  2  0  0  0  0  0  0
  179.5770  179.4540  141.9430 C   0  0  0  0  0  0  0  0  0  0  0  0
  178.9320  180.1230  142.7940 O   0  0  0  0  0  1  0  0  0  0  0  0
  178.9310  179.0080  140.7960 O   0  0  0  0  0  0  0  0  0  0  0  0
  192.9070  176.0200  137.9640 C   0  0  0  0  0  0  0  0  0  0  0  0
  193.9620  176.0520  136.9180 C   0  0  0  0  0  1  0  0  0  0  0  0
  192.0450  175.1030  137.9420 O   0  0  0  0  0  0  0  0  0  0  0  0
  192.8910  177.0360  138.9750 N   0  0  0  0  0  2  0  0  0  0  0  0
  1 11  1  0  0  0  0
  2 15  1  0  0  0  0
  3 10  1  0  0  0  0
  4  6  2  0  0  0  0
  5  1  1  0  0  0  0
  5  9  2  0  0  0  0
  6  8  1  0  0  0  0
  7  8  1  0  0  0  0
  9  4  1  0  0  0  0
 10 12  1  0  0  0  0
 11 10  2  0  0  0  0
 11  6  1  0  0  0  0
 12  7  1  0  0  0  0
 13  2  2  0  0  0  0
 14 13  1  0  0  0  0
 14 16  2  0  0  0  0
 15  3  1  0  0  0  0
 16 17  1  0  0  0  0
 17 15  2  0  0  0  0
 17  1  1  0  0  0  0
 18 27  1  0  0  0  0
 19 26  2  0  0  0  0
 20 21  1  0  0  0  0
 21 22  2  0  0  0  0
 22 18  1  0  0  0  0
 23 24  2  0  0  0  0
 24 19  1  0  0  0  0
 24 22  1  0  0  0  0
 25 23  1  0  0  0  0
 25 20  2  0  0  0  0
 26  9  1  0  0  0  0
 26 27  1  0  0  0  0
 28 20  1  0  0  0  0
 28 29  1  0  0  0  0
 30 28  2  0  0  0  0
 31 34  1  0  0  0  0
 32 31  1  0  0  0  0
 33 31  2  0  0  0  0
 34 13  1  0  0  0  0
M  END
>  <MODEL>
1

>  <REMARK>
 VINA RESULT:     -11.4      0.000      0.000
  Name = 
  3 active torsions:
  status: ('A' for Active; 'I' for Inactive)
    1  A    between atoms: C_7  and  C_11
    2  A    between atoms: C_18  and  C_30
    3  A    between atoms: C_23  and  N_25
                            x       y       z     vdW  Elec       q    Type
                         _______ _______ _______ _____ _____    ______ ____

>  <TORSDO>
F 3

$$$$
=
 OpenBabel10262423283D

 34 39  0  0  0  0  0  0  0  0999 V2000
  186.9160  178.0780  144.1840 N   0  0  0  0  0  0  0  0  0  0  0  0
  183.3590  178.8960  144.9580 C   0  0  0  0  0  3  0  0  0  0  0  0
  185.2520  178.3980  146.3910 O   0  0  0  0  0  0  0  0  0  0  0  0
  189.6290  177.4330  144.6410 C   0  0  0  0  0  3  0  0  0  0  0  0
  187.8120  177.9040  143.0730 C   0  0  0  0  0  3  0  0  0  0  0  0
  188.8490  177.5940  145.7110 C   0  0  0  0  0  0  0  0  0  0  0  0
  188.5990  178.2020  148.1030 C   0  0  0  0  0  2  0  0  0  0  0  0
  189.4050  177.3930  147.0870 C   0  0  0  0  0  2  0  0  0  0  0  0
  189.1060  177.5950  143.2600 C   0  0  0  0  0  0  0  0  0  0  0  0
  186.6040  178.0770  146.5850 C   0  0  0  0  0  0  0  0  0  0  0  0
  187.4190  177.9130  145.5230 C   0  0  0  0  0  0  0  0  0  0  0  0
  187.1090  177.8730  147.9880 C   0  0  0  0  0  2  0  0  0  0  0  0
  182.8150  179.0680  143.6810 C   0  0  0  0  0  0  0  0  0  0  0  0
  183.6380  178.9100  142.5540 C   0  0  0  0  0  3  0  0  0  0  0  0
  184.7100  178.5700  145.1120 C   0  0  0  0  0  0  0  0  0  0  0  0
  184.9880  178.5850  142.7030 C   0  0  0  0  0  3  0  0  0  0  0  0
  185.5310  178.4130  143.9850 C   0  0  0  0  0  0  0  0  0  0  0  0
  192.3760  177.0980  141.2680 C   0  0  0  0  0  2  0  0  0  0  0  0
  189.5220  176.9320  140.9400 C   0  0  0  0  0  3  0  0  0  0  0  0
  192.0660  176.3980  137.5450 C   0  0  0  0  0  0  0  0  0  0  0  0
  192.6150  176.6890  138.8010 C   0  0  0  0  0  3  0  0  0  0  0  0
  191.7830  176.8740  139.9090 C   0  0  0  0  0  0  0  0  0  0  0  0
  189.8400  176.4430  138.5220 C   0  0  0  0  0  3  0  0  0  0  0  0
  190.3910  176.7450  139.7690 C   0  0  0  0  0  0  0  0  0  0  0  0
  190.6740  176.2730  137.4130 C   0  0  0  0  0  3  0  0  0  0  0  0
  190.0030  177.4240  142.0920 C   0  0  0  0  0  0  0  0  0  0  0  0
  191.4330  177.9230  142.1500 C   0  0  0  0  0  2  0  0  0  0  0  0
  192.9460  176.2130  136.3800 C   0  0  0  0  0  0  0  0  0  0  0  0
  192.5230  175.6270  135.3480 O   0  0  0  0  0  0  0  0  0  0  0  0
  194.2530  176.6850  136.4070 O   0  0  0  0  0  1  0  0  0  0  0  0
  180.3120  178.5470  143.8530 C   0  0  0  0  0  0  0  0  0  0  0  0
  178.9310  179.0660  143.6730 C   0  0  0  0  0  1  0  0  0  0  0  0
  180.4790  177.3660  144.2560 O   0  0  0  0  0  0  0  0  0  0  0  0
  181.4250  179.4020  143.5640 N   0  0  0  0  0  2  0  0  0  0  0  0
  1 11  1  0  0  0  0
  2 15  1  0  0  0  0
  3 10  1  0  0  0  0
  4  6  2  0  0  0  0
  5  9  2  0  0  0  0
  5  1  1  0  0  0  0
  6  8  1  0  0  0  0
  8  7  1  0  0  0  0
  9  4  1  0  0  0  0
 10 12  1  0  0  0  0
 11  6  1  0  0  0  0
 11 10  2  0  0  0  0
 12  7  1  0  0  0  0
 13  2  2  0  0  0  0
 14 16  2  0  0  0  0
 14 13  1  0  0  0  0
 15  3  1  0  0  0  0
 16 17  1  0  0  0  0
 17  1  1  0  0  0  0
 17 15  2  0  0  0  0
 18 27  1  0  0  0  0
 19 26  2  0  0  0  0
 20 21  1  0  0  0  0
 21 22  2  0  0  0  0
 22 18  1  0  0  0  0
 23 24  2  0  0  0  0
 24 22  1  0  0  0  0
 24 19  1  0  0  0  0
 25 20  2  0  0  0  0
 25 23  1  0  0  0  0
 26 27  1  0  0  0  0
 26  9  1  0  0  0  0
 28 30  1  0  0  0  0
 28 20  1  0  0  0  0
 29 28  2  0  0  0  0
 31 33  2  0  0  0  0
 32 31  1  0  0  0  0
 34 13  1  0  0  0  0
 34 31  1  0  0  0  0
M  END
>  <MODEL>
2

>  <REMARK>
 VINA RESULT:     -10.5      2.404      9.184
  Name = 
  3 active torsions:
  status: ('A' for Active; 'I' for Inactive)
    1  A    between atoms: C_7  and  C_11
    2  A    between atoms: C_18  and  C_30
    3  A    between atoms: C_23  and  N_25
                            x       y       z     vdW  Elec       q    Type
                         _______ _______ _______ _____ _____    ______ ____

>  <TORSDO>
F 3

$$$$
=
 OpenBabel10262423283D

 34 39  0  0  0  0  0  0  0  0999 V2000
  191.0190  176.5460  138.2250 N   0  0  0  0  0  0  0  0  0  0  0  0
  193.3500  175.5470  135.4890 C   0  0  0  0  0  3  0  0  0  0  0  0
  191.0600  176.3480  135.4490 O   0  0  0  0  0  0  0  0  0  0  0  0
  188.6520  177.4730  139.4600 C   0  0  0  0  0  3  0  0  0  0  0  0
  190.9530  176.6640  139.6560 C   0  0  0  0  0  3  0  0  0  0  0  0
  188.6580  177.3940  138.1290 C   0  0  0  0  0  0  0  0  0  0  0  0
  187.8160  178.1950  135.9370 C   0  0  0  0  0  2  0  0  0  0  0  0
  187.4300  177.7500  137.3470 C   0  0  0  0  0  2  0  0  0  0  0  0
  189.8400  177.1000  140.2710 C   0  0  0  0  0  0  0  0  0  0  0  0
  189.9000  176.8030  136.0930 C   0  0  0  0  0  0  0  0  0  0  0  0
  189.8650  176.8970  137.4370 C   0  0  0  0  0  0  0  0  0  0  0  0
  188.6890  177.1350  135.2610 C   0  0  0  0  0  2  0  0  0  0  0  0
  194.5000  175.1910  136.2010 C   0  0  0  0  0  0  0  0  0  0  0  0
  194.4990  175.2830  137.6010 C   0  0  0  0  0  3  0  0  0  0  0  0
  192.2100  175.9920  136.1640 C   0  0  0  0  0  0  0  0  0  0  0  0
  193.3620  175.7270  138.2810 C   0  0  0  0  0  3  0  0  0  0  0  0
  192.2100  176.0840  137.5650 C   0  0  0  0  0  0  0  0  0  0  0  0
  191.0550  177.8490  143.8590 C   0  0  0  0  0  2  0  0  0  0  0  0
  188.6330  177.3500  142.3860 C   0  0  0  0  0  3  0  0  0  0  0  0
  188.4740  177.7000  146.6440 C   0  0  0  0  0  0  0  0  0  0  0  0
  189.7010  177.7900  145.9730 C   0  0  0  0  0  3  0  0  0  0  0  0
  189.7550  177.6650  144.5820 C   0  0  0  0  0  0  0  0  0  0  0  0
  187.3450  177.3940  144.5140 C   0  0  0  0  0  3  0  0  0  0  0  0
  188.5710  177.4720  143.8500 C   0  0  0  0  0  0  0  0  0  0  0  0
  187.2970  177.5060  145.9060 C   0  0  0  0  0  3  0  0  0  0  0  0
  189.8060  177.2120  141.7490 C   0  0  0  0  0  0  0  0  0  0  0  0
  191.0770  177.0430  142.5560 C   0  0  0  0  0  2  0  0  0  0  0  0
  188.4250  177.8240  148.1100 C   0  0  0  0  0  0  0  0  0  0  0  0
  187.4920  177.2860  148.7650 O   0  0  0  0  0  0  0  0  0  0  0  0
  189.4080  178.5350  148.7870 O   0  0  0  0  0  1  0  0  0  0  0  0
  196.9300  175.3800  135.4070 C   0  0  0  0  0  0  0  0  0  0  0  0
  198.0100  174.7630  134.5940 C   0  0  0  0  0  1  0  0  0  0  0  0
  197.1580  176.4520  136.0250 O   0  0  0  0  0  0  0  0  0  0  0  0
  195.6490  174.7390  135.4710 N   0  0  0  0  0  2  0  0  0  0  0  0
  1  5  1  0  0  0  0
  2 15  2  0  0  0  0
  2 13  1  0  0  0  0
  3 10  1  0  0  0  0
  3 15  1  0  0  0  0
  4  9  1  0  0  0  0
  5  9  2  0  0  0  0
  6  4  2  0  0  0  0
  7  8  1  0  0  0  0
  8  6  1  0  0  0  0
  9 26  1  0  0  0  0
 10 11  2  0  0  0  0
 11  6  1  0  0  0  0
 11  1  1  0  0  0  0
 12  7  1  0  0  0  0
 12 10  1  0  0  0  0
 13 14  2  0  0  0  0
 14 16  1  0  0  0  0
 15 17  1  0  0  0  0
 17  1  1  0  0  0  0
 17 16  2  0  0  0  0
 18 22  1  0  0  0  0
 19 24  1  0  0  0  0
 20 28  1  0  0  0  0
 21 20  1  0  0  0  0
 22 21  2  0  0  0  0
 23 25  1  0  0  0  0
 24 23  2  0  0  0  0
 24 22  1  0  0  0  0
 25 20  2  0  0  0  0
 26 19  2  0  0  0  0
 26 27  1  0  0  0  0
 27 18  1  0  0  0  0
 28 29  2  0  0  0  0
 28 30  1  0  0  0  0
 31 34  1  0  0  0  0
 31 33  2  0  0  0  0
 32 31  1  0  0  0  0
 34 13  1  0  0  0  0
M  END
>  <MODEL>
3

>  <REMARK>
 VINA RESULT:     -10.1      4.435      7.472
  Name = 
  3 active torsions:
  status: ('A' for Active; 'I' for Inactive)
    1  A    between atoms: C_7  and  C_11
    2  A    between atoms: C_18  and  C_30
    3  A    between atoms: C_23  and  N_25
                            x       y       z     vdW  Elec       q    Type
                         _______ _______ _______ _____ _____    ______ ____

>  <TORSDO>
F 3

$$$$
=
 OpenBabel10262423283D

 34 39  0  0  0  0  0  0  0  0999 V2000
  186.8610  177.9250  143.4510 N   0  0  0  0  0  0  0  0  0  0  0  0
  183.4910  178.9200  144.7040 C   0  0  0  0  0  3  0  0  0  0  0  0
  185.5380  178.3300  145.8650 O   0  0  0  0  0  0  0  0  0  0  0  0
  189.5770  177.1460  143.5330 C   0  0  0  0  0  3  0  0  0  0  0  0
  187.5850  177.7050  142.2280 C   0  0  0  0  0  3  0  0  0  0  0  0
  188.9610  177.3470  144.6990 C   0  0  0  0  0  0  0  0  0  0  0  0
  189.0760  177.9690  147.0980 C   0  0  0  0  0  2  0  0  0  0  0  0
  189.6930  177.1200  145.9870 C   0  0  0  0  0  2  0  0  0  0  0  0
  188.8750  177.3320  142.2360 C   0  0  0  0  0  0  0  0  0  0  0  0
  186.8860  177.9420  145.8720 C   0  0  0  0  0  0  0  0  0  0  0  0
  187.5360  177.7360  144.7090 C   0  0  0  0  0  0  0  0  0  0  0  0
  187.5700  177.7150  147.1940 C   0  0  0  0  0  2  0  0  0  0  0  0
  182.7840  179.1170  143.5130 C   0  0  0  0  0  0  0  0  0  0  0  0
  183.4330  178.9170  142.2850 C   0  0  0  0  0  3  0  0  0  0  0  0
  184.8320  178.5270  144.6730 C   0  0  0  0  0  0  0  0  0  0  0  0
  184.7740  178.5250  142.2480 C   0  0  0  0  0  3  0  0  0  0  0  0
  185.4810  178.3280  143.4430 C   0  0  0  0  0  0  0  0  0  0  0  0
  189.5120  177.2530  138.4290 C   0  0  0  0  0  2  0  0  0  0  0  0
  190.9340  177.1260  140.9280 C   0  0  0  0  0  3  0  0  0  0  0  0
  193.0570  176.5280  137.2650 C   0  0  0  0  0  0  0  0  0  0  0  0
  191.6730  176.7470  137.2520 C   0  0  0  0  0  3  0  0  0  0  0  0
  190.9770  176.9310  138.4500 C   0  0  0  0  0  0  0  0  0  0  0  0
  193.0520  176.7160  139.6890 C   0  0  0  0  0  3  0  0  0  0  0  0
  191.6700  176.9210  139.6720 C   0  0  0  0  0  0  0  0  0  0  0  0
  193.7420  176.5170  138.4900 C   0  0  0  0  0  3  0  0  0  0  0  0
  189.5920  177.1150  140.9570 C   0  0  0  0  0  0  0  0  0  0  0  0
  188.8220  176.7540  139.7030 C   0  0  0  0  0  2  0  0  0  0  0  0
  193.7830  176.3250  136.0010 C   0  0  0  0  0  0  0  0  0  0  0  0
  193.2270  175.7440  135.0320 O   0  0  0  0  0  0  0  0  0  0  0  0
  195.0920  176.7730  135.8650 O   0  0  0  0  0  1  0  0  0  0  0  0
  180.2940  178.6960  143.9530 C   0  0  0  0  0  0  0  0  0  0  0  0
  178.9310  179.2880  143.9760 C   0  0  0  0  0  1  0  0  0  0  0  0
  180.4460  177.4840  144.2540 O   0  0  0  0  0  0  0  0  0  0  0  0
  181.4090  179.5190  143.5880 N   0  0  0  0  0  2  0  0  0  0  0  0
  1 11  1  0  0  0  0
  3 10  1  0  0  0  0
  4  6  2  0  0  0  0
  5  9  2  0  0  0  0
  5  1  1  0  0  0  0
  6 11  1  0  0  0  0
  6  8  1  0  0  0  0
  7 12  1  0  0  0  0
  8  7  1  0  0  0  0
  9  4  1  0  0  0  0
 10 12  1  0  0  0  0
 11 10  2  0  0  0  0
 13 34  1  0  0  0  0
 13  2  2  0  0  0  0
 14 13  1  0  0  0  0
 15  2  1  0  0  0  0
 15  3  1  0  0  0  0
 16 14  2  0  0  0  0
 16 17  1  0  0  0  0
 17  1  1  0  0  0  0
 17 15  2  0  0  0  0
 18 22  1  0  0  0  0
 18 27  1  0  0  0  0
 19 26  2  0  0  0  0
 20 25  1  0  0  0  0
 21 20  2  0  0  0  0
 21 22  1  0  0  0  0
 22 24  2  0  0  0  0
 24 23  1  0  0  0  0
 24 19  1  0  0  0  0
 25 23  2  0  0  0  0
 26  9  1  0  0  0  0
 27 26  1  0  0  0  0
 28 20  1  0  0  0  0
 29 28  2  0  0  0  0
 30 28  1  0  0  0  0
 31 32  1  0  0  0  0
 31 33  2  0  0  0  0
 34 31  1  0  0  0  0
M  END
>  <MODEL>
4

>  <REMARK>
 VINA RESULT:      -9.8      2.391      9.515
  Name = 
  3 active torsions:
  status: ('A' for Active; 'I' for Inactive)
    1  A    between atoms: C_7  and  C_11
    2  A    between atoms: C_18  and  C_30
    3  A    between atoms: C_23  and  N_25
                            x       y       z     vdW  Elec       q    Type
                         _______ _______ _______ _____ _____    ______ ____

>  <TORSDO>
F 3

$$$$
=
 OpenBabel10262423283D

 34 39  0  0  0  0  0  0  0  0999 V2000
  185.7850  178.2450  142.9890 N   0  0  0  0  0  0  0  0  0  0  0  0
  182.1340  178.9070  142.5970 C   0  0  0  0  0  3  0  0  0  0  0  0
  183.5210  178.6100  144.5660 O   0  0  0  0  0  0  0  0  0  0  0  0
  188.2530  177.7870  144.2870 C   0  0  0  0  0  3  0  0  0  0  0  0
  186.9800  178.0520  142.2140 C   0  0  0  0  0  3  0  0  0  0  0  0
  187.1800  177.9700  145.0580 C   0  0  0  0  0  0  0  0  0  0  0  0
  186.1980  178.7140  147.2110 C   0  0  0  0  0  2  0  0  0  0  0  0
  187.3010  177.8900  146.5490 C   0  0  0  0  0  2  0  0  0  0  0  0
  188.1670  177.8290  142.8040 C   0  0  0  0  0  0  0  0  0  0  0  0
  184.7610  178.3790  145.1790 C   0  0  0  0  0  0  0  0  0  0  0  0
  185.8640  178.1940  144.4260 C   0  0  0  0  0  0  0  0  0  0  0  0
  184.8250  178.2950  146.6810 C   0  0  0  0  0  2  0  0  0  0  0  0
  181.9960  178.9660  141.2070 C   0  0  0  0  0  0  0  0  0  0  0  0
  183.1260  178.7840  140.3940 C   0  0  0  0  0  3  0  0  0  0  0  0
  183.3850  178.6690  143.1740 C   0  0  0  0  0  0  0  0  0  0  0  0
  184.3790  178.5460  140.9650 C   0  0  0  0  0  3  0  0  0  0  0  0
  184.5140  178.4880  142.3600 C   0  0  0  0  0  0  0  0  0  0  0  0
  191.8970  177.3470  141.9300 C   0  0  0  0  0  2  0  0  0  0  0  0
  189.2820  177.0800  140.7580 C   0  0  0  0  0  3  0  0  0  0  0  0
  192.7510  176.4780  138.3300 C   0  0  0  0  0  0  0  0  0  0  0  0
  192.8850  176.8400  139.6780 C   0  0  0  0  0  3  0  0  0  0  0  0
  191.7520  177.0470  140.4690 C   0  0  0  0  0  0  0  0  0  0  0  0
  190.3330  176.4980  138.5790 C   0  0  0  0  0  3  0  0  0  0  0  0
  190.4710  176.8700  139.9180 C   0  0  0  0  0  0  0  0  0  0  0  0
  191.4690  176.3050  137.7870 C   0  0  0  0  0  3  0  0  0  0  0  0
  189.3810  177.6360  141.9750 C   0  0  0  0  0  0  0  0  0  0  0  0
  190.7160  178.1800  142.4410 C   0  0  0  0  0  2  0  0  0  0  0  0
  193.9480  176.2700  137.5000 C   0  0  0  0  0  0  0  0  0  0  0  0
  194.7240  175.3050  137.7300 O   0  0  0  0  0  1  0  0  0  0  0  0
  194.2330  177.1370  136.4510 O   0  0  0  0  0  0  0  0  0  0  0  0
  180.3370  180.2520  139.7360 C   0  0  0  0  0  0  0  0  0  0  0  0
  178.9310  180.3550  139.2670 C   0  0  0  0  0  1  0  0  0  0  0  0
  181.1890  181.0790  139.3180 O   0  0  0  0  0  0  0  0  0  0  0  0
  180.6950  179.2120  140.6540 N   0  0  0  0  0  2  0  0  0  0  0  0
  1 11  1  0  0  0  0
  2 15  1  0  0  0  0
  3 10  1  0  0  0  0
  4  6  2  0  0  0  0
  5  9  2  0  0  0  0
  5  1  1  0  0  0  0
  6  8  1  0  0  0  0
  8  7  1  0  0  0  0
  9  4  1  0  0  0  0
 10 12  1  0  0  0  0
 11  6  1  0  0  0  0
 11 10  2  0  0  0  0
 12  7  1  0  0  0  0
 13  2  2  0  0  0  0
 14 16  2  0  0  0  0
 14 13  1  0  0  0  0
 15  3  1  0  0  0  0
 16 17  1  0  0  0  0
 17  1  1  0  0  0  0
 17 15  2  0  0  0  0
 18 27  1  0  0  0  0
 19 26  2  0  0  0  0
 20 21  1  0  0  0  0
 21 22  2  0  0  0  0
 22 18  1  0  0  0  0
 23 24  2  0  0  0  0
 24 22  1  0  0  0  0
 24 19  1  0  0  0  0
 25 20  2  0  0  0  0
 25 23  1  0  0  0  0
 26 27  1  0  0  0  0
 26  9  1  0  0  0  0
 28 29  1  0  0  0  0
 28 20  1  0  0  0  0
 30 28  2  0  0  0  0
 31 34  1  0  0  0  0
 32 31  1  0  0  0  0
 33 31  2  0  0  0  0
 34 13  1  0  0  0  0
M  END
>  <MODEL>
5

>  <REMARK>
 VINA RESULT:      -9.7      2.617      9.350
  Name = 
  3 active torsions:
  status: ('A' for Active; 'I' for Inactive)
    1  A    between atoms: C_7  and  C_11
    2  A    between atoms: C_18  and  C_30
    3  A    between atoms: C_23  and  N_25
                            x       y       z     vdW  Elec       q    Type
                         _______ _______ _______ _____ _____    ______ ____

>  <TORSDO>
F 3

$$$$
=
 OpenBabel10262423283D

 34 39  0  0  0  0  0  0  0  0999 V2000
  182.3110  177.8820  141.1120 N   0  0  0  0  0  0  0  0  0  0  0  0
  180.8540  176.6410  137.9100 C   0  0  0  0  0  3  0  0  0  0  0  0
  179.9750  178.1210  139.6190 O   0  0  0  0  0  0  0  0  0  0  0  0
  182.4880  179.3040  143.5480 C   0  0  0  0  0  3  0  0  0  0  0  0
  183.4990  177.7880  141.9160 C   0  0  0  0  0  3  0  0  0  0  0  0
  181.3650  179.4390  142.8400 C   0  0  0  0  0  0  0  0  0  0  0  0
  179.3930  180.8000  142.2000 C   0  0  0  0  0  2  0  0  0  0  0  0
  180.2430  180.2840  143.3600 C   0  0  0  0  0  2  0  0  0  0  0  0
  183.6110  178.4510  143.0800 C   0  0  0  0  0  0  0  0  0  0  0  0
  180.0940  178.8140  140.8330 C   0  0  0  0  0  0  0  0  0  0  0  0
  181.2180  178.7010  141.5690 C   0  0  0  0  0  0  0  0  0  0  0  0
  178.9310  179.6390  141.3170 C   0  0  0  0  0  2  0  0  0  0  0  0
  181.8820  175.8310  137.4170 C   0  0  0  0  0  0  0  0  0  0  0  0
  183.0680  175.6960  138.1550 C   0  0  0  0  0  3  0  0  0  0  0  0
  181.0050  177.3120  139.1270 C   0  0  0  0  0  0  0  0  0  0  0  0
  183.2240  176.3650  139.3720 C   0  0  0  0  0  3  0  0  0  0  0  0
  182.1920  177.1770  139.8650 C   0  0  0  0  0  0  0  0  0  0  0  0
  185.8900  178.3150  146.1930 C   0  0  0  0  0  2  0  0  0  0  0  0
  185.9170  177.6900  143.3840 C   0  0  0  0  0  3  0  0  0  0  0  0
  189.5150  177.3030  145.6620 C   0  0  0  0  0  0  0  0  0  0  0  0
  188.3400  177.7660  146.2700 C   0  0  0  0  0  3  0  0  0  0  0  0
  187.1670  177.9040  145.5230 C   0  0  0  0  0  0  0  0  0  0  0  0
  188.3230  177.0790  143.5560 C   0  0  0  0  0  3  0  0  0  0  0  0
  187.1580  177.5530  144.1620 C   0  0  0  0  0  0  0  0  0  0  0  0
  189.4980  176.9560  144.3030 C   0  0  0  0  0  3  0  0  0  0  0  0
  184.8510  178.3340  143.8830 C   0  0  0  0  0  0  0  0  0  0  0  0
  184.9670  179.0480  145.2140 C   0  0  0  0  0  2  0  0  0  0  0  0
  190.7500  177.1690  146.4520 C   0  0  0  0  0  0  0  0  0  0  0  0
  191.8710  177.1200  145.8790 O   0  0  0  0  0  0  0  0  0  0  0  0
  190.6910  177.0970  147.8380 O   0  0  0  0  0  1  0  0  0  0  0  0
  181.3610  173.7770  135.9740 C   0  0  0  0  0  0  0  0  0  0  0  0
  181.1970  173.2520  134.5940 C   0  0  0  0  0  1  0  0  0  0  0  0
  181.2080  173.0000  136.9530 O   0  0  0  0  0  0  0  0  0  0  0  0
  181.6880  175.1590  136.1640 N   0  0  0  0  0  2  0  0  0  0  0  0
  1 11  1  0  0  0  0
  1  5  1  0  0  0  0
  2 15  1  0  0  0  0
  3 10  1  0  0  0  0
  5  9  2  0  0  0  0
  6  8  1  0  0  0  0
  6  4  2  0  0  0  0
  7  8  1  0  0  0  0
  9  4  1  0  0  0  0
  9 26  1  0  0  0  0
 10 12  1  0  0  0  0
 10 11  2  0  0  0  0
 11  6  1  0  0  0  0
 12  7  1  0  0  0  0
 13  2  2  0  0  0  0
 13 14  1  0  0  0  0
 14 16  2  0  0  0  0
 15  3  1  0  0  0  0
 15 17  2  0  0  0  0
 16 17  1  0  0  0  0
 17  1  1  0  0  0  0
 19 26  2  0  0  0  0
 19 24  1  0  0  0  0
 20 21  1  0  0  0  0
 20 28  1  0  0  0  0
 22 18  1  0  0  0  0
 22 21  2  0  0  0  0
 23 24  2  0  0  0  0
 23 25  1  0  0  0  0
 24 22  1  0  0  0  0
 25 20  2  0  0  0  0
 26 27  1  0  0  0  0
 27 18  1  0  0  0  0
 28 30  1  0  0  0  0
 29 28  2  0  0  0  0
 31 34  1  0  0  0  0
 31 33  2  0  0  0  0
 32 31  1  0  0  0  0
 34 13  1  0  0  0  0
M  END
>  <MODEL>
6

>  <REMARK>
 VINA RESULT:      -9.5      3.794      9.420
  Name = 
  3 active torsions:
  status: ('A' for Active; 'I' for Inactive)
    1  A    between atoms: C_7  and  C_11
    2  A    between atoms: C_18  and  C_30
    3  A    between atoms: C_23  and  N_25
                            x       y       z     vdW  Elec       q    Type
                         _______ _______ _______ _____ _____    ______ ____

>  <TORSDO>
F 3

$$$$
=
 OpenBabel10262423283D

 34 39  0  0  0  0  0  0  0  0999 V2000
  188.5690  176.9950  138.1290 N   0  0  0  0  0  0  0  0  0  0  0  0
  186.0930  177.0090  135.3380 C   0  0  0  0  0  3  0  0  0  0  0  0
  188.4960  176.6780  135.3650 O   0  0  0  0  0  0  0  0  0  0  0  0
  191.0690  176.7870  139.4300 C   0  0  0  0  0  3  0  0  0  0  0  0
  188.6530  177.1520  139.5560 C   0  0  0  0  0  3  0  0  0  0  0  0
  191.0510  176.6220  138.1060 C   0  0  0  0  0  0  0  0  0  0  0  0
  192.0410  175.6190  136.0640 C   0  0  0  0  0  2  0  0  0  0  0  0
  192.3270  176.3770  137.3600 C   0  0  0  0  0  2  0  0  0  0  0  0
  189.8290  177.0610  140.2010 C   0  0  0  0  0  0  0  0  0  0  0  0
  189.7220  176.5810  136.0400 C   0  0  0  0  0  0  0  0  0  0  0  0
  189.7710  176.7400  137.3790 C   0  0  0  0  0  0  0  0  0  0  0  0
  190.9760  176.3480  135.2410 C   0  0  0  0  0  2  0  0  0  0  0  0
  184.8930  177.2560  136.0140 C   0  0  0  0  0  0  0  0  0  0  0  0
  184.9090  177.4200  137.4080 C   0  0  0  0  0  3  0  0  0  0  0  0
  187.2970  176.9250  136.0440 C   0  0  0  0  0  0  0  0  0  0  0  0
  186.1100  177.3370  138.1180 C   0  0  0  0  0  3  0  0  0  0  0  0
  187.3110  177.0890  137.4380 C   0  0  0  0  0  0  0  0  0  0  0  0
  191.2010  178.0470  143.6730 C   0  0  0  0  0  2  0  0  0  0  0  0
  188.7430  177.2830  142.3830 C   0  0  0  0  0  3  0  0  0  0  0  0
  188.8290  177.7770  146.6300 C   0  0  0  0  0  0  0  0  0  0  0  0
  189.9970  177.9490  145.8740 C   0  0  0  0  0  3  0  0  0  0  0  0
  189.9720  177.7770  144.4880 C   0  0  0  0  0  0  0  0  0  0  0  0
  187.5970  177.2940  144.5910 C   0  0  0  0  0  3  0  0  0  0  0  0
  188.7650  177.4530  143.8440 C   0  0  0  0  0  0  0  0  0  0  0  0
  187.6290  177.4530  145.9800 C   0  0  0  0  0  3  0  0  0  0  0  0
  189.8800  177.2250  141.6730 C   0  0  0  0  0  0  0  0  0  0  0  0
  191.2110  177.1980  142.3970 C   0  0  0  0  0  2  0  0  0  0  0  0
  188.8630  177.9500  148.0910 C   0  0  0  0  0  0  0  0  0  0  0  0
  189.9430  178.2360  148.6740 O   0  0  0  0  0  0  0  0  0  0  0  0
  187.7040  177.8010  148.8420 O   0  0  0  0  0  1  0  0  0  0  0  0
  182.4710  176.6010  135.4900 C   0  0  0  0  0  0  0  0  0  0  0  0
  181.3050  176.8130  134.5940 C   0  0  0  0  0  1  0  0  0  0  0  0
  182.3780  175.7810  136.4410 O   0  0  0  0  0  0  0  0  0  0  0  0
  183.6790  177.3350  135.2540 N   0  0  0  0  0  2  0  0  0  0  0  0
  1  5  1  0  0  0  0
  2 13  2  0  0  0  0
  2 15  1  0  0  0  0
  3 10  1  0  0  0  0
  3 15  1  0  0  0  0
  4  9  1  0  0  0  0
  5  9  2  0  0  0  0
  6  4  2  0  0  0  0
  7  8  1  0  0  0  0
  8  6  1  0  0  0  0
  9 26  1  0  0  0  0
 10 11  2  0  0  0  0
 11  6  1  0  0  0  0
 11  1  1  0  0  0  0
 12 10  1  0  0  0  0
 12  7  1  0  0  0  0
 13 14  1  0  0  0  0
 14 16  2  0  0  0  0
 15 17  2  0  0  0  0
 17 16  1  0  0  0  0
 17  1  1  0  0  0  0
 18 22  1  0  0  0  0
 19 24  1  0  0  0  0
 20 28  1  0  0  0  0
 21 20  2  0  0  0  0
 22 21  1  0  0  0  0
 23 25  2  0  0  0  0
 24 22  2  0  0  0  0
 24 23  1  0  0  0  0
 25 20  1  0  0  0  0
 26 19  2  0  0  0  0
 26 27  1  0  0  0  0
 27 18  1  0  0  0  0
 28 29  2  0  0  0  0
 28 30  1  0  0  0  0
 31 33  2  0  0  0  0
 32 31  1  0  0  0  0
 34 31  1  0  0  0  0
 34 13  1  0  0  0  0
M  END
>  <MODEL>
7

>  <REMARK>
 VINA RESULT:      -9.0      4.018      8.465
  Name = 
  3 active torsions:
  status: ('A' for Active; 'I' for Inactive)
    1  A    between atoms: C_7  and  C_11
    2  A    between atoms: C_18  and  C_30
    3  A    between atoms: C_23  and  N_25
                            x       y       z     vdW  Elec       q    Type
                         _______ _______ _______ _____ _____    ______ ____

>  <TORSDO>
F 3

$$$$
=
 OpenBabel10262423283D

 34 39  0  0  0  0  0  0  0  0999 V2000
  186.5870  178.2320  139.6690 N   0  0  0  0  0  0  0  0  0  0  0  0
  183.0930  179.0220  138.6270 C   0  0  0  0  0  3  0  0  0  0  0  0
  185.1150  178.6390  137.3420 O   0  0  0  0  0  0  0  0  0  0  0  0
  189.3380  177.6380  139.4190 C   0  0  0  0  0  3  0  0  0  0  0  0
  187.3860  178.0140  140.8440 C   0  0  0  0  0  3  0  0  0  0  0  0
  188.6460  177.8190  138.2930 C   0  0  0  0  0  0  0  0  0  0  0  0
  188.3350  177.3540  135.8760 C   0  0  0  0  0  2  0  0  0  0  0  0
  189.3340  177.7460  136.9650 C   0  0  0  0  0  2  0  0  0  0  0  0
  188.6970  177.7330  140.7560 C   0  0  0  0  0  0  0  0  0  0  0  0
  186.4830  178.3440  137.2520 C   0  0  0  0  0  0  0  0  0  0  0  0
  187.2080  178.1510  138.3720 C   0  0  0  0  0  0  0  0  0  0  0  0
  187.1290  178.2950  135.8930 C   0  0  0  0  0  2  0  0  0  0  0  0
  182.4350  179.1150  139.8580 C   0  0  0  0  0  0  0  0  0  0  0  0
  183.1600  178.9140  141.0430 C   0  0  0  0  0  3  0  0  0  0  0  0
  184.4590  178.7310  138.5750 C   0  0  0  0  0  0  0  0  0  0  0  0
  184.5260  178.6230  140.9970 C   0  0  0  0  0  3  0  0  0  0  0  0
  185.1830  178.5300  139.7610 C   0  0  0  0  0  0  0  0  0  0  0  0
  191.7660  177.6260  143.0960 C   0  0  0  0  0  2  0  0  0  0  0  0
  188.8910  177.5320  143.1870 C   0  0  0  0  0  3  0  0  0  0  0  0
  191.1340  176.9200  146.7760 C   0  0  0  0  0  0  0  0  0  0  0  0
  191.7930  177.1280  145.5570 C   0  0  0  0  0  3  0  0  0  0  0  0
  191.0610  177.3170  144.3820 C   0  0  0  0  0  0  0  0  0  0  0  0
  188.9950  177.1280  145.6400 C   0  0  0  0  0  3  0  0  0  0  0  0
  189.6560  177.3220  144.4260 C   0  0  0  0  0  0  0  0  0  0  0  0
  189.7310  176.9250  146.8110 C   0  0  0  0  0  3  0  0  0  0  0  0
  189.4910  177.5110  141.9880 C   0  0  0  0  0  0  0  0  0  0  0  0
  190.9550  177.1330  141.8920 C   0  0  0  0  0  2  0  0  0  0  0  0
  191.9110  176.7120  148.0090 C   0  0  0  0  0  0  0  0  0  0  0  0
  192.0520  177.6490  148.8400 O   0  0  0  0  0  1  0  0  0  0  0  0
  192.4950  175.4780  148.2690 O   0  0  0  0  0  0  0  0  0  0  0  0
  180.4190  180.6520  139.4830 C   0  0  0  0  0  0  0  0  0  0  0  0
  178.9400  180.7840  139.5590 C   0  0  0  0  0  1  0  0  0  0  0  0
  181.1050  181.6280  139.0820 O   0  0  0  0  0  0  0  0  0  0  0  0
  181.0330  179.4160  139.8680 N   0  0  0  0  0  2  0  0  0  0  0  0
  1 17  1  0  0  0  0
  1  5  1  0  0  0  0
  2 13  1  0  0  0  0
  3 15  1  0  0  0  0
  4  9  1  0  0  0  0
  6 11  1  0  0  0  0
  6  4  2  0  0  0  0
  7 12  1  0  0  0  0
  7  8  1  0  0  0  0
  8  6  1  0  0  0  0
  9  5  2  0  0  0  0
  9 26  1  0  0  0  0
 10  3  1  0  0  0  0
 10 11  2  0  0  0  0
 11  1  1  0  0  0  0
 12 10  1  0  0  0  0
 13 34  1  0  0  0  0
 13 14  2  0  0  0  0
 15  2  2  0  0  0  0
 15 17  1  0  0  0  0
 16 14  1  0  0  0  0
 17 16  2  0  0  0  0
 18 22  1  0  0  0  0
 19 24  1  0  0  0  0
 20 25  1  0  0  0  0
 20 28  1  0  0  0  0
 21 20  2  0  0  0  0
 22 24  2  0  0  0  0
 22 21  1  0  0  0  0
 23 25  2  0  0  0  0
 24 23  1  0  0  0  0
 26 19  2  0  0  0  0
 27 26  1  0  0  0  0
 27 18  1  0  0  0  0
 28 30  2  0  0  0  0
 28 29  1  0  0  0  0
 31 32  1  0  0  0  0
 31 34  1  0  0  0  0
 33 31  2  0  0  0  0
M  END
>  <MODEL>
8

>  <REMARK>
 VINA RESULT:      -8.9      3.349      9.679
  Name = 
  3 active torsions:
  status: ('A' for Active; 'I' for Inactive)
    1  A    between atoms: C_7  and  C_11
    2  A    between atoms: C_18  and  C_30
    3  A    between atoms: C_23  and  N_25
                            x       y       z     vdW  Elec       q    Type
                         _______ _______ _______ _____ _____    ______ ____

>  <TORSDO>
F 3

$$$$
=
 OpenBabel10262423283D

 34 39  0  0  0  0  0  0  0  0999 V2000
  189.4850  177.1230  143.9830 N   0  0  0  0  0  0  0  0  0  0  0  0
  192.4320  176.1860  146.0690 C   0  0  0  0  0  3  0  0  0  0  0  0
  192.1630  176.4340  143.6700 O   0  0  0  0  0  0  0  0  0  0  0  0
  187.9790  177.7090  141.6640 C   0  0  0  0  0  3  0  0  0  0  0  0
  188.0970  177.4840  144.0970 C   0  0  0  0  0  3  0  0  0  0  0  0
  189.2640  177.3910  141.4970 C   0  0  0  0  0  0  0  0  0  0  0  0
  191.3540  177.5690  140.1730 C   0  0  0  0  0  2  0  0  0  0  0  0
  189.8480  177.3160  140.1200 C   0  0  0  0  0  2  0  0  0  0  0  0
  187.3560  177.7650  143.0120 C   0  0  0  0  0  0  0  0  0  0  0  0
  191.3880  176.7300  142.5390 C   0  0  0  0  0  0  0  0  0  0  0  0
  190.0880  177.0580  142.6770 C   0  0  0  0  0  0  0  0  0  0  0  0
  192.0210  176.6260  141.1770 C   0  0  0  0  0  2  0  0  0  0  0  0
  191.9010  176.2310  147.3620 C   0  0  0  0  0  0  0  0  0  0  0  0
  190.5520  176.5750  147.5410 C   0  0  0  0  0  3  0  0  0  0  0  0
  191.6290  176.4810  144.9640 C   0  0  0  0  0  0  0  0  0  0  0  0
  189.7450  176.8720  146.4390 C   0  0  0  0  0  3  0  0  0  0  0  0
  190.2800  176.8250  145.1440 C   0  0  0  0  0  0  0  0  0  0  0  0
  184.1840  179.3330  144.5580 C   0  0  0  0  0  2  0  0  0  0  0  0
  185.1320  178.1980  142.0880 C   0  0  0  0  0  3  0  0  0  0  0  0
  181.0120  179.2810  142.4660 C   0  0  0  0  0  0  0  0  0  0  0  0
  181.8880  179.4420  143.5480 C   0  0  0  0  0  3  0  0  0  0  0  0
  183.2320  179.0780  143.4290 C   0  0  0  0  0  0  0  0  0  0  0  0
  182.8480  178.4200  141.1260 C   0  0  0  0  0  3  0  0  0  0  0  0
  183.7140  178.5700  142.2110 C   0  0  0  0  0  0  0  0  0  0  0  0
  181.5020  178.7720  141.2530 C   0  0  0  0  0  3  0  0  0  0  0  0
  185.9290  178.1360  143.1660 C   0  0  0  0  0  0  0  0  0  0  0  0
  185.3330  178.3190  144.5470 C   0  0  0  0  0  2  0  0  0  0  0  0
  179.5960  179.6570  142.6000 C   0  0  0  0  0  0  0  0  0  0  0  0
  178.9320  179.2960  143.6080 O   0  0  0  0  0  1  0  0  0  0  0  0
  178.9760  180.4170  141.6150 O   0  0  0  0  0  0  0  0  0  0  0  0
  193.1970  176.8240  149.4920 C   0  0  0  0  0  0  0  0  0  0  0  0
  194.0900  176.3230  150.5690 C   0  0  0  0  0  1  0  0  0  0  0  0
  192.8400  178.0310  149.4980 O   0  0  0  0  0  0  0  0  0  0  0  0
  192.7590  175.9210  148.4690 N   0  0  0  0  0  2  0  0  0  0  0  0
  1  5  1  0  0  0  0
  1 17  1  0  0  0  0
  2 13  1  0  0  0  0
  3 15  1  0  0  0  0
  4  9  1  0  0  0  0
  6  4  2  0  0  0  0
  6 11  1  0  0  0  0
  7 12  1  0  0  0  0
  8  7  1  0  0  0  0
  8  6  1  0  0  0  0
  9 26  1  0  0  0  0
  9  5  2  0  0  0  0
 10 11  2  0  0  0  0
 10  3  1  0  0  0  0
 11  1  1  0  0  0  0
 12 10  1  0  0  0  0
 13 14  2  0  0  0  0
 13 34  1  0  0  0  0
 15 17  1  0  0  0  0
 15  2  2  0  0  0  0
 16 14  1  0  0  0  0
 17 16  2  0  0  0  0
 19 24  1  0  0  0  0
 19 26  2  0  0  0  0
 20 28  1  0  0  0  0
 20 21  1  0  0  0  0
 22 21  2  0  0  0  0
 22 18  1  0  0  0  0
 23 25  1  0  0  0  0
 23 24  2  0  0  0  0
 24 22  1  0  0  0  0
 25 20  2  0  0  0  0
 26 27  1  0  0  0  0
 27 18  1  0  0  0  0
 28 29  1  0  0  0  0
 30 28  2  0  0  0  0
 31 33  2  0  0  0  0
 31 32  1  0  0  0  0
 34 31  1  0  0  0  0
M  END
>  <MODEL>
9

>  <REMARK>
 VINA RESULT:      -8.6      1.947      5.208
  Name = 
  3 active torsions:
  status: ('A' for Active; 'I' for Inactive)
    1  A    between atoms: C_7  and  C_11
    2  A    between atoms: C_18  and  C_30
    3  A    between atoms: C_23  and  N_25
                            x       y       z     vdW  Elec       q    Type
                         _______ _______ _______ _____ _____    ______ ____

>  <TORSDO>
F 3

$$$$
