=
 OpenBabel10262420083D

 27 29  0  0  1  0  0  0  0  0999 V2000
  187.6150  176.0120  143.5360 C   0  0  0  0  0  1  0  0  0  0  0  0
  188.3880  177.2960  143.8710 C   0  0  2  0  0  0  0  0  0  0  0  0
  191.7250  178.3160  142.2550 C   0  0  0  0  0  3  0  0  0  0  0  0
  191.8000  177.3860  141.2210 C   0  0  0  0  0  3  0  0  0  0  0  0
  189.6120  177.3470  142.9600 C   0  0  0  0  0  0  0  0  0  0  0  0
  190.6060  179.3450  144.2060 C   0  0  0  0  0  1  0  0  0  0  0  0
  190.7740  176.4570  141.0690 C   0  0  0  0  0  3  0  0  0  0  0  0
  189.7200  176.4600  141.9260 N   0  0  0  0  0  0  0  0  0  0  0  0
  190.6380  178.3120  143.1300 C   0  0  0  0  0  0  0  0  0  0  0  0
  189.6450  177.4380  148.0250 C   0  0  0  0  0  3  0  0  0  0  0  0
  188.8170  177.2980  145.3400 C   0  0  0  0  0  0  0  0  0  0  0  0
  188.0300  177.9580  146.2990 C   0  0  0  0  0  3  0  0  0  0  0  0
  188.4380  178.0220  147.6350 C   0  0  0  0  0  3  0  0  0  0  0  0
  190.4500  176.7980  147.0790 C   0  0  0  0  0  3  0  0  0  0  0  0
  190.0420  176.7360  145.7430 C   0  0  0  0  0  3  0  0  0  0  0  0
  187.5480  178.4730  143.5890 N   0  0  0  0  0  2  0  0  0  0  0  0
  186.6260  178.2300  142.4800 C   0  0  0  0  0  2  0  0  0  0  0  0
  183.7570  178.8130  144.8410 C   0  0  0  0  0  3  0  0  0  0  0  0
  181.4200  179.0680  144.5060 F   0  0  0  0  0  0  0  0  0  0  0  0
  182.8220  178.6810  142.6110 C   0  0  0  0  0  0  0  0  0  0  0  0
  181.7060  178.7290  141.7820 O   0  0  0  0  0  1  0  0  0  0  0  0
  184.1050  178.4570  142.0680 C   0  0  0  0  0  0  0  0  0  0  0  0
  182.6550  178.8550  143.9900 C   0  0  0  0  0  0  0  0  0  0  0  0
  185.2200  178.4130  142.9480 C   0  0  0  0  0  0  0  0  0  0  0  0
  185.0310  178.5970  144.3210 C   0  0  0  0  0  3  0  0  0  0  0  0
  184.4240  179.2390  139.7150 C   0  0  0  0  0  2  0  0  0  0  0  0
  184.1930  178.2760  140.5980 C   0  0  0  0  0  3  0  0  0  0  0  0
  2  1  1  6  0  0  0
  2 11  1  0  0  0  0
  3  9  1  0  0  0  0
  4  3  2  0  0  0  0
  5  9  2  0  0  0  0
  5  2  1  0  0  0  0
  7  4  1  0  0  0  0
  7  8  2  0  0  0  0
  8  5  1  0  0  0  0
  9  6  1  0  0  0  0
 11 15  2  0  0  0  0
 11 12  1  0  0  0  0
 12 13  2  0  0  0  0
 13 10  1  0  0  0  0
 14 10  2  0  0  0  0
 15 14  1  0  0  0  0
 16  2  1  0  0  0  0
 17 24  1  0  0  0  0
 17 16  1  0  0  0  0
 20 23  1  0  0  0  0
 21 20  1  0  0  0  0
 22 20  2  0  0  0  0
 22 24  1  0  0  0  0
 23 19  1  0  0  0  0
 23 18  2  0  0  0  0
 24 25  2  0  0  0  0
 25 18  1  0  0  0  0
 26 27  2  0  0  0  0
 27 22  1  0  0  0  0
M  END
>  <MODEL>
1

>  <REMARK>
 VINA RESULT:      -7.6      0.000      0.000
  Name = 
  6 active torsions:
  status: ('A' for Active; 'I' for Inactive)
    1  A    between atoms: N_2  and  C_6
    2  A    between atoms: N_2  and  C_15
    3  A    between atoms: C_6  and  C_17
    4  A    between atoms: C_9  and  C_15
    5  A    between atoms: C_14  and  C_19
    6  A    between atoms: C_15  and  C_18
                            x       y       z     vdW  Elec       q    Type
                         _______ _______ _______ _____ _____    ______ ____

>  <TORSDO>
F 6

$$$$
=
 OpenBabel10262420083D

 27 29  0  0  1  0  0  0  0  0999 V2000
  189.7990  178.8880  142.4830 C   0  0  0  0  0  1  0  0  0  0  0  0
  189.9150  177.3730  142.2600 C   0  0  2  0  0  0  0  0  0  0  0  0
  191.6030  176.9520  145.6890 C   0  0  0  0  0  3  0  0  0  0  0  0
  192.0630  175.6420  145.5860 C   0  0  0  0  0  3  0  0  0  0  0  0
  190.6600  176.7870  143.4570 C   0  0  0  0  0  0  0  0  0  0  0  0
  190.4530  178.9530  144.7990 C   0  0  0  0  0  1  0  0  0  0  0  0
  191.8190  174.9290  144.4150 C   0  0  0  0  0  3  0  0  0  0  0  0
  191.1380  175.5090  143.3940 N   0  0  0  0  0  0  0  0  0  0  0  0
  190.9040  177.5400  144.6350 C   0  0  0  0  0  0  0  0  0  0  0  0
  192.0530  176.6680  138.5480 C   0  0  0  0  0  3  0  0  0  0  0  0
  190.6710  177.0760  140.9640 C   0  0  0  0  0  0  0  0  0  0  0  0
  192.0170  177.4600  140.8340 C   0  0  0  0  0  3  0  0  0  0  0  0
  192.7060  177.2500  139.6360 C   0  0  0  0  0  3  0  0  0  0  0  0
  190.7090  176.3020  138.6530 C   0  0  0  0  0  3  0  0  0  0  0  0
  190.0200  176.5120  139.8520 C   0  0  0  0  0  3  0  0  0  0  0  0
  188.5710  176.7710  142.2090 N   0  0  0  0  0  2  0  0  0  0  0  0
  188.0240  176.5470  143.5470 C   0  0  0  0  0  2  0  0  0  0  0  0
  185.1750  178.8820  142.7900 C   0  0  0  0  0  3  0  0  0  0  0  0
  183.6240  180.0340  144.1710 F   0  0  0  0  0  0  0  0  0  0  0  0
  185.2910  178.6660  145.1990 C   0  0  0  0  0  0  0  0  0  0  0  0
  184.7840  178.9990  146.4510 O   0  0  0  0  0  1  0  0  0  0  0  0
  186.4000  177.8010  145.0850 C   0  0  0  0  0  0  0  0  0  0  0  0
  184.6880  179.2020  144.0560 C   0  0  0  0  0  0  0  0  0  0  0  0
  186.8890  177.4850  143.7880 C   0  0  0  0  0  0  0  0  0  0  0  0
  186.2660  178.0260  142.6590 C   0  0  0  0  0  3  0  0  0  0  0  0
  187.9770  177.8440  147.0240 C   0  0  0  0  0  2  0  0  0  0  0  0
  186.9840  177.2820  146.3470 C   0  0  0  0  0  3  0  0  0  0  0  0
  2  1  1  1  0  0  0
  2  5  1  0  0  0  0
  4  3  1  0  0  0  0
  5  9  1  0  0  0  0
  7  4  2  0  0  0  0
  8  5  2  0  0  0  0
  8  7  1  0  0  0  0
  9  6  1  0  0  0  0
  9  3  2  0  0  0  0
 10 14  2  0  0  0  0
 10 13  1  0  0  0  0
 11  2  1  0  0  0  0
 12 11  1  0  0  0  0
 13 12  2  0  0  0  0
 14 15  1  0  0  0  0
 15 11  2  0  0  0  0
 16  2  1  0  0  0  0
 16 17  1  0  0  0  0
 17 24  1  0  0  0  0
 18 23  1  0  0  0  0
 20 21  1  0  0  0  0
 22 20  1  0  0  0  0
 22 27  1  0  0  0  0
 23 19  1  0  0  0  0
 23 20  2  0  0  0  0
 24 22  2  0  0  0  0
 25 18  2  0  0  0  0
 25 24  1  0  0  0  0
 27 26  2  0  0  0  0
M  END
>  <MODEL>
2

>  <REMARK>
 VINA RESULT:      -7.6      1.897      4.866
  Name = 
  6 active torsions:
  status: ('A' for Active; 'I' for Inactive)
    1  A    between atoms: N_2  and  C_6
    2  A    between atoms: N_2  and  C_15
    3  A    between atoms: C_6  and  C_17
    4  A    between atoms: C_9  and  C_15
    5  A    between atoms: C_14  and  C_19
    6  A    between atoms: C_15  and  C_18
                            x       y       z     vdW  Elec       q    Type
                         _______ _______ _______ _____ _____    ______ ____

>  <TORSDO>
F 6

$$$$
=
 OpenBabel10262420083D

 27 29  0  0  1  0  0  0  0  0999 V2000
  183.4500  179.7010  139.2830 C   0  0  0  0  0  1  0  0  0  0  0  0
  182.8780  178.3870  139.8340 C   0  0  2  0  0  0  0  0  0  0  0  0
  182.2270  176.6970  136.4420 C   0  0  0  0  0  3  0  0  0  0  0  0
  182.8270  175.4590  136.6570 C   0  0  0  0  0  3  0  0  0  0  0  0
  182.8530  177.3790  138.6880 C   0  0  0  0  0  0  0  0  0  0  0  0
  181.5530  178.9660  137.1630 C   0  0  0  0  0  1  0  0  0  0  0  0
  183.4240  175.2000  137.8880 C   0  0  0  0  0  3  0  0  0  0  0  0
  183.4210  176.1480  138.8600 N   0  0  0  0  0  0  0  0  0  0  0  0
  182.2280  177.6660  137.4470 C   0  0  0  0  0  0  0  0  0  0  0  0
  178.9310  179.0350  141.5230 C   0  0  0  0  0  3  0  0  0  0  0  0
  181.4670  178.6030  140.3850 C   0  0  0  0  0  0  0  0  0  0  0  0
  180.9880  179.9080  140.5960 C   0  0  0  0  0  3  0  0  0  0  0  0
  179.7250  180.1230  141.1550 C   0  0  0  0  0  3  0  0  0  0  0  0
  179.4020  177.7320  141.3420 C   0  0  0  0  0  3  0  0  0  0  0  0
  180.6660  177.5180  140.7830 C   0  0  0  0  0  3  0  0  0  0  0  0
  183.7580  177.8640  140.8940 N   0  0  0  0  0  2  0  0  0  0  0  0
  184.6900  178.8830  141.3790 C   0  0  0  0  0  2  0  0  0  0  0  0
  187.0030  177.5290  144.0180 C   0  0  0  0  0  3  0  0  0  0  0  0
  186.8720  177.4440  146.3860 F   0  0  0  0  0  0  0  0  0  0  0  0
  185.0640  178.4150  145.1650 C   0  0  0  0  0  0  0  0  0  0  0  0
  184.4000  178.6700  146.3610 O   0  0  0  0  0  1  0  0  0  0  0  0
  184.4800  178.7790  143.9330 C   0  0  0  0  0  0  0  0  0  0  0  0
  186.3170  177.7930  145.2010 C   0  0  0  0  0  0  0  0  0  0  0  0
  185.1890  178.5010  142.7330 C   0  0  0  0  0  0  0  0  0  0  0  0
  186.4430  177.8850  142.7930 C   0  0  0  0  0  3  0  0  0  0  0  0
  181.9800  178.7960  143.9810 C   0  0  0  0  0  2  0  0  0  0  0  0
  183.1460  179.4280  143.9840 C   0  0  0  0  0  3  0  0  0  0  0  0
  2  1  1  6  0  0  0
  2 11  1  0  0  0  0
  2 16  1  0  0  0  0
  3  4  2  0  0  0  0
  3  9  1  0  0  0  0
  4  7  1  0  0  0  0
  5  8  1  0  0  0  0
  5  2  1  0  0  0  0
  6  9  1  0  0  0  0
  7  8  2  0  0  0  0
  9  5  2  0  0  0  0
 11 12  2  0  0  0  0
 11 15  1  0  0  0  0
 12 13  1  0  0  0  0
 13 10  2  0  0  0  0
 14 10  1  0  0  0  0
 15 14  2  0  0  0  0
 16 17  1  0  0  0  0
 17 24  1  0  0  0  0
 18 23  1  0  0  0  0
 20 23  2  0  0  0  0
 20 21  1  0  0  0  0
 22 27  1  0  0  0  0
 22 20  1  0  0  0  0
 23 19  1  0  0  0  0
 24 25  1  0  0  0  0
 24 22  2  0  0  0  0
 25 18  2  0  0  0  0
 26 27  2  0  0  0  0
M  END
>  <MODEL>
3

>  <REMARK>
 VINA RESULT:      -7.4      3.502      7.790
  Name = 
  6 active torsions:
  status: ('A' for Active; 'I' for Inactive)
    1  A    between atoms: N_2  and  C_6
    2  A    between atoms: N_2  and  C_15
    3  A    between atoms: C_6  and  C_17
    4  A    between atoms: C_9  and  C_15
    5  A    between atoms: C_14  and  C_19
    6  A    between atoms: C_15  and  C_18
                            x       y       z     vdW  Elec       q    Type
                         _______ _______ _______ _____ _____    ______ ____

>  <TORSDO>
F 6

$$$$
=
 OpenBabel10262420083D

 27 29  0  0  1  0  0  0  0  0999 V2000
  189.9800  178.8000  143.3080 C   0  0  0  0  0  1  0  0  0  0  0  0
  190.0030  177.3250  142.8810 C   0  0  2  0  0  0  0  0  0  0  0  0
  191.6800  176.2810  146.1800 C   0  0  0  0  0  3  0  0  0  0  0  0
  192.2830  175.0870  145.7910 C   0  0  0  0  0  3  0  0  0  0  0  0
  190.7920  176.5530  143.9360 C   0  0  0  0  0  0  0  0  0  0  0  0
  190.3290  178.3060  145.7380 C   0  0  0  0  0  1  0  0  0  0  0  0
  192.1350  174.6510  144.4770 C   0  0  0  0  0  3  0  0  0  0  0  0
  191.4080  175.3830  143.5930 N   0  0  0  0  0  0  0  0  0  0  0  0
  190.9350  177.0270  145.2660 C   0  0  0  0  0  0  0  0  0  0  0  0
  191.8800  176.7530  139.0070 C   0  0  0  0  0  3  0  0  0  0  0  0
  190.6600  177.1730  141.5070 C   0  0  0  0  0  0  0  0  0  0  0  0
  189.9390  176.6000  140.4450 C   0  0  0  0  0  3  0  0  0  0  0  0
  190.5430  176.3980  139.2000 C   0  0  0  0  0  3  0  0  0  0  0  0
  192.6170  177.3020  140.0600 C   0  0  0  0  0  3  0  0  0  0  0  0
  192.0120  177.5030  141.3050 C   0  0  0  0  0  3  0  0  0  0  0  0
  188.6300  176.7930  142.8450 N   0  0  0  0  0  2  0  0  0  0  0  0
  187.6420  177.8520  142.6320 C   0  0  0  0  0  2  0  0  0  0  0  0
  186.5340  177.5900  146.2160 C   0  0  0  0  0  3  0  0  0  0  0  0
  184.5520  178.2530  147.3430 F   0  0  0  0  0  0  0  0  0  0  0  0
  184.7290  178.6430  144.9930 C   0  0  0  0  0  0  0  0  0  0  0  0
  183.4590  179.2120  144.9970 O   0  0  0  0  0  1  0  0  0  0  0  0
  185.4650  178.5490  143.7930 C   0  0  0  0  0  0  0  0  0  0  0  0
  185.2640  178.1620  146.1930 C   0  0  0  0  0  0  0  0  0  0  0  0
  186.7580  177.9600  143.8290 C   0  0  0  0  0  0  0  0  0  0  0  0
  187.2760  177.4930  145.0410 C   0  0  0  0  0  3  0  0  0  0  0  0
  184.0970  178.3670  141.7080 C   0  0  0  0  0  2  0  0  0  0  0  0
  184.8210  179.0770  142.5640 C   0  0  0  0  0  3  0  0  0  0  0  0
  2  1  1  1  0  0  0
  2  5  1  0  0  0  0
  4  3  1  0  0  0  0
  5  9  1  0  0  0  0
  7  4  2  0  0  0  0
  8  5  2  0  0  0  0
  8  7  1  0  0  0  0
  9  6  1  0  0  0  0
  9  3  2  0  0  0  0
 10 13  2  0  0  0  0
 10 14  1  0  0  0  0
 11  2  1  0  0  0  0
 12 11  2  0  0  0  0
 13 12  1  0  0  0  0
 14 15  2  0  0  0  0
 15 11  1  0  0  0  0
 16  2  1  0  0  0  0
 17 16  1  0  0  0  0
 17 24  1  0  0  0  0
 20 21  1  0  0  0  0
 20 23  2  0  0  0  0
 22 24  2  0  0  0  0
 22 20  1  0  0  0  0
 23 18  1  0  0  0  0
 23 19  1  0  0  0  0
 24 25  1  0  0  0  0
 25 18  2  0  0  0  0
 26 27  2  0  0  0  0
 27 22  1  0  0  0  0
M  END
>  <MODEL>
4

>  <REMARK>
 VINA RESULT:      -7.3      1.881      4.285
  Name = 
  6 active torsions:
  status: ('A' for Active; 'I' for Inactive)
    1  A    between atoms: N_2  and  C_6
    2  A    between atoms: N_2  and  C_15
    3  A    between atoms: C_6  and  C_17
    4  A    between atoms: C_9  and  C_15
    5  A    between atoms: C_14  and  C_19
    6  A    between atoms: C_15  and  C_18
                            x       y       z     vdW  Elec       q    Type
                         _______ _______ _______ _____ _____    ______ ____

>  <TORSDO>
F 6

$$$$
=
 OpenBabel10262420083D

 27 29  0  0  1  0  0  0  0  0999 V2000
  188.3870  179.3820  141.6650 C   0  0  0  0  0  1  0  0  0  0  0  0
  188.9210  177.9450  141.7480 C   0  0  2  0  0  0  0  0  0  0  0  0
  191.6010  176.7720  144.2440 C   0  0  0  0  0  3  0  0  0  0  0  0
  192.0710  177.9990  144.7060 C   0  0  0  0  0  3  0  0  0  0  0  0
  190.0430  177.9290  142.7840 C   0  0  0  0  0  0  0  0  0  0  0  0
  190.1140  175.3750  142.8450 C   0  0  0  0  0  1  0  0  0  0  0  0
  191.5120  179.1720  144.2040 C   0  0  0  0  0  3  0  0  0  0  0  0
  190.5250  179.1110  143.2720 N   0  0  0  0  0  0  0  0  0  0  0  0
  190.5870  176.7190  143.2870 C   0  0  0  0  0  0  0  0  0  0  0  0
  190.3730  176.5150  137.9140 C   0  0  0  0  0  3  0  0  0  0  0  0
  189.4480  177.4870  140.3860 C   0  0  0  0  0  0  0  0  0  0  0  0
  188.5480  177.2040  139.3450 C   0  0  0  0  0  3  0  0  0  0  0  0
  189.0080  176.7270  138.1140 C   0  0  0  0  0  3  0  0  0  0  0  0
  191.2790  176.7700  138.9460 C   0  0  0  0  0  3  0  0  0  0  0  0
  190.8180  177.2460  140.1780 C   0  0  0  0  0  3  0  0  0  0  0  0
  187.8530  177.0390  142.2050 N   0  0  0  0  0  2  0  0  0  0  0  0
  186.7100  177.7750  142.7440 C   0  0  0  0  0  2  0  0  0  0  0  0
  188.0580  177.1690  146.2030 C   0  0  0  0  0  3  0  0  0  0  0  0
  187.3900  177.9320  148.3490 F   0  0  0  0  0  0  0  0  0  0  0  0
  186.1320  178.6180  146.4380 C   0  0  0  0  0  0  0  0  0  0  0  0
  185.2840  179.3480  147.2650 O   0  0  0  0  0  1  0  0  0  0  0  0
  185.9210  178.5930  145.0430 C   0  0  0  0  0  0  0  0  0  0  0  0
  187.1930  177.9070  147.0090 C   0  0  0  0  0  0  0  0  0  0  0  0
  186.8080  177.8350  144.2320 C   0  0  0  0  0  0  0  0  0  0  0  0
  187.8670  177.1370  144.8230 C   0  0  0  0  0  3  0  0  0  0  0  0
  183.5260  178.9210  144.4090 C   0  0  0  0  0  2  0  0  0  0  0  0
  184.7690  179.3690  144.5200 C   0  0  0  0  0  3  0  0  0  0  0  0
  2  1  1  6  0  0  0
  2 16  1  0  0  0  0
  2  5  1  0  0  0  0
  3  4  1  0  0  0  0
  5  8  2  0  0  0  0
  5  9  1  0  0  0  0
  6  9  1  0  0  0  0
  7  4  2  0  0  0  0
  8  7  1  0  0  0  0
  9  3  2  0  0  0  0
 10 13  2  0  0  0  0
 10 14  1  0  0  0  0
 11  2  1  0  0  0  0
 12 11  2  0  0  0  0
 13 12  1  0  0  0  0
 14 15  2  0  0  0  0
 15 11  1  0  0  0  0
 16 17  1  0  0  0  0
 17 24  1  0  0  0  0
 18 23  1  0  0  0  0
 20 23  2  0  0  0  0
 20 21  1  0  0  0  0
 22 20  1  0  0  0  0
 23 19  1  0  0  0  0
 24 25  1  0  0  0  0
 24 22  2  0  0  0  0
 25 18  2  0  0  0  0
 26 27  2  0  0  0  0
 27 22  1  0  0  0  0
M  END
>  <MODEL>
5

>  <REMARK>
 VINA RESULT:      -7.3      2.611      5.101
  Name = 
  6 active torsions:
  status: ('A' for Active; 'I' for Inactive)
    1  A    between atoms: N_2  and  C_6
    2  A    between atoms: N_2  and  C_15
    3  A    between atoms: C_6  and  C_17
    4  A    between atoms: C_9  and  C_15
    5  A    between atoms: C_14  and  C_19
    6  A    between atoms: C_15  and  C_18
                            x       y       z     vdW  Elec       q    Type
                         _______ _______ _______ _____ _____    ______ ____

>  <TORSDO>
F 6

$$$$
=
 OpenBabel10262420083D

 27 29  0  0  1  0  0  0  0  0999 V2000
  188.9990  178.8170  137.9120 C   0  0  0  0  0  1  0  0  0  0  0  0
  188.7140  177.3340  138.1930 C   0  0  2  0  0  0  0  0  0  0  0  0
  191.2040  175.8330  135.6760 C   0  0  0  0  0  3  0  0  0  0  0  0
  191.9160  174.9720  136.5070 C   0  0  0  0  0  3  0  0  0  0  0  0
  189.8470  176.5220  137.5690 C   0  0  0  0  0  0  0  0  0  0  0  0
  189.4300  177.5030  135.2450 C   0  0  0  0  0  1  0  0  0  0  0  0
  191.5740  174.8940  137.8540 C   0  0  0  0  0  3  0  0  0  0  0  0
  190.5630  175.6560  138.3460 N   0  0  0  0  0  0  0  0  0  0  0  0
  190.1660  176.6120  136.1890 C   0  0  0  0  0  0  0  0  0  0  0  0
  184.8390  176.1690  136.6200 C   0  0  0  0  0  3  0  0  0  0  0  0
  187.3690  176.9210  137.5930 C   0  0  0  0  0  0  0  0  0  0  0  0
  186.3480  177.8750  137.4360 C   0  0  0  0  0  3  0  0  0  0  0  0
  185.0930  177.5030  136.9460 C   0  0  0  0  0  3  0  0  0  0  0  0
  185.8350  175.2050  136.7920 C   0  0  0  0  0  3  0  0  0  0  0  0
  187.0900  175.5780  137.2830 C   0  0  0  0  0  3  0  0  0  0  0  0
  188.7140  177.0910  139.6460 N   0  0  0  0  0  2  0  0  0  0  0  0
  188.7010  178.3410  140.4060 C   0  0  0  0  0  2  0  0  0  0  0  0
  185.2410  178.7640  141.8180 C   0  0  0  0  0  3  0  0  0  0  0  0
  184.2830  178.2320  143.9240 F   0  0  0  0  0  0  0  0  0  0  0  0
  186.5960  177.7640  143.5570 C   0  0  0  0  0  0  0  0  0  0  0  0
  186.6930  177.2570  144.8490 O   0  0  0  0  0  1  0  0  0  0  0  0
  187.7260  177.7850  142.7120 C   0  0  0  0  0  0  0  0  0  0  0  0
  185.3650  178.2530  143.1080 C   0  0  0  0  0  0  0  0  0  0  0  0
  187.5870  178.3120  141.3990 C   0  0  0  0  0  0  0  0  0  0  0  0
  186.3450  178.7890  140.9690 C   0  0  0  0  0  3  0  0  0  0  0  0
  189.4230  176.0030  143.1510 C   0  0  0  0  0  2  0  0  0  0  0  0
  188.9950  177.2530  143.2680 C   0  0  0  0  0  3  0  0  0  0  0  0
  2  1  1  6  0  0  0
  2 16  1  0  0  0  0
  3  9  2  0  0  0  0
  3  4  1  0  0  0  0
  4  7  2  0  0  0  0
  5  2  1  0  0  0  0
  5  8  2  0  0  0  0
  6  9  1  0  0  0  0
  7  8  1  0  0  0  0
  9  5  1  0  0  0  0
 10 14  2  0  0  0  0
 10 13  1  0  0  0  0
 11  2  1  0  0  0  0
 12 11  1  0  0  0  0
 13 12  2  0  0  0  0
 14 15  1  0  0  0  0
 15 11  2  0  0  0  0
 16 17  1  0  0  0  0
 17 24  1  0  0  0  0
 18 23  1  0  0  0  0
 20 21  1  0  0  0  0
 22 27  1  0  0  0  0
 22 20  1  0  0  0  0
 23 20  2  0  0  0  0
 23 19  1  0  0  0  0
 24 22  2  0  0  0  0
 25 24  1  0  0  0  0
 25 18  2  0  0  0  0
 26 27  2  0  0  0  0
M  END
>  <MODEL>
6

>  <REMARK>
 VINA RESULT:      -7.2      3.714      6.675
  Name = 
  6 active torsions:
  status: ('A' for Active; 'I' for Inactive)
    1  A    between atoms: N_2  and  C_6
    2  A    between atoms: N_2  and  C_15
    3  A    between atoms: C_6  and  C_17
    4  A    between atoms: C_9  and  C_15
    5  A    between atoms: C_14  and  C_19
    6  A    between atoms: C_15  and  C_18
                            x       y       z     vdW  Elec       q    Type
                         _______ _______ _______ _____ _____    ______ ____

>  <TORSDO>
F 6

$$$$
=
 OpenBabel10262420083D

 27 29  0  0  1  0  0  0  0  0999 V2000
  188.5690  175.8650  143.2190 C   0  0  0  0  0  1  0  0  0  0  0  0
  188.6810  177.2300  143.9130 C   0  0  2  0  0  0  0  0  0  0  0  0
  191.6800  176.3490  146.1520 C   0  0  0  0  0  3  0  0  0  0  0  0
  191.1960  176.7530  147.3940 C   0  0  0  0  0  3  0  0  0  0  0  0
  189.5990  177.0590  145.1210 C   0  0  0  0  0  0  0  0  0  0  0  0
  191.4620  176.0240  143.7090 C   0  0  0  0  0  1  0  0  0  0  0  0
  189.9170  177.2960  147.4780 C   0  0  0  0  0  3  0  0  0  0  0  0
  189.1590  177.4320  146.3590 N   0  0  0  0  0  0  0  0  0  0  0  0
  190.8950  176.4920  145.0080 C   0  0  0  0  0  0  0  0  0  0  0  0
  184.7970  178.7550  145.1150 C   0  0  0  0  0  3  0  0  0  0  0  0
  187.3020  177.7230  144.3570 C   0  0  0  0  0  0  0  0  0  0  0  0
  186.2740  177.8770  143.4110 C   0  0  0  0  0  3  0  0  0  0  0  0
  185.0270  178.3830  143.7880 C   0  0  0  0  0  3  0  0  0  0  0  0
  185.8160  178.6300  146.0620 C   0  0  0  0  0  3  0  0  0  0  0  0
  187.0640  178.1240  145.6840 C   0  0  0  0  0  3  0  0  0  0  0  0
  189.2950  178.2080  142.9970 N   0  0  0  0  0  2  0  0  0  0  0  0
  188.7720  178.0820  141.6370 C   0  0  0  0  0  2  0  0  0  0  0  0
  192.2820  177.5030  140.4140 C   0  0  0  0  0  3  0  0  0  0  0  0
  193.1620  176.7240  138.3520 F   0  0  0  0  0  0  0  0  0  0  0  0
  190.7950  176.9350  138.5900 C   0  0  0  0  0  0  0  0  0  0  0  0
  190.6280  176.4790  137.2860 O   0  0  0  0  0  1  0  0  0  0  0  0
  189.6730  177.2760  139.3750 C   0  0  0  0  0  0  0  0  0  0  0  0
  192.0880  177.0510  139.1110 C   0  0  0  0  0  0  0  0  0  0  0  0
  189.8840  177.7380  140.7020 C   0  0  0  0  0  0  0  0  0  0  0  0
  191.1850  177.8400  141.2050 C   0  0  0  0  0  3  0  0  0  0  0  0
  187.6810  178.0840  138.1000 C   0  0  0  0  0  2  0  0  0  0  0  0
  188.3380  177.1290  138.7440 C   0  0  0  0  0  3  0  0  0  0  0  0
  2  1  1  6  0  0  0
  2 11  1  0  0  0  0
  2  5  1  0  0  0  0
  3  4  1  0  0  0  0
  4  7  2  0  0  0  0
  5  8  2  0  0  0  0
  6  9  1  0  0  0  0
  8  7  1  0  0  0  0
  9  5  1  0  0  0  0
  9  3  2  0  0  0  0
 10 14  1  0  0  0  0
 11 15  1  0  0  0  0
 12 13  1  0  0  0  0
 12 11  2  0  0  0  0
 13 10  2  0  0  0  0
 15 14  2  0  0  0  0
 16  2  1  0  0  0  0
 17 16  1  0  0  0  0
 18 25  1  0  0  0  0
 19 23  1  0  0  0  0
 20 23  1  0  0  0  0
 20 22  2  0  0  0  0
 21 20  1  0  0  0  0
 22 24  1  0  0  0  0
 23 18  2  0  0  0  0
 24 25  2  0  0  0  0
 24 17  1  0  0  0  0
 26 27  2  0  0  0  0
 27 22  1  0  0  0  0
M  END
>  <MODEL>
7

>  <REMARK>
 VINA RESULT:      -7.2      3.709      6.077
  Name = 
  6 active torsions:
  status: ('A' for Active; 'I' for Inactive)
    1  A    between atoms: N_2  and  C_6
    2  A    between atoms: N_2  and  C_15
    3  A    between atoms: C_6  and  C_17
    4  A    between atoms: C_9  and  C_15
    5  A    between atoms: C_14  and  C_19
    6  A    between atoms: C_15  and  C_18
                            x       y       z     vdW  Elec       q    Type
                         _______ _______ _______ _____ _____    ______ ____

>  <TORSDO>
F 6

$$$$
=
 OpenBabel10262420083D

 27 29  0  0  1  0  0  0  0  0999 V2000
  189.0510  178.8170  137.9170 C   0  0  0  0  0  1  0  0  0  0  0  0
  188.7860  177.3320  138.2040 C   0  0  2  0  0  0  0  0  0  0  0  0
  191.2700  175.8320  135.6810 C   0  0  0  0  0  3  0  0  0  0  0  0
  192.0130  175.0040  136.5190 C   0  0  0  0  0  3  0  0  0  0  0  0
  189.9270  176.5320  137.5800 C   0  0  0  0  0  0  0  0  0  0  0  0
  189.4530  177.4530  135.2430 C   0  0  0  0  0  1  0  0  0  0  0  0
  191.6940  174.9480  137.8730 C   0  0  0  0  0  3  0  0  0  0  0  0
  190.6730  175.6980  138.3640 N   0  0  0  0  0  0  0  0  0  0  0  0
  190.2230  176.5990  136.1940 C   0  0  0  0  0  0  0  0  0  0  0  0
  184.9180  176.1200  136.6460 C   0  0  0  0  0  3  0  0  0  0  0  0
  187.4440  176.9000  137.6100 C   0  0  0  0  0  0  0  0  0  0  0  0
  186.4370  177.8540  137.3830 C   0  0  0  0  0  3  0  0  0  0  0  0
  185.1850  177.4680  136.8980 C   0  0  0  0  0  3  0  0  0  0  0  0
  185.9010  175.1560  136.8890 C   0  0  0  0  0  3  0  0  0  0  0  0
  187.1530  175.5430  137.3750 C   0  0  0  0  0  3  0  0  0  0  0  0
  188.7930  177.0950  139.6580 N   0  0  0  0  0  2  0  0  0  0  0  0
  188.4840  178.3120  140.4090 C   0  0  0  0  0  2  0  0  0  0  0  0
  188.2170  176.8470  143.8630 C   0  0  0  0  0  3  0  0  0  0  0  0
  186.5090  176.9050  145.5110 F   0  0  0  0  0  0  0  0  0  0  0  0
  186.1390  178.0090  143.4250 C   0  0  0  0  0  0  0  0  0  0  0  0
  184.8770  178.4010  143.8630 O   0  0  0  0  0  1  0  0  0  0  0  0
  186.5910  178.3700  142.1380 C   0  0  0  0  0  0  0  0  0  0  0  0
  186.9490  177.2500  144.2760 C   0  0  0  0  0  0  0  0  0  0  0  0
  187.8850  177.9490  141.7270 C   0  0  0  0  0  0  0  0  0  0  0  0
  188.6820  177.1980  142.5970 C   0  0  0  0  0  3  0  0  0  0  0  0
  184.7560  178.6740  140.4680 C   0  0  0  0  0  2  0  0  0  0  0  0
  185.6660  179.1690  141.2970 C   0  0  0  0  0  3  0  0  0  0  0  0
  2  1  1  6  0  0  0
  2 16  1  0  0  0  0
  3  9  2  0  0  0  0
  3  4  1  0  0  0  0
  4  7  2  0  0  0  0
  5  2  1  0  0  0  0
  5  8  2  0  0  0  0
  6  9  1  0  0  0  0
  7  8  1  0  0  0  0
  9  5  1  0  0  0  0
 10 14  2  0  0  0  0
 10 13  1  0  0  0  0
 11  2  1  0  0  0  0
 12 11  1  0  0  0  0
 13 12  2  0  0  0  0
 14 15  1  0  0  0  0
 15 11  2  0  0  0  0
 16 17  1  0  0  0  0
 17 24  1  0  0  0  0
 18 23  1  0  0  0  0
 20 21  1  0  0  0  0
 20 23  2  0  0  0  0
 22 20  1  0  0  0  0
 23 19  1  0  0  0  0
 24 22  2  0  0  0  0
 24 25  1  0  0  0  0
 25 18  2  0  0  0  0
 26 27  2  0  0  0  0
 27 22  1  0  0  0  0
M  END
>  <MODEL>
8

>  <REMARK>
 VINA RESULT:      -7.2      3.712      6.509
  Name = 
  6 active torsions:
  status: ('A' for Active; 'I' for Inactive)
    1  A    between atoms: N_2  and  C_6
    2  A    between atoms: N_2  and  C_15
    3  A    between atoms: C_6  and  C_17
    4  A    between atoms: C_9  and  C_15
    5  A    between atoms: C_14  and  C_19
    6  A    between atoms: C_15  and  C_18
                            x       y       z     vdW  Elec       q    Type
                         _______ _______ _______ _____ _____    ______ ____

>  <TORSDO>
F 6

$$$$
=
 OpenBabel10262420083D

 27 29  0  0  1  0  0  0  0  0999 V2000
  183.6170  177.6040  138.7670 C   0  0  0  0  0  1  0  0  0  0  0  0
  182.4510  178.2840  139.4990 C   0  0  2  0  0  0  0  0  0  0  0  0
  179.4290  176.4130  140.9660 C   0  0  0  0  0  3  0  0  0  0  0  0
  179.5900  175.1650  140.3690 C   0  0  0  0  0  3  0  0  0  0  0  0
  181.4170  177.2080  139.8180 C   0  0  0  0  0  0  0  0  0  0  0  0
  180.1180  178.7510  141.3880 C   0  0  0  0  0  1  0  0  0  0  0  0
  180.6680  174.9580  139.5120 C   0  0  0  0  0  3  0  0  0  0  0  0
  181.5440  175.9660  139.2630 N   0  0  0  0  0  0  0  0  0  0  0  0
  180.3340  177.4430  140.7040 C   0  0  0  0  0  0  0  0  0  0  0  0
  180.8020  181.3720  136.9300 C   0  0  0  0  0  3  0  0  0  0  0  0
  181.8320  179.3770  138.6260 C   0  0  0  0  0  0  0  0  0  0  0  0
  181.2060  179.0360  137.4140 C   0  0  0  0  0  3  0  0  0  0  0  0
  180.6880  180.0260  136.5750 C   0  0  0  0  0  3  0  0  0  0  0  0
  181.4430  181.7290  138.1200 C   0  0  0  0  0  3  0  0  0  0  0  0
  181.9610  180.7380  138.9580 C   0  0  0  0  0  3  0  0  0  0  0  0
  182.9270  178.8630  140.7680 N   0  0  0  0  0  2  0  0  0  0  0  0
  184.2770  178.4090  141.1010 C   0  0  0  0  0  2  0  0  0  0  0  0
  183.4870  178.9710  144.7340 C   0  0  0  0  0  3  0  0  0  0  0  0
  184.7620  178.7160  146.7200 F   0  0  0  0  0  0  0  0  0  0  0  0
  185.7890  178.2330  144.6180 C   0  0  0  0  0  0  0  0  0  0  0  0
  186.9710  177.9070  145.2760 O   0  0  0  0  0  1  0  0  0  0  0  0
  185.7120  178.1560  143.2110 C   0  0  0  0  0  0  0  0  0  0  0  0
  184.6820  178.6410  145.3690 C   0  0  0  0  0  0  0  0  0  0  0  0
  184.4880  178.4990  142.5750 C   0  0  0  0  0  0  0  0  0  0  0  0
  183.3910  178.8960  143.3470 C   0  0  0  0  0  3  0  0  0  0  0  0
  187.7460  178.5140  141.8040 C   0  0  0  0  0  2  0  0  0  0  0  0
  186.9340  177.7210  142.4910 C   0  0  0  0  0  3  0  0  0  0  0  0
  2  1  1  6  0  0  0
  2  5  1  0  0  0  0
  2 16  1  0  0  0  0
  4  3  2  0  0  0  0
  5  9  2  0  0  0  0
  7  4  1  0  0  0  0
  8  7  2  0  0  0  0
  8  5  1  0  0  0  0
  9  3  1  0  0  0  0
  9  6  1  0  0  0  0
 10 14  1  0  0  0  0
 11 15  1  0  0  0  0
 11  2  1  0  0  0  0
 12 11  2  0  0  0  0
 13 10  2  0  0  0  0
 13 12  1  0  0  0  0
 14 15  2  0  0  0  0
 16 17  1  0  0  0  0
 17 24  1  0  0  0  0
 18 23  1  0  0  0  0
 20 21  1  0  0  0  0
 20 23  2  0  0  0  0
 22 20  1  0  0  0  0
 23 19  1  0  0  0  0
 24 22  2  0  0  0  0
 24 25  1  0  0  0  0
 25 18  2  0  0  0  0
 26 27  2  0  0  0  0
 27 22  1  0  0  0  0
M  END
>  <MODEL>
9

>  <REMARK>
 VINA RESULT:      -7.2      3.668      8.578
  Name = 
  6 active torsions:
  status: ('A' for Active; 'I' for Inactive)
    1  A    between atoms: N_2  and  C_6
    2  A    between atoms: N_2  and  C_15
    3  A    between atoms: C_6  and  C_17
    4  A    between atoms: C_9  and  C_15
    5  A    between atoms: C_14  and  C_19
    6  A    between atoms: C_15  and  C_18
                            x       y       z     vdW  Elec       q    Type
                         _______ _______ _______ _____ _____    ______ ____

>  <TORSDO>
F 6

$$$$
