=
 OpenBabel10262423243D

 34 40  0  0  0  0  0  0  0  0999 V2000
  186.8220  178.3800  140.6910 C   0  0  0  0  0  0  0  0  0  0  0  0
  187.5170  178.4790  137.0930 C   0  0  0  0  0  2  0  0  0  0  0  0
  185.5340  178.5770  138.2590 N   0  0  0  0  0  0  0  0  0  0  0  0
  186.0450  178.3400  142.7250 C   0  0  0  0  0  0  0  0  0  0  0  0
  187.1680  178.1780  142.0690 N   0  0  0  0  0  0  0  0  0  0  0  0
  183.5430  178.7360  141.9480 C   0  0  0  0  0  3  0  0  0  0  0  0
  182.7870  178.8610  140.7520 C   0  0  0  0  0  3  0  0  0  0  0  0
  184.9300  178.6250  141.8170 C   0  0  0  0  0  0  0  0  0  0  0  0
  185.9150  178.2040  144.1460 N   0  0  0  0  0  2  0  0  0  0  0  0
  184.8170  178.6870  139.4130 C   0  0  0  0  0  0  0  0  0  0  0  0
  185.5030  178.6300  140.5970 C   0  0  0  0  0  0  0  0  0  0  0  0
  183.4210  178.8310  139.4780 C   0  0  0  0  0  3  0  0  0  0  0  0
  188.9900  178.6080  136.8950 C   0  0  0  0  0  2  0  0  0  0  0  0
  189.7540  177.4290  137.3870 C   0  0  0  0  0  0  0  0  0  0  0  0
  189.6940  177.0520  138.6630 C   0  0  0  0  0  3  0  0  0  0  0  0
  186.8970  178.3690  138.2720 C   0  0  0  0  0  0  0  0  0  0  0  0
  188.7900  177.5990  139.6910 C   0  0  0  0  0  2  0  0  0  0  0  0
  187.5790  178.1590  139.5310 C   0  0  0  0  0  0  0  0  0  0  0  0
  187.8120  177.7010  147.3500 C   0  0  0  0  0  3  0  0  0  0  0  0
  188.2230  177.5530  144.5810 C   0  0  0  0  0  3  0  0  0  0  0  0
  191.3750  176.6880  147.2310 C   0  0  0  0  0  0  0  0  0  0  0  0
  190.1150  177.0520  147.7290 C   0  0  0  0  0  3  0  0  0  0  0  0
  189.0650  177.3400  146.8520 C   0  0  0  0  0  0  0  0  0  0  0  0
  190.5270  176.9040  144.9590 C   0  0  0  0  0  3  0  0  0  0  0  0
  189.2720  177.2650  145.4570 C   0  0  0  0  0  0  0  0  0  0  0  0
  191.5720  176.6170  145.8420 C   0  0  0  0  0  3  0  0  0  0  0  0
  186.9660  177.9160  145.0780 C   0  0  0  0  0  0  0  0  0  0  0  0
  186.7670  177.9880  146.4660 C   0  0  0  0  0  3  0  0  0  0  0  0
  192.4800  176.3840  148.1550 C   0  0  0  0  0  0  0  0  0  0  0  0
  193.1640  175.3370  148.0070 O   0  0  0  0  0  0  0  0  0  0  0  0
  192.7890  177.2720  149.2260 N   0  0  0  0  0  1  0  0  0  0  0  0
  190.6500  176.6870  136.4390 C   0  0  0  0  0  3  0  0  0  0  0  0
  190.8210  175.2420  136.8830 C   0  0  0  0  0  2  0  0  0  0  0  0
  189.8900  175.5690  135.7400 C   0  0  0  0  0  2  0  0  0  0  0  0
  1  5  1  0  0  0  0
  2 16  1  0  0  0  0
  3 16  2  0  0  0  0
  3 10  1  0  0  0  0
  4  9  1  0  0  0  0
  5  4  2  0  0  0  0
  7  6  2  0  0  0  0
  8  6  1  0  0  0  0
  8  4  1  0  0  0  0
  9 27  1  0  0  0  0
 10 12  2  0  0  0  0
 10 11  1  0  0  0  0
 11  1  1  0  0  0  0
 11  8  2  0  0  0  0
 12  7  1  0  0  0  0
 13  2  1  0  0  0  0
 13 14  1  0  0  0  0
 14 15  2  0  0  0  0
 15 17  1  0  0  0  0
 16 18  1  0  0  0  0
 18 17  1  0  0  0  0
 18  1  2  0  0  0  0
 20 27  2  0  0  0  0
 20 25  1  0  0  0  0
 21 22  1  0  0  0  0
 21 29  1  0  0  0  0
 23 19  1  0  0  0  0
 23 22  2  0  0  0  0
 24 25  2  0  0  0  0
 24 26  1  0  0  0  0
 25 23  1  0  0  0  0
 26 21  2  0  0  0  0
 27 28  1  0  0  0  0
 28 19  2  0  0  0  0
 29 31  1  0  0  0  0
 30 29  2  0  0  0  0
 32 33  1  0  0  0  0
 32 14  1  0  0  0  0
 34 32  1  0  0  0  0
 34 33  1  0  0  0  0
M  END
>  <MODEL>
1

>  <REMARK>
 VINA RESULT:     -11.2      0.000      0.000
  Name = 
  3 active torsions:
  status: ('A' for Active; 'I' for Inactive)
    1  A    between atoms: C_3  and  C_25
    2  A    between atoms: C_7  and  C_11
    3  A    between atoms: N_18  and  C_30
                            x       y       z     vdW  Elec       q    Type
                         _______ _______ _______ _____ _____    ______ ____

>  <TORSDO>
F 3

$$$$
=
 OpenBabel10262423243D

 34 40  0  0  0  0  0  0  0  0999 V2000
  182.5440  178.5690  141.3890 C   0  0  0  0  0  0  0  0  0  0  0  0
  180.9790  178.4940  138.0750 C   0  0  0  0  0  2  0  0  0  0  0  0
  180.0780  178.7920  140.1740 N   0  0  0  0  0  0  0  0  0  0  0  0
  183.1210  178.6570  143.4870 C   0  0  0  0  0  0  0  0  0  0  0  0
  183.6280  178.3830  142.3110 N   0  0  0  0  0  0  0  0  0  0  0  0
  180.6670  179.2330  144.3040 C   0  0  0  0  0  3  0  0  0  0  0  0
  179.3570  179.3810  143.7760 C   0  0  0  0  0  3  0  0  0  0  0  0
  181.7000  179.0040  143.3910 C   0  0  0  0  0  0  0  0  0  0  0  0
  183.8510  178.5780  144.7180 N   0  0  0  0  0  2  0  0  0  0  0  0
  180.1890  178.9970  141.5160 C   0  0  0  0  0  0  0  0  0  0  0  0
  181.4390  178.9220  142.0710 C   0  0  0  0  0  0  0  0  0  0  0  0
  179.1110  179.2580  142.3790 C   0  0  0  0  0  3  0  0  0  0  0  0
  182.0530  178.4950  137.0400 C   0  0  0  0  0  2  0  0  0  0  0  0
  182.9030  177.2740  137.0750 C   0  0  0  0  0  0  0  0  0  0  0  0
  183.5920  176.9440  138.1660 C   0  0  0  0  0  3  0  0  0  0  0  0
  181.1720  178.4730  139.3980 C   0  0  0  0  0  0  0  0  0  0  0  0
  183.4990  177.5970  139.4850 C   0  0  0  0  0  2  0  0  0  0  0  0
  182.4560  178.2490  140.0270 C   0  0  0  0  0  0  0  0  0  0  0  0
  187.4080  177.6450  143.9520 C   0  0  0  0  0  3  0  0  0  0  0  0
  185.7680  178.1610  146.1650 C   0  0  0  0  0  3  0  0  0  0  0  0
  189.8160  177.1660  146.7280 C   0  0  0  0  0  0  0  0  0  0  0  0
  189.2820  177.2400  145.4330 C   0  0  0  0  0  3  0  0  0  0  0  0
  187.9380  177.5710  145.2410 C   0  0  0  0  0  0  0  0  0  0  0  0
  187.6410  177.7570  147.6470 C   0  0  0  0  0  3  0  0  0  0  0  0
  187.1110  177.8310  146.3560 C   0  0  0  0  0  0  0  0  0  0  0  0
  188.9870  177.4260  147.8310 C   0  0  0  0  0  3  0  0  0  0  0  0
  185.2340  178.2360  144.8730 C   0  0  0  0  0  0  0  0  0  0  0  0
  186.0630  177.9760  143.7690 C   0  0  0  0  0  3  0  0  0  0  0  0
  191.2330  176.8180  146.9280 C   0  0  0  0  0  0  0  0  0  0  0  0
  191.8120  177.1020  148.0110 O   0  0  0  0  0  0  0  0  0  0  0  0
  191.9660  176.1540  145.9010 N   0  0  0  0  0  1  0  0  0  0  0  0
  183.0280  176.4300  135.8400 C   0  0  0  0  0  3  0  0  0  0  0  0
  182.7520  177.2580  134.5950 C   0  0  0  0  0  2  0  0  0  0  0  0
  184.1750  176.9170  134.9660 C   0  0  0  0  0  2  0  0  0  0  0  0
  1 11  1  0  0  0  0
  1  5  1  0  0  0  0
  2 16  1  0  0  0  0
  3 10  1  0  0  0  0
  4  9  1  0  0  0  0
  5  4  2  0  0  0  0
  7  6  1  0  0  0  0
  8  4  1  0  0  0  0
  8  6  2  0  0  0  0
  9 27  1  0  0  0  0
 10 11  2  0  0  0  0
 10 12  1  0  0  0  0
 11  8  1  0  0  0  0
 12  7  2  0  0  0  0
 13 14  1  0  0  0  0
 13  2  1  0  0  0  0
 14 15  2  0  0  0  0
 15 17  1  0  0  0  0
 16 18  1  0  0  0  0
 16  3  2  0  0  0  0
 17 18  1  0  0  0  0
 18  1  2  0  0  0  0
 19 23  1  0  0  0  0
 20 25  1  0  0  0  0
 21 29  1  0  0  0  0
 21 26  1  0  0  0  0
 22 21  2  0  0  0  0
 23 22  1  0  0  0  0
 23 25  2  0  0  0  0
 24 26  2  0  0  0  0
 25 24  1  0  0  0  0
 27 20  2  0  0  0  0
 28 19  2  0  0  0  0
 28 27  1  0  0  0  0
 29 30  2  0  0  0  0
 31 29  1  0  0  0  0
 32 14  1  0  0  0  0
 33 34  1  0  0  0  0
 33 32  1  0  0  0  0
 34 32  1  0  0  0  0
M  END
>  <MODEL>
2

>  <REMARK>
 VINA RESULT:     -10.6      3.403      4.637
  Name = 
  3 active torsions:
  status: ('A' for Active; 'I' for Inactive)
    1  A    between atoms: C_3  and  C_25
    2  A    between atoms: C_7  and  C_11
    3  A    between atoms: N_18  and  C_30
                            x       y       z     vdW  Elec       q    Type
                         _______ _______ _______ _____ _____    ______ ____

>  <TORSDO>
F 3

$$$$
=
 OpenBabel10262423243D

 34 40  0  0  0  0  0  0  0  0999 V2000
  187.1300  178.1060  144.2550 C   0  0  0  0  0  0  0  0  0  0  0  0
  183.7820  178.9960  145.4540 C   0  0  0  0  0  2  0  0  0  0  0  0
  185.6410  178.2250  146.5740 N   0  0  0  0  0  0  0  0  0  0  0  0
  189.1880  177.4860  143.9030 C   0  0  0  0  0  0  0  0  0  0  0  0
  188.1070  177.8230  143.2430 N   0  0  0  0  0  0  0  0  0  0  0  0
  189.6860  177.1160  146.4790 C   0  0  0  0  0  3  0  0  0  0  0  0
  189.0130  177.1590  147.7290 C   0  0  0  0  0  3  0  0  0  0  0  0
  188.9600  177.5090  145.3510 C   0  0  0  0  0  0  0  0  0  0  0  0
  190.4210  177.0940  143.2860 N   0  0  0  0  0  2  0  0  0  0  0  0
  186.9630  177.9010  146.6370 C   0  0  0  0  0  0  0  0  0  0  0  0
  187.6750  177.8990  145.4680 C   0  0  0  0  0  0  0  0  0  0  0  0
  187.6460  177.5460  147.8130 C   0  0  0  0  0  3  0  0  0  0  0  0
  183.0350  179.6500  144.3410 C   0  0  0  0  0  2  0  0  0  0  0  0
  182.7860  178.7440  143.1870 C   0  0  0  0  0  0  0  0  0  0  0  0
  183.7930  178.1760  142.5270 C   0  0  0  0  0  3  0  0  0  0  0  0
  185.0200  178.4970  145.3730 C   0  0  0  0  0  0  0  0  0  0  0  0
  185.2170  178.2130  142.9090 C   0  0  0  0  0  2  0  0  0  0  0  0
  185.7530  178.3410  144.1350 C   0  0  0  0  0  0  0  0  0  0  0  0
  192.2370  177.0900  139.9970 C   0  0  0  0  0  3  0  0  0  0  0  0
  189.6250  176.8860  140.9920 C   0  0  0  0  0  3  0  0  0  0  0  0
  190.3220  176.7230  136.8460 C   0  0  0  0  0  0  0  0  0  0  0  0
  191.3950  176.8800  137.7360 C   0  0  0  0  0  3  0  0  0  0  0  0
  191.1680  176.9340  139.1130 C   0  0  0  0  0  0  0  0  0  0  0  0
  188.7820  176.6760  138.7300 C   0  0  0  0  0  3  0  0  0  0  0  0
  189.8520  176.8320  139.6150 C   0  0  0  0  0  0  0  0  0  0  0  0
  189.0160  176.6210  137.3530 C   0  0  0  0  0  3  0  0  0  0  0  0
  190.6950  177.0430  141.8800 C   0  0  0  0  0  0  0  0  0  0  0  0
  192.0010  177.1440  141.3740 C   0  0  0  0  0  3  0  0  0  0  0  0
  190.5630  176.6650  135.3940 C   0  0  0  0  0  0  0  0  0  0  0  0
  189.7610  177.2140  134.5940 O   0  0  0  0  0  0  0  0  0  0  0  0
  191.7070  175.9890  134.8790 N   0  0  0  0  0  1  0  0  0  0  0  0
  181.3770  178.5110  142.7270 C   0  0  0  0  0  3  0  0  0  0  0  0
  180.4130  178.5740  143.9010 C   0  0  0  0  0  2  0  0  0  0  0  0
  180.5200  179.7480  142.9580 C   0  0  0  0  0  2  0  0  0  0  0  0
  1 11  1  0  0  0  0
  3 10  1  0  0  0  0
  4  8  1  0  0  0  0
  5  4  2  0  0  0  0
  5  1  1  0  0  0  0
  6  7  1  0  0  0  0
  7 12  2  0  0  0  0
  8 11  1  0  0  0  0
  8  6  2  0  0  0  0
  9  4  1  0  0  0  0
 10 12  1  0  0  0  0
 11 10  2  0  0  0  0
 13  2  1  0  0  0  0
 14 13  1  0  0  0  0
 15 17  1  0  0  0  0
 15 14  2  0  0  0  0
 16  2  1  0  0  0  0
 16  3  2  0  0  0  0
 17 18  1  0  0  0  0
 18  1  2  0  0  0  0
 18 16  1  0  0  0  0
 19 28  1  0  0  0  0
 20 27  1  0  0  0  0
 21 26  1  0  0  0  0
 21 22  2  0  0  0  0
 22 23  1  0  0  0  0
 23 25  1  0  0  0  0
 23 19  2  0  0  0  0
 24 25  1  0  0  0  0
 25 20  2  0  0  0  0
 26 24  2  0  0  0  0
 27  9  1  0  0  0  0
 28 27  2  0  0  0  0
 29 21  1  0  0  0  0
 30 29  2  0  0  0  0
 31 29  1  0  0  0  0
 32 34  1  0  0  0  0
 32 14  1  0  0  0  0
 32 33  1  0  0  0  0
 34 33  1  0  0  0  0
M  END
>  <MODEL>
3

>  <REMARK>
 VINA RESULT:     -10.6      3.329      8.595
  Name = 
  3 active torsions:
  status: ('A' for Active; 'I' for Inactive)
    1  A    between atoms: C_3  and  C_25
    2  A    between atoms: C_7  and  C_11
    3  A    between atoms: N_18  and  C_30
                            x       y       z     vdW  Elec       q    Type
                         _______ _______ _______ _____ _____    ______ ____

>  <TORSDO>
F 3

$$$$
=
 OpenBabel10262423243D

 34 40  0  0  0  0  0  0  0  0999 V2000
  188.9730  177.4380  141.7370 C   0  0  0  0  0  0  0  0  0  0  0  0
  191.2420  176.7500  138.9420 C   0  0  0  0  0  2  0  0  0  0  0  0
  191.6550  177.1160  141.1780 N   0  0  0  0  0  0  0  0  0  0  0  0
  187.9410  177.8720  143.6050 C   0  0  0  0  0  0  0  0  0  0  0  0
  187.7040  177.7690  142.3200 N   0  0  0  0  0  0  0  0  0  0  0  0
  190.1630  177.7630  145.0440 C   0  0  0  0  0  3  0  0  0  0  0  0
  191.5620  177.5950  144.8660 C   0  0  0  0  0  3  0  0  0  0  0  0
  189.3560  177.6410  143.9100 C   0  0  0  0  0  0  0  0  0  0  0  0
  186.9510  178.2160  144.5820 N   0  0  0  0  0  2  0  0  0  0  0  0
  191.2500  177.2740  142.4690 C   0  0  0  0  0  0  0  0  0  0  0  0
  189.9060  177.3840  142.7060 C   0  0  0  0  0  0  0  0  0  0  0  0
  192.1120  177.3560  143.5750 C   0  0  0  0  0  3  0  0  0  0  0  0
  190.4300  176.3710  137.7500 C   0  0  0  0  0  2  0  0  0  0  0  0
  189.5600  177.4740  137.2570 C   0  0  0  0  0  0  0  0  0  0  0  0
  188.6340  178.0240  138.0400 C   0  0  0  0  0  3  0  0  0  0  0  0
  190.7550  177.1120  140.1330 C   0  0  0  0  0  0  0  0  0  0  0  0
  188.4450  177.7660  139.4790 C   0  0  0  0  0  2  0  0  0  0  0  0
  189.3570  177.3820  140.3900 C   0  0  0  0  0  0  0  0  0  0  0  0
  183.3150  179.0030  145.1130 C   0  0  0  0  0  3  0  0  0  0  0  0
  185.0840  178.3940  143.0260 C   0  0  0  0  0  3  0  0  0  0  0  0
  181.0180  179.1000  142.2070 C   0  0  0  0  0  0  0  0  0  0  0  0
  181.4930  179.1680  143.5250 C   0  0  0  0  0  3  0  0  0  0  0  0
  182.8430  178.9340  143.8010 C   0  0  0  0  0  0  0  0  0  0  0  0
  183.2620  178.5590  141.4360 C   0  0  0  0  0  3  0  0  0  0  0  0
  183.7350  178.6280  142.7490 C   0  0  0  0  0  0  0  0  0  0  0  0
  181.9110  178.7940  141.1670 C   0  0  0  0  0  3  0  0  0  0  0  0
  185.5590  178.4620  144.3410 C   0  0  0  0  0  0  0  0  0  0  0  0
  184.6670  178.7680  145.3810 C   0  0  0  0  0  3  0  0  0  0  0  0
  179.5950  179.3470  141.9170 C   0  0  0  0  0  0  0  0  0  0  0  0
  178.9400  178.5380  141.2080 O   0  0  0  0  0  0  0  0  0  0  0  0
  178.9430  180.5030  142.4360 N   0  0  0  0  0  1  0  0  0  0  0  0
  189.6930  177.9350  135.8350 C   0  0  0  0  0  3  0  0  0  0  0  0
  190.0010  176.7620  134.9180 C   0  0  0  0  0  2  0  0  0  0  0  0
  188.6020  177.3280  134.9640 C   0  0  0  0  0  2  0  0  0  0  0  0
  1  5  1  0  0  0  0
  1 11  1  0  0  0  0
  2 16  1  0  0  0  0
  3 10  1  0  0  0  0
  4  8  1  0  0  0  0
  4  9  1  0  0  0  0
  5  4  2  0  0  0  0
  7  6  1  0  0  0  0
  8  6  2  0  0  0  0
 10 11  2  0  0  0  0
 10 12  1  0  0  0  0
 11  8  1  0  0  0  0
 12  7  2  0  0  0  0
 13  2  1  0  0  0  0
 14 13  1  0  0  0  0
 14 15  2  0  0  0  0
 15 17  1  0  0  0  0
 16 18  1  0  0  0  0
 16  3  2  0  0  0  0
 17 18  1  0  0  0  0
 18  1  2  0  0  0  0
 19 28  1  0  0  0  0
 20 27  1  0  0  0  0
 21 22  2  0  0  0  0
 22 23  1  0  0  0  0
 23 19  2  0  0  0  0
 24 25  1  0  0  0  0
 25 20  2  0  0  0  0
 25 23  1  0  0  0  0
 26 24  2  0  0  0  0
 26 21  1  0  0  0  0
 27  9  1  0  0  0  0
 27 28  2  0  0  0  0
 29 21  1  0  0  0  0
 29 31  1  0  0  0  0
 30 29  2  0  0  0  0
 32 14  1  0  0  0  0
 33 34  1  0  0  0  0
 33 32  1  0  0  0  0
 34 32  1  0  0  0  0
M  END
>  <MODEL>
4

>  <REMARK>
 VINA RESULT:     -10.2      3.584      7.198
  Name = 
  3 active torsions:
  status: ('A' for Active; 'I' for Inactive)
    1  A    between atoms: C_3  and  C_25
    2  A    between atoms: C_7  and  C_11
    3  A    between atoms: N_18  and  C_30
                            x       y       z     vdW  Elec       q    Type
                         _______ _______ _______ _____ _____    ______ ____

>  <TORSDO>
F 3

$$$$
=
 OpenBabel10262423243D

 34 40  0  0  0  0  0  0  0  0999 V2000
  188.8680  177.9590  141.4620 C   0  0  0  0  0  0  0  0  0  0  0  0
  191.7080  177.4040  143.7120 C   0  0  0  0  0  2  0  0  0  0  0  0
  191.5180  177.1930  141.4260 N   0  0  0  0  0  0  0  0  0  0  0  0
  187.4160  178.1750  139.8530 C   0  0  0  0  0  0  0  0  0  0  0  0
  187.4850  178.1970  141.1610 N   0  0  0  0  0  0  0  0  0  0  0  0
  189.1920  177.6320  137.9630 C   0  0  0  0  0  3  0  0  0  0  0  0
  190.5530  177.2460  137.8340 C   0  0  0  0  0  3  0  0  0  0  0  0
  188.7250  177.9010  139.2520 C   0  0  0  0  0  0  0  0  0  0  0  0
  186.2060  178.3460  139.1060 N   0  0  0  0  0  2  0  0  0  0  0  0
  190.8480  177.3590  140.2510 C   0  0  0  0  0  0  0  0  0  0  0  0
  189.5480  177.7840  140.3140 C   0  0  0  0  0  0  0  0  0  0  0  0
  191.3860  177.1020  138.9790 C   0  0  0  0  0  3  0  0  0  0  0  0
  191.3470  177.9050  145.0690 C   0  0  0  0  0  2  0  0  0  0  0  0
  190.2270  177.1510  145.6950 C   0  0  0  0  0  0  0  0  0  0  0  0
  189.0310  177.0840  145.1140 C   0  0  0  0  0  3  0  0  0  0  0  0
  190.9040  177.4000  142.6440 C   0  0  0  0  0  0  0  0  0  0  0  0
  188.6900  177.5720  143.7650 C   0  0  0  0  0  2  0  0  0  0  0  0
  189.4890  177.7010  142.6920 C   0  0  0  0  0  0  0  0  0  0  0  0
  182.5640  179.2310  139.3710 C   0  0  0  0  0  3  0  0  0  0  0  0
  184.7000  178.4710  141.0180 C   0  0  0  0  0  3  0  0  0  0  0  0
  180.9080  179.2060  142.6860 C   0  0  0  0  0  0  0  0  0  0  0  0
  181.1080  179.3410  141.3040 C   0  0  0  0  0  3  0  0  0  0  0  0
  182.3660  179.0970  140.7460 C   0  0  0  0  0  0  0  0  0  0  0  0
  183.2450  178.5800  142.9530 C   0  0  0  0  0  3  0  0  0  0  0  0
  183.4430  178.7140  141.5760 C   0  0  0  0  0  0  0  0  0  0  0  0
  181.9840  178.8250  143.5040 C   0  0  0  0  0  3  0  0  0  0  0  0
  184.9000  178.6050  139.6390 C   0  0  0  0  0  0  0  0  0  0  0  0
  183.8250  178.9860  138.8210 C   0  0  0  0  0  3  0  0  0  0  0  0
  179.5820  179.4620  143.2730 C   0  0  0  0  0  0  0  0  0  0  0  0
  178.9340  180.4950  142.9570 O   0  0  0  0  0  0  0  0  0  0  0  0
  179.0150  178.5430  144.2040 N   0  0  0  0  0  1  0  0  0  0  0  0
  190.4360  176.4990  147.0310 C   0  0  0  0  0  3  0  0  0  0  0  0
  191.6930  175.6440  147.0190 C   0  0  0  0  0  2  0  0  0  0  0  0
  191.7170  177.0000  147.6830 C   0  0  0  0  0  2  0  0  0  0  0  0
  1 18  1  0  0  0  0
  2 13  1  0  0  0  0
  3 16  1  0  0  0  0
  4  5  2  0  0  0  0
  5  1  1  0  0  0  0
  6  8  2  0  0  0  0
  7  6  1  0  0  0  0
  7 12  2  0  0  0  0
  8  4  1  0  0  0  0
  8 11  1  0  0  0  0
  9 27  1  0  0  0  0
  9  4  1  0  0  0  0
 10 11  1  0  0  0  0
 10  3  2  0  0  0  0
 11  1  2  0  0  0  0
 12 10  1  0  0  0  0
 13 14  1  0  0  0  0
 14 32  1  0  0  0  0
 15 14  2  0  0  0  0
 16 18  2  0  0  0  0
 16  2  1  0  0  0  0
 17 15  1  0  0  0  0
 18 17  1  0  0  0  0
 19 23  1  0  0  0  0
 20 25  1  0  0  0  0
 21 29  1  0  0  0  0
 21 26  1  0  0  0  0
 22 21  2  0  0  0  0
 23 22  1  0  0  0  0
 23 25  2  0  0  0  0
 24 26  2  0  0  0  0
 25 24  1  0  0  0  0
 27 20  2  0  0  0  0
 28 19  2  0  0  0  0
 28 27  1  0  0  0  0
 29 31  1  0  0  0  0
 30 29  2  0  0  0  0
 32 34  1  0  0  0  0
 33 32  1  0  0  0  0
 33 34  1  0  0  0  0
M  END
>  <MODEL>
5

>  <REMARK>
 VINA RESULT:     -10.1      3.406      8.552
  Name = 
  3 active torsions:
  status: ('A' for Active; 'I' for Inactive)
    1  A    between atoms: C_3  and  C_25
    2  A    between atoms: C_7  and  C_11
    3  A    between atoms: N_18  and  C_30
                            x       y       z     vdW  Elec       q    Type
                         _______ _______ _______ _____ _____    ______ ____

>  <TORSDO>
F 3

$$$$
=
 OpenBabel10262423243D

 34 40  0  0  0  0  0  0  0  0999 V2000
  185.3650  178.3670  142.9980 C   0  0  0  0  0  0  0  0  0  0  0  0
  181.7650  179.0160  143.2330 C   0  0  0  0  0  2  0  0  0  0  0  0
  183.3570  178.6810  144.8630 N   0  0  0  0  0  0  0  0  0  0  0  0
  187.4920  177.9600  143.2360 C   0  0  0  0  0  0  0  0  0  0  0  0
  186.5770  178.0440  142.3010 N   0  0  0  0  0  0  0  0  0  0  0  0
  187.3840  178.0880  145.8800 C   0  0  0  0  0  3  0  0  0  0  0  0
  186.4290  178.2530  146.9190 C   0  0  0  0  0  3  0  0  0  0  0  0
  186.9210  178.1940  144.5660 C   0  0  0  0  0  0  0  0  0  0  0  0
  188.8650  177.6290  142.9930 N   0  0  0  0  0  2  0  0  0  0  0  0
  184.6480  178.5410  145.2780 C   0  0  0  0  0  0  0  0  0  0  0  0
  185.6180  178.4340  144.3180 C   0  0  0  0  0  0  0  0  0  0  0  0
  185.0550  178.4750  146.6220 C   0  0  0  0  0  3  0  0  0  0  0  0
  181.2560  179.3780  141.8790 C   0  0  0  0  0  2  0  0  0  0  0  0
  181.3680  178.2680  140.8930 C   0  0  0  0  0  0  0  0  0  0  0  0
  182.5480  177.7290  140.5940 C   0  0  0  0  0  3  0  0  0  0  0  0
  183.0230  178.6710  143.5260 C   0  0  0  0  0  0  0  0  0  0  0  0
  183.8290  178.0080  141.2670 C   0  0  0  0  0  2  0  0  0  0  0  0
  184.0430  178.4040  142.5340 C   0  0  0  0  0  0  0  0  0  0  0  0
  189.3310  176.9130  139.3350 C   0  0  0  0  0  3  0  0  0  0  0  0
  190.8700  177.3660  141.6330 C   0  0  0  0  0  3  0  0  0  0  0  0
  192.7550  176.6470  137.9410 C   0  0  0  0  0  0  0  0  0  0  0  0
  191.3550  176.6600  138.0270 C   0  0  0  0  0  3  0  0  0  0  0  0
  190.7250  176.8990  139.2510 C   0  0  0  0  0  0  0  0  0  0  0  0
  192.8940  177.1140  140.3260 C   0  0  0  0  0  3  0  0  0  0  0  0
  191.5000  177.1280  140.4090 C   0  0  0  0  0  0  0  0  0  0  0  0
  193.5180  176.8750  139.0980 C   0  0  0  0  0  3  0  0  0  0  0  0
  189.4730  177.3800  141.7190 C   0  0  0  0  0  0  0  0  0  0  0  0
  188.7090  177.1520  140.5630 C   0  0  0  0  0  3  0  0  0  0  0  0
  193.4180  176.3960  136.6500 C   0  0  0  0  0  0  0  0  0  0  0  0
  194.6120  176.7520  136.4680 O   0  0  0  0  0  0  0  0  0  0  0  0
  192.7170  175.7450  135.5940 N   0  0  0  0  0  1  0  0  0  0  0  0
  180.1350  177.7870  140.1860 C   0  0  0  0  0  3  0  0  0  0  0  0
  180.2980  176.3390  139.7500 C   0  0  0  0  0  2  0  0  0  0  0  0
  179.4660  176.6650  140.9680 C   0  0  0  0  0  2  0  0  0  0  0  0
  1 11  1  0  0  0  0
  2 16  1  0  0  0  0
  3 10  1  0  0  0  0
  4  8  1  0  0  0  0
  5  1  1  0  0  0  0
  5  4  2  0  0  0  0
  6  7  1  0  0  0  0
  8  6  2  0  0  0  0
  9  4  1  0  0  0  0
 10 12  1  0  0  0  0
 11  8  1  0  0  0  0
 11 10  2  0  0  0  0
 12  7  2  0  0  0  0
 13  2  1  0  0  0  0
 14 13  1  0  0  0  0
 15 14  2  0  0  0  0
 15 17  1  0  0  0  0
 16  3  2  0  0  0  0
 17 18  1  0  0  0  0
 18  1  2  0  0  0  0
 18 16  1  0  0  0  0
 19 28  1  0  0  0  0
 20 27  1  0  0  0  0
 21 22  2  0  0  0  0
 21 26  1  0  0  0  0
 22 23  1  0  0  0  0
 23 19  2  0  0  0  0
 23 25  1  0  0  0  0
 24 25  1  0  0  0  0
 25 20  2  0  0  0  0
 26 24  2  0  0  0  0
 27  9  1  0  0  0  0
 28 27  2  0  0  0  0
 29 21  1  0  0  0  0
 30 29  2  0  0  0  0
 31 29  1  0  0  0  0
 32 14  1  0  0  0  0
 32 34  1  0  0  0  0
 33 32  1  0  0  0  0
 33 34  1  0  0  0  0
M  END
>  <MODEL>
6

>  <REMARK>
 VINA RESULT:     -10.1      3.416      7.641
  Name = 
  3 active torsions:
  status: ('A' for Active; 'I' for Inactive)
    1  A    between atoms: C_3  and  C_25
    2  A    between atoms: C_7  and  C_11
    3  A    between atoms: N_18  and  C_30
                            x       y       z     vdW  Elec       q    Type
                         _______ _______ _______ _____ _____    ______ ____

>  <TORSDO>
F 3

$$$$
=
 OpenBabel10262423243D

 34 40  0  0  0  0  0  0  0  0999 V2000
  188.0100  177.6370  144.4010 C   0  0  0  0  0  0  0  0  0  0  0  0
  191.5440  176.9080  143.7600 C   0  0  0  0  0  2  0  0  0  0  0  0
  190.4340  177.4460  145.7040 N   0  0  0  0  0  0  0  0  0  0  0  0
  186.0200  178.1270  145.1400 C   0  0  0  0  0  0  0  0  0  0  0  0
  186.6580  177.9260  144.0130 N   0  0  0  0  0  0  0  0  0  0  0  0
  186.8140  178.2530  147.6650 C   0  0  0  0  0  3  0  0  0  0  0  0
  188.0060  178.1610  148.4310 C   0  0  0  0  0  3  0  0  0  0  0  0
  186.9170  178.0060  146.2930 C   0  0  0  0  0  0  0  0  0  0  0  0
  184.6320  178.4730  145.2300 N   0  0  0  0  0  2  0  0  0  0  0  0
  189.2970  177.6640  146.4230 C   0  0  0  0  0  0  0  0  0  0  0  0
  188.1100  177.7050  145.7420 C   0  0  0  0  0  0  0  0  0  0  0  0
  189.2550  177.8720  147.8120 C   0  0  0  0  0  3  0  0  0  0  0  0
  191.6810  176.4020  142.3640 C   0  0  0  0  0  2  0  0  0  0  0  0
  191.3190  177.4130  141.3330 C   0  0  0  0  0  0  0  0  0  0  0  0
  190.1030  177.9550  141.2970 C   0  0  0  0  0  3  0  0  0  0  0  0
  190.4070  177.3170  144.3310 C   0  0  0  0  0  0  0  0  0  0  0  0
  189.0410  177.7810  142.3040 C   0  0  0  0  0  2  0  0  0  0  0  0
  189.1650  177.5160  143.6160 C   0  0  0  0  0  0  0  0  0  0  0  0
  181.4770  179.0030  143.2600 C   0  0  0  0  0  3  0  0  0  0  0  0
  184.2000  178.4960  142.8310 C   0  0  0  0  0  3  0  0  0  0  0  0
  181.5880  178.8960  139.5570 C   0  0  0  0  0  0  0  0  0  0  0  0
  181.1000  179.0150  140.8670 C   0  0  0  0  0  3  0  0  0  0  0  0
  181.9640  178.8830  141.9570 C   0  0  0  0  0  0  0  0  0  0  0  0
  183.8240  178.5080  140.4370 C   0  0  0  0  0  3  0  0  0  0  0  0
  183.3360  178.6280  141.7410 C   0  0  0  0  0  0  0  0  0  0  0  0
  182.9540  178.6420  139.3520 C   0  0  0  0  0  3  0  0  0  0  0  0
  183.7130  178.6150  144.1380 C   0  0  0  0  0  0  0  0  0  0  0  0
  182.3480  178.8690  144.3450 C   0  0  0  0  0  3  0  0  0  0  0  0
  180.6760  179.0360  138.4090 C   0  0  0  0  0  0  0  0  0  0  0  0
  179.4550  178.7530  138.5270 O   0  0  0  0  0  0  0  0  0  0  0  0
  181.1660  179.4960  137.1520 N   0  0  0  0  0  1  0  0  0  0  0  0
  192.3260  177.7870  140.2850 C   0  0  0  0  0  3  0  0  0  0  0  0
  193.4390  176.7530  140.2190 C   0  0  0  0  0  2  0  0  0  0  0  0
  192.3540  176.7530  139.1680 C   0  0  0  0  0  2  0  0  0  0  0  0
  1 11  1  0  0  0  0
  2 16  1  0  0  0  0
  3 10  1  0  0  0  0
  4  9  1  0  0  0  0
  4  8  1  0  0  0  0
  5  1  1  0  0  0  0
  5  4  2  0  0  0  0
  6  7  1  0  0  0  0
  8  6  2  0  0  0  0
 10 12  1  0  0  0  0
 11  8  1  0  0  0  0
 11 10  2  0  0  0  0
 12  7  2  0  0  0  0
 13  2  1  0  0  0  0
 14 13  1  0  0  0  0
 15 14  2  0  0  0  0
 15 17  1  0  0  0  0
 16  3  2  0  0  0  0
 17 18  1  0  0  0  0
 18 16  1  0  0  0  0
 18  1  2  0  0  0  0
 19 28  1  0  0  0  0
 20 27  1  0  0  0  0
 21 22  2  0  0  0  0
 22 23  1  0  0  0  0
 23 19  2  0  0  0  0
 24 25  1  0  0  0  0
 25 23  1  0  0  0  0
 25 20  2  0  0  0  0
 26 21  1  0  0  0  0
 26 24  2  0  0  0  0
 27 28  2  0  0  0  0
 27  9  1  0  0  0  0
 29 30  2  0  0  0  0
 29 21  1  0  0  0  0
 31 29  1  0  0  0  0
 32 14  1  0  0  0  0
 33 32  1  0  0  0  0
 34 33  1  0  0  0  0
 34 32  1  0  0  0  0
M  END
>  <MODEL>
7

>  <REMARK>
 VINA RESULT:     -10.1      3.879      8.187
  Name = 
  3 active torsions:
  status: ('A' for Active; 'I' for Inactive)
    1  A    between atoms: C_3  and  C_25
    2  A    between atoms: C_7  and  C_11
    3  A    between atoms: N_18  and  C_30
                            x       y       z     vdW  Elec       q    Type
                         _______ _______ _______ _____ _____    ______ ____

>  <TORSDO>
F 3

$$$$
=
 OpenBabel10262423243D

 34 40  0  0  0  0  0  0  0  0999 V2000
  189.2650  177.5970  140.9160 C   0  0  0  0  0  0  0  0  0  0  0  0
  191.0480  177.6700  144.1180 C   0  0  0  0  0  2  0  0  0  0  0  0
  191.7780  177.2020  141.9840 N   0  0  0  0  0  0  0  0  0  0  0  0
  188.5390  177.4470  138.8680 C   0  0  0  0  0  0  0  0  0  0  0  0
  188.0920  177.6110  140.0890 N   0  0  0  0  0  0  0  0  0  0  0  0
  190.9490  176.9610  137.8790 C   0  0  0  0  0  3  0  0  0  0  0  0
  192.2810  176.7550  138.3250 C   0  0  0  0  0  3  0  0  0  0  0  0
  189.9970  177.2950  138.8460 C   0  0  0  0  0  0  0  0  0  0  0  0
  187.7030  177.3730  137.7060 N   0  0  0  0  0  2  0  0  0  0  0  0
  191.6040  177.1530  140.6330 C   0  0  0  0  0  0  0  0  0  0  0  0
  190.3500  177.4010  140.1430 C   0  0  0  0  0  0  0  0  0  0  0  0
  192.6140  176.8440  139.7060 C   0  0  0  0  0  3  0  0  0  0  0  0
  190.1460  178.2520  145.1530 C   0  0  0  0  0  2  0  0  0  0  0  0
  188.9410  177.4200  145.4180 C   0  0  0  0  0  0  0  0  0  0  0  0
  188.0750  177.1310  144.4490 C   0  0  0  0  0  3  0  0  0  0  0  0
  190.7240  177.4460  142.8400 C   0  0  0  0  0  0  0  0  0  0  0  0
  188.2430  177.4260  143.0150 C   0  0  0  0  0  2  0  0  0  0  0  0
  189.3810  177.5530  142.3120 C   0  0  0  0  0  0  0  0  0  0  0  0
  184.0770  176.7710  136.9240 C   0  0  0  0  0  3  0  0  0  0  0  0
  185.6780  178.5470  138.3870 C   0  0  0  0  0  3  0  0  0  0  0  0
  181.4970  179.0180  138.3490 C   0  0  0  0  0  0  0  0  0  0  0  0
  182.0960  177.9730  137.6290 C   0  0  0  0  0  3  0  0  0  0  0  0
  183.4840  177.8130  137.6400 C   0  0  0  0  0  0  0  0  0  0  0  0
  183.6970  179.7490  139.0940 C   0  0  0  0  0  3  0  0  0  0  0  0
  184.2900  178.7070  138.3770 C   0  0  0  0  0  0  0  0  0  0  0  0
  182.3070  179.9030  139.0790 C   0  0  0  0  0  3  0  0  0  0  0  0
  186.2750  177.5040  137.6700 C   0  0  0  0  0  0  0  0  0  0  0  0
  185.4670  176.6180  136.9400 C   0  0  0  0  0  3  0  0  0  0  0  0
  180.0340  179.1860  138.3380 C   0  0  0  0  0  0  0  0  0  0  0  0
  179.5030  180.0980  137.6500 O   0  0  0  0  0  0  0  0  0  0  0  0
  179.2030  178.3180  139.1030 N   0  0  0  0  0  1  0  0  0  0  0  0
  188.6720  176.9430  146.8160 C   0  0  0  0  0  3  0  0  0  0  0  0
  189.3060  177.8790  147.8330 C   0  0  0  0  0  2  0  0  0  0  0  0
  187.8200  177.9490  147.5760 C   0  0  0  0  0  2  0  0  0  0  0  0
  1 18  1  0  0  0  0
  2 13  1  0  0  0  0
  3 16  1  0  0  0  0
  4  5  2  0  0  0  0
  5  1  1  0  0  0  0
  6  7  1  0  0  0  0
  6  8  2  0  0  0  0
  7 12  2  0  0  0  0
  8  4  1  0  0  0  0
  8 11  1  0  0  0  0
  9  4  1  0  0  0  0
 10  3  2  0  0  0  0
 11 10  1  0  0  0  0
 11  1  2  0  0  0  0
 12 10  1  0  0  0  0
 13 14  1  0  0  0  0
 14 32  1  0  0  0  0
 15 14  2  0  0  0  0
 16  2  1  0  0  0  0
 17 15  1  0  0  0  0
 18 16  2  0  0  0  0
 18 17  1  0  0  0  0
 19 28  2  0  0  0  0
 19 23  1  0  0  0  0
 21 26  1  0  0  0  0
 22 23  1  0  0  0  0
 22 21  2  0  0  0  0
 23 25  2  0  0  0  0
 25 20  1  0  0  0  0
 25 24  1  0  0  0  0
 26 24  2  0  0  0  0
 27  9  1  0  0  0  0
 27 20  2  0  0  0  0
 28 27  1  0  0  0  0
 29 21  1  0  0  0  0
 29 31  1  0  0  0  0
 30 29  2  0  0  0  0
 32 34  1  0  0  0  0
 32 33  1  0  0  0  0
 34 33  1  0  0  0  0
M  END
>  <MODEL>
8

>  <REMARK>
 VINA RESULT:      -9.9      3.857      9.624
  Name = 
  3 active torsions:
  status: ('A' for Active; 'I' for Inactive)
    1  A    between atoms: C_3  and  C_25
    2  A    between atoms: C_7  and  C_11
    3  A    between atoms: N_18  and  C_30
                            x       y       z     vdW  Elec       q    Type
                         _______ _______ _______ _____ _____    ______ ____

>  <TORSDO>
F 3

$$$$
=
 OpenBabel10262423243D

 34 40  0  0  0  0  0  0  0  0999 V2000
  182.4690  178.5300  140.8720 C   0  0  0  0  0  0  0  0  0  0  0  0
  181.2620  178.2050  137.4260 C   0  0  0  0  0  2  0  0  0  0  0  0
  180.1470  178.6650  139.3890 N   0  0  0  0  0  0  0  0  0  0  0  0
  182.8220  178.7780  143.0070 C   0  0  0  0  0  0  0  0  0  0  0  0
  183.4480  178.4130  141.9150 N   0  0  0  0  0  0  0  0  0  0  0  0
  180.3010  179.4200  143.5120 C   0  0  0  0  0  3  0  0  0  0  0  0
  179.0560  179.5310  142.8380 C   0  0  0  0  0  3  0  0  0  0  0  0
  181.4220  179.1190  142.7340 C   0  0  0  0  0  0  0  0  0  0  0  0
  183.4160  178.7920  144.3110 N   0  0  0  0  0  2  0  0  0  0  0  0
  180.1180  178.9730  140.7160 C   0  0  0  0  0  0  0  0  0  0  0  0
  181.3010  178.9370  141.4040 C   0  0  0  0  0  0  0  0  0  0  0  0
  178.9580  179.3020  141.4370 C   0  0  0  0  0  3  0  0  0  0  0  0
  182.4390  178.1240  136.5140 C   0  0  0  0  0  2  0  0  0  0  0  0
  183.2680  176.9080  136.7320 C   0  0  0  0  0  0  0  0  0  0  0  0
  183.8340  176.6610  137.9120 C   0  0  0  0  0  3  0  0  0  0  0  0
  181.3140  178.2850  138.7600 C   0  0  0  0  0  0  0  0  0  0  0  0
  183.6100  177.4130  139.1600 C   0  0  0  0  0  2  0  0  0  0  0  0
  182.5220  178.1070  139.5370 C   0  0  0  0  0  0  0  0  0  0  0  0
  186.5890  178.2070  146.2370 C   0  0  0  0  0  3  0  0  0  0  0  0
  185.6260  178.0400  143.6100 C   0  0  0  0  0  3  0  0  0  0  0  0
  189.6230  177.0380  144.4590 C   0  0  0  0  0  0  0  0  0  0  0  0
  188.7680  177.4570  145.4880 C   0  0  0  0  0  3  0  0  0  0  0  0
  187.4390  177.7910  145.2110 C   0  0  0  0  0  0  0  0  0  0  0  0
  187.8050  177.2900  142.8600 C   0  0  0  0  0  3  0  0  0  0  0  0
  186.9540  177.7070  143.8870 C   0  0  0  0  0  0  0  0  0  0  0  0
  189.1320  176.9570  143.1450 C   0  0  0  0  0  3  0  0  0  0  0  0
  184.7720  178.4590  144.6370 C   0  0  0  0  0  0  0  0  0  0  0  0
  185.2620  178.5390  145.9500 C   0  0  0  0  0  3  0  0  0  0  0  0
  191.0230  176.6860  144.7520 C   0  0  0  0  0  0  0  0  0  0  0  0
  191.7020  176.0280  143.9200 O   0  0  0  0  0  0  0  0  0  0  0  0
  191.6250  177.0870  145.9800 N   0  0  0  0  0  1  0  0  0  0  0  0
  183.5140  175.9710  135.5850 C   0  0  0  0  0  3  0  0  0  0  0  0
  184.1000  174.6590  136.0800 C   0  0  0  0  0  2  0  0  0  0  0  0
  182.6400  174.7310  135.7020 C   0  0  0  0  0  2  0  0  0  0  0  0
  1 11  1  0  0  0  0
  1  5  1  0  0  0  0
  2 16  1  0  0  0  0
  3 10  1  0  0  0  0
  4  9  1  0  0  0  0
  5  4  2  0  0  0  0
  7  6  1  0  0  0  0
  8  4  1  0  0  0  0
  8  6  2  0  0  0  0
  9 27  1  0  0  0  0
 10 11  2  0  0  0  0
 10 12  1  0  0  0  0
 11  8  1  0  0  0  0
 12  7  2  0  0  0  0
 13 14  1  0  0  0  0
 13  2  1  0  0  0  0
 14 15  2  0  0  0  0
 15 17  1  0  0  0  0
 16  3  2  0  0  0  0
 16 18  1  0  0  0  0
 17 18  1  0  0  0  0
 18  1  2  0  0  0  0
 20 25  2  0  0  0  0
 20 27  1  0  0  0  0
 21 29  1  0  0  0  0
 21 22  2  0  0  0  0
 23 22  1  0  0  0  0
 23 19  2  0  0  0  0
 24 26  2  0  0  0  0
 24 25  1  0  0  0  0
 25 23  1  0  0  0  0
 26 21  1  0  0  0  0
 27 28  2  0  0  0  0
 28 19  1  0  0  0  0
 29 31  1  0  0  0  0
 30 29  2  0  0  0  0
 32 34  1  0  0  0  0
 32 33  1  0  0  0  0
 32 14  1  0  0  0  0
 34 33  1  0  0  0  0
M  END
>  <MODEL>
9

>  <REMARK>
 VINA RESULT:      -9.8      3.412      4.567
  Name = 
  3 active torsions:
  status: ('A' for Active; 'I' for Inactive)
    1  A    between atoms: C_3  and  C_25
    2  A    between atoms: C_7  and  C_11
    3  A    between atoms: N_18  and  C_30
                            x       y       z     vdW  Elec       q    Type
                         _______ _______ _______ _____ _____    ______ ____

>  <TORSDO>
F 3

$$$$
