=
 OpenBabel10262421393D

 32 39  0  0  1  0  0  0  0  0999 V2000
  185.8980  179.0530  142.3890 C   0  0  2  0  0  3  0  0  0  0  0  0
  185.9820  178.6120  146.2190 C   0  0  0  0  0  3  0  0  0  0  0  0
  184.6010  178.4270  146.4280 C   0  0  0  0  0  3  0  0  0  0  0  0
  184.0920  179.2030  140.4850 C   0  0  1  0  0  3  0  0  0  0  0  0
  182.7170  179.1010  140.2430 C   0  0  0  0  0  0  0  0  0  0  0  0
  180.5380  178.9230  140.7470 N   0  0  0  0  0  0  0  0  0  0  0  0
  186.4880  178.8120  144.9240 C   0  0  0  0  0  3  0  0  0  0  0  0
  185.5920  178.8120  143.8520 C   0  0  0  0  0  0  0  0  0  0  0  0
  183.5660  178.7360  142.7990 C   0  0  0  0  0  0  0  0  0  0  0  0
  180.5310  179.1530  139.3970 O   0  0  0  0  0  0  0  0  0  0  0  0
  181.8990  179.3800  139.0360 C   0  0  0  0  0  3  0  0  0  0  0  0
  183.7090  178.4420  145.3440 C   0  0  0  0  0  3  0  0  0  0  0  0
  184.2370  178.6340  144.0700 C   0  0  0  0  0  0  0  0  0  0  0  0
  182.2280  178.6810  142.5410 N   0  0  0  0  0  0  0  0  0  0  0  0
  184.9910  179.5150  139.4720 O   0  0  0  0  0  1  0  0  0  0  0  0
  179.2210  179.4510  141.7550 Cl  0  0  0  0  0  0  0  0  0  0  0  0
  184.5100  178.9880  141.8070 C   0  0  0  0  0  0  0  0  0  0  0  0
  181.8480  178.8390  141.2410 C   0  0  0  0  0  0  0  0  0  0  0  0
  188.8480  176.6310  142.6600 C   0  0  2  0  0  3  0  0  0  0  0  0
  187.9090  178.6250  140.9190 C   0  0  0  0  0  2  0  0  0  0  0  0
  188.8520  177.5620  140.4500 C   0  0  0  0  0  3  0  0  0  0  0  0
  186.8190  177.9840  141.7800 C   0  0  1  0  0  3  0  0  0  0  0  0
  189.2620  176.6540  141.2690 N   0  0  0  0  0  0  0  0  0  0  0  0
  187.3550  176.9660  142.8160 C   0  0  0  0  0  2  0  0  0  0  0  0
  190.7860  176.4030  147.5510 C   0  0  0  0  0  2  0  0  0  0  0  0
  191.0220  177.3500  143.2770 O   0  0  0  0  0  0  0  0  0  0  0  0
  191.5650  177.3510  145.4590 C   0  0  2  0  0  3  0  0  0  0  0  0
  189.6030  176.9960  146.8230 C   0  0  0  0  0  2  0  0  0  0  0  0
  190.4910  176.8300  144.4900 C   0  0  2  0  0  0  0  0  0  0  0  0
  191.8690  176.2940  146.5070 C   0  0  0  0  0  2  0  0  0  0  0  0
  189.6860  177.5980  143.4830 C   0  0  2  0  0  3  0  0  0  0  0  0
  190.1700  177.7840  145.6540 C   0  0  2  0  0  3  0  0  0  0  0  0
  1 17  1  6  0  0  0
  1  8  1  0  0  0  0
  2  3  1  0  0  0  0
  4 15  1  1  0  0  0
  4 17  1  0  0  0  0
  5  4  1  0  0  0  0
  5 18  1  0  0  0  0
  6 18  1  0  0  0  0
  6 16  1  0  0  0  0
  7  2  2  0  0  0  0
  8 13  2  0  0  0  0
  8  7  1  0  0  0  0
  9 13  1  0  0  0  0
 10  6  1  0  0  0  0
 11 10  1  0  0  0  0
 11  5  2  0  0  0  0
 12  3  2  0  0  0  0
 13 12  1  0  0  0  0
 14  9  1  0  0  0  0
 17  9  2  0  0  0  0
 18 14  2  0  0  0  0
 19 24  1  6  0  0  0
 19 31  1  0  0  0  0
 21 20  1  0  0  0  0
 21 23  2  0  0  0  0
 22 20  1  1  0  0  0
 22  1  1  0  0  0  0
 22 24  1  0  0  0  0
 23 19  1  0  0  0  0
 27 32  1  0  0  0  0
 27 30  1  1  0  0  0
 28 25  1  0  0  0  0
 29 26  1  6  0  0  0
 29 27  1  0  0  0  0
 29 32  1  0  0  0  0
 30 25  1  0  0  0  0
 31 26  1  6  0  0  0
 31 29  1  0  0  0  0
 32 28  1  1  0  0  0
M  END
>  <MODEL>
1

>  <REMARK>
 VINA RESULT:     -10.7      0.000      0.000
  Name = 
  2 active torsions:
  status: ('A' for Active; 'I' for Inactive)
    1  A    between atoms: C_3  and  C_14
    2  A    between atoms: C_8  and  C_23
                            x       y       z     vdW  Elec       q    Type
                         _______ _______ _______ _____ _____    ______ ____

>  <TORSDO>
F 2

$$$$
=
 OpenBabel10262421393D

 32 39  0  0  1  0  0  0  0  0999 V2000
  185.7070  179.1820  141.8140 C   0  0  2  0  0  3  0  0  0  0  0  0
  185.2030  179.0540  145.6360 C   0  0  0  0  0  3  0  0  0  0  0  0
  183.8150  178.8110  145.6450 C   0  0  0  0  0  3  0  0  0  0  0  0
  184.2200  179.0810  139.6490 C   0  0  1  0  0  3  0  0  0  0  0  0
  182.9060  178.8840  139.2090 C   0  0  0  0  0  0  0  0  0  0  0  0
  180.6830  178.6280  139.3850 N   0  0  0  0  0  0  0  0  0  0  0  0
  185.8990  179.1770  144.4210 C   0  0  0  0  0  3  0  0  0  0  0  0
  185.1840  179.0420  143.2280 C   0  0  0  0  0  0  0  0  0  0  0  0
  183.3550  178.7720  141.8870 C   0  0  0  0  0  0  0  0  0  0  0  0
  180.8800  178.7490  138.0350 O   0  0  0  0  0  0  0  0  0  0  0  0
  182.2770  179.0210  137.8700 C   0  0  0  0  0  3  0  0  0  0  0  0
  183.1060  178.6900  144.4390 C   0  0  0  0  0  3  0  0  0  0  0  0
  183.8210  178.8080  143.2500 C   0  0  0  0  0  0  0  0  0  0  0  0
  182.0770  178.6230  141.4320 N   0  0  0  0  0  0  0  0  0  0  0  0
  185.2530  179.3590  138.7630 O   0  0  0  0  0  1  0  0  0  0  0  0
  179.2030  179.1630  140.1280 Cl  0  0  0  0  0  0  0  0  0  0  0  0
  184.4320  178.9940  141.0340 C   0  0  0  0  0  0  0  0  0  0  0  0
  181.9010  178.6560  140.0800 C   0  0  0  0  0  0  0  0  0  0  0  0
  188.5460  176.8110  142.7940 C   0  0  2  0  0  3  0  0  0  0  0  0
  188.0060  178.7660  140.8500 C   0  0  0  0  0  2  0  0  0  0  0  0
  189.0450  177.7120  140.6270 C   0  0  0  0  0  3  0  0  0  0  0  0
  186.7560  178.1190  141.4500 C   0  0  1  0  0  3  0  0  0  0  0  0
  189.2680  176.8210  141.5340 N   0  0  0  0  0  0  0  0  0  0  0  0
  187.0520  177.1240  142.5980 C   0  0  0  0  0  2  0  0  0  0  0  0
  188.9220  176.8790  148.0450 C   0  0  0  0  0  2  0  0  0  0  0  0
  190.4800  177.4820  143.9920 O   0  0  0  0  0  0  0  0  0  0  0  0
  190.3480  177.6280  146.2320 C   0  0  2  0  0  3  0  0  0  0  0  0
  188.0510  177.4630  146.9600 C   0  0  0  0  0  2  0  0  0  0  0  0
  189.5790  177.0800  145.0180 C   0  0  2  0  0  0  0  0  0  0  0  0
  190.2580  176.6430  147.3840 C   0  0  0  0  0  2  0  0  0  0  0  0
  189.1610  177.8020  143.7700 C   0  0  2  0  0  3  0  0  0  0  0  0
  188.9890  178.1330  145.9700 C   0  0  2  0  0  3  0  0  0  0  0  0
  1 17  1  6  0  0  0
  1  8  1  0  0  0  0
  2  3  1  0  0  0  0
  4 15  1  1  0  0  0
  4 17  1  0  0  0  0
  5  4  1  0  0  0  0
  5 18  1  0  0  0  0
  6 18  1  0  0  0  0
  6 16  1  0  0  0  0
  7  2  2  0  0  0  0
  8 13  2  0  0  0  0
  8  7  1  0  0  0  0
  9 13  1  0  0  0  0
 10  6  1  0  0  0  0
 11 10  1  0  0  0  0
 11  5  2  0  0  0  0
 12  3  2  0  0  0  0
 13 12  1  0  0  0  0
 14  9  1  0  0  0  0
 17  9  2  0  0  0  0
 18 14  2  0  0  0  0
 19 24  1  6  0  0  0
 19 31  1  0  0  0  0
 21 20  1  0  0  0  0
 21 23  2  0  0  0  0
 22 20  1  1  0  0  0
 22  1  1  0  0  0  0
 22 24  1  0  0  0  0
 23 19  1  0  0  0  0
 27 30  1  1  0  0  0
 28 25  1  0  0  0  0
 29 26  1  6  0  0  0
 29 32  1  0  0  0  0
 29 27  1  0  0  0  0
 30 25  1  0  0  0  0
 31 26  1  6  0  0  0
 31 29  1  0  0  0  0
 32 27  1  0  0  0  0
 32 28  1  1  0  0  0
M  END
>  <MODEL>
2

>  <REMARK>
 VINA RESULT:     -10.2      0.955      1.094
  Name = 
  2 active torsions:
  status: ('A' for Active; 'I' for Inactive)
    1  A    between atoms: C_3  and  C_14
    2  A    between atoms: C_8  and  C_23
                            x       y       z     vdW  Elec       q    Type
                         _______ _______ _______ _____ _____    ______ ____

>  <TORSDO>
F 2

$$$$
=
 OpenBabel10262421393D

 32 39  0  0  1  0  0  0  0  0999 V2000
  189.5800  178.1180  141.0340 C   0  0  2  0  0  3  0  0  0  0  0  0
  185.8380  179.0030  140.7390 C   0  0  0  0  0  3  0  0  0  0  0  0
  185.6240  178.5290  139.4300 C   0  0  0  0  0  3  0  0  0  0  0  0
  191.4760  177.1370  139.5010 C   0  0  0  0  0  0  0  0  0  0  0  0
  191.7130  176.5900  138.2340 C   0  0  0  0  0  0  0  0  0  0  0  0
  191.2520  176.0020  136.1180 N   0  0  0  0  0  0  0  0  0  0  0  0
  187.1030  178.8950  141.3410 C   0  0  0  0  0  3  0  0  0  0  0  0
  188.1360  178.2990  140.6150 C   0  0  0  0  0  0  0  0  0  0  0  0
  189.1640  177.3320  138.8170 C   0  0  0  0  0  0  0  0  0  0  0  0
  192.5970  175.7640  136.2260 O   0  0  0  0  0  0  0  0  0  0  0  0
  192.9680  176.2230  137.5310 C   0  0  0  0  0  3  0  0  0  0  0  0
  186.6740  177.9420  138.7050 C   0  0  0  0  0  3  0  0  0  0  0  0
  187.9160  177.8410  139.3270 C   0  0  0  0  0  0  0  0  0  0  0  0
  189.4320  176.8330  137.5760 N   0  0  0  0  0  0  0  0  0  0  0  0
  192.5030  177.3300  140.4170 O   0  0  0  0  0  1  0  0  0  0  0  0
  190.5390  176.4530  134.5960 Cl  0  0  0  0  0  0  0  0  0  0  0  0
  190.1490  177.4900  139.7890 C   0  0  0  0  0  0  0  0  0  0  0  0
  190.7170  176.4450  137.3360 C   0  0  2  0  0  3  0  0  0  0  0  0
  188.3290  176.7530  144.3830 C   0  0  2  0  0  3  0  0  0  0  0  0
  190.6830  177.8280  143.2900 C   0  0  0  0  0  2  0  0  0  0  0  0
  190.7150  176.9630  144.5110 C   0  0  0  0  0  3  0  0  0  0  0  0
  189.7440  177.2020  142.2570 C   0  0  1  0  0  3  0  0  0  0  0  0
  189.6200  176.4770  144.9880 N   0  0  0  0  0  0  0  0  0  0  0  0
  188.3990  176.7110  142.8460 C   0  0  0  0  0  2  0  0  0  0  0  0
  183.4600  178.6280  145.0940 C   0  0  0  0  0  2  0  0  0  0  0  0
  187.6680  178.1120  146.2100 O   0  0  0  0  0  0  0  0  0  0  0  0
  185.5890  178.9690  146.2040 C   0  0  2  0  0  3  0  0  0  0  0  0
  184.5480  178.6560  144.0470 C   0  0  0  0  0  2  0  0  0  0  0  0
  186.4580  177.9230  145.4860 C   0  0  2  0  0  0  0  0  0  0  0  0
  184.1860  178.4240  146.4010 C   0  0  0  0  0  2  0  0  0  0  0  0
  187.8010  178.1040  144.8420 C   0  0  2  0  0  3  0  0  0  0  0  0
  185.8130  179.1120  144.7540 C   0  0  2  0  0  3  0  0  0  0  0  0
  1 17  1  6  0  0  0
  1 22  1  0  0  0  0
  2  7  1  0  0  0  0
  3  2  2  0  0  0  0
  4 17  2  0  0  0  0
  4 15  1  0  0  0  0
  5  4  1  0  0  0  0
  6 10  1  0  0  0  0
  6 18  1  0  0  0  0
  8  1  1  0  0  0  0
  8  7  2  0  0  0  0
  9 13  1  0  0  0  0
  9 17  1  0  0  0  0
 10 11  1  0  0  0  0
 11  5  2  0  0  0  0
 12 13  2  0  0  0  0
 12  3  1  0  0  0  0
 13  8  1  0  0  0  0
 14  9  2  0  0  0  0
 16  6  1  0  0  0  0
 18 14  1  6  0  0  0
 18  5  1  0  0  0  0
 19 24  1  6  0  0  0
 19 31  1  0  0  0  0
 19 23  1  0  0  0  0
 20 21  1  0  0  0  0
 21 23  2  0  0  0  0
 22 24  1  1  0  0  0
 22 20  1  0  0  0  0
 25 30  1  0  0  0  0
 27 30  1  6  0  0  0
 28 25  1  0  0  0  0
 29 27  1  0  0  0  0
 29 26  1  1  0  0  0
 31 29  1  0  0  0  0
 31 26  1  1  0  0  0
 32 28  1  6  0  0  0
 32 29  1  0  0  0  0
 32 27  1  0  0  0  0
M  END
>  <MODEL>
3

>  <REMARK>
 VINA RESULT:      -9.6      4.359      7.209
  Name = 
  2 active torsions:
  status: ('A' for Active; 'I' for Inactive)
    1  A    between atoms: C_3  and  C_14
    2  A    between atoms: C_8  and  C_23
                            x       y       z     vdW  Elec       q    Type
                         _______ _______ _______ _____ _____    ______ ____

>  <TORSDO>
F 2

$$$$
=
 OpenBabel10262421393D

 32 39  0  0  1  0  0  0  0  0999 V2000
  187.7770  177.1300  142.5620 C   0  0  2  0  0  3  0  0  0  0  0  0
  184.1840  178.4880  142.2190 C   0  0  0  0  0  3  0  0  0  0  0  0
  184.0320  178.9810  143.5300 C   0  0  0  0  0  3  0  0  0  0  0  0
  189.5850  176.8600  144.4510 C   0  0  1  0  0  3  0  0  0  0  0  0
  189.8490  177.1610  145.7930 C   0  0  0  0  0  0  0  0  0  0  0  0
  189.4110  177.8750  147.8750 N   0  0  0  0  0  0  0  0  0  0  0  0
  185.3850  177.8780  141.8200 C   0  0  0  0  0  3  0  0  0  0  0  0
  186.4240  177.7830  142.7490 C   0  0  0  0  0  0  0  0  0  0  0  0
  187.4670  177.9810  144.7720 C   0  0  0  0  0  0  0  0  0  0  0  0
  190.6580  177.3210  147.9870 O   0  0  0  0  0  0  0  0  0  0  0  0
  190.9470  176.7520  146.7040 C   0  0  0  0  0  3  0  0  0  0  0  0
  185.0790  178.8680  144.4590 C   0  0  0  0  0  3  0  0  0  0  0  0
  186.2620  178.2660  144.0350 C   0  0  0  0  0  0  0  0  0  0  0  0
  187.7340  178.2270  146.0880 N   0  0  0  0  0  0  0  0  0  0  0  0
  190.4840  176.1380  143.6750 O   0  0  0  0  0  1  0  0  0  0  0  0
  188.3050  177.8780  149.2180 Cl  0  0  0  0  0  0  0  0  0  0  0  0
  188.3600  177.3140  143.9390 C   0  0  0  0  0  0  0  0  0  0  0  0
  188.9510  177.8250  146.5500 C   0  0  0  0  0  0  0  0  0  0  0  0
  188.3550  178.2310  138.9430 C   0  0  2  0  0  3  0  0  0  0  0  0
  189.7350  176.8780  140.9830 C   0  0  0  0  0  2  0  0  0  0  0  0
  190.4630  177.5400  139.8550 C   0  0  0  0  0  3  0  0  0  0  0  0
  188.6360  177.8160  141.4880 C   0  0  1  0  0  3  0  0  0  0  0  0
  189.8060  178.1600  138.9350 N   0  0  0  0  0  0  0  0  0  0  0  0
  187.8050  178.4740  140.3600 C   0  0  0  0  0  2  0  0  0  0  0  0
  184.0310  177.3110  136.0840 C   0  0  0  0  0  2  0  0  0  0  0  0
  188.2570  176.7400  137.1030 O   0  0  0  0  0  0  0  0  0  0  0  0
  186.2550  176.3470  136.1560 C   0  0  2  0  0  3  0  0  0  0  0  0
  184.4780  177.2420  137.5240 C   0  0  0  0  0  2  0  0  0  0  0  0
  186.9490  177.3000  137.1440 C   0  0  2  0  0  0  0  0  0  0  0  0
  185.2930  177.1280  135.2780 C   0  0  0  0  0  2  0  0  0  0  0  0
  187.7550  176.9600  138.3630 C   0  0  2  0  0  3  0  0  0  0  0  0
  185.7530  176.4170  137.5390 C   0  0  2  0  0  3  0  0  0  0  0  0
  1  8  1  1  0  0  0
  1 17  1  0  0  0  0
  2  3  1  0  0  0  0
  3 12  2  0  0  0  0
  4 15  1  1  0  0  0
  4  5  1  0  0  0  0
  5 18  1  0  0  0  0
  5 11  2  0  0  0  0
  6 10  1  0  0  0  0
  6 16  1  0  0  0  0
  7  2  2  0  0  0  0
  7  8  1  0  0  0  0
  8 13  2  0  0  0  0
  9 14  1  0  0  0  0
 11 10  1  0  0  0  0
 13 12  1  0  0  0  0
 13  9  1  0  0  0  0
 14 18  2  0  0  0  0
 17  4  1  0  0  0  0
 17  9  2  0  0  0  0
 18  6  1  0  0  0  0
 19 24  1  1  0  0  0
 20 22  1  0  0  0  0
 21 20  1  0  0  0  0
 22 24  1  6  0  0  0
 22  1  1  0  0  0  0
 23 19  1  0  0  0  0
 23 21  2  0  0  0  0
 25 28  1  0  0  0  0
 27 30  1  6  0  0  0
 27 29  1  0  0  0  0
 27 32  1  0  0  0  0
 29 26  1  1  0  0  0
 29 32  1  0  0  0  0
 29 31  1  0  0  0  0
 30 25  1  0  0  0  0
 31 26  1  6  0  0  0
 31 19  1  0  0  0  0
 32 28  1  6  0  0  0
M  END
>  <MODEL>
4

>  <REMARK>
 VINA RESULT:      -9.3      3.659      7.643
  Name = 
  2 active torsions:
  status: ('A' for Active; 'I' for Inactive)
    1  A    between atoms: C_3  and  C_14
    2  A    between atoms: C_8  and  C_23
                            x       y       z     vdW  Elec       q    Type
                         _______ _______ _______ _____ _____    ______ ____

>  <TORSDO>
F 2

$$$$
=
 OpenBabel10262421393D

 32 39  0  0  1  0  0  0  0  0999 V2000
  188.2660  178.4950  139.8950 C   0  0  2  0  0  3  0  0  0  0  0  0
  191.8580  177.4280  140.8050 C   0  0  0  0  0  3  0  0  0  0  0  0
  191.6340  177.1110  142.1600 C   0  0  0  0  0  3  0  0  0  0  0  0
  185.9640  178.8300  141.1190 C   0  0  1  0  0  3  0  0  0  0  0  0
  185.3260  178.6700  142.3550 C   0  0  0  0  0  0  0  0  0  0  0  0
  185.1530  178.2520  144.5530 N   0  0  0  0  0  0  0  0  0  0  0  0
  190.8030  177.8770  139.9930 C   0  0  0  0  0  3  0  0  0  0  0  0
  189.5310  177.9910  140.5570 C   0  0  0  0  0  0  0  0  0  0  0  0
  187.9410  177.9460  142.1970 C   0  0  0  0  0  0  0  0  0  0  0  0
  183.9040  178.7030  144.2190 O   0  0  0  0  0  0  0  0  0  0  0  0
  183.9860  179.0860  142.8410 C   0  0  0  0  0  3  0  0  0  0  0  0
  190.3520  177.2420  142.7190 C   0  0  0  0  0  3  0  0  0  0  0  0
  189.3230  177.6820  141.8900 C   0  0  0  0  0  0  0  0  0  0  0  0
  187.3040  177.8370  143.3990 N   0  0  0  0  0  0  0  0  0  0  0  0
  185.3050  179.3710  140.0220 O   0  0  0  0  0  1  0  0  0  0  0  0
  185.8040  178.5080  146.1470 Cl  0  0  0  0  0  0  0  0  0  0  0  0
  187.3070  178.4270  141.0550 C   0  0  0  0  0  0  0  0  0  0  0  0
  185.9850  178.1830  143.4260 C   0  0  0  0  0  0  0  0  0  0  0  0
  189.0170  176.0490  137.0500 C   0  0  2  0  0  3  0  0  0  0  0  0
  187.6060  178.4440  137.4560 C   0  0  0  0  0  2  0  0  0  0  0  0
  187.2780  177.5290  136.3170 C   0  0  0  0  0  3  0  0  0  0  0  0
  187.8030  177.6130  138.7250 C   0  0  1  0  0  3  0  0  0  0  0  0
  187.9370  176.4320  136.1580 N   0  0  0  0  0  0  0  0  0  0  0  0
  188.6760  176.3510  138.5200 C   0  0  0  0  0  2  0  0  0  0  0  0
  194.0630  174.5450  137.1170 C   0  0  0  0  0  2  0  0  0  0  0  0
  190.5820  176.5260  135.3330 O   0  0  0  0  0  0  0  0  0  0  0  0
  192.7330  175.9630  135.6670 C   0  0  2  0  0  3  0  0  0  0  0  0
  193.1000  175.3360  137.9700 C   0  0  0  0  0  2  0  0  0  0  0  0
  191.3290  175.7340  136.2500 C   0  0  2  0  0  0  0  0  0  0  0  0
  193.5270  174.6690  135.7120 C   0  0  0  0  0  2  0  0  0  0  0  0
  190.3080  176.7530  136.6610 C   0  0  2  0  0  3  0  0  0  0  0  0
  192.4710  176.3750  137.0570 C   0  0  2  0  0  3  0  0  0  0  0  0
  1  8  1  1  0  0  0
  1 17  1  0  0  0  0
  2  3  1  0  0  0  0
  3 12  2  0  0  0  0
  4 15  1  1  0  0  0
  4  5  1  0  0  0  0
  5 11  2  0  0  0  0
  5 18  1  0  0  0  0
  6 16  1  0  0  0  0
  7  8  1  0  0  0  0
  7  2  2  0  0  0  0
  8 13  2  0  0  0  0
  9 14  1  0  0  0  0
 10  6  1  0  0  0  0
 11 10  1  0  0  0  0
 13  9  1  0  0  0  0
 13 12  1  0  0  0  0
 14 18  2  0  0  0  0
 17  4  1  0  0  0  0
 17  9  2  0  0  0  0
 18  6  1  0  0  0  0
 19 24  1  1  0  0  0
 21 20  1  0  0  0  0
 22 20  1  6  0  0  0
 22  1  1  0  0  0  0
 23 21  2  0  0  0  0
 23 19  1  0  0  0  0
 24 22  1  0  0  0  0
 25 28  1  0  0  0  0
 27 30  1  1  0  0  0
 27 29  1  0  0  0  0
 27 32  1  0  0  0  0
 29 26  1  6  0  0  0
 29 31  1  0  0  0  0
 29 32  1  0  0  0  0
 30 25  1  0  0  0  0
 31 26  1  6  0  0  0
 31 19  1  0  0  0  0
 32 28  1  1  0  0  0
M  END
>  <MODEL>
5

>  <REMARK>
 VINA RESULT:      -8.7      4.028      6.548
  Name = 
  2 active torsions:
  status: ('A' for Active; 'I' for Inactive)
    1  A    between atoms: C_3  and  C_14
    2  A    between atoms: C_8  and  C_23
                            x       y       z     vdW  Elec       q    Type
                         _______ _______ _______ _____ _____    ______ ____

>  <TORSDO>
F 2

$$$$
=
 OpenBabel10262421393D

 32 39  0  0  1  0  0  0  0  0999 V2000
  185.8180  179.0560  143.4940 C   0  0  2  0  0  3  0  0  0  0  0  0
  187.2930  178.2950  140.0130 C   0  0  0  0  0  3  0  0  0  0  0  0
  188.3820  177.5020  140.4280 C   0  0  0  0  0  3  0  0  0  0  0  0
  186.4270  178.5980  146.0100 C   0  0  1  0  0  3  0  0  0  0  0  0
  187.3430  177.9290  146.8310 C   0  0  0  0  0  0  0  0  0  0  0  0
  189.1890  176.7600  147.3430 N   0  0  0  0  0  0  0  0  0  0  0  0
  186.4000  178.8320  140.9560 C   0  0  0  0  0  3  0  0  0  0  0  0
  186.6120  178.5520  142.3080 C   0  0  0  0  0  0  0  0  0  0  0  0
  187.6800  177.7070  144.1430 C   0  0  0  0  0  0  0  0  0  0  0  0
  188.6840  177.1050  148.5680 O   0  0  0  0  0  0  0  0  0  0  0  0
  187.5550  177.9460  148.3000 C   0  0  0  0  0  3  0  0  0  0  0  0
  188.5910  177.2380  141.7900 C   0  0  0  0  0  3  0  0  0  0  0  0
  187.6880  177.7760  142.7040 C   0  0  0  0  0  0  0  0  0  0  0  0
  188.5800  177.0970  144.9670 N   0  0  0  0  0  0  0  0  0  0  0  0
  185.4060  179.3780  146.5400 O   0  0  0  0  0  1  0  0  0  0  0  0
  190.9000  176.5480  147.1040 Cl  0  0  0  0  0  0  0  0  0  0  0  0
  186.6060  178.4500  144.6260 C   0  0  0  0  0  0  0  0  0  0  0  0
  188.3570  177.2090  146.3070 C   0  0  0  0  0  0  0  0  0  0  0  0
  182.6580  177.9530  141.6380 C   0  0  2  0  0  3  0  0  0  0  0  0
  183.3920  179.7410  143.6780 C   0  0  0  0  0  2  0  0  0  0  0  0
  181.9870  179.2400  143.5480 C   0  0  0  0  0  3  0  0  0  0  0  0
  184.3600  178.5700  143.4950 C   0  0  1  0  0  3  0  0  0  0  0  0
  181.6790  178.4150  142.6060 N   0  0  0  0  0  0  0  0  0  0  0  0
  184.0140  177.6500  142.3000 C   0  0  0  0  0  2  0  0  0  0  0  0
  183.5300  177.5030  136.4650 C   0  0  0  0  0  2  0  0  0  0  0  0
  181.6190  179.2940  139.9810 O   0  0  0  0  0  0  0  0  0  0  0  0
  182.2950  179.0660  137.8480 C   0  0  2  0  0  3  0  0  0  0  0  0
  184.3130  177.7430  137.7330 C   0  0  0  0  0  2  0  0  0  0  0  0
  182.4080  178.3840  139.2220 C   0  0  2  0  0  0  0  0  0  0  0  0
  182.1420  178.0140  136.7640 C   0  0  0  0  0  2  0  0  0  0  0  0
  182.8390  178.9800  140.5300 C   0  0  2  0  0  3  0  0  0  0  0  0
  183.6310  178.9000  138.4460 C   0  0  2  0  0  3  0  0  0  0  0  0
  1  8  1  6  0  0  0
  1 22  1  0  0  0  0
  1 17  1  0  0  0  0
  2  3  2  0  0  0  0
  2  7  1  0  0  0  0
  3 12  1  0  0  0  0
  4 15  1  6  0  0  0
  4  5  1  0  0  0  0
  5 11  2  0  0  0  0
  6 10  1  0  0  0  0
  7  8  2  0  0  0  0
  8 13  1  0  0  0  0
  9 17  2  0  0  0  0
  9 14  1  0  0  0  0
 11 10  1  0  0  0  0
 12 13  2  0  0  0  0
 13  9  1  0  0  0  0
 14 18  2  0  0  0  0
 16  6  1  0  0  0  0
 17  4  1  0  0  0  0
 18  5  1  0  0  0  0
 18  6  1  0  0  0  0
 19 24  1  1  0  0  0
 19 23  1  0  0  0  0
 21 20  1  0  0  0  0
 22 24  1  6  0  0  0
 22 20  1  0  0  0  0
 23 21  2  0  0  0  0
 25 30  1  0  0  0  0
 25 28  1  0  0  0  0
 27 30  1  6  0  0  0
 27 32  1  0  0  0  0
 27 29  1  0  0  0  0
 29 26  1  1  0  0  0
 29 31  1  0  0  0  0
 31 26  1  1  0  0  0
 31 19  1  0  0  0  0
 32 28  1  6  0  0  0
 32 29  1  0  0  0  0
M  END
>  <MODEL>
6

>  <REMARK>
 VINA RESULT:      -8.4      3.410      8.353
  Name = 
  2 active torsions:
  status: ('A' for Active; 'I' for Inactive)
    1  A    between atoms: C_3  and  C_14
    2  A    between atoms: C_8  and  C_23
                            x       y       z     vdW  Elec       q    Type
                         _______ _______ _______ _____ _____    ______ ____

>  <TORSDO>
F 2

$$$$
=
 OpenBabel10262421393D

 32 39  0  0  1  0  0  0  0  0999 V2000
  184.0520  179.2100  142.7250 C   0  0  2  0  0  3  0  0  0  0  0  0
  185.0140  179.1040  138.9920 C   0  0  0  0  0  3  0  0  0  0  0  0
  186.2810  178.5040  139.1310 C   0  0  0  0  0  3  0  0  0  0  0  0
  185.1580  178.6340  145.0390 C   0  0  0  0  0  0  0  0  0  0  0  0
  186.3060  178.0800  145.6170 C   0  0  0  0  0  0  0  0  0  0  0  0
  188.3910  177.2520  145.6890 N   0  0  0  0  0  0  0  0  0  0  0  0
  184.2170  179.3590  140.1210 C   0  0  0  0  0  3  0  0  0  0  0  0
  184.7060  178.9930  141.3770 C   0  0  0  0  0  0  0  0  0  0  0  0
  186.2070  178.1960  142.9040 C   0  0  0  0  0  0  0  0  0  0  0  0
  188.0530  177.3670  147.0100 O   0  0  0  0  0  0  0  0  0  0  0  0
  186.7640  177.9920  147.0270 C   0  0  0  0  0  3  0  0  0  0  0  0
  186.7670  178.1520  140.4000 C   0  0  0  0  0  3  0  0  0  0  0  0
  185.9540  178.4080  141.5020 C   0  0  0  0  0  0  0  0  0  0  0  0
  187.3300  177.6960  143.4960 N   0  0  0  0  0  0  0  0  0  0  0  0
  184.1220  179.1400  145.8140 O   0  0  0  0  0  1  0  0  0  0  0  0
  190.0450  177.4050  145.1680 Cl  0  0  0  0  0  0  0  0  0  0  0  0
  185.1190  178.6620  143.6360 C   0  0  0  0  0  0  0  0  0  0  0  0
  187.3260  177.6280  144.8570 C   0  0  2  0  0  3  0  0  0  0  0  0
  180.5530  178.2930  141.4770 C   0  0  2  0  0  3  0  0  0  0  0  0
  181.7840  179.1820  143.8410 C   0  0  0  0  0  2  0  0  0  0  0  0
  180.4650  178.4750  143.8670 C   0  0  0  0  0  3  0  0  0  0  0  0
  182.7260  178.4490  142.8830 C   0  0  1  0  0  3  0  0  0  0  0  0
  179.9250  178.0710  142.7680 N   0  0  0  0  0  0  0  0  0  0  0  0
  182.0730  178.0590  141.5350 C   0  0  0  0  0  2  0  0  0  0  0  0
  180.6880  180.4720  136.6860 C   0  0  0  0  0  2  0  0  0  0  0  0
  178.9320  179.8120  140.6480 O   0  0  0  0  0  0  0  0  0  0  0  0
  179.2990  180.7770  138.6500 C   0  0  2  0  0  3  0  0  0  0  0  0
  181.5620  180.3670  137.9120 C   0  0  0  0  0  2  0  0  0  0  0  0
  179.8140  179.6370  139.5450 C   0  0  2  0  0  0  0  0  0  0  0  0
  179.2780  180.3230  137.2010 C   0  0  0  0  0  2  0  0  0  0  0  0
  180.2620  179.6990  140.9760 C   0  0  2  0  0  3  0  0  0  0  0  0
  180.7060  180.8040  139.0890 C   0  0  2  0  0  3  0  0  0  0  0  0
  1  8  1  6  0  0  0
  1 22  1  0  0  0  0
  1 17  1  0  0  0  0
  2  3  2  0  0  0  0
  2  7  1  0  0  0  0
  3 12  1  0  0  0  0
  4  5  1  0  0  0  0
  4 15  1  0  0  0  0
  5 11  2  0  0  0  0
  6 10  1  0  0  0  0
  7  8  2  0  0  0  0
  8 13  1  0  0  0  0
  9 14  2  0  0  0  0
  9 17  1  0  0  0  0
 10 11  1  0  0  0  0
 12 13  2  0  0  0  0
 13  9  1  0  0  0  0
 16  6  1  0  0  0  0
 17  4  2  0  0  0  0
 18 14  1  6  0  0  0
 18  5  1  0  0  0  0
 18  6  1  0  0  0  0
 19 24  1  1  0  0  0
 19 23  1  0  0  0  0
 20 21  1  0  0  0  0
 22 24  1  6  0  0  0
 22 20  1  0  0  0  0
 23 21  2  0  0  0  0
 25 30  1  0  0  0  0
 25 28  1  0  0  0  0
 27 30  1  6  0  0  0
 27 32  1  0  0  0  0
 27 29  1  0  0  0  0
 29 26  1  1  0  0  0
 29 31  1  0  0  0  0
 31 26  1  1  0  0  0
 31 19  1  0  0  0  0
 32 28  1  6  0  0  0
 32 29  1  0  0  0  0
M  END
>  <MODEL>
7

>  <REMARK>
 VINA RESULT:      -8.4      3.313      8.948
  Name = 
  2 active torsions:
  status: ('A' for Active; 'I' for Inactive)
    1  A    between atoms: C_3  and  C_14
    2  A    between atoms: C_8  and  C_23
                            x       y       z     vdW  Elec       q    Type
                         _______ _______ _______ _____ _____    ______ ____

>  <TORSDO>
F 2

$$$$
=
 OpenBabel10262421393D

 32 39  0  0  1  0  0  0  0  0999 V2000
  187.3890  177.2540  142.8250 C   0  0  2  0  0  3  0  0  0  0  0  0
  183.8200  178.5750  143.4470 C   0  0  0  0  0  3  0  0  0  0  0  0
  183.9930  178.9930  144.7810 C   0  0  0  0  0  3  0  0  0  0  0  0
  189.6050  176.9080  144.1970 C   0  0  1  0  0  3  0  0  0  0  0  0
  190.1880  177.1400  145.4480 C   0  0  0  0  0  0  0  0  0  0  0  0
  190.2720  177.7340  147.6110 N   0  0  0  0  0  0  0  0  0  0  0  0
  184.8880  178.0050  142.7330 C   0  0  0  0  0  3  0  0  0  0  0  0
  186.1220  177.8750  143.3730 C   0  0  0  0  0  0  0  0  0  0  0  0
  187.6280  177.9790  145.0880 C   0  0  0  0  0  0  0  0  0  0  0  0
  191.5100  177.1930  147.3840 O   0  0  0  0  0  0  0  0  0  0  0  0
  191.4760  176.6990  146.0390 C   0  0  0  0  0  3  0  0  0  0  0  0
  185.2350  178.8460  145.4180 C   0  0  0  0  0  3  0  0  0  0  0  0
  186.2790  178.2860  144.6850 C   0  0  0  0  0  0  0  0  0  0  0  0
  188.2080  178.1570  146.3100 N   0  0  0  0  0  0  0  0  0  0  0  0
  190.2870  176.2430  143.1850 O   0  0  0  0  0  1  0  0  0  0  0  0
  189.5290  177.6470  149.1820 Cl  0  0  0  0  0  0  0  0  0  0  0  0
  188.2910  177.3710  144.0260 C   0  0  0  0  0  0  0  0  0  0  0  0
  189.5030  177.7490  146.4380 C   0  0  0  0  0  0  0  0  0  0  0  0
  186.9580  178.8430  139.3710 C   0  0  2  0  0  3  0  0  0  0  0  0
  188.6950  177.0570  140.6690 C   0  0  0  0  0  2  0  0  0  0  0  0
  189.1210  177.8100  139.4480 C   0  0  0  0  0  3  0  0  0  0  0  0
  187.9580  178.0090  141.6140 C   0  0  1  0  0  3  0  0  0  0  0  0
  188.3060  178.6290  138.8760 N   0  0  0  0  0  0  0  0  0  0  0  0
  186.9200  178.9160  140.9080 C   0  0  0  0  0  2  0  0  0  0  0  0
  181.7370  178.6130  138.7300 C   0  0  0  0  0  2  0  0  0  0  0  0
  185.8770  177.8360  137.5160 O   0  0  0  0  0  0  0  0  0  0  0  0
  183.6350  177.6710  137.5500 C   0  0  2  0  0  3  0  0  0  0  0  0
  182.7770  178.2030  139.7450 C   0  0  0  0  0  2  0  0  0  0  0  0
  184.7980  178.3630  138.2800 C   0  0  2  0  0  0  0  0  0  0  0  0
  182.4690  178.6340  137.4120 C   0  0  0  0  0  2  0  0  0  0  0  0
  186.0280  177.7450  138.8800 C   0  0  2  0  0  3  0  0  0  0  0  0
  183.8250  177.4050  138.9870 C   0  0  2  0  0  3  0  0  0  0  0  0
  1  8  1  1  0  0  0
  1 17  1  0  0  0  0
  2  3  1  0  0  0  0
  3 12  2  0  0  0  0
  4 15  1  1  0  0  0
  4  5  1  0  0  0  0
  5 11  2  0  0  0  0
  5 18  1  0  0  0  0
  6 16  1  0  0  0  0
  7  8  1  0  0  0  0
  7  2  2  0  0  0  0
  8 13  2  0  0  0  0
  9 14  1  0  0  0  0
 10  6  1  0  0  0  0
 11 10  1  0  0  0  0
 13  9  1  0  0  0  0
 13 12  1  0  0  0  0
 14 18  2  0  0  0  0
 17  4  1  0  0  0  0
 17  9  2  0  0  0  0
 18  6  1  0  0  0  0
 19 24  1  1  0  0  0
 21 20  1  0  0  0  0
 22 20  1  6  0  0  0
 22  1  1  0  0  0  0
 23 19  1  0  0  0  0
 23 21  2  0  0  0  0
 24 22  1  0  0  0  0
 25 28  1  0  0  0  0
 27 30  1  1  0  0  0
 27 29  1  0  0  0  0
 27 32  1  0  0  0  0
 29 26  1  6  0  0  0
 29 31  1  0  0  0  0
 29 32  1  0  0  0  0
 30 25  1  0  0  0  0
 31 26  1  6  0  0  0
 31 19  1  0  0  0  0
 32 28  1  1  0  0  0
M  END
>  <MODEL>
8

>  <REMARK>
 VINA RESULT:      -8.1      3.373      7.731
  Name = 
  2 active torsions:
  status: ('A' for Active; 'I' for Inactive)
    1  A    between atoms: C_3  and  C_14
    2  A    between atoms: C_8  and  C_23
                            x       y       z     vdW  Elec       q    Type
                         _______ _______ _______ _____ _____    ______ ____

>  <TORSDO>
F 2

$$$$
=
 OpenBabel10262421393D

 32 39  0  0  1  0  0  0  0  0999 V2000
  188.8330  178.2290  140.5600 C   0  0  2  0  0  3  0  0  0  0  0  0
  185.7110  179.1340  142.6350 C   0  0  0  0  0  3  0  0  0  0  0  0
  184.7400  178.9190  141.6370 C   0  0  0  0  0  3  0  0  0  0  0  0
  189.4000  177.5700  138.0800 C   0  0  0  0  0  0  0  0  0  0  0  0
  188.8130  177.2780  136.8430 C   0  0  0  0  0  0  0  0  0  0  0  0
  187.1690  177.1040  135.3250 N   0  0  0  0  0  0  0  0  0  0  0  0
  187.0730  178.9190  142.3650 C   0  0  0  0  0  3  0  0  0  0  0  0
  187.4380  178.4790  141.0910 C   0  0  0  0  0  0  0  0  0  0  0  0
  187.1470  177.8810  138.9050 C   0  0  0  0  0  0  0  0  0  0  0  0
  188.3000  176.8570  134.5940 O   0  0  0  0  0  0  0  0  0  0  0  0
  189.3960  177.0590  135.4950 C   0  0  0  0  0  3  0  0  0  0  0  0
  185.1200  178.4880  140.3560 C   0  0  0  0  0  3  0  0  0  0  0  0
  186.4760  178.2750  140.1170 C   0  0  0  0  0  0  0  0  0  0  0  0
  186.6050  177.6300  137.6780 N   0  0  0  0  0  0  0  0  0  0  0  0
  190.7790  177.5890  138.2470 O   0  0  0  0  0  1  0  0  0  0  0  0
  185.7690  177.8350  134.5940 Cl  0  0  0  0  0  0  0  0  0  0  0  0
  188.5200  177.8550  139.1350 C   0  0  0  0  0  0  0  0  0  0  0  0
  187.4740  177.3030  136.6800 C   0  0  2  0  0  3  0  0  0  0  0  0
  189.6140  176.2710  143.7540 C   0  0  2  0  0  3  0  0  0  0  0  0
  190.9990  177.5030  141.6430 C   0  0  0  0  0  2  0  0  0  0  0  0
  191.6310  176.4230  142.4640 C   0  0  0  0  0  3  0  0  0  0  0  0
  189.5660  177.0960  141.2960 C   0  0  1  0  0  3  0  0  0  0  0  0
  190.9700  175.8700  143.4240 N   0  0  0  0  0  0  0  0  0  0  0  0
  188.7700  176.5200  142.4920 C   0  0  0  0  0  2  0  0  0  0  0  0
  186.5490  177.8720  147.7260 C   0  0  0  0  0  2  0  0  0  0  0  0
  190.4130  177.3080  145.7320 O   0  0  0  0  0  0  0  0  0  0  0  0
  188.9080  178.0950  147.2050 C   0  0  2  0  0  3  0  0  0  0  0  0
  186.6940  178.0950  146.2400 C   0  0  0  0  0  2  0  0  0  0  0  0
  189.0120  177.2000  145.9590 C   0  0  2  0  0  0  0  0  0  0  0  0
  187.9300  177.4860  148.1950 C   0  0  0  0  0  2  0  0  0  0  0  0
  189.6240  177.5180  144.6260 C   0  0  2  0  0  3  0  0  0  0  0  0
  188.1460  178.4700  146.0010 C   0  0  2  0  0  3  0  0  0  0  0  0
  1 17  1  6  0  0  0
  1  8  1  0  0  0  0
  1 22  1  0  0  0  0
  3  2  2  0  0  0  0
  4 15  1  0  0  0  0
  4 17  2  0  0  0  0
  5  4  1  0  0  0  0
  6 18  1  0  0  0  0
  7  2  1  0  0  0  0
  8  7  2  0  0  0  0
  9 17  1  0  0  0  0
  9 13  1  0  0  0  0
 10  6  1  0  0  0  0
 10 11  1  0  0  0  0
 11  5  2  0  0  0  0
 12  3  1  0  0  0  0
 13 12  2  0  0  0  0
 13  8  1  0  0  0  0
 14  9  2  0  0  0  0
 16  6  1  0  0  0  0
 18  5  1  6  0  0  0
 18 14  1  0  0  0  0
 19 24  1  6  0  0  0
 19 31  1  0  0  0  0
 20 21  1  0  0  0  0
 21 23  2  0  0  0  0
 22 20  1  1  0  0  0
 22 24  1  0  0  0  0
 23 19  1  0  0  0  0
 25 30  1  0  0  0  0
 27 30  1  1  0  0  0
 28 25  1  0  0  0  0
 29 26  1  6  0  0  0
 29 32  1  0  0  0  0
 29 27  1  0  0  0  0
 31 26  1  1  0  0  0
 31 29  1  0  0  0  0
 32 28  1  1  0  0  0
 32 27  1  0  0  0  0
M  END
>  <MODEL>
9

>  <REMARK>
 VINA RESULT:      -8.1      3.603      5.163
  Name = 
  2 active torsions:
  status: ('A' for Active; 'I' for Inactive)
    1  A    between atoms: C_3  and  C_14
    2  A    between atoms: C_8  and  C_23
                            x       y       z     vdW  Elec       q    Type
                         _______ _______ _______ _____ _____    ______ ____

>  <TORSDO>
F 2

$$$$
