=
 OpenBabel10252415023D

 34 40  0  0  1  0  0  0  0  0999 V2000
  184.9720  178.4160  143.3530 C   0  0  0  0  0  0  0  0  0  0  0  0
  185.3490  178.6390  140.9540 C   0  0  0  0  0  0  0  0  0  0  0  0
  187.2230  178.3110  142.4600 C   0  0  0  0  0  0  0  0  0  0  0  0
  189.3450  177.8300  141.4090 N   0  0  0  0  0  0  0  0  0  0  0  0
  183.1460  178.8140  141.8220 C   0  0  0  0  0  3  0  0  0  0  0  0
  184.0130  178.7870  140.7670 N   0  0  0  0  0  0  0  0  0  0  0  0
  187.5770  178.3070  140.0280 C   0  0  2  0  0  3  0  0  0  0  0  0
  185.8520  178.4930  142.2630 C   0  0  0  0  0  0  0  0  0  0  0  0
  188.4570  176.7960  138.1080 N   0  0  0  0  0  2  0  0  0  0  0  0
  189.5320  177.1560  140.1970 N   0  0  0  0  0  0  0  0  0  0  0  0
  183.6080  178.6120  143.1320 C   0  0  0  0  0  3  0  0  0  0  0  0
  187.7230  177.8640  143.6850 C   0  0  0  0  0  0  0  0  0  0  0  0
  185.4730  178.0650  144.6180 C   0  0  0  0  0  3  0  0  0  0  0  0
  186.2540  178.3360  139.8100 C   0  0  0  0  0  2  0  0  0  0  0  0
  189.8460  177.3400  142.6350 N   0  0  0  0  0  0  0  0  0  0  0  0
  189.1370  177.3910  143.7330 C   0  0  0  0  0  0  0  0  0  0  0  0
  188.5760  177.4530  139.3750 C   0  0  0  0  0  0  0  0  0  0  0  0
  188.1600  178.6580  141.3520 C   0  0  1  0  0  3  0  0  0  0  0  0
  186.8400  177.7620  144.7760 C   0  0  0  0  0  3  0  0  0  0  0  0
  189.9260  177.4140  147.3860 C   0  0  0  0  0  0  0  0  0  0  0  0
  190.9290  176.3000  147.4720 C   0  0  0  0  0  2  0  0  0  0  0  0
  189.6950  176.8310  145.0170 C   0  0  2  0  0  3  0  0  0  0  0  0
  191.9080  176.4150  146.3010 C   0  0  0  0  0  2  0  0  0  0  0  0
  189.3570  177.6930  146.2040 C   0  0  0  0  0  3  0  0  0  0  0  0
  191.1990  176.4900  144.9340 C   0  0  0  0  0  2  0  0  0  0  0  0
  189.6570  178.1760  148.4780 F   0  0  0  0  0  0  0  0  0  0  0  0
  187.5700  177.1820  137.0190 C   0  0  1  0  0  3  0  0  0  0  0  0
  187.9010  176.3160  135.8270 C   0  0  0  0  0  2  0  0  0  0  0  0
  186.6350  176.0490  136.6210 C   0  0  2  0  0  3  0  0  0  0  0  0
  185.4600  176.5300  135.8060 C   0  0  0  0  0  0  0  0  0  0  0  0
  183.1030  177.3600  135.5890 C   0  0  0  0  0  1  0  0  0  0  0  0
  184.1350  176.6800  136.3560 N   0  0  0  0  0  0  0  0  0  0  0  0
  183.7620  176.1420  137.6540 C   0  0  0  0  0  1  0  0  0  0  0  0
  185.6610  176.8170  134.5940 O   0  0  0  0  0  0  0  0  0  0  0  0
  1 13  1  0  0  0  0
  2  8  1  0  0  0  0
  3 12  2  0  0  0  0
  4 15  1  0  0  0  0
  5 11  2  0  0  0  0
  6  2  2  0  0  0  0
  6  5  1  0  0  0  0
  7 14  1  1  0  0  0
  7 18  1  0  0  0  0
  8  3  1  0  0  0  0
  8  1  2  0  0  0  0
  9 17  1  0  0  0  0
 10  4  1  0  0  0  0
 11  1  1  0  0  0  0
 12 16  1  0  0  0  0
 12 19  1  0  0  0  0
 13 19  2  0  0  0  0
 14  2  1  0  0  0  0
 15 16  2  0  0  0  0
 17  7  1  0  0  0  0
 17 10  2  0  0  0  0
 18  4  1  0  0  0  0
 18  3  1  1  0  0  0
 20 21  1  0  0  0  0
 20 26  1  0  0  0  0
 22 16  1  6  0  0  0
 22 24  1  0  0  0  0
 23 21  1  0  0  0  0
 24 20  2  0  0  0  0
 25 22  1  0  0  0  0
 25 23  1  0  0  0  0
 27  9  1  1  0  0  0
 28 29  1  0  0  0  0
 28 27  1  0  0  0  0
 29 30  1  6  0  0  0
 29 27  1  0  0  0  0
 30 32  1  0  0  0  0
 31 32  1  0  0  0  0
 32 33  1  0  0  0  0
 34 30  2  0  0  0  0
M  END
>  <MODEL>
1

>  <REMARK>
 VINA RESULT:     -10.4      0.000      0.000
  Name = 
  3 active torsions:
  status: ('A' for Active; 'I' for Inactive)
    1  A    between atoms: C_3  and  N_17
    2  A    between atoms: C_12  and  C_28
    3  A    between atoms: C_13  and  C_14
                            x       y       z     vdW  Elec       q    Type
                         _______ _______ _______ _____ _____    ______ ____

>  <TORSDO>
F 3

$$$$
=
 OpenBabel10252415023D

 34 40  0  0  1  0  0  0  0  0999 V2000
  183.8340  178.6340  144.0770 C   0  0  0  0  0  0  0  0  0  0  0  0
  183.1110  178.9280  141.7670 C   0  0  0  0  0  0  0  0  0  0  0  0
  185.4740  178.7690  142.2970 C   0  0  0  0  0  0  0  0  0  0  0  0
  186.9600  178.5200  140.4090 N   0  0  0  0  0  0  0  0  0  0  0  0
  181.4970  178.8690  143.5070 C   0  0  0  0  0  3  0  0  0  0  0  0
  181.8190  178.9450  142.1820 N   0  0  0  0  0  0  0  0  0  0  0  0
  184.7350  178.8360  139.9540 C   0  0  2  0  0  3  0  0  0  0  0  0
  184.1430  178.8150  142.7210 C   0  0  0  0  0  0  0  0  0  0  0  0
  184.8170  177.4490  137.7600 N   0  0  0  0  0  2  0  0  0  0  0  0
  186.6580  177.8850  139.1980 N   0  0  0  0  0  0  0  0  0  0  0  0
  182.4980  178.6950  144.4770 C   0  0  0  0  0  3  0  0  0  0  0  0
  186.4920  178.3570  143.1590 C   0  0  0  0  0  0  0  0  0  0  0  0
  184.8630  178.3170  144.9810 C   0  0  0  0  0  3  0  0  0  0  0  0
  183.4510  178.7350  140.3290 C   0  0  0  0  0  2  0  0  0  0  0  0
  187.9840  178.0650  141.2690 N   0  0  0  0  0  0  0  0  0  0  0  0
  187.8200  178.0280  142.5670 C   0  0  0  0  0  0  0  0  0  0  0  0
  185.4190  178.0970  138.8860 C   0  0  0  0  0  0  0  0  0  0  0  0
  185.8030  179.2250  140.9150 C   0  0  1  0  0  3  0  0  0  0  0  0
  186.1820  178.1500  144.5160 C   0  0  0  0  0  3  0  0  0  0  0  0
  191.1660  178.1260  144.2300 C   0  0  0  0  0  0  0  0  0  0  0  0
  191.3070  176.7000  144.6780 C   0  0  0  0  0  2  0  0  0  0  0  0
  188.9250  177.5080  143.4500 C   0  0  2  0  0  3  0  0  0  0  0  0
  190.8480  175.7710  143.5520 C   0  0  0  0  0  2  0  0  0  0  0  0
  190.0390  178.5090  143.6110 C   0  0  0  0  0  3  0  0  0  0  0  0
  189.4340  176.1100  143.0380 C   0  0  0  0  0  2  0  0  0  0  0  0
  192.1990  178.9950  144.3820 F   0  0  0  0  0  0  0  0  0  0  0  0
  183.5160  177.7610  137.1830 C   0  0  1  0  0  3  0  0  0  0  0  0
  183.4040  177.0170  135.8730 C   0  0  0  0  0  2  0  0  0  0  0  0
  182.6310  176.5270  137.0840 C   0  0  2  0  0  3  0  0  0  0  0  0
  181.1760  176.8750  136.8840 C   0  0  0  0  0  0  0  0  0  0  0  0
  178.9310  177.5950  137.7390 C   0  0  0  0  0  1  0  0  0  0  0  0
  180.2540  177.0400  137.9810 N   0  0  0  0  0  0  0  0  0  0  0  0
  180.5740  176.6360  139.3400 C   0  0  0  0  0  1  0  0  0  0  0  0
  180.7650  177.0320  135.7020 O   0  0  0  0  0  0  0  0  0  0  0  0
  1 11  1  0  0  0  0
  1 13  1  0  0  0  0
  2  6  2  0  0  0  0
  2  8  1  0  0  0  0
  3  8  1  0  0  0  0
  3 12  2  0  0  0  0
  4 18  1  0  0  0  0
  4 15  1  0  0  0  0
  5 11  2  0  0  0  0
  6  5  1  0  0  0  0
  7 14  1  1  0  0  0
  7 18  1  0  0  0  0
  8  1  2  0  0  0  0
  9 17  1  0  0  0  0
 10  4  1  0  0  0  0
 12 19  1  0  0  0  0
 14  2  1  0  0  0  0
 15 16  2  0  0  0  0
 16 12  1  0  0  0  0
 17 10  2  0  0  0  0
 17  7  1  0  0  0  0
 18  3  1  1  0  0  0
 19 13  2  0  0  0  0
 20 26  1  0  0  0  0
 20 21  1  0  0  0  0
 22 16  1  6  0  0  0
 22 24  1  0  0  0  0
 23 21  1  0  0  0  0
 24 20  2  0  0  0  0
 25 22  1  0  0  0  0
 25 23  1  0  0  0  0
 27  9  1  1  0  0  0
 28 29  1  0  0  0  0
 28 27  1  0  0  0  0
 29 30  1  6  0  0  0
 29 27  1  0  0  0  0
 30 32  1  0  0  0  0
 31 32  1  0  0  0  0
 32 33  1  0  0  0  0
 34 30  2  0  0  0  0
M  END
>  <MODEL>
2

>  <REMARK>
 VINA RESULT:      -9.5      2.283      3.114
  Name = 
  3 active torsions:
  status: ('A' for Active; 'I' for Inactive)
    1  A    between atoms: C_3  and  N_17
    2  A    between atoms: C_12  and  C_28
    3  A    between atoms: C_13  and  C_14
                            x       y       z     vdW  Elec       q    Type
                         _______ _______ _______ _____ _____    ______ ____

>  <TORSDO>
F 3

$$$$
=
 OpenBabel10252415023D

 34 40  0  0  1  0  0  0  0  0999 V2000
  184.9990  178.5660  141.8700 C   0  0  0  0  0  0  0  0  0  0  0  0
  186.5290  178.3500  139.9830 C   0  0  0  0  0  0  0  0  0  0  0  0
  187.3860  178.3890  142.2530 C   0  0  0  0  0  0  0  0  0  0  0  0
  189.7180  177.8070  142.5060 N   0  0  0  0  0  0  0  0  0  0  0  0
  184.2000  178.5930  139.5890 C   0  0  0  0  0  3  0  0  0  0  0  0
  185.4740  178.4050  139.1320 N   0  0  0  0  0  0  0  0  0  0  0  0
  188.8990  177.9430  140.3680 C   0  0  2  0  0  3  0  0  0  0  0  0
  186.3070  178.4740  141.3700 C   0  0  0  0  0  0  0  0  0  0  0  0
  190.5260  176.1360  139.4550 N   0  0  0  0  0  2  0  0  0  0  0  0
  190.4420  176.9260  141.6950 N   0  0  0  0  0  0  0  0  0  0  0  0
  183.9390  178.6600  140.9670 C   0  0  0  0  0  3  0  0  0  0  0  0
  187.1860  178.2010  143.6210 C   0  0  0  0  0  0  0  0  0  0  0  0
  184.7860  178.4800  143.2560 C   0  0  0  0  0  3  0  0  0  0  0  0
  187.8640  177.8750  139.5190 C   0  0  0  0  0  2  0  0  0  0  0  0
  189.5160  177.5770  143.8840 N   0  0  0  0  0  0  0  0  0  0  0  0
  188.3590  177.8040  144.4530 C   0  0  0  0  0  0  0  0  0  0  0  0
  190.0400  177.0230  140.4680 C   0  0  0  0  0  0  0  0  0  0  0  0
  188.7680  178.5600  141.7160 C   0  0  1  0  0  3  0  0  0  0  0  0
  185.8730  178.2680  144.1250 C   0  0  0  0  0  3  0  0  0  0  0  0
  187.2140  178.5360  147.9350 C   0  0  0  0  0  0  0  0  0  0  0  0
  187.9870  177.5120  148.7140 C   0  0  0  0  0  2  0  0  0  0  0  0
  188.1730  177.5180  145.9210 C   0  0  2  0  0  3  0  0  0  0  0  0
  189.4240  177.4610  148.1910 C   0  0  0  0  0  2  0  0  0  0  0  0
  187.3270  178.5640  146.5980 C   0  0  0  0  0  3  0  0  0  0  0  0
  189.4980  177.2480  146.6660 C   0  0  0  0  0  2  0  0  0  0  0  0
  186.4720  179.4710  148.5840 F   0  0  0  0  0  0  0  0  0  0  0  0
  190.3200  176.2740  138.0200 C   0  0  1  0  0  3  0  0  0  0  0  0
  190.9780  175.0920  137.3450 C   0  0  0  0  0  2  0  0  0  0  0  0
  189.4650  175.1470  137.4580 C   0  0  2  0  0  3  0  0  0  0  0  0
  188.9030  175.4720  136.0960 C   0  0  0  0  0  0  0  0  0  0  0  0
  187.0940  176.3420  134.5940 C   0  0  0  0  0  1  0  0  0  0  0  0
  187.5200  175.8210  135.8840 N   0  0  0  0  0  0  0  0  0  0  0  0
  186.5010  175.6390  136.9050 C   0  0  0  0  0  1  0  0  0  0  0  0
  189.6910  175.4400  135.1110 O   0  0  0  0  0  0  0  0  0  0  0  0
  1 13  1  0  0  0  0
  2  8  1  0  0  0  0
  3 12  2  0  0  0  0
  4 15  1  0  0  0  0
  5 11  2  0  0  0  0
  6  5  1  0  0  0  0
  6  2  2  0  0  0  0
  7 14  1  1  0  0  0
  7 17  1  0  0  0  0
  7 18  1  0  0  0  0
  8  1  2  0  0  0  0
  8  3  1  0  0  0  0
  9 17  1  0  0  0  0
 10  4  1  0  0  0  0
 11  1  1  0  0  0  0
 12 19  1  0  0  0  0
 12 16  1  0  0  0  0
 13 19  2  0  0  0  0
 14  2  1  0  0  0  0
 15 16  2  0  0  0  0
 17 10  2  0  0  0  0
 18  3  1  1  0  0  0
 18  4  1  0  0  0  0
 20 26  1  0  0  0  0
 20 21  1  0  0  0  0
 22 16  1  6  0  0  0
 22 24  1  0  0  0  0
 22 25  1  0  0  0  0
 23 21  1  0  0  0  0
 24 20  2  0  0  0  0
 25 23  1  0  0  0  0
 27  9  1  1  0  0  0
 28 29  1  0  0  0  0
 28 27  1  0  0  0  0
 29 30  1  6  0  0  0
 29 27  1  0  0  0  0
 31 32  1  0  0  0  0
 32 30  1  0  0  0  0
 32 33  1  0  0  0  0
 34 30  2  0  0  0  0
M  END
>  <MODEL>
3

>  <REMARK>
 VINA RESULT:      -9.3      1.900      2.484
  Name = 
  3 active torsions:
  status: ('A' for Active; 'I' for Inactive)
    1  A    between atoms: C_3  and  N_17
    2  A    between atoms: C_12  and  C_28
    3  A    between atoms: C_13  and  C_14
                            x       y       z     vdW  Elec       q    Type
                         _______ _______ _______ _____ _____    ______ ____

>  <TORSDO>
F 3

$$$$
=
 OpenBabel10252415023D

 34 40  0  0  1  0  0  0  0  0999 V2000
  187.2540  177.6700  137.9730 C   0  0  0  0  0  0  0  0  0  0  0  0
  187.5400  178.4320  140.2720 C   0  0  0  0  0  0  0  0  0  0  0  0
  185.3450  178.4660  139.2370 C   0  0  0  0  0  0  0  0  0  0  0  0
  183.4900  178.9000  140.7230 N   0  0  0  0  0  0  0  0  0  0  0  0
  189.4300  177.7220  139.0230 C   0  0  0  0  0  3  0  0  0  0  0  0
  188.8680  178.1690  140.1840 N   0  0  0  0  0  0  0  0  0  0  0  0
  185.5970  179.0170  141.6190 C   0  0  2  0  0  3  0  0  0  0  0  0
  186.7180  178.2250  139.1450 C   0  0  0  0  0  0  0  0  0  0  0  0
  184.8170  178.2470  143.9740 N   0  0  0  0  0  2  0  0  0  0  0  0
  183.4180  178.5540  142.0780 N   0  0  0  0  0  0  0  0  0  0  0  0
  188.6300  177.4480  137.9010 C   0  0  0  0  0  3  0  0  0  0  0  0
  184.4620  177.9930  138.2650 C   0  0  0  0  0  0  0  0  0  0  0  0
  186.3870  177.2790  136.9390 C   0  0  0  0  0  3  0  0  0  0  0  0
  186.8880  178.6520  141.5940 C   0  0  0  0  0  2  0  0  0  0  0  0
  182.5930  178.3870  139.7610 N   0  0  0  0  0  0  0  0  0  0  0  0
  183.0040  178.0050  138.5780 C   0  0  0  0  0  0  0  0  0  0  0  0
  184.5860  178.6670  142.6250 C   0  0  0  0  0  0  0  0  0  0  0  0
  184.8370  179.2930  140.3710 C   0  0  1  0  0  3  0  0  0  0  0  0
  184.9940  177.4140  137.0980 C   0  0  0  0  0  3  0  0  0  0  0  0
  180.3840  178.1710  135.9170 C   0  0  0  0  0  0  0  0  0  0  0  0
  179.8570  176.7660  135.9430 C   0  0  0  0  0  2  0  0  0  0  0  0
  182.0210  177.4350  137.5870 C   0  0  2  0  0  3  0  0  0  0  0  0
  179.6890  176.3180  137.3970 C   0  0  0  0  0  2  0  0  0  0  0  0
  181.3990  178.5050  136.7280 C   0  0  0  0  0  3  0  0  0  0  0  0
  180.9730  176.5020  138.2310 C   0  0  0  0  0  2  0  0  0  0  0  0
  179.7880  179.1100  135.1370 F   0  0  0  0  0  0  0  0  0  0  0  0
  186.0100  178.5140  144.7650 C   0  0  1  0  0  3  0  0  0  0  0  0
  185.7870  177.9360  146.1430 C   0  0  0  0  0  2  0  0  0  0  0  0
  186.7170  177.2290  145.1750 C   0  0  2  0  0  3  0  0  0  0  0  0
  188.1370  177.4710  145.6270 C   0  0  0  0  0  0  0  0  0  0  0  0
  190.5960  177.6840  145.1890 C   0  0  0  0  0  1  0  0  0  0  0  0
  189.2790  177.2200  144.7830 N   0  0  0  0  0  0  0  0  0  0  0  0
  189.1830  176.4780  143.5360 C   0  0  0  0  0  1  0  0  0  0  0  0
  188.3160  177.9170  146.7930 O   0  0  0  0  0  0  0  0  0  0  0  0
  1  8  1  0  0  0  0
  2 14  1  0  0  0  0
  4 10  1  0  0  0  0
  5  6  2  0  0  0  0
  6  2  1  0  0  0  0
  7 14  1  6  0  0  0
  7 17  1  0  0  0  0
  8  3  1  0  0  0  0
  8  2  2  0  0  0  0
 10 17  2  0  0  0  0
 11  1  2  0  0  0  0
 11  5  1  0  0  0  0
 12 16  1  0  0  0  0
 12  3  2  0  0  0  0
 13 19  2  0  0  0  0
 13  1  1  0  0  0  0
 15  4  1  0  0  0  0
 16 15  2  0  0  0  0
 17  9  1  0  0  0  0
 18  3  1  6  0  0  0
 18  4  1  0  0  0  0
 18  7  1  0  0  0  0
 19 12  1  0  0  0  0
 20 21  1  0  0  0  0
 20 24  2  0  0  0  0
 21 23  1  0  0  0  0
 22 25  1  0  0  0  0
 22 16  1  1  0  0  0
 23 25  1  0  0  0  0
 24 22  1  0  0  0  0
 26 20  1  0  0  0  0
 27  9  1  6  0  0  0
 27 29  1  0  0  0  0
 27 28  1  0  0  0  0
 29 30  1  1  0  0  0
 29 28  1  0  0  0  0
 30 34  2  0  0  0  0
 32 31  1  0  0  0  0
 32 30  1  0  0  0  0
 33 32  1  0  0  0  0
M  END
>  <MODEL>
4

>  <REMARK>
 VINA RESULT:      -9.0      3.988      9.213
  Name = 
  3 active torsions:
  status: ('A' for Active; 'I' for Inactive)
    1  A    between atoms: C_3  and  N_17
    2  A    between atoms: C_12  and  C_28
    3  A    between atoms: C_13  and  C_14
                            x       y       z     vdW  Elec       q    Type
                         _______ _______ _______ _____ _____    ______ ____

>  <TORSDO>
F 3

$$$$
=
 OpenBabel10252415023D

 34 40  0  0  1  0  0  0  0  0999 V2000
  187.8840  177.3220  144.4720 C   0  0  0  0  0  0  0  0  0  0  0  0
  185.7620  178.3790  143.8980 C   0  0  0  0  0  0  0  0  0  0  0  0
  187.5160  178.1740  142.2330 C   0  0  0  0  0  0  0  0  0  0  0  0
  186.8750  178.6970  139.9630 N   0  0  0  0  0  0  0  0  0  0  0  0
  186.1350  177.6130  146.1150 C   0  0  0  0  0  3  0  0  0  0  0  0
  185.3270  178.1740  145.1670 N   0  0  0  0  0  0  0  0  0  0  0  0
  185.3010  179.0300  141.5970 C   0  0  2  0  0  3  0  0  0  0  0  0
  187.0720  177.9920  143.5450 C   0  0  0  0  0  0  0  0  0  0  0  0
  183.3080  178.5220  140.0110 N   0  0  0  0  0  2  0  0  0  0  0  0
  185.6050  178.5200  139.4010 N   0  0  0  0  0  0  0  0  0  0  0  0
  187.4220  177.1620  145.7800 C   0  0  0  0  0  3  0  0  0  0  0  0
  188.6680  177.5390  141.7670 C   0  0  0  0  0  0  0  0  0  0  0  0
  189.1000  176.7620  144.0430 C   0  0  0  0  0  3  0  0  0  0  0  0
  184.8090  178.7300  142.8080 C   0  0  0  0  0  2  0  0  0  0  0  0
  188.0180  178.0230  139.4800 N   0  0  0  0  0  0  0  0  0  0  0  0
  188.9090  177.5170  140.2950 C   0  0  0  0  0  0  0  0  0  0  0  0
  184.6930  178.7580  140.2890 C   0  0  0  0  0  0  0  0  0  0  0  0
  186.7660  179.1100  141.3450 C   0  0  1  0  0  3  0  0  0  0  0  0
  189.4750  176.8460  142.6880 C   0  0  0  0  0  3  0  0  0  0  0  0
  192.5330  177.0150  139.5300 C   0  0  0  0  0  0  0  0  0  0  0  0
  192.4630  175.9050  138.5220 C   0  0  0  0  0  2  0  0  0  0  0  0
  190.1020  176.7800  139.7420 C   0  0  2  0  0  3  0  0  0  0  0  0
  191.3290  176.1910  137.5360 C   0  0  0  0  0  2  0  0  0  0  0  0
  191.3990  177.4600  140.0920 C   0  0  0  0  0  3  0  0  0  0  0  0
  189.9820  176.4610  138.2370 C   0  0  0  0  0  2  0  0  0  0  0  0
  193.7220  177.6100  139.8090 F   0  0  0  0  0  0  0  0  0  0  0  0
  182.1820  178.9450  140.8330 C   0  0  1  0  0  3  0  0  0  0  0  0
  180.9630  179.0090  139.9430 C   0  0  0  0  0  2  0  0  0  0  0  0
  181.1140  177.8650  140.9290 C   0  0  2  0  0  3  0  0  0  0  0  0
  180.1570  178.1000  142.0720 C   0  0  0  0  0  0  0  0  0  0  0  0
  179.5950  179.0000  144.3430 C   0  0  0  0  0  1  0  0  0  0  0  0
  180.5840  178.5790  143.3630 N   0  0  0  0  0  0  0  0  0  0  0  0
  181.9830  178.6290  143.7570 C   0  0  0  0  0  1  0  0  0  0  0  0
  178.9330  177.8700  141.8720 O   0  0  0  0  0  0  0  0  0  0  0  0
  1 11  2  0  0  0  0
  2  6  1  0  0  0  0
  3  8  1  0  0  0  0
  4 18  1  0  0  0  0
  6  5  2  0  0  0  0
  7 14  1  1  0  0  0
  8  2  2  0  0  0  0
  8  1  1  0  0  0  0
  9 17  1  0  0  0  0
 10  4  1  0  0  0  0
 10 17  2  0  0  0  0
 11  5  1  0  0  0  0
 12  3  2  0  0  0  0
 12 19  1  0  0  0  0
 13  1  1  0  0  0  0
 14  2  1  0  0  0  0
 15  4  1  0  0  0  0
 15 16  2  0  0  0  0
 16 12  1  0  0  0  0
 17  7  1  0  0  0  0
 18  7  1  0  0  0  0
 18  3  1  1  0  0  0
 19 13  2  0  0  0  0
 20 26  1  0  0  0  0
 20 24  2  0  0  0  0
 21 20  1  0  0  0  0
 22 24  1  0  0  0  0
 22 16  1  6  0  0  0
 23 25  1  0  0  0  0
 23 21  1  0  0  0  0
 25 22  1  0  0  0  0
 27  9  1  6  0  0  0
 27 29  1  0  0  0  0
 28 27  1  0  0  0  0
 28 29  1  0  0  0  0
 29 30  1  1  0  0  0
 30 32  1  0  0  0  0
 32 33  1  0  0  0  0
 32 31  1  0  0  0  0
 34 30  2  0  0  0  0
M  END
>  <MODEL>
5

>  <REMARK>
 VINA RESULT:      -8.8      3.416      6.026
  Name = 
  3 active torsions:
  status: ('A' for Active; 'I' for Inactive)
    1  A    between atoms: C_3  and  N_17
    2  A    between atoms: C_12  and  C_28
    3  A    between atoms: C_13  and  C_14
                            x       y       z     vdW  Elec       q    Type
                         _______ _______ _______ _____ _____    ______ ____

>  <TORSDO>
F 3

$$$$
=
 OpenBabel10252415023D

 34 40  0  0  1  0  0  0  0  0999 V2000
  187.1620  177.6840  137.9540 C   0  0  0  0  0  0  0  0  0  0  0  0
  187.4800  178.4500  140.2480 C   0  0  0  0  0  0  0  0  0  0  0  0
  185.2660  178.4560  139.2530 C   0  0  0  0  0  0  0  0  0  0  0  0
  183.4330  178.8660  140.7720 N   0  0  0  0  0  0  0  0  0  0  0  0
  189.3560  177.7640  138.9640 C   0  0  0  0  0  3  0  0  0  0  0  0
  188.8100  178.2050  140.1360 N   0  0  0  0  0  0  0  0  0  0  0  0
  185.5550  179.0100  141.6300 C   0  0  2  0  0  3  0  0  0  0  0  0
  186.6400  178.2330  139.1360 C   0  0  0  0  0  0  0  0  0  0  0  0
  184.8270  178.2300  143.9980 N   0  0  0  0  0  2  0  0  0  0  0  0
  183.3900  178.5190  142.1280 N   0  0  0  0  0  0  0  0  0  0  0  0
  188.5390  177.4810  137.8570 C   0  0  0  0  0  3  0  0  0  0  0  0
  184.3720  177.9720  138.2970 C   0  0  0  0  0  0  0  0  0  0  0  0
  186.2810  177.2830  136.9350 C   0  0  0  0  0  3  0  0  0  0  0  0
  186.8490  178.6620  141.5810 C   0  0  0  0  0  2  0  0  0  0  0  0
  182.5250  178.3420  139.8260 N   0  0  0  0  0  0  0  0  0  0  0  0
  182.9200  177.9650  138.6360 C   0  0  0  0  0  0  0  0  0  0  0  0
  184.5660  178.6470  142.6530 C   0  0  0  0  0  0  0  0  0  0  0  0
  184.7680  179.2770  140.3960 C   0  0  1  0  0  3  0  0  0  0  0  0
  184.8890  177.4000  137.1200 C   0  0  0  0  0  3  0  0  0  0  0  0
  181.3350  175.2430  136.6240 C   0  0  0  0  0  0  0  0  0  0  0  0
  180.5210  176.0420  135.6480 C   0  0  0  0  0  2  0  0  0  0  0  0
  181.9260  177.3830  137.6630 C   0  0  2  0  0  3  0  0  0  0  0  0
  181.3570  177.2180  135.1390 C   0  0  0  0  0  2  0  0  0  0  0  0
  182.0370  175.8840  137.5700 C   0  0  0  0  0  3  0  0  0  0  0  0
  181.9470  178.0710  136.2810 C   0  0  0  0  0  2  0  0  0  0  0  0
  181.4200  173.8930  136.4980 F   0  0  0  0  0  0  0  0  0  0  0  0
  186.0310  178.5120  144.7680 C   0  0  1  0  0  3  0  0  0  0  0  0
  185.8120  177.9950  146.1700 C   0  0  0  0  0  2  0  0  0  0  0  0
  186.7240  177.2350  145.2240 C   0  0  2  0  0  3  0  0  0  0  0  0
  188.1500  177.4740  145.6540 C   0  0  0  0  0  0  0  0  0  0  0  0
  190.6020  177.6910  145.1770 C   0  0  0  0  0  1  0  0  0  0  0  0
  189.2780  177.2280  144.7900 N   0  0  0  0  0  0  0  0  0  0  0  0
  189.1630  176.4930  143.5410 C   0  0  0  0  0  1  0  0  0  0  0  0
  188.3480  177.9150  146.8190 O   0  0  0  0  0  0  0  0  0  0  0  0
  1  8  1  0  0  0  0
  2 14  1  0  0  0  0
  4 10  1  0  0  0  0
  5  6  2  0  0  0  0
  6  2  1  0  0  0  0
  7 14  1  6  0  0  0
  7 17  1  0  0  0  0
  8  3  1  0  0  0  0
  8  2  2  0  0  0  0
 10 17  2  0  0  0  0
 11  1  2  0  0  0  0
 11  5  1  0  0  0  0
 12 16  1  0  0  0  0
 12  3  2  0  0  0  0
 13 19  2  0  0  0  0
 13  1  1  0  0  0  0
 15  4  1  0  0  0  0
 16 15  2  0  0  0  0
 17  9  1  0  0  0  0
 18  3  1  6  0  0  0
 18  4  1  0  0  0  0
 18  7  1  0  0  0  0
 19 12  1  0  0  0  0
 20 24  2  0  0  0  0
 21 20  1  0  0  0  0
 22 16  1  1  0  0  0
 23 21  1  0  0  0  0
 23 25  1  0  0  0  0
 24 22  1  0  0  0  0
 25 22  1  0  0  0  0
 26 20  1  0  0  0  0
 27  9  1  6  0  0  0
 27 29  1  0  0  0  0
 27 28  1  0  0  0  0
 29 30  1  1  0  0  0
 29 28  1  0  0  0  0
 30 34  2  0  0  0  0
 32 31  1  0  0  0  0
 32 30  1  0  0  0  0
 33 32  1  0  0  0  0
M  END
>  <MODEL>
6

>  <REMARK>
 VINA RESULT:      -8.8      3.736      9.085
  Name = 
  3 active torsions:
  status: ('A' for Active; 'I' for Inactive)
    1  A    between atoms: C_3  and  N_17
    2  A    between atoms: C_12  and  C_28
    3  A    between atoms: C_13  and  C_14
                            x       y       z     vdW  Elec       q    Type
                         _______ _______ _______ _____ _____    ______ ____

>  <TORSDO>
F 3

$$$$
=
 OpenBabel10252415023D

 34 40  0  0  1  0  0  0  0  0999 V2000
  179.5920  179.9000  142.1170 C   0  0  0  0  0  0  0  0  0  0  0  0
  181.4870  178.6670  143.0320 C   0  0  0  0  0  0  0  0  0  0  0  0
  181.5260  179.4380  140.7310 C   0  0  0  0  0  0  0  0  0  0  0  0
  183.6530  179.2620  139.6000 N   0  0  0  0  0  0  0  0  0  0  0  0
  179.5690  179.0500  144.3790 C   0  0  0  0  0  3  0  0  0  0  0  0
  180.8350  178.5630  144.2180 N   0  0  0  0  0  0  0  0  0  0  0  0
  183.5210  178.3990  141.7210 C   0  0  2  0  0  3  0  0  0  0  0  0
  180.8500  179.3030  141.9460 C   0  0  0  0  0  0  0  0  0  0  0  0
  186.0140  178.8940  142.2550 N   0  0  0  0  0  2  0  0  0  0  0  0
  184.9170  179.3510  140.1970 N   0  0  0  0  0  0  0  0  0  0  0  0
  178.9320  179.7410  143.3370 C   0  0  0  0  0  3  0  0  0  0  0  0
  181.0680  180.3130  139.7440 C   0  0  0  0  0  0  0  0  0  0  0  0
  179.0670  180.7040  141.0910 C   0  0  0  0  0  3  0  0  0  0  0  0
  182.9470  178.3890  142.9330 C   0  0  0  0  0  2  0  0  0  0  0  0
  183.2130  180.1750  138.6180 N   0  0  0  0  0  0  0  0  0  0  0  0
  181.9910  180.6460  138.6210 C   0  0  0  0  0  0  0  0  0  0  0  0
  184.8860  178.8170  141.3770 C   0  0  0  0  0  0  0  0  0  0  0  0
  182.7240  178.5850  140.4780 C   0  0  1  0  0  3  0  0  0  0  0  0
  179.8170  180.9330  139.9210 C   0  0  0  0  0  3  0  0  0  0  0  0
  181.3140  184.0610  137.2610 C   0  0  0  0  0  0  0  0  0  0  0  0
  180.5020  183.7300  136.0430 C   0  0  0  0  0  2  0  0  0  0  0  0
  181.5660  181.6420  137.5730 C   0  0  2  0  0  3  0  0  0  0  0  0
  179.4840  182.6440  136.3950 C   0  0  0  0  0  2  0  0  0  0  0  0
  181.7970  183.0630  138.0160 C   0  0  0  0  0  3  0  0  0  0  0  0
  180.1330  181.4060  137.0480 C   0  0  0  0  0  2  0  0  0  0  0  0
  181.4890  185.3550  137.6340 F   0  0  0  0  0  0  0  0  0  0  0  0
  186.1830  178.1620  143.5030 C   0  0  1  0  0  3  0  0  0  0  0  0
  187.0930  176.9870  143.2280 C   0  0  0  0  0  2  0  0  0  0  0  0
  187.6270  178.1900  143.9850 C   0  0  2  0  0  3  0  0  0  0  0  0
  187.7580  177.8090  145.4390 C   0  0  0  0  0  0  0  0  0  0  0  0
  189.1100  177.4000  147.5100 C   0  0  0  0  0  1  0  0  0  0  0  0
  189.0280  177.5360  146.0640 N   0  0  0  0  0  0  0  0  0  0  0  0
  190.2520  177.3490  145.3020 C   0  0  0  0  0  1  0  0  0  0  0  0
  186.7020  177.7380  146.1260 O   0  0  0  0  0  0  0  0  0  0  0  0
  1 11  2  0  0  0  0
  2  6  1  0  0  0  0
  3  8  1  0  0  0  0
  4 10  1  0  0  0  0
  4 18  1  0  0  0  0
  6  5  2  0  0  0  0
  7 14  1  1  0  0  0
  8  1  1  0  0  0  0
  8  2  2  0  0  0  0
 10 17  2  0  0  0  0
 11  5  1  0  0  0  0
 12 19  1  0  0  0  0
 12  3  2  0  0  0  0
 13  1  1  0  0  0  0
 14  2  1  0  0  0  0
 15 16  2  0  0  0  0
 15  4  1  0  0  0  0
 16 12  1  0  0  0  0
 17  7  1  0  0  0  0
 17  9  1  0  0  0  0
 18  3  1  1  0  0  0
 18  7  1  0  0  0  0
 19 13  2  0  0  0  0
 20 26  1  0  0  0  0
 20 24  2  0  0  0  0
 21 23  1  0  0  0  0
 21 20  1  0  0  0  0
 22 24  1  0  0  0  0
 22 16  1  1  0  0  0
 23 25  1  0  0  0  0
 25 22  1  0  0  0  0
 27  9  1  6  0  0  0
 27 29  1  0  0  0  0
 28 27  1  0  0  0  0
 28 29  1  0  0  0  0
 29 30  1  1  0  0  0
 30 32  1  0  0  0  0
 30 34  2  0  0  0  0
 32 31  1  0  0  0  0
 33 32  1  0  0  0  0
M  END
>  <MODEL>
7

>  <REMARK>
 VINA RESULT:      -8.1      4.820      9.501
  Name = 
  3 active torsions:
  status: ('A' for Active; 'I' for Inactive)
    1  A    between atoms: C_3  and  N_17
    2  A    between atoms: C_12  and  C_28
    3  A    between atoms: C_13  and  C_14
                            x       y       z     vdW  Elec       q    Type
                         _______ _______ _______ _____ _____    ______ ____

>  <TORSDO>
F 3

$$$$
=
 OpenBabel10252415023D

 34 40  0  0  1  0  0  0  0  0999 V2000
  187.8050  177.7510  137.5380 C   0  0  0  0  0  0  0  0  0  0  0  0
  189.0600  177.7420  139.6290 C   0  0  0  0  0  0  0  0  0  0  0  0
  186.7450  178.4690  139.5970 C   0  0  0  0  0  0  0  0  0  0  0  0
  185.7090  178.7720  141.7580 N   0  0  0  0  0  0  0  0  0  0  0  0
  190.1320  177.1040  137.6080 C   0  0  0  0  0  3  0  0  0  0  0  0
  190.1500  177.2840  138.9620 N   0  0  0  0  0  0  0  0  0  0  0  0
  187.9400  178.2420  141.7320 C   0  0  2  0  0  3  0  0  0  0  0  0
  187.8790  178.0250  138.9120 C   0  0  0  0  0  0  0  0  0  0  0  0
  187.8320  176.9680  143.9920 N   0  0  0  0  0  2  0  0  0  0  0  0
  186.0120  178.0620  142.9260 N   0  0  0  0  0  0  0  0  0  0  0  0
  188.9540  177.3190  136.8740 C   0  0  0  0  0  3  0  0  0  0  0  0
  185.4890  178.4670  138.9890 C   0  0  0  0  0  0  0  0  0  0  0  0
  186.5640  177.8430  136.8850 C   0  0  0  0  0  3  0  0  0  0  0  0
  188.9890  177.6770  141.1160 C   0  0  0  0  0  2  0  0  0  0  0  0
  184.4320  178.7320  141.1570 N   0  0  0  0  0  0  0  0  0  0  0  0
  184.2900  178.6470  139.8580 C   0  0  0  0  0  0  0  0  0  0  0  0
  187.2800  177.8000  142.9660 C   0  0  0  0  0  0  0  0  0  0  0  0
  186.9060  179.0040  140.9800 C   0  0  1  0  0  3  0  0  0  0  0  0
  185.4050  178.1710  137.6160 C   0  0  0  0  0  3  0  0  0  0  0  0
  181.1280  180.0540  138.4480 C   0  0  0  0  0  0  0  0  0  0  0  0
  180.2320  178.8510  138.4930 C   0  0  0  0  0  2  0  0  0  0  0  0
  182.9110  178.5780  139.2550 C   0  0  2  0  0  3  0  0  0  0  0  0
  180.4220  178.1310  139.8290 C   0  0  0  0  0  2  0  0  0  0  0  0
  182.4040  179.9350  138.8440 C   0  0  0  0  0  3  0  0  0  0  0  0
  181.8990  177.8000  140.1250 C   0  0  0  0  0  2  0  0  0  0  0  0
  180.6290  181.2640  138.0830 F   0  0  0  0  0  0  0  0  0  0  0  0
  189.2480  176.7730  144.2720 C   0  0  1  0  0  3  0  0  0  0  0  0
  189.8680  178.1360  144.4790 C   0  0  0  0  0  2  0  0  0  0  0  0
  189.6180  177.2350  145.6740 C   0  0  2  0  0  3  0  0  0  0  0  0
  190.9450  176.6830  146.1330 C   0  0  0  0  0  0  0  0  0  0  0  0
  192.5640  176.0020  147.9230 C   0  0  0  0  0  1  0  0  0  0  0  0
  191.3870  176.7480  147.5040 N   0  0  0  0  0  0  0  0  0  0  0  0
  190.7220  177.5680  148.5030 C   0  0  0  0  0  1  0  0  0  0  0  0
  191.6870  176.1390  145.2700 O   0  0  0  0  0  0  0  0  0  0  0  0
  1  8  1  0  0  0  0
  2 14  1  0  0  0  0
  4 10  1  0  0  0  0
  5  6  2  0  0  0  0
  6  2  1  0  0  0  0
  7 14  1  6  0  0  0
  7 17  1  0  0  0  0
  8  3  1  0  0  0  0
  8  2  2  0  0  0  0
 10 17  2  0  0  0  0
 11  1  2  0  0  0  0
 11  5  1  0  0  0  0
 12  3  2  0  0  0  0
 12 16  1  0  0  0  0
 13  1  1  0  0  0  0
 13 19  2  0  0  0  0
 15  4  1  0  0  0  0
 16 15  2  0  0  0  0
 17  9  1  0  0  0  0
 18  3  1  6  0  0  0
 18  7  1  0  0  0  0
 18  4  1  0  0  0  0
 19 12  1  0  0  0  0
 20 21  1  0  0  0  0
 20 24  2  0  0  0  0
 21 23  1  0  0  0  0
 22 16  1  1  0  0  0
 22 25  1  0  0  0  0
 23 25  1  0  0  0  0
 24 22  1  0  0  0  0
 26 20  1  0  0  0  0
 27  9  1  1  0  0  0
 27 28  1  0  0  0  0
 27 29  1  0  0  0  0
 28 29  1  0  0  0  0
 29 30  1  6  0  0  0
 30 32  1  0  0  0  0
 32 31  1  0  0  0  0
 32 33  1  0  0  0  0
 34 30  2  0  0  0  0
M  END
>  <MODEL>
8

>  <REMARK>
 VINA RESULT:      -8.1      3.843      8.958
  Name = 
  3 active torsions:
  status: ('A' for Active; 'I' for Inactive)
    1  A    between atoms: C_3  and  N_17
    2  A    between atoms: C_12  and  C_28
    3  A    between atoms: C_13  and  C_14
                            x       y       z     vdW  Elec       q    Type
                         _______ _______ _______ _____ _____    ______ ____

>  <TORSDO>
F 3

$$$$
=
 OpenBabel10252415023D

 34 40  0  0  1  0  0  0  0  0999 V2000
  184.8690  178.2630  139.2630 C   0  0  0  0  0  0  0  0  0  0  0  0
  187.0310  177.9770  138.1710 C   0  0  0  0  0  0  0  0  0  0  0  0
  186.9100  178.3260  140.5690 C   0  0  0  0  0  0  0  0  0  0  0  0
  188.9650  177.9710  141.7880 N   0  0  0  0  0  0  0  0  0  0  0  0
  185.0450  177.9840  136.8690 C   0  0  0  0  0  3  0  0  0  0  0  0
  186.4010  177.8550  136.9750 N   0  0  0  0  0  0  0  0  0  0  0  0
  189.0630  177.8120  139.5030 C   0  0  2  0  0  3  0  0  0  0  0  0
  186.2700  178.2280  139.3310 C   0  0  0  0  0  0  0  0  0  0  0  0
  190.9800  176.0600  139.5420 N   0  0  0  0  0  2  0  0  0  0  0  0
  189.9830  177.0720  141.4470 N   0  0  0  0  0  0  0  0  0  0  0  0
  184.2540  178.1740  138.0130 C   0  0  0  0  0  3  0  0  0  0  0  0
  186.1870  178.2670  141.7620 C   0  0  0  0  0  0  0  0  0  0  0  0
  184.1230  178.3060  140.4530 C   0  0  0  0  0  3  0  0  0  0  0  0
  188.4550  177.5690  138.3320 C   0  0  0  0  0  2  0  0  0  0  0  0
  188.2380  177.8710  142.9950 N   0  0  0  0  0  0  0  0  0  0  0  0
  186.9430  178.0590  143.0300 C   0  0  0  0  0  0  0  0  0  0  0  0
  190.1000  177.0060  140.1590 C   0  0  0  0  0  0  0  0  0  0  0  0
  188.3840  178.5540  140.5990 C   0  0  1  0  0  3  0  0  0  0  0  0
  184.7810  178.2780  141.6980 C   0  0  0  0  0  3  0  0  0  0  0  0
  184.1730  178.7330  145.4470 C   0  0  0  0  0  0  0  0  0  0  0  0
  184.7630  178.1970  146.7190 C   0  0  0  0  0  2  0  0  0  0  0  0
  186.1970  177.9160  144.3320 C   0  0  2  0  0  3  0  0  0  0  0  0
  186.2240  178.6390  146.8220 C   0  0  0  0  0  2  0  0  0  0  0  0
  184.8720  178.6310  144.3070 C   0  0  0  0  0  3  0  0  0  0  0  0
  187.0480  178.2770  145.5690 C   0  0  0  0  0  2  0  0  0  0  0  0
  182.9800  179.3830  145.4680 F   0  0  0  0  0  0  0  0  0  0  0  0
  191.3600  176.0290  138.1360 C   0  0  1  0  0  3  0  0  0  0  0  0
  192.6870  176.7380  138.0020 C   0  0  0  0  0  2  0  0  0  0  0  0
  192.6310  175.2240  137.9110 C   0  0  2  0  0  3  0  0  0  0  0  0
  192.8190  174.8330  136.4650 C   0  0  0  0  0  0  0  0  0  0  0  0
  194.1260  173.7720  134.6070 C   0  0  0  0  0  1  0  0  0  0  0  0
  194.0710  174.3430  135.9440 N   0  0  0  0  0  0  0  0  0  0  0  0
  195.3160  174.4270  136.6890 C   0  0  0  0  0  1  0  0  0  0  0  0
  191.8270  174.9390  135.6930 O   0  0  0  0  0  0  0  0  0  0  0  0
  1  8  2  0  0  0  0
  1 13  1  0  0  0  0
  2 14  1  0  0  0  0
  2  8  1  0  0  0  0
  3 12  2  0  0  0  0
  4 15  1  0  0  0  0
  5  6  1  0  0  0  0
  5 11  2  0  0  0  0
  6  2  2  0  0  0  0
  7 14  1  1  0  0  0
  7 17  1  0  0  0  0
  7 18  1  0  0  0  0
  8  3  1  0  0  0  0
  9 17  1  0  0  0  0
 10  4  1  0  0  0  0
 11  1  1  0  0  0  0
 12 16  1  0  0  0  0
 13 19  2  0  0  0  0
 15 16  2  0  0  0  0
 17 10  2  0  0  0  0
 18  3  1  1  0  0  0
 18  4  1  0  0  0  0
 19 12  1  0  0  0  0
 20 26  1  0  0  0  0
 20 21  1  0  0  0  0
 21 23  1  0  0  0  0
 22 16  1  6  0  0  0
 22 25  1  0  0  0  0
 24 22  1  0  0  0  0
 24 20  2  0  0  0  0
 25 23  1  0  0  0  0
 27  9  1  1  0  0  0
 28 27  1  0  0  0  0
 29 30  1  6  0  0  0
 29 28  1  0  0  0  0
 29 27  1  0  0  0  0
 31 32  1  0  0  0  0
 32 30  1  0  0  0  0
 32 33  1  0  0  0  0
 34 30  2  0  0  0  0
M  END
>  <MODEL>
9

>  <REMARK>
 VINA RESULT:      -8.0      3.341      5.378
  Name = 
  3 active torsions:
  status: ('A' for Active; 'I' for Inactive)
    1  A    between atoms: C_3  and  N_17
    2  A    between atoms: C_12  and  C_28
    3  A    between atoms: C_13  and  C_14
                            x       y       z     vdW  Elec       q    Type
                         _______ _______ _______ _____ _____    ______ ____

>  <TORSDO>
F 3

$$$$
