=
 OpenBabel10262420183D

 55 62  0  0  1  0  0  0  0  0999 V2000
  185.3210  174.8380  136.9290 C   0  0  0  0  0  1  0  0  0  0  0  0
  184.8780  176.1200  136.2580 C   0  0  1  0  0  3  0  0  0  0  0  0
  184.2170  177.2590  137.5120 S   0  0  0  0  0  0  0  0  0  0  0  0
  179.9710  179.4200  137.5490 O   0  0  0  0  0  0  0  0  0  0  0  0
  181.9880  174.4270  138.2790 C   0  0  0  0  0  2  0  0  0  0  0  0
  180.6960  174.0180  137.5740 C   0  0  0  0  0  2  0  0  0  0  0  0
  182.0260  175.9350  138.5270 C   0  0  1  0  0  3  0  0  0  0  0  0
  179.6050  176.0420  138.2570 O   0  0  0  0  0  0  0  0  0  0  0  0
  179.5120  174.6400  138.3080 C   0  0  0  0  0  2  0  0  0  0  0  0
  182.5050  176.6880  137.2720 C   0  0  1  0  0  3  0  0  0  0  0  0
  181.1220  180.1620  137.8610 C   0  0  2  0  0  3  0  0  0  0  0  0
  180.6680  177.9350  139.3000 C   0  0  2  0  0  3  0  0  0  0  0  0
  180.6710  176.4160  139.1020 C   0  0  2  0  0  3  0  0  0  0  0  0
  181.6030  177.8470  136.8340 C   0  0  0  0  0  2  0  0  0  0  0  0
  181.0740  178.6750  138.0060 C   0  0  1  0  0  0  0  0  0  0  0  0
  180.7990  178.6820  141.6810 C   0  0  0  0  0  3  0  0  0  0  0  0
  182.9210  179.0050  142.8220 C   0  0  0  0  0  0  0  0  0  0  0  0
  182.8740  178.2920  140.5020 C   0  0  0  0  0  3  0  0  0  0  0  0
  183.5930  178.6360  141.6480 C   0  0  0  0  0  3  0  0  0  0  0  0
  181.5160  179.0260  142.8270 C   0  0  0  0  0  3  0  0  0  0  0  0
  181.4720  178.3180  140.5120 C   0  0  0  0  0  0  0  0  0  0  0  0
  183.6660  179.3470  144.0000 N   0  0  0  0  0  0  0  0  0  0  0  0
  184.7510  180.1560  143.9090 O   0  0  0  0  0  1  0  0  0  0  0  0
  183.3660  178.7390  145.2870 C   0  0  0  0  0  1  0  0  0  0  0  0
  180.8790  180.9330  139.1460 C   0  0  0  0  0  2  0  0  0  0  0  0
  180.0230  182.1500  138.8570 C   0  0  0  0  0  2  0  0  0  0  0  0
  180.5580  182.8800  137.6380 C   0  0  0  0  0  2  0  0  0  0  0  0
  181.8530  183.3380  137.8860 O   0  0  0  0  0  1  0  0  0  0  0  0
  185.9680  176.7100  135.6150 O   0  0  0  0  0  0  0  0  0  0  0  0
  186.3260  177.7810  136.4370 C   0  0  0  0  0  2  0  0  0  0  0  0
  187.8270  178.0110  136.3620 C   0  0  0  0  0  2  0  0  0  0  0  0
  188.6020  176.7570  136.7550 C   0  0  0  0  0  2  0  0  0  0  0  0
  188.8130  179.2450  138.3530 O   0  0  0  0  0  0  0  0  0  0  0  0
  189.3190  176.9010  138.1030 C   0  0  1  0  0  0  0  0  0  0  0  0
  189.8620  178.3130  138.2340 C   0  0  2  0  0  3  0  0  0  0  0  0
  188.5740  177.6590  140.1140 C   0  0  1  0  0  3  0  0  0  0  0  0
  189.4050  178.7850  139.5420 C   0  0  2  0  0  3  0  0  0  0  0  0
  188.4160  176.6450  139.1510 O   0  0  0  0  0  0  0  0  0  0  0  0
  190.7410  179.0840  143.1640 C   0  0  0  0  0  2  0  0  0  0  0  0
  189.2300  177.0980  141.3760 C   0  0  1  0  0  3  0  0  0  0  0  0
  190.9650  177.6660  142.6900 C   0  0  2  0  0  0  0  0  0  0  0  0
  190.6160  177.3670  141.3640 O   0  0  0  0  0  0  0  0  0  0  0  0
  189.7740  177.9620  143.5490 C   0  0  2  0  0  0  0  0  0  0  0  0
  192.0190  176.9580  143.2670 O   0  0  0  0  0  1  0  0  0  0  0  0
  188.6030  177.6990  142.6300 C   0  0  2  0  0  3  0  0  0  0  0  0
  187.5880  176.7590  143.2040 C   0  0  0  0  0  0  0  0  0  0  0  0
  186.3760  177.2360  143.6890 O   0  0  0  0  0  1  0  0  0  0  0  0
  187.8410  175.5280  143.2530 O   0  0  0  0  0  0  0  0  0  0  0  0
  189.8630  177.4300  144.9780 C   0  0  0  0  0  2  0  0  0  0  0  0
  188.7320  177.8140  145.6970 O   0  0  0  0  0  0  0  0  0  0  0  0
  189.2030  178.0470  146.9880 C   0  0  0  0  0  1  0  0  0  0  0  0
  190.7030  175.7290  138.2190 S   0  0  0  0  0  0  0  0  0  0  0  0
  191.7900  176.2300  137.1390 C   0  0  0  0  0  2  0  0  0  0  0  0
  193.0530  175.4670  136.9460 C   0  0  0  0  0  2  0  0  0  0  0  0
  194.0460  175.9970  137.7670 O   0  0  0  0  0  1  0  0  0  0  0  0
  2  1  1  1  0  0  0
  2  3  1  0  0  0  0
  4 11  1  0  0  0  0
  4 15  1  0  0  0  0
  6  5  1  0  0  0  0
  6  9  1  0  0  0  0
  7  5  1  6  0  0  0
  7 13  1  0  0  0  0
  8  9  1  0  0  0  0
 10  3  1  1  0  0  0
 10  7  1  0  0  0  0
 11 15  1  0  0  0  0
 11 25  1  1  0  0  0
 12 21  1  1  0  0  0
 13  8  1  6  0  0  0
 13 12  1  0  0  0  0
 14 10  1  0  0  0  0
 15 14  1  6  0  0  0
 15 12  1  0  0  0  0
 16 20  1  0  0  0  0
 17 20  2  0  0  0  0
 17 22  1  0  0  0  0
 18 21  1  0  0  0  0
 18 19  2  0  0  0  0
 19 17  1  0  0  0  0
 21 16  2  0  0  0  0
 22 24  1  0  0  0  0
 23 22  1  0  0  0  0
 26 25  1  0  0  0  0
 27 28  1  0  0  0  0
 27 26  1  0  0  0  0
 29  2  1  0  0  0  0
 29 30  1  0  0  0  0
 31 30  1  0  0  0  0
 31 32  1  0  0  0  0
 34 32  1  6  0  0  0
 34 52  1  0  0  0  0
 34 35  1  0  0  0  0
 34 38  1  0  0  0  0
 35 33  1  6  0  0  0
 35 37  1  0  0  0  0
 36 38  1  6  0  0  0
 36 40  1  0  0  0  0
 37 33  1  6  0  0  0
 37 36  1  0  0  0  0
 39 43  1  0  0  0  0
 40 42  1  6  0  0  0
 40 45  1  0  0  0  0
 41 39  1  0  0  0  0
 41 44  1  1  0  0  0
 41 43  1  0  0  0  0
 42 41  1  0  0  0  0
 43 49  1  1  0  0  0
 45 46  1  1  0  0  0
 45 43  1  0  0  0  0
 46 48  2  0  0  0  0
 46 47  1  0  0  0  0
 49 50  1  0  0  0  0
 50 51  1  0  0  0  0
 53 52  1  0  0  0  0
 54 53  1  0  0  0  0
 54 55  1  0  0  0  0
M  END
>  <MODEL>
1

>  <REMARK>
 VINA RESULT:      -6.5      0.000      0.000
  Name = 
  18 active torsions:
  status: ('A' for Active; 'I' for Inactive)
    1  A    between atoms: C_1  and  C_53
    2  A    between atoms: C_4  and  C_35
    3  A    between atoms: C_4  and  O_37
    4  A    between atoms: C_6  and  C_22
    5  A    between atoms: C_8  and  C_43
    6  A    between atoms: C_8  and  S_51
    7  A    between atoms: N_10  and  C_32
    8  A    between atoms: O_11  and  C_29
    9  A    between atoms: S_19  and  C_26
   10  A    between atoms: S_19  and  C_40
   11  A    between atoms: C_24  and  C_44
   12  A    between atoms: C_27  and  C_54
   13  A    between atoms: C_28  and  C_31
   14  A    between atoms: C_29  and  C_38
   15  A    between atoms: C_31  and  C_44
   16  A    between atoms: C_33  and  C_52
   17  A    between atoms: C_35  and  C_43
   18  A    between atoms: O_37  and  C_40
                            x       y       z     vdW  Elec       q    Type
                         _______ _______ _______ _____ _____    ______ ____

>  <TORSDO>
F 18

$$$$
=
 OpenBabel10262420183D

 55 62  0  0  1  0  0  0  0  0999 V2000
  185.8610  175.9520  135.0700 C   0  0  0  0  0  1  0  0  0  0  0  0
  185.8920  177.3750  135.5850 C   0  0  1  0  0  3  0  0  0  0  0  0
  185.1940  177.4230  137.2640 S   0  0  0  0  0  0  0  0  0  0  0  0
  180.5750  178.4980  136.8110 O   0  0  0  0  0  0  0  0  0  0  0  0
  183.6530  174.0980  137.6460 C   0  0  0  0  0  2  0  0  0  0  0  0
  182.5950  173.4350  136.7660 C   0  0  0  0  0  2  0  0  0  0  0  0
  183.2900  175.5530  137.9420 C   0  0  1  0  0  3  0  0  0  0  0  0
  180.9680  175.0940  137.3610 O   0  0  0  0  0  0  0  0  0  0  0  0
  181.2150  173.7100  137.3570 C   0  0  0  0  0  2  0  0  0  0  0  0
  183.7170  176.4740  136.7840 C   0  0  1  0  0  3  0  0  0  0  0  0
  181.4630  179.4730  137.2930 C   0  0  2  0  0  3  0  0  0  0  0  0
  181.4010  177.1190  138.5920 C   0  0  2  0  0  3  0  0  0  0  0  0
  181.8000  175.6600  138.3490 C   0  0  2  0  0  3  0  0  0  0  0  0
  182.6170  177.4090  136.2680 C   0  0  0  0  0  2  0  0  0  0  0  0
  181.7640  178.0120  137.3850 C   0  0  1  0  0  0  0  0  0  0  0  0
  183.3180  177.7110  140.0790 C   0  0  0  0  0  3  0  0  0  0  0  0
  182.9940  178.5520  142.3370 C   0  0  0  0  0  0  0  0  0  0  0  0
  181.0810  177.9830  140.9560 C   0  0  0  0  0  3  0  0  0  0  0  0
  181.6060  178.4490  142.1610 C   0  0  0  0  0  3  0  0  0  0  0  0
  183.8450  178.1780  141.2850 C   0  0  0  0  0  3  0  0  0  0  0  0
  181.9350  177.6070  139.9090 C   0  0  0  0  0  0  0  0  0  0  0  0
  183.5270  179.0420  143.5760 N   0  0  0  0  0  0  0  0  0  0  0  0
  182.7710  179.0170  144.7020 O   0  0  0  0  0  1  0  0  0  0  0  0
  184.8260  179.6950  143.6340 C   0  0  0  0  0  1  0  0  0  0  0  0
  180.8860  180.0830  138.5580 C   0  0  0  0  0  2  0  0  0  0  0  0
  180.3910  181.4860  138.2680 C   0  0  0  0  0  2  0  0  0  0  0  0
  179.5620  181.9920  139.4340 C   0  0  0  0  0  2  0  0  0  0  0  0
  179.9070  181.3050  140.5990 O   0  0  0  0  0  1  0  0  0  0  0  0
  187.2110  177.8330  135.6110 O   0  0  0  0  0  0  0  0  0  0  0  0
  187.9860  176.6740  135.7070 C   0  0  0  0  0  2  0  0  0  0  0  0
  189.1720  176.9210  136.6250 C   0  0  0  0  0  2  0  0  0  0  0  0
  188.9700  176.2600  137.9850 C   0  0  0  0  0  2  0  0  0  0  0  0
  187.6740  178.3040  139.6970 O   0  0  0  0  0  0  0  0  0  0  0  0
  189.6420  177.0330  139.1260 C   0  0  1  0  0  0  0  0  0  0  0  0
  189.0040  178.4060  139.2460 C   0  0  2  0  0  3  0  0  0  0  0  0
  189.0690  177.2550  141.3170 C   0  0  1  0  0  3  0  0  0  0  0  0
  188.6640  178.5560  140.6610 C   0  0  2  0  0  3  0  0  0  0  0  0
  189.4780  176.3320  140.3350 O   0  0  0  0  0  0  0  0  0  0  0  0
  189.3800  178.5560  145.0900 C   0  0  0  0  0  2  0  0  0  0  0  0
  190.1910  177.4910  142.3270 C   0  0  1  0  0  3  0  0  0  0  0  0
  190.5070  178.8160  144.1170 C   0  0  2  0  0  0  0  0  0  0  0  0
  190.1880  178.8380  142.7520 O   0  0  0  0  0  0  0  0  0  0  0  0
  190.3720  177.4510  144.7210 C   0  0  2  0  0  0  0  0  0  0  0  0
  191.5600  179.6170  144.5590 O   0  0  0  0  0  1  0  0  0  0  0  0
  190.0390  176.5740  143.5370 C   0  0  2  0  0  3  0  0  0  0  0  0
  190.9340  175.3820  143.4010 C   0  0  0  0  0  0  0  0  0  0  0  0
  192.3160  175.5320  143.3880 O   0  0  0  0  0  1  0  0  0  0  0  0
  190.4280  174.2350  143.2920 O   0  0  0  0  0  0  0  0  0  0  0  0
  191.4350  177.1000  145.7600 C   0  0  0  0  0  2  0  0  0  0  0  0
  190.8410  176.4540  146.8440 O   0  0  0  0  0  0  0  0  0  0  0  0
  191.8820  175.7390  147.4350 C   0  0  0  0  0  1  0  0  0  0  0  0
  191.4170  177.2400  138.8000 S   0  0  0  0  0  0  0  0  0  0  0  0
  191.9150  175.8320  138.1930 C   0  0  0  0  0  2  0  0  0  0  0  0
  193.3480  175.6400  137.8380 C   0  0  0  0  0  2  0  0  0  0  0  0
  193.8340  176.7920  137.2250 O   0  0  0  0  0  1  0  0  0  0  0  0
  2  1  1  1  0  0  0
  2 29  1  0  0  0  0
  2  3  1  0  0  0  0
  4 11  1  0  0  0  0
  4 15  1  0  0  0  0
  6  9  1  0  0  0  0
  6  5  1  0  0  0  0
  7  5  1  6  0  0  0
  7 13  1  0  0  0  0
  9  8  1  0  0  0  0
 10  3  1  1  0  0  0
 10  7  1  0  0  0  0
 11 15  1  0  0  0  0
 11 25  1  1  0  0  0
 12 21  1  1  0  0  0
 13  8  1  6  0  0  0
 13 12  1  0  0  0  0
 14 10  1  0  0  0  0
 15 14  1  6  0  0  0
 15 12  1  0  0  0  0
 16 20  1  0  0  0  0
 17 22  1  0  0  0  0
 18 19  2  0  0  0  0
 19 17  1  0  0  0  0
 20 17  2  0  0  0  0
 21 16  2  0  0  0  0
 21 18  1  0  0  0  0
 22 24  1  0  0  0  0
 22 23  1  0  0  0  0
 26 25  1  0  0  0  0
 26 27  1  0  0  0  0
 27 28  1  0  0  0  0
 29 30  1  0  0  0  0
 30 31  1  0  0  0  0
 31 32  1  0  0  0  0
 34 32  1  6  0  0  0
 34 35  1  0  0  0  0
 34 38  1  0  0  0  0
 35 33  1  6  0  0  0
 35 37  1  0  0  0  0
 36 38  1  6  0  0  0
 36 40  1  0  0  0  0
 37 33  1  6  0  0  0
 37 36  1  0  0  0  0
 40 42  1  1  0  0  0
 40 45  1  0  0  0  0
 41 44  1  1  0  0  0
 41 43  1  0  0  0  0
 41 39  1  0  0  0  0
 42 41  1  0  0  0  0
 43 39  1  0  0  0  0
 43 49  1  1  0  0  0
 45 46  1  6  0  0  0
 45 43  1  0  0  0  0
 47 46  1  0  0  0  0
 48 46  2  0  0  0  0
 49 50  1  0  0  0  0
 50 51  1  0  0  0  0
 52 34  1  0  0  0  0
 53 52  1  0  0  0  0
 54 53  1  0  0  0  0
 55 54  1  0  0  0  0
M  END
>  <MODEL>
2

>  <REMARK>
 VINA RESULT:      -6.4      1.585      2.117
  Name = 
  18 active torsions:
  status: ('A' for Active; 'I' for Inactive)
    1  A    between atoms: C_1  and  C_53
    2  A    between atoms: C_4  and  C_35
    3  A    between atoms: C_4  and  O_37
    4  A    between atoms: C_6  and  C_22
    5  A    between atoms: C_8  and  C_43
    6  A    between atoms: C_8  and  S_51
    7  A    between atoms: N_10  and  C_32
    8  A    between atoms: O_11  and  C_29
    9  A    between atoms: S_19  and  C_26
   10  A    between atoms: S_19  and  C_40
   11  A    between atoms: C_24  and  C_44
   12  A    between atoms: C_27  and  C_54
   13  A    between atoms: C_28  and  C_31
   14  A    between atoms: C_29  and  C_38
   15  A    between atoms: C_31  and  C_44
   16  A    between atoms: C_33  and  C_52
   17  A    between atoms: C_35  and  C_43
   18  A    between atoms: O_37  and  C_40
                            x       y       z     vdW  Elec       q    Type
                         _______ _______ _______ _____ _____    ______ ____

>  <TORSDO>
F 18

$$$$
=
 OpenBabel10262420183D

 55 62  0  0  1  0  0  0  0  0999 V2000
  179.9920  178.3030  139.9600 C   0  0  0  0  0  1  0  0  0  0  0  0
  180.8350  177.2140  140.5870 C   0  0  1  0  0  3  0  0  0  0  0  0
  181.9490  176.5160  139.3310 S   0  0  0  0  0  0  0  0  0  0  0  0
  180.5150  175.0320  135.0370 O   0  0  0  0  0  0  0  0  0  0  0  0
  181.6640  179.7190  137.5340 C   0  0  0  0  0  2  0  0  0  0  0  0
  180.5040  180.2290  136.6800 C   0  0  0  0  0  2  0  0  0  0  0  0
  181.9920  178.2640  137.2040 C   0  0  1  0  0  3  0  0  0  0  0  0
  180.8420  178.4870  135.0660 O   0  0  0  0  0  0  0  0  0  0  0  0
  180.7750  179.8830  135.2180 C   0  0  0  0  0  2  0  0  0  0  0  0
  181.0530  177.3030  137.9560 C   0  0  1  0  0  3  0  0  0  0  0  0
  181.2770  174.1700  135.8420 C   0  0  2  0  0  3  0  0  0  0  0  0
  182.3130  176.5960  135.3170 C   0  0  2  0  0  3  0  0  0  0  0  0
  182.0440  178.0630  135.6690 C   0  0  2  0  0  3  0  0  0  0  0  0
  180.3760  176.2460  137.0750 C   0  0  0  0  0  2  0  0  0  0  0  0
  181.3090  175.6540  136.0180 C   0  0  1  0  0  0  0  0  0  0  0  0
  184.7040  176.6300  134.5940 C   0  0  0  0  0  3  0  0  0  0  0  0
  186.4780  175.6570  135.9410 C   0  0  0  0  0  0  0  0  0  0  0  0
  184.1750  175.5710  136.7030 C   0  0  0  0  0  3  0  0  0  0  0  0
  185.5250  175.2760  136.8970 C   0  0  0  0  0  3  0  0  0  0  0  0
  186.0550  176.3360  134.7870 C   0  0  0  0  0  3  0  0  0  0  0  0
  183.7570  176.2470  135.5470 C   0  0  0  0  0  0  0  0  0  0  0  0
  187.8660  175.3590  136.1520 N   0  0  0  0  0  0  0  0  0  0  0  0
  188.8240  176.1440  135.5990 O   0  0  0  0  0  1  0  0  0  0  0  0
  188.2830  174.1480  136.8420 C   0  0  0  0  0  1  0  0  0  0  0  0
  182.4190  173.6040  135.0170 C   0  0  0  0  0  2  0  0  0  0  0  0
  182.3930  172.0900  135.0800 C   0  0  0  0  0  2  0  0  0  0  0  0
  181.2990  171.6310  136.0260 C   0  0  0  0  0  2  0  0  0  0  0  0
  180.4770  170.7000  135.3870 O   0  0  0  0  0  1  0  0  0  0  0  0
  181.5850  177.7500  141.6350 O   0  0  0  0  0  0  0  0  0  0  0  0
  182.0560  178.9710  141.1450 C   0  0  0  0  0  2  0  0  0  0  0  0
  183.5760  178.9640  141.1160 C   0  0  0  0  0  2  0  0  0  0  0  0
  184.1460  177.9350  142.0870 C   0  0  0  0  0  2  0  0  0  0  0  0
  183.6200  178.9610  144.8180 O   0  0  0  0  0  0  0  0  0  0  0  0
  185.1900  178.5320  143.0390 C   0  0  1  0  0  0  0  0  0  0  0  0
  184.5240  179.5690  143.9260 C   0  0  2  0  0  3  0  0  0  0  0  0
  185.7570  177.9720  145.1700 C   0  0  1  0  0  3  0  0  0  0  0  0
  184.9160  179.2220  145.2930 C   0  0  2  0  0  3  0  0  0  0  0  0
  185.7400  177.5130  143.8390 O   0  0  0  0  0  0  0  0  0  0  0  0
  188.2230  176.6490  148.0320 C   0  0  0  0  0  2  0  0  0  0  0  0
  187.1920  178.2450  145.6220 C   0  0  1  0  0  3  0  0  0  0  0  0
  188.3450  178.0740  147.5450 C   0  0  2  0  0  0  0  0  0  0  0  0
  187.2060  178.6590  146.9710 O   0  0  0  0  0  0  0  0  0  0  0  0
  188.9140  176.9710  146.7060 C   0  0  2  0  0  0  0  0  0  0  0  0
  189.2420  178.9050  148.2170 O   0  0  0  0  0  1  0  0  0  0  0  0
  188.0610  177.0010  145.4590 C   0  0  2  0  0  3  0  0  0  0  0  0
  188.8540  177.0840  144.1910 C   0  0  0  0  0  0  0  0  0  0  0  0
  188.8230  176.0450  143.2680 O   0  0  0  0  0  0  0  0  0  0  0  0
  189.5580  178.1020  143.9650 O   0  0  0  0  0  1  0  0  0  0  0  0
  190.4400  176.9010  146.6850 C   0  0  0  0  0  2  0  0  0  0  0  0
  190.8810  175.9340  147.5860 O   0  0  0  0  0  0  0  0  0  0  0  0
  192.1720  175.6250  147.1600 C   0  0  0  0  0  1  0  0  0  0  0  0
  186.5250  179.3330  142.1030 S   0  0  0  0  0  0  0  0  0  0  0  0
  187.1120  178.1970  141.1220 C   0  0  0  0  0  2  0  0  0  0  0  0
  188.2550  178.5080  140.2220 C   0  0  0  0  0  2  0  0  0  0  0  0
  187.8100  178.5600  138.9030 O   0  0  0  0  0  1  0  0  0  0  0  0
  2  1  1  6  0  0  0
  2 29  1  0  0  0  0
  3  2  1  0  0  0  0
  4 11  1  0  0  0  0
  4 15  1  0  0  0  0
  6  5  1  0  0  0  0
  7  5  1  6  0  0  0
  7 10  1  0  0  0  0
  8  9  1  0  0  0  0
  9  6  1  0  0  0  0
 10  3  1  1  0  0  0
 11 25  1  6  0  0  0
 11 15  1  0  0  0  0
 12 21  1  1  0  0  0
 12 13  1  0  0  0  0
 12 15  1  0  0  0  0
 13  8  1  6  0  0  0
 13  7  1  0  0  0  0
 14 10  1  0  0  0  0
 15 14  1  1  0  0  0
 16 20  2  0  0  0  0
 16 21  1  0  0  0  0
 17 22  1  0  0  0  0
 17 19  2  0  0  0  0
 18 19  1  0  0  0  0
 20 17  1  0  0  0  0
 21 18  2  0  0  0  0
 22 24  1  0  0  0  0
 23 22  1  0  0  0  0
 25 26  1  0  0  0  0
 26 27  1  0  0  0  0
 28 27  1  0  0  0  0
 30 29  1  0  0  0  0
 31 30  1  0  0  0  0
 31 32  1  0  0  0  0
 34 32  1  6  0  0  0
 34 38  1  0  0  0  0
 34 35  1  0  0  0  0
 35 33  1  1  0  0  0
 35 37  1  0  0  0  0
 36 38  1  6  0  0  0
 36 37  1  0  0  0  0
 36 40  1  0  0  0  0
 37 33  1  1  0  0  0
 40 42  1  1  0  0  0
 41 39  1  0  0  0  0
 41 44  1  1  0  0  0
 42 41  1  0  0  0  0
 43 49  1  6  0  0  0
 43 41  1  0  0  0  0
 43 39  1  0  0  0  0
 45 46  1  6  0  0  0
 45 40  1  0  0  0  0
 45 43  1  0  0  0  0
 47 46  2  0  0  0  0
 48 46  1  0  0  0  0
 49 50  1  0  0  0  0
 51 50  1  0  0  0  0
 52 34  1  0  0  0  0
 53 52  1  0  0  0  0
 54 53  1  0  0  0  0
 55 54  1  0  0  0  0
M  END
>  <MODEL>
3

>  <REMARK>
 VINA RESULT:      -6.1      2.843      6.583
  Name = 
  18 active torsions:
  status: ('A' for Active; 'I' for Inactive)
    1  A    between atoms: C_1  and  C_53
    2  A    between atoms: C_4  and  C_35
    3  A    between atoms: C_4  and  O_37
    4  A    between atoms: C_6  and  C_22
    5  A    between atoms: C_8  and  C_43
    6  A    between atoms: C_8  and  S_51
    7  A    between atoms: N_10  and  C_32
    8  A    between atoms: O_11  and  C_29
    9  A    between atoms: S_19  and  C_26
   10  A    between atoms: S_19  and  C_40
   11  A    between atoms: C_24  and  C_44
   12  A    between atoms: C_27  and  C_54
   13  A    between atoms: C_28  and  C_31
   14  A    between atoms: C_29  and  C_38
   15  A    between atoms: C_31  and  C_44
   16  A    between atoms: C_33  and  C_52
   17  A    between atoms: C_35  and  C_43
   18  A    between atoms: O_37  and  C_40
                            x       y       z     vdW  Elec       q    Type
                         _______ _______ _______ _____ _____    ______ ____

>  <TORSDO>
F 18

$$$$
=
 OpenBabel10262420183D

 55 62  0  0  1  0  0  0  0  0999 V2000
  186.6600  175.4320  136.8620 C   0  0  0  0  0  1  0  0  0  0  0  0
  186.1640  176.7240  136.2510 C   0  0  1  0  0  3  0  0  0  0  0  0
  184.8170  177.3950  137.2710 S   0  0  0  0  0  0  0  0  0  0  0  0
  180.3870  178.0190  135.6320 O   0  0  0  0  0  0  0  0  0  0  0  0
  183.4680  173.9790  137.5580 C   0  0  0  0  0  2  0  0  0  0  0  0
  182.7090  173.1660  136.5110 C   0  0  0  0  0  2  0  0  0  0  0  0
  182.9420  175.4110  137.6320 C   0  0  1  0  0  3  0  0  0  0  0  0
  180.8720  174.7080  136.5520 O   0  0  0  0  0  0  0  0  0  0  0  0
  181.2110  173.3550  136.7270 C   0  0  0  0  0  2  0  0  0  0  0  0
  183.5740  176.2880  136.5350 C   0  0  1  0  0  3  0  0  0  0  0  0
  181.0580  179.1000  136.2270 C   0  0  2  0  0  3  0  0  0  0  0  0
  180.8440  176.8410  137.6720 C   0  0  2  0  0  3  0  0  0  0  0  0
  181.3930  175.4110  137.6590 C   0  0  2  0  0  3  0  0  0  0  0  0
  182.5710  177.0840  135.6910 C   0  0  0  0  0  2  0  0  0  0  0  0
  181.4300  177.6810  136.5140 C   0  0  1  0  0  0  0  0  0  0  0  0
  182.2160  178.0740  139.3570 C   0  0  0  0  0  3  0  0  0  0  0  0
  181.3430  178.6760  141.5460 C   0  0  0  0  0  0  0  0  0  0  0  0
  179.9560  177.4630  139.9650 C   0  0  0  0  0  3  0  0  0  0  0  0
  180.1260  178.0630  141.2130 C   0  0  0  0  0  3  0  0  0  0  0  0
  182.3870  178.6740  140.6050 C   0  0  0  0  0  3  0  0  0  0  0  0
  181.0020  177.4620  139.0320 C   0  0  0  0  0  0  0  0  0  0  0  0
  181.5090  179.3000  142.8270 N   0  0  0  0  0  0  0  0  0  0  0  0
  180.7140  180.3380  143.1880 O   0  0  0  0  0  1  0  0  0  0  0  0
  182.6040  178.9310  143.7110 C   0  0  0  0  0  1  0  0  0  0  0  0
  180.1450  179.7390  137.2590 C   0  0  0  0  0  2  0  0  0  0  0  0
  180.3890  181.2340  137.3010 C   0  0  0  0  0  2  0  0  0  0  0  0
  180.8550  181.6430  138.6860 C   0  0  0  0  0  2  0  0  0  0  0  0
  179.8250  181.4550  139.6100 O   0  0  0  0  0  1  0  0  0  0  0  0
  187.2130  177.6450  136.1930 O   0  0  0  0  0  0  0  0  0  0  0  0
  187.0620  178.4250  137.3410 C   0  0  0  0  0  2  0  0  0  0  0  0
  188.4030  178.5770  138.0420 C   0  0  0  0  0  2  0  0  0  0  0  0
  188.8820  177.2490  138.6210 C   0  0  0  0  0  2  0  0  0  0  0  0
  187.5030  178.7810  140.7520 O   0  0  0  0  0  0  0  0  0  0  0  0
  189.3370  177.3680  140.0800 C   0  0  1  0  0  0  0  0  0  0  0  0
  188.9050  178.7150  140.6330 C   0  0  2  0  0  3  0  0  0  0  0  0
  188.2480  176.9110  142.0240 C   0  0  1  0  0  3  0  0  0  0  0  0
  188.2310  178.4180  141.8980 C   0  0  2  0  0  3  0  0  0  0  0  0
  188.7580  176.3380  140.8440 O   0  0  0  0  0  0  0  0  0  0  0  0
  191.8460  177.7950  143.5420 C   0  0  0  0  0  2  0  0  0  0  0  0
  189.0870  176.4850  143.2290 C   0  0  1  0  0  3  0  0  0  0  0  0
  191.2780  176.4070  143.7320 C   0  0  2  0  0  0  0  0  0  0  0  0
  190.3280  175.9660  142.8000 O   0  0  0  0  0  0  0  0  0  0  0  0
  190.7690  177.5220  144.5940 C   0  0  2  0  0  0  0  0  0  0  0  0
  192.1040  175.4550  144.3280 O   0  0  0  0  0  1  0  0  0  0  0  0
  189.3240  177.6610  144.1720 C   0  0  2  0  0  3  0  0  0  0  0  0
  188.3570  177.6140  145.3150 C   0  0  0  0  0  0  0  0  0  0  0  0
  188.2470  178.6860  146.1930 O   0  0  0  0  0  1  0  0  0  0  0  0
  187.6450  176.5900  145.4820 O   0  0  0  0  0  0  0  0  0  0  0  0
  191.2220  177.4670  146.0520 C   0  0  0  0  0  2  0  0  0  0  0  0
  190.8620  176.2430  146.6120 O   0  0  0  0  0  0  0  0  0  0  0  0
  191.9090  175.9360  147.4800 C   0  0  0  0  0  1  0  0  0  0  0  0
  191.1460  177.2420  140.1970 S   0  0  0  0  0  0  0  0  0  0  0  0
  191.6240  176.5410  138.8270 C   0  0  0  0  0  2  0  0  0  0  0  0
  193.0670  176.2530  138.6020 C   0  0  0  0  0  2  0  0  0  0  0  0
  193.5080  176.9420  137.4740 O   0  0  0  0  0  1  0  0  0  0  0  0
  2  1  1  1  0  0  0
  2  3  1  0  0  0  0
  4 11  1  0  0  0  0
  4 15  1  0  0  0  0
  6  9  1  0  0  0  0
  6  5  1  0  0  0  0
  7  5  1  6  0  0  0
  7 13  1  0  0  0  0
  8  9  1  0  0  0  0
 10  3  1  1  0  0  0
 10  7  1  0  0  0  0
 11 15  1  0  0  0  0
 11 25  1  1  0  0  0
 12 21  1  1  0  0  0
 13  8  1  6  0  0  0
 13 12  1  0  0  0  0
 14 10  1  0  0  0  0
 15 14  1  6  0  0  0
 15 12  1  0  0  0  0
 16 20  1  0  0  0  0
 17 22  1  0  0  0  0
 18 19  2  0  0  0  0
 19 17  1  0  0  0  0
 20 17  2  0  0  0  0
 21 16  2  0  0  0  0
 21 18  1  0  0  0  0
 22 23  1  0  0  0  0
 22 24  1  0  0  0  0
 25 26  1  0  0  0  0
 26 27  1  0  0  0  0
 27 28  1  0  0  0  0
 29  2  1  0  0  0  0
 29 30  1  0  0  0  0
 30 31  1  0  0  0  0
 31 32  1  0  0  0  0
 34 32  1  6  0  0  0
 34 52  1  0  0  0  0
 34 35  1  0  0  0  0
 34 38  1  0  0  0  0
 35 33  1  6  0  0  0
 35 37  1  0  0  0  0
 36 38  1  6  0  0  0
 36 40  1  0  0  0  0
 37 33  1  6  0  0  0
 37 36  1  0  0  0  0
 39 41  1  0  0  0  0
 39 43  1  0  0  0  0
 40 42  1  6  0  0  0
 40 45  1  0  0  0  0
 41 44  1  1  0  0  0
 41 43  1  0  0  0  0
 42 41  1  0  0  0  0
 43 49  1  1  0  0  0
 45 43  1  0  0  0  0
 45 46  1  1  0  0  0
 46 48  2  0  0  0  0
 46 47  1  0  0  0  0
 49 50  1  0  0  0  0
 50 51  1  0  0  0  0
 53 52  1  0  0  0  0
 54 53  1  0  0  0  0
 55 54  1  0  0  0  0
M  END
>  <MODEL>
4

>  <REMARK>
 VINA RESULT:      -6.0      1.709      2.227
  Name = 
  18 active torsions:
  status: ('A' for Active; 'I' for Inactive)
    1  A    between atoms: C_1  and  C_53
    2  A    between atoms: C_4  and  C_35
    3  A    between atoms: C_4  and  O_37
    4  A    between atoms: C_6  and  C_22
    5  A    between atoms: C_8  and  C_43
    6  A    between atoms: C_8  and  S_51
    7  A    between atoms: N_10  and  C_32
    8  A    between atoms: O_11  and  C_29
    9  A    between atoms: S_19  and  C_26
   10  A    between atoms: S_19  and  C_40
   11  A    between atoms: C_24  and  C_44
   12  A    between atoms: C_27  and  C_54
   13  A    between atoms: C_28  and  C_31
   14  A    between atoms: C_29  and  C_38
   15  A    between atoms: C_31  and  C_44
   16  A    between atoms: C_33  and  C_52
   17  A    between atoms: C_35  and  C_43
   18  A    between atoms: O_37  and  C_40
                            x       y       z     vdW  Elec       q    Type
                         _______ _______ _______ _____ _____    ______ ____

>  <TORSDO>
F 18

$$$$
=
 OpenBabel10262420183D

 55 62  0  0  1  0  0  0  0  0999 V2000
  180.2040  179.6090  141.3700 C   0  0  0  0  0  1  0  0  0  0  0  0
  180.6740  178.1720  141.4130 C   0  0  1  0  0  3  0  0  0  0  0  0
  181.8900  177.8960  140.0900 S   0  0  0  0  0  0  0  0  0  0  0  0
  179.8440  175.9710  136.2430 O   0  0  0  0  0  0  0  0  0  0  0  0
  181.2660  180.8960  138.0440 C   0  0  0  0  0  2  0  0  0  0  0  0
  179.9800  181.3100  137.3340 C   0  0  0  0  0  2  0  0  0  0  0  0
  181.5700  179.4160  137.8160 C   0  0  1  0  0  3  0  0  0  0  0  0
  180.1000  179.4120  135.8720 O   0  0  0  0  0  0  0  0  0  0  0  0
  180.0290  180.8160  135.8900 C   0  0  0  0  0  2  0  0  0  0  0  0
  180.7780  178.5330  138.7980 C   0  0  1  0  0  3  0  0  0  0  0  0
  180.7380  175.2000  137.0030 C   0  0  2  0  0  3  0  0  0  0  0  0
  181.6310  177.5640  136.0810 C   0  0  2  0  0  3  0  0  0  0  0  0
  181.3900  179.0570  136.3200 C   0  0  2  0  0  3  0  0  0  0  0  0
  179.9950  177.3880  138.1450 C   0  0  0  0  0  2  0  0  0  0  0  0
  180.7660  176.6940  137.0220 C   0  0  1  0  0  0  0  0  0  0  0  0
  183.7920  177.1120  134.9120 C   0  0  0  0  0  3  0  0  0  0  0  0
  185.8570  176.6930  136.1250 C   0  0  0  0  0  0  0  0  0  0  0  0
  183.7910  177.1080  137.3310 C   0  0  0  0  0  3  0  0  0  0  0  0
  185.1590  176.8310  137.3340 C   0  0  0  0  0  3  0  0  0  0  0  0
  185.1600  176.8350  134.9140 C   0  0  0  0  0  3  0  0  0  0  0  0
  183.1000  177.2460  136.1190 C   0  0  0  0  0  0  0  0  0  0  0  0
  187.2650  176.4170  136.1350 N   0  0  0  0  0  0  0  0  0  0  0  0
  187.8540  175.9150  137.2490 O   0  0  0  0  0  1  0  0  0  0  0  0
  188.1160  176.7890  135.0150 C   0  0  0  0  0  1  0  0  0  0  0  0
  181.7500  174.5570  136.0720 C   0  0  0  0  0  2  0  0  0  0  0  0
  181.7530  173.0560  136.2790 C   0  0  0  0  0  2  0  0  0  0  0  0
  183.1620  172.5780  136.5780 C   0  0  0  0  0  2  0  0  0  0  0  0
  184.0680  173.6240  136.3950 O   0  0  0  0  0  1  0  0  0  0  0  0
  181.2600  177.9100  142.6530 O   0  0  0  0  0  0  0  0  0  0  0  0
  181.1250  179.1030  143.3670 C   0  0  0  0  0  2  0  0  0  0  0  0
  182.4440  179.4560  144.0370 C   0  0  0  0  0  2  0  0  0  0  0  0
  183.3960  178.2650  144.0520 C   0  0  0  0  0  2  0  0  0  0  0  0
  184.8380  178.7690  146.5930 O   0  0  0  0  0  0  0  0  0  0  0  0
  184.8660  178.6820  144.1840 C   0  0  1  0  0  0  0  0  0  0  0  0
  185.0360  179.5350  145.4280 C   0  0  2  0  0  3  0  0  0  0  0  0
  186.5840  177.7430  145.3410 C   0  0  1  0  0  3  0  0  0  0  0  0
  186.1610  178.9450  146.1540 C   0  0  2  0  0  3  0  0  0  0  0  0
  185.6770  177.5370  144.2840 O   0  0  0  0  0  0  0  0  0  0  0  0
  190.3100  176.8670  146.5150 C   0  0  0  0  0  2  0  0  0  0  0  0
  188.0010  177.9360  144.7980 C   0  0  1  0  0  3  0  0  0  0  0  0
  190.0640  178.1010  145.6770 C   0  0  2  0  0  0  0  0  0  0  0  0
  188.7810  178.6650  145.7220 O   0  0  0  0  0  0  0  0  0  0  0  0
  190.0850  176.7620  145.0050 C   0  0  2  0  0  0  0  0  0  0  0  0
  191.1480  178.9520  145.4580 O   0  0  0  0  0  1  0  0  0  0  0  0
  188.6650  176.5910  144.5170 C   0  0  2  0  0  3  0  0  0  0  0  0
  188.5660  176.2570  143.0610 C   0  0  0  0  0  0  0  0  0  0  0  0
  188.7970  174.9610  142.6140 O   0  0  0  0  0  1  0  0  0  0  0  0
  188.2780  177.1620  142.2360 O   0  0  0  0  0  0  0  0  0  0  0  0
  191.3140  176.4970  144.1380 C   0  0  0  0  0  2  0  0  0  0  0  0
  191.5740  177.6070  143.3340 O   0  0  0  0  0  0  0  0  0  0  0  0
  191.8060  177.0720  142.0680 C   0  0  0  0  0  1  0  0  0  0  0  0
  185.3890  179.6480  142.7360 S   0  0  0  0  0  0  0  0  0  0  0  0
  185.3660  178.6200  141.4950 C   0  0  0  0  0  2  0  0  0  0  0  0
  185.7760  179.0810  140.1400 C   0  0  0  0  0  2  0  0  0  0  0  0
  184.7280  179.7850  139.5510 O   0  0  0  0  0  1  0  0  0  0  0  0
  2  1  1  1  0  0  0
  2 29  1  0  0  0  0
  3  2  1  0  0  0  0
  4 11  1  0  0  0  0
  4 15  1  0  0  0  0
  6  5  1  0  0  0  0
  7  5  1  6  0  0  0
  7 10  1  0  0  0  0
  8  9  1  0  0  0  0
  9  6  1  0  0  0  0
 10  3  1  1  0  0  0
 11 25  1  6  0  0  0
 11 15  1  0  0  0  0
 12 21  1  1  0  0  0
 12 13  1  0  0  0  0
 12 15  1  0  0  0  0
 13  8  1  1  0  0  0
 13  7  1  0  0  0  0
 14 10  1  0  0  0  0
 15 14  1  1  0  0  0
 16 20  2  0  0  0  0
 16 21  1  0  0  0  0
 17 22  1  0  0  0  0
 17 19  2  0  0  0  0
 18 19  1  0  0  0  0
 20 17  1  0  0  0  0
 21 18  2  0  0  0  0
 22 23  1  0  0  0  0
 24 22  1  0  0  0  0
 25 26  1  0  0  0  0
 26 27  1  0  0  0  0
 28 27  1  0  0  0  0
 29 30  1  0  0  0  0
 30 31  1  0  0  0  0
 31 32  1  0  0  0  0
 34 32  1  6  0  0  0
 34 38  1  0  0  0  0
 34 35  1  0  0  0  0
 35 37  1  0  0  0  0
 35 33  1  1  0  0  0
 36 38  1  6  0  0  0
 36 37  1  0  0  0  0
 37 33  1  1  0  0  0
 40 36  1  0  0  0  0
 40 42  1  1  0  0  0
 41 44  1  6  0  0  0
 41 42  1  0  0  0  0
 41 39  1  0  0  0  0
 43 49  1  6  0  0  0
 43 41  1  0  0  0  0
 43 39  1  0  0  0  0
 45 46  1  6  0  0  0
 45 40  1  0  0  0  0
 45 43  1  0  0  0  0
 47 46  1  0  0  0  0
 48 46  2  0  0  0  0
 50 49  1  0  0  0  0
 51 50  1  0  0  0  0
 52 34  1  0  0  0  0
 53 52  1  0  0  0  0
 54 53  1  0  0  0  0
 55 54  1  0  0  0  0
M  END
>  <MODEL>
5

>  <REMARK>
 VINA RESULT:      -5.7      2.846      6.618
  Name = 
  18 active torsions:
  status: ('A' for Active; 'I' for Inactive)
    1  A    between atoms: C_1  and  C_53
    2  A    between atoms: C_4  and  C_35
    3  A    between atoms: C_4  and  O_37
    4  A    between atoms: C_6  and  C_22
    5  A    between atoms: C_8  and  C_43
    6  A    between atoms: C_8  and  S_51
    7  A    between atoms: N_10  and  C_32
    8  A    between atoms: O_11  and  C_29
    9  A    between atoms: S_19  and  C_26
   10  A    between atoms: S_19  and  C_40
   11  A    between atoms: C_24  and  C_44
   12  A    between atoms: C_27  and  C_54
   13  A    between atoms: C_28  and  C_31
   14  A    between atoms: C_29  and  C_38
   15  A    between atoms: C_31  and  C_44
   16  A    between atoms: C_33  and  C_52
   17  A    between atoms: C_35  and  C_43
   18  A    between atoms: O_37  and  C_40
                            x       y       z     vdW  Elec       q    Type
                         _______ _______ _______ _____ _____    ______ ____

>  <TORSDO>
F 18

$$$$
=
 OpenBabel10262420183D

 55 62  0  0  1  0  0  0  0  0999 V2000
  186.0160  175.6360  135.1040 C   0  0  0  0  0  1  0  0  0  0  0  0
  185.6950  177.0420  135.5630 C   0  0  1  0  0  3  0  0  0  0  0  0
  184.5140  176.9700  136.9440 S   0  0  0  0  0  0  0  0  0  0  0  0
  180.2300  175.9150  135.1480 O   0  0  0  0  0  0  0  0  0  0  0  0
  184.3220  173.3580  137.6480 C   0  0  0  0  0  2  0  0  0  0  0  0
  183.9310  172.2260  136.7000 C   0  0  0  0  0  2  0  0  0  0  0  0
  183.3590  174.5380  137.5230 C   0  0  1  0  0  3  0  0  0  0  0  0
  181.6960  173.0760  136.5030 O   0  0  0  0  0  0  0  0  0  0  0  0
  182.4410  171.9380  136.8600 C   0  0  0  0  0  2  0  0  0  0  0  0
  183.7420  175.4390  136.3340 C   0  0  1  0  0  3  0  0  0  0  0  0
  180.4790  177.2170  135.6110 C   0  0  2  0  0  3  0  0  0  0  0  0
  180.9150  175.1980  137.3330 C   0  0  2  0  0  3  0  0  0  0  0  0
  181.8940  174.0350  137.5190 C   0  0  2  0  0  3  0  0  0  0  0  0
  182.5910  175.7580  135.3740 C   0  0  0  0  0  2  0  0  0  0  0  0
  181.2690  176.0420  136.0880 C   0  0  1  0  0  0  0  0  0  0  0  0
  179.6220  175.8420  139.3720 C   0  0  0  0  0  3  0  0  0  0  0  0
  180.4880  177.4180  141.0090 C   0  0  0  0  0  0  0  0  0  0  0  0
  181.7960  176.8510  139.0440 C   0  0  0  0  0  3  0  0  0  0  0  0
  181.6490  177.5610  140.2360 C   0  0  0  0  0  3  0  0  0  0  0  0
  179.4750  176.5520  140.5650 C   0  0  0  0  0  3  0  0  0  0  0  0
  180.7800  175.9910  138.6030 C   0  0  0  0  0  0  0  0  0  0  0  0
  180.3480  178.1430  142.2390 N   0  0  0  0  0  0  0  0  0  0  0  0
  179.4120  177.7720  143.1470 O   0  0  0  0  0  1  0  0  0  0  0  0
  181.1030  179.3610  142.4880 C   0  0  0  0  0  1  0  0  0  0  0  0
  179.3480  177.6380  136.5320 C   0  0  0  0  0  2  0  0  0  0  0  0
  179.2670  179.1510  136.5830 C   0  0  0  0  0  2  0  0  0  0  0  0
  180.5970  179.7240  137.0370 C   0  0  0  0  0  2  0  0  0  0  0  0
  180.6090  181.1070  136.8470 O   0  0  0  0  0  1  0  0  0  0  0  0
  186.8680  177.6740  135.9800 O   0  0  0  0  0  0  0  0  0  0  0  0
  187.8650  176.7080  135.8280 C   0  0  0  0  0  2  0  0  0  0  0  0
  189.0700  177.0680  136.6820 C   0  0  0  0  0  2  0  0  0  0  0  0
  189.0570  176.3120  138.0080 C   0  0  0  0  0  2  0  0  0  0  0  0
  187.6620  178.4020  139.5810 O   0  0  0  0  0  0  0  0  0  0  0  0
  189.6620  177.1240  139.1590 C   0  0  1  0  0  0  0  0  0  0  0  0
  189.0150  178.4970  139.2000 C   0  0  2  0  0  3  0  0  0  0  0  0
  188.9700  177.4100  141.3070 C   0  0  1  0  0  3  0  0  0  0  0  0
  188.5970  178.6880  140.5900 C   0  0  2  0  0  3  0  0  0  0  0  0
  189.4350  176.4600  140.3790 O   0  0  0  0  0  0  0  0  0  0  0  0
  189.0500  178.1750  145.2360 C   0  0  0  0  0  2  0  0  0  0  0  0
  190.0340  177.6840  142.3700 C   0  0  1  0  0  3  0  0  0  0  0  0
  190.1150  178.7640  144.3410 C   0  0  2  0  0  0  0  0  0  0  0  0
  189.7980  178.9330  142.9850 O   0  0  0  0  0  0  0  0  0  0  0  0
  190.2190  177.3230  144.7370 C   0  0  2  0  0  0  0  0  0  0  0  0
  191.0140  179.6600  144.9210 O   0  0  0  0  0  1  0  0  0  0  0  0
  190.0420  176.5860  143.4290 C   0  0  2  0  0  3  0  0  0  0  0  0
  191.1310  175.5970  143.1450 C   0  0  0  0  0  0  0  0  0  0  0  0
  190.9520  174.2470  143.4260 O   0  0  0  0  0  1  0  0  0  0  0  0
  192.2170  175.9970  142.6530 O   0  0  0  0  0  0  0  0  0  0  0  0
  191.3260  177.0090  145.7400 C   0  0  0  0  0  2  0  0  0  0  0  0
  190.8150  176.2360  146.7820 O   0  0  0  0  0  0  0  0  0  0  0  0
  191.8760  176.1130  147.6770 C   0  0  0  0  0  1  0  0  0  0  0  0
  191.4520  177.3290  138.9250 S   0  0  0  0  0  0  0  0  0  0  0  0
  191.9330  176.0380  138.0870 C   0  0  0  0  0  2  0  0  0  0  0  0
  193.3710  175.8680  137.7430 C   0  0  0  0  0  2  0  0  0  0  0  0
  193.6740  174.5100  137.6690 O   0  0  0  0  0  1  0  0  0  0  0  0
  2  1  1  1  0  0  0
  2 29  1  0  0  0  0
  2  3  1  0  0  0  0
  4 11  1  0  0  0  0
  4 15  1  0  0  0  0
  6  9  1  0  0  0  0
  6  5  1  0  0  0  0
  7  5  1  6  0  0  0
  8  9  1  0  0  0  0
 10  3  1  1  0  0  0
 10  7  1  0  0  0  0
 11 15  1  0  0  0  0
 11 25  1  1  0  0  0
 12 13  1  0  0  0  0
 12 21  1  1  0  0  0
 13  8  1  6  0  0  0
 13  7  1  0  0  0  0
 14 10  1  0  0  0  0
 15 14  1  6  0  0  0
 15 12  1  0  0  0  0
 16 20  1  0  0  0  0
 17 22  1  0  0  0  0
 18 19  2  0  0  0  0
 19 17  1  0  0  0  0
 20 17  2  0  0  0  0
 21 18  1  0  0  0  0
 21 16  2  0  0  0  0
 22 24  1  0  0  0  0
 22 23  1  0  0  0  0
 25 26  1  0  0  0  0
 26 27  1  0  0  0  0
 28 27  1  0  0  0  0
 30 29  1  0  0  0  0
 30 31  1  0  0  0  0
 31 32  1  0  0  0  0
 34 32  1  6  0  0  0
 34 35  1  0  0  0  0
 34 38  1  0  0  0  0
 35 33  1  6  0  0  0
 35 37  1  0  0  0  0
 36 38  1  6  0  0  0
 36 40  1  0  0  0  0
 37 33  1  6  0  0  0
 37 36  1  0  0  0  0
 40 42  1  1  0  0  0
 40 45  1  0  0  0  0
 41 43  1  0  0  0  0
 41 44  1  1  0  0  0
 41 39  1  0  0  0  0
 42 41  1  0  0  0  0
 43 39  1  0  0  0  0
 43 49  1  1  0  0  0
 45 46  1  6  0  0  0
 45 43  1  0  0  0  0
 46 47  1  0  0  0  0
 48 46  2  0  0  0  0
 49 50  1  0  0  0  0
 50 51  1  0  0  0  0
 52 34  1  0  0  0  0
 53 52  1  0  0  0  0
 54 53  1  0  0  0  0
 55 54  1  0  0  0  0
M  END
>  <MODEL>
6

>  <REMARK>
 VINA RESULT:      -5.5      2.003      2.944
  Name = 
  18 active torsions:
  status: ('A' for Active; 'I' for Inactive)
    1  A    between atoms: C_1  and  C_53
    2  A    between atoms: C_4  and  C_35
    3  A    between atoms: C_4  and  O_37
    4  A    between atoms: C_6  and  C_22
    5  A    between atoms: C_8  and  C_43
    6  A    between atoms: C_8  and  S_51
    7  A    between atoms: N_10  and  C_32
    8  A    between atoms: O_11  and  C_29
    9  A    between atoms: S_19  and  C_26
   10  A    between atoms: S_19  and  C_40
   11  A    between atoms: C_24  and  C_44
   12  A    between atoms: C_27  and  C_54
   13  A    between atoms: C_28  and  C_31
   14  A    between atoms: C_29  and  C_38
   15  A    between atoms: C_31  and  C_44
   16  A    between atoms: C_33  and  C_52
   17  A    between atoms: C_35  and  C_43
   18  A    between atoms: O_37  and  C_40
                            x       y       z     vdW  Elec       q    Type
                         _______ _______ _______ _____ _____    ______ ____

>  <TORSDO>
F 18

$$$$
=
 OpenBabel10262420183D

 55 62  0  0  1  0  0  0  0  0999 V2000
  187.2740  176.0990  135.0840 C   0  0  0  0  0  1  0  0  0  0  0  0
  187.2280  177.5190  135.6060 C   0  0  1  0  0  3  0  0  0  0  0  0
  185.8160  177.7000  136.7360 S   0  0  0  0  0  0  0  0  0  0  0  0
  181.5040  176.9700  134.8450 O   0  0  0  0  0  0  0  0  0  0  0  0
  185.3940  174.0860  137.3120 C   0  0  0  0  0  2  0  0  0  0  0  0
  184.9500  173.0120  136.3210 C   0  0  0  0  0  2  0  0  0  0  0  0
  184.5060  175.3260  137.2140 C   0  0  1  0  0  3  0  0  0  0  0  0
  182.7750  174.0030  136.1210 O   0  0  0  0  0  0  0  0  0  0  0  0
  183.4430  172.8100  136.4490 C   0  0  0  0  0  2  0  0  0  0  0  0
  184.9620  176.2410  136.0630 C   0  0  1  0  0  3  0  0  0  0  0  0
  181.8240  178.2380  135.3560 C   0  0  2  0  0  3  0  0  0  0  0  0
  182.1100  176.1390  137.0130 C   0  0  2  0  0  3  0  0  0  0  0  0
  183.0140  174.9130  137.1720 C   0  0  2  0  0  3  0  0  0  0  0  0
  183.8480  176.6620  135.0980 C   0  0  0  0  0  2  0  0  0  0  0  0
  182.5340  177.0010  135.8030 C   0  0  1  0  0  0  0  0  0  0  0  0
  180.8490  176.7480  139.0820 C   0  0  0  0  0  3  0  0  0  0  0  0
  181.7620  178.2540  140.7580 C   0  0  0  0  0  0  0  0  0  0  0  0
  183.0400  177.7210  138.7650 C   0  0  0  0  0  3  0  0  0  0  0  0
  182.9190  178.3970  139.9800 C   0  0  0  0  0  3  0  0  0  0  0  0
  180.7270  177.4230  140.2980 C   0  0  0  0  0  3  0  0  0  0  0  0
  182.0030  176.8960  138.3080 C   0  0  0  0  0  0  0  0  0  0  0  0
  181.6480  178.9450  142.0110 N   0  0  0  0  0  0  0  0  0  0  0  0
  180.5250  179.6460  142.3050 O   0  0  0  0  0  1  0  0  0  0  0  0
  182.7700  179.0240  142.9340 C   0  0  0  0  0  1  0  0  0  0  0  0
  180.7060  178.6960  136.2750 C   0  0  0  0  0  2  0  0  0  0  0  0
  180.8040  180.1930  136.4920 C   0  0  0  0  0  2  0  0  0  0  0  0
  180.3550  180.9270  135.2420 C   0  0  0  0  0  2  0  0  0  0  0  0
  180.3160  182.3010  135.4850 O   0  0  0  0  0  1  0  0  0  0  0  0
  188.4140  177.8040  136.2850 O   0  0  0  0  0  0  0  0  0  0  0  0
  188.6040  176.7140  137.1380 C   0  0  0  0  0  2  0  0  0  0  0  0
  189.6930  177.0330  138.1510 C   0  0  0  0  0  2  0  0  0  0  0  0
  189.4300  176.3420  139.4850 C   0  0  0  0  0  2  0  0  0  0  0  0
  187.1300  178.1870  139.7950 O   0  0  0  0  0  0  0  0  0  0  0  0
  189.2230  177.3340  140.6360 C   0  0  1  0  0  0  0  0  0  0  0  0
  188.4530  178.5400  140.1270 C   0  0  2  0  0  3  0  0  0  0  0  0
  187.4830  177.6040  142.0770 C   0  0  1  0  0  3  0  0  0  0  0  0
  187.3530  178.7270  141.0730 C   0  0  2  0  0  3  0  0  0  0  0  0
  188.4970  176.7160  141.6710 O   0  0  0  0  0  0  0  0  0  0  0  0
  186.3990  176.8090  145.8480 C   0  0  0  0  0  2  0  0  0  0  0  0
  187.7880  178.1610  143.4670 C   0  0  1  0  0  3  0  0  0  0  0  0
  186.7330  178.2290  145.4520 C   0  0  2  0  0  0  0  0  0  0  0  0
  186.5940  178.5720  144.1000 O   0  0  0  0  0  0  0  0  0  0  0  0
  187.8520  177.2620  145.6930 C   0  0  2  0  0  0  0  0  0  0  0  0
  186.5220  179.2240  146.4070 O   0  0  0  0  0  1  0  0  0  0  0  0
  188.4910  177.1180  144.3310 C   0  0  2  0  0  3  0  0  0  0  0  0
  189.9700  177.3570  144.3330 C   0  0  0  0  0  0  0  0  0  0  0  0
  190.4790  178.6400  144.4990 O   0  0  0  0  0  1  0  0  0  0  0  0
  190.7550  176.3870  144.1760 O   0  0  0  0  0  0  0  0  0  0  0  0
  188.6440  177.5010  146.9770 C   0  0  0  0  0  2  0  0  0  0  0  0
  188.0290  176.8440  148.0410 O   0  0  0  0  0  0  0  0  0  0  0  0
  187.9630  177.8030  149.0510 C   0  0  0  0  0  1  0  0  0  0  0  0
  190.8220  177.8950  141.2920 S   0  0  0  0  0  0  0  0  0  0  0  0
  191.9380  177.2690  140.3120 C   0  0  0  0  0  2  0  0  0  0  0  0
  193.3820  177.5080  140.5810 C   0  0  0  0  0  2  0  0  0  0  0  0
  194.1260  177.1900  139.4470 O   0  0  0  0  0  1  0  0  0  0  0  0
  2  1  1  1  0  0  0
  2 29  1  0  0  0  0
  2  3  1  0  0  0  0
  4 11  1  0  0  0  0
  4 15  1  0  0  0  0
  6  9  1  0  0  0  0
  6  5  1  0  0  0  0
  7  5  1  6  0  0  0
  8  9  1  0  0  0  0
 10  3  1  1  0  0  0
 10  7  1  0  0  0  0
 11 15  1  0  0  0  0
 11 25  1  1  0  0  0
 12 13  1  0  0  0  0
 12 21  1  1  0  0  0
 13  8  1  6  0  0  0
 13  7  1  0  0  0  0
 14 10  1  0  0  0  0
 15 14  1  6  0  0  0
 15 12  1  0  0  0  0
 16 20  1  0  0  0  0
 17 22  1  0  0  0  0
 18 19  2  0  0  0  0
 19 17  1  0  0  0  0
 20 17  2  0  0  0  0
 21 18  1  0  0  0  0
 21 16  2  0  0  0  0
 22 23  1  0  0  0  0
 22 24  1  0  0  0  0
 25 26  1  0  0  0  0
 27 28  1  0  0  0  0
 27 26  1  0  0  0  0
 29 30  1  0  0  0  0
 30 31  1  0  0  0  0
 31 32  1  0  0  0  0
 34 32  1  6  0  0  0
 34 52  1  0  0  0  0
 34 38  1  0  0  0  0
 35 33  1  6  0  0  0
 35 34  1  0  0  0  0
 35 37  1  0  0  0  0
 36 38  1  6  0  0  0
 36 40  1  0  0  0  0
 37 33  1  6  0  0  0
 37 36  1  0  0  0  0
 40 42  1  1  0  0  0
 40 45  1  0  0  0  0
 41 43  1  0  0  0  0
 41 39  1  0  0  0  0
 41 44  1  1  0  0  0
 42 41  1  0  0  0  0
 43 39  1  0  0  0  0
 43 49  1  1  0  0  0
 45 46  1  1  0  0  0
 45 43  1  0  0  0  0
 46 47  1  0  0  0  0
 48 46  2  0  0  0  0
 49 50  1  0  0  0  0
 50 51  1  0  0  0  0
 53 54  1  0  0  0  0
 53 52  1  0  0  0  0
 55 54  1  0  0  0  0
M  END
>  <MODEL>
7

>  <REMARK>
 VINA RESULT:      -5.2      2.081      3.332
  Name = 
  18 active torsions:
  status: ('A' for Active; 'I' for Inactive)
    1  A    between atoms: C_1  and  C_53
    2  A    between atoms: C_4  and  C_35
    3  A    between atoms: C_4  and  O_37
    4  A    between atoms: C_6  and  C_22
    5  A    between atoms: C_8  and  C_43
    6  A    between atoms: C_8  and  S_51
    7  A    between atoms: N_10  and  C_32
    8  A    between atoms: O_11  and  C_29
    9  A    between atoms: S_19  and  C_26
   10  A    between atoms: S_19  and  C_40
   11  A    between atoms: C_24  and  C_44
   12  A    between atoms: C_27  and  C_54
   13  A    between atoms: C_28  and  C_31
   14  A    between atoms: C_29  and  C_38
   15  A    between atoms: C_31  and  C_44
   16  A    between atoms: C_33  and  C_52
   17  A    between atoms: C_35  and  C_43
   18  A    between atoms: O_37  and  C_40
                            x       y       z     vdW  Elec       q    Type
                         _______ _______ _______ _____ _____    ______ ____

>  <TORSDO>
F 18

$$$$
=
 OpenBabel10262420183D

 55 62  0  0  1  0  0  0  0  0999 V2000
  181.8880  179.6430  140.3010 C   0  0  0  0  0  1  0  0  0  0  0  0
  181.2890  178.2540  140.3430 C   0  0  1  0  0  3  0  0  0  0  0  0
  182.4190  177.0860  139.5280 S   0  0  0  0  0  0  0  0  0  0  0  0
  182.1500  174.0900  135.8330 O   0  0  0  0  0  0  0  0  0  0  0  0
  181.0930  179.3110  136.9070 C   0  0  0  0  0  2  0  0  0  0  0  0
  179.9250  179.0650  135.9540 C   0  0  0  0  0  2  0  0  0  0  0  0
  182.0000  178.0830  136.9960 C   0  0  1  0  0  3  0  0  0  0  0  0
  181.0900  177.2570  134.8910 O   0  0  0  0  0  0  0  0  0  0  0  0
  180.4640  178.4930  134.6460 C   0  0  0  0  0  2  0  0  0  0  0  0
  181.4390  177.0540  137.9950 C   0  0  1  0  0  3  0  0  0  0  0  0
  183.0980  173.8530  136.8420 C   0  0  2  0  0  3  0  0  0  0  0  0
  183.1490  176.2640  135.6500 C   0  0  2  0  0  3  0  0  0  0  0  0
  182.2900  177.5310  135.5790 C   0  0  2  0  0  3  0  0  0  0  0  0
  181.3280  175.6260  137.4510 C   0  0  0  0  0  2  0  0  0  0  0  0
  182.5260  175.2120  136.5950 C   0  0  1  0  0  0  0  0  0  0  0  0
  185.3810  177.1320  134.9410 C   0  0  0  0  0  3  0  0  0  0  0  0
  187.2550  177.2980  136.4820 C   0  0  0  0  0  0  0  0  0  0  0  0
  185.1190  176.4290  137.2400 C   0  0  0  0  0  3  0  0  0  0  0  0
  186.4460  176.7720  137.4990 C   0  0  0  0  0  3  0  0  0  0  0  0
  186.7100  177.4740  135.1990 C   0  0  0  0  0  3  0  0  0  0  0  0
  184.5800  176.6050  135.9570 C   0  0  0  0  0  0  0  0  0  0  0  0
  188.6160  177.6570  136.7580 N   0  0  0  0  0  0  0  0  0  0  0  0
  189.5810  176.7040  136.7830 O   0  0  0  0  0  1  0  0  0  0  0  0
  188.9770  179.0120  137.1460 C   0  0  0  0  0  1  0  0  0  0  0  0
  184.4510  173.6070  136.1990 C   0  0  0  0  0  2  0  0  0  0  0  0
  184.6770  172.1180  136.0370 C   0  0  0  0  0  2  0  0  0  0  0  0
  186.1530  171.8390  135.8220 C   0  0  0  0  0  2  0  0  0  0  0  0
  186.9170  172.6290  136.6820 O   0  0  0  0  0  1  0  0  0  0  0  0
  181.0960  177.8710  141.6720 O   0  0  0  0  0  0  0  0  0  0  0  0
  181.6680  178.9000  142.4240 C   0  0  0  0  0  2  0  0  0  0  0  0
  182.6060  178.3160  143.4690 C   0  0  0  0  0  2  0  0  0  0  0  0
  183.4080  179.4090  144.1690 C   0  0  0  0  0  2  0  0  0  0  0  0
  184.8130  179.3710  146.7780 O   0  0  0  0  0  0  0  0  0  0  0  0
  184.8730  179.0180  144.3940 C   0  0  1  0  0  0  0  0  0  0  0  0
  185.4220  179.7910  145.5800 C   0  0  2  0  0  3  0  0  0  0  0  0
  185.8060  177.4600  145.7630 C   0  0  1  0  0  3  0  0  0  0  0  0
  186.0470  178.7890  146.4430 C   0  0  2  0  0  3  0  0  0  0  0  0
  184.9620  177.6380  144.6510 O   0  0  0  0  0  0  0  0  0  0  0  0
  188.5480  178.0870  142.9140 C   0  0  0  0  0  2  0  0  0  0  0  0
  187.1320  176.8320  145.3310 C   0  0  1  0  0  3  0  0  0  0  0  0
  188.3070  176.6830  143.4190 C   0  0  2  0  0  0  0  0  0  0  0  0
  187.0540  176.4080  143.9860 O   0  0  0  0  0  0  0  0  0  0  0  0
  189.1260  177.6210  144.2520 C   0  0  2  0  0  0  0  0  0  0  0  0
  188.9740  175.6460  142.7680 O   0  0  0  0  0  1  0  0  0  0  0  0
  188.2820  177.8210  145.4900 C   0  0  2  0  0  3  0  0  0  0  0  0
  189.0180  177.5620  146.7680 C   0  0  0  0  0  0  0  0  0  0  0  0
  189.3680  176.2660  147.1330 O   0  0  0  0  0  0  0  0  0  0  0  0
  189.3160  178.5260  147.5190 O   0  0  0  0  0  1  0  0  0  0  0  0
  190.6210  177.3090  144.2910 C   0  0  0  0  0  2  0  0  0  0  0  0
  191.0480  176.8880  143.0320 O   0  0  0  0  0  0  0  0  0  0  0  0
  192.0450  177.7980  142.6820 C   0  0  0  0  0  1  0  0  0  0  0  0
  185.8720  179.4090  142.9280 S   0  0  0  0  0  0  0  0  0  0  0  0
  185.2200  178.5660  141.7180 C   0  0  0  0  0  2  0  0  0  0  0  0
  185.8200  178.6300  140.3580 C   0  0  0  0  0  2  0  0  0  0  0  0
  185.1170  179.5490  139.5810 O   0  0  0  0  0  1  0  0  0  0  0  0
  2  1  1  1  0  0  0
  2 29  1  0  0  0  0
  3  2  1  0  0  0  0
  4 15  1  0  0  0  0
  4 11  1  0  0  0  0
  6  5  1  0  0  0  0
  7  5  1  6  0  0  0
  7 10  1  0  0  0  0
  9  8  1  0  0  0  0
  9  6  1  0  0  0  0
 10  3  1  1  0  0  0
 11 25  1  6  0  0  0
 12 21  1  1  0  0  0
 12 15  1  0  0  0  0
 13  8  1  1  0  0  0
 13 12  1  0  0  0  0
 13  7  1  0  0  0  0
 14 10  1  0  0  0  0
 15 11  1  0  0  0  0
 15 14  1  1  0  0  0
 16 20  2  0  0  0  0
 16 21  1  0  0  0  0
 17 22  1  0  0  0  0
 17 19  2  0  0  0  0
 18 19  1  0  0  0  0
 20 17  1  0  0  0  0
 21 18  2  0  0  0  0
 22 23  1  0  0  0  0
 22 24  1  0  0  0  0
 26 25  1  0  0  0  0
 27 26  1  0  0  0  0
 27 28  1  0  0  0  0
 29 30  1  0  0  0  0
 30 31  1  0  0  0  0
 31 32  1  0  0  0  0
 34 32  1  6  0  0  0
 34 38  1  0  0  0  0
 34 35  1  0  0  0  0
 35 37  1  0  0  0  0
 35 33  1  1  0  0  0
 36 38  1  6  0  0  0
 36 37  1  0  0  0  0
 37 33  1  1  0  0  0
 39 41  1  0  0  0  0
 39 43  1  0  0  0  0
 40 42  1  6  0  0  0
 40 45  1  0  0  0  0
 40 36  1  0  0  0  0
 41 44  1  6  0  0  0
 41 42  1  0  0  0  0
 41 43  1  0  0  0  0
 43 49  1  1  0  0  0
 43 45  1  0  0  0  0
 45 46  1  1  0  0  0
 46 47  2  0  0  0  0
 46 48  1  0  0  0  0
 50 49  1  0  0  0  0
 51 50  1  0  0  0  0
 52 34  1  0  0  0  0
 53 52  1  0  0  0  0
 54 53  1  0  0  0  0
 55 54  1  0  0  0  0
M  END
>  <MODEL>
8

>  <REMARK>
 VINA RESULT:      -4.9      2.759      6.797
  Name = 
  18 active torsions:
  status: ('A' for Active; 'I' for Inactive)
    1  A    between atoms: C_1  and  C_53
    2  A    between atoms: C_4  and  C_35
    3  A    between atoms: C_4  and  O_37
    4  A    between atoms: C_6  and  C_22
    5  A    between atoms: C_8  and  C_43
    6  A    between atoms: C_8  and  S_51
    7  A    between atoms: N_10  and  C_32
    8  A    between atoms: O_11  and  C_29
    9  A    between atoms: S_19  and  C_26
   10  A    between atoms: S_19  and  C_40
   11  A    between atoms: C_24  and  C_44
   12  A    between atoms: C_27  and  C_54
   13  A    between atoms: C_28  and  C_31
   14  A    between atoms: C_29  and  C_38
   15  A    between atoms: C_31  and  C_44
   16  A    between atoms: C_33  and  C_52
   17  A    between atoms: C_35  and  C_43
   18  A    between atoms: O_37  and  C_40
                            x       y       z     vdW  Elec       q    Type
                         _______ _______ _______ _____ _____    ______ ____

>  <TORSDO>
F 18

$$$$
=
 OpenBabel10262420183D

 55 62  0  0  1  0  0  0  0  0999 V2000
  180.4470  179.6340  141.2710 C   0  0  0  0  0  1  0  0  0  0  0  0
  181.0750  178.2580  141.2770 C   0  0  1  0  0  3  0  0  0  0  0  0
  182.2360  178.1180  139.8850 S   0  0  0  0  0  0  0  0  0  0  0  0
  180.1430  174.8840  137.0820 O   0  0  0  0  0  0  0  0  0  0  0  0
  180.9300  180.2600  137.1860 C   0  0  0  0  0  2  0  0  0  0  0  0
  179.5280  180.2770  136.5820 C   0  0  0  0  0  2  0  0  0  0  0  0
  181.4440  178.8290  137.3450 C   0  0  1  0  0  3  0  0  0  0  0  0
  179.8020  178.0570  135.7170 O   0  0  0  0  0  0  0  0  0  0  0  0
  179.5080  179.3810  135.3470 C   0  0  0  0  0  2  0  0  0  0  0  0
  180.9090  178.1930  138.6420 C   0  0  1  0  0  3  0  0  0  0  0  0
  181.2230  174.4960  137.8910 C   0  0  2  0  0  3  0  0  0  0  0  0
  181.6240  176.5620  136.2170 C   0  0  2  0  0  3  0  0  0  0  0  0
  181.1710  178.0170  136.0550 C   0  0  2  0  0  3  0  0  0  0  0  0
  180.2580  176.8170  138.4610 C   0  0  0  0  0  2  0  0  0  0  0  0
  181.0110  175.9170  137.4810 C   0  0  1  0  0  0  0  0  0  0  0  0
  183.7590  176.8720  134.9580 C   0  0  0  0  0  3  0  0  0  0  0  0
  185.9220  176.3170  135.9190 C   0  0  0  0  0  0  0  0  0  0  0  0
  183.8880  175.9740  137.1990 C   0  0  0  0  0  3  0  0  0  0  0  0
  185.2780  175.9030  137.0940 C   0  0  0  0  0  3  0  0  0  0  0  0
  185.1490  176.8010  134.8510 C   0  0  0  0  0  3  0  0  0  0  0  0
  183.1210  176.4560  136.1290 C   0  0  0  0  0  0  0  0  0  0  0  0
  187.3520  176.2510  135.8220 N   0  0  0  0  0  0  0  0  0  0  0  0
  188.0320  175.2510  136.4360 O   0  0  0  0  0  1  0  0  0  0  0  0
  188.1160  177.3120  135.1840 C   0  0  0  0  0  1  0  0  0  0  0  0
  182.2250  173.7320  137.0440 C   0  0  0  0  0  2  0  0  0  0  0  0
  181.5660  172.4980  136.4620 C   0  0  0  0  0  2  0  0  0  0  0  0
  180.8500  171.7290  137.5570 C   0  0  0  0  0  2  0  0  0  0  0  0
  179.6890  171.1450  137.0480 O   0  0  0  0  0  1  0  0  0  0  0  0
  181.7580  178.0630  142.4800 O   0  0  0  0  0  0  0  0  0  0  0  0
  181.8700  179.3400  143.0340 C   0  0  0  0  0  2  0  0  0  0  0  0
  183.3160  179.6140  143.4140 C   0  0  0  0  0  2  0  0  0  0  0  0
  184.2720  178.6980  142.6560 C   0  0  0  0  0  2  0  0  0  0  0  0
  184.7530  178.9430  145.5700 O   0  0  0  0  0  0  0  0  0  0  0  0
  185.6260  178.5400  143.3590 C   0  0  1  0  0  0  0  0  0  0  0  0
  185.6530  179.4190  144.5970 C   0  0  2  0  0  3  0  0  0  0  0  0
  186.2700  177.1790  145.0640 C   0  0  1  0  0  3  0  0  0  0  0  0
  186.0970  178.5460  145.6850 C   0  0  2  0  0  3  0  0  0  0  0  0
  185.8130  177.1970  143.7330 O   0  0  0  0  0  0  0  0  0  0  0  0
  189.7410  178.4150  143.4980 C   0  0  0  0  0  2  0  0  0  0  0  0
  187.7360  176.7480  145.1180 C   0  0  1  0  0  3  0  0  0  0  0  0
  189.5330  176.9440  143.7800 C   0  0  2  0  0  0  0  0  0  0  0  0
  188.2120  176.4750  143.8170 O   0  0  0  0  0  0  0  0  0  0  0  0
  189.8540  177.8630  144.9200 C   0  0  2  0  0  0  0  0  0  0  0  0
  190.5310  176.0650  143.3580 O   0  0  0  0  0  1  0  0  0  0  0  0
  188.5990  177.8300  145.7620 C   0  0  2  0  0  3  0  0  0  0  0  0
  188.8500  177.5050  147.2020 C   0  0  0  0  0  0  0  0  0  0  0  0
  189.6450  178.3340  147.9860 O   0  0  0  0  0  1  0  0  0  0  0  0
  188.3400  176.4700  147.7020 O   0  0  0  0  0  0  0  0  0  0  0  0
  191.2600  177.7090  145.4950 C   0  0  0  0  0  2  0  0  0  0  0  0
  191.6500  176.3720  145.4380 O   0  0  0  0  0  0  0  0  0  0  0  0
  191.9650  176.0450  146.7560 C   0  0  0  0  0  1  0  0  0  0  0  0
  186.9810  179.0400  142.2570 S   0  0  0  0  0  0  0  0  0  0  0  0
  186.9480  177.9990  141.0260 C   0  0  0  0  0  2  0  0  0  0  0  0
  187.9590  178.1010  139.9380 C   0  0  0  0  0  2  0  0  0  0  0  0
  187.3620  178.6320  138.7970 O   0  0  0  0  0  1  0  0  0  0  0  0
  2  1  1  1  0  0  0
  2 29  1  0  0  0  0
  3  2  1  0  0  0  0
  4 15  1  0  0  0  0
  4 11  1  0  0  0  0
  6  5  1  0  0  0  0
  7  5  1  6  0  0  0
  7 10  1  0  0  0  0
  9  8  1  0  0  0  0
  9  6  1  0  0  0  0
 10  3  1  1  0  0  0
 11 25  1  6  0  0  0
 12 21  1  1  0  0  0
 12 15  1  0  0  0  0
 13  8  1  1  0  0  0
 13 12  1  0  0  0  0
 13  7  1  0  0  0  0
 14 10  1  0  0  0  0
 15 11  1  0  0  0  0
 15 14  1  1  0  0  0
 16 21  1  0  0  0  0
 17 19  2  0  0  0  0
 19 18  1  0  0  0  0
 20 16  2  0  0  0  0
 20 17  1  0  0  0  0
 21 18  2  0  0  0  0
 22 17  1  0  0  0  0
 22 23  1  0  0  0  0
 24 22  1  0  0  0  0
 26 25  1  0  0  0  0
 26 27  1  0  0  0  0
 28 27  1  0  0  0  0
 29 30  1  0  0  0  0
 30 31  1  0  0  0  0
 32 31  1  0  0  0  0
 34 32  1  6  0  0  0
 34 38  1  0  0  0  0
 34 35  1  0  0  0  0
 35 33  1  1  0  0  0
 35 37  1  0  0  0  0
 36 38  1  6  0  0  0
 36 40  1  0  0  0  0
 36 37  1  0  0  0  0
 37 33  1  1  0  0  0
 39 41  1  0  0  0  0
 39 43  1  0  0  0  0
 40 42  1  6  0  0  0
 40 45  1  0  0  0  0
 41 44  1  6  0  0  0
 41 42  1  0  0  0  0
 41 43  1  0  0  0  0
 43 49  1  1  0  0  0
 43 45  1  0  0  0  0
 45 46  1  1  0  0  0
 46 48  2  0  0  0  0
 46 47  1  0  0  0  0
 50 49  1  0  0  0  0
 50 51  1  0  0  0  0
 52 34  1  0  0  0  0
 53 52  1  0  0  0  0
 54 53  1  0  0  0  0
 55 54  1  0  0  0  0
M  END
>  <MODEL>
9

>  <REMARK>
 VINA RESULT:      -4.7      2.676      6.369
  Name = 
  18 active torsions:
  status: ('A' for Active; 'I' for Inactive)
    1  A    between atoms: C_1  and  C_53
    2  A    between atoms: C_4  and  C_35
    3  A    between atoms: C_4  and  O_37
    4  A    between atoms: C_6  and  C_22
    5  A    between atoms: C_8  and  C_43
    6  A    between atoms: C_8  and  S_51
    7  A    between atoms: N_10  and  C_32
    8  A    between atoms: O_11  and  C_29
    9  A    between atoms: S_19  and  C_26
   10  A    between atoms: S_19  and  C_40
   11  A    between atoms: C_24  and  C_44
   12  A    between atoms: C_27  and  C_54
   13  A    between atoms: C_28  and  C_31
   14  A    between atoms: C_29  and  C_38
   15  A    between atoms: C_31  and  C_44
   16  A    between atoms: C_33  and  C_52
   17  A    between atoms: C_35  and  C_43
   18  A    between atoms: O_37  and  C_40
                            x       y       z     vdW  Elec       q    Type
                         _______ _______ _______ _____ _____    ______ ____

>  <TORSDO>
F 18

$$$$
