=
 OpenBabel10262422523D

 37 41  0  0  1  0  0  0  0  0999 V2000
  184.6240  179.3970  142.4020 C   0  0  2  0  0  3  0  0  0  0  0  0
  183.2310  178.6400  144.7660 N   0  0  0  0  0  0  0  0  0  0  0  0
  185.1320  178.7350  141.1250 C   0  0  0  0  0  2  0  0  0  0  0  0
  185.3580  178.9220  143.6380 C   0  0  0  0  0  0  0  0  0  0  0  0
  183.8920  178.3320  140.3260 C   0  0  1  0  0  0  0  0  0  0  0  0
  181.1110  178.8270  143.7600 N   0  0  0  0  0  1  0  0  0  0  0  0
  181.5890  179.4580  140.5200 C   0  0  0  0  0  1  0  0  0  0  0  0
  182.5330  178.8740  143.6990 C   0  0  0  0  0  0  0  0  0  0  0  0
  183.1990  179.1080  142.4560 N   0  0  0  0  0  0  0  0  0  0  0  0
  184.6690  178.6030  144.7620 C   0  0  0  0  0  0  0  0  0  0  0  0
  183.0140  177.1720  140.8260 C   0  0  1  0  0  3  0  0  0  0  0  0
  182.6800  178.6260  141.1930 C   0  0  2  0  0  0  0  0  0  0  0  0
  180.6030  176.7040  139.9640 C   0  0  0  0  0  2  0  0  0  0  0  0
  182.1020  176.5910  139.7790 C   0  0  0  0  0  0  0  0  0  0  0  0
  182.6200  175.7960  138.8350 C   0  0  0  0  0  3  0  0  0  0  0  0
  182.2480  174.3830  136.9760 O   0  0  0  0  0  0  0  0  0  0  0  0
  180.3240  175.4670  137.8200 C   0  0  0  0  0  3  0  0  0  0  0  0
  181.7580  175.1580  137.8350 C   0  0  0  0  0  0  0  0  0  0  0  0
  179.7920  176.2120  138.7900 C   0  0  0  0  0  3  0  0  0  0  0  0
  185.3660  178.1770  146.0300 C   0  0  0  0  0  0  0  0  0  0  0  0
  186.2360  179.1660  146.4570 F   0  0  0  0  0  0  0  0  0  0  0  0
  184.4360  177.9500  147.0290 F   0  0  0  0  0  0  0  0  0  0  0  0
  186.0930  177.0220  145.8090 F   0  0  0  0  0  0  0  0  0  0  0  0
  184.5390  179.8390  138.9110 O   0  0  0  0  0  1  0  0  0  0  0  0
  183.7620  178.7770  139.0010 O   0  0  0  0  0  0  0  0  0  0  0  0
  186.8640  178.9270  143.6240 C   0  0  0  0  0  2  0  0  0  0  0  0
  188.2230  176.9540  143.5740 O   0  0  0  0  0  0  0  0  0  0  0  0
  189.1710  176.4010  142.7000 C   0  0  1  0  0  3  0  0  0  0  0  0
  188.2660  178.3270  141.6330 C   0  0  0  0  0  2  0  0  0  0  0  0
  189.4460  177.4020  141.5970 C   0  0  2  0  0  3  0  0  0  0  0  0
  187.4250  177.7920  142.7770 C   0  0  2  0  0  3  0  0  0  0  0  0
  190.4490  176.0480  143.4510 C   0  0  0  0  0  2  0  0  0  0  0  0
  191.4480  176.9900  143.1960 O   0  0  0  0  0  1  0  0  0  0  0  0
  189.5950  176.7690  140.3240 O   0  0  0  0  0  0  0  0  0  0  0  0
  190.8160  176.5980  139.6590 C   0  0  0  0  0  0  0  0  0  0  0  0
  191.7840  177.3510  139.9420 O   0  0  0  0  0  1  0  0  0  0  0  0
  190.9780  175.6130  138.6920 O   0  0  0  0  0  0  0  0  0  0  0  0
  1  3  1  6  0  0  0
  1  9  1  0  0  0  0
  1  4  1  0  0  0  0
  4 10  2  0  0  0  0
  5 25  1  6  0  0  0
  5 11  1  0  0  0  0
  5  3  1  0  0  0  0
  5 12  1  0  0  0  0
  8  6  1  0  0  0  0
  8  2  2  0  0  0  0
  9  8  1  0  0  0  0
 10  2  1  0  0  0  0
 10 20  1  0  0  0  0
 11 14  1  6  0  0  0
 11 12  1  0  0  0  0
 12  7  1  6  0  0  0
 12  9  1  0  0  0  0
 14 13  1  0  0  0  0
 15 14  2  0  0  0  0
 16 18  2  0  0  0  0
 17 18  1  0  0  0  0
 17 19  2  0  0  0  0
 18 15  1  0  0  0  0
 19 13  1  0  0  0  0
 20 21  1  0  0  0  0
 20 22  1  0  0  0  0
 23 20  1  0  0  0  0
 24 25  1  0  0  0  0
 26  4  1  0  0  0  0
 28 32  1  1  0  0  0
 28 27  1  0  0  0  0
 29 31  1  0  0  0  0
 30 34  1  6  0  0  0
 30 29  1  0  0  0  0
 30 28  1  0  0  0  0
 31 27  1  0  0  0  0
 31 26  1  1  0  0  0
 33 32  1  0  0  0  0
 35 36  1  0  0  0  0
 35 34  1  0  0  0  0
 37 35  2  0  0  0  0
M  END
>  <MODEL>
1

>  <REMARK>
 VINA RESULT:      -7.6      0.000      0.000
  Name = 
  8 active torsions:
  status: ('A' for Active; 'I' for Inactive)
    1  A    between atoms: C_3  and  C_30
    2  A    between atoms: C_5  and  C_12
    3  A    between atoms: C_6  and  C_31
    4  A    between atoms: C_11  and  O_26
    5  A    between atoms: C_13  and  C_20
    6  A    between atoms: C_14  and  O_27
    7  A    between atoms: C_20  and  C_36
    8  A    between atoms: O_26  and  C_33
                            x       y       z     vdW  Elec       q    Type
                         _______ _______ _______ _____ _____    ______ ____

>  <TORSDO>
F 8

$$$$
=
 OpenBabel10262422523D

 37 41  0  0  1  0  0  0  0  0999 V2000
  183.9940  179.1190  140.3410 C   0  0  2  0  0  3  0  0  0  0  0  0
  182.2700  178.7170  142.5710 N   0  0  0  0  0  0  0  0  0  0  0  0
  184.8360  178.2720  139.3930 C   0  0  0  0  0  2  0  0  0  0  0  0
  184.5220  179.1060  141.7610 C   0  0  0  0  0  0  0  0  0  0  0  0
  183.8500  177.4620  138.5500 C   0  0  1  0  0  0  0  0  0  0  0  0
  180.3920  178.2550  141.2300 N   0  0  0  0  0  1  0  0  0  0  0  0
  181.4230  178.1510  138.0590 C   0  0  0  0  0  1  0  0  0  0  0  0
  181.7770  178.5490  141.3840 C   0  0  0  0  0  0  0  0  0  0  0  0
  182.6410  178.5920  140.2460 N   0  0  0  0  0  0  0  0  0  0  0  0
  183.6710  178.9490  142.8050 C   0  0  0  0  0  0  0  0  0  0  0  0
  183.0580  176.3170  139.2040 C   0  0  1  0  0  3  0  0  0  0  0  0
  182.4600  177.7280  139.0990 C   0  0  2  0  0  0  0  0  0  0  0  0
  180.9680  175.1110  138.2280 C   0  0  0  0  0  2  0  0  0  0  0  0
  182.4660  175.3380  138.2250 C   0  0  0  0  0  0  0  0  0  0  0  0
  183.2830  174.5290  137.5400 C   0  0  0  0  0  3  0  0  0  0  0  0
  183.5170  172.7370  136.0150 O   0  0  0  0  0  0  0  0  0  0  0  0
  181.2960  173.4540  136.3970 C   0  0  0  0  0  3  0  0  0  0  0  0
  182.7430  173.5180  136.6250 C   0  0  0  0  0  0  0  0  0  0  0  0
  180.4730  174.2160  137.1170 C   0  0  0  0  0  3  0  0  0  0  0  0
  184.1490  178.9840  144.2360 C   0  0  0  0  0  0  0  0  0  0  0  0
  184.9100  177.8620  144.5150 F   0  0  0  0  0  0  0  0  0  0  0  0
  184.9290  180.1070  144.4480 F   0  0  0  0  0  0  0  0  0  0  0  0
  183.0690  179.0060  145.0980 F   0  0  0  0  0  0  0  0  0  0  0  0
  185.2200  177.5600  136.8750 O   0  0  0  0  0  1  0  0  0  0  0  0
  183.9310  177.5370  137.1500 O   0  0  0  0  0  0  0  0  0  0  0  0
  185.9840  179.3880  141.9850 C   0  0  0  0  0  2  0  0  0  0  0  0
  187.1060  177.5440  143.0250 O   0  0  0  0  0  0  0  0  0  0  0  0
  188.3360  176.8870  142.8630 C   0  0  1  0  0  3  0  0  0  0  0  0
  188.1520  178.4840  141.1060 C   0  0  0  0  0  2  0  0  0  0  0  0
  189.1580  177.6520  141.8470 C   0  0  2  0  0  3  0  0  0  0  0  0
  186.8370  178.1430  141.7820 C   0  0  2  0  0  3  0  0  0  0  0  0
  189.0670  176.7840  144.1950 C   0  0  0  0  0  2  0  0  0  0  0  0
  188.6190  177.7670  145.0810 O   0  0  0  0  0  1  0  0  0  0  0  0
  189.8820  176.7810  140.9760 O   0  0  0  0  0  0  0  0  0  0  0  0
  190.8590  177.1990  140.0650 C   0  0  0  0  0  0  0  0  0  0  0  0
  190.5870  177.2250  138.8360 O   0  0  0  0  0  0  0  0  0  0  0  0
  192.1240  177.5870  140.4920 O   0  0  0  0  0  1  0  0  0  0  0  0
  1  3  1  6  0  0  0
  1  4  1  0  0  0  0
  2 10  1  0  0  0  0
  4 26  1  0  0  0  0
  4 10  2  0  0  0  0
  5 25  1  6  0  0  0
  5 12  1  0  0  0  0
  5 11  1  0  0  0  0
  5  3  1  0  0  0  0
  6  8  1  0  0  0  0
  8  2  2  0  0  0  0
  9  1  1  0  0  0  0
  9  8  1  0  0  0  0
 10 20  1  0  0  0  0
 11 14  1  6  0  0  0
 12  7  1  6  0  0  0
 12 11  1  0  0  0  0
 12  9  1  0  0  0  0
 14 13  1  0  0  0  0
 15 14  2  0  0  0  0
 16 18  2  0  0  0  0
 17 18  1  0  0  0  0
 17 19  2  0  0  0  0
 18 15  1  0  0  0  0
 19 13  1  0  0  0  0
 20 22  1  0  0  0  0
 20 21  1  0  0  0  0
 20 23  1  0  0  0  0
 24 25  1  0  0  0  0
 28 27  1  0  0  0  0
 28 32  1  1  0  0  0
 29 31  1  0  0  0  0
 29 30  1  0  0  0  0
 30 34  1  6  0  0  0
 30 28  1  0  0  0  0
 31 26  1  1  0  0  0
 31 27  1  0  0  0  0
 32 33  1  0  0  0  0
 35 37  1  0  0  0  0
 35 34  1  0  0  0  0
 36 35  2  0  0  0  0
M  END
>  <MODEL>
2

>  <REMARK>
 VINA RESULT:      -7.4      1.645      2.257
  Name = 
  8 active torsions:
  status: ('A' for Active; 'I' for Inactive)
    1  A    between atoms: C_3  and  C_30
    2  A    between atoms: C_5  and  C_12
    3  A    between atoms: C_6  and  C_31
    4  A    between atoms: C_11  and  O_26
    5  A    between atoms: C_13  and  C_20
    6  A    between atoms: C_14  and  O_27
    7  A    between atoms: C_20  and  C_36
    8  A    between atoms: O_26  and  C_33
                            x       y       z     vdW  Elec       q    Type
                         _______ _______ _______ _____ _____    ______ ____

>  <TORSDO>
F 8

$$$$
=
 OpenBabel10262422523D

 37 41  0  0  1  0  0  0  0  0999 V2000
  185.5220  177.9640  140.0430 C   0  0  2  0  0  3  0  0  0  0  0  0
  186.7660  177.5330  137.5190 N   0  0  0  0  0  0  0  0  0  0  0  0
  184.7440  179.0700  140.7490 C   0  0  0  0  0  2  0  0  0  0  0  0
  186.9700  178.3330  139.7980 C   0  0  0  0  0  0  0  0  0  0  0  0
  183.4090  179.1940  140.0120 C   0  0  1  0  0  0  0  0  0  0  0  0
  184.7650  176.8660  136.4750 N   0  0  0  0  0  1  0  0  0  0  0  0
  182.2920  177.3100  138.6690 C   0  0  0  0  0  1  0  0  0  0  0  0
  185.4860  177.3490  137.6040 C   0  0  0  0  0  0  0  0  0  0  0  0
  184.7990  177.6990  138.8080 N   0  0  0  0  0  0  0  0  0  0  0  0
  187.5460  178.0820  138.5970 C   0  0  0  0  0  0  0  0  0  0  0  0
  183.3800  179.7910  138.5950 C   0  0  1  0  0  3  0  0  0  0  0  0
  183.4700  178.2720  138.8070 C   0  0  2  0  0  0  0  0  0  0  0  0
  181.2760  179.4560  137.0990 C   0  0  0  0  0  2  0  0  0  0  0  0
  182.0190  180.2560  138.1490 C   0  0  0  0  0  0  0  0  0  0  0  0
  181.5980  181.4740  138.5110 C   0  0  0  0  0  3  0  0  0  0  0  0
  179.9370  183.1500  138.3580 O   0  0  0  0  0  0  0  0  0  0  0  0
  179.4340  181.1270  137.2430 C   0  0  0  0  0  3  0  0  0  0  0  0
  180.3070  181.9910  138.0440 C   0  0  0  0  0  0  0  0  0  0  0  0
  179.8700  179.9360  136.8310 C   0  0  0  0  0  3  0  0  0  0  0  0
  188.9990  178.3860  138.3300 C   0  0  0  0  0  0  0  0  0  0  0  0
  189.8050  177.7140  139.2330 F   0  0  0  0  0  0  0  0  0  0  0  0
  189.3420  177.9820  137.0510 F   0  0  0  0  0  0  0  0  0  0  0  0
  189.2340  179.7430  138.4610 F   0  0  0  0  0  0  0  0  0  0  0  0
  182.5830  178.7430  141.9630 O   0  0  0  0  0  1  0  0  0  0  0  0
  182.2170  179.0910  140.7450 O   0  0  0  0  0  0  0  0  0  0  0  0
  187.7780  178.8720  140.9500 C   0  0  0  0  0  2  0  0  0  0  0  0
  187.0660  177.5850  142.8420 O   0  0  0  0  0  0  0  0  0  0  0  0
  187.6530  177.1240  144.0310 C   0  0  1  0  0  3  0  0  0  0  0  0
  189.3750  178.1450  142.7420 C   0  0  0  0  0  2  0  0  0  0  0  0
  189.0400  177.7210  144.1420 C   0  0  2  0  0  3  0  0  0  0  0  0
  188.1340  177.7790  141.9500 C   0  0  2  0  0  3  0  0  0  0  0  0
  186.7950  177.5020  145.2310 C   0  0  0  0  0  2  0  0  0  0  0  0
  185.6760  178.2340  144.8280 O   0  0  0  0  0  1  0  0  0  0  0  0
  189.9870  176.7840  144.6620 O   0  0  0  0  0  0  0  0  0  0  0  0
  190.5930  176.8820  145.9200 C   0  0  0  0  0  0  0  0  0  0  0  0
  191.8290  177.1090  145.9930 O   0  0  0  0  0  0  0  0  0  0  0  0
  189.8560  176.7340  147.0890 O   0  0  0  0  0  1  0  0  0  0  0  0
  1  3  1  6  0  0  0
  2  8  2  0  0  0  0
  2 10  1  0  0  0  0
  4  1  1  0  0  0  0
  4 26  1  0  0  0  0
  5 25  1  1  0  0  0
  5  3  1  0  0  0  0
  6  8  1  0  0  0  0
  8  9  1  0  0  0  0
  9  1  1  0  0  0  0
 10  4  2  0  0  0  0
 11 14  1  6  0  0  0
 11 12  1  0  0  0  0
 11  5  1  0  0  0  0
 12  7  1  6  0  0  0
 12  9  1  0  0  0  0
 12  5  1  0  0  0  0
 13 14  1  0  0  0  0
 14 15  2  0  0  0  0
 17 18  1  0  0  0  0
 18 16  2  0  0  0  0
 18 15  1  0  0  0  0
 19 13  1  0  0  0  0
 19 17  2  0  0  0  0
 20 23  1  0  0  0  0
 20 10  1  0  0  0  0
 20 21  1  0  0  0  0
 22 20  1  0  0  0  0
 25 24  1  0  0  0  0
 27 28  1  0  0  0  0
 28 30  1  0  0  0  0
 28 32  1  1  0  0  0
 29 30  1  0  0  0  0
 30 34  1  6  0  0  0
 31 26  1  6  0  0  0
 31 29  1  0  0  0  0
 31 27  1  0  0  0  0
 33 32  1  0  0  0  0
 34 35  1  0  0  0  0
 35 36  2  0  0  0  0
 35 37  1  0  0  0  0
M  END
>  <MODEL>
3

>  <REMARK>
 VINA RESULT:      -7.1      3.844      5.592
  Name = 
  8 active torsions:
  status: ('A' for Active; 'I' for Inactive)
    1  A    between atoms: C_3  and  C_30
    2  A    between atoms: C_5  and  C_12
    3  A    between atoms: C_6  and  C_31
    4  A    between atoms: C_11  and  O_26
    5  A    between atoms: C_13  and  C_20
    6  A    between atoms: C_14  and  O_27
    7  A    between atoms: C_20  and  C_36
    8  A    between atoms: O_26  and  C_33
                            x       y       z     vdW  Elec       q    Type
                         _______ _______ _______ _____ _____    ______ ____

>  <TORSDO>
F 8

$$$$
=
 OpenBabel10262422523D

 37 41  0  0  1  0  0  0  0  0999 V2000
  188.8760  178.5370  139.2070 C   0  0  2  0  0  3  0  0  0  0  0  0
  186.0730  178.1790  138.8610 N   0  0  0  0  0  0  0  0  0  0  0  0
  190.0960  177.6810  139.5300 C   0  0  0  0  0  2  0  0  0  0  0  0
  187.9130  178.6430  140.3710 C   0  0  0  0  0  0  0  0  0  0  0  0
  190.3100  176.7650  138.3240 C   0  0  1  0  0  0  0  0  0  0  0  0
  186.2800  177.5280  136.6080 N   0  0  0  0  0  1  0  0  0  0  0  0
  189.5360  177.2850  135.9280 C   0  0  0  0  0  1  0  0  0  0  0  0
  186.8480  177.9090  137.8570 C   0  0  0  0  0  0  0  0  0  0  0  0
  188.2670  177.9300  138.0330 N   0  0  0  0  0  0  0  0  0  0  0  0
  186.5790  178.5040  140.1680 C   0  0  0  0  0  0  0  0  0  0  0  0
  189.3180  175.6210  138.0570 C   0  0  1  0  0  3  0  0  0  0  0  0
  189.1460  176.9860  137.3750 C   0  0  2  0  0  0  0  0  0  0  0  0
  188.8590  173.7280  136.3290 C   0  0  0  0  0  2  0  0  0  0  0  0
  189.8430  174.5510  137.1360 C   0  0  0  0  0  0  0  0  0  0  0  0
  191.1300  174.1950  137.2200 C   0  0  0  0  0  3  0  0  0  0  0  0
  192.8660  172.7600  136.4990 O   0  0  0  0  0  0  0  0  0  0  0  0
  190.7970  172.4760  135.3920 C   0  0  0  0  0  3  0  0  0  0  0  0
  191.6650  173.1130  136.3870 C   0  0  0  0  0  0  0  0  0  0  0  0
  189.5010  172.7840  135.3420 C   0  0  0  0  0  3  0  0  0  0  0  0
  185.5820  178.6550  141.2910 C   0  0  0  0  0  0  0  0  0  0  0  0
  185.6030  177.5360  142.1060 F   0  0  0  0  0  0  0  0  0  0  0  0
  185.8960  179.7630  142.0580 F   0  0  0  0  0  0  0  0  0  0  0  0
  184.3060  178.7990  140.7780 F   0  0  0  0  0  0  0  0  0  0  0  0
  192.4460  176.8880  138.6610 O   0  0  0  0  0  1  0  0  0  0  0  0
  191.5630  176.7570  137.6900 O   0  0  0  0  0  0  0  0  0  0  0  0
  188.4590  179.0200  141.7220 C   0  0  0  0  0  2  0  0  0  0  0  0
  188.0220  177.5160  143.5350 O   0  0  0  0  0  0  0  0  0  0  0  0
  188.7810  176.8920  144.5380 C   0  0  1  0  0  3  0  0  0  0  0  0
  190.3030  178.0320  143.1050 C   0  0  0  0  0  2  0  0  0  0  0  0
  190.1920  177.4380  144.4790 C   0  0  2  0  0  3  0  0  0  0  0  0
  188.9310  177.7990  142.5020 C   0  0  2  0  0  3  0  0  0  0  0  0
  188.1570  177.1320  145.9070 C   0  0  0  0  0  2  0  0  0  0  0  0
  187.1840  178.1310  145.8390 O   0  0  0  0  0  1  0  0  0  0  0  0
  191.1710  176.4210  144.7060 O   0  0  0  0  0  0  0  0  0  0  0  0
  191.7760  176.1630  145.9420 C   0  0  0  0  0  0  0  0  0  0  0  0
  191.7410  177.0410  146.8420 O   0  0  0  0  0  1  0  0  0  0  0  0
  192.4160  174.9540  146.1920 O   0  0  0  0  0  0  0  0  0  0  0  0
  1  3  1  1  0  0  0
  1  4  1  0  0  0  0
  2 10  1  0  0  0  0
  4 26  1  0  0  0  0
  5 25  1  6  0  0  0
  5  3  1  0  0  0  0
  6  8  1  0  0  0  0
  8  9  1  0  0  0  0
  8  2  2  0  0  0  0
  9  1  1  0  0  0  0
 10  4  2  0  0  0  0
 10 20  1  0  0  0  0
 11 14  1  6  0  0  0
 11  5  1  0  0  0  0
 12  7  1  6  0  0  0
 12  9  1  0  0  0  0
 12 11  1  0  0  0  0
 12  5  1  0  0  0  0
 13 14  1  0  0  0  0
 14 15  2  0  0  0  0
 17 18  1  0  0  0  0
 18 16  2  0  0  0  0
 18 15  1  0  0  0  0
 19 17  2  0  0  0  0
 19 13  1  0  0  0  0
 20 22  1  0  0  0  0
 20 21  1  0  0  0  0
 23 20  1  0  0  0  0
 25 24  1  0  0  0  0
 27 28  1  0  0  0  0
 28 32  1  1  0  0  0
 29 30  1  0  0  0  0
 30 28  1  0  0  0  0
 30 34  1  6  0  0  0
 31 26  1  1  0  0  0
 31 29  1  0  0  0  0
 31 27  1  0  0  0  0
 33 32  1  0  0  0  0
 34 35  1  0  0  0  0
 35 37  2  0  0  0  0
 35 36  1  0  0  0  0
M  END
>  <MODEL>
4

>  <REMARK>
 VINA RESULT:      -7.0      4.221      6.876
  Name = 
  8 active torsions:
  status: ('A' for Active; 'I' for Inactive)
    1  A    between atoms: C_3  and  C_30
    2  A    between atoms: C_5  and  C_12
    3  A    between atoms: C_6  and  C_31
    4  A    between atoms: C_11  and  O_26
    5  A    between atoms: C_13  and  C_20
    6  A    between atoms: C_14  and  O_27
    7  A    between atoms: C_20  and  C_36
    8  A    between atoms: O_26  and  C_33
                            x       y       z     vdW  Elec       q    Type
                         _______ _______ _______ _____ _____    ______ ____

>  <TORSDO>
F 8

$$$$
=
 OpenBabel10262422523D

 37 41  0  0  1  0  0  0  0  0999 V2000
  185.5340  178.5390  137.8540 C   0  0  2  0  0  3  0  0  0  0  0  0
  183.3860  176.7690  137.2570 N   0  0  0  0  0  0  0  0  0  0  0  0
  186.8930  178.4790  138.5440 C   0  0  0  0  0  2  0  0  0  0  0  0
  184.3820  178.3360  138.8160 C   0  0  0  0  0  0  0  0  0  0  0  0
  187.7870  177.6110  137.6570 C   0  0  1  0  0  0  0  0  0  0  0  0
  184.4030  175.9510  135.2990 N   0  0  0  0  0  1  0  0  0  0  0  0
  187.4620  177.2700  135.1300 C   0  0  0  0  0  1  0  0  0  0  0  0
  184.4140  176.7650  136.4670 C   0  0  0  0  0  0  0  0  0  0  0  0
  185.5750  177.5240  136.8120 N   0  0  0  0  0  0  0  0  0  0  0  0
  183.3550  177.5140  138.4880 C   0  0  0  0  0  0  0  0  0  0  0  0
  187.5290  176.0980  137.5730 C   0  0  1  0  0  3  0  0  0  0  0  0
  186.9180  177.0570  136.5420 C   0  0  2  0  0  0  0  0  0  0  0  0
  188.4560  174.3320  135.8990 C   0  0  0  0  0  2  0  0  0  0  0  0
  188.6910  175.3010  137.0390 C   0  0  0  0  0  0  0  0  0  0  0  0
  189.8410  175.2930  137.7230 C   0  0  0  0  0  3  0  0  0  0  0  0
  192.0400  174.4480  137.9410 O   0  0  0  0  0  0  0  0  0  0  0  0
  190.8720  173.7370  136.0120 C   0  0  0  0  0  3  0  0  0  0  0  0
  190.9760  174.4800  137.2720 C   0  0  0  0  0  0  0  0  0  0  0  0
  189.7120  173.6950  135.3560 C   0  0  0  0  0  3  0  0  0  0  0  0
  182.1630  177.3250  139.3940 C   0  0  0  0  0  0  0  0  0  0  0  0
  181.1200  176.7370  138.7010 F   0  0  0  0  0  0  0  0  0  0  0  0
  182.5010  176.5070  140.4580 F   0  0  0  0  0  0  0  0  0  0  0  0
  181.7330  178.5480  139.8760 F   0  0  0  0  0  0  0  0  0  0  0  0
  189.0150  179.3940  137.5880 O   0  0  0  0  0  1  0  0  0  0  0  0
  189.0140  178.1300  137.2140 O   0  0  0  0  0  0  0  0  0  0  0  0
  184.3500  179.1520  140.0810 C   0  0  0  0  0  2  0  0  0  0  0  0
  183.6520  178.7080  142.3290 O   0  0  0  0  0  0  0  0  0  0  0  0
  184.2840  178.3740  143.5380 C   0  0  1  0  0  3  0  0  0  0  0  0
  185.9540  178.3650  141.8410 C   0  0  0  0  0  2  0  0  0  0  0  0
  185.7820  178.4440  143.3300 C   0  0  2  0  0  3  0  0  0  0  0  0
  184.5320  178.2840  141.3200 C   0  0  2  0  0  3  0  0  0  0  0  0
  183.8400  179.3140  144.6510 C   0  0  0  0  0  2  0  0  0  0  0  0
  184.0980  178.7530  145.9040 O   0  0  0  0  0  1  0  0  0  0  0  0
  186.4680  177.3890  144.0080 O   0  0  0  0  0  0  0  0  0  0  0  0
  187.7900  177.0070  143.7520 C   0  0  0  0  0  0  0  0  0  0  0  0
  188.0170  175.8930  143.2110 O   0  0  0  0  0  0  0  0  0  0  0  0
  188.8570  177.8350  144.0830 O   0  0  0  0  0  1  0  0  0  0  0  0
  1  3  1  1  0  0  0
  1  4  1  0  0  0  0
  2 10  1  0  0  0  0
  4 26  1  0  0  0  0
  5 25  1  6  0  0  0
  5  3  1  0  0  0  0
  6  8  1  0  0  0  0
  8  9  1  0  0  0  0
  8  2  2  0  0  0  0
  9  1  1  0  0  0  0
 10  4  2  0  0  0  0
 10 20  1  0  0  0  0
 11 14  1  6  0  0  0
 11  5  1  0  0  0  0
 12  7  1  6  0  0  0
 12  9  1  0  0  0  0
 12 11  1  0  0  0  0
 12  5  1  0  0  0  0
 13 14  1  0  0  0  0
 14 15  2  0  0  0  0
 17 18  1  0  0  0  0
 18 15  1  0  0  0  0
 18 16  2  0  0  0  0
 19 13  1  0  0  0  0
 19 17  2  0  0  0  0
 20 23  1  0  0  0  0
 20 22  1  0  0  0  0
 21 20  1  0  0  0  0
 25 24  1  0  0  0  0
 27 28  1  0  0  0  0
 28 32  1  1  0  0  0
 29 30  1  0  0  0  0
 30 28  1  0  0  0  0
 30 34  1  1  0  0  0
 31 26  1  6  0  0  0
 31 29  1  0  0  0  0
 31 27  1  0  0  0  0
 32 33  1  0  0  0  0
 35 34  1  0  0  0  0
 35 37  1  0  0  0  0
 36 35  2  0  0  0  0
M  END
>  <MODEL>
5

>  <REMARK>
 VINA RESULT:      -6.9      4.079      6.916
  Name = 
  8 active torsions:
  status: ('A' for Active; 'I' for Inactive)
    1  A    between atoms: C_3  and  C_30
    2  A    between atoms: C_5  and  C_12
    3  A    between atoms: C_6  and  C_31
    4  A    between atoms: C_11  and  O_26
    5  A    between atoms: C_13  and  C_20
    6  A    between atoms: C_14  and  O_27
    7  A    between atoms: C_20  and  C_36
    8  A    between atoms: O_26  and  C_33
                            x       y       z     vdW  Elec       q    Type
                         _______ _______ _______ _____ _____    ______ ____

>  <TORSDO>
F 8

$$$$
=
 OpenBabel10262422523D

 37 41  0  0  1  0  0  0  0  0999 V2000
  185.6890  179.3280  141.5720 C   0  0  2  0  0  3  0  0  0  0  0  0
  185.6500  177.9740  144.0760 N   0  0  0  0  0  0  0  0  0  0  0  0
  185.4320  179.0030  140.1050 C   0  0  0  0  0  2  0  0  0  0  0  0
  186.9190  178.6320  142.1180 C   0  0  0  0  0  0  0  0  0  0  0  0
  183.9350  178.7140  139.9830 C   0  0  1  0  0  0  0  0  0  0  0  0
  183.3310  178.2530  144.3640 N   0  0  0  0  0  1  0  0  0  0  0  0
  182.1300  179.6250  141.5710 C   0  0  0  0  0  1  0  0  0  0  0  0
  184.5220  178.3980  143.5980 C   0  0  0  0  0  0  0  0  0  0  0  0
  184.4750  178.9470  142.2790 N   0  0  0  0  0  0  0  0  0  0  0  0
  186.8800  178.0270  143.3310 C   0  0  0  0  0  0  0  0  0  0  0  0
  183.3620  177.4210  140.5860 C   0  0  1  0  0  3  0  0  0  0  0  0
  183.3550  178.7310  141.3870 C   0  0  2  0  0  0  0  0  0  0  0  0
  180.7700  177.4420  140.8230 C   0  0  0  0  0  2  0  0  0  0  0  0
  182.0080  177.0360  140.0510 C   0  0  0  0  0  0  0  0  0  0  0  0
  181.9340  176.1590  139.0430 C   0  0  0  0  0  3  0  0  0  0  0  0
  180.5730  174.8550  137.6140 O   0  0  0  0  0  0  0  0  0  0  0  0
  179.4060  176.2940  139.0830 C   0  0  0  0  0  3  0  0  0  0  0  0
  180.6330  175.7080  138.5350 C   0  0  0  0  0  0  0  0  0  0  0  0
  179.4700  177.1240  140.1240 C   0  0  0  0  0  3  0  0  0  0  0  0
  188.0970  177.3690  143.9330 C   0  0  0  0  0  0  0  0  0  0  0  0
  187.8890  177.1120  145.2770 F   0  0  0  0  0  0  0  0  0  0  0  0
  188.3550  176.1710  143.2910 F   0  0  0  0  0  0  0  0  0  0  0  0
  189.1960  178.2000  143.8110 F   0  0  0  0  0  0  0  0  0  0  0  0
  183.9120  180.4880  138.7400 O   0  0  0  0  0  1  0  0  0  0  0  0
  183.1770  179.4380  139.0490 O   0  0  0  0  0  0  0  0  0  0  0  0
  188.2040  178.7320  141.3390 C   0  0  0  0  0  2  0  0  0  0  0  0
  189.5180  176.9560  140.4130 O   0  0  0  0  0  0  0  0  0  0  0  0
  189.8370  176.4990  139.1240 C   0  0  1  0  0  3  0  0  0  0  0  0
  188.2380  178.2460  138.8790 C   0  0  0  0  0  2  0  0  0  0  0  0
  189.2820  177.4840  138.1170 C   0  0  2  0  0  3  0  0  0  0  0  0
  188.3040  177.6490  140.2720 C   0  0  2  0  0  3  0  0  0  0  0  0
  191.3440  176.3460  138.9700 C   0  0  0  0  0  2  0  0  0  0  0  0
  191.6570  175.1370  138.3440 O   0  0  0  0  0  1  0  0  0  0  0  0
  188.7380  176.8280  136.9690 O   0  0  0  0  0  0  0  0  0  0  0  0
  188.0400  175.6150  137.0030 C   0  0  0  0  0  0  0  0  0  0  0  0
  186.7990  175.6230  137.2160 O   0  0  0  0  0  1  0  0  0  0  0  0
  188.6900  174.4020  136.8060 O   0  0  0  0  0  0  0  0  0  0  0  0
  1  3  1  6  0  0  0
  1  4  1  0  0  0  0
  1  9  1  0  0  0  0
  4 10  2  0  0  0  0
  5 25  1  6  0  0  0
  5  3  1  0  0  0  0
  5 11  1  0  0  0  0
  5 12  1  0  0  0  0
  8  2  2  0  0  0  0
  8  6  1  0  0  0  0
  9  8  1  0  0  0  0
 10 20  1  0  0  0  0
 10  2  1  0  0  0  0
 11 14  1  6  0  0  0
 11 12  1  0  0  0  0
 12  7  1  1  0  0  0
 12  9  1  0  0  0  0
 14 13  1  0  0  0  0
 15 14  2  0  0  0  0
 16 18  2  0  0  0  0
 17 19  2  0  0  0  0
 18 15  1  0  0  0  0
 18 17  1  0  0  0  0
 19 13  1  0  0  0  0
 20 21  1  0  0  0  0
 22 20  1  0  0  0  0
 23 20  1  0  0  0  0
 24 25  1  0  0  0  0
 26  4  1  0  0  0  0
 28 32  1  1  0  0  0
 28 27  1  0  0  0  0
 29 31  1  0  0  0  0
 30 34  1  6  0  0  0
 30 29  1  0  0  0  0
 30 28  1  0  0  0  0
 31 27  1  0  0  0  0
 31 26  1  1  0  0  0
 33 32  1  0  0  0  0
 34 35  1  0  0  0  0
 35 36  1  0  0  0  0
 37 35  2  0  0  0  0
M  END
>  <MODEL>
6

>  <REMARK>
 VINA RESULT:      -6.8      1.885      2.845
  Name = 
  8 active torsions:
  status: ('A' for Active; 'I' for Inactive)
    1  A    between atoms: C_3  and  C_30
    2  A    between atoms: C_5  and  C_12
    3  A    between atoms: C_6  and  C_31
    4  A    between atoms: C_11  and  O_26
    5  A    between atoms: C_13  and  C_20
    6  A    between atoms: C_14  and  O_27
    7  A    between atoms: C_20  and  C_36
    8  A    between atoms: O_26  and  C_33
                            x       y       z     vdW  Elec       q    Type
                         _______ _______ _______ _____ _____    ______ ____

>  <TORSDO>
F 8

$$$$
=
 OpenBabel10262422523D

 37 41  0  0  1  0  0  0  0  0999 V2000
  188.9060  178.0520  139.2430 C   0  0  2  0  0  3  0  0  0  0  0  0
  191.0910  176.2480  139.5160 N   0  0  0  0  0  0  0  0  0  0  0  0
  187.4550  178.1520  139.7020 C   0  0  0  0  0  2  0  0  0  0  0  0
  189.1300  176.9210  138.2590 C   0  0  0  0  0  0  0  0  0  0  0  0
  187.4980  178.3520  141.2180 C   0  0  1  0  0  0  0  0  0  0  0  0
  191.7550  177.1270  141.5960 N   0  0  0  0  0  1  0  0  0  0  0  0
  189.4690  179.3770  142.5100 C   0  0  0  0  0  1  0  0  0  0  0  0
  190.8680  177.0810  140.4830 C   0  0  0  0  0  0  0  0  0  0  0  0
  189.6950  177.8990  140.4550 N   0  0  0  0  0  0  0  0  0  0  0  0
  190.2010  176.1010  138.3950 C   0  0  0  0  0  0  0  0  0  0  0  0
  187.9230  177.1850  142.1240 C   0  0  1  0  0  3  0  0  0  0  0  0
  188.9480  178.2260  141.6510 C   0  0  2  0  0  0  0  0  0  0  0  0
  186.1440  177.8790  143.8940 C   0  0  0  0  0  2  0  0  0  0  0  0
  187.5240  177.3450  143.5670 C   0  0  0  0  0  0  0  0  0  0  0  0
  188.4610  177.2360  144.5160 C   0  0  0  0  0  3  0  0  0  0  0  0
  189.0220  177.3810  146.8090 O   0  0  0  0  0  0  0  0  0  0  0  0
  186.7330  177.6990  146.3070 C   0  0  0  0  0  3  0  0  0  0  0  0
  188.1270  177.4490  145.9280 C   0  0  0  0  0  0  0  0  0  0  0  0
  185.8060  177.8670  145.3650 C   0  0  0  0  0  3  0  0  0  0  0  0
  190.4890  174.9970  137.4070 C   0  0  0  0  0  0  0  0  0  0  0  0
  191.7480  174.4680  137.6310 F   0  0  0  0  0  0  0  0  0  0  0  0
  189.5570  173.9840  137.5430 F   0  0  0  0  0  0  0  0  0  0  0  0
  190.4460  175.4900  136.1160 F   0  0  0  0  0  0  0  0  0  0  0  0
  185.7700  179.6430  141.0200 O   0  0  0  0  0  1  0  0  0  0  0  0
  186.8330  179.4550  141.7770 O   0  0  0  0  0  0  0  0  0  0  0  0
  188.2090  176.8090  137.0740 C   0  0  0  0  0  2  0  0  0  0  0  0
  186.8200  174.8620  137.2190 O   0  0  0  0  0  0  0  0  0  0  0  0
  185.4730  174.5580  136.9630 C   0  0  1  0  0  3  0  0  0  0  0  0
  185.7340  176.9080  136.6800 C   0  0  0  0  0  2  0  0  0  0  0  0
  184.8230  175.7690  136.3280 C   0  0  2  0  0  3  0  0  0  0  0  0
  186.8490  176.2450  137.4660 C   0  0  2  0  0  3  0  0  0  0  0  0
  185.3640  173.3380  136.0570 C   0  0  0  0  0  2  0  0  0  0  0  0
  184.8290  172.2520  136.7540 O   0  0  0  0  0  1  0  0  0  0  0  0
  183.4920  175.9760  136.8090 O   0  0  0  0  0  0  0  0  0  0  0  0
  182.9000  175.2500  137.8490 C   0  0  0  0  0  0  0  0  0  0  0  0
  183.0540  175.6360  139.0370 O   0  0  0  0  0  1  0  0  0  0  0  0
  182.1470  174.1100  137.5950 O   0  0  0  0  0  0  0  0  0  0  0  0
  1  3  1  1  0  0  0
  1  9  1  0  0  0  0
  2  8  2  0  0  0  0
  3  5  1  0  0  0  0
  4 10  2  0  0  0  0
  4  1  1  0  0  0  0
  5 12  1  0  0  0  0
  5 25  1  1  0  0  0
  5 11  1  0  0  0  0
  8  6  1  0  0  0  0
  9  8  1  0  0  0  0
  9 12  1  0  0  0  0
 10  2  1  0  0  0  0
 11 14  1  1  0  0  0
 12 11  1  0  0  0  0
 12  7  1  1  0  0  0
 13 19  1  0  0  0  0
 14 13  1  0  0  0  0
 14 15  2  0  0  0  0
 15 18  1  0  0  0  0
 18 17  1  0  0  0  0
 18 16  2  0  0  0  0
 19 17  2  0  0  0  0
 20 22  1  0  0  0  0
 20 21  1  0  0  0  0
 20 10  1  0  0  0  0
 23 20  1  0  0  0  0
 24 25  1  0  0  0  0
 26  4  1  0  0  0  0
 27 31  1  0  0  0  0
 28 32  1  6  0  0  0
 28 27  1  0  0  0  0
 29 31  1  0  0  0  0
 30 29  1  0  0  0  0
 30 34  1  1  0  0  0
 30 28  1  0  0  0  0
 31 26  1  6  0  0  0
 32 33  1  0  0  0  0
 34 35  1  0  0  0  0
 35 36  1  0  0  0  0
 37 35  2  0  0  0  0
M  END
>  <MODEL>
7

>  <REMARK>
 VINA RESULT:      -6.7      4.662      8.263
  Name = 
  8 active torsions:
  status: ('A' for Active; 'I' for Inactive)
    1  A    between atoms: C_3  and  C_30
    2  A    between atoms: C_5  and  C_12
    3  A    between atoms: C_6  and  C_31
    4  A    between atoms: C_11  and  O_26
    5  A    between atoms: C_13  and  C_20
    6  A    between atoms: C_14  and  O_27
    7  A    between atoms: C_20  and  C_36
    8  A    between atoms: O_26  and  C_33
                            x       y       z     vdW  Elec       q    Type
                         _______ _______ _______ _____ _____    ______ ____

>  <TORSDO>
F 8

$$$$
=
 OpenBabel10262422523D

 37 41  0  0  1  0  0  0  0  0999 V2000
  187.6480  176.3840  136.7250 C   0  0  2  0  0  3  0  0  0  0  0  0
  188.1540  173.5860  136.8550 N   0  0  0  0  0  0  0  0  0  0  0  0
  187.2880  177.5160  137.6820 C   0  0  0  0  0  2  0  0  0  0  0  0
  186.5340  175.3690  136.5780 C   0  0  0  0  0  0  0  0  0  0  0  0
  188.5110  177.7270  138.5780 C   0  0  1  0  0  0  0  0  0  0  0  0
  190.4120  173.8670  137.4560 N   0  0  0  0  0  1  0  0  0  0  0  0
  190.9260  177.1280  137.9320 C   0  0  0  0  0  1  0  0  0  0  0  0
  189.1230  174.3930  137.1560 C   0  0  0  0  0  0  0  0  0  0  0  0
  188.8710  175.7970  137.2500 N   0  0  0  0  0  0  0  0  0  0  0  0
  186.8110  174.0420  136.6080 C   0  0  0  0  0  0  0  0  0  0  0  0
  188.8670  176.6680  139.6330 C   0  0  1  0  0  3  0  0  0  0  0  0
  189.5130  176.6370  138.2400 C   0  0  2  0  0  0  0  0  0  0  0  0
  191.2800  176.9050  140.5810 C   0  0  0  0  0  2  0  0  0  0  0  0
  189.7920  177.1590  140.7140 C   0  0  0  0  0  0  0  0  0  0  0  0
  189.2710  177.5990  141.8660 C   0  0  0  0  0  3  0  0  0  0  0  0
  189.6410  178.4020  144.0590 O   0  0  0  0  0  0  0  0  0  0  0  0
  191.5920  178.0500  142.7700 C   0  0  0  0  0  3  0  0  0  0  0  0
  190.1390  178.0260  142.9680 C   0  0  0  0  0  0  0  0  0  0  0  0
  192.1210  177.5600  141.6490 C   0  0  0  0  0  3  0  0  0  0  0  0
  185.7390  172.9990  136.4120 C   0  0  0  0  0  0  0  0  0  0  0  0
  184.9640  172.8860  137.5530 F   0  0  0  0  0  0  0  0  0  0  0  0
  184.9170  173.3560  135.3570 F   0  0  0  0  0  0  0  0  0  0  0  0
  186.3130  171.7690  136.1500 F   0  0  0  0  0  0  0  0  0  0  0  0
  188.7350  179.6190  137.5470 O   0  0  0  0  0  1  0  0  0  0  0  0
  189.0770  179.0090  138.6650 O   0  0  0  0  0  0  0  0  0  0  0  0
  185.1440  175.8660  136.2830 C   0  0  0  0  0  2  0  0  0  0  0  0
  183.5030  175.5070  137.9910 O   0  0  0  0  0  0  0  0  0  0  0  0
  182.5330  176.2860  138.6420 C   0  0  1  0  0  3  0  0  0  0  0  0
  183.7860  177.7460  137.2390 C   0  0  0  0  0  2  0  0  0  0  0  0
  182.4810  177.6430  137.9730 C   0  0  2  0  0  3  0  0  0  0  0  0
  184.4650  176.4210  137.5290 C   0  0  2  0  0  3  0  0  0  0  0  0
  181.1750  175.5990  138.5950 C   0  0  0  0  0  2  0  0  0  0  0  0
  180.6190  175.5140  139.8730 O   0  0  0  0  0  1  0  0  0  0  0  0
  182.3110  178.7020  138.9180 O   0  0  0  0  0  0  0  0  0  0  0  0
  183.3490  179.2820  139.6570 C   0  0  0  0  0  0  0  0  0  0  0  0
  183.5620  178.8920  140.8340 O   0  0  0  0  0  1  0  0  0  0  0  0
  184.1490  180.2820  139.1150 O   0  0  0  0  0  0  0  0  0  0  0  0
  1  9  1  0  0  0  0
  1  3  1  1  0  0  0
  2  8  2  0  0  0  0
  3  5  1  0  0  0  0
  4 10  2  0  0  0  0
  4  1  1  0  0  0  0
  5 25  1  1  0  0  0
  5 11  1  0  0  0  0
  8  9  1  0  0  0  0
  8  6  1  0  0  0  0
  9 12  1  0  0  0  0
 10  2  1  0  0  0  0
 11 14  1  1  0  0  0
 12  7  1  6  0  0  0
 12  5  1  0  0  0  0
 12 11  1  0  0  0  0
 13 14  1  0  0  0  0
 13 19  1  0  0  0  0
 14 15  2  0  0  0  0
 15 18  1  0  0  0  0
 17 18  1  0  0  0  0
 18 16  2  0  0  0  0
 19 17  2  0  0  0  0
 20 10  1  0  0  0  0
 20 21  1  0  0  0  0
 22 20  1  0  0  0  0
 23 20  1  0  0  0  0
 24 25  1  0  0  0  0
 26  4  1  0  0  0  0
 27 28  1  0  0  0  0
 28 32  1  6  0  0  0
 29 31  1  0  0  0  0
 29 30  1  0  0  0  0
 30 28  1  0  0  0  0
 30 34  1  1  0  0  0
 31 26  1  6  0  0  0
 31 27  1  0  0  0  0
 32 33  1  0  0  0  0
 34 35  1  0  0  0  0
 35 36  1  0  0  0  0
 37 35  2  0  0  0  0
M  END
>  <MODEL>
8

>  <REMARK>
 VINA RESULT:      -6.5      4.741      9.079
  Name = 
  8 active torsions:
  status: ('A' for Active; 'I' for Inactive)
    1  A    between atoms: C_3  and  C_30
    2  A    between atoms: C_5  and  C_12
    3  A    between atoms: C_6  and  C_31
    4  A    between atoms: C_11  and  O_26
    5  A    between atoms: C_13  and  C_20
    6  A    between atoms: C_14  and  O_27
    7  A    between atoms: C_20  and  C_36
    8  A    between atoms: O_26  and  C_33
                            x       y       z     vdW  Elec       q    Type
                         _______ _______ _______ _____ _____    ______ ____

>  <TORSDO>
F 8

$$$$
=
 OpenBabel10262422523D

 37 41  0  0  1  0  0  0  0  0999 V2000
  186.8030  176.3080  135.9880 C   0  0  2  0  0  3  0  0  0  0  0  0
  186.8810  173.4630  136.0580 N   0  0  0  0  0  0  0  0  0  0  0  0
  187.0160  177.4710  136.9510 C   0  0  0  0  0  2  0  0  0  0  0  0
  185.5750  175.4880  136.3250 C   0  0  0  0  0  0  0  0  0  0  0  0
  188.5040  177.4700  137.3040 C   0  0  1  0  0  0  0  0  0  0  0  0
  189.2120  173.3670  135.7430 N   0  0  0  0  0  1  0  0  0  0  0  0
  190.3650  176.4960  135.8230 C   0  0  0  0  0  1  0  0  0  0  0  0
  188.0040  174.0980  135.9280 C   0  0  0  0  0  0  0  0  0  0  0  0
  188.0270  175.5230  136.0390 N   0  0  0  0  0  0  0  0  0  0  0  0
  185.6340  174.1330  136.3150 C   0  0  0  0  0  0  0  0  0  0  0  0
  189.0680  176.3540  138.1980 C   0  0  1  0  0  3  0  0  0  0  0  0
  189.1200  176.2360  136.6680 C   0  0  2  0  0  0  0  0  0  0  0  0
  191.6670  176.2170  138.1270 C   0  0  0  0  0  2  0  0  0  0  0  0
  190.4010  176.6750  138.8220 C   0  0  0  0  0  0  0  0  0  0  0  0
  190.4360  177.1490  140.0730 C   0  0  0  0  0  3  0  0  0  0  0  0
  191.7380  177.8220  141.9280 O   0  0  0  0  0  0  0  0  0  0  0  0
  192.9640  177.2390  139.9930 C   0  0  0  0  0  3  0  0  0  0  0  0
  191.7150  177.4140  140.7400 C   0  0  0  0  0  0  0  0  0  0  0  0
  192.9410  176.7140  138.7680 C   0  0  0  0  0  3  0  0  0  0  0  0
  184.4210  173.2800  136.5930 C   0  0  0  0  0  0  0  0  0  0  0  0
  184.6040  172.0040  136.0880 F   0  0  0  0  0  0  0  0  0  0  0  0
  184.2100  173.1870  137.9570 F   0  0  0  0  0  0  0  0  0  0  0  0
  183.3040  173.8320  135.9930 F   0  0  0  0  0  0  0  0  0  0  0  0
  188.3870  179.6310  137.2240 O   0  0  0  0  0  1  0  0  0  0  0  0
  189.2510  178.6420  137.1050 O   0  0  0  0  0  0  0  0  0  0  0  0
  184.2720  176.2080  136.5540 C   0  0  0  0  0  2  0  0  0  0  0  0
  182.9430  175.8140  138.5080 O   0  0  0  0  0  0  0  0  0  0  0  0
  182.4230  176.5950  139.5520 C   0  0  1  0  0  3  0  0  0  0  0  0
  183.8140  178.0110  138.2360 C   0  0  0  0  0  2  0  0  0  0  0  0
  182.7050  178.0510  139.2460 C   0  0  2  0  0  3  0  0  0  0  0  0
  184.0540  176.5270  138.0270 C   0  0  2  0  0  3  0  0  0  0  0  0
  180.9280  176.3470  139.7110 C   0  0  0  0  0  2  0  0  0  0  0  0
  180.6640  174.9810  139.8310 O   0  0  0  0  0  1  0  0  0  0  0  0
  183.0710  178.7840  140.4180 O   0  0  0  0  0  0  0  0  0  0  0  0
  184.3300  178.7320  141.0270 C   0  0  0  0  0  0  0  0  0  0  0  0
  184.5390  177.8940  141.9420 O   0  0  0  0  0  1  0  0  0  0  0  0
  185.3540  179.5890  140.6400 O   0  0  0  0  0  0  0  0  0  0  0  0
  1  9  1  0  0  0  0
  1  4  1  0  0  0  0
  1  3  1  1  0  0  0
  2 10  1  0  0  0  0
  3  5  1  0  0  0  0
  4 26  1  0  0  0  0
  5 25  1  6  0  0  0
  5 11  1  0  0  0  0
  6  8  1  0  0  0  0
  8  9  1  0  0  0  0
  8  2  2  0  0  0  0
  9 12  1  0  0  0  0
 10  4  2  0  0  0  0
 10 20  1  0  0  0  0
 11 14  1  6  0  0  0
 12  7  1  6  0  0  0
 12  5  1  0  0  0  0
 12 11  1  0  0  0  0
 13 19  1  0  0  0  0
 13 14  1  0  0  0  0
 14 15  2  0  0  0  0
 15 18  1  0  0  0  0
 17 18  1  0  0  0  0
 18 16  2  0  0  0  0
 19 17  2  0  0  0  0
 20 22  1  0  0  0  0
 21 20  1  0  0  0  0
 23 20  1  0  0  0  0
 25 24  1  0  0  0  0
 27 28  1  0  0  0  0
 28 32  1  6  0  0  0
 29 30  1  0  0  0  0
 30 28  1  0  0  0  0
 30 34  1  1  0  0  0
 31 26  1  6  0  0  0
 31 29  1  0  0  0  0
 31 27  1  0  0  0  0
 32 33  1  0  0  0  0
 34 35  1  0  0  0  0
 35 36  1  0  0  0  0
 37 35  2  0  0  0  0
M  END
>  <MODEL>
9

>  <REMARK>
 VINA RESULT:      -6.4      4.829      9.111
  Name = 
  8 active torsions:
  status: ('A' for Active; 'I' for Inactive)
    1  A    between atoms: C_3  and  C_30
    2  A    between atoms: C_5  and  C_12
    3  A    between atoms: C_6  and  C_31
    4  A    between atoms: C_11  and  O_26
    5  A    between atoms: C_13  and  C_20
    6  A    between atoms: C_14  and  O_27
    7  A    between atoms: C_20  and  C_36
    8  A    between atoms: O_26  and  C_33
                            x       y       z     vdW  Elec       q    Type
                         _______ _______ _______ _____ _____    ______ ____

>  <TORSDO>
F 8

$$$$
