=
 OpenBabel10262421583D

 30 36  0  0  1  0  0  0  0  0999 V2000
  187.8620  178.5320  141.8600 C   0  0  2  0  0  3  0  0  0  0  0  0
  189.3050  177.0140  140.3220 C   0  0  2  0  0  3  0  0  0  0  0  0
  190.8250  177.0970  144.3610 N   0  0  0  0  0  2  0  0  0  0  0  0
  187.1380  177.3650  142.5730 C   0  0  2  0  0  3  0  0  0  0  0  0
  186.9770  179.0450  140.8190 N   0  0  0  0  0  0  0  0  0  0  0  0
  183.3980  178.3050  141.9510 S   0  0  0  0  0  0  0  0  0  0  0  0
  184.9060  178.8640  145.4210 C   0  0  0  0  0  0  0  0  0  0  0  0
  185.0770  178.8700  142.3660 C   0  0  2  0  0  3  0  0  0  0  0  0
  184.7890  179.4410  140.0060 N   0  0  0  0  0  2  0  0  0  0  0  0
  187.2350  177.8650  145.4340 C   0  0  0  0  0  0  0  0  0  0  0  0
  189.6950  177.2730  145.2340 C   0  0  0  0  0  0  0  0  0  0  0  0
  185.7100  179.1960  141.0510 C   0  0  0  0  0  0  0  0  0  0  0  0
  185.8570  177.8860  143.2700 C   0  0  2  0  0  3  0  0  0  0  0  0
  190.6880  176.3690  140.1750 C   0  0  0  0  0  2  0  0  0  0  0  0
  187.1360  177.7440  146.7680 C   0  0  0  0  0  3  0  0  0  0  0  0
  184.7090  178.2200  146.7570 C   0  0  0  0  0  2  0  0  0  0  0  0
  182.4420  179.3060  139.4290 C   0  0  0  0  0  1  0  0  0  0  0  0
  188.7920  177.4020  138.9490 C   0  0  0  0  0  1  0  0  0  0  0  0
  190.6730  176.9600  142.9250 C   0  0  2  0  0  3  0  0  0  0  0  0
  191.8310  177.2680  140.6560 C   0  0  0  0  0  2  0  0  0  0  0  0
  183.5940  179.0930  140.3440 C   0  0  1  0  0  3  0  0  0  0  0  0
  189.2540  178.2340  141.2740 C   0  0  2  0  0  3  0  0  0  0  0  0
  187.9840  176.5170  143.5230 C   0  0  0  0  0  2  0  0  0  0  0  0
  189.9150  177.4860  146.4550 O   0  0  0  0  0  0  0  0  0  0  0  0
  188.3320  177.2570  144.7330 N   0  0  0  0  0  0  0  0  0  0  0  0
  186.0040  178.3450  147.5430 C   0  0  0  0  0  2  0  0  0  0  0  0
  184.0660  179.6440  145.0040 O   0  0  0  0  0  0  0  0  0  0  0  0
  191.6940  177.7470  142.1130 C   0  0  1  0  0  3  0  0  0  0  0  0
  190.3140  178.3330  142.3860 C   0  0  2  0  0  3  0  0  0  0  0  0
  186.1640  178.5850  144.6190 C   0  0  1  0  0  3  0  0  0  0  0  0
  1  5  1  6  0  0  0
  1  4  1  0  0  0  0
  2 18  1  6  0  0  0
  2 22  1  0  0  0  0
  3 11  1  0  0  0  0
  4 13  1  0  0  0  0
  4 23  1  1  0  0  0
  5 12  2  0  0  0  0
  6  8  1  0  0  0  0
  7 16  1  0  0  0  0
  8 12  1  6  0  0  0
  8 13  1  0  0  0  0
  9 21  1  0  0  0  0
  9 12  1  0  0  0  0
 10 15  2  0  0  0  0
 11 24  2  0  0  0  0
 13 30  1  0  0  0  0
 14  2  1  0  0  0  0
 14 20  1  0  0  0  0
 15 26  1  0  0  0  0
 16 26  1  0  0  0  0
 17 21  1  0  0  0  0
 19  3  1  0  0  0  0
 20 28  1  0  0  0  0
 21  6  1  0  0  0  0
 22  1  1  0  0  0  0
 22 29  1  0  0  0  0
 23 25  1  0  0  0  0
 25 11  1  0  0  0  0
 25 10  1  0  0  0  0
 27  7  2  0  0  0  0
 28 29  1  0  0  0  0
 28 19  1  0  0  0  0
 29 19  1  0  0  0  0
 30  7  1  0  0  0  0
 30 10  1  0  0  0  0
M  END
>  <MODEL>
1

>  <REMARK>
 VINA RESULT:     -10.9      0.000      0.000
  Name = 
  0 active torsions:
  status: ('A' for Active; 'I' for Inactive)
                            x       y       z     vdW  Elec       q    Type
                         _______ _______ _______ _____ _____    ______ ____

>  <TORSDO>
F 0

$$$$
=
 OpenBabel10262421583D

 30 36  0  0  1  0  0  0  0  0999 V2000
  189.0580  178.1560  144.0370 C   0  0  2  0  0  3  0  0  0  0  0  0
  190.3320  176.5920  145.6730 C   0  0  2  0  0  3  0  0  0  0  0  0
  186.6800  178.0910  147.4180 N   0  0  0  0  0  2  0  0  0  0  0  0
  187.9830  177.1110  143.6490 C   0  0  2  0  0  3  0  0  0  0  0  0
  190.0710  178.1740  142.9870 N   0  0  0  0  0  0  0  0  0  0  0  0
  188.3350  177.0760  139.7580 S   0  0  0  0  0  0  0  0  0  0  0  0
  185.3470  178.8630  141.3430 C   0  0  0  0  0  0  0  0  0  0  0  0
  188.2980  178.0570  141.2900 C   0  0  2  0  0  3  0  0  0  0  0  0
  190.6690  177.8840  140.7140 N   0  0  0  0  0  2  0  0  0  0  0  0
  185.3810  178.3920  143.8320 C   0  0  0  0  0  0  0  0  0  0  0  0
  185.7410  178.2710  146.3420 C   0  0  0  0  0  0  0  0  0  0  0  0
  189.7240  178.1260  141.7380 C   0  0  0  0  0  0  0  0  0  0  0  0
  187.2820  177.5380  142.3350 C   0  0  2  0  0  3  0  0  0  0  0  0
  190.4880  176.2200  147.1530 C   0  0  0  0  0  2  0  0  0  0  0  0
  184.0600  178.6280  143.8580 C   0  0  0  0  0  3  0  0  0  0  0  0
  183.8770  178.5880  141.3920 C   0  0  0  0  0  2  0  0  0  0  0  0
  190.8830  177.1280  138.4240 C   0  0  0  0  0  1  0  0  0  0  0  0
  191.6800  176.4730  144.9910 C   0  0  0  0  0  1  0  0  0  0  0  0
  188.0010  177.5340  147.1990 C   0  0  2  0  0  3  0  0  0  0  0  0
  190.4040  177.4270  148.0930 C   0  0  0  0  0  2  0  0  0  0  0  0
  190.1010  177.4120  139.6560 C   0  0  1  0  0  3  0  0  0  0  0  0
  189.7240  177.9910  145.4150 C   0  0  2  0  0  3  0  0  0  0  0  0
  186.9660  176.7460  144.7310 C   0  0  0  0  0  2  0  0  0  0  0  0
  184.6530  178.8540  146.5930 O   0  0  0  0  0  0  0  0  0  0  0  0
  186.0410  177.8460  144.9860 N   0  0  0  0  0  0  0  0  0  0  0  0
  183.3230  179.1820  142.6770 C   0  0  0  0  0  2  0  0  0  0  0  0
  185.8360  179.3130  140.3200 O   0  0  0  0  0  0  0  0  0  0  0  0
  189.1120  178.2530  147.9550 C   0  0  1  0  0  3  0  0  0  0  0  0
  188.8210  178.6040  146.5000 C   0  0  2  0  0  3  0  0  0  0  0  0
  186.2070  178.6300  142.5710 C   0  0  1  0  0  3  0  0  0  0  0  0
  1  5  1  6  0  0  0
  1 22  1  0  0  0  0
  2 18  1  1  0  0  0
  2 14  1  0  0  0  0
  4  1  1  0  0  0  0
  4 23  1  1  0  0  0
  7 16  1  0  0  0  0
  7 30  1  0  0  0  0
  8  6  1  6  0  0  0
  8 12  1  0  0  0  0
  8 13  1  0  0  0  0
  9 12  1  0  0  0  0
 10 15  2  0  0  0  0
 10 25  1  0  0  0  0
 11 24  2  0  0  0  0
 11  3  1  0  0  0  0
 12  5  2  0  0  0  0
 13 30  1  0  0  0  0
 13  4  1  0  0  0  0
 14 20  1  0  0  0  0
 16 26  1  0  0  0  0
 17 21  1  0  0  0  0
 19  3  1  0  0  0  0
 19 28  1  0  0  0  0
 21  6  1  0  0  0  0
 21  9  1  0  0  0  0
 22  2  1  0  0  0  0
 22 29  1  0  0  0  0
 23 25  1  0  0  0  0
 25 11  1  0  0  0  0
 26 15  1  0  0  0  0
 27  7  2  0  0  0  0
 28 20  1  0  0  0  0
 29 19  1  0  0  0  0
 29 28  1  0  0  0  0
 30 10  1  0  0  0  0
M  END
>  <MODEL>
2

>  <REMARK>
 VINA RESULT:     -10.2      2.279      4.993
  Name = 
  0 active torsions:
  status: ('A' for Active; 'I' for Inactive)
                            x       y       z     vdW  Elec       q    Type
                         _______ _______ _______ _____ _____    ______ ____

>  <TORSDO>
F 0

$$$$
=
 OpenBabel10262421583D

 30 36  0  0  1  0  0  0  0  0999 V2000
  185.3170  177.8780  142.4340 C   0  0  2  0  0  3  0  0  0  0  0  0
  185.2940  178.9600  144.7950 C   0  0  2  0  0  3  0  0  0  0  0  0
  189.2640  177.7100  143.6530 N   0  0  0  0  0  2  0  0  0  0  0  0
  185.9230  179.1100  141.7180 C   0  0  2  0  0  3  0  0  0  0  0  0
  183.8740  177.8940  142.2190 N   0  0  0  0  0  0  0  0  0  0  0  0
  183.2700  179.7380  138.9210 S   0  0  0  0  0  0  0  0  0  0  0  0
  186.6190  178.1420  137.9880 C   0  0  0  0  0  0  0  0  0  0  0  0
  184.2420  178.5320  139.8750 C   0  0  2  0  0  3  0  0  0  0  0  0
  182.0110  178.4710  140.8750 N   0  0  0  0  0  2  0  0  0  0  0  0
  188.1070  178.1860  140.0380 C   0  0  0  0  0  0  0  0  0  0  0  0
  189.3520  177.8400  142.2230 C   0  0  0  0  0  0  0  0  0  0  0  0
  183.3870  178.1950  141.0550 C   0  0  0  0  0  0  0  0  0  0  0  0
  185.6800  179.0060  140.1920 C   0  0  2  0  0  3  0  0  0  0  0  0
  186.0700  179.0570  146.1150 C   0  0  0  0  0  2  0  0  0  0  0  0
  189.1720  178.1330  139.2220 C   0  0  0  0  0  3  0  0  0  0  0  0
  187.8110  178.6040  137.2120 C   0  0  0  0  0  2  0  0  0  0  0  0
  180.4380  179.5580  139.3910 C   0  0  0  0  0  1  0  0  0  0  0  0
  183.8070  179.0030  145.0940 C   0  0  0  0  0  1  0  0  0  0  0  0
  188.0790  178.1080  144.3890 C   0  0  2  0  0  3  0  0  0  0  0  0
  186.7200  177.7340  146.5340 C   0  0  0  0  0  2  0  0  0  0  0  0
  181.8110  179.1850  139.8200 C   0  0  1  0  0  3  0  0  0  0  0  0
  185.6290  177.7200  143.9330 C   0  0  2  0  0  3  0  0  0  0  0  0
  187.3860  179.4270  142.0310 C   0  0  0  0  0  2  0  0  0  0  0  0
  190.3720  177.3790  141.6460 O   0  0  0  0  0  0  0  0  0  0  0  0
  188.2840  178.4380  141.4420 N   0  0  0  0  0  0  0  0  0  0  0  0
  189.0390  177.8880  137.7510 C   0  0  0  0  0  2  0  0  0  0  0  0
  185.6110  177.8040  137.3900 O   0  0  0  0  0  0  0  0  0  0  0  0
  187.6660  177.1280  145.4810 C   0  0  1  0  0  3  0  0  0  0  0  0
  187.0120  177.0660  144.1060 C   0  0  2  0  0  3  0  0  0  0  0  0
  186.6850  178.0480  139.5020 C   0  0  1  0  0  3  0  0  0  0  0  0
  1  5  1  1  0  0  0
  1 22  1  0  0  0  0
  2 18  1  1  0  0  0
  2 14  1  0  0  0  0
  3 19  1  0  0  0  0
  4 23  1  6  0  0  0
  4  1  1  0  0  0  0
  6 21  1  0  0  0  0
  7 30  1  0  0  0  0
  8  6  1  1  0  0  0
  8 13  1  0  0  0  0
  8 12  1  0  0  0  0
  9 12  1  0  0  0  0
 10 25  1  0  0  0  0
 11  3  1  0  0  0  0
 12  5  2  0  0  0  0
 13  4  1  0  0  0  0
 14 20  1  0  0  0  0
 15 10  2  0  0  0  0
 16 26  1  0  0  0  0
 16  7  1  0  0  0  0
 17 21  1  0  0  0  0
 19 28  1  0  0  0  0
 21  9  1  0  0  0  0
 22 29  1  0  0  0  0
 22  2  1  0  0  0  0
 24 11  2  0  0  0  0
 25 23  1  0  0  0  0
 25 11  1  0  0  0  0
 26 15  1  0  0  0  0
 27  7  2  0  0  0  0
 28 20  1  0  0  0  0
 29 19  1  0  0  0  0
 29 28  1  0  0  0  0
 30 10  1  0  0  0  0
 30 13  1  0  0  0  0
M  END
>  <MODEL>
3

>  <REMARK>
 VINA RESULT:      -9.1      2.321      5.440
  Name = 
  0 active torsions:
  status: ('A' for Active; 'I' for Inactive)
                            x       y       z     vdW  Elec       q    Type
                         _______ _______ _______ _____ _____    ______ ____

>  <TORSDO>
F 0

$$$$
=
 OpenBabel10262421583D

 30 36  0  0  1  0  0  0  0  0999 V2000
  188.6180  178.2540  142.5160 C   0  0  2  0  0  3  0  0  0  0  0  0
  190.4900  176.5470  143.0870 C   0  0  2  0  0  3  0  0  0  0  0  0
  188.0860  177.4930  146.5440 N   0  0  0  0  0  2  0  0  0  0  0  0
  187.4750  177.2100  142.4930 C   0  0  2  0  0  3  0  0  0  0  0  0
  189.0270  178.5080  141.1380 N   0  0  0  0  0  0  0  0  0  0  0  0
  185.9750  177.8110  138.9370 S   0  0  0  0  0  0  0  0  0  0  0  0
  184.0870  179.1120  141.9990 C   0  0  0  0  0  0  0  0  0  0  0  0
  186.6660  178.5350  140.4560 C   0  0  2  0  0  3  0  0  0  0  0  0
  188.4940  178.6210  138.8340 N   0  0  0  0  0  2  0  0  0  0  0  0
  185.2720  178.2600  144.0700 C   0  0  0  0  0  0  0  0  0  0  0  0
  186.7570  177.7730  146.0700 C   0  0  0  0  0  0  0  0  0  0  0  0
  188.1370  178.6320  140.2020 C   0  0  0  0  0  0  0  0  0  0  0  0
  186.2480  177.7880  141.7450 C   0  0  2  0  0  3  0  0  0  0  0  0
  191.3140  175.9600  144.2410 C   0  0  0  0  0  2  0  0  0  0  0  0
  184.1170  178.3950  144.7420 C   0  0  0  0  0  3  0  0  0  0  0  0
  182.8070  178.7300  142.6710 C   0  0  0  0  0  2  0  0  0  0  0  0
  187.6090  178.2500  136.6110 C   0  0  0  0  0  1  0  0  0  0  0  0
  191.3650  176.6320  141.8510 C   0  0  0  0  0  1  0  0  0  0  0  0
  189.1480  177.0720  145.6500 C   0  0  2  0  0  3  0  0  0  0  0  0
  191.6900  176.9960  145.3050 C   0  0  0  0  0  2  0  0  0  0  0  0
  187.4940  178.2820  138.0920 C   0  0  1  0  0  3  0  0  0  0  0  0
  189.8470  177.9230  143.3820 C   0  0  2  0  0  3  0  0  0  0  0  0
  187.0750  176.6090  143.8410 C   0  0  0  0  0  2  0  0  0  0  0  0
  185.9180  178.2310  146.8900 O   0  0  0  0  0  0  0  0  0  0  0  0
  186.3870  177.5880  144.6780 N   0  0  0  0  0  0  0  0  0  0  0  0
  182.9210  179.0750  144.1470 C   0  0  0  0  0  2  0  0  0  0  0  0
  184.0490  179.7500  140.9600 O   0  0  0  0  0  0  0  0  0  0  0  0
  190.4910  177.7400  145.9210 C   0  0  1  0  0  3  0  0  0  0  0  0
  189.5600  178.2930  144.8480 C   0  0  2  0  0  3  0  0  0  0  0  0
  185.4180  178.7510  142.6330 C   0  0  1  0  0  3  0  0  0  0  0  0
  1  5  1  6  0  0  0
  1 22  1  0  0  0  0
  2 18  1  6  0  0  0
  2 22  1  0  0  0  0
  2 14  1  0  0  0  0
  4  1  1  0  0  0  0
  4 23  1  1  0  0  0
  7 30  1  0  0  0  0
  7 16  1  0  0  0  0
  8  6  1  6  0  0  0
  8 13  1  0  0  0  0
  9 12  1  0  0  0  0
 10 25  1  0  0  0  0
 10 15  2  0  0  0  0
 11  3  1  0  0  0  0
 11 24  2  0  0  0  0
 12  8  1  0  0  0  0
 12  5  2  0  0  0  0
 13  4  1  0  0  0  0
 13 30  1  0  0  0  0
 14 20  1  0  0  0  0
 16 26  1  0  0  0  0
 17 21  1  0  0  0  0
 19 28  1  0  0  0  0
 19  3  1  0  0  0  0
 20 28  1  0  0  0  0
 21  9  1  0  0  0  0
 21  6  1  0  0  0  0
 22 29  1  0  0  0  0
 23 25  1  0  0  0  0
 25 11  1  0  0  0  0
 26 15  1  0  0  0  0
 27  7  2  0  0  0  0
 29 19  1  0  0  0  0
 29 28  1  0  0  0  0
 30 10  1  0  0  0  0
M  END
>  <MODEL>
4

>  <REMARK>
 VINA RESULT:      -9.0      2.039      3.413
  Name = 
  0 active torsions:
  status: ('A' for Active; 'I' for Inactive)
                            x       y       z     vdW  Elec       q    Type
                         _______ _______ _______ _____ _____    ______ ____

>  <TORSDO>
F 0

$$$$
=
 OpenBabel10262421583D

 30 36  0  0  1  0  0  0  0  0999 V2000
  188.7290  176.8940  141.4250 C   0  0  2  0  0  3  0  0  0  0  0  0
  190.2030  177.7620  139.4700 C   0  0  2  0  0  3  0  0  0  0  0  0
  186.0070  178.4520  138.7320 N   0  0  0  0  0  2  0  0  0  0  0  0
  188.4520  178.2930  142.0270 C   0  0  2  0  0  3  0  0  0  0  0  0
  189.8040  176.2750  142.1940 N   0  0  0  0  0  0  0  0  0  0  0  0
  189.6560  177.7820  145.7080 S   0  0  0  0  0  0  0  0  0  0  0  0
  185.9040  177.8780  144.9720 C   0  0  0  0  0  0  0  0  0  0  0  0
  188.7780  177.0980  144.2690 C   0  0  2  0  0  3  0  0  0  0  0  0
  190.9690  176.0130  144.2390 N   0  0  0  0  0  2  0  0  0  0  0  0
  185.5990  178.5010  142.5350 C   0  0  0  0  0  0  0  0  0  0  0  0
  185.3820  178.6620  140.0110 C   0  0  0  0  0  0  0  0  0  0  0  0
  189.8260  176.3720  143.4870 C   0  0  0  0  0  0  0  0  0  0  0  0
  187.9550  178.1500  143.4870 C   0  0  2  0  0  3  0  0  0  0  0  0
  190.1810  178.1430  137.9850 C   0  0  0  0  0  2  0  0  0  0  0  0
  184.3740  178.9580  142.8430 C   0  0  0  0  0  3  0  0  0  0  0  0
  184.8090  178.8510  145.2750 C   0  0  0  0  0  2  0  0  0  0  0  0
  192.0550  176.3430  146.3770 C   0  0  0  0  0  1  0  0  0  0  0  0
  191.5420  177.1280  139.7960 C   0  0  0  0  0  1  0  0  0  0  0  0
  187.4380  178.2530  138.5990 C   0  0  2  0  0  3  0  0  0  0  0  0
  189.2850  177.2330  137.1380 C   0  0  0  0  0  2  0  0  0  0  0  0
  190.9790  176.6040  145.3860 C   0  0  1  0  0  3  0  0  0  0  0  0
  189.0500  176.8340  139.9210 C   0  0  2  0  0  3  0  0  0  0  0  0
  187.5420  179.2160  141.2160 C   0  0  0  0  0  2  0  0  0  0  0  0
  184.1260  178.7260  140.0550 O   0  0  0  0  0  0  0  0  0  0  0  0
  186.1580  178.7520  141.2350 N   0  0  0  0  0  0  0  0  0  0  0  0
  183.7530  178.7360  144.1870 C   0  0  0  0  0  2  0  0  0  0  0  0
  186.3180  177.1500  145.8590 O   0  0  0  0  0  0  0  0  0  0  0  0
  187.8240  177.1510  137.6200 C   0  0  1  0  0  3  0  0  0  0  0  0
  187.7400  176.8570  139.1130 C   0  0  2  0  0  3  0  0  0  0  0  0
  186.4550  177.7660  143.5620 C   0  0  1  0  0  3  0  0  0  0  0  0
  1  4  1  0  0  0  0
  1  5  1  1  0  0  0
  2 18  1  6  0  0  0
  2 22  1  0  0  0  0
  3 11  1  0  0  0  0
  4 23  1  6  0  0  0
  4 13  1  0  0  0  0
  5 12  2  0  0  0  0
  7 16  1  0  0  0  0
  7 27  2  0  0  0  0
  8 12  1  6  0  0  0
  8  6  1  0  0  0  0
  9 21  1  0  0  0  0
 10 15  2  0  0  0  0
 10 30  1  0  0  0  0
 11 24  2  0  0  0  0
 11 25  1  0  0  0  0
 12  9  1  0  0  0  0
 13 30  1  0  0  0  0
 13  8  1  0  0  0  0
 14  2  1  0  0  0  0
 15 26  1  0  0  0  0
 19  3  1  0  0  0  0
 19 29  1  0  0  0  0
 20 28  1  0  0  0  0
 20 14  1  0  0  0  0
 21  6  1  0  0  0  0
 21 17  1  0  0  0  0
 22  1  1  0  0  0  0
 23 25  1  0  0  0  0
 25 10  1  0  0  0  0
 26 16  1  0  0  0  0
 28 19  1  0  0  0  0
 28 29  1  0  0  0  0
 29 22  1  0  0  0  0
 30  7  1  0  0  0  0
M  END
>  <MODEL>
5

>  <REMARK>
 VINA RESULT:      -8.8      2.214      5.316
  Name = 
  0 active torsions:
  status: ('A' for Active; 'I' for Inactive)
                            x       y       z     vdW  Elec       q    Type
                         _______ _______ _______ _____ _____    ______ ____

>  <TORSDO>
F 0

$$$$
=
 OpenBabel10262421583D

 30 36  0  0  1  0  0  0  0  0999 V2000
  187.5800  177.3230  143.6440 C   0  0  2  0  0  3  0  0  0  0  0  0
  185.9460  179.3160  143.3170 C   0  0  2  0  0  3  0  0  0  0  0  0
  186.2980  178.2080  147.4730 N   0  0  0  0  0  2  0  0  0  0  0  0
  188.7500  178.1840  144.1790 C   0  0  2  0  0  3  0  0  0  0  0  0
  187.8210  177.0610  142.2290 N   0  0  0  0  0  0  0  0  0  0  0  0
  191.6110  177.1840  141.7160 S   0  0  0  0  0  0  0  0  0  0  0  0
  191.6400  175.7790  145.2740 C   0  0  0  0  0  0  0  0  0  0  0  0
  190.1930  176.6500  142.7230 C   0  0  2  0  0  3  0  0  0  0  0  0
  189.3350  176.7500  140.4340 N   0  0  0  0  0  2  0  0  0  0  0  0
  189.7800  176.9040  146.5760 C   0  0  0  0  0  0  0  0  0  0  0  0
  187.6340  177.7100  147.6660 C   0  0  0  0  0  0  0  0  0  0  0  0
  189.0110  176.7580  141.8110 C   0  0  0  0  0  0  0  0  0  0  0  0
  190.0770  177.3940  144.0750 C   0  0  2  0  0  3  0  0  0  0  0  0
  184.7850  180.0780  143.9690 C   0  0  0  0  0  2  0  0  0  0  0  0
  190.4570  176.6360  147.7040 C   0  0  0  0  0  3  0  0  0  0  0  0
  192.5060  176.0030  146.4730 C   0  0  0  0  0  2  0  0  0  0  0  0
  191.1930  176.8690  138.8870 C   0  0  0  0  0  1  0  0  0  0  0  0
  185.7410  179.2970  141.8150 C   0  0  0  0  0  1  0  0  0  0  0  0
  185.8500  178.7340  146.1980 C   0  0  2  0  0  3  0  0  0  0  0  0
  183.8030  179.1670  144.7120 C   0  0  0  0  0  2  0  0  0  0  0  0
  190.6030  176.8990  140.2510 C   0  0  1  0  0  3  0  0  0  0  0  0
  186.1580  177.8780  143.8460 C   0  0  2  0  0  3  0  0  0  0  0  0
  188.5690  178.7890  145.5720 C   0  0  0  0  0  2  0  0  0  0  0  0
  187.9160  177.1770  148.7710 O   0  0  0  0  0  0  0  0  0  0  0  0
  188.6300  177.7650  146.6100 N   0  0  0  0  0  0  0  0  0  0  0  0
  191.6700  175.7570  147.7180 C   0  0  0  0  0  2  0  0  0  0  0  0
  192.0560  175.0890  144.3570 O   0  0  0  0  0  0  0  0  0  0  0  0
  184.4500  178.2860  145.7980 C   0  0  1  0  0  3  0  0  0  0  0  0
  185.6730  177.5470  145.2690 C   0  0  2  0  0  3  0  0  0  0  0  0
  190.2410  176.3660  145.2240 C   0  0  1  0  0  3  0  0  0  0  0  0
  1  5  1  6  0  0  0
  1 22  1  0  0  0  0
  1  4  1  0  0  0  0
  2 18  1  6  0  0  0
  2 22  1  0  0  0  0
  2 14  1  0  0  0  0
  3 11  1  0  0  0  0
  4 23  1  1  0  0  0
  7 16  1  0  0  0  0
  8  6  1  6  0  0  0
  8 13  1  0  0  0  0
  9 12  1  0  0  0  0
 10 25  1  0  0  0  0
 10 15  2  0  0  0  0
 11 24  2  0  0  0  0
 12  5  2  0  0  0  0
 12  8  1  0  0  0  0
 13  4  1  0  0  0  0
 13 30  1  0  0  0  0
 14 20  1  0  0  0  0
 15 26  1  0  0  0  0
 16 26  1  0  0  0  0
 17 21  1  0  0  0  0
 19  3  1  0  0  0  0
 20 28  1  0  0  0  0
 21  9  1  0  0  0  0
 21  6  1  0  0  0  0
 22 29  1  0  0  0  0
 23 25  1  0  0  0  0
 25 11  1  0  0  0  0
 27  7  2  0  0  0  0
 28 19  1  0  0  0  0
 29 28  1  0  0  0  0
 29 19  1  0  0  0  0
 30  7  1  0  0  0  0
 30 10  1  0  0  0  0
M  END
>  <MODEL>
6

>  <REMARK>
 VINA RESULT:      -8.6      2.672      5.819
  Name = 
  0 active torsions:
  status: ('A' for Active; 'I' for Inactive)
                            x       y       z     vdW  Elec       q    Type
                         _______ _______ _______ _____ _____    ______ ____

>  <TORSDO>
F 0

$$$$
=
 OpenBabel10262421583D

 30 36  0  0  1  0  0  0  0  0999 V2000
  188.1140  178.1930  145.0040 C   0  0  2  0  0  3  0  0  0  0  0  0
  185.9200  177.5030  146.2110 C   0  0  2  0  0  3  0  0  0  0  0  0
  185.1600  178.9000  142.1990 N   0  0  0  0  0  2  0  0  0  0  0  0
  188.2000  176.9210  144.1260 C   0  0  2  0  0  3  0  0  0  0  0  0
  189.0060  178.0160  146.1450 N   0  0  0  0  0  0  0  0  0  0  0  0
  191.7740  175.6250  145.0210 S   0  0  0  0  0  0  0  0  0  0  0  0
  191.2060  177.3410  141.6500 C   0  0  0  0  0  0  0  0  0  0  0  0
  190.7020  177.0480  144.6540 C   0  0  2  0  0  3  0  0  0  0  0  0
  190.9630  177.0710  147.0860 N   0  0  0  0  0  2  0  0  0  0  0  0
  188.7200  177.7550  141.3910 C   0  0  0  0  0  0  0  0  0  0  0  0
  186.3100  178.5520  141.4060 C   0  0  0  0  0  0  0  0  0  0  0  0
  190.1820  177.4920  145.9850 C   0  0  0  0  0  0  0  0  0  0  0  0
  189.6370  176.7600  143.5700 C   0  0  2  0  0  3  0  0  0  0  0  0
  184.3980  177.6860  146.2010 C   0  0  0  0  0  2  0  0  0  0  0  0
  188.8980  177.7700  140.0600 C   0  0  0  0  0  3  0  0  0  0  0  0
  191.1940  176.8680  140.2320 C   0  0  0  0  0  2  0  0  0  0  0  0
  192.8050  175.6280  147.7070 C   0  0  0  0  0  1  0  0  0  0  0  0
  186.3920  177.3770  147.6470 C   0  0  0  0  0  1  0  0  0  0  0  0
  185.0470  178.5210  143.5950 C   0  0  2  0  0  3  0  0  0  0  0  0
  183.9600  179.1100  145.8440 C   0  0  0  0  0  2  0  0  0  0  0  0
  191.8300  176.1840  146.7330 C   0  0  1  0  0  3  0  0  0  0  0  0
  186.7140  178.6150  145.4850 C   0  0  2  0  0  3  0  0  0  0  0  0
  187.1550  176.7870  143.0170 C   0  0  0  0  0  2  0  0  0  0  0  0
  186.3810  179.0030  140.2330 O   0  0  0  0  0  0  0  0  0  0  0  0
  187.3930  177.7450  141.9420 N   0  0  0  0  0  0  0  0  0  0  0  0
  190.2600  177.7660  139.4360 C   0  0  0  0  0  2  0  0  0  0  0  0
  192.2730  177.4890  142.2220 O   0  0  0  0  0  0  0  0  0  0  0  0
  184.5000  179.6220  144.4950 C   0  0  1  0  0  3  0  0  0  0  0  0
  186.0040  179.4060  144.3720 C   0  0  2  0  0  3  0  0  0  0  0  0
  189.9030  177.6790  142.3520 C   0  0  1  0  0  3  0  0  0  0  0  0
  1 22  1  0  0  0  0
  1  5  1  1  0  0  0
  2 18  1  1  0  0  0
  3 19  1  0  0  0  0
  4 23  1  6  0  0  0
  4  1  1  0  0  0  0
  6 21  1  0  0  0  0
  7 27  2  0  0  0  0
  7 30  1  0  0  0  0
  8  6  1  1  0  0  0
  8 12  1  0  0  0  0
 10 25  1  0  0  0  0
 10 30  1  0  0  0  0
 11 25  1  0  0  0  0
 11  3  1  0  0  0  0
 12  5  2  0  0  0  0
 12  9  1  0  0  0  0
 13  4  1  0  0  0  0
 13  8  1  0  0  0  0
 14  2  1  0  0  0  0
 15 10  2  0  0  0  0
 16  7  1  0  0  0  0
 19 29  1  0  0  0  0
 19 28  1  0  0  0  0
 20 14  1  0  0  0  0
 21  9  1  0  0  0  0
 21 17  1  0  0  0  0
 22  2  1  0  0  0  0
 24 11  2  0  0  0  0
 25 23  1  0  0  0  0
 26 15  1  0  0  0  0
 26 16  1  0  0  0  0
 28 20  1  0  0  0  0
 29 28  1  0  0  0  0
 29 22  1  0  0  0  0
 30 13  1  0  0  0  0
M  END
>  <MODEL>
7

>  <REMARK>
 VINA RESULT:      -8.2      2.618      7.310
  Name = 
  0 active torsions:
  status: ('A' for Active; 'I' for Inactive)
                            x       y       z     vdW  Elec       q    Type
                         _______ _______ _______ _____ _____    ______ ____

>  <TORSDO>
F 0

$$$$
=
 OpenBabel10262421583D

 30 36  0  0  1  0  0  0  0  0999 V2000
  186.3260  177.6510  142.9940 C   0  0  2  0  0  3  0  0  0  0  0  0
  186.1740  178.8580  145.2900 C   0  0  2  0  0  3  0  0  0  0  0  0
  190.1360  177.3100  144.5610 N   0  0  0  0  0  2  0  0  0  0  0  0
  187.0690  178.8040  142.2760 C   0  0  2  0  0  3  0  0  0  0  0  0
  184.9100  177.7440  142.6540 N   0  0  0  0  0  0  0  0  0  0  0  0
  184.7080  179.4410  139.2300 S   0  0  0  0  0  0  0  0  0  0  0  0
  188.0120  177.5970  138.6720 C   0  0  0  0  0  0  0  0  0  0  0  0
  185.5150  178.2310  140.3230 C   0  0  2  0  0  3  0  0  0  0  0  0
  183.2090  178.3590  141.1260 N   0  0  0  0  0  2  0  0  0  0  0  0
  189.3210  177.6610  140.8400 C   0  0  0  0  0  0  0  0  0  0  0  0
  190.3530  177.3580  143.1390 C   0  0  0  0  0  0  0  0  0  0  0  0
  184.5430  178.0100  141.4380 C   0  0  0  0  0  0  0  0  0  0  0  0
  186.9490  178.6330  140.7420 C   0  0  2  0  0  3  0  0  0  0  0  0
  186.8410  178.9780  146.6660 C   0  0  0  0  0  2  0  0  0  0  0  0
  190.4460  177.5000  140.1240 C   0  0  0  0  0  3  0  0  0  0  0  0
  189.2930  177.9440  137.9810 C   0  0  0  0  0  2  0  0  0  0  0  0
  181.8400  179.4580  139.4580 C   0  0  0  0  0  1  0  0  0  0  0  0
  184.6740  179.0070  145.4540 C   0  0  0  0  0  1  0  0  0  0  0  0
  188.9220  177.8190  145.1700 C   0  0  2  0  0  3  0  0  0  0  0  0
  187.3660  177.6430  147.2040 C   0  0  0  0  0  2  0  0  0  0  0  0
  183.1450  179.0260  140.0230 C   0  0  1  0  0  3  0  0  0  0  0  0
  186.4990  177.5550  144.5210 C   0  0  2  0  0  3  0  0  0  0  0  0
  188.5170  179.0490  142.6990 C   0  0  0  0  0  2  0  0  0  0  0  0
  191.3860  176.8060  142.6770 O   0  0  0  0  0  0  0  0  0  0  0  0
  189.3950  177.9770  142.2400 N   0  0  0  0  0  0  0  0  0  0  0  0
  190.4220  177.1850  138.6600 C   0  0  0  0  0  2  0  0  0  0  0  0
  187.0380  177.2890  138.0050 O   0  0  0  0  0  0  0  0  0  0  0  0
  188.3560  176.9250  146.2680 C   0  0  1  0  0  3  0  0  0  0  0  0
  187.8170  176.8290  144.8450 C   0  0  2  0  0  3  0  0  0  0  0  0
  187.9440  177.5810  140.1880 C   0  0  1  0  0  3  0  0  0  0  0  0
  1  5  1  1  0  0  0
  1 22  1  0  0  0  0
  2 18  1  1  0  0  0
  2 14  1  0  0  0  0
  3 19  1  0  0  0  0
  4 23  1  6  0  0  0
  4  1  1  0  0  0  0
  6 21  1  0  0  0  0
  7 30  1  0  0  0  0
  8  6  1  6  0  0  0
  8 13  1  0  0  0  0
  8 12  1  0  0  0  0
  9 12  1  0  0  0  0
 10 25  1  0  0  0  0
 11  3  1  0  0  0  0
 12  5  2  0  0  0  0
 13  4  1  0  0  0  0
 14 20  1  0  0  0  0
 15 10  2  0  0  0  0
 16 26  1  0  0  0  0
 16  7  1  0  0  0  0
 17 21  1  0  0  0  0
 19 28  1  0  0  0  0
 21  9  1  0  0  0  0
 22 29  1  0  0  0  0
 22  2  1  0  0  0  0
 24 11  2  0  0  0  0
 25 23  1  0  0  0  0
 25 11  1  0  0  0  0
 26 15  1  0  0  0  0
 27  7  2  0  0  0  0
 28 20  1  0  0  0  0
 29 19  1  0  0  0  0
 29 28  1  0  0  0  0
 30 13  1  0  0  0  0
 30 10  1  0  0  0  0
M  END
>  <MODEL>
8

>  <REMARK>
 VINA RESULT:      -8.0      2.157      5.181
  Name = 
  0 active torsions:
  status: ('A' for Active; 'I' for Inactive)
                            x       y       z     vdW  Elec       q    Type
                         _______ _______ _______ _____ _____    ______ ____

>  <TORSDO>
F 0

$$$$
=
 OpenBabel10262421583D

 30 36  0  0  1  0  0  0  0  0999 V2000
  188.0900  177.1550  142.9540 C   0  0  2  0  0  3  0  0  0  0  0  0
  189.5110  177.8510  145.0140 C   0  0  2  0  0  3  0  0  0  0  0  0
  191.9950  176.8140  141.6400 N   0  0  0  0  0  2  0  0  0  0  0  0
  188.2840  178.4870  142.1900 C   0  0  2  0  0  3  0  0  0  0  0  0
  186.7900  177.1980  143.6160 N   0  0  0  0  0  0  0  0  0  0  0  0
  184.5770  179.5360  141.5460 S   0  0  0  0  0  0  0  0  0  0  0  0
  186.6420  178.1220  138.6530 C   0  0  0  0  0  0  0  0  0  0  0  0
  185.8100  178.1990  141.5970 C   0  0  2  0  0  3  0  0  0  0  0  0
  184.5520  177.9710  143.6820 N   0  0  0  0  0  2  0  0  0  0  0  0
  189.0300  177.8490  139.4550 C   0  0  0  0  0  0  0  0  0  0  0  0
  191.2630  177.1690  140.4530 C   0  0  0  0  0  0  0  0  0  0  0  0
  185.7550  177.6760  142.9970 C   0  0  0  0  0  0  0  0  0  0  0  0
  187.2070  178.6230  141.0850 C   0  0  2  0  0  3  0  0  0  0  0  0
  190.9060  177.7420  145.6430 C   0  0  0  0  0  2  0  0  0  0  0  0
  189.4300  177.9300  138.1750 C   0  0  0  0  0  3  0  0  0  0  0  0
  187.2140  178.7060  137.4010 C   0  0  0  0  0  2  0  0  0  0  0  0
  182.5150  179.2710  143.5340 C   0  0  0  0  0  1  0  0  0  0  0  0
  188.4710  177.8400  146.1170 C   0  0  0  0  0  1  0  0  0  0  0  0
  191.4810  177.0870  142.9690 C   0  0  2  0  0  3  0  0  0  0  0  0
  191.5610  176.3730  145.4330 C   0  0  0  0  0  2  0  0  0  0  0  0
  183.8490  178.8410  143.0390 C   0  0  1  0  0  3  0  0  0  0  0  0
  189.1850  176.7640  143.9620 C   0  0  2  0  0  3  0  0  0  0  0  0
  189.6850  178.7580  141.6400 C   0  0  0  0  0  2  0  0  0  0  0  0
  191.7280  176.8090  139.3390 O   0  0  0  0  0  0  0  0  0  0  0  0
  189.9970  177.8780  140.5180 N   0  0  0  0  0  0  0  0  0  0  0  0
  188.4620  177.9190  137.0330 C   0  0  0  0  0  2  0  0  0  0  0  0
  185.4480  177.8780  138.7080 O   0  0  0  0  0  0  0  0  0  0  0  0
  191.6810  175.9450  143.9580 C   0  0  1  0  0  3  0  0  0  0  0  0
  190.3570  176.0970  143.2190 C   0  0  2  0  0  3  0  0  0  0  0  0
  187.5510  177.7910  139.8230 C   0  0  1  0  0  3  0  0  0  0  0  0
  1  5  1  1  0  0  0
  1 22  1  0  0  0  0
  2 14  1  0  0  0  0
  2 18  1  1  0  0  0
  3 19  1  0  0  0  0
  4 23  1  6  0  0  0
  4  1  1  0  0  0  0
  6 21  1  0  0  0  0
  7 27  2  0  0  0  0
  7 30  1  0  0  0  0
  8  6  1  1  0  0  0
  8 12  1  0  0  0  0
 10 30  1  0  0  0  0
 10 25  1  0  0  0  0
 11 25  1  0  0  0  0
 11  3  1  0  0  0  0
 12  5  2  0  0  0  0
 12  9  1  0  0  0  0
 13  8  1  0  0  0  0
 13  4  1  0  0  0  0
 15 10  2  0  0  0  0
 16  7  1  0  0  0  0
 19 29  1  0  0  0  0
 19 28  1  0  0  0  0
 20 14  1  0  0  0  0
 21 17  1  0  0  0  0
 21  9  1  0  0  0  0
 22  2  1  0  0  0  0
 24 11  2  0  0  0  0
 25 23  1  0  0  0  0
 26 16  1  0  0  0  0
 26 15  1  0  0  0  0
 28 20  1  0  0  0  0
 29 28  1  0  0  0  0
 29 22  1  0  0  0  0
 30 13  1  0  0  0  0
M  END
>  <MODEL>
9

>  <REMARK>
 VINA RESULT:      -7.9      2.669      5.154
  Name = 
  0 active torsions:
  status: ('A' for Active; 'I' for Inactive)
                            x       y       z     vdW  Elec       q    Type
                         _______ _______ _______ _____ _____    ______ ____

>  <TORSDO>
F 0

$$$$
