=
 OpenBabel10262419423D

 31 34  0  0  1  0  0  0  0  0999 V2000
  184.4890  178.8520  144.9360 C   0  0  0  0  0  0  0  0  0  0  0  0
  187.9930  177.5510  144.5480 C   0  0  0  0  0  0  0  0  0  0  0  0
  188.5510  177.5550  145.8540 C   0  0  0  0  0  0  0  0  0  0  0  0
  188.4120  178.0050  148.2440 C   0  0  0  0  0  3  0  0  0  0  0  0
  186.5920  177.9670  144.2440 C   0  0  0  0  0  0  0  0  0  0  0  0
  183.9370  178.5940  143.6800 C   0  0  0  0  0  3  0  0  0  0  0  0
  187.8380  178.0160  146.9720 C   0  0  0  0  0  3  0  0  0  0  0  0
  188.3020  177.1450  142.0560 C   0  0  2  0  0  3  0  0  0  0  0  0
  183.7840  179.3760  145.8370 O   0  0  0  0  0  0  0  0  0  0  0  0
  190.5800  176.6030  144.9820 N   0  0  0  0  0  0  0  0  0  0  0  0
  189.7110  177.5300  148.4190 C   0  0  0  0  0  3  0  0  0  0  0  0
  186.8760  177.1770  141.9600 O   0  0  0  0  0  0  0  0  0  0  0  0
  188.7860  177.0770  143.4810 C   0  0  0  0  0  0  0  0  0  0  0  0
  185.7860  178.5300  145.1890 N   0  0  0  0  0  0  0  0  0  0  0  0
  192.0740  176.4690  147.5950 Cl  0  0  0  0  0  0  0  0  0  0  0  0
  186.0700  177.7210  142.9620 C   0  0  1  0  0  3  0  0  0  0  0  0
  184.7350  178.0220  142.6910 C   0  0  0  0  0  3  0  0  0  0  0  0
  190.0740  176.6020  143.7250 C   0  0  0  0  0  3  0  0  0  0  0  0
  189.8700  177.0680  146.0430 C   0  0  0  0  0  0  0  0  0  0  0  0
  190.4420  177.0600  147.3270 C   0  0  0  0  0  0  0  0  0  0  0  0
  188.9320  178.3070  141.2770 C   0  0  0  0  0  2  0  0  0  0  0  0
  190.8650  177.2790  138.3370 O   0  0  0  0  0  0  0  0  0  0  0  0
  193.0030  177.2040  140.1910 C   0  0  0  0  0  1  0  0  0  0  0  0
  191.6270  177.5330  140.5220 N   0  0  0  0  0  2  0  0  0  0  0  0
  190.5960  177.5770  139.5330 C   0  0  0  0  0  0  0  0  0  0  0  0
  189.2550  177.9460  139.9000 N   0  0  0  0  0  0  0  0  0  0  0  0
  188.1420  177.6630  139.0010 C   0  0  0  0  0  2  0  0  0  0  0  0
  185.7830  178.4690  138.6250 C   0  0  0  0  0  0  0  0  0  0  0  0
  184.8070  179.4310  138.8410 O   0  0  0  0  0  1  0  0  0  0  0  0
  185.5160  177.4550  137.9270 O   0  0  0  0  0  0  0  0  0  0  0  0
  187.0790  178.6370  139.1970 N   0  0  0  0  0  2  0  0  0  0  0  0
  1 14  1  0  0  0  0
  1  9  2  0  0  0  0
  2  3  1  0  0  0  0
  3 19  2  0  0  0  0
  3  7  1  0  0  0  0
  4 11  1  0  0  0  0
  5  2  1  0  0  0  0
  5 14  2  0  0  0  0
  6  1  1  0  0  0  0
  7  4  2  0  0  0  0
  8 21  1  1  0  0  0
  8 13  1  0  0  0  0
 10 19  1  0  0  0  0
 12  8  1  0  0  0  0
 12 16  1  0  0  0  0
 13 18  1  0  0  0  0
 13  2  2  0  0  0  0
 16 17  1  1  0  0  0
 16  5  1  0  0  0  0
 17  6  2  0  0  0  0
 18 10  2  0  0  0  0
 19 20  1  0  0  0  0
 20 15  1  0  0  0  0
 20 11  2  0  0  0  0
 22 25  2  0  0  0  0
 23 24  1  0  0  0  0
 25 26  1  0  0  0  0
 25 24  1  0  0  0  0
 26 21  1  0  0  0  0
 27 31  1  0  0  0  0
 27 26  1  0  0  0  0
 28 29  1  0  0  0  0
 28 31  1  0  0  0  0
 30 28  2  0  0  0  0
M  END
>  <MODEL>
1

>  <REMARK>
 VINA RESULT:      -9.5      0.000      0.000
  Name = 
  4 active torsions:
  status: ('A' for Active; 'I' for Inactive)
    1  A    between atoms: C_6  and  N_22
    2  A    between atoms: C_6  and  N_24
    3  A    between atoms: C_15  and  C_23
    4  A    between atoms: N_22  and  C_23
                            x       y       z     vdW  Elec       q    Type
                         _______ _______ _______ _____ _____    ______ ____

>  <TORSDO>
F 4

$$$$
=
 OpenBabel10262419423D

 31 34  0  0  1  0  0  0  0  0999 V2000
  190.4810  176.8270  146.1350 C   0  0  0  0  0  0  0  0  0  0  0  0
  187.8720  177.9800  143.6880 C   0  0  0  0  0  0  0  0  0  0  0  0
  186.6770  178.1260  144.4420 C   0  0  0  0  0  0  0  0  0  0  0  0
  185.4250  177.9830  146.5260 C   0  0  0  0  0  3  0  0  0  0  0  0
  189.1790  177.5650  144.2790 C   0  0  0  0  0  0  0  0  0  0  0  0
  191.6560  176.9400  145.3900 C   0  0  0  0  0  3  0  0  0  0  0  0
  186.6130  177.8270  145.8120 C   0  0  0  0  0  3  0  0  0  0  0  0
  189.0380  178.0630  141.4300 C   0  0  2  0  0  3  0  0  0  0  0  0
  190.5300  176.4390  147.3300 O   0  0  0  0  0  0  0  0  0  0  0  0
  185.5400  178.9090  142.4720 N   0  0  0  0  0  0  0  0  0  0  0  0
  184.2780  178.4430  145.8810 C   0  0  0  0  0  3  0  0  0  0  0  0
  190.2680  178.0550  142.1590 O   0  0  0  0  0  0  0  0  0  0  0  0
  187.8410  178.2960  142.3130 C   0  0  0  0  0  0  0  0  0  0  0  0
  189.2840  177.1450  145.5720 N   0  0  0  0  0  0  0  0  0  0  0  0
  182.8440  179.3310  143.7490 Cl  0  0  0  0  0  0  0  0  0  0  0  0
  190.3430  177.6610  143.4970 C   0  0  1  0  0  3  0  0  0  0  0  0
  191.5820  177.3630  144.0640 C   0  0  0  0  0  3  0  0  0  0  0  0
  186.6640  178.7660  141.7300 C   0  0  0  0  0  3  0  0  0  0  0  0
  185.5060  178.5990  143.7950 C   0  0  0  0  0  0  0  0  0  0  0  0
  184.3120  178.7530  144.5210 C   0  0  0  0  0  0  0  0  0  0  0  0
  188.8980  176.7960  140.5750 C   0  0  0  0  0  2  0  0  0  0  0  0
  190.4530  177.2780  137.2900 O   0  0  0  0  0  0  0  0  0  0  0  0
  192.8310  176.6860  138.7060 C   0  0  0  0  0  1  0  0  0  0  0  0
  191.4990  176.6970  139.2870 N   0  0  0  0  0  2  0  0  0  0  0  0
  190.3390  177.0300  138.5210 C   0  0  0  0  0  0  0  0  0  0  0  0
  189.0440  177.0670  139.1470 N   0  0  0  0  0  0  0  0  0  0  0  0
  187.8330  177.0560  138.3350 C   0  0  0  0  0  2  0  0  0  0  0  0
  185.6390  178.2970  138.3270 C   0  0  0  0  0  0  0  0  0  0  0  0
  184.9280  179.4570  138.6000 O   0  0  0  0  0  1  0  0  0  0  0  0
  185.0440  177.3010  137.8350 O   0  0  0  0  0  0  0  0  0  0  0  0
  187.0370  178.2440  138.6050 N   0  0  0  0  0  2  0  0  0  0  0  0
  1  9  2  0  0  0  0
  2  5  1  0  0  0  0
  2  3  1  0  0  0  0
  3  7  1  0  0  0  0
  5 14  2  0  0  0  0
  6  1  1  0  0  0  0
  7  4  2  0  0  0  0
  8 21  1  1  0  0  0
  8 12  1  0  0  0  0
  8 13  1  0  0  0  0
 10 19  1  0  0  0  0
 11  4  1  0  0  0  0
 12 16  1  0  0  0  0
 13  2  2  0  0  0  0
 14  1  1  0  0  0  0
 15 20  1  0  0  0  0
 16 17  1  1  0  0  0
 16  5  1  0  0  0  0
 17  6  2  0  0  0  0
 18 13  1  0  0  0  0
 18 10  2  0  0  0  0
 19  3  2  0  0  0  0
 19 20  1  0  0  0  0
 20 11  2  0  0  0  0
 22 25  2  0  0  0  0
 23 24  1  0  0  0  0
 25 26  1  0  0  0  0
 25 24  1  0  0  0  0
 26 21  1  0  0  0  0
 27 31  1  0  0  0  0
 27 26  1  0  0  0  0
 28 29  1  0  0  0  0
 28 31  1  0  0  0  0
 30 28  2  0  0  0  0
M  END
>  <MODEL>
2

>  <REMARK>
 VINA RESULT:      -9.4      2.711      4.332
  Name = 
  4 active torsions:
  status: ('A' for Active; 'I' for Inactive)
    1  A    between atoms: C_6  and  N_22
    2  A    between atoms: C_6  and  N_24
    3  A    between atoms: C_15  and  C_23
    4  A    between atoms: N_22  and  C_23
                            x       y       z     vdW  Elec       q    Type
                         _______ _______ _______ _____ _____    ______ ____

>  <TORSDO>
F 4

$$$$
=
 OpenBabel10262419423D

 31 34  0  0  1  0  0  0  0  0999 V2000
  190.3460  176.9100  146.1980 C   0  0  0  0  0  0  0  0  0  0  0  0
  187.8200  177.9900  143.6350 C   0  0  0  0  0  0  0  0  0  0  0  0
  186.5980  178.1440  144.3420 C   0  0  0  0  0  0  0  0  0  0  0  0
  185.2720  178.0380  146.3830 C   0  0  0  0  0  3  0  0  0  0  0  0
  189.1080  177.5970  144.2810 C   0  0  0  0  0  0  0  0  0  0  0  0
  191.5470  177.0140  145.4940 C   0  0  0  0  0  3  0  0  0  0  0  0
  186.4870  177.8750  145.7150 C   0  0  0  0  0  3  0  0  0  0  0  0
  189.0660  178.0320  141.4190 C   0  0  2  0  0  3  0  0  0  0  0  0
  190.3550  176.5480  147.4030 O   0  0  0  0  0  0  0  0  0  0  0  0
  185.5270  178.8760  142.3160 N   0  0  0  0  0  0  0  0  0  0  0  0
  184.1470  178.4760  145.6870 C   0  0  0  0  0  3  0  0  0  0  0  0
  190.2680  178.0480  142.1910 O   0  0  0  0  0  0  0  0  0  0  0  0
  187.8370  178.2760  142.2530 C   0  0  0  0  0  0  0  0  0  0  0  0
  189.1690  177.2070  145.5860 N   0  0  0  0  0  0  0  0  0  0  0  0
  182.7850  179.3070  143.4870 Cl  0  0  0  0  0  0  0  0  0  0  0  0
  190.2980  177.6850  143.5390 C   0  0  1  0  0  3  0  0  0  0  0  0
  191.5180  177.4080  144.1570 C   0  0  0  0  0  3  0  0  0  0  0  0
  186.6790  178.7240  141.6180 C   0  0  0  0  0  3  0  0  0  0  0  0
  185.4480  178.5950  143.6440 C   0  0  0  0  0  0  0  0  0  0  0  0
  184.2280  178.7560  144.3230 C   0  0  0  0  0  0  0  0  0  0  0  0
  188.9650  176.7460  140.5870 C   0  0  0  0  0  2  0  0  0  0  0  0
  189.2280  177.4660  137.0020 O   0  0  0  0  0  0  0  0  0  0  0  0
  186.4850  178.1080  137.2760 C   0  0  0  0  0  1  0  0  0  0  0  0
  187.3520  177.6850  138.3630 N   0  0  0  0  0  2  0  0  0  0  0  0
  188.7260  177.3510  138.1530 C   0  0  0  0  0  0  0  0  0  0  0  0
  189.5370  176.8980  139.2520 N   0  0  0  0  0  0  0  0  0  0  0  0
  190.9900  176.8900  139.1390 C   0  0  0  0  0  2  0  0  0  0  0  0
  192.7230  175.5000  137.9480 C   0  0  0  0  0  0  0  0  0  0  0  0
  193.1010  174.2790  137.4080 O   0  0  0  0  0  0  0  0  0  0  0  0
  193.5140  176.4780  137.8930 O   0  0  0  0  0  1  0  0  0  0  0  0
  191.4410  175.6340  138.5610 N   0  0  0  0  0  2  0  0  0  0  0  0
  1  9  2  0  0  0  0
  2  5  1  0  0  0  0
  2  3  1  0  0  0  0
  3  7  1  0  0  0  0
  5 14  2  0  0  0  0
  6  1  1  0  0  0  0
  7  4  2  0  0  0  0
  8 21  1  1  0  0  0
  8 12  1  0  0  0  0
  8 13  1  0  0  0  0
 10 19  1  0  0  0  0
 11  4  1  0  0  0  0
 12 16  1  0  0  0  0
 13  2  2  0  0  0  0
 14  1  1  0  0  0  0
 15 20  1  0  0  0  0
 16 17  1  1  0  0  0
 16  5  1  0  0  0  0
 17  6  2  0  0  0  0
 18 13  1  0  0  0  0
 18 10  2  0  0  0  0
 19 20  1  0  0  0  0
 19  3  2  0  0  0  0
 20 11  2  0  0  0  0
 22 25  2  0  0  0  0
 23 24  1  0  0  0  0
 25 24  1  0  0  0  0
 25 26  1  0  0  0  0
 26 21  1  0  0  0  0
 27 26  1  0  0  0  0
 28 31  1  0  0  0  0
 29 28  2  0  0  0  0
 30 28  1  0  0  0  0
 31 27  1  0  0  0  0
M  END
>  <MODEL>
3

>  <REMARK>
 VINA RESULT:      -9.3      3.035      5.444
  Name = 
  4 active torsions:
  status: ('A' for Active; 'I' for Inactive)
    1  A    between atoms: C_6  and  N_22
    2  A    between atoms: C_6  and  N_24
    3  A    between atoms: C_15  and  C_23
    4  A    between atoms: N_22  and  C_23
                            x       y       z     vdW  Elec       q    Type
                         _______ _______ _______ _____ _____    ______ ____

>  <TORSDO>
F 4

$$$$
=
 OpenBabel10262419423D

 31 34  0  0  1  0  0  0  0  0999 V2000
  184.2180  178.8580  144.9400 C   0  0  0  0  0  0  0  0  0  0  0  0
  187.7370  177.5900  144.5830 C   0  0  0  0  0  0  0  0  0  0  0  0
  188.2850  177.6050  145.8930 C   0  0  0  0  0  0  0  0  0  0  0  0
  188.1250  178.0640  148.2800 C   0  0  0  0  0  3  0  0  0  0  0  0
  186.3330  177.9900  144.2670 C   0  0  0  0  0  0  0  0  0  0  0  0
  183.6770  178.5880  143.6820 C   0  0  0  0  0  3  0  0  0  0  0  0
  187.5600  178.0640  147.0040 C   0  0  0  0  0  3  0  0  0  0  0  0
  188.0670  177.1760  142.0960 C   0  0  2  0  0  3  0  0  0  0  0  0
  183.5010  179.3780  145.8340 O   0  0  0  0  0  0  0  0  0  0  0  0
  190.3300  176.6690  145.0400 N   0  0  0  0  0  0  0  0  0  0  0  0
  189.4280  177.6030  148.4660 C   0  0  0  0  0  3  0  0  0  0  0  0
  186.6430  177.1930  141.9890 O   0  0  0  0  0  0  0  0  0  0  0  0
  188.5420  177.1190  143.5240 C   0  0  0  0  0  0  0  0  0  0  0  0
  185.5160  178.5500  145.2040 N   0  0  0  0  0  0  0  0  0  0  0  0
  191.8070  176.5620  147.6640 Cl  0  0  0  0  0  0  0  0  0  0  0  0
  185.8240  177.7340  142.9830 C   0  0  1  0  0  3  0  0  0  0  0  0
  184.4870  178.0200  142.7010 C   0  0  0  0  0  3  0  0  0  0  0  0
  189.8330  176.6570  143.7790 C   0  0  0  0  0  3  0  0  0  0  0  0
  189.6080  177.1320  146.0940 C   0  0  0  0  0  0  0  0  0  0  0  0
  190.1710  177.1360  147.3820 C   0  0  0  0  0  0  0  0  0  0  0  0
  188.6920  178.3410  141.3160 C   0  0  0  0  0  2  0  0  0  0  0  0
  188.0430  177.8540  137.7410 O   0  0  0  0  0  0  0  0  0  0  0  0
  185.4450  178.7350  138.4400 C   0  0  0  0  0  1  0  0  0  0  0  0
  186.5610  178.6240  139.3640 N   0  0  0  0  0  2  0  0  0  0  0  0
  187.8440  178.1480  138.9510 C   0  0  0  0  0  0  0  0  0  0  0  0
  188.9110  178.0170  139.9090 N   0  0  0  0  0  0  0  0  0  0  0  0
  190.2900  177.8750  139.4590 C   0  0  0  0  0  2  0  0  0  0  0  0
  190.9520  175.8920  138.0510 C   0  0  0  0  0  0  0  0  0  0  0  0
  191.2620  174.5420  137.9700 O   0  0  0  0  0  1  0  0  0  0  0  0
  190.9580  176.5980  137.0070 O   0  0  0  0  0  0  0  0  0  0  0  0
  190.6280  176.4670  139.3150 N   0  0  0  0  0  2  0  0  0  0  0  0
  1 14  1  0  0  0  0
  1  9  2  0  0  0  0
  2  3  1  0  0  0  0
  3 19  2  0  0  0  0
  3  7  1  0  0  0  0
  4 11  1  0  0  0  0
  5  2  1  0  0  0  0
  5 14  2  0  0  0  0
  6  1  1  0  0  0  0
  7  4  2  0  0  0  0
  8 21  1  1  0  0  0
  8 13  1  0  0  0  0
 10 19  1  0  0  0  0
 12  8  1  0  0  0  0
 12 16  1  0  0  0  0
 13 18  1  0  0  0  0
 13  2  2  0  0  0  0
 16 17  1  1  0  0  0
 16  5  1  0  0  0  0
 17  6  2  0  0  0  0
 18 10  2  0  0  0  0
 19 20  1  0  0  0  0
 20 15  1  0  0  0  0
 20 11  2  0  0  0  0
 22 25  2  0  0  0  0
 23 24  1  0  0  0  0
 25 24  1  0  0  0  0
 25 26  1  0  0  0  0
 26 21  1  0  0  0  0
 27 26  1  0  0  0  0
 28 31  1  0  0  0  0
 29 28  1  0  0  0  0
 30 28  2  0  0  0  0
 31 27  1  0  0  0  0
M  END
>  <MODEL>
4

>  <REMARK>
 VINA RESULT:      -9.3      1.101      2.911
  Name = 
  4 active torsions:
  status: ('A' for Active; 'I' for Inactive)
    1  A    between atoms: C_6  and  N_22
    2  A    between atoms: C_6  and  N_24
    3  A    between atoms: C_15  and  C_23
    4  A    between atoms: N_22  and  C_23
                            x       y       z     vdW  Elec       q    Type
                         _______ _______ _______ _____ _____    ______ ____

>  <TORSDO>
F 4

$$$$
=
 OpenBabel10262419423D

 31 34  0  0  1  0  0  0  0  0999 V2000
  189.5110  177.0580  140.4390 C   0  0  0  0  0  0  0  0  0  0  0  0
  186.6860  178.2110  142.6310 C   0  0  0  0  0  0  0  0  0  0  0  0
  187.1080  177.9630  143.9640 C   0  0  0  0  0  0  0  0  0  0  0  0
  188.7320  177.1350  145.5810 C   0  0  0  0  0  3  0  0  0  0  0  0
  187.5250  177.9280  141.4290 C   0  0  0  0  0  0  0  0  0  0  0  0
  189.1340  177.5490  139.1880 C   0  0  0  0  0  3  0  0  0  0  0  0
  188.3430  177.3640  144.2600 C   0  0  0  0  0  3  0  0  0  0  0  0
  184.8640  179.0030  141.0430 C   0  0  2  0  0  3  0  0  0  0  0  0
  190.5950  176.4330  140.5680 O   0  0  0  0  0  0  0  0  0  0  0  0
  185.0650  178.9320  144.7840 N   0  0  0  0  0  0  0  0  0  0  0  0
  187.8900  177.5030  146.6300 C   0  0  0  0  0  3  0  0  0  0  0  0
  185.8820  179.0650  140.0410 O   0  0  0  0  0  0  0  0  0  0  0  0
  185.4240  178.8090  142.4270 C   0  0  0  0  0  0  0  0  0  0  0  0
  188.7110  177.2620  141.5200 N   0  0  0  0  0  0  0  0  0  0  0  0
  185.6320  178.5530  147.7190 Cl  0  0  0  0  0  0  0  0  0  0  0  0
  187.1070  178.4090  140.1760 C   0  0  1  0  0  3  0  0  0  0  0  0
  187.9260  178.2310  139.0610 C   0  0  0  0  0  3  0  0  0  0  0  0
  184.6350  179.1670  143.5210 C   0  0  0  0  0  3  0  0  0  0  0  0
  186.2610  178.3380  145.0390 C   0  0  0  0  0  0  0  0  0  0  0  0
  186.6590  178.1040  146.3660 C   0  0  0  0  0  0  0  0  0  0  0  0
  183.8050  177.9510  140.6860 C   0  0  0  0  0  2  0  0  0  0  0  0
  181.9560  178.6350  137.5950 O   0  0  0  0  0  0  0  0  0  0  0  0
  183.9830  177.0380  136.4310 C   0  0  0  0  0  1  0  0  0  0  0  0
  183.8710  177.3350  137.8490 N   0  0  0  0  0  2  0  0  0  0  0  0
  182.8360  178.1710  138.3710 C   0  0  0  0  0  0  0  0  0  0  0  0
  182.7860  178.4700  139.7780 N   0  0  0  0  0  0  0  0  0  0  0  0
  181.5710  179.0140  140.3720 C   0  0  0  0  0  2  0  0  0  0  0  0
  180.7890  179.2110  142.7600 C   0  0  0  0  0  0  0  0  0  0  0  0
  180.6210  178.6280  144.0080 O   0  0  0  0  0  1  0  0  0  0  0  0
  180.4300  180.4050  142.5760 O   0  0  0  0  0  0  0  0  0  0  0  0
  181.3670  178.4530  141.6980 N   0  0  0  0  0  2  0  0  0  0  0  0
  1  9  2  0  0  0  0
  1 14  1  0  0  0  0
  2  3  1  0  0  0  0
  3  7  2  0  0  0  0
  3 19  1  0  0  0  0
  4 11  2  0  0  0  0
  5 14  2  0  0  0  0
  5  2  1  0  0  0  0
  6  1  1  0  0  0  0
  7  4  1  0  0  0  0
  8 21  1  6  0  0  0
  8 13  1  0  0  0  0
 10 19  1  0  0  0  0
 12 16  1  0  0  0  0
 12  8  1  0  0  0  0
 13  2  2  0  0  0  0
 13 18  1  0  0  0  0
 16 17  1  1  0  0  0
 16  5  1  0  0  0  0
 17  6  2  0  0  0  0
 18 10  2  0  0  0  0
 19 20  2  0  0  0  0
 20 11  1  0  0  0  0
 20 15  1  0  0  0  0
 22 25  2  0  0  0  0
 23 24  1  0  0  0  0
 24 25  1  0  0  0  0
 25 26  1  0  0  0  0
 26 27  1  0  0  0  0
 26 21  1  0  0  0  0
 27 31  1  0  0  0  0
 28 29  1  0  0  0  0
 30 28  2  0  0  0  0
 31 28  1  0  0  0  0
M  END
>  <MODEL>
5

>  <REMARK>
 VINA RESULT:      -8.9      2.783      5.885
  Name = 
  4 active torsions:
  status: ('A' for Active; 'I' for Inactive)
    1  A    between atoms: C_6  and  N_22
    2  A    between atoms: C_6  and  N_24
    3  A    between atoms: C_15  and  C_23
    4  A    between atoms: N_22  and  C_23
                            x       y       z     vdW  Elec       q    Type
                         _______ _______ _______ _____ _____    ______ ____

>  <TORSDO>
F 4

$$$$
=
 OpenBabel10262419423D

 31 34  0  0  1  0  0  0  0  0999 V2000
  189.4030  177.1080  145.9090 C   0  0  0  0  0  0  0  0  0  0  0  0
  188.2610  177.9280  142.4250 C   0  0  0  0  0  0  0  0  0  0  0  0
  186.8630  178.1560  142.5240 C   0  0  0  0  0  0  0  0  0  0  0  0
  184.7910  178.2610  143.8010 C   0  0  0  0  0  3  0  0  0  0  0  0
  189.1310  177.6000  143.5930 C   0  0  0  0  0  0  0  0  0  0  0  0
  190.7930  177.1380  145.7800 C   0  0  0  0  0  3  0  0  0  0  0  0
  186.1650  178.0280  143.7350 C   0  0  0  0  0  3  0  0  0  0  0  0
  190.3320  177.7410  140.9620 C   0  0  2  0  0  3  0  0  0  0  0  0
  188.8820  176.8710  147.0290 O   0  0  0  0  0  0  0  0  0  0  0  0
  186.7900  178.6810  140.1770 N   0  0  0  0  0  0  0  0  0  0  0  0
  184.0900  178.6290  142.6530 C   0  0  0  0  0  3  0  0  0  0  0  0
  191.0910  177.8330  142.1700 O   0  0  0  0  0  0  0  0  0  0  0  0
  188.8770  178.0720  141.1640 C   0  0  0  0  0  0  0  0  0  0  0  0
  188.6130  177.3440  144.8280 N   0  0  0  0  0  0  0  0  0  0  0  0
  183.8340  179.2360  140.0160 Cl  0  0  0  0  0  0  0  0  0  0  0  0
  190.5270  177.6090  143.4270 C   0  0  1  0  0  3  0  0  0  0  0  0
  191.3540  177.3930  144.5300 C   0  0  0  0  0  3  0  0  0  0  0  0
  188.1210  178.4560  140.0560 C   0  0  0  0  0  3  0  0  0  0  0  0
  186.1410  178.5360  141.3620 C   0  0  0  0  0  0  0  0  0  0  0  0
  184.7570  178.7690  141.4360 C   0  0  0  0  0  0  0  0  0  0  0  0
  190.5360  176.3780  140.2880 C   0  0  0  0  0  2  0  0  0  0  0  0
  190.8120  176.3880  136.6320 O   0  0  0  0  0  0  0  0  0  0  0  0
  188.0560  175.7510  136.7620 C   0  0  0  0  0  1  0  0  0  0  0  0
  188.9070  176.0020  137.9140 N   0  0  0  0  0  2  0  0  0  0  0  0
  190.2990  176.2940  137.7810 C   0  0  0  0  0  0  0  0  0  0  0  0
  191.1120  176.4960  138.9510 N   0  0  0  0  0  0  0  0  0  0  0  0
  192.4210  177.1280  138.8380 C   0  0  0  0  0  2  0  0  0  0  0  0
  194.2530  175.9810  137.5410 C   0  0  0  0  0  0  0  0  0  0  0  0
  195.2260  174.9940  137.4780 O   0  0  0  0  0  1  0  0  0  0  0  0
  194.0810  176.7510  136.5590 O   0  0  0  0  0  0  0  0  0  0  0  0
  193.4580  176.1150  138.7180 N   0  0  0  0  0  2  0  0  0  0  0  0
  1  9  2  0  0  0  0
  2  3  1  0  0  0  0
  2  5  1  0  0  0  0
  3  7  1  0  0  0  0
  5 14  2  0  0  0  0
  6  1  1  0  0  0  0
  7  4  2  0  0  0  0
  8 21  1  1  0  0  0
  8 13  1  0  0  0  0
  8 12  1  0  0  0  0
 10 19  1  0  0  0  0
 11  4  1  0  0  0  0
 12 16  1  0  0  0  0
 13  2  2  0  0  0  0
 14  1  1  0  0  0  0
 15 20  1  0  0  0  0
 16  5  1  0  0  0  0
 16 17  1  1  0  0  0
 17  6  2  0  0  0  0
 18 10  2  0  0  0  0
 18 13  1  0  0  0  0
 19 20  1  0  0  0  0
 19  3  2  0  0  0  0
 20 11  2  0  0  0  0
 22 25  2  0  0  0  0
 23 24  1  0  0  0  0
 25 24  1  0  0  0  0
 25 26  1  0  0  0  0
 26 21  1  0  0  0  0
 27 26  1  0  0  0  0
 28 31  1  0  0  0  0
 29 28  1  0  0  0  0
 30 28  2  0  0  0  0
 31 27  1  0  0  0  0
M  END
>  <MODEL>
6

>  <REMARK>
 VINA RESULT:      -8.6      3.310      5.936
  Name = 
  4 active torsions:
  status: ('A' for Active; 'I' for Inactive)
    1  A    between atoms: C_6  and  N_22
    2  A    between atoms: C_6  and  N_24
    3  A    between atoms: C_15  and  C_23
    4  A    between atoms: N_22  and  C_23
                            x       y       z     vdW  Elec       q    Type
                         _______ _______ _______ _____ _____    ______ ____

>  <TORSDO>
F 4

$$$$
=
 OpenBabel10262419423D

 31 34  0  0  1  0  0  0  0  0999 V2000
  189.6000  177.0220  140.4720 C   0  0  0  0  0  0  0  0  0  0  0  0
  186.7640  178.1950  142.6400 C   0  0  0  0  0  0  0  0  0  0  0  0
  187.1770  177.9520  143.9770 C   0  0  0  0  0  0  0  0  0  0  0  0
  188.7880  177.1270  145.6080 C   0  0  0  0  0  3  0  0  0  0  0  0
  187.6110  177.9030  141.4450 C   0  0  0  0  0  0  0  0  0  0  0  0
  189.2330  177.5080  139.2160 C   0  0  0  0  0  3  0  0  0  0  0  0
  188.4080  177.3510  144.2840 C   0  0  0  0  0  3  0  0  0  0  0  0
  184.9560  178.9840  141.0360 C   0  0  2  0  0  3  0  0  0  0  0  0
  190.6820  176.3950  140.6110 O   0  0  0  0  0  0  0  0  0  0  0  0
  185.1320  178.9310  144.7790 N   0  0  0  0  0  0  0  0  0  0  0  0
  187.9410  177.5030  146.6500 C   0  0  0  0  0  3  0  0  0  0  0  0
  185.9800  179.0380  140.0410 O   0  0  0  0  0  0  0  0  0  0  0  0
  185.5050  178.7960  142.4250 C   0  0  0  0  0  0  0  0  0  0  0  0
  188.7940  177.2340  141.5470 N   0  0  0  0  0  0  0  0  0  0  0  0
  185.6790  178.5650  147.7190 Cl  0  0  0  0  0  0  0  0  0  0  0  0
  187.2020  178.3800  140.1870 C   0  0  1  0  0  3  0  0  0  0  0  0
  188.0270  178.1930  139.0780 C   0  0  0  0  0  3  0  0  0  0  0  0
  184.7110  179.1610  143.5120 C   0  0  0  0  0  3  0  0  0  0  0  0
  186.3250  178.3350  145.0440 C   0  0  0  0  0  0  0  0  0  0  0  0
  186.7130  178.1060  146.3750 C   0  0  0  0  0  0  0  0  0  0  0  0
  183.8960  177.9340  140.6780 C   0  0  0  0  0  2  0  0  0  0  0  0
  180.6410  179.4830  140.0070 O   0  0  0  0  0  0  0  0  0  0  0  0
  180.4120  179.4210  142.8280 C   0  0  0  0  0  1  0  0  0  0  0  0
  181.5710  178.9670  142.0790 N   0  0  0  0  0  2  0  0  0  0  0  0
  181.6140  179.0030  140.6500 C   0  0  0  0  0  0  0  0  0  0  0  0
  182.7680  178.5060  139.9470 N   0  0  0  0  0  0  0  0  0  0  0  0
  182.9780  178.8470  138.5460 C   0  0  0  0  0  2  0  0  0  0  0  0
  183.9270  177.0450  137.0610 C   0  0  0  0  0  0  0  0  0  0  0  0
  183.7190  175.9210  136.2740 O   0  0  0  0  0  0  0  0  0  0  0  0
  185.0920  177.5070  137.1930 O   0  0  0  0  0  1  0  0  0  0  0  0
  182.8200  177.6650  137.7130 N   0  0  0  0  0  2  0  0  0  0  0  0
  1  9  2  0  0  0  0
  1 14  1  0  0  0  0
  2  3  1  0  0  0  0
  3  7  2  0  0  0  0
  3 19  1  0  0  0  0
  4 11  2  0  0  0  0
  5 14  2  0  0  0  0
  5  2  1  0  0  0  0
  6  1  1  0  0  0  0
  7  4  1  0  0  0  0
  8 21  1  6  0  0  0
  8 13  1  0  0  0  0
 10 19  1  0  0  0  0
 12 16  1  0  0  0  0
 12  8  1  0  0  0  0
 13  2  2  0  0  0  0
 13 18  1  0  0  0  0
 16 17  1  1  0  0  0
 16  5  1  0  0  0  0
 17  6  2  0  0  0  0
 18 10  2  0  0  0  0
 19 20  2  0  0  0  0
 20 11  1  0  0  0  0
 20 15  1  0  0  0  0
 22 25  2  0  0  0  0
 24 23  1  0  0  0  0
 25 24  1  0  0  0  0
 26 25  1  0  0  0  0
 26 21  1  0  0  0  0
 27 26  1  0  0  0  0
 28 30  1  0  0  0  0
 28 31  1  0  0  0  0
 29 28  2  0  0  0  0
 31 27  1  0  0  0  0
M  END
>  <MODEL>
7

>  <REMARK>
 VINA RESULT:      -8.5      2.677      5.918
  Name = 
  4 active torsions:
  status: ('A' for Active; 'I' for Inactive)
    1  A    between atoms: C_6  and  N_22
    2  A    between atoms: C_6  and  N_24
    3  A    between atoms: C_15  and  C_23
    4  A    between atoms: N_22  and  C_23
                            x       y       z     vdW  Elec       q    Type
                         _______ _______ _______ _____ _____    ______ ____

>  <TORSDO>
F 4

$$$$
=
 OpenBabel10262419423D

 31 34  0  0  1  0  0  0  0  0999 V2000
  185.7160  179.1090  146.2780 C   0  0  0  0  0  0  0  0  0  0  0  0
  188.4130  177.2670  144.4220 C   0  0  0  0  0  0  0  0  0  0  0  0
  189.3940  176.9400  145.3950 C   0  0  0  0  0  0  0  0  0  0  0  0
  190.2540  176.9860  147.6740 C   0  0  0  0  0  3  0  0  0  0  0  0
  187.1410  177.9820  144.7350 C   0  0  0  0  0  0  0  0  0  0  0  0
  184.6970  179.1800  145.3270 C   0  0  0  0  0  3  0  0  0  0  0  0
  189.2740  177.3240  146.7400 C   0  0  0  0  0  3  0  0  0  0  0  0
  187.6810  177.2490  141.9860 C   0  0  2  0  0  3  0  0  0  0  0  0
  185.5370  179.5900  147.4270 O   0  0  0  0  0  0  0  0  0  0  0  0
  190.6730  175.7930  143.7110 N   0  0  0  0  0  0  0  0  0  0  0  0
  191.3720  176.2540  147.2780 C   0  0  0  0  0  3  0  0  0  0  0  0
  186.3710  177.5620  142.4660 O   0  0  0  0  0  0  0  0  0  0  0  0
  188.6220  176.8460  143.0910 C   0  0  0  0  0  0  0  0  0  0  0  0
  186.8980  178.5130  145.9670 N   0  0  0  0  0  0  0  0  0  0  0  0
  192.9420  174.9320  145.4950 Cl  0  0  0  0  0  0  0  0  0  0  0  0
  186.1430  178.0640  143.7480 C   0  0  1  0  0  3  0  0  0  0  0  0
  184.9150  178.6500  144.0560 C   0  0  0  0  0  3  0  0  0  0  0  0
  189.7560  176.1040  142.7620 C   0  0  0  0  0  3  0  0  0  0  0  0
  190.5340  176.1910  145.0030 C   0  0  0  0  0  0  0  0  0  0  0  0
  191.5170  175.8540  145.9490 C   0  0  0  0  0  0  0  0  0  0  0  0
  188.2390  178.3910  141.1270 C   0  0  0  0  0  2  0  0  0  0  0  0
  189.6920  177.3180  137.9360 O   0  0  0  0  0  0  0  0  0  0  0  0
  192.0730  177.1670  139.4600 C   0  0  0  0  0  1  0  0  0  0  0  0
  190.7700  177.5370  139.9880 N   0  0  0  0  0  2  0  0  0  0  0  0
  189.6090  177.6180  139.1590 C   0  0  0  0  0  0  0  0  0  0  0  0
  188.3470  178.0270  139.7170 N   0  0  0  0  0  0  0  0  0  0  0  0
  187.1070  177.7830  138.9890 C   0  0  0  0  0  2  0  0  0  0  0  0
  184.8690  178.9320  139.1330 C   0  0  0  0  0  0  0  0  0  0  0  0
  184.1320  180.1080  139.1140 O   0  0  0  0  0  0  0  0  0  0  0  0
  184.2780  177.8290  139.2820 O   0  0  0  0  0  1  0  0  0  0  0  0
  186.2860  178.9840  138.9820 N   0  0  0  0  0  2  0  0  0  0  0  0
  1  9  2  0  0  0  0
  2  5  1  0  0  0  0
  2  3  1  0  0  0  0
  3  7  1  0  0  0  0
  5 14  2  0  0  0  0
  6  1  1  0  0  0  0
  7  4  2  0  0  0  0
  8 21  1  1  0  0  0
  8 12  1  0  0  0  0
  8 13  1  0  0  0  0
 10 19  1  0  0  0  0
 11  4  1  0  0  0  0
 12 16  1  0  0  0  0
 13  2  2  0  0  0  0
 14  1  1  0  0  0  0
 15 20  1  0  0  0  0
 16 17  1  1  0  0  0
 16  5  1  0  0  0  0
 17  6  2  0  0  0  0
 18 13  1  0  0  0  0
 18 10  2  0  0  0  0
 19  3  2  0  0  0  0
 19 20  1  0  0  0  0
 20 11  2  0  0  0  0
 22 25  2  0  0  0  0
 23 24  1  0  0  0  0
 25 26  1  0  0  0  0
 25 24  1  0  0  0  0
 26 21  1  0  0  0  0
 27 26  1  0  0  0  0
 28 30  1  0  0  0  0
 29 28  2  0  0  0  0
 31 27  1  0  0  0  0
 31 28  1  0  0  0  0
M  END
>  <MODEL>
8

>  <REMARK>
 VINA RESULT:      -8.4      1.256      1.459
  Name = 
  4 active torsions:
  status: ('A' for Active; 'I' for Inactive)
    1  A    between atoms: C_6  and  N_22
    2  A    between atoms: C_6  and  N_24
    3  A    between atoms: C_15  and  C_23
    4  A    between atoms: N_22  and  C_23
                            x       y       z     vdW  Elec       q    Type
                         _______ _______ _______ _____ _____    ______ ____

>  <TORSDO>
F 4

$$$$
=
 OpenBabel10262419423D

 31 34  0  0  1  0  0  0  0  0999 V2000
  189.7310  177.1920  140.3460 C   0  0  0  0  0  0  0  0  0  0  0  0
  186.6660  178.1650  142.2900 C   0  0  0  0  0  0  0  0  0  0  0  0
  186.9930  177.9500  143.6550 C   0  0  0  0  0  0  0  0  0  0  0  0
  188.5290  177.2370  145.4060 C   0  0  0  0  0  3  0  0  0  0  0  0
  187.6180  177.9340  141.1630 C   0  0  0  0  0  0  0  0  0  0  0  0
  189.4270  177.6520  139.0640 C   0  0  0  0  0  3  0  0  0  0  0  0
  188.2360  177.4350  144.0560 C   0  0  0  0  0  3  0  0  0  0  0  0
  184.9330  178.8300  140.5510 C   0  0  2  0  0  3  0  0  0  0  0  0
  190.8390  176.6410  140.5680 O   0  0  0  0  0  0  0  0  0  0  0  0
  184.8310  178.7860  144.2970 N   0  0  0  0  0  0  0  0  0  0  0  0
  187.5820  177.5530  146.3790 C   0  0  0  0  0  3  0  0  0  0  0  0
  186.0230  178.9550  139.6350 O   0  0  0  0  0  0  0  0  0  0  0  0
  185.3890  178.6790  141.9790 C   0  0  0  0  0  0  0  0  0  0  0  0
  188.8330  177.3480  141.3560 N   0  0  0  0  0  0  0  0  0  0  0  0
  185.1790  178.4560  147.2710 Cl  0  0  0  0  0  0  0  0  0  0  0  0
  187.2730  178.3820  139.8760 C   0  0  1  0  0  3  0  0  0  0  0  0
  188.1910  178.2530  138.8330 C   0  0  0  0  0  3  0  0  0  0  0  0
  184.4920  178.9880  143.0010 C   0  0  0  0  0  3  0  0  0  0  0  0
  186.0380  178.2740  144.6540 C   0  0  0  0  0  0  0  0  0  0  0  0
  186.3400  178.0710  146.0110 C   0  0  0  0  0  0  0  0  0  0  0  0
  183.9780  177.7100  140.1190 C   0  0  0  0  0  2  0  0  0  0  0  0
  182.8820  177.8670  136.6240 O   0  0  0  0  0  0  0  0  0  0  0  0
  185.0740  176.1230  136.2140 C   0  0  0  0  0  1  0  0  0  0  0  0
  184.6570  176.6440  137.5050 N   0  0  0  0  0  2  0  0  0  0  0  0
  183.5530  177.5430  137.6410 C   0  0  0  0  0  0  0  0  0  0  0  0
  183.2000  178.0650  138.9350 N   0  0  0  0  0  0  0  0  0  0  0  0
  181.8980  178.6860  139.1470 C   0  0  0  0  0  2  0  0  0  0  0  0
  181.3430  180.8830  138.0430 C   0  0  0  0  0  0  0  0  0  0  0  0
  181.4900  182.2620  137.9990 O   0  0  0  0  0  1  0  0  0  0  0  0
  180.6200  180.3050  137.1880 O   0  0  0  0  0  0  0  0  0  0  0  0
  182.0120  180.1330  139.0560 N   0  0  0  0  0  2  0  0  0  0  0  0
  1  9  2  0  0  0  0
  1 14  1  0  0  0  0
  2  3  1  0  0  0  0
  3  7  2  0  0  0  0
  3 19  1  0  0  0  0
  4 11  2  0  0  0  0
  5 14  2  0  0  0  0
  5  2  1  0  0  0  0
  6  1  1  0  0  0  0
  7  4  1  0  0  0  0
  8 21  1  6  0  0  0
  8 13  1  0  0  0  0
 10 19  1  0  0  0  0
 12 16  1  0  0  0  0
 12  8  1  0  0  0  0
 13  2  2  0  0  0  0
 13 18  1  0  0  0  0
 16 17  1  1  0  0  0
 16  5  1  0  0  0  0
 17  6  2  0  0  0  0
 18 10  2  0  0  0  0
 19 20  2  0  0  0  0
 20 11  1  0  0  0  0
 20 15  1  0  0  0  0
 22 25  2  0  0  0  0
 23 24  1  0  0  0  0
 24 25  1  0  0  0  0
 25 26  1  0  0  0  0
 26 27  1  0  0  0  0
 26 21  1  0  0  0  0
 28 31  1  0  0  0  0
 29 28  1  0  0  0  0
 30 28  2  0  0  0  0
 31 27  1  0  0  0  0
M  END
>  <MODEL>
9

>  <REMARK>
 VINA RESULT:      -8.4      2.875      5.621
  Name = 
  4 active torsions:
  status: ('A' for Active; 'I' for Inactive)
    1  A    between atoms: C_6  and  N_22
    2  A    between atoms: C_6  and  N_24
    3  A    between atoms: C_15  and  C_23
    4  A    between atoms: N_22  and  C_23
                            x       y       z     vdW  Elec       q    Type
                         _______ _______ _______ _____ _____    ______ ____

>  <TORSDO>
F 4

$$$$
