=
 OpenBabel10262421203D

 32 34  0  0  1  0  0  0  0  0999 V2000
  188.9900  177.3260  143.7250 C   0  0  0  0  0  2  0  0  0  0  0  0
  191.3260  177.8000  142.6070 C   0  0  2  0  0  3  0  0  0  0  0  0
  191.4190  176.9390  143.8520 C   0  0  0  0  0  2  0  0  0  0  0  0
  190.3600  178.0250  143.7800 C   0  0  2  0  0  3  0  0  0  0  0  0
  190.7370  177.0890  141.4110 C   0  0  0  0  0  0  0  0  0  0  0  0
  190.5500  175.8420  141.4280 O   0  0  0  0  0  0  0  0  0  0  0  0
  190.4070  177.7990  140.2470 O   0  0  0  0  0  0  0  0  0  0  0  0
  189.5310  177.3240  139.2190 C   0  0  1  0  0  3  0  0  0  0  0  0
  188.3060  178.2190  139.0400 C   0  0  0  0  0  2  0  0  0  0  0  0
  187.7840  178.1640  137.6170 C   0  0  2  0  0  3  0  0  0  0  0  0
  187.7940  179.4420  137.0560 O   0  0  0  0  0  1  0  0  0  0  0  0
  186.3670  177.6350  137.6290 C   0  0  0  0  0  1  0  0  0  0  0  0
  190.2850  177.1520  137.9050 C   0  0  0  0  0  2  0  0  0  0  0  0
  191.0510  174.9170  138.2260 O   0  0  0  0  0  0  0  0  0  0  0  0
  192.7250  176.5100  137.9860 N   0  0  0  0  0  1  0  0  0  0  0  0
  191.3560  176.1250  138.0390 C   0  0  0  0  0  0  0  0  0  0  0  0
  188.3740  177.0780  145.0430 N   0  0  0  0  0  0  0  0  0  0  0  0
  186.9760  177.3180  144.9730 N   0  0  0  0  0  0  0  0  0  0  0  0
  186.6610  178.4100  145.9070 C   0  0  0  0  0  2  0  0  0  0  0  0
  183.2200  178.5970  142.1860 C   0  0  0  0  0  3  0  0  0  0  0  0
  186.6460  177.8370  143.6330 C   0  0  0  0  0  2  0  0  0  0  0  0
  183.1560  179.0140  144.5720 C   0  0  0  0  0  3  0  0  0  0  0  0
  184.4960  178.6310  144.6780 C   0  0  0  0  0  0  0  0  0  0  0  0
  185.1470  178.5850  146.0290 C   0  0  0  0  0  2  0  0  0  0  0  0
  185.1930  178.2030  143.5330 C   0  0  0  0  0  0  0  0  0  0  0  0
  182.5190  179.0000  143.3270 C   0  0  0  0  0  3  0  0  0  0  0  0
  184.5580  178.2040  142.2880 C   0  0  0  0  0  3  0  0  0  0  0  0
  188.9990  177.9640  146.0350 C   0  0  0  0  0  2  0  0  0  0  0  0
  189.3240  177.1900  147.3010 C   0  0  1  0  0  3  0  0  0  0  0  0
  190.7440  176.6570  147.2320 C   0  0  0  0  0  1  0  0  0  0  0  0
  187.9340  177.9140  149.1020 O   0  0  0  0  0  1  0  0  0  0  0  0
  189.1770  178.1120  148.4970 C   0  0  0  0  0  2  0  0  0  0  0  0
  1 17  1  0  0  0  0
  2  5  1  6  0  0  0
  2  4  1  0  0  0  0
  2  3  1  0  0  0  0
  4  1  1  6  0  0  0
  4  3  1  0  0  0  0
  5  6  2  0  0  0  0
  7  5  1  0  0  0  0
  8 13  1  6  0  0  0
  8  7  1  0  0  0  0
  9  8  1  0  0  0  0
 10 12  1  1  0  0  0
 10  9  1  0  0  0  0
 11 10  1  0  0  0  0
 13 16  1  0  0  0  0
 15 16  1  0  0  0  0
 16 14  2  0  0  0  0
 17 28  1  0  0  0  0
 18 17  1  0  0  0  0
 18 19  1  0  0  0  0
 19 24  1  0  0  0  0
 20 27  2  0  0  0  0
 20 26  1  0  0  0  0
 21 18  1  0  0  0  0
 22 23  1  0  0  0  0
 23 24  1  0  0  0  0
 25 21  1  0  0  0  0
 25 23  2  0  0  0  0
 26 22  2  0  0  0  0
 27 25  1  0  0  0  0
 28 29  1  0  0  0  0
 29 30  1  6  0  0  0
 29 32  1  0  0  0  0
 32 31  1  0  0  0  0
M  END
>  <MODEL>
1

>  <REMARK>
 VINA RESULT:      -8.3      0.000      0.000
  Name = 
  13 active torsions:
  status: ('A' for Active; 'I' for Inactive)
    1  A    between atoms: C_1  and  N_5
    2  A    between atoms: C_1  and  C_30
    3  A    between atoms: N_2  and  N_5
    4  A    between atoms: C_3  and  C_8
    5  A    between atoms: C_3  and  C_20
    6  A    between atoms: C_4  and  C_24
    7  A    between atoms: N_5  and  C_14
    8  A    between atoms: C_13  and  C_14
    9  A    between atoms: C_13  and  C_29
   10  A    between atoms: C_15  and  C_20
   11  A    between atoms: C_15  and  C_26
   12  A    between atoms: O_16  and  C_20
   13  A    between atoms: O_16  and  C_24
                            x       y       z     vdW  Elec       q    Type
                         _______ _______ _______ _____ _____    ______ ____

>  <TORSDO>
F 13

$$$$
=
 OpenBabel10262421203D

 32 34  0  0  1  0  0  0  0  0999 V2000
  188.7720  176.7510  143.9240 C   0  0  0  0  0  2  0  0  0  0  0  0
  190.4970  178.0440  142.4140 C   0  0  2  0  0  3  0  0  0  0  0  0
  191.0080  176.6990  142.8930 C   0  0  0  0  0  2  0  0  0  0  0  0
  190.1030  177.5130  143.8010 C   0  0  2  0  0  3  0  0  0  0  0  0
  189.4230  177.9530  141.3560 C   0  0  0  0  0  0  0  0  0  0  0  0
  188.4910  178.8020  141.3060 O   0  0  0  0  0  0  0  0  0  0  0  0
  189.4260  176.9080  140.4200 O   0  0  0  0  0  0  0  0  0  0  0  0
  189.8240  177.0370  139.0500 C   0  0  1  0  0  3  0  0  0  0  0  0
  190.8580  175.9890  138.6440 C   0  0  0  0  0  2  0  0  0  0  0  0
  190.4560  175.2830  137.3630 C   0  0  2  0  0  3  0  0  0  0  0  0
  190.4040  173.9050  137.5750 O   0  0  0  0  0  1  0  0  0  0  0  0
  191.4790  175.5850  136.2900 C   0  0  0  0  0  1  0  0  0  0  0  0
  188.6090  176.9980  138.1310 C   0  0  0  0  0  2  0  0  0  0  0  0
  188.9670  179.3280  137.7700 O   0  0  0  0  0  0  0  0  0  0  0  0
  186.7610  178.6270  137.5780 N   0  0  0  0  0  1  0  0  0  0  0  0
  188.1420  178.3770  137.8100 C   0  0  0  0  0  0  0  0  0  0  0  0
  188.1560  176.8030  145.2650 N   0  0  0  0  0  0  0  0  0  0  0  0
  186.7830  177.1470  145.1500 N   0  0  0  0  0  0  0  0  0  0  0  0
  186.5230  178.2650  146.0710 C   0  0  0  0  0  2  0  0  0  0  0  0
  183.2240  178.6910  142.2420 C   0  0  0  0  0  3  0  0  0  0  0  0
  186.5360  177.6820  143.7990 C   0  0  0  0  0  2  0  0  0  0  0  0
  183.1160  179.1230  144.6240 C   0  0  0  0  0  3  0  0  0  0  0  0
  184.4200  178.6420  144.7730 C   0  0  0  0  0  0  0  0  0  0  0  0
  185.0230  178.5540  146.1440 C   0  0  0  0  0  2  0  0  0  0  0  0
  185.1190  178.1570  143.6510 C   0  0  0  0  0  0  0  0  0  0  0  0
  182.5200  179.1500  143.3590 C   0  0  0  0  0  3  0  0  0  0  0  0
  184.5240  178.1980  142.3880 C   0  0  0  0  0  3  0  0  0  0  0  0
  188.8700  177.7990  146.0770 C   0  0  0  0  0  2  0  0  0  0  0  0
  189.3820  177.1640  147.3580 C   0  0  1  0  0  3  0  0  0  0  0  0
  190.8360  176.7590  147.1910 C   0  0  0  0  0  1  0  0  0  0  0  0
  188.0280  177.9880  149.1430 O   0  0  0  0  0  1  0  0  0  0  0  0
  189.2520  178.1620  148.4930 C   0  0  0  0  0  2  0  0  0  0  0  0
  1 17  1  0  0  0  0
  2  5  1  6  0  0  0
  2  3  1  0  0  0  0
  2  4  1  0  0  0  0
  3  4  1  0  0  0  0
  4  1  1  6  0  0  0
  6  5  2  0  0  0  0
  7  5  1  0  0  0  0
  8 13  1  6  0  0  0
  8  7  1  0  0  0  0
  9  8  1  0  0  0  0
 10 12  1  6  0  0  0
 10 11  1  0  0  0  0
 10  9  1  0  0  0  0
 14 16  2  0  0  0  0
 15 16  1  0  0  0  0
 16 13  1  0  0  0  0
 17 28  1  0  0  0  0
 18 17  1  0  0  0  0
 18 19  1  0  0  0  0
 19 24  1  0  0  0  0
 20 27  2  0  0  0  0
 20 26  1  0  0  0  0
 21 18  1  0  0  0  0
 22 23  1  0  0  0  0
 23 24  1  0  0  0  0
 25 21  1  0  0  0  0
 25 23  2  0  0  0  0
 26 22  2  0  0  0  0
 27 25  1  0  0  0  0
 28 29  1  0  0  0  0
 29 30  1  6  0  0  0
 29 32  1  0  0  0  0
 32 31  1  0  0  0  0
M  END
>  <MODEL>
2

>  <REMARK>
 VINA RESULT:      -8.2      1.435      2.502
  Name = 
  13 active torsions:
  status: ('A' for Active; 'I' for Inactive)
    1  A    between atoms: C_1  and  N_5
    2  A    between atoms: C_1  and  C_30
    3  A    between atoms: N_2  and  N_5
    4  A    between atoms: C_3  and  C_8
    5  A    between atoms: C_3  and  C_20
    6  A    between atoms: C_4  and  C_24
    7  A    between atoms: N_5  and  C_14
    8  A    between atoms: C_13  and  C_14
    9  A    between atoms: C_13  and  C_29
   10  A    between atoms: C_15  and  C_20
   11  A    between atoms: C_15  and  C_26
   12  A    between atoms: O_16  and  C_20
   13  A    between atoms: O_16  and  C_24
                            x       y       z     vdW  Elec       q    Type
                         _______ _______ _______ _____ _____    ______ ____

>  <TORSDO>
F 13

$$$$
=
 OpenBabel10262421203D

 32 34  0  0  1  0  0  0  0  0999 V2000
  188.8570  176.9660  143.5640 C   0  0  0  0  0  2  0  0  0  0  0  0
  190.9150  177.7500  142.1220 C   0  0  2  0  0  3  0  0  0  0  0  0
  191.2350  176.5900  143.0450 C   0  0  0  0  0  2  0  0  0  0  0  0
  190.2380  177.6420  143.4970 C   0  0  2  0  0  3  0  0  0  0  0  0
  190.0490  177.3760  140.9420 C   0  0  0  0  0  0  0  0  0  0  0  0
  189.1250  178.1410  140.5520 O   0  0  0  0  0  0  0  0  0  0  0  0
  190.2400  176.1600  140.2690 O   0  0  0  0  0  0  0  0  0  0  0  0
  190.7520  176.0320  138.9380 C   0  0  1  0  0  3  0  0  0  0  0  0
  189.6400  175.9240  137.8960 C   0  0  0  0  0  2  0  0  0  0  0  0
  189.8640  174.7440  136.9700 C   0  0  2  0  0  3  0  0  0  0  0  0
  190.7520  173.8410  137.5540 O   0  0  0  0  0  1  0  0  0  0  0  0
  190.4440  175.2420  135.6640 C   0  0  0  0  0  1  0  0  0  0  0  0
  191.7020  177.1780  138.6140 C   0  0  0  0  0  2  0  0  0  0  0  0
  193.7620  177.2090  139.8140 O   0  0  0  0  0  0  0  0  0  0  0  0
  193.7580  175.9020  137.8940 N   0  0  0  0  0  1  0  0  0  0  0  0
  193.1200  176.7680  138.8250 C   0  0  0  0  0  0  0  0  0  0  0  0
  188.2840  176.8730  144.9210 N   0  0  0  0  0  0  0  0  0  0  0  0
  186.9000  177.1900  144.8810 N   0  0  0  0  0  0  0  0  0  0  0  0
  186.6690  178.3060  145.8130 C   0  0  0  0  0  2  0  0  0  0  0  0
  183.1570  178.6560  142.1710 C   0  0  0  0  0  3  0  0  0  0  0  0
  186.5690  177.7170  143.5450 C   0  0  0  0  0  2  0  0  0  0  0  0
  183.1720  179.0940  144.5540 C   0  0  0  0  0  3  0  0  0  0  0  0
  184.4910  178.6380  144.6320 C   0  0  0  0  0  0  0  0  0  0  0  0
  185.1710  178.5660  145.9680 C   0  0  0  0  0  2  0  0  0  0  0  0
  185.1360  178.1630  143.4750 C   0  0  0  0  0  0  0  0  0  0  0  0
  182.5060  179.1050  143.3240 C   0  0  0  0  0  3  0  0  0  0  0  0
  184.4730  178.1890  142.2460 C   0  0  0  0  0  3  0  0  0  0  0  0
  189.0010  177.8050  145.8040 C   0  0  0  0  0  2  0  0  0  0  0  0
  189.4670  177.0880  147.0590 C   0  0  1  0  0  3  0  0  0  0  0  0
  190.9390  176.7340  146.9370 C   0  0  0  0  0  1  0  0  0  0  0  0
  188.0610  177.6550  148.9030 O   0  0  0  0  0  1  0  0  0  0  0  0
  189.2520  177.9930  148.2570 C   0  0  0  0  0  2  0  0  0  0  0  0
  1 17  1  0  0  0  0
  2  5  1  6  0  0  0
  2  3  1  0  0  0  0
  2  4  1  0  0  0  0
  3  4  1  0  0  0  0
  4  1  1  6  0  0  0
  6  5  2  0  0  0  0
  7  5  1  0  0  0  0
  8  9  1  6  0  0  0
  8  7  1  0  0  0  0
 10 12  1  6  0  0  0
 10 11  1  0  0  0  0
 10  9  1  0  0  0  0
 13 16  1  0  0  0  0
 13  8  1  0  0  0  0
 15 16  1  0  0  0  0
 16 14  2  0  0  0  0
 17 28  1  0  0  0  0
 18 17  1  0  0  0  0
 18 19  1  0  0  0  0
 19 24  1  0  0  0  0
 20 27  2  0  0  0  0
 20 26  1  0  0  0  0
 21 18  1  0  0  0  0
 22 23  1  0  0  0  0
 23 24  1  0  0  0  0
 25 21  1  0  0  0  0
 25 23  2  0  0  0  0
 26 22  2  0  0  0  0
 27 25  1  0  0  0  0
 28 29  1  0  0  0  0
 29 30  1  6  0  0  0
 29 32  1  0  0  0  0
 32 31  1  0  0  0  0
M  END
>  <MODEL>
3

>  <REMARK>
 VINA RESULT:      -8.0      1.384      2.029
  Name = 
  13 active torsions:
  status: ('A' for Active; 'I' for Inactive)
    1  A    between atoms: C_1  and  N_5
    2  A    between atoms: C_1  and  C_30
    3  A    between atoms: N_2  and  N_5
    4  A    between atoms: C_3  and  C_8
    5  A    between atoms: C_3  and  C_20
    6  A    between atoms: C_4  and  C_24
    7  A    between atoms: N_5  and  C_14
    8  A    between atoms: C_13  and  C_14
    9  A    between atoms: C_13  and  C_29
   10  A    between atoms: C_15  and  C_20
   11  A    between atoms: C_15  and  C_26
   12  A    between atoms: O_16  and  C_20
   13  A    between atoms: O_16  and  C_24
                            x       y       z     vdW  Elec       q    Type
                         _______ _______ _______ _____ _____    ______ ____

>  <TORSDO>
F 13

$$$$
=
 OpenBabel10262421203D

 32 34  0  0  1  0  0  0  0  0999 V2000
  189.2350  178.0220  141.8530 C   0  0  0  0  0  2  0  0  0  0  0  0
  191.3350  176.6030  142.5640 C   0  0  2  0  0  3  0  0  0  0  0  0
  191.5860  177.4810  141.3540 C   0  0  0  0  0  2  0  0  0  0  0  0
  190.2110  176.8690  141.5520 C   0  0  2  0  0  3  0  0  0  0  0  0
  191.2300  177.3630  143.8650 C   0  0  0  0  0  0  0  0  0  0  0  0
  191.8250  178.4650  144.0190 O   0  0  0  0  0  0  0  0  0  0  0  0
  190.4870  176.8490  144.9380 O   0  0  0  0  0  0  0  0  0  0  0  0
  190.4870  177.3840  146.2660 C   0  0  1  0  0  3  0  0  0  0  0  0
  189.2500  178.2350  146.5490 C   0  0  0  0  0  2  0  0  0  0  0  0
  188.0240  177.3700  146.7720 C   0  0  2  0  0  3  0  0  0  0  0  0
  187.5130  176.9430  145.5460 O   0  0  0  0  0  1  0  0  0  0  0  0
  186.9720  178.1800  147.4980 C   0  0  0  0  0  1  0  0  0  0  0  0
  190.6390  176.2720  147.2960 C   0  0  0  0  0  2  0  0  0  0  0  0
  192.5240  175.0610  146.4800 O   0  0  0  0  0  0  0  0  0  0  0  0
  192.8680  176.1960  148.4770 N   0  0  0  0  0  1  0  0  0  0  0  0
  192.0540  175.8120  147.3750 C   0  0  0  0  0  0  0  0  0  0  0  0
  188.5220  178.5460  140.6710 N   0  0  0  0  0  0  0  0  0  0  0  0
  187.1980  178.9100  141.0320 N   0  0  0  0  0  0  0  0  0  0  0  0
  186.2830  178.2910  140.0600 C   0  0  0  0  0  2  0  0  0  0  0  0
  183.7340  178.7520  144.4210 C   0  0  0  0  0  3  0  0  0  0  0  0
  186.8700  178.2950  142.3310 C   0  0  0  0  0  2  0  0  0  0  0  0
  183.1330  178.9430  142.0820 C   0  0  0  0  0  3  0  0  0  0  0  0
  184.4670  178.7370  141.7180 C   0  0  0  0  0  0  0  0  0  0  0  0
  184.8580  178.8030  140.2720 C   0  0  0  0  0  2  0  0  0  0  0  0
  185.4440  178.5640  142.7170 C   0  0  0  0  0  0  0  0  0  0  0  0
  182.7660  178.9480  143.4310 C   0  0  0  0  0  3  0  0  0  0  0  0
  185.0720  178.5550  144.0640 C   0  0  0  0  0  3  0  0  0  0  0  0
  188.5060  177.5110  139.6280 C   0  0  0  0  0  2  0  0  0  0  0  0
  189.4420  177.8910  138.4940 C   0  0  1  0  0  3  0  0  0  0  0  0
  190.1260  176.6500  137.9480 C   0  0  0  0  0  1  0  0  0  0  0  0
  188.8500  179.9460  137.4330 O   0  0  0  0  0  1  0  0  0  0  0  0
  188.6430  178.5650  137.3950 C   0  0  0  0  0  2  0  0  0  0  0  0
  2  5  1  1  0  0  0
  3  4  1  0  0  0  0
  3  2  1  0  0  0  0
  4  1  1  1  0  0  0
  4  2  1  0  0  0  0
  5  6  2  0  0  0  0
  5  7  1  0  0  0  0
  7  8  1  0  0  0  0
  8  9  1  1  0  0  0
  8 13  1  0  0  0  0
  9 10  1  0  0  0  0
 10 12  1  6  0  0  0
 11 10  1  0  0  0  0
 13 16  1  0  0  0  0
 14 16  2  0  0  0  0
 16 15  1  0  0  0  0
 17 18  1  0  0  0  0
 17  1  1  0  0  0  0
 18 21  1  0  0  0  0
 19 24  1  0  0  0  0
 19 18  1  0  0  0  0
 21 25  1  0  0  0  0
 22 26  1  0  0  0  0
 23 22  2  0  0  0  0
 23 25  1  0  0  0  0
 24 23  1  0  0  0  0
 25 27  2  0  0  0  0
 26 20  2  0  0  0  0
 27 20  1  0  0  0  0
 28 17  1  0  0  0  0
 29 30  1  6  0  0  0
 29 28  1  0  0  0  0
 32 31  1  0  0  0  0
 32 29  1  0  0  0  0
M  END
>  <MODEL>
4

>  <REMARK>
 VINA RESULT:      -7.6      2.361      6.600
  Name = 
  13 active torsions:
  status: ('A' for Active; 'I' for Inactive)
    1  A    between atoms: C_1  and  N_5
    2  A    between atoms: C_1  and  C_30
    3  A    between atoms: N_2  and  N_5
    4  A    between atoms: C_3  and  C_8
    5  A    between atoms: C_3  and  C_20
    6  A    between atoms: C_4  and  C_24
    7  A    between atoms: N_5  and  C_14
    8  A    between atoms: C_13  and  C_14
    9  A    between atoms: C_13  and  C_29
   10  A    between atoms: C_15  and  C_20
   11  A    between atoms: C_15  and  C_26
   12  A    between atoms: O_16  and  C_20
   13  A    between atoms: O_16  and  C_24
                            x       y       z     vdW  Elec       q    Type
                         _______ _______ _______ _____ _____    ______ ____

>  <TORSDO>
F 13

$$$$
=
 OpenBabel10262421203D

 32 34  0  0  1  0  0  0  0  0999 V2000
  189.0090  176.7600  141.7810 C   0  0  0  0  0  2  0  0  0  0  0  0
  189.8800  177.9530  139.6030 C   0  0  2  0  0  3  0  0  0  0  0  0
  190.6370  176.6820  139.9340 C   0  0  0  0  0  2  0  0  0  0  0  0
  190.1180  177.5520  141.0660 C   0  0  2  0  0  3  0  0  0  0  0  0
  188.4800  177.7180  139.0860 C   0  0  0  0  0  0  0  0  0  0  0  0
  187.5250  178.4610  139.4450 O   0  0  0  0  0  0  0  0  0  0  0  0
  188.2070  176.6540  138.2130 O   0  0  0  0  0  0  0  0  0  0  0  0
  188.3670  176.7000  136.7910 C   0  0  1  0  0  3  0  0  0  0  0  0
  189.1090  175.4790  136.2510 C   0  0  0  0  0  2  0  0  0  0  0  0
  189.2540  174.4050  137.3130 C   0  0  2  0  0  3  0  0  0  0  0  0
  190.6050  174.1850  137.5860 O   0  0  0  0  0  1  0  0  0  0  0  0
  188.6300  173.1220  136.8100 C   0  0  0  0  0  1  0  0  0  0  0  0
  187.0190  176.8760  136.1030 C   0  0  0  0  0  2  0  0  0  0  0  0
  185.7730  175.0680  137.0310 O   0  0  0  0  0  0  0  0  0  0  0  0
  185.0150  177.1880  137.6060 N   0  0  0  0  0  1  0  0  0  0  0  0
  185.9190  176.3150  136.9380 C   0  0  0  0  0  0  0  0  0  0  0  0
  189.2010  176.6120  143.2370 N   0  0  0  0  0  0  0  0  0  0  0  0
  187.9830  176.8870  143.9130 N   0  0  0  0  0  0  0  0  0  0  0  0
  188.2910  177.7670  145.0520 C   0  0  0  0  0  2  0  0  0  0  0  0
  183.5320  178.7860  143.6270 C   0  0  0  0  0  3  0  0  0  0  0  0
  187.1120  177.6790  143.0260 C   0  0  0  0  0  2  0  0  0  0  0  0
  184.6760  178.6980  145.7600 C   0  0  0  0  0  3  0  0  0  0  0  0
  185.8450  178.2780  145.1190 C   0  0  0  0  0  0  0  0  0  0  0  0
  187.0560  177.9400  145.9370 C   0  0  0  0  0  2  0  0  0  0  0  0
  185.8470  178.0850  143.7250 C   0  0  0  0  0  0  0  0  0  0  0  0
  183.5210  178.9550  145.0150 C   0  0  0  0  0  3  0  0  0  0  0  0
  184.6950  178.3550  142.9820 C   0  0  0  0  0  3  0  0  0  0  0  0
  190.2530  177.5420  143.6740 C   0  0  0  0  0  2  0  0  0  0  0  0
  191.4690  176.7710  144.1590 C   0  0  1  0  0  3  0  0  0  0  0  0
  191.6010  176.9070  145.6660 C   0  0  0  0  0  1  0  0  0  0  0  0
  192.3530  174.5610  144.3350 O   0  0  0  0  0  1  0  0  0  0  0  0
  191.3110  175.3090  143.7860 C   0  0  0  0  0  2  0  0  0  0  0  0
  1 17  1  0  0  0  0
  2  5  1  6  0  0  0
  2  3  1  0  0  0  0
  2  4  1  0  0  0  0
  3  4  1  0  0  0  0
  4  1  1  6  0  0  0
  5  6  2  0  0  0  0
  7  5  1  0  0  0  0
  8 13  1  6  0  0  0
  8  7  1  0  0  0  0
  9  8  1  0  0  0  0
  9 10  1  0  0  0  0
 10 12  1  6  0  0  0
 10 11  1  0  0  0  0
 13 16  1  0  0  0  0
 16 14  2  0  0  0  0
 16 15  1  0  0  0  0
 17 28  1  0  0  0  0
 17 18  1  0  0  0  0
 18 19  1  0  0  0  0
 19 24  1  0  0  0  0
 20 26  1  0  0  0  0
 21 25  1  0  0  0  0
 21 18  1  0  0  0  0
 23 22  1  0  0  0  0
 23 24  1  0  0  0  0
 25 23  2  0  0  0  0
 26 22  2  0  0  0  0
 27 20  2  0  0  0  0
 27 25  1  0  0  0  0
 28 29  1  0  0  0  0
 29 30  1  1  0  0  0
 32 29  1  0  0  0  0
 32 31  1  0  0  0  0
M  END
>  <MODEL>
5

>  <REMARK>
 VINA RESULT:      -7.5      2.365      3.781
  Name = 
  13 active torsions:
  status: ('A' for Active; 'I' for Inactive)
    1  A    between atoms: C_1  and  N_5
    2  A    between atoms: C_1  and  C_30
    3  A    between atoms: N_2  and  N_5
    4  A    between atoms: C_3  and  C_8
    5  A    between atoms: C_3  and  C_20
    6  A    between atoms: C_4  and  C_24
    7  A    between atoms: N_5  and  C_14
    8  A    between atoms: C_13  and  C_14
    9  A    between atoms: C_13  and  C_29
   10  A    between atoms: C_15  and  C_20
   11  A    between atoms: C_15  and  C_26
   12  A    between atoms: O_16  and  C_20
   13  A    between atoms: O_16  and  C_24
                            x       y       z     vdW  Elec       q    Type
                         _______ _______ _______ _____ _____    ______ ____

>  <TORSDO>
F 13

$$$$
=
 OpenBabel10262421203D

 32 34  0  0  1  0  0  0  0  0999 V2000
  190.1930  177.8950  141.4040 C   0  0  0  0  0  2  0  0  0  0  0  0
  190.2970  176.0900  143.3170 C   0  0  2  0  0  3  0  0  0  0  0  0
  191.3830  177.1420  143.4240 C   0  0  0  0  0  2  0  0  0  0  0  0
  190.9150  176.6990  142.0500 C   0  0  2  0  0  3  0  0  0  0  0  0
  188.9170  176.5920  143.6710 C   0  0  0  0  0  0  0  0  0  0  0  0
  187.8860  175.9900  143.2620 O   0  0  0  0  0  0  0  0  0  0  0  0
  188.7530  177.7510  144.4440 O   0  0  0  0  0  0  0  0  0  0  0  0
  187.9730  177.8330  145.6420 C   0  0  1  0  0  3  0  0  0  0  0  0
  186.4790  177.6570  145.3750 C   0  0  0  0  0  2  0  0  0  0  0  0
  185.7040  178.9150  145.7200 C   0  0  2  0  0  3  0  0  0  0  0  0
  185.2890  178.8680  147.0520 O   0  0  0  0  0  1  0  0  0  0  0  0
  184.4910  179.0120  144.8220 C   0  0  0  0  0  1  0  0  0  0  0  0
  188.4690  176.8320  146.6780 C   0  0  0  0  0  2  0  0  0  0  0  0
  190.3500  177.5500  147.9560 O   0  0  0  0  0  0  0  0  0  0  0  0
  188.2810  178.1590  148.8170 N   0  0  0  0  0  1  0  0  0  0  0  0
  189.0970  177.5330  147.8340 C   0  0  0  0  0  0  0  0  0  0  0  0
  190.1890  177.8860  139.9280 N   0  0  0  0  0  0  0  0  0  0  0  0
  188.9120  178.2820  139.4490 N   0  0  0  0  0  0  0  0  0  0  0  0
  188.4730  177.2810  138.4640 C   0  0  0  0  0  2  0  0  0  0  0  0
  184.2910  179.2470  140.5530 C   0  0  0  0  0  3  0  0  0  0  0  0
  187.9400  178.2020  140.5540 C   0  0  0  0  0  2  0  0  0  0  0  0
  184.8700  178.4790  138.3300 C   0  0  0  0  0  3  0  0  0  0  0  0
  186.1780  178.2270  138.7540 C   0  0  0  0  0  0  0  0  0  0  0  0
  187.1980  177.7500  137.7630 C   0  0  0  0  0  2  0  0  0  0  0  0
  186.5490  178.5140  140.0810 C   0  0  0  0  0  0  0  0  0  0  0  0
  183.9270  178.9850  139.2290 C   0  0  0  0  0  3  0  0  0  0  0  0
  185.6000  179.0070  140.9800 C   0  0  0  0  0  3  0  0  0  0  0  0
  190.5170  176.5320  139.4600 C   0  0  0  0  0  2  0  0  0  0  0  0
  191.6390  176.5870  138.4370 C   0  0  1  0  0  3  0  0  0  0  0  0
  192.9320  177.0140  139.1090 C   0  0  0  0  0  1  0  0  0  0  0  0
  190.6370  174.4720  137.9660 O   0  0  0  0  0  1  0  0  0  0  0  0
  191.8100  175.2140  137.8150 C   0  0  0  0  0  2  0  0  0  0  0  0
  2  3  1  0  0  0  0
  2  5  1  1  0  0  0
  4  1  1  1  0  0  0
  4  2  1  0  0  0  0
  4  3  1  0  0  0  0
  5  7  1  0  0  0  0
  6  5  2  0  0  0  0
  7  8  1  0  0  0  0
  8  9  1  6  0  0  0
  8 13  1  0  0  0  0
  9 10  1  0  0  0  0
 10 12  1  6  0  0  0
 10 11  1  0  0  0  0
 13 16  1  0  0  0  0
 16 14  2  0  0  0  0
 16 15  1  0  0  0  0
 17  1  1  0  0  0  0
 18 17  1  0  0  0  0
 18 21  1  0  0  0  0
 19 18  1  0  0  0  0
 20 27  1  0  0  0  0
 22 23  2  0  0  0  0
 22 26  1  0  0  0  0
 23 25  1  0  0  0  0
 24 19  1  0  0  0  0
 24 23  1  0  0  0  0
 25 21  1  0  0  0  0
 25 27  2  0  0  0  0
 26 20  2  0  0  0  0
 28 17  1  0  0  0  0
 29 30  1  1  0  0  0
 29 28  1  0  0  0  0
 32 31  1  0  0  0  0
 32 29  1  0  0  0  0
M  END
>  <MODEL>
6

>  <REMARK>
 VINA RESULT:      -7.3      2.192      7.092
  Name = 
  13 active torsions:
  status: ('A' for Active; 'I' for Inactive)
    1  A    between atoms: C_1  and  N_5
    2  A    between atoms: C_1  and  C_30
    3  A    between atoms: N_2  and  N_5
    4  A    between atoms: C_3  and  C_8
    5  A    between atoms: C_3  and  C_20
    6  A    between atoms: C_4  and  C_24
    7  A    between atoms: N_5  and  C_14
    8  A    between atoms: C_13  and  C_14
    9  A    between atoms: C_13  and  C_29
   10  A    between atoms: C_15  and  C_20
   11  A    between atoms: C_15  and  C_26
   12  A    between atoms: O_16  and  C_20
   13  A    between atoms: O_16  and  C_24
                            x       y       z     vdW  Elec       q    Type
                         _______ _______ _______ _____ _____    ______ ____

>  <TORSDO>
F 13

$$$$
=
 OpenBabel10262421203D

 32 34  0  0  1  0  0  0  0  0999 V2000
  188.8840  177.4450  141.8730 C   0  0  0  0  0  2  0  0  0  0  0  0
  190.4140  177.7300  139.7500 C   0  0  2  0  0  3  0  0  0  0  0  0
  190.5940  176.3950  140.4450 C   0  0  0  0  0  2  0  0  0  0  0  0
  190.2920  177.6280  141.2780 C   0  0  2  0  0  3  0  0  0  0  0  0
  189.1080  177.8640  139.0030 C   0  0  0  0  0  0  0  0  0  0  0  0
  188.6570  179.0000  138.6900 O   0  0  0  0  0  0  0  0  0  0  0  0
  188.3590  176.7290  138.6610 O   0  0  0  0  0  0  0  0  0  0  0  0
  188.3410  176.1190  137.3660 C   0  0  1  0  0  3  0  0  0  0  0  0
  187.1800  176.6170  136.5060 C   0  0  0  0  0  2  0  0  0  0  0  0
  186.0650  175.5920  136.4360 C   0  0  2  0  0  3  0  0  0  0  0  0
  184.9860  176.0080  137.2170 O   0  0  0  0  0  1  0  0  0  0  0  0
  186.5760  174.2660  136.9550 C   0  0  0  0  0  1  0  0  0  0  0  0
  189.6760  176.3160  136.6580 C   0  0  0  0  0  2  0  0  0  0  0  0
  190.1840  174.1830  137.5920 O   0  0  0  0  0  0  0  0  0  0  0  0
  191.8990  175.1570  136.3650 N   0  0  0  0  0  1  0  0  0  0  0  0
  190.5790  175.1550  136.8970 C   0  0  0  0  0  0  0  0  0  0  0  0
  188.8610  176.8470  143.2220 N   0  0  0  0  0  0  0  0  0  0  0  0
  187.5930  177.0660  143.8230 N   0  0  0  0  0  0  0  0  0  0  0  0
  187.8040  177.8730  145.0350 C   0  0  0  0  0  2  0  0  0  0  0  0
  183.1460  178.9340  143.3320 C   0  0  0  0  0  3  0  0  0  0  0  0
  186.7770  177.9040  142.9260 C   0  0  0  0  0  2  0  0  0  0  0  0
  184.1340  178.7210  145.5340 C   0  0  0  0  0  3  0  0  0  0  0  0
  185.3530  178.3550  144.9550 C   0  0  0  0  0  0  0  0  0  0  0  0
  186.5060  177.9770  145.8360 C   0  0  0  0  0  2  0  0  0  0  0  0
  185.4580  178.2510  143.5550 C   0  0  0  0  0  0  0  0  0  0  0  0
  183.0330  179.0130  144.7230 C   0  0  0  0  0  3  0  0  0  0  0  0
  184.3590  178.5580  142.7480 C   0  0  0  0  0  3  0  0  0  0  0  0
  189.9260  177.4580  144.0310 C   0  0  0  0  0  2  0  0  0  0  0  0
  190.6510  176.3930  144.8370 C   0  0  1  0  0  3  0  0  0  0  0  0
  191.6830  175.6980  143.9660 C   0  0  0  0  0  1  0  0  0  0  0  0
  192.1670  176.1270  146.6610 O   0  0  0  0  0  1  0  0  0  0  0  0
  191.3340  177.0480  146.0220 C   0  0  0  0  0  2  0  0  0  0  0  0
  1 17  1  0  0  0  0
  2  5  1  6  0  0  0
  2  3  1  0  0  0  0
  2  4  1  0  0  0  0
  3  4  1  0  0  0  0
  4  1  1  6  0  0  0
  6  5  2  0  0  0  0
  7  5  1  0  0  0  0
  8  9  1  6  0  0  0
  8  7  1  0  0  0  0
 10  9  1  0  0  0  0
 10 12  1  1  0  0  0
 10 11  1  0  0  0  0
 13 16  1  0  0  0  0
 13  8  1  0  0  0  0
 15 16  1  0  0  0  0
 16 14  2  0  0  0  0
 17 18  1  0  0  0  0
 17 28  1  0  0  0  0
 18 19  1  0  0  0  0
 19 24  1  0  0  0  0
 20 26  1  0  0  0  0
 21 25  1  0  0  0  0
 21 18  1  0  0  0  0
 23 22  1  0  0  0  0
 23 24  1  0  0  0  0
 25 23  2  0  0  0  0
 26 22  2  0  0  0  0
 27 20  2  0  0  0  0
 27 25  1  0  0  0  0
 28 29  1  0  0  0  0
 29 30  1  6  0  0  0
 29 32  1  0  0  0  0
 32 31  1  0  0  0  0
M  END
>  <MODEL>
7

>  <REMARK>
 VINA RESULT:      -7.3      1.935      2.642
  Name = 
  13 active torsions:
  status: ('A' for Active; 'I' for Inactive)
    1  A    between atoms: C_1  and  N_5
    2  A    between atoms: C_1  and  C_30
    3  A    between atoms: N_2  and  N_5
    4  A    between atoms: C_3  and  C_8
    5  A    between atoms: C_3  and  C_20
    6  A    between atoms: C_4  and  C_24
    7  A    between atoms: N_5  and  C_14
    8  A    between atoms: C_13  and  C_14
    9  A    between atoms: C_13  and  C_29
   10  A    between atoms: C_15  and  C_20
   11  A    between atoms: C_15  and  C_26
   12  A    between atoms: O_16  and  C_20
   13  A    between atoms: O_16  and  C_24
                            x       y       z     vdW  Elec       q    Type
                         _______ _______ _______ _____ _____    ______ ____

>  <TORSDO>
F 13

$$$$
=
 OpenBabel10262421203D

 32 34  0  0  1  0  0  0  0  0999 V2000
  188.5740  178.4720  141.0440 C   0  0  0  0  0  2  0  0  0  0  0  0
  190.3360  176.8050  142.0680 C   0  0  2  0  0  3  0  0  0  0  0  0
  190.6920  177.2710  140.6700 C   0  0  0  0  0  2  0  0  0  0  0  0
  189.2310  177.0800  141.0370 C   0  0  2  0  0  3  0  0  0  0  0  0
  190.5080  177.8650  143.1310 C   0  0  0  0  0  0  0  0  0  0  0  0
  191.4500  178.7020  143.0620 O   0  0  0  0  0  0  0  0  0  0  0  0
  189.6380  177.9260  144.2300 O   0  0  0  0  0  0  0  0  0  0  0  0
  189.8070  177.1950  145.4490 C   0  0  1  0  0  3  0  0  0  0  0  0
  191.2690  177.1200  145.8840 C   0  0  0  0  0  2  0  0  0  0  0  0
  191.4150  176.4050  147.2140 C   0  0  2  0  0  3  0  0  0  0  0  0
  191.9980  177.2580  148.1520 O   0  0  0  0  0  1  0  0  0  0  0  0
  192.2960  175.1890  147.0290 C   0  0  0  0  0  1  0  0  0  0  0  0
  188.9330  177.7790  146.5530 C   0  0  0  0  0  2  0  0  0  0  0  0
  187.1390  176.9320  145.2310 O   0  0  0  0  0  0  0  0  0  0  0  0
  186.5020  178.2850  147.0080 N   0  0  0  0  0  1  0  0  0  0  0  0
  187.4880  177.6250  146.2220 C   0  0  0  0  0  0  0  0  0  0  0  0
  187.6190  178.7060  139.9440 N   0  0  0  0  0  0  0  0  0  0  0  0
  186.3360  179.0050  140.4760 N   0  0  0  0  0  0  0  0  0  0  0  0
  185.3450  178.2240  139.7200 C   0  0  0  0  0  2  0  0  0  0  0  0
  183.4510  178.9300  144.3710 C   0  0  0  0  0  3  0  0  0  0  0  0
  186.2640  178.5010  141.8600 C   0  0  0  0  0  2  0  0  0  0  0  0
  182.4890  178.8410  142.1490 C   0  0  0  0  0  3  0  0  0  0  0  0
  183.7660  178.6990  141.5990 C   0  0  0  0  0  0  0  0  0  0  0  0
  183.9280  178.6480  140.1080 C   0  0  0  0  0  2  0  0  0  0  0  0
  184.8940  178.7000  142.4410 C   0  0  0  0  0  0  0  0  0  0  0  0
  182.3310  178.9540  143.5340 C   0  0  0  0  0  3  0  0  0  0  0  0
  184.7310  178.7990  143.8250 C   0  0  0  0  0  3  0  0  0  0  0  0
  187.5590  177.5020  139.1020 C   0  0  0  0  0  2  0  0  0  0  0  0
  188.1420  177.7900  137.7290 C   0  0  1  0  0  3  0  0  0  0  0  0
  188.9880  179.0500  137.7800 C   0  0  0  0  0  1  0  0  0  0  0  0
  190.3080  177.0320  137.0710 O   0  0  0  0  0  1  0  0  0  0  0  0
  188.9950  176.6130  137.2960 C   0  0  0  0  0  2  0  0  0  0  0  0
  2  5  1  1  0  0  0
  3  4  1  0  0  0  0
  3  2  1  0  0  0  0
  4  1  1  1  0  0  0
  4  2  1  0  0  0  0
  5  7  1  0  0  0  0
  6  5  2  0  0  0  0
  7  8  1  0  0  0  0
  8  9  1  1  0  0  0
  8 13  1  0  0  0  0
  9 10  1  0  0  0  0
 10 12  1  6  0  0  0
 10 11  1  0  0  0  0
 14 16  2  0  0  0  0
 16 13  1  0  0  0  0
 16 15  1  0  0  0  0
 17 18  1  0  0  0  0
 17  1  1  0  0  0  0
 18 21  1  0  0  0  0
 19 24  1  0  0  0  0
 19 18  1  0  0  0  0
 21 25  1  0  0  0  0
 22 26  1  0  0  0  0
 23 22  2  0  0  0  0
 23 25  1  0  0  0  0
 24 23  1  0  0  0  0
 25 27  2  0  0  0  0
 26 20  2  0  0  0  0
 27 20  1  0  0  0  0
 28 17  1  0  0  0  0
 29 30  1  1  0  0  0
 29 28  1  0  0  0  0
 31 32  1  0  0  0  0
 32 29  1  0  0  0  0
M  END
>  <MODEL>
8

>  <REMARK>
 VINA RESULT:      -7.2      2.245      7.015
  Name = 
  13 active torsions:
  status: ('A' for Active; 'I' for Inactive)
    1  A    between atoms: C_1  and  N_5
    2  A    between atoms: C_1  and  C_30
    3  A    between atoms: N_2  and  N_5
    4  A    between atoms: C_3  and  C_8
    5  A    between atoms: C_3  and  C_20
    6  A    between atoms: C_4  and  C_24
    7  A    between atoms: N_5  and  C_14
    8  A    between atoms: C_13  and  C_14
    9  A    between atoms: C_13  and  C_29
   10  A    between atoms: C_15  and  C_20
   11  A    between atoms: C_15  and  C_26
   12  A    between atoms: O_16  and  C_20
   13  A    between atoms: O_16  and  C_24
                            x       y       z     vdW  Elec       q    Type
                         _______ _______ _______ _____ _____    ______ ____

>  <TORSDO>
F 13

$$$$
=
 OpenBabel10262421203D

 32 34  0  0  1  0  0  0  0  0999 V2000
  186.0610  178.8270  141.7130 C   0  0  0  0  0  2  0  0  0  0  0  0
  183.9160  178.2040  140.3200 C   0  0  2  0  0  3  0  0  0  0  0  0
  183.6050  178.9720  141.5890 C   0  0  0  0  0  2  0  0  0  0  0  0
  184.7700  177.9990  141.5790 C   0  0  2  0  0  3  0  0  0  0  0  0
  184.5520  179.0410  139.2340 C   0  0  0  0  0  0  0  0  0  0  0  0
  184.2470  180.2570  139.0950 O   0  0  0  0  0  0  0  0  0  0  0  0
  185.4780  178.4770  138.3450 O   0  0  0  0  0  0  0  0  0  0  0  0
  185.2510  177.2990  137.5640 C   0  0  1  0  0  3  0  0  0  0  0  0
  183.8690  177.2910  136.9140 C   0  0  0  0  0  2  0  0  0  0  0  0
  183.3550  175.8760  136.7250 C   0  0  2  0  0  3  0  0  0  0  0  0
  182.1200  175.9010  136.0750 O   0  0  0  0  0  1  0  0  0  0  0  0
  183.1930  175.2230  138.0800 C   0  0  0  0  0  1  0  0  0  0  0  0
  186.3510  177.1200  136.5250 C   0  0  0  0  0  2  0  0  0  0  0  0
  186.6610  174.8600  137.2180 O   0  0  0  0  0  0  0  0  0  0  0  0
  188.6150  176.0320  136.7670 N   0  0  0  0  0  1  0  0  0  0  0  0
  187.1980  175.9370  136.8470 C   0  0  0  0  0  0  0  0  0  0  0  0
  187.2180  178.0800  142.2430 N   0  0  0  0  0  0  0  0  0  0  0  0
  187.3350  178.3020  143.6400 N   0  0  0  0  0  0  0  0  0  0  0  0
  186.0780  177.8680  144.2700 C   0  0  0  0  0  2  0  0  0  0  0  0
  189.7520  177.2790  147.7160 C   0  0  0  0  0  3  0  0  0  0  0  0
  188.3770  177.4110  144.1810 C   0  0  0  0  0  2  0  0  0  0  0  0
  187.4240  177.9410  147.8220 C   0  0  0  0  0  3  0  0  0  0  0  0
  187.3380  177.8730  146.4290 C   0  0  0  0  0  0  0  0  0  0  0  0
  186.0600  178.2630  145.7470 C   0  0  0  0  0  2  0  0  0  0  0  0
  188.4760  177.5310  145.6740 C   0  0  0  0  0  0  0  0  0  0  0  0
  188.6290  177.6410  148.4660 C   0  0  0  0  0  3  0  0  0  0  0  0
  189.6750  177.2190  146.3220 C   0  0  0  0  0  3  0  0  0  0  0  0
  188.4330  178.5280  141.5460 C   0  0  0  0  0  2  0  0  0  0  0  0
  188.6950  177.6550  140.3310 C   0  0  1  0  0  3  0  0  0  0  0  0
  188.8370  178.5220  139.0920 C   0  0  0  0  0  1  0  0  0  0  0  0
  190.6710  177.3850  141.6420 O   0  0  0  0  0  1  0  0  0  0  0  0
  189.9680  176.8630  140.5540 C   0  0  0  0  0  2  0  0  0  0  0  0
  1 17  1  0  0  0  0
  2  5  1  6  0  0  0
  2  4  1  0  0  0  0
  2  3  1  0  0  0  0
  4  3  1  0  0  0  0
  4  1  1  6  0  0  0
  6  5  2  0  0  0  0
  7  5  1  0  0  0  0
  8 13  1  6  0  0  0
  8  7  1  0  0  0  0
  9  8  1  0  0  0  0
 10  9  1  0  0  0  0
 10 12  1  1  0  0  0
 11 10  1  0  0  0  0
 13 16  1  0  0  0  0
 15 16  1  0  0  0  0
 16 14  2  0  0  0  0
 17 18  1  0  0  0  0
 18 21  1  0  0  0  0
 18 19  1  0  0  0  0
 19 24  1  0  0  0  0
 20 26  1  0  0  0  0
 21 25  1  0  0  0  0
 22 26  2  0  0  0  0
 23 22  1  0  0  0  0
 24 23  1  0  0  0  0
 25 27  1  0  0  0  0
 25 23  2  0  0  0  0
 27 20  2  0  0  0  0
 28 17  1  0  0  0  0
 29 30  1  6  0  0  0
 29 32  1  0  0  0  0
 29 28  1  0  0  0  0
 32 31  1  0  0  0  0
M  END
>  <MODEL>
9

>  <REMARK>
 VINA RESULT:      -7.1      2.508      5.767
  Name = 
  13 active torsions:
  status: ('A' for Active; 'I' for Inactive)
    1  A    between atoms: C_1  and  N_5
    2  A    between atoms: C_1  and  C_30
    3  A    between atoms: N_2  and  N_5
    4  A    between atoms: C_3  and  C_8
    5  A    between atoms: C_3  and  C_20
    6  A    between atoms: C_4  and  C_24
    7  A    between atoms: N_5  and  C_14
    8  A    between atoms: C_13  and  C_14
    9  A    between atoms: C_13  and  C_29
   10  A    between atoms: C_15  and  C_20
   11  A    between atoms: C_15  and  C_26
   12  A    between atoms: O_16  and  C_20
   13  A    between atoms: O_16  and  C_24
                            x       y       z     vdW  Elec       q    Type
                         _______ _______ _______ _____ _____    ______ ____

>  <TORSDO>
F 13

$$$$
