=
 OpenBabel10262419393D

 31 34  0  0  1  0  0  0  0  0999 V2000
  184.9300  178.5800  143.9920 C   0  0  0  0  0  0  0  0  0  0  0  0
  188.4570  177.1170  143.6150 C   0  0  1  0  0  3  0  0  0  0  0  0
  189.0300  177.1980  145.0260 C   0  0  0  0  0  0  0  0  0  0  0  0
  188.5680  177.2330  147.5200 C   0  0  0  0  0  2  0  0  0  0  0  0
  187.1570  177.8520  143.3330 C   0  0  0  0  0  0  0  0  0  0  0  0
  184.7040  179.0760  142.7070 C   0  0  0  0  0  3  0  0  0  0  0  0
  188.2150  177.5820  146.1460 N   0  0  0  0  0  2  0  0  0  0  0  0
  189.0130  177.3400  141.1700 C   0  0  2  0  0  3  0  0  0  0  0  0
  183.8800  178.7080  145.0350 C   0  0  0  0  0  1  0  0  0  0  0  0
  191.1600  176.4060  144.0940 C   0  0  0  0  0  3  0  0  0  0  0  0
  190.0160  177.2220  147.6880 N   0  0  0  0  0  2  0  0  0  0  0  0
  187.8450  178.1440  141.0050 O   0  0  0  0  0  0  0  0  0  0  0  0
  189.5470  177.4930  142.5930 C   0  0  2  0  0  3  0  0  0  0  0  0
  186.1440  177.9600  144.2970 C   0  0  0  0  0  3  0  0  0  0  0  0
  192.0820  176.6160  146.8070 O   0  0  0  0  0  0  0  0  0  0  0  0
  186.8960  178.3070  142.0210 C   0  0  0  0  0  0  0  0  0  0  0  0
  185.6840  178.9350  141.7220 C   0  0  0  0  0  3  0  0  0  0  0  0
  190.7880  176.6780  142.8410 C   0  0  0  0  0  3  0  0  0  0  0  0
  190.3090  176.8140  145.2350 C   0  0  0  0  0  0  0  0  0  0  0  0
  190.8640  176.8570  146.5990 C   0  0  0  0  0  0  0  0  0  0  0  0
  190.0570  177.7530  140.1400 C   0  0  0  0  0  2  0  0  0  0  0  0
  188.3720  177.0970  136.8440 F   0  0  0  0  0  0  0  0  0  0  0  0
  190.9600  175.5260  138.6660 O   0  0  0  0  0  0  0  0  0  0  0  0
  188.9410  179.1160  138.5530 O   0  0  0  0  0  0  0  0  0  0  0  0
  189.4100  177.9760  138.8110 C   0  0  0  0  0  0  0  0  0  0  0  0
  189.9360  175.6560  137.9430 C   0  0  0  0  0  0  0  0  0  0  0  0
  189.2410  176.9100  137.8610 N   0  0  0  0  0  0  0  0  0  0  0  0
  189.4430  174.4790  137.1710 C   0  0  0  0  0  2  0  0  0  0  0  0
  190.3360  174.2200  136.0070 C   0  0  0  0  0  0  0  0  0  0  0  0
  190.2020  174.8890  134.9490 O   0  0  0  0  0  0  0  0  0  0  0  0
  191.3670  173.2450  136.1040 N   0  0  0  0  0  1  0  0  0  0  0  0
  1 14  1  0  0  0  0
  1  9  1  0  0  0  0
  2  5  1  1  0  0  0
  2  3  1  0  0  0  0
  3 19  2  0  0  0  0
  3  7  1  0  0  0  0
  4 11  1  0  0  0  0
  5 14  2  0  0  0  0
  6  1  2  0  0  0  0
  7  4  1  0  0  0  0
  8 21  1  6  0  0  0
  8 13  1  0  0  0  0
 10 19  1  0  0  0  0
 12  8  1  0  0  0  0
 12 16  1  0  0  0  0
 13 18  1  6  0  0  0
 13  2  1  0  0  0  0
 16  5  1  0  0  0  0
 17 16  2  0  0  0  0
 17  6  1  0  0  0  0
 18 10  2  0  0  0  0
 19 20  1  0  0  0  0
 20 15  2  0  0  0  0
 20 11  1  0  0  0  0
 22 27  1  0  0  0  0
 24 25  2  0  0  0  0
 25 21  1  0  0  0  0
 26 23  2  0  0  0  0
 27 26  1  0  0  0  0
 27 25  1  0  0  0  0
 28 26  1  0  0  0  0
 29 31  1  0  0  0  0
 29 28  1  0  0  0  0
 30 29  2  0  0  0  0
M  END
>  <MODEL>
1

>  <REMARK>
 VINA RESULT:     -10.5      0.000      0.000
  Name = 
  4 active torsions:
  status: ('A' for Active; 'I' for Inactive)
    1  A    between atoms: C_1  and  C_24
    2  A    between atoms: C_9  and  C_23
    3  A    between atoms: C_15  and  C_23
    4  A    between atoms: C_19  and  C_24
                            x       y       z     vdW  Elec       q    Type
                         _______ _______ _______ _____ _____    ______ ____

>  <TORSDO>
F 4

$$$$
=
 OpenBabel10262419393D

 31 34  0  0  1  0  0  0  0  0999 V2000
  184.8400  178.5530  144.1210 C   0  0  0  0  0  0  0  0  0  0  0  0
  188.3830  177.1610  143.6470 C   0  0  1  0  0  3  0  0  0  0  0  0
  188.9810  177.2230  145.0490 C   0  0  0  0  0  0  0  0  0  0  0  0
  188.5660  177.1960  147.5510 C   0  0  0  0  0  2  0  0  0  0  0  0
  187.0660  177.8790  143.4050 C   0  0  0  0  0  0  0  0  0  0  0  0
  184.5810  179.0720  142.8510 C   0  0  0  0  0  3  0  0  0  0  0  0
  188.1820  177.5670  146.1920 N   0  0  0  0  0  2  0  0  0  0  0  0
  188.8900  177.4450  141.1980 C   0  0  2  0  0  3  0  0  0  0  0  0
  183.8070  178.6400  145.1850 C   0  0  0  0  0  1  0  0  0  0  0  0
  191.1070  176.4880  144.0600 C   0  0  0  0  0  3  0  0  0  0  0  0
  190.0180  177.2080  147.6920 N   0  0  0  0  0  2  0  0  0  0  0  0
  187.7050  178.2320  141.0720 O   0  0  0  0  0  0  0  0  0  0  0  0
  189.4480  177.5780  142.6130 C   0  0  2  0  0  3  0  0  0  0  0  0
  186.0700  177.9480  144.3900 C   0  0  0  0  0  3  0  0  0  0  0  0
  192.0760  176.6570  146.7600 O   0  0  0  0  0  0  0  0  0  0  0  0
  186.7730  178.3560  142.1080 C   0  0  0  0  0  0  0  0  0  0  0  0
  185.5440  178.9690  141.8450 C   0  0  0  0  0  3  0  0  0  0  0  0
  190.7070  176.7800  142.8210 C   0  0  0  0  0  3  0  0  0  0  0  0
  190.2700  176.8570  145.2260 C   0  0  0  0  0  0  0  0  0  0  0  0
  190.8510  176.8810  146.5790 C   0  0  0  0  0  0  0  0  0  0  0  0
  189.9060  177.8980  140.1570 C   0  0  0  0  0  2  0  0  0  0  0  0
  190.3300  176.0710  136.8990 F   0  0  0  0  0  0  0  0  0  0  0  0
  188.1280  178.5720  138.0770 O   0  0  0  0  0  0  0  0  0  0  0  0
  190.7670  175.7740  139.5530 O   0  0  0  0  0  0  0  0  0  0  0  0
  190.1560  176.8060  139.1690 C   0  0  0  0  0  0  0  0  0  0  0  0
  188.8880  177.9420  137.2940 C   0  0  0  0  0  0  0  0  0  0  0  0
  189.7880  176.9360  137.7850 N   0  0  0  0  0  0  0  0  0  0  0  0
  188.8500  178.2600  135.8380 C   0  0  0  0  0  2  0  0  0  0  0  0
  187.8220  177.4240  135.1580 C   0  0  0  0  0  0  0  0  0  0  0  0
  188.1560  176.3490  134.5940 O   0  0  0  0  0  0  0  0  0  0  0  0
  186.4550  177.8180  135.1790 N   0  0  0  0  0  1  0  0  0  0  0  0
  1 14  1  0  0  0  0
  1  9  1  0  0  0  0
  2  5  1  1  0  0  0
  2  3  1  0  0  0  0
  3 19  2  0  0  0  0
  3  7  1  0  0  0  0
  4 11  1  0  0  0  0
  5 14  2  0  0  0  0
  6  1  2  0  0  0  0
  7  4  1  0  0  0  0
  8 21  1  6  0  0  0
  8 13  1  0  0  0  0
 10 19  1  0  0  0  0
 12  8  1  0  0  0  0
 12 16  1  0  0  0  0
 13 18  1  6  0  0  0
 13  2  1  0  0  0  0
 16  5  1  0  0  0  0
 17 16  2  0  0  0  0
 17  6  1  0  0  0  0
 18 10  2  0  0  0  0
 19 20  1  0  0  0  0
 20 15  2  0  0  0  0
 20 11  1  0  0  0  0
 22 27  1  0  0  0  0
 25 24  2  0  0  0  0
 25 21  1  0  0  0  0
 26 27  1  0  0  0  0
 26 23  2  0  0  0  0
 27 25  1  0  0  0  0
 28 26  1  0  0  0  0
 29 31  1  0  0  0  0
 29 28  1  0  0  0  0
 30 29  2  0  0  0  0
M  END
>  <MODEL>
2

>  <REMARK>
 VINA RESULT:     -10.3      1.443      2.076
  Name = 
  4 active torsions:
  status: ('A' for Active; 'I' for Inactive)
    1  A    between atoms: C_1  and  C_24
    2  A    between atoms: C_9  and  C_23
    3  A    between atoms: C_15  and  C_23
    4  A    between atoms: C_19  and  C_24
                            x       y       z     vdW  Elec       q    Type
                         _______ _______ _______ _____ _____    ______ ____

>  <TORSDO>
F 4

$$$$
=
 OpenBabel10262419393D

 31 34  0  0  1  0  0  0  0  0999 V2000
  190.8280  176.9400  146.3470 C   0  0  0  0  0  0  0  0  0  0  0  0
  188.0690  178.1500  143.9720 C   0  0  1  0  0  3  0  0  0  0  0  0
  186.8320  178.2080  144.8620 C   0  0  0  0  0  0  0  0  0  0  0  0
  185.8950  178.4980  147.2020 C   0  0  0  0  0  2  0  0  0  0  0  0
  189.3060  177.4590  144.5200 C   0  0  0  0  0  0  0  0  0  0  0  0
  191.6950  176.3060  145.4560 C   0  0  0  0  0  3  0  0  0  0  0  0
  186.9180  178.0070  146.2820 N   0  0  0  0  0  2  0  0  0  0  0  0
  188.8950  177.6060  141.6580 C   0  0  2  0  0  3  0  0  0  0  0  0
  191.1600  176.9950  147.7940 C   0  0  0  0  0  1  0  0  0  0  0  0
  185.5390  178.7640  142.8490 C   0  0  0  0  0  3  0  0  0  0  0  0
  184.5800  178.4490  146.5740 N   0  0  0  0  0  2  0  0  0  0  0  0
  189.9580  176.8530  142.2430 O   0  0  0  0  0  0  0  0  0  0  0  0
  187.6830  177.5950  142.5870 C   0  0  2  0  0  3  0  0  0  0  0  0
  189.6490  177.5240  145.8790 C   0  0  0  0  0  3  0  0  0  0  0  0
  183.3110  178.8300  144.6620 O   0  0  0  0  0  0  0  0  0  0  0  0
  190.2180  176.8660  143.6190 C   0  0  0  0  0  0  0  0  0  0  0  0
  191.3920  176.2740  144.0920 C   0  0  0  0  0  3  0  0  0  0  0  0
  186.5150  178.3650  142.0320 C   0  0  0  0  0  3  0  0  0  0  0  0
  185.6450  178.5430  144.3100 C   0  0  0  0  0  0  0  0  0  0  0  0
  184.4480  178.6340  145.1640 C   0  0  0  0  0  0  0  0  0  0  0  0
  188.5540  177.0160  140.2950 C   0  0  0  0  0  2  0  0  0  0  0  0
  189.8790  178.3960  137.0600 F   0  0  0  0  0  0  0  0  0  0  0  0
  190.9670  175.9210  139.3360 O   0  0  0  0  0  0  0  0  0  0  0  0
  188.3450  179.0950  139.1760 O   0  0  0  0  0  0  0  0  0  0  0  0
  188.9200  177.9750  139.2100 C   0  0  0  0  0  0  0  0  0  0  0  0
  190.7290  176.4920  138.2390 C   0  0  0  0  0  0  0  0  0  0  0  0
  189.8470  177.6240  138.1690 N   0  0  0  0  0  0  0  0  0  0  0  0
  191.3720  175.9710  136.9980 C   0  0  0  0  0  2  0  0  0  0  0  0
  192.8070  175.6650  137.2550 C   0  0  0  0  0  0  0  0  0  0  0  0
  193.6340  176.6010  137.4090 O   0  0  0  0  0  0  0  0  0  0  0  0
  193.2370  174.3130  137.3670 N   0  0  0  0  0  1  0  0  0  0  0  0
  1  9  1  0  0  0  0
  2  5  1  1  0  0  0
  2  3  1  0  0  0  0
  3  7  1  0  0  0  0
  5 14  2  0  0  0  0
  6  1  2  0  0  0  0
  7  4  1  0  0  0  0
  8 21  1  6  0  0  0
  8 12  1  0  0  0  0
  8 13  1  0  0  0  0
 10 19  1  0  0  0  0
 11  4  1  0  0  0  0
 12 16  1  0  0  0  0
 13 18  1  6  0  0  0
 13  2  1  0  0  0  0
 14  1  1  0  0  0  0
 15 20  2  0  0  0  0
 16 17  2  0  0  0  0
 16  5  1  0  0  0  0
 17  6  1  0  0  0  0
 18 10  2  0  0  0  0
 19  3  2  0  0  0  0
 19 20  1  0  0  0  0
 20 11  1  0  0  0  0
 22 27  1  0  0  0  0
 24 25  2  0  0  0  0
 25 21  1  0  0  0  0
 26 23  2  0  0  0  0
 27 26  1  0  0  0  0
 27 25  1  0  0  0  0
 28 29  1  0  0  0  0
 28 26  1  0  0  0  0
 29 31  1  0  0  0  0
 29 30  2  0  0  0  0
M  END
>  <MODEL>
3

>  <REMARK>
 VINA RESULT:     -10.1      1.932      4.352
  Name = 
  4 active torsions:
  status: ('A' for Active; 'I' for Inactive)
    1  A    between atoms: C_1  and  C_24
    2  A    between atoms: C_9  and  C_23
    3  A    between atoms: C_15  and  C_23
    4  A    between atoms: C_19  and  C_24
                            x       y       z     vdW  Elec       q    Type
                         _______ _______ _______ _____ _____    ______ ____

>  <TORSDO>
F 4

$$$$
=
 OpenBabel10262419393D

 31 34  0  0  1  0  0  0  0  0999 V2000
  187.2150  177.8470  147.1280 C   0  0  0  0  0  0  0  0  0  0  0  0
  187.7050  177.5100  143.3380 C   0  0  1  0  0  3  0  0  0  0  0  0
  189.2210  177.5090  143.1730 C   0  0  0  0  0  0  0  0  0  0  0  0
  191.4820  176.9940  144.2020 C   0  0  0  0  0  2  0  0  0  0  0  0
  187.1390  177.8900  144.6960 C   0  0  0  0  0  0  0  0  0  0  0  0
  185.9670  178.4690  147.1860 C   0  0  0  0  0  3  0  0  0  0  0  0
  190.1010  177.4570  144.3080 N   0  0  0  0  0  2  0  0  0  0  0  0
  185.5410  178.2850  142.3140 C   0  0  2  0  0  3  0  0  0  0  0  0
  187.9330  177.5010  148.3820 C   0  0  0  0  0  1  0  0  0  0  0  0
  188.8510  177.5100  140.7440 C   0  0  0  0  0  3  0  0  0  0  0  0
  192.0440  177.3600  142.9070 N   0  0  0  0  0  2  0  0  0  0  0  0
  185.1290  178.7490  143.6000 O   0  0  0  0  0  0  0  0  0  0  0  0
  187.0640  178.3410  142.2100 C   0  0  2  0  0  3  0  0  0  0  0  0
  187.7900  177.5480  145.8900 C   0  0  0  0  0  3  0  0  0  0  0  0
  191.7210  177.5100  140.6080 O   0  0  0  0  0  0  0  0  0  0  0  0
  185.8520  178.4680  144.7660 C   0  0  0  0  0  0  0  0  0  0  0  0
  185.2850  178.7740  146.0060 C   0  0  0  0  0  3  0  0  0  0  0  0
  187.5740  177.8740  140.8730 C   0  0  0  0  0  3  0  0  0  0  0  0
  189.7430  177.4670  141.9260 C   0  0  0  0  0  0  0  0  0  0  0  0
  191.2050  177.4330  141.7540 C   0  0  0  0  0  0  0  0  0  0  0  0
  184.8810  179.1400  141.2390 C   0  0  0  0  0  2  0  0  0  0  0  0
  182.8220  176.9130  139.0180 F   0  0  0  0  0  0  0  0  0  0  0  0
  185.5180  179.1360  138.4930 O   0  0  0  0  0  0  0  0  0  0  0  0
  182.6750  178.2780  141.3480 O   0  0  0  0  0  0  0  0  0  0  0  0
  183.7130  178.4170  140.6490 C   0  0  0  0  0  0  0  0  0  0  0  0
  184.7960  178.1100  138.3810 C   0  0  0  0  0  0  0  0  0  0  0  0
  183.7730  177.8150  139.3450 N   0  0  0  0  0  0  0  0  0  0  0  0
  185.0190  177.1920  137.2270 C   0  0  0  0  0  2  0  0  0  0  0  0
  186.4640  177.1610  136.8700 C   0  0  0  0  0  0  0  0  0  0  0  0
  187.2710  176.4890  137.5640 O   0  0  0  0  0  0  0  0  0  0  0  0
  186.9290  177.8580  135.7200 N   0  0  0  0  0  1  0  0  0  0  0  0
  1  6  1  0  0  0  0
  1  9  1  0  0  0  0
  2  3  1  1  0  0  0
  2  5  1  0  0  0  0
  3  7  1  0  0  0  0
  4  7  1  0  0  0  0
  5 16  2  0  0  0  0
  5 14  1  0  0  0  0
  8 21  1  6  0  0  0
  8 12  1  0  0  0  0
 10 18  2  0  0  0  0
 10 19  1  0  0  0  0
 11  4  1  0  0  0  0
 12 16  1  0  0  0  0
 13 18  1  6  0  0  0
 13  8  1  0  0  0  0
 13  2  1  0  0  0  0
 14  1  2  0  0  0  0
 15 20  2  0  0  0  0
 16 17  1  0  0  0  0
 17  6  2  0  0  0  0
 19  3  2  0  0  0  0
 20 19  1  0  0  0  0
 20 11  1  0  0  0  0
 22 27  1  0  0  0  0
 25 21  1  0  0  0  0
 25 24  2  0  0  0  0
 26 23  2  0  0  0  0
 26 27  1  0  0  0  0
 27 25  1  0  0  0  0
 28 26  1  0  0  0  0
 29 28  1  0  0  0  0
 29 30  2  0  0  0  0
 31 29  1  0  0  0  0
M  END
>  <MODEL>
4

>  <REMARK>
 VINA RESULT:     -10.0      2.994      4.653
  Name = 
  4 active torsions:
  status: ('A' for Active; 'I' for Inactive)
    1  A    between atoms: C_1  and  C_24
    2  A    between atoms: C_9  and  C_23
    3  A    between atoms: C_15  and  C_23
    4  A    between atoms: C_19  and  C_24
                            x       y       z     vdW  Elec       q    Type
                         _______ _______ _______ _____ _____    ______ ____

>  <TORSDO>
F 4

$$$$
=
 OpenBabel10262419393D

 31 34  0  0  1  0  0  0  0  0999 V2000
  183.5510  179.1720  139.9560 C   0  0  0  0  0  0  0  0  0  0  0  0
  186.7560  178.6080  141.9870 C   0  0  1  0  0  3  0  0  0  0  0  0
  187.7780  178.1940  140.9330 C   0  0  0  0  0  0  0  0  0  0  0  0
  188.5190  178.3170  138.5100 C   0  0  0  0  0  2  0  0  0  0  0  0
  185.2950  178.6630  141.5750 C   0  0  0  0  0  0  0  0  0  0  0  0
  182.5720  178.9090  140.9150 C   0  0  0  0  0  3  0  0  0  0  0  0
  187.4750  178.2490  139.5300 N   0  0  0  0  0  2  0  0  0  0  0  0
  185.9870  178.2150  144.3510 C   0  0  2  0  0  3  0  0  0  0  0  0
  183.1560  179.5700  138.5790 C   0  0  0  0  0  1  0  0  0  0  0  0
  189.3580  177.8000  142.7730 C   0  0  0  0  0  3  0  0  0  0  0  0
  189.6960  177.5700  138.9350 N   0  0  0  0  0  2  0  0  0  0  0  0
  184.6440  178.1380  143.8730 O   0  0  0  0  0  0  0  0  0  0  0  0
  186.9500  177.7580  143.2570 C   0  0  2  0  0  3  0  0  0  0  0  0
  184.9030  179.0620  140.2890 C   0  0  0  0  0  3  0  0  0  0  0  0
  191.1610  177.0480  140.6660 O   0  0  0  0  0  0  0  0  0  0  0  0
  184.2980  178.4550  142.5540 C   0  0  0  0  0  0  0  0  0  0  0  0
  182.9450  178.5570  142.2140 C   0  0  0  0  0  3  0  0  0  0  0  0
  188.3910  177.8030  143.6920 C   0  0  0  0  0  3  0  0  0  0  0  0
  189.0240  177.8520  141.3310 C   0  0  0  0  0  0  0  0  0  0  0  0
  190.0300  177.4800  140.3210 C   0  0  0  0  0  0  0  0  0  0  0  0
  186.1240  177.3570  145.6030 C   0  0  0  0  0  2  0  0  0  0  0  0
  187.6060  179.3730  148.4080 F   0  0  0  0  0  0  0  0  0  0  0  0
  188.4170  176.3030  146.8570 O   0  0  0  0  0  0  0  0  0  0  0  0
  185.2510  178.9230  147.1540 O   0  0  0  0  0  0  0  0  0  0  0  0
  186.2420  178.2250  146.8130 C   0  0  0  0  0  0  0  0  0  0  0  0
  188.5750  177.4300  147.3980 C   0  0  0  0  0  0  0  0  0  0  0  0
  187.4740  178.3410  147.5450 N   0  0  0  0  0  0  0  0  0  0  0  0
  189.9310  177.8150  147.8830 C   0  0  0  0  0  2  0  0  0  0  0  0
  190.9780  177.1290  147.0760 C   0  0  0  0  0  0  0  0  0  0  0  0
  191.0920  177.3810  145.8480 O   0  0  0  0  0  0  0  0  0  0  0  0
  191.8740  176.2170  147.7000 N   0  0  0  0  0  1  0  0  0  0  0  0
  1 14  2  0  0  0  0
  1  6  1  0  0  0  0
  2  3  1  6  0  0  0
  2 13  1  0  0  0  0
  3 19  2  0  0  0  0
  4 11  1  0  0  0  0
  4  7  1  0  0  0  0
  5  2  1  0  0  0  0
  5 16  2  0  0  0  0
  6 17  2  0  0  0  0
  7  3  1  0  0  0  0
  8 21  1  1  0  0  0
  9  1  1  0  0  0  0
 10 18  2  0  0  0  0
 11 20  1  0  0  0  0
 12  8  1  0  0  0  0
 13 18  1  1  0  0  0
 13  8  1  0  0  0  0
 14  5  1  0  0  0  0
 16 12  1  0  0  0  0
 17 16  1  0  0  0  0
 19 10  1  0  0  0  0
 20 15  2  0  0  0  0
 20 19  1  0  0  0  0
 21 25  1  0  0  0  0
 23 26  2  0  0  0  0
 25 24  2  0  0  0  0
 25 27  1  0  0  0  0
 26 27  1  0  0  0  0
 26 28  1  0  0  0  0
 27 22  1  0  0  0  0
 29 31  1  0  0  0  0
 29 28  1  0  0  0  0
 30 29  2  0  0  0  0
M  END
>  <MODEL>
5

>  <REMARK>
 VINA RESULT:      -9.8      3.267      7.274
  Name = 
  4 active torsions:
  status: ('A' for Active; 'I' for Inactive)
    1  A    between atoms: C_1  and  C_24
    2  A    between atoms: C_9  and  C_23
    3  A    between atoms: C_15  and  C_23
    4  A    between atoms: C_19  and  C_24
                            x       y       z     vdW  Elec       q    Type
                         _______ _______ _______ _____ _____    ______ ____

>  <TORSDO>
F 4

$$$$
=
 OpenBabel10262419393D

 31 34  0  0  1  0  0  0  0  0999 V2000
  190.8270  176.7930  146.2580 C   0  0  0  0  0  0  0  0  0  0  0  0
  188.0880  178.1370  143.9330 C   0  0  1  0  0  3  0  0  0  0  0  0
  186.8540  178.1870  144.8270 C   0  0  0  0  0  0  0  0  0  0  0  0
  185.9260  178.4140  147.1770 C   0  0  0  0  0  2  0  0  0  0  0  0
  189.3130  177.4040  144.4540 C   0  0  0  0  0  0  0  0  0  0  0  0
  191.6810  176.1740  145.3430 C   0  0  0  0  0  3  0  0  0  0  0  0
  186.9390  177.9360  146.2390 N   0  0  0  0  0  2  0  0  0  0  0  0
  188.9000  177.6570  141.5990 C   0  0  2  0  0  3  0  0  0  0  0  0
  191.1620  176.7930  147.7060 C   0  0  0  0  0  1  0  0  0  0  0  0
  185.5680  178.8360  142.8370 C   0  0  0  0  0  3  0  0  0  0  0  0
  184.6090  178.4110  146.5510 N   0  0  0  0  0  2  0  0  0  0  0  0
  189.9490  176.8640  142.1550 O   0  0  0  0  0  0  0  0  0  0  0  0
  187.6900  177.6370  142.5300 C   0  0  2  0  0  3  0  0  0  0  0  0
  189.6580  177.4160  145.8130 C   0  0  0  0  0  3  0  0  0  0  0  0
  183.3450  178.8820  144.6560 O   0  0  0  0  0  0  0  0  0  0  0  0
  190.2110  176.8250  143.5300 C   0  0  0  0  0  0  0  0  0  0  0  0
  191.3750  176.1950  143.9810 C   0  0  0  0  0  3  0  0  0  0  0  0
  186.5350  178.4470  142.0040 C   0  0  0  0  0  3  0  0  0  0  0  0
  185.6720  178.5630  144.2890 C   0  0  0  0  0  0  0  0  0  0  0  0
  184.4790  178.6470  145.1480 C   0  0  0  0  0  0  0  0  0  0  0  0
  188.5450  177.1200  140.2180 C   0  0  0  0  0  2  0  0  0  0  0  0
  189.8050  178.4720  136.9440 F   0  0  0  0  0  0  0  0  0  0  0  0
  190.5550  175.6350  138.9140 O   0  0  0  0  0  0  0  0  0  0  0  0
  188.6800  179.2870  139.2660 O   0  0  0  0  0  0  0  0  0  0  0  0
  188.9990  178.0740  139.1610 C   0  0  0  0  0  0  0  0  0  0  0  0
  190.3360  176.3370  137.8910 C   0  0  0  0  0  0  0  0  0  0  0  0
  189.7190  177.6300  137.9980 N   0  0  0  0  0  0  0  0  0  0  0  0
  190.7230  175.8050  136.5530 C   0  0  0  0  0  2  0  0  0  0  0  0
  189.7110  174.8190  136.0820 C   0  0  0  0  0  0  0  0  0  0  0  0
  188.7130  175.2080  135.4200 O   0  0  0  0  0  0  0  0  0  0  0  0
  189.8910  173.4320  136.3460 N   0  0  0  0  0  1  0  0  0  0  0  0
  1  9  1  0  0  0  0
  2  5  1  1  0  0  0
  2  3  1  0  0  0  0
  3  7  1  0  0  0  0
  5 14  2  0  0  0  0
  6  1  2  0  0  0  0
  7  4  1  0  0  0  0
  8 21  1  6  0  0  0
  8 12  1  0  0  0  0
  8 13  1  0  0  0  0
 10 19  1  0  0  0  0
 11  4  1  0  0  0  0
 12 16  1  0  0  0  0
 13 18  1  6  0  0  0
 13  2  1  0  0  0  0
 14  1  1  0  0  0  0
 15 20  2  0  0  0  0
 16 17  2  0  0  0  0
 16  5  1  0  0  0  0
 17  6  1  0  0  0  0
 18 10  2  0  0  0  0
 19  3  2  0  0  0  0
 19 20  1  0  0  0  0
 20 11  1  0  0  0  0
 22 27  1  0  0  0  0
 25 24  2  0  0  0  0
 25 21  1  0  0  0  0
 26 27  1  0  0  0  0
 26 23  2  0  0  0  0
 27 25  1  0  0  0  0
 28 26  1  0  0  0  0
 29 31  1  0  0  0  0
 29 28  1  0  0  0  0
 30 29  2  0  0  0  0
M  END
>  <MODEL>
6

>  <REMARK>
 VINA RESULT:      -9.8      1.728      4.211
  Name = 
  4 active torsions:
  status: ('A' for Active; 'I' for Inactive)
    1  A    between atoms: C_1  and  C_24
    2  A    between atoms: C_9  and  C_23
    3  A    between atoms: C_15  and  C_23
    4  A    between atoms: C_19  and  C_24
                            x       y       z     vdW  Elec       q    Type
                         _______ _______ _______ _____ _____    ______ ____

>  <TORSDO>
F 4

$$$$
=
 OpenBabel10262419393D

 31 34  0  0  1  0  0  0  0  0999 V2000
  188.4700  177.4840  147.4700 C   0  0  0  0  0  0  0  0  0  0  0  0
  187.4830  178.4000  143.8780 C   0  0  1  0  0  3  0  0  0  0  0  0
  185.9590  178.4150  143.9190 C   0  0  0  0  0  0  0  0  0  0  0  0
  183.8620  178.7480  145.3090 C   0  0  0  0  0  2  0  0  0  0  0  0
  188.2200  177.8180  145.0720 C   0  0  0  0  0  0  0  0  0  0  0  0
  189.7060  176.8700  147.2640 C   0  0  0  0  0  3  0  0  0  0  0  0
  185.2400  178.2840  145.1560 N   0  0  0  0  0  2  0  0  0  0  0  0
  189.4810  177.8080  142.4660 C   0  0  2  0  0  3  0  0  0  0  0  0
  187.9300  177.6270  148.8470 C   0  0  0  0  0  1  0  0  0  0  0  0
  186.0020  178.7920  141.4920 C   0  0  0  0  0  3  0  0  0  0  0  0
  183.1280  178.5820  144.0590 N   0  0  0  0  0  2  0  0  0  0  0  0
  190.0540  177.1540  143.5990 O   0  0  0  0  0  0  0  0  0  0  0  0
  187.9570  177.7580  142.5590 C   0  0  2  0  0  3  0  0  0  0  0  0
  187.7390  177.9670  146.3820 C   0  0  0  0  0  3  0  0  0  0  0  0
  183.1400  178.7920  141.7430 O   0  0  0  0  0  0  0  0  0  0  0  0
  189.4970  177.2460  144.8800 C   0  0  0  0  0  0  0  0  0  0  0  0
  190.2210  176.7560  145.9710 C   0  0  0  0  0  3  0  0  0  0  0  0
  187.2800  178.4220  141.3910 C   0  0  0  0  0  3  0  0  0  0  0  0
  185.2770  178.6450  142.7750 C   0  0  0  0  0  0  0  0  0  0  0  0
  183.8050  178.6940  142.8070 C   0  0  0  0  0  0  0  0  0  0  0  0
  189.9800  177.1350  141.1930 C   0  0  0  0  0  2  0  0  0  0  0  0
  193.3690  177.6140  139.6380 F   0  0  0  0  0  0  0  0  0  0  0  0
  190.5550  175.6090  138.8940 O   0  0  0  0  0  0  0  0  0  0  0  0
  192.0990  177.8060  142.0190 O   0  0  0  0  0  0  0  0  0  0  0  0
  191.4530  177.3420  141.0430 C   0  0  0  0  0  0  0  0  0  0  0  0
  191.5530  176.3560  138.7120 C   0  0  0  0  0  0  0  0  0  0  0  0
  192.1290  177.1000  139.7980 N   0  0  0  0  0  0  0  0  0  0  0  0
  192.1330  176.4670  137.3430 C   0  0  0  0  0  2  0  0  0  0  0  0
  193.2790  175.5270  137.1940 C   0  0  0  0  0  0  0  0  0  0  0  0
  194.4590  175.9660  137.2000 O   0  0  0  0  0  0  0  0  0  0  0  0
  193.0420  174.1280  137.0850 N   0  0  0  0  0  1  0  0  0  0  0  0
  1  9  1  0  0  0  0
  2  3  1  1  0  0  0
  2  5  1  0  0  0  0
  3  7  1  0  0  0  0
  5 14  1  0  0  0  0
  6  1  1  0  0  0  0
  7  4  1  0  0  0  0
  8 21  1  6  0  0  0
  8 13  1  0  0  0  0
  8 12  1  0  0  0  0
 10 19  1  0  0  0  0
 11  4  1  0  0  0  0
 12 16  1  0  0  0  0
 13 18  1  6  0  0  0
 13  2  1  0  0  0  0
 14  1  2  0  0  0  0
 15 20  2  0  0  0  0
 16  5  2  0  0  0  0
 16 17  1  0  0  0  0
 17  6  2  0  0  0  0
 18 10  2  0  0  0  0
 19 20  1  0  0  0  0
 19  3  2  0  0  0  0
 20 11  1  0  0  0  0
 22 27  1  0  0  0  0
 25 21  1  0  0  0  0
 25 24  2  0  0  0  0
 26 23  2  0  0  0  0
 26 27  1  0  0  0  0
 27 25  1  0  0  0  0
 28 26  1  0  0  0  0
 29 30  2  0  0  0  0
 29 28  1  0  0  0  0
 31 29  1  0  0  0  0
M  END
>  <MODEL>
7

>  <REMARK>
 VINA RESULT:      -9.6      2.526      4.813
  Name = 
  4 active torsions:
  status: ('A' for Active; 'I' for Inactive)
    1  A    between atoms: C_1  and  C_24
    2  A    between atoms: C_9  and  C_23
    3  A    between atoms: C_15  and  C_23
    4  A    between atoms: C_19  and  C_24
                            x       y       z     vdW  Elec       q    Type
                         _______ _______ _______ _____ _____    ______ ____

>  <TORSDO>
F 4

$$$$
=
 OpenBabel10262419393D

 31 34  0  0  1  0  0  0  0  0999 V2000
  184.7580  178.6290  139.4240 C   0  0  0  0  0  0  0  0  0  0  0  0
  186.3820  177.7580  142.7890 C   0  0  1  0  0  3  0  0  0  0  0  0
  185.3730  178.2660  143.8140 C   0  0  0  0  0  0  0  0  0  0  0  0
  182.9510  178.8020  144.3430 C   0  0  0  0  0  2  0  0  0  0  0  0
  186.1880  178.1680  141.3390 C   0  0  0  0  0  0  0  0  0  0  0  0
  185.8820  178.7640  138.6070 C   0  0  0  0  0  3  0  0  0  0  0  0
  184.0810  178.7520  143.4180 N   0  0  0  0  0  2  0  0  0  0  0  0
  188.8370  177.4960  142.2970 C   0  0  2  0  0  3  0  0  0  0  0  0
  183.3980  178.8130  138.8540 C   0  0  0  0  0  1  0  0  0  0  0  0
  186.9980  177.6620  145.5550 C   0  0  0  0  0  3  0  0  0  0  0  0
  183.4130  179.0840  145.6970 N   0  0  0  0  0  2  0  0  0  0  0  0
  188.6040  178.0230  140.9910 O   0  0  0  0  0  0  0  0  0  0  0  0
  187.8110  178.0690  143.2740 C   0  0  2  0  0  3  0  0  0  0  0  0
  184.9110  178.3200  140.7780 C   0  0  0  0  0  3  0  0  0  0  0  0
  184.9900  178.6590  147.3530 O   0  0  0  0  0  0  0  0  0  0  0  0
  187.3160  178.2510  140.4920 C   0  0  0  0  0  0  0  0  0  0  0  0
  187.1590  178.5700  139.1400 C   0  0  0  0  0  3  0  0  0  0  0  0
  188.0000  177.5650  144.6790 C   0  0  0  0  0  3  0  0  0  0  0  0
  185.6740  178.1710  145.1280 C   0  0  0  0  0  0  0  0  0  0  0  0
  184.6950  178.6280  146.1300 C   0  0  0  0  0  0  0  0  0  0  0  0
  190.2590  177.8320  142.7270 C   0  0  0  0  0  2  0  0  0  0  0  0
  192.0850  174.7690  143.9160 F   0  0  0  0  0  0  0  0  0  0  0  0
  191.5370  178.0020  145.2340 O   0  0  0  0  0  0  0  0  0  0  0  0
  191.3030  176.0030  141.6390 O   0  0  0  0  0  0  0  0  0  0  0  0
  191.1030  176.5990  142.7300 C   0  0  0  0  0  0  0  0  0  0  0  0
  191.6630  176.7490  145.1950 C   0  0  0  0  0  0  0  0  0  0  0  0
  191.6230  176.0380  143.9470 N   0  0  0  0  0  0  0  0  0  0  0  0
  191.8500  176.0020  146.4720 C   0  0  0  0  0  2  0  0  0  0  0  0
  191.2870  176.7820  147.6090 C   0  0  0  0  0  0  0  0  0  0  0  0
  192.0550  177.2850  148.4690 O   0  0  0  0  0  0  0  0  0  0  0  0
  189.8830  176.9920  147.7020 N   0  0  0  0  0  1  0  0  0  0  0  0
  1 14  1  0  0  0  0
  2  5  1  6  0  0  0
  2 13  1  0  0  0  0
  2  3  1  0  0  0  0
  3 19  2  0  0  0  0
  4 11  1  0  0  0  0
  6 17  1  0  0  0  0
  6  1  2  0  0  0  0
  7  3  1  0  0  0  0
  7  4  1  0  0  0  0
  8 21  1  1  0  0  0
  8 13  1  0  0  0  0
  9  1  1  0  0  0  0
 11 20  1  0  0  0  0
 12  8  1  0  0  0  0
 13 18  1  1  0  0  0
 14  5  2  0  0  0  0
 16 12  1  0  0  0  0
 16  5  1  0  0  0  0
 17 16  2  0  0  0  0
 18 10  2  0  0  0  0
 19 10  1  0  0  0  0
 19 20  1  0  0  0  0
 20 15  2  0  0  0  0
 21 25  1  0  0  0  0
 22 27  1  0  0  0  0
 24 25  2  0  0  0  0
 25 27  1  0  0  0  0
 26 23  2  0  0  0  0
 26 28  1  0  0  0  0
 27 26  1  0  0  0  0
 28 29  1  0  0  0  0
 29 31  1  0  0  0  0
 29 30  2  0  0  0  0
M  END
>  <MODEL>
8

>  <REMARK>
 VINA RESULT:      -9.4      3.466      6.373
  Name = 
  4 active torsions:
  status: ('A' for Active; 'I' for Inactive)
    1  A    between atoms: C_1  and  C_24
    2  A    between atoms: C_9  and  C_23
    3  A    between atoms: C_15  and  C_23
    4  A    between atoms: C_19  and  C_24
                            x       y       z     vdW  Elec       q    Type
                         _______ _______ _______ _____ _____    ______ ____

>  <TORSDO>
F 4

$$$$
=
 OpenBabel10262419393D

 31 34  0  0  1  0  0  0  0  0999 V2000
  190.8820  176.7630  145.8840 C   0  0  0  0  0  0  0  0  0  0  0  0
  188.0390  178.1620  143.7220 C   0  0  1  0  0  3  0  0  0  0  0  0
  186.8540  178.2140  144.6800 C   0  0  0  0  0  0  0  0  0  0  0  0
  186.0530  178.4230  147.0780 C   0  0  0  0  0  2  0  0  0  0  0  0
  189.2810  177.4100  144.1690 C   0  0  0  0  0  0  0  0  0  0  0  0
  191.6790  176.1460  144.9190 C   0  0  0  0  0  3  0  0  0  0  0  0
  187.0100  177.9450  146.0830 N   0  0  0  0  0  2  0  0  0  0  0  0
  188.7220  177.7010  141.3430 C   0  0  2  0  0  3  0  0  0  0  0  0
  191.2930  176.7420  147.3120 C   0  0  0  0  0  1  0  0  0  0  0  0
  185.4730  178.9000  142.7680 C   0  0  0  0  0  3  0  0  0  0  0  0
  184.7050  178.4410  146.5220 N   0  0  0  0  0  2  0  0  0  0  0  0
  189.7900  176.8910  141.8350 O   0  0  0  0  0  0  0  0  0  0  0  0
  187.5620  177.6820  142.3370 C   0  0  2  0  0  3  0  0  0  0  0  0
  189.6980  177.4030  145.5090 C   0  0  0  0  0  3  0  0  0  0  0  0
  183.3490  178.9470  144.7020 O   0  0  0  0  0  0  0  0  0  0  0  0
  190.1240  176.8330  143.1930 C   0  0  0  0  0  0  0  0  0  0  0  0
  191.3030  176.1860  143.5750 C   0  0  0  0  0  3  0  0  0  0  0  0
  186.3900  178.5100  141.8810 C   0  0  0  0  0  3  0  0  0  0  0  0
  185.6500  178.6090  144.2090 C   0  0  0  0  0  0  0  0  0  0  0  0
  184.5040  178.6940  145.1310 C   0  0  0  0  0  0  0  0  0  0  0  0
  188.2890  177.1840  139.9770 C   0  0  0  0  0  2  0  0  0  0  0  0
  187.7750  179.2540  136.8810 F   0  0  0  0  0  0  0  0  0  0  0  0
  187.7080  175.7930  137.5950 O   0  0  0  0  0  0  0  0  0  0  0  0
  189.0560  179.3110  139.2630 O   0  0  0  0  0  0  0  0  0  0  0  0
  188.4520  178.2530  138.9450 C   0  0  0  0  0  0  0  0  0  0  0  0
  187.3820  176.9010  137.0900 C   0  0  0  0  0  0  0  0  0  0  0  0
  187.8730  178.1360  137.6340 N   0  0  0  0  0  0  0  0  0  0  0  0
  186.4670  176.9170  135.9130 C   0  0  0  0  0  2  0  0  0  0  0  0
  185.0670  176.6560  136.3490 C   0  0  0  0  0  0  0  0  0  0  0  0
  184.3490  175.8430  135.7110 O   0  0  0  0  0  0  0  0  0  0  0  0
  184.5520  177.2960  137.5110 N   0  0  0  0  0  1  0  0  0  0  0  0
  1  9  1  0  0  0  0
  2  5  1  1  0  0  0
  2  3  1  0  0  0  0
  3  7  1  0  0  0  0
  5 14  2  0  0  0  0
  6  1  2  0  0  0  0
  7  4  1  0  0  0  0
  8 21  1  6  0  0  0
  8 12  1  0  0  0  0
  8 13  1  0  0  0  0
 10 19  1  0  0  0  0
 11  4  1  0  0  0  0
 12 16  1  0  0  0  0
 13 18  1  6  0  0  0
 13  2  1  0  0  0  0
 14  1  1  0  0  0  0
 15 20  2  0  0  0  0
 16 17  2  0  0  0  0
 16  5  1  0  0  0  0
 17  6  1  0  0  0  0
 18 10  2  0  0  0  0
 19  3  2  0  0  0  0
 19 20  1  0  0  0  0
 20 11  1  0  0  0  0
 22 27  1  0  0  0  0
 25 24  2  0  0  0  0
 25 21  1  0  0  0  0
 26 23  2  0  0  0  0
 26 27  1  0  0  0  0
 27 25  1  0  0  0  0
 28 29  1  0  0  0  0
 28 26  1  0  0  0  0
 29 31  1  0  0  0  0
 30 29  2  0  0  0  0
M  END
>  <MODEL>
9

>  <REMARK>
 VINA RESULT:      -9.3      2.564      4.785
  Name = 
  4 active torsions:
  status: ('A' for Active; 'I' for Inactive)
    1  A    between atoms: C_1  and  C_24
    2  A    between atoms: C_9  and  C_23
    3  A    between atoms: C_15  and  C_23
    4  A    between atoms: C_19  and  C_24
                            x       y       z     vdW  Elec       q    Type
                         _______ _______ _______ _____ _____    ______ ____

>  <TORSDO>
F 4

$$$$
