=
 OpenBabel10262419553D

 25 28  0  0  1  0  0  0  0  0999 V2000
  187.7130  177.9110  145.7890 N   0  0  0  0  0  0  0  0  0  0  0  0
  186.7370  177.6220  144.7340 C   0  0  0  0  0  0  0  0  0  0  0  0
  186.0220  178.6310  147.3230 C   0  0  0  0  0  3  0  0  0  0  0  0
  189.0330  177.3850  145.8680 C   0  0  0  0  0  0  0  0  0  0  0  0
  191.5930  176.3830  146.3130 C   0  0  0  0  0  3  0  0  0  0  0  0
  185.0950  178.6850  146.2270 N   0  0  0  0  0  0  0  0  0  0  0  0
  189.5910  177.4430  147.1360 C   0  0  0  0  0  0  0  0  0  0  0  0
  190.8720  176.9420  147.3770 C   0  0  0  0  0  3  0  0  0  0  0  0
  184.4860  178.4770  143.8940 C   0  0  1  0  0  3  0  0  0  0  0  0
  183.0330  178.7150  144.1150 C   0  0  0  0  0  1  0  0  0  0  0  0
  187.2310  178.0110  143.3670 C   0  0  0  0  0  3  0  0  0  0  0  0
  191.0290  176.3230  145.0280 C   0  0  0  0  0  3  0  0  0  0  0  0
  187.2880  178.2860  147.0980 C   0  0  0  0  0  0  0  0  0  0  0  0
  188.5250  178.1520  148.3930 S   0  0  0  0  0  0  0  0  0  0  0  0
  184.9630  178.5030  142.6830 N   0  0  0  0  0  0  0  0  0  0  0  0
  189.7390  176.8220  144.8000 C   0  0  0  0  0  3  0  0  0  0  0  0
  186.3680  178.3490  142.4000 C   0  0  0  0  0  0  0  0  0  0  0  0
  185.4050  178.2800  145.0270 C   0  0  0  0  0  0  0  0  0  0  0  0
  186.8810  178.6740  141.0420 C   0  0  0  0  0  2  0  0  0  0  0  0
  188.3980  178.5320  141.0080 C   0  0  0  0  0  2  0  0  0  0  0  0
  189.0480  178.5610  138.5640 C   0  0  0  0  0  1  0  0  0  0  0  0
  188.8890  177.7120  139.8160 C   0  0  1  0  0  3  0  0  0  0  0  0
  190.1370  176.9470  140.1260 C   0  0  0  0  0  0  0  0  0  0  0  0
  190.5930  175.9540  139.2660 O   0  0  0  0  0  1  0  0  0  0  0  0
  190.8230  177.2310  141.2220 C   0  0  0  0  0  2  0  0  0  0  0  0
  1  4  1  0  0  0  0
  1 13  1  0  0  0  0
  2 18  1  0  0  0  0
  2  1  1  0  0  0  0
  4  7  1  0  0  0  0
  5  8  1  0  0  0  0
  6  3  1  0  0  0  0
  7  8  2  0  0  0  0
  7 14  1  0  0  0  0
  9 10  1  1  0  0  0
  9 18  1  0  0  0  0
 11  2  2  0  0  0  0
 12  5  2  0  0  0  0
 13  3  2  0  0  0  0
 13 14  1  0  0  0  0
 15  9  1  0  0  0  0
 16 12  1  0  0  0  0
 16  4  2  0  0  0  0
 17 15  2  0  0  0  0
 17 11  1  0  0  0  0
 18  6  2  0  0  0  0
 19 17  1  0  0  0  0
 20 19  1  0  0  0  0
 22 21  1  6  0  0  0
 22 23  1  0  0  0  0
 22 20  1  0  0  0  0
 23 25  2  0  0  0  0
 24 23  1  0  0  0  0
M  END
>  <MODEL>
1

>  <REMARK>
 VINA RESULT:      -9.2      0.000      0.000
  Name = 
  4 active torsions:
  status: ('A' for Active; 'I' for Inactive)
    1  A    between atoms: C_2  and  C_25
    2  A    between atoms: C_6  and  C_15
    3  A    between atoms: C_6  and  C_23
    4  A    between atoms: C_15  and  C_25
                            x       y       z     vdW  Elec       q    Type
                         _______ _______ _______ _____ _____    ______ ____

>  <TORSDO>
F 4

$$$$
=
 OpenBabel10262419553D

 25 28  0  0  1  0  0  0  0  0999 V2000
  188.1560  177.7190  145.5510 N   0  0  0  0  0  0  0  0  0  0  0  0
  187.3240  177.4510  144.3730 C   0  0  0  0  0  0  0  0  0  0  0  0
  186.2780  178.3890  146.8740 C   0  0  0  0  0  3  0  0  0  0  0  0
  189.4590  177.1980  145.7830 C   0  0  0  0  0  0  0  0  0  0  0  0
  191.9510  176.1990  146.5250 C   0  0  0  0  0  3  0  0  0  0  0  0
  185.4970  178.4660  145.6710 N   0  0  0  0  0  0  0  0  0  0  0  0
  189.8520  177.2270  147.1130 C   0  0  0  0  0  0  0  0  0  0  0  0
  191.0960  176.7270  147.5020 C   0  0  0  0  0  3  0  0  0  0  0  0
  185.1900  178.3150  143.2750 C   0  0  1  0  0  3  0  0  0  0  0  0
  183.7190  178.5390  143.3150 C   0  0  0  0  0  1  0  0  0  0  0  0
  187.9840  177.8780  143.0900 C   0  0  0  0  0  3  0  0  0  0  0  0
  191.5550  176.1690  145.1780 C   0  0  0  0  0  3  0  0  0  0  0  0
  187.5650  178.0570  146.8030 C   0  0  0  0  0  0  0  0  0  0  0  0
  188.6290  177.8960  148.2420 S   0  0  0  0  0  0  0  0  0  0  0  0
  185.8170  178.3740  142.1360 N   0  0  0  0  0  0  0  0  0  0  0  0
  190.3000  176.6670  144.8000 C   0  0  0  0  0  3  0  0  0  0  0  0
  187.2480  178.2360  142.0300 C   0  0  0  0  0  0  0  0  0  0  0  0
  185.9600  178.0940  144.5100 C   0  0  0  0  0  0  0  0  0  0  0  0
  187.9260  178.5980  140.7560 C   0  0  0  0  0  2  0  0  0  0  0  0
  188.8950  177.4940  140.3480 C   0  0  0  0  0  2  0  0  0  0  0  0
  190.7930  176.8120  138.8220 C   0  0  0  0  0  1  0  0  0  0  0  0
  189.7850  177.8950  139.1720 C   0  0  1  0  0  3  0  0  0  0  0  0
  188.9920  178.3170  137.9760 C   0  0  0  0  0  0  0  0  0  0  0  0
  188.9650  179.6480  137.5750 O   0  0  0  0  0  1  0  0  0  0  0  0
  188.3210  177.4100  137.2820 C   0  0  0  0  0  2  0  0  0  0  0  0
  1  4  1  0  0  0  0
  1 13  1  0  0  0  0
  2 18  1  0  0  0  0
  2  1  1  0  0  0  0
  4  7  1  0  0  0  0
  5  8  1  0  0  0  0
  6  3  1  0  0  0  0
  7  8  2  0  0  0  0
  7 14  1  0  0  0  0
  9 10  1  1  0  0  0
  9 18  1  0  0  0  0
 11  2  2  0  0  0  0
 12  5  2  0  0  0  0
 13  3  2  0  0  0  0
 13 14  1  0  0  0  0
 15  9  1  0  0  0  0
 16 12  1  0  0  0  0
 16  4  2  0  0  0  0
 17 15  2  0  0  0  0
 17 11  1  0  0  0  0
 18  6  2  0  0  0  0
 19 17  1  0  0  0  0
 20 19  1  0  0  0  0
 22 21  1  6  0  0  0
 22 20  1  0  0  0  0
 23 22  1  0  0  0  0
 24 23  1  0  0  0  0
 25 23  2  0  0  0  0
M  END
>  <MODEL>
2

>  <REMARK>
 VINA RESULT:      -8.9      1.206      1.646
  Name = 
  4 active torsions:
  status: ('A' for Active; 'I' for Inactive)
    1  A    between atoms: C_2  and  C_25
    2  A    between atoms: C_6  and  C_15
    3  A    between atoms: C_6  and  C_23
    4  A    between atoms: C_15  and  C_25
                            x       y       z     vdW  Elec       q    Type
                         _______ _______ _______ _____ _____    ______ ____

>  <TORSDO>
F 4

$$$$
=
 OpenBabel10262419553D

 25 28  0  0  1  0  0  0  0  0999 V2000
  187.0430  178.1790  142.5500 N   0  0  0  0  0  0  0  0  0  0  0  0
  188.2330  177.3330  142.4060 C   0  0  0  0  0  0  0  0  0  0  0  0
  186.7780  178.4160  140.1830 C   0  0  0  0  0  3  0  0  0  0  0  0
  186.2130  178.2560  143.7030 C   0  0  0  0  0  0  0  0  0  0  0  0
  184.3670  178.4750  145.7770 C   0  0  0  0  0  3  0  0  0  0  0  0
  188.1040  177.8910  140.0130 N   0  0  0  0  0  0  0  0  0  0  0  0
  184.9460  178.7630  143.4560 C   0  0  0  0  0  0  0  0  0  0  0  0
  184.0080  178.8760  144.4830 C   0  0  0  0  0  3  0  0  0  0  0  0
  190.2160  177.0360  140.8300 C   0  0  1  0  0  3  0  0  0  0  0  0
  190.7530  176.7010  139.4830 C   0  0  0  0  0  1  0  0  0  0  0  0
  189.2850  177.6350  143.4390 C   0  0  0  0  0  3  0  0  0  0  0  0
  185.6500  177.9600  146.0300 C   0  0  0  0  0  3  0  0  0  0  0  0
  186.2870  178.5780  141.4100 C   0  0  0  0  0  0  0  0  0  0  0  0
  184.6320  179.1930  141.7420 S   0  0  0  0  0  0  0  0  0  0  0  0
  191.0140  177.0340  141.8580 N   0  0  0  0  0  0  0  0  0  0  0  0
  186.5810  177.8440  144.9880 C   0  0  0  0  0  3  0  0  0  0  0  0
  190.5800  177.4140  143.1790 C   0  0  0  0  0  0  0  0  0  0  0  0
  188.8110  177.4360  141.0100 C   0  0  0  0  0  0  0  0  0  0  0  0
  191.5930  177.6670  144.2380 C   0  0  0  0  0  2  0  0  0  0  0  0
  191.5330  176.5670  145.2920 C   0  0  0  0  0  2  0  0  0  0  0  0
  189.6600  176.8240  146.9720 C   0  0  0  0  0  1  0  0  0  0  0  0
  191.1250  177.0900  146.6690 C   0  0  1  0  0  3  0  0  0  0  0  0
  192.0150  176.5800  147.7580 C   0  0  0  0  0  0  0  0  0  0  0  0
  192.4040  177.4090  148.8040 O   0  0  0  0  0  1  0  0  0  0  0  0
  192.4240  175.3210  147.7330 C   0  0  0  0  0  2  0  0  0  0  0  0
  1  4  1  0  0  0  0
  2  1  1  0  0  0  0
  2 11  2  0  0  0  0
  3 13  2  0  0  0  0
  4 16  1  0  0  0  0
  5 12  1  0  0  0  0
  6  3  1  0  0  0  0
  6 18  2  0  0  0  0
  7  4  2  0  0  0  0
  7  8  1  0  0  0  0
  8  5  2  0  0  0  0
  9 10  1  6  0  0  0
  9 18  1  0  0  0  0
  9 15  1  0  0  0  0
 13 14  1  0  0  0  0
 13  1  1  0  0  0  0
 14  7  1  0  0  0  0
 15 17  2  0  0  0  0
 16 12  2  0  0  0  0
 17 11  1  0  0  0  0
 17 19  1  0  0  0  0
 18  2  1  0  0  0  0
 19 20  1  0  0  0  0
 20 22  1  0  0  0  0
 22 21  1  1  0  0  0
 22 23  1  0  0  0  0
 23 24  1  0  0  0  0
 25 23  2  0  0  0  0
M  END
>  <MODEL>
3

>  <REMARK>
 VINA RESULT:      -8.6      3.057      6.457
  Name = 
  4 active torsions:
  status: ('A' for Active; 'I' for Inactive)
    1  A    between atoms: C_2  and  C_25
    2  A    between atoms: C_6  and  C_15
    3  A    between atoms: C_6  and  C_23
    4  A    between atoms: C_15  and  C_25
                            x       y       z     vdW  Elec       q    Type
                         _______ _______ _______ _____ _____    ______ ____

>  <TORSDO>
F 4

$$$$
=
 OpenBabel10262419553D

 25 28  0  0  1  0  0  0  0  0999 V2000
  186.8520  178.2970  142.7330 N   0  0  0  0  0  0  0  0  0  0  0  0
  188.0150  177.5320  142.2730 C   0  0  0  0  0  0  0  0  0  0  0  0
  186.0610  178.6630  140.5030 C   0  0  0  0  0  3  0  0  0  0  0  0
  186.2930  178.2560  144.0400 C   0  0  0  0  0  0  0  0  0  0  0  0
  184.9430  178.2410  146.4760 C   0  0  0  0  0  3  0  0  0  0  0  0
  187.3380  178.2270  140.0120 N   0  0  0  0  0  0  0  0  0  0  0  0
  184.9830  178.7040  144.1110 C   0  0  0  0  0  0  0  0  0  0  0  0
  184.2900  178.7000  145.3240 C   0  0  0  0  0  3  0  0  0  0  0  0
  189.6130  177.4460  140.2870 C   0  0  1  0  0  3  0  0  0  0  0  0
  189.8540  177.2260  138.8340 C   0  0  0  0  0  1  0  0  0  0  0  0
  189.2550  177.8310  143.0720 C   0  0  0  0  0  3  0  0  0  0  0  0
  186.2700  177.7870  146.4060 C   0  0  0  0  0  3  0  0  0  0  0  0
  185.8460  178.7220  141.8160 C   0  0  0  0  0  0  0  0  0  0  0  0
  184.2800  179.2190  142.5430 S   0  0  0  0  0  0  0  0  0  0  0  0
  190.6180  177.4270  141.1140 N   0  0  0  0  0  0  0  0  0  0  0  0
  186.9520  177.7880  145.1820 C   0  0  0  0  0  3  0  0  0  0  0  0
  190.4690  177.7000  142.5220 C   0  0  0  0  0  0  0  0  0  0  0  0
  188.2660  177.7530  140.7960 C   0  0  0  0  0  0  0  0  0  0  0  0
  191.6790  177.9460  143.3510 C   0  0  0  0  0  2  0  0  0  0  0  0
  191.2870  178.0940  144.8160 C   0  0  0  0  0  2  0  0  0  0  0  0
  192.0410  175.6950  145.0870 C   0  0  0  0  0  1  0  0  0  0  0  0
  191.0260  176.7500  145.4960 C   0  0  1  0  0  3  0  0  0  0  0  0
  190.9300  176.8740  146.9840 C   0  0  0  0  0  0  0  0  0  0  0  0
  192.0630  176.7570  147.7810 O   0  0  0  0  0  1  0  0  0  0  0  0
  189.7550  177.1140  147.5460 C   0  0  0  0  0  2  0  0  0  0  0  0
  1  4  1  0  0  0  0
  2  1  1  0  0  0  0
  2 11  2  0  0  0  0
  3 13  2  0  0  0  0
  4  7  2  0  0  0  0
  4 16  1  0  0  0  0
  6  3  1  0  0  0  0
  6 18  2  0  0  0  0
  7  8  1  0  0  0  0
  8  5  2  0  0  0  0
  9 10  1  6  0  0  0
  9 18  1  0  0  0  0
  9 15  1  0  0  0  0
 12  5  1  0  0  0  0
 13 14  1  0  0  0  0
 13  1  1  0  0  0  0
 14  7  1  0  0  0  0
 15 17  2  0  0  0  0
 16 12  2  0  0  0  0
 17 11  1  0  0  0  0
 17 19  1  0  0  0  0
 18  2  1  0  0  0  0
 19 20  1  0  0  0  0
 20 22  1  0  0  0  0
 22 21  1  1  0  0  0
 22 23  1  0  0  0  0
 23 25  2  0  0  0  0
 23 24  1  0  0  0  0
M  END
>  <MODEL>
4

>  <REMARK>
 VINA RESULT:      -8.5      2.877      5.944
  Name = 
  4 active torsions:
  status: ('A' for Active; 'I' for Inactive)
    1  A    between atoms: C_2  and  C_25
    2  A    between atoms: C_6  and  C_15
    3  A    between atoms: C_6  and  C_23
    4  A    between atoms: C_15  and  C_25
                            x       y       z     vdW  Elec       q    Type
                         _______ _______ _______ _____ _____    ______ ____

>  <TORSDO>
F 4

$$$$
=
 OpenBabel10262419553D

 25 28  0  0  1  0  0  0  0  0999 V2000
  188.1770  177.9410  140.6930 N   0  0  0  0  0  0  0  0  0  0  0  0
  186.9990  178.7680  140.9740 C   0  0  0  0  0  0  0  0  0  0  0  0
  187.6530  177.7760  138.3630 C   0  0  0  0  0  3  0  0  0  0  0  0
  189.3400  177.8480  141.5060 C   0  0  0  0  0  0  0  0  0  0  0  0
  191.7660  177.6060  142.8520 C   0  0  0  0  0  3  0  0  0  0  0  0
  186.3400  178.2800  138.6540 N   0  0  0  0  0  0  0  0  0  0  0  0
  190.4600  177.3720  140.8410 C   0  0  0  0  0  0  0  0  0  0  0  0
  191.6850  177.2470  141.5000 C   0  0  0  0  0  3  0  0  0  0  0  0
  184.6060  179.0710  140.1460 C   0  0  1  0  0  3  0  0  0  0  0  0
  183.6530  179.4340  139.0610 C   0  0  0  0  0  1  0  0  0  0  0  0
  186.3470  178.4170  142.2840 C   0  0  0  0  0  3  0  0  0  0  0  0
  190.6340  178.0880  143.5280 C   0  0  0  0  0  3  0  0  0  0  0  0
  188.5210  177.5880  139.3550 C   0  0  0  0  0  0  0  0  0  0  0  0
  190.1980  176.9960  139.1060 S   0  0  0  0  0  0  0  0  0  0  0  0
  184.1890  179.0300  141.3780 N   0  0  0  0  0  0  0  0  0  0  0  0
  189.4110  178.2160  142.8530 C   0  0  0  0  0  3  0  0  0  0  0  0
  185.0360  178.6210  142.4710 C   0  0  0  0  0  0  0  0  0  0  0  0
  185.9960  178.6930  139.8420 C   0  0  0  0  0  0  0  0  0  0  0  0
  184.4290  178.3190  143.7940 C   0  0  0  0  0  2  0  0  0  0  0  0
  185.2220  179.0050  144.9010 C   0  0  0  0  0  2  0  0  0  0  0  0
  186.8460  177.1040  145.2850 C   0  0  0  0  0  1  0  0  0  0  0  0
  185.8020  178.0150  145.9110 C   0  0  1  0  0  3  0  0  0  0  0  0
  186.3260  178.6940  147.1370 C   0  0  0  0  0  0  0  0  0  0  0  0
  185.7530  179.8750  147.5950 O   0  0  0  0  0  1  0  0  0  0  0  0
  187.3380  178.1560  147.8020 C   0  0  0  0  0  2  0  0  0  0  0  0
  1  2  1  0  0  0  0
  1  4  1  0  0  0  0
  2 11  2  0  0  0  0
  3  6  1  0  0  0  0
  3 13  2  0  0  0  0
  4 16  1  0  0  0  0
  5 12  1  0  0  0  0
  6 18  2  0  0  0  0
  7  8  1  0  0  0  0
  7  4  2  0  0  0  0
  8  5  2  0  0  0  0
  9 10  1  6  0  0  0
  9 15  1  0  0  0  0
 11 17  1  0  0  0  0
 13  1  1  0  0  0  0
 14 13  1  0  0  0  0
 14  7  1  0  0  0  0
 15 17  2  0  0  0  0
 16 12  2  0  0  0  0
 17 19  1  0  0  0  0
 18  9  1  0  0  0  0
 18  2  1  0  0  0  0
 19 20  1  0  0  0  0
 20 22  1  0  0  0  0
 22 21  1  6  0  0  0
 22 23  1  0  0  0  0
 23 24  1  0  0  0  0
 23 25  2  0  0  0  0
M  END
>  <MODEL>
5

>  <REMARK>
 VINA RESULT:      -8.3      3.518      6.002
  Name = 
  4 active torsions:
  status: ('A' for Active; 'I' for Inactive)
    1  A    between atoms: C_2  and  C_25
    2  A    between atoms: C_6  and  C_15
    3  A    between atoms: C_6  and  C_23
    4  A    between atoms: C_15  and  C_25
                            x       y       z     vdW  Elec       q    Type
                         _______ _______ _______ _____ _____    ______ ____

>  <TORSDO>
F 4

$$$$
=
 OpenBabel10262419553D

 25 28  0  0  1  0  0  0  0  0999 V2000
  189.2040  177.4200  143.8460 N   0  0  0  0  0  0  0  0  0  0  0  0
  188.5770  178.2720  142.8310 C   0  0  0  0  0  0  0  0  0  0  0  0
  191.0690  176.9080  142.4360 C   0  0  0  0  0  3  0  0  0  0  0  0
  188.9350  177.4550  145.2420 C   0  0  0  0  0  0  0  0  0  0  0  0
  188.6830  177.4300  148.0160 C   0  0  0  0  0  3  0  0  0  0  0  0
  190.3350  177.4410  141.3230 N   0  0  0  0  0  0  0  0  0  0  0  0
  189.9310  176.8920  146.0260 C   0  0  0  0  0  0  0  0  0  0  0  0
  189.8220  176.8750  147.4170 C   0  0  0  0  0  3  0  0  0  0  0  0
  188.3830  178.4350  140.2930 C   0  0  1  0  0  3  0  0  0  0  0  0
  189.0190  178.6270  138.9600 C   0  0  0  0  0  1  0  0  0  0  0  0
  187.0810  178.1160  142.7890 C   0  0  0  0  0  3  0  0  0  0  0  0
  187.6730  178.0010  147.2240 C   0  0  0  0  0  3  0  0  0  0  0  0
  190.5050  176.8740  143.6410 C   0  0  0  0  0  0  0  0  0  0  0  0
  191.3390  176.2620  145.1090 S   0  0  0  0  0  0  0  0  0  0  0  0
  187.0940  178.5750  140.4140 N   0  0  0  0  0  0  0  0  0  0  0  0
  187.7970  178.0200  145.8280 C   0  0  0  0  0  3  0  0  0  0  0  0
  186.4020  178.3380  141.6560 C   0  0  0  0  0  0  0  0  0  0  0  0
  189.1770  178.0240  141.4620 C   0  0  0  0  0  0  0  0  0  0  0  0
  184.9180  178.2320  141.6580 C   0  0  0  0  0  2  0  0  0  0  0  0
  184.3230  179.2620  142.6120 C   0  0  0  0  0  2  0  0  0  0  0  0
  183.6180  179.0030  145.0270 C   0  0  0  0  0  1  0  0  0  0  0  0
  183.3090  178.6530  143.5800 C   0  0  1  0  0  3  0  0  0  0  0  0
  181.8990  178.9970  143.2180 C   0  0  0  0  0  0  0  0  0  0  0  0
  181.6150  179.6840  142.0440 O   0  0  0  0  0  1  0  0  0  0  0  0
  180.9100  178.6290  144.0180 C   0  0  0  0  0  2  0  0  0  0  0  0
  1  4  1  0  0  0  0
  2  1  1  0  0  0  0
  3 13  2  0  0  0  0
  4 16  2  0  0  0  0
  4  7  1  0  0  0  0
  6 18  2  0  0  0  0
  6  3  1  0  0  0  0
  7  8  2  0  0  0  0
  8  5  1  0  0  0  0
  9 10  1  6  0  0  0
  9 15  1  0  0  0  0
  9 18  1  0  0  0  0
 11  2  2  0  0  0  0
 12  5  2  0  0  0  0
 13  1  1  0  0  0  0
 13 14  1  0  0  0  0
 14  7  1  0  0  0  0
 15 17  2  0  0  0  0
 16 12  1  0  0  0  0
 17 19  1  0  0  0  0
 17 11  1  0  0  0  0
 18  2  1  0  0  0  0
 19 20  1  0  0  0  0
 20 22  1  0  0  0  0
 22 21  1  1  0  0  0
 23 22  1  0  0  0  0
 23 25  2  0  0  0  0
 24 23  1  0  0  0  0
M  END
>  <MODEL>
6

>  <REMARK>
 VINA RESULT:      -8.2      2.792      5.543
  Name = 
  4 active torsions:
  status: ('A' for Active; 'I' for Inactive)
    1  A    between atoms: C_2  and  C_25
    2  A    between atoms: C_6  and  C_15
    3  A    between atoms: C_6  and  C_23
    4  A    between atoms: C_15  and  C_25
                            x       y       z     vdW  Elec       q    Type
                         _______ _______ _______ _____ _____    ______ ____

>  <TORSDO>
F 4

$$$$
=
 OpenBabel10262419553D

 25 28  0  0  1  0  0  0  0  0999 V2000
  189.3910  177.6130  143.6890 N   0  0  0  0  0  0  0  0  0  0  0  0
  188.2880  177.2660  144.5890 C   0  0  2  0  0  3  0  0  0  0  0  0
  191.0400  177.3130  145.3980 C   0  0  0  0  0  3  0  0  0  0  0  0
  189.3480  177.5740  142.2670 C   0  0  0  0  0  0  0  0  0  0  0  0
  189.5520  177.4440  139.4930 C   0  0  0  0  0  3  0  0  0  0  0  0
  189.9840  177.3050  146.3710 N   0  0  0  0  0  0  0  0  0  0  0  0
  190.5950  177.5150  141.6640 C   0  0  0  0  0  0  0  0  0  0  0  0
  190.7150  177.4460  140.2740 C   0  0  0  0  0  3  0  0  0  0  0  0
  187.6670  177.4650  147.0550 C   0  0  0  0  0  0  0  0  0  0  0  0
  187.9260  177.1250  148.4820 C   0  0  0  0  0  1  0  0  0  0  0  0
  187.0680  178.1190  144.3640 C   0  0  0  0  0  3  0  0  0  0  0  0
  188.2880  177.5030  140.1020 C   0  0  0  0  0  3  0  0  0  0  0  0
  190.7470  177.4920  144.1120 C   0  0  0  0  0  0  0  0  0  0  0  0
  191.9790  177.4870  142.8040 S   0  0  0  0  0  0  0  0  0  0  0  0
  186.5070  177.9440  146.7110 N   0  0  0  0  0  0  0  0  0  0  0  0
  188.1800  177.5640  141.4980 C   0  0  0  0  0  3  0  0  0  0  0  0
  186.2080  178.3590  145.3630 C   0  0  0  0  0  0  0  0  0  0  0  0
  188.7230  177.3320  146.0380 C   0  0  0  0  0  0  0  0  0  0  0  0
  184.9810  179.1560  145.0980 C   0  0  0  0  0  2  0  0  0  0  0  0
  184.8910  179.4970  143.6150 C   0  0  0  0  0  2  0  0  0  0  0  0
  182.4490  179.0030  143.1790 C   0  0  0  0  0  1  0  0  0  0  0  0
  183.8870  178.6200  142.8670 C   0  0  1  0  0  3  0  0  0  0  0  0
  184.1430  178.5910  141.3940 C   0  0  0  0  0  0  0  0  0  0  0  0
  185.1470  179.3710  140.8320 O   0  0  0  0  0  1  0  0  0  0  0  0
  183.4160  177.8010  140.6180 C   0  0  0  0  0  2  0  0  0  0  0  0
  1 13  1  0  0  0  0
  1  2  1  0  0  0  0
  2 11  1  1  0  0  0
  2 18  1  0  0  0  0
  3  6  1  0  0  0  0
  4  1  1  0  0  0  0
  5 12  2  0  0  0  0
  5  8  1  0  0  0  0
  7  4  1  0  0  0  0
  7 14  1  0  0  0  0
  8  7  2  0  0  0  0
  9 10  1  0  0  0  0
 11 17  2  0  0  0  0
 12 16  1  0  0  0  0
 13  3  2  0  0  0  0
 14 13  1  0  0  0  0
 15  9  2  0  0  0  0
 16  4  2  0  0  0  0
 17 15  1  0  0  0  0
 18  6  2  0  0  0  0
 18  9  1  0  0  0  0
 19 17  1  0  0  0  0
 20 19  1  0  0  0  0
 22 21  1  6  0  0  0
 22 20  1  0  0  0  0
 23 22  1  0  0  0  0
 24 23  1  0  0  0  0
 25 23  2  0  0  0  0
M  END
>  <MODEL>
7

>  <REMARK>
 VINA RESULT:      -8.2      2.407      5.342
  Name = 
  4 active torsions:
  status: ('A' for Active; 'I' for Inactive)
    1  A    between atoms: C_2  and  C_25
    2  A    between atoms: C_6  and  C_15
    3  A    between atoms: C_6  and  C_23
    4  A    between atoms: C_15  and  C_25
                            x       y       z     vdW  Elec       q    Type
                         _______ _______ _______ _____ _____    ______ ____

>  <TORSDO>
F 4

$$$$
=
 OpenBabel10262419553D

 25 28  0  0  1  0  0  0  0  0999 V2000
  187.0850  177.8390  145.3670 N   0  0  0  0  0  0  0  0  0  0  0  0
  188.5130  177.8830  145.0350 C   0  0  2  0  0  3  0  0  0  0  0  0
  187.5150  177.6400  147.7140 C   0  0  0  0  0  3  0  0  0  0  0  0
  186.0250  178.3020  144.5400 C   0  0  0  0  0  0  0  0  0  0  0  0
  183.7990  179.2600  143.1680 C   0  0  0  0  0  3  0  0  0  0  0  0
  188.8850  177.3390  147.4060 N   0  0  0  0  0  0  0  0  0  0  0  0
  184.8450  178.5580  145.2220 C   0  0  0  0  0  0  0  0  0  0  0  0
  183.7210  179.0420  144.5500 C   0  0  0  0  0  3  0  0  0  0  0  0
  190.7270  176.9460  145.8850 C   0  0  0  0  0  0  0  0  0  0  0  0
  191.7610  176.8460  146.9520 C   0  0  0  0  0  1  0  0  0  0  0  0
  188.8370  177.1190  143.7800 C   0  0  0  0  0  3  0  0  0  0  0  0
  184.9930  179.0020  142.4750 C   0  0  0  0  0  3  0  0  0  0  0  0
  186.6490  177.8500  146.7250 C   0  0  0  0  0  0  0  0  0  0  0  0
  184.9220  178.2650  146.9900 S   0  0  0  0  0  0  0  0  0  0  0  0
  191.0190  176.5740  144.6730 N   0  0  0  0  0  0  0  0  0  0  0  0
  186.1180  178.5230  143.1620 C   0  0  0  0  0  3  0  0  0  0  0  0
  190.0500  176.5770  143.6060 C   0  0  0  0  0  0  0  0  0  0  0  0
  189.3590  177.3930  146.1920 C   0  0  0  0  0  0  0  0  0  0  0  0
  190.3630  175.8760  142.3310 C   0  0  0  0  0  2  0  0  0  0  0  0
  190.6530  176.8940  141.2340 C   0  0  0  0  0  2  0  0  0  0  0  0
  188.7970  178.2340  140.1600 C   0  0  0  0  0  1  0  0  0  0  0  0
  189.5700  176.9250  140.1560 C   0  0  1  0  0  3  0  0  0  0  0  0
  190.1100  176.6070  138.7970 C   0  0  0  0  0  0  0  0  0  0  0  0
  190.8380  175.4440  138.5770 O   0  0  0  0  0  1  0  0  0  0  0  0
  189.8760  177.4350  137.7900 C   0  0  0  0  0  2  0  0  0  0  0  0
  1 13  1  0  0  0  0
  2 11  1  6  0  0  0
  2  1  1  0  0  0  0
  2 18  1  0  0  0  0
  4  7  1  0  0  0  0
  4  1  1  0  0  0  0
  5  8  1  0  0  0  0
  6  3  1  0  0  0  0
  7 14  1  0  0  0  0
  8  7  2  0  0  0  0
  9 18  1  0  0  0  0
  9 10  1  0  0  0  0
 12 16  1  0  0  0  0
 12  5  2  0  0  0  0
 13 14  1  0  0  0  0
 13  3  2  0  0  0  0
 15  9  2  0  0  0  0
 16  4  2  0  0  0  0
 17 11  2  0  0  0  0
 17 15  1  0  0  0  0
 18  6  2  0  0  0  0
 19 17  1  0  0  0  0
 20 19  1  0  0  0  0
 22 21  1  6  0  0  0
 22 20  1  0  0  0  0
 23 22  1  0  0  0  0
 24 23  1  0  0  0  0
 25 23  2  0  0  0  0
M  END
>  <MODEL>
8

>  <REMARK>
 VINA RESULT:      -8.1      1.523      4.718
  Name = 
  4 active torsions:
  status: ('A' for Active; 'I' for Inactive)
    1  A    between atoms: C_2  and  C_25
    2  A    between atoms: C_6  and  C_15
    3  A    between atoms: C_6  and  C_23
    4  A    between atoms: C_15  and  C_25
                            x       y       z     vdW  Elec       q    Type
                         _______ _______ _______ _____ _____    ______ ____

>  <TORSDO>
F 4

$$$$
=
 OpenBabel10262419553D

 25 28  0  0  1  0  0  0  0  0999 V2000
  184.3630  178.5300  143.0020 N   0  0  0  0  0  0  0  0  0  0  0  0
  185.6370  178.7020  143.7080 C   0  0  2  0  0  3  0  0  0  0  0  0
  183.0750  178.9440  144.9770 C   0  0  0  0  0  3  0  0  0  0  0  0
  184.1710  178.6300  141.5960 C   0  0  0  0  0  0  0  0  0  0  0  0
  183.5230  178.9130  138.9020 C   0  0  0  0  0  3  0  0  0  0  0  0
  184.2720  178.7820  145.7540 N   0  0  0  0  0  0  0  0  0  0  0  0
  182.8580  178.8640  141.2180 C   0  0  0  0  0  0  0  0  0  0  0  0
  182.5160  179.0120  139.8730 C   0  0  0  0  0  3  0  0  0  0  0  0
  186.6320  178.3170  146.0240 C   0  0  0  0  0  0  0  0  0  0  0  0
  186.6610  178.6180  147.4820 C   0  0  0  0  0  1  0  0  0  0  0  0
  186.6850  177.7230  143.2540 C   0  0  0  0  0  3  0  0  0  0  0  0
  184.8540  178.6770  139.2830 C   0  0  0  0  0  3  0  0  0  0  0  0
  183.1230  178.7920  143.6550 C   0  0  0  0  0  0  0  0  0  0  0  0
  181.6990  179.0030  142.5810 S   0  0  0  0  0  0  0  0  0  0  0  0
  187.6490  177.7210  145.4730 N   0  0  0  0  0  0  0  0  0  0  0  0
  185.1860  178.5380  140.6380 C   0  0  0  0  0  3  0  0  0  0  0  0
  187.6640  177.3370  144.0830 C   0  0  0  0  0  0  0  0  0  0  0  0
  185.4460  178.6210  145.2080 C   0  0  0  0  0  0  0  0  0  0  0  0
  188.7200  176.4130  143.5900 C   0  0  0  0  0  2  0  0  0  0  0  0
  189.6800  177.1600  142.6720 C   0  0  0  0  0  2  0  0  0  0  0  0
  190.8990  178.9470  143.9830 C   0  0  0  0  0  1  0  0  0  0  0  0
  190.9790  177.5570  143.3730 C   0  0  1  0  0  3  0  0  0  0  0  0
  191.4170  176.5390  144.3780 C   0  0  0  0  0  0  0  0  0  0  0  0
  191.8370  175.2760  143.9730 O   0  0  0  0  0  1  0  0  0  0  0  0
  191.4210  176.8490  145.6660 C   0  0  0  0  0  2  0  0  0  0  0  0
  1 13  1  0  0  0  0
  1  2  1  0  0  0  0
  2 11  1  6  0  0  0
  2 18  1  0  0  0  0
  3  6  1  0  0  0  0
  4  1  1  0  0  0  0
  5 12  2  0  0  0  0
  5  8  1  0  0  0  0
  7  4  1  0  0  0  0
  7 14  1  0  0  0  0
  8  7  2  0  0  0  0
  9 10  1  0  0  0  0
 11 17  2  0  0  0  0
 12 16  1  0  0  0  0
 13  3  2  0  0  0  0
 14 13  1  0  0  0  0
 15  9  2  0  0  0  0
 16  4  2  0  0  0  0
 17 15  1  0  0  0  0
 18  6  2  0  0  0  0
 18  9  1  0  0  0  0
 19 17  1  0  0  0  0
 20 22  1  0  0  0  0
 20 19  1  0  0  0  0
 22 21  1  1  0  0  0
 22 23  1  0  0  0  0
 23 25  2  0  0  0  0
 24 23  1  0  0  0  0
M  END
>  <MODEL>
9

>  <REMARK>
 VINA RESULT:      -8.1      2.752      5.796
  Name = 
  4 active torsions:
  status: ('A' for Active; 'I' for Inactive)
    1  A    between atoms: C_2  and  C_25
    2  A    between atoms: C_6  and  C_15
    3  A    between atoms: C_6  and  C_23
    4  A    between atoms: C_15  and  C_25
                            x       y       z     vdW  Elec       q    Type
                         _______ _______ _______ _____ _____    ______ ____

>  <TORSDO>
F 4

$$$$
