=
 OpenBabel10262421553D

 30 34  0  0  1  0  0  0  0  0999 V2000
  182.3120  178.9930  139.5840 C   0  0  1  0  0  3  0  0  0  0  0  0
  182.8070  177.8880  137.3430 C   0  0  1  0  0  3  0  0  0  0  0  0
  181.1420  179.5770  140.2670 N   0  0  0  0  0  0  0  0  0  0  0  0
  182.8160  178.0770  135.8270 C   0  0  0  0  0  2  0  0  0  0  0  0
  184.2080  177.5010  137.7820 C   0  0  0  0  0  1  0  0  0  0  0  0
  180.5270  180.9140  138.1880 C   0  0  2  0  0  3  0  0  0  0  0  0
  181.4380  178.4940  135.3260 C   0  0  0  0  0  2  0  0  0  0  0  0
  182.3440  179.1750  138.0460 C   0  0  1  0  0  3  0  0  0  0  0  0
  180.4030  180.6550  139.6550 C   0  0  0  0  0  0  0  0  0  0  0  0
  179.6600  181.4000  140.3500 O   0  0  0  0  0  0  0  0  0  0  0  0
  181.0220  179.8030  135.9850 C   0  0  0  0  0  2  0  0  0  0  0  0
  180.9800  179.6280  137.4990 C   0  0  2  0  0  3  0  0  0  0  0  0
  180.8920  179.1920  141.6630 C   0  0  1  0  0  3  0  0  0  0  0  0
  179.4160  178.9170  141.9080 C   0  0  0  0  0  2  0  0  0  0  0  0
  180.3720  177.7490  141.8200 C   0  0  1  0  0  3  0  0  0  0  0  0
  181.2920  176.0610  140.2320 C   0  0  0  0  0  2  0  0  0  0  0  0
  178.9310  176.0750  140.6330 C   0  0  0  0  0  2  0  0  0  0  0  0
  179.2100  174.9140  139.6990 C   0  0  0  0  0  2  0  0  0  0  0  0
  180.1310  176.9880  140.5160 C   0  0  0  0  0  3  0  0  0  0  0  0
  180.7070  174.9070  139.4410 C   0  0  0  0  0  2  0  0  0  0  0  0
  181.4460  181.9460  137.9690 O   0  0  0  0  0  0  0  0  0  0  0  0
  180.6720  183.0500  137.6090 C   0  0  0  0  0  2  0  0  0  0  0  0
  181.5820  184.2150  137.2770 C   0  0  0  0  0  1  0  0  0  0  0  0
  183.5300  179.3570  140.2000 O   0  0  0  0  0  0  0  0  0  0  0  0
  183.9650  178.2910  141.0070 C   0  0  0  0  0  2  0  0  0  0  0  0
  183.6610  178.6500  143.4390 C   0  0  0  0  0  2  0  0  0  0  0  0
  185.8550  178.0330  142.6130 C   0  0  0  0  0  2  0  0  0  0  0  0
  184.6070  178.8190  142.2770 C   0  0  1  0  0  3  0  0  0  0  0  0
  184.4830  178.8560  144.6910 C   0  0  0  0  0  2  0  0  0  0  0  0
  186.1370  178.1550  144.4060 S   0  0  0  0  0  0  0  0  0  0  0  0
  1 24  1  1  0  0  0
  1  3  1  0  0  0  0
  2  5  1  1  0  0  0
  2  8  1  0  0  0  0
  3 13  1  0  0  0  0
  4  2  1  0  0  0  0
  6 21  1  1  0  0  0
  6  9  1  0  0  0  0
  7  4  1  0  0  0  0
  7 11  1  0  0  0  0
  8  1  1  0  0  0  0
  9  3  1  0  0  0  0
  9 10  2  0  0  0  0
 11 12  1  0  0  0  0
 12  8  1  0  0  0  0
 12  6  1  0  0  0  0
 13 15  1  0  0  0  0
 13 14  1  0  0  0  0
 15 14  1  0  0  0  0
 16 19  1  0  0  0  0
 18 17  1  0  0  0  0
 19 17  1  0  0  0  0
 19 15  1  0  0  0  0
 20 18  1  0  0  0  0
 20 16  1  0  0  0  0
 22 21  1  0  0  0  0
 23 22  1  0  0  0  0
 24 25  1  0  0  0  0
 25 28  1  0  0  0  0
 26 29  1  0  0  0  0
 27 30  1  0  0  0  0
 28 27  1  0  0  0  0
 28 26  1  0  0  0  0
 30 29  1  0  0  0  0
M  END
>  <MODEL>
1

>  <REMARK>
 VINA RESULT:      -4.9      0.000      0.000
  Name = 
  7 active torsions:
  status: ('A' for Active; 'I' for Inactive)
    1  A    between atoms: C_1  and  O_6
    2  A    between atoms: O_3  and  C_11
    3  A    between atoms: O_3  and  C_19
    4  A    between atoms: N_4  and  C_13
    5  A    between atoms: O_6  and  C_8
    6  A    between atoms: C_8  and  C_12
    7  A    between atoms: C_16  and  C_30
                            x       y       z     vdW  Elec       q    Type
                         _______ _______ _______ _____ _____    ______ ____

>  <TORSDO>
F 7

$$$$
=
 OpenBabel10262421553D

 30 34  0  0  1  0  0  0  0  0999 V2000
  181.6880  179.4160  138.7590 C   0  0  1  0  0  3  0  0  0  0  0  0
  180.2400  179.7650  140.8240 C   0  0  1  0  0  3  0  0  0  0  0  0
  182.6250  178.3930  138.2550 N   0  0  0  0  0  0  0  0  0  0  0  0
  180.2410  179.9330  142.3430 C   0  0  0  0  0  2  0  0  0  0  0  0
  179.5640  180.9790  140.2120 C   0  0  0  0  0  1  0  0  0  0  0  0
  183.8210  178.3050  140.5020 C   0  0  2  0  0  3  0  0  0  0  0  0
  180.9320  178.7530  143.0170 C   0  0  0  0  0  2  0  0  0  0  0  0
  181.6750  179.6060  140.2960 C   0  0  1  0  0  3  0  0  0  0  0  0
  183.7760  178.0110  139.0370 C   0  0  0  0  0  0  0  0  0  0  0  0
  184.7610  177.4410  138.4930 O   0  0  0  0  0  0  0  0  0  0  0  0
  182.3710  178.6490  142.5300 C   0  0  0  0  0  2  0  0  0  0  0  0
  182.3920  178.4530  141.0180 C   0  0  2  0  0  3  0  0  0  0  0  0
  182.4820  177.9500  136.8610 C   0  0  1  0  0  3  0  0  0  0  0  0
  182.8560  176.4840  136.7030 C   0  0  0  0  0  2  0  0  0  0  0  0
  181.3950  176.8740  136.6660 C   0  0  1  0  0  3  0  0  0  0  0  0
  179.2770  175.9980  137.6440 C   0  0  0  0  0  2  0  0  0  0  0  0
  181.3520  175.1290  138.4670 C   0  0  0  0  0  2  0  0  0  0  0  0
  180.2470  174.3720  139.1780 C   0  0  0  0  0  2  0  0  0  0  0  0
  180.7060  176.3930  137.9430 C   0  0  0  0  0  3  0  0  0  0  0  0
  178.9310  174.9250  138.6590 C   0  0  0  0  0  2  0  0  0  0  0  0
  184.5540  179.4760  140.7240 O   0  0  0  0  0  0  0  0  0  0  0  0
  185.8410  179.0430  141.0470 C   0  0  0  0  0  2  0  0  0  0  0  0
  185.8080  178.3210  142.3780 C   0  0  0  0  0  1  0  0  0  0  0  0
  181.8010  180.6380  138.0600 O   0  0  0  0  0  0  0  0  0  0  0  0
  180.7810  180.7040  137.0960 C   0  0  0  0  0  2  0  0  0  0  0  0
  181.2470  183.0690  137.6650 C   0  0  0  0  0  2  0  0  0  0  0  0
  180.5340  182.5270  135.4110 C   0  0  0  0  0  2  0  0  0  0  0  0
  180.3640  182.1450  136.8660 C   0  0  1  0  0  3  0  0  0  0  0  0
  181.0140  184.4600  137.1190 C   0  0  0  0  0  2  0  0  0  0  0  0
  180.7630  184.3290  135.3220 S   0  0  0  0  0  0  0  0  0  0  0  0
  1 24  1  6  0  0  0
  1  8  1  0  0  0  0
  2  5  1  6  0  0  0
  2  4  1  0  0  0  0
  3  1  1  0  0  0  0
  3  9  1  0  0  0  0
  4  7  1  0  0  0  0
  6 21  1  6  0  0  0
  6 12  1  0  0  0  0
  8  2  1  0  0  0  0
  8 12  1  0  0  0  0
  9  6  1  0  0  0  0
 10  9  2  0  0  0  0
 11  7  1  0  0  0  0
 12 11  1  0  0  0  0
 13  3  1  0  0  0  0
 14 13  1  0  0  0  0
 15 14  1  0  0  0  0
 15 13  1  0  0  0  0
 15 19  1  0  0  0  0
 16 19  1  0  0  0  0
 16 20  1  0  0  0  0
 17 18  1  0  0  0  0
 19 17  1  0  0  0  0
 20 18  1  0  0  0  0
 21 22  1  0  0  0  0
 22 23  1  0  0  0  0
 25 24  1  0  0  0  0
 27 28  1  0  0  0  0
 28 25  1  0  0  0  0
 28 26  1  0  0  0  0
 29 26  1  0  0  0  0
 30 27  1  0  0  0  0
 30 29  1  0  0  0  0
M  END
>  <MODEL>
2

>  <REMARK>
 VINA RESULT:      -4.9      2.728      6.156
  Name = 
  7 active torsions:
  status: ('A' for Active; 'I' for Inactive)
    1  A    between atoms: C_1  and  O_6
    2  A    between atoms: O_3  and  C_11
    3  A    between atoms: O_3  and  C_19
    4  A    between atoms: N_4  and  C_13
    5  A    between atoms: O_6  and  C_8
    6  A    between atoms: C_8  and  C_12
    7  A    between atoms: C_16  and  C_30
                            x       y       z     vdW  Elec       q    Type
                         _______ _______ _______ _____ _____    ______ ____

>  <TORSDO>
F 7

$$$$
=
 OpenBabel10262421553D

 30 34  0  0  1  0  0  0  0  0999 V2000
  181.8740  179.1070  140.3780 C   0  0  1  0  0  3  0  0  0  0  0  0
  183.7560  178.2720  138.8790 C   0  0  1  0  0  3  0  0  0  0  0  0
  181.0550  178.5740  141.4840 N   0  0  0  0  0  0  0  0  0  0  0  0
  184.1580  177.2350  137.8300 C   0  0  0  0  0  2  0  0  0  0  0  0
  183.9710  179.6540  138.2870 C   0  0  0  0  0  1  0  0  0  0  0  0
  180.5980  176.4320  140.1850 C   0  0  2  0  0  3  0  0  0  0  0  0
  183.9390  175.8210  138.3570 C   0  0  0  0  0  2  0  0  0  0  0  0
  182.2910  178.0740  139.3020 C   0  0  1  0  0  3  0  0  0  0  0  0
  180.2770  177.3720  141.3020 C   0  0  0  0  0  0  0  0  0  0  0  0
  179.3120  177.1090  142.0690 O   0  0  0  0  0  0  0  0  0  0  0  0
  182.4710  175.6230  138.7110 C   0  0  0  0  0  2  0  0  0  0  0  0
  182.0560  176.6300  139.7780 C   0  0  2  0  0  3  0  0  0  0  0  0
  180.8760  179.4110  142.6780 C   0  0  1  0  0  3  0  0  0  0  0  0
  180.9540  178.5840  143.9530 C   0  0  0  0  0  2  0  0  0  0  0  0
  182.1240  179.4670  143.5820 C   0  0  1  0  0  3  0  0  0  0  0  0
  184.2060  179.3810  142.2150 C   0  0  0  0  0  2  0  0  0  0  0  0
  184.1770  178.2290  144.3150 C   0  0  0  0  0  2  0  0  0  0  0  0
  185.5740  178.0700  143.7470 C   0  0  0  0  0  2  0  0  0  0  0  0
  183.3000  178.5980  143.1390 C   0  0  0  0  0  3  0  0  0  0  0  0
  185.5920  178.7970  142.4130 C   0  0  0  0  0  2  0  0  0  0  0  0
  179.7420  176.6750  139.1040 O   0  0  0  0  0  0  0  0  0  0  0  0
  178.9630  175.5230  138.9910 C   0  0  0  0  0  2  0  0  0  0  0  0
  179.1870  174.8970  137.6300 C   0  0  0  0  0  1  0  0  0  0  0  0
  181.3240  180.2820  139.8210 O   0  0  0  0  0  0  0  0  0  0  0  0
  180.5700  179.9350  138.6860 C   0  0  0  0  0  2  0  0  0  0  0  0
  181.2120  182.2550  138.1020 C   0  0  0  0  0  2  0  0  0  0  0  0
  180.1010  180.8920  136.4320 C   0  0  0  0  0  2  0  0  0  0  0  0
  180.1720  181.1800  137.9160 C   0  0  1  0  0  3  0  0  0  0  0  0
  180.9380  183.3020  137.0460 C   0  0  0  0  0  2  0  0  0  0  0  0
  180.3760  182.4530  135.5380 S   0  0  0  0  0  0  0  0  0  0  0  0
  1 24  1  6  0  0  0
  1  3  1  0  0  0  0
  2  5  1  6  0  0  0
  2  8  1  0  0  0  0
  3 13  1  0  0  0  0
  4  7  1  0  0  0  0
  4  2  1  0  0  0  0
  6 21  1  6  0  0  0
  6  9  1  0  0  0  0
  7 11  1  0  0  0  0
  8 12  1  0  0  0  0
  8  1  1  0  0  0  0
  9  3  1  0  0  0  0
  9 10  2  0  0  0  0
 11 12  1  0  0  0  0
 12  6  1  0  0  0  0
 13 15  1  0  0  0  0
 13 14  1  0  0  0  0
 15 14  1  0  0  0  0
 16 20  1  0  0  0  0
 16 19  1  0  0  0  0
 18 17  1  0  0  0  0
 19 15  1  0  0  0  0
 19 17  1  0  0  0  0
 20 18  1  0  0  0  0
 22 21  1  0  0  0  0
 23 22  1  0  0  0  0
 25 24  1  0  0  0  0
 27 28  1  0  0  0  0
 28 26  1  0  0  0  0
 28 25  1  0  0  0  0
 29 26  1  0  0  0  0
 30 27  1  0  0  0  0
 30 29  1  0  0  0  0
M  END
>  <MODEL>
3

>  <REMARK>
 VINA RESULT:      -4.5      2.714      5.684
  Name = 
  7 active torsions:
  status: ('A' for Active; 'I' for Inactive)
    1  A    between atoms: C_1  and  O_6
    2  A    between atoms: O_3  and  C_11
    3  A    between atoms: O_3  and  C_19
    4  A    between atoms: N_4  and  C_13
    5  A    between atoms: O_6  and  C_8
    6  A    between atoms: C_8  and  C_12
    7  A    between atoms: C_16  and  C_30
                            x       y       z     vdW  Elec       q    Type
                         _______ _______ _______ _____ _____    ______ ____

>  <TORSDO>
F 7

$$$$
=
 OpenBabel10262421553D

 30 34  0  0  1  0  0  0  0  0999 V2000
  182.0880  177.7200  138.6870 C   0  0  1  0  0  3  0  0  0  0  0  0
  182.5420  178.7320  140.9790 C   0  0  1  0  0  3  0  0  0  0  0  0
  180.9170  177.4910  137.8180 N   0  0  0  0  0  0  0  0  0  0  0  0
  182.2510  178.6290  142.4760 C   0  0  0  0  0  2  0  0  0  0  0  0
  184.0450  178.6440  140.7800 C   0  0  0  0  0  1  0  0  0  0  0  0
  179.5940  176.5190  139.7650 C   0  0  2  0  0  3  0  0  0  0  0  0
  180.7510  178.6840  142.7400 C   0  0  0  0  0  2  0  0  0  0  0  0
  181.8170  177.6170  140.2080 C   0  0  1  0  0  3  0  0  0  0  0  0
  179.7910  176.7270  138.2980 C   0  0  0  0  0  0  0  0  0  0  0  0
  178.9720  176.2130  137.4880 O   0  0  0  0  0  0  0  0  0  0  0  0
  180.0560  177.5350  142.0200 C   0  0  0  0  0  2  0  0  0  0  0  0
  180.3110  177.6350  140.5200 C   0  0  2  0  0  3  0  0  0  0  0  0
  181.0250  177.8610  136.4000 C   0  0  1  0  0  3  0  0  0  0  0  0
  179.6870  178.3260  135.8440 C   0  0  0  0  0  2  0  0  0  0  0  0
  180.7560  179.3560  136.1330 C   0  0  1  0  0  3  0  0  0  0  0  0
  181.4320  181.1920  137.6770 C   0  0  0  0  0  2  0  0  0  0  0  0
  179.1230  181.0160  137.0630 C   0  0  0  0  0  2  0  0  0  0  0  0
  179.2520  182.2490  137.9360 C   0  0  0  0  0  2  0  0  0  0  0  0
  180.3530  180.1830  137.3530 C   0  0  0  0  0  3  0  0  0  0  0  0
  180.7150  182.3590  138.3290 C   0  0  0  0  0  2  0  0  0  0  0  0
  180.0960  175.2660  140.1340 O   0  0  0  0  0  0  0  0  0  0  0  0
  178.9780  174.5250  140.5170 C   0  0  0  0  0  2  0  0  0  0  0  0
  179.3070  173.7250  141.7600 C   0  0  0  0  0  1  0  0  0  0  0  0
  183.2120  176.9660  138.2820 O   0  0  0  0  0  0  0  0  0  0  0  0
  183.0550  175.6430  138.7310 C   0  0  0  0  0  2  0  0  0  0  0  0
  182.0160  174.0390  137.1550 C   0  0  0  0  0  2  0  0  0  0  0  0
  183.8860  175.3820  136.3950 C   0  0  0  0  0  2  0  0  0  0  0  0
  183.3130  174.6670  137.5980 C   0  0  1  0  0  3  0  0  0  0  0  0
  182.2950  173.3740  135.8270 C   0  0  0  0  0  2  0  0  0  0  0  0
  183.4760  174.4120  134.9110 S   0  0  0  0  0  0  0  0  0  0  0  0
  1 24  1  6  0  0  0
  1  8  1  0  0  0  0
  2  5  1  1  0  0  0
  2  4  1  0  0  0  0
  3  9  1  0  0  0  0
  3  1  1  0  0  0  0
  4  7  1  0  0  0  0
  6 21  1  1  0  0  0
  6 12  1  0  0  0  0
  8 12  1  0  0  0  0
  8  2  1  0  0  0  0
  9  6  1  0  0  0  0
 10  9  2  0  0  0  0
 11  7  1  0  0  0  0
 12 11  1  0  0  0  0
 13  3  1  0  0  0  0
 14 15  1  0  0  0  0
 14 13  1  0  0  0  0
 15 13  1  0  0  0  0
 15 19  1  0  0  0  0
 16 20  1  0  0  0  0
 17 19  1  0  0  0  0
 17 18  1  0  0  0  0
 18 20  1  0  0  0  0
 19 16  1  0  0  0  0
 21 22  1  0  0  0  0
 22 23  1  0  0  0  0
 24 25  1  0  0  0  0
 26 28  1  0  0  0  0
 27 28  1  0  0  0  0
 28 25  1  0  0  0  0
 29 26  1  0  0  0  0
 30 29  1  0  0  0  0
 30 27  1  0  0  0  0
M  END
>  <MODEL>
4

>  <REMARK>
 VINA RESULT:      -4.3      3.059      6.465
  Name = 
  7 active torsions:
  status: ('A' for Active; 'I' for Inactive)
    1  A    between atoms: C_1  and  O_6
    2  A    between atoms: O_3  and  C_11
    3  A    between atoms: O_3  and  C_19
    4  A    between atoms: N_4  and  C_13
    5  A    between atoms: O_6  and  C_8
    6  A    between atoms: C_8  and  C_12
    7  A    between atoms: C_16  and  C_30
                            x       y       z     vdW  Elec       q    Type
                         _______ _______ _______ _____ _____    ______ ____

>  <TORSDO>
F 7

$$$$
=
 OpenBabel10262421553D

 30 34  0  0  1  0  0  0  0  0999 V2000
  181.4360  177.7640  139.9220 C   0  0  1  0  0  3  0  0  0  0  0  0
  183.1940  177.4850  138.1010 C   0  0  1  0  0  3  0  0  0  0  0  0
  181.0840  178.7720  140.9400 N   0  0  0  0  0  0  0  0  0  0  0  0
  184.6900  177.3760  137.8080 C   0  0  0  0  0  2  0  0  0  0  0  0
  182.5100  176.2440  137.5550 C   0  0  0  0  0  1  0  0  0  0  0  0
  183.5150  178.9540  141.6790 C   0  0  2  0  0  3  0  0  0  0  0  0
  185.4390  178.5840  138.3570 C   0  0  0  0  0  2  0  0  0  0  0  0
  182.9480  177.6330  139.6110 C   0  0  1  0  0  3  0  0  0  0  0  0
  182.0580  179.1910  141.9190 C   0  0  0  0  0  0  0  0  0  0  0  0
  181.6940  179.7460  142.9910 O   0  0  0  0  0  0  0  0  0  0  0  0
  185.2360  178.6780  139.8630 C   0  0  0  0  0  2  0  0  0  0  0  0
  183.7500  178.8170  140.1770 C   0  0  2  0  0  3  0  0  0  0  0  0
  179.6730  179.1610  141.0710 C   0  0  1  0  0  3  0  0  0  0  0  0
  179.5270  180.6600  141.2790 C   0  0  0  0  0  2  0  0  0  0  0  0
  179.1780  180.0720  139.9300 C   0  0  1  0  0  3  0  0  0  0  0  0
  179.8840  179.9270  137.5440 C   0  0  0  0  0  2  0  0  0  0  0  0
  180.2560  181.9830  138.7150 C   0  0  0  0  0  2  0  0  0  0  0  0
  180.7070  182.2050  137.2850 C   0  0  0  0  0  2  0  0  0  0  0  0
  180.2360  180.4820  138.9060 C   0  0  0  0  0  3  0  0  0  0  0  0
  180.4750  180.9000  136.5420 C   0  0  0  0  0  2  0  0  0  0  0  0
  183.9200  177.7960  142.3530 O   0  0  0  0  0  0  0  0  0  0  0  0
  184.5730  178.2530  143.4980 C   0  0  0  0  0  2  0  0  0  0  0  0
  186.0630  178.0220  143.3520 C   0  0  0  0  0  1  0  0  0  0  0  0
  180.8210  176.5160  140.1670 O   0  0  0  0  0  0  0  0  0  0  0  0
  179.4730  176.5920  139.7750 C   0  0  0  0  0  2  0  0  0  0  0  0
  179.0020  175.5190  137.5920 C   0  0  0  0  0  2  0  0  0  0  0  0
  180.0580  174.2080  139.3380 C   0  0  0  0  0  2  0  0  0  0  0  0
  179.0510  175.3090  139.0840 C   0  0  1  0  0  3  0  0  0  0  0  0
  178.9310  174.1440  136.9700 C   0  0  0  0  0  2  0  0  0  0  0  0
  179.9500  173.0150  137.9680 S   0  0  0  0  0  0  0  0  0  0  0  0
  1 24  1  1  0  0  0
  1  3  1  0  0  0  0
  2  5  1  1  0  0  0
  2  8  1  0  0  0  0
  3 13  1  0  0  0  0
  3  9  1  0  0  0  0
  4  2  1  0  0  0  0
  4  7  1  0  0  0  0
  6  9  1  0  0  0  0
  6 21  1  1  0  0  0
  7 11  1  0  0  0  0
  8  1  1  0  0  0  0
  8 12  1  0  0  0  0
  9 10  2  0  0  0  0
 11 12  1  0  0  0  0
 12  6  1  0  0  0  0
 13 14  1  0  0  0  0
 15 13  1  0  0  0  0
 15 14  1  0  0  0  0
 16 19  1  0  0  0  0
 17 19  1  0  0  0  0
 18 17  1  0  0  0  0
 19 15  1  0  0  0  0
 20 18  1  0  0  0  0
 20 16  1  0  0  0  0
 21 22  1  0  0  0  0
 23 22  1  0  0  0  0
 25 24  1  0  0  0  0
 26 28  1  0  0  0  0
 28 27  1  0  0  0  0
 28 25  1  0  0  0  0
 29 26  1  0  0  0  0
 29 30  1  0  0  0  0
 30 27  1  0  0  0  0
M  END
>  <MODEL>
5

>  <REMARK>
 VINA RESULT:      -4.3      2.631      5.756
  Name = 
  7 active torsions:
  status: ('A' for Active; 'I' for Inactive)
    1  A    between atoms: C_1  and  O_6
    2  A    between atoms: O_3  and  C_11
    3  A    between atoms: O_3  and  C_19
    4  A    between atoms: N_4  and  C_13
    5  A    between atoms: O_6  and  C_8
    6  A    between atoms: C_8  and  C_12
    7  A    between atoms: C_16  and  C_30
                            x       y       z     vdW  Elec       q    Type
                         _______ _______ _______ _____ _____    ______ ____

>  <TORSDO>
F 7

$$$$
=
 OpenBabel10262421553D

 30 34  0  0  1  0  0  0  0  0999 V2000
  182.3610  177.8610  139.1900 C   0  0  1  0  0  3  0  0  0  0  0  0
  182.6010  178.9970  141.4570 C   0  0  1  0  0  3  0  0  0  0  0  0
  181.2790  177.5910  138.2240 N   0  0  0  0  0  0  0  0  0  0  0  0
  182.1630  178.9800  142.9210 C   0  0  0  0  0  2  0  0  0  0  0  0
  184.1150  178.8890  141.4120 C   0  0  0  0  0  1  0  0  0  0  0  0
  179.7600  176.7380  140.0820 C   0  0  2  0  0  3  0  0  0  0  0  0
  180.6450  179.0600  143.0320 C   0  0  0  0  0  2  0  0  0  0  0  0
  181.9410  177.8450  140.6810 C   0  0  1  0  0  3  0  0  0  0  0  0
  180.1020  176.8620  138.6320 C   0  0  0  0  0  0  0  0  0  0  0  0
  179.3610  176.3090  137.7750 O   0  0  0  0  0  0  0  0  0  0  0  0
  180.0100  177.8770  142.3120 C   0  0  0  0  0  2  0  0  0  0  0  0
  180.4120  177.8910  140.8410 C   0  0  2  0  0  3  0  0  0  0  0  0
  181.5290  177.8810  136.8060 C   0  0  1  0  0  3  0  0  0  0  0  0
  180.2370  178.1920  136.0650 C   0  0  0  0  0  2  0  0  0  0  0  0
  181.1790  179.3270  136.4020 C   0  0  1  0  0  3  0  0  0  0  0  0
  181.5560  181.2430  137.9510 C   0  0  0  0  0  2  0  0  0  0  0  0
  179.3810  180.9740  136.9840 C   0  0  0  0  0  2  0  0  0  0  0  0
  179.3400  182.2450  137.8110 C   0  0  0  0  0  2  0  0  0  0  0  0
  180.5660  180.1900  137.5030 C   0  0  0  0  0  3  0  0  0  0  0  0
  180.7180  182.4140  138.4280 C   0  0  0  0  0  2  0  0  0  0  0  0
  180.2090  175.5050  140.5680 O   0  0  0  0  0  0  0  0  0  0  0  0
  179.0520  174.7490  140.7630 C   0  0  0  0  0  2  0  0  0  0  0  0
  179.3050  173.7130  141.8380 C   0  0  0  0  0  1  0  0  0  0  0  0
  183.5100  177.0780  138.9400 O   0  0  0  0  0  0  0  0  0  0  0  0
  184.4820  177.8860  138.3240 C   0  0  0  0  0  2  0  0  0  0  0  0
  186.6370  177.2250  137.2970 C   0  0  0  0  0  2  0  0  0  0  0  0
  184.7780  175.6700  137.2180 C   0  0  0  0  0  2  0  0  0  0  0  0
  185.1370  177.1400  137.1760 C   0  0  1  0  0  3  0  0  0  0  0  0
  187.2010  176.1870  136.3540 C   0  0  0  0  0  2  0  0  0  0  0  0
  186.0960  174.7410  136.3760 S   0  0  0  0  0  0  0  0  0  0  0  0
  1 24  1  1  0  0  0
  1  8  1  0  0  0  0
  2  5  1  1  0  0  0
  2  4  1  0  0  0  0
  3  9  1  0  0  0  0
  3  1  1  0  0  0  0
  4  7  1  0  0  0  0
  6 21  1  1  0  0  0
  6 12  1  0  0  0  0
  8 12  1  0  0  0  0
  8  2  1  0  0  0  0
  9  6  1  0  0  0  0
 10  9  2  0  0  0  0
 11  7  1  0  0  0  0
 12 11  1  0  0  0  0
 13  3  1  0  0  0  0
 14 15  1  0  0  0  0
 14 13  1  0  0  0  0
 15 13  1  0  0  0  0
 15 19  1  0  0  0  0
 16 20  1  0  0  0  0
 17 19  1  0  0  0  0
 17 18  1  0  0  0  0
 18 20  1  0  0  0  0
 19 16  1  0  0  0  0
 21 22  1  0  0  0  0
 22 23  1  0  0  0  0
 25 24  1  0  0  0  0
 28 27  1  0  0  0  0
 28 26  1  0  0  0  0
 28 25  1  0  0  0  0
 29 30  1  0  0  0  0
 29 26  1  0  0  0  0
 30 27  1  0  0  0  0
M  END
>  <MODEL>
6

>  <REMARK>
 VINA RESULT:      -4.3      2.653      6.180
  Name = 
  7 active torsions:
  status: ('A' for Active; 'I' for Inactive)
    1  A    between atoms: C_1  and  O_6
    2  A    between atoms: O_3  and  C_11
    3  A    between atoms: O_3  and  C_19
    4  A    between atoms: N_4  and  C_13
    5  A    between atoms: O_6  and  C_8
    6  A    between atoms: C_8  and  C_12
    7  A    between atoms: C_16  and  C_30
                            x       y       z     vdW  Elec       q    Type
                         _______ _______ _______ _____ _____    ______ ____

>  <TORSDO>
F 7

$$$$
=
 OpenBabel10262421553D

 30 34  0  0  1  0  0  0  0  0999 V2000
  182.9010  177.7550  137.9520 C   0  0  1  0  0  3  0  0  0  0  0  0
  185.0530  176.6070  137.2200 C   0  0  1  0  0  3  0  0  0  0  0  0
  181.8670  177.5570  138.9860 N   0  0  0  0  0  0  0  0  0  0  0  0
  185.6640  175.3150  136.6780 C   0  0  0  0  0  2  0  0  0  0  0  0
  185.3900  177.7330  136.2580 C   0  0  0  0  0  1  0  0  0  0  0  0
  181.6870  175.0830  138.4090 C   0  0  2  0  0  3  0  0  0  0  0  0
  185.3360  174.1380  137.5900 C   0  0  0  0  0  2  0  0  0  0  0  0
  183.5310  176.4590  137.3850 C   0  0  1  0  0  3  0  0  0  0  0  0
  181.1420  176.3110  139.0630 C   0  0  0  0  0  0  0  0  0  0  0  0
  180.0360  176.2480  139.6660 O   0  0  0  0  0  0  0  0  0  0  0  0
  183.8260  173.9670  137.6910 C   0  0  0  0  0  2  0  0  0  0  0  0
  183.1990  175.2360  138.2570 C   0  0  2  0  0  3  0  0  0  0  0  0
  181.4430  178.7230  139.7730 C   0  0  1  0  0  3  0  0  0  0  0  0
  181.3390  178.3850  141.2530 C   0  0  0  0  0  2  0  0  0  0  0  0
  182.5110  179.2110  140.7720 C   0  0  1  0  0  3  0  0  0  0  0  0
  184.9180  179.0910  140.1350 C   0  0  0  0  0  2  0  0  0  0  0  0
  184.2620  178.2130  142.2650 C   0  0  0  0  0  2  0  0  0  0  0  0
  185.7690  178.0760  142.1800 C   0  0  0  0  0  2  0  0  0  0  0  0
  183.7870  178.3730  140.8370 C   0  0  0  0  0  3  0  0  0  0  0  0
  186.1860  178.6290  140.8280 C   0  0  0  0  0  2  0  0  0  0  0  0
  181.0780  174.9030  137.1620 O   0  0  0  0  0  0  0  0  0  0  0  0
  179.9320  174.1510  137.4230 C   0  0  0  0  0  2  0  0  0  0  0  0
  180.3330  172.7420  137.8080 C   0  0  0  0  0  1  0  0  0  0  0  0
  182.4820  178.6450  136.9380 O   0  0  0  0  0  0  0  0  0  0  0  0
  181.3110  178.1390  136.3470 C   0  0  0  0  0  2  0  0  0  0  0  0
  180.2550  180.3070  136.9140 C   0  0  0  0  0  2  0  0  0  0  0  0
  181.1210  179.9770  134.6730 C   0  0  0  0  0  2  0  0  0  0  0  0
  180.4470  179.2760  135.8320 C   0  0  1  0  0  3  0  0  0  0  0  0
  179.7060  181.5410  136.2350 C   0  0  0  0  0  2  0  0  0  0  0  0
  180.4860  181.6810  134.5970 S   0  0  0  0  0  0  0  0  0  0  0  0
  1 24  1  6  0  0  0
  1  3  1  0  0  0  0
  2  5  1  6  0  0  0
  2  8  1  0  0  0  0
  3  9  1  0  0  0  0
  3 13  1  0  0  0  0
  4  2  1  0  0  0  0
  4  7  1  0  0  0  0
  6 21  1  6  0  0  0
  6  9  1  0  0  0  0
  7 11  1  0  0  0  0
  8  1  1  0  0  0  0
  8 12  1  0  0  0  0
  9 10  2  0  0  0  0
 11 12  1  0  0  0  0
 12  6  1  0  0  0  0
 13 15  1  0  0  0  0
 13 14  1  0  0  0  0
 15 19  1  0  0  0  0
 15 14  1  0  0  0  0
 16 20  1  0  0  0  0
 16 19  1  0  0  0  0
 18 17  1  0  0  0  0
 19 17  1  0  0  0  0
 20 18  1  0  0  0  0
 21 22  1  0  0  0  0
 22 23  1  0  0  0  0
 25 24  1  0  0  0  0
 27 28  1  0  0  0  0
 28 25  1  0  0  0  0
 28 26  1  0  0  0  0
 29 26  1  0  0  0  0
 30 27  1  0  0  0  0
 30 29  1  0  0  0  0
M  END
>  <MODEL>
7

>  <REMARK>
 VINA RESULT:      -3.8      3.161      6.284
  Name = 
  7 active torsions:
  status: ('A' for Active; 'I' for Inactive)
    1  A    between atoms: C_1  and  O_6
    2  A    between atoms: O_3  and  C_11
    3  A    between atoms: O_3  and  C_19
    4  A    between atoms: N_4  and  C_13
    5  A    between atoms: O_6  and  C_8
    6  A    between atoms: C_8  and  C_12
    7  A    between atoms: C_16  and  C_30
                            x       y       z     vdW  Elec       q    Type
                         _______ _______ _______ _____ _____    ______ ____

>  <TORSDO>
F 7

$$$$
=
 OpenBabel10262421553D

 30 34  0  0  1  0  0  0  0  0999 V2000
  182.7730  178.3530  141.3740 C   0  0  1  0  0  3  0  0  0  0  0  0
  181.4430  179.3860  143.2840 C   0  0  1  0  0  3  0  0  0  0  0  0
  182.5840  178.1130  139.9300 N   0  0  0  0  0  0  0  0  0  0  0  0
  180.1630  179.2950  144.1150 C   0  0  0  0  0  2  0  0  0  0  0  0
  182.6290  179.3030  144.2280 C   0  0  0  0  0  1  0  0  0  0  0  0
  180.2610  177.1510  140.3390 C   0  0  2  0  0  3  0  0  0  0  0  0
  178.9310  179.3460  143.2190 C   0  0  0  0  0  2  0  0  0  0  0  0
  181.4890  178.2620  142.2370 C   0  0  1  0  0  3  0  0  0  0  0  0
  181.4540  177.3480  139.4600 C   0  0  0  0  0  0  0  0  0  0  0  0
  181.4660  176.8240  138.3130 O   0  0  0  0  0  0  0  0  0  0  0  0
  178.9630  178.1880  142.2300 C   0  0  0  0  0  2  0  0  0  0  0  0
  180.2190  178.2770  141.3700 C   0  0  2  0  0  3  0  0  0  0  0  0
  183.6800  178.4710  139.0200 C   0  0  1  0  0  3  0  0  0  0  0  0
  183.2500  178.3650  137.5640 C   0  0  0  0  0  2  0  0  0  0  0  0
  183.3960  179.7370  138.1850 C   0  0  1  0  0  3  0  0  0  0  0  0
  182.1390  181.8580  138.5520 C   0  0  0  0  0  2  0  0  0  0  0  0
  181.1610  180.1870  137.1420 C   0  0  0  0  0  2  0  0  0  0  0  0
  180.2250  181.3790  137.1230 C   0  0  0  0  0  2  0  0  0  0  0  0
  182.0150  180.3600  138.3790 C   0  0  0  0  0  3  0  0  0  0  0  0
  180.8430  182.4380  138.0200 C   0  0  0  0  0  2  0  0  0  0  0  0
  180.3410  175.9030  140.9680 O   0  0  0  0  0  0  0  0  0  0  0  0
  179.2500  175.1820  140.4820 C   0  0  0  0  0  2  0  0  0  0  0  0
  179.6810  173.7610  140.1810 C   0  0  0  0  0  1  0  0  0  0  0  0
  183.8420  177.6000  141.9080 O   0  0  0  0  0  0  0  0  0  0  0  0
  184.8350  178.4850  142.3630 C   0  0  0  0  0  2  0  0  0  0  0  0
  187.2720  178.0410  142.3480 C   0  0  0  0  0  2  0  0  0  0  0  0
  186.1100  178.1210  144.4740 C   0  0  0  0  0  2  0  0  0  0  0  0
  185.9650  177.7160  143.0230 C   0  0  1  0  0  3  0  0  0  0  0  0
  188.3630  177.5360  143.2640 C   0  0  0  0  0  2  0  0  0  0  0  0
  187.8280  177.7980  144.9830 S   0  0  0  0  0  0  0  0  0  0  0  0
  1 24  1  1  0  0  0
  1  8  1  0  0  0  0
  2  4  1  0  0  0  0
  2  5  1  1  0  0  0
  3  1  1  0  0  0  0
  6 21  1  1  0  0  0
  6 12  1  0  0  0  0
  7  4  1  0  0  0  0
  8  2  1  0  0  0  0
  9  3  1  0  0  0  0
  9  6  1  0  0  0  0
 10  9  2  0  0  0  0
 11  7  1  0  0  0  0
 12 11  1  0  0  0  0
 12  8  1  0  0  0  0
 13  3  1  0  0  0  0
 14 15  1  0  0  0  0
 14 13  1  0  0  0  0
 15 19  1  0  0  0  0
 15 13  1  0  0  0  0
 17 19  1  0  0  0  0
 18 17  1  0  0  0  0
 18 20  1  0  0  0  0
 19 16  1  0  0  0  0
 20 16  1  0  0  0  0
 22 21  1  0  0  0  0
 23 22  1  0  0  0  0
 24 25  1  0  0  0  0
 25 28  1  0  0  0  0
 26 28  1  0  0  0  0
 26 29  1  0  0  0  0
 27 30  1  0  0  0  0
 28 27  1  0  0  0  0
 29 30  1  0  0  0  0
M  END
>  <MODEL>
8

>  <REMARK>
 VINA RESULT:      -3.7      1.946      5.628
  Name = 
  7 active torsions:
  status: ('A' for Active; 'I' for Inactive)
    1  A    between atoms: C_1  and  O_6
    2  A    between atoms: O_3  and  C_11
    3  A    between atoms: O_3  and  C_19
    4  A    between atoms: N_4  and  C_13
    5  A    between atoms: O_6  and  C_8
    6  A    between atoms: C_8  and  C_12
    7  A    between atoms: C_16  and  C_30
                            x       y       z     vdW  Elec       q    Type
                         _______ _______ _______ _____ _____    ______ ____

>  <TORSDO>
F 7

$$$$
=
 OpenBabel10262421553D

 30 34  0  0  1  0  0  0  0  0999 V2000
  188.6700  175.9530  135.9550 C   0  0  1  0  0  3  0  0  0  0  0  0
  190.6540  174.3570  135.9860 C   0  0  1  0  0  3  0  0  0  0  0  0
  188.4360  177.3920  136.1820 N   0  0  0  0  0  0  0  0  0  0  0  0
  191.7630  173.7510  136.8460 C   0  0  0  0  0  2  0  0  0  0  0  0
  189.8200  173.2220  135.4180 C   0  0  0  0  0  1  0  0  0  0  0  0
  189.8020  177.3310  138.3300 C   0  0  2  0  0  3  0  0  0  0  0  0
  192.6230  174.8450  137.4680 C   0  0  0  0  0  2  0  0  0  0  0  0
  189.7880  175.3170  136.8180 C   0  0  1  0  0  3  0  0  0  0  0  0
  188.8150  178.0040  137.4330 C   0  0  0  0  0  0  0  0  0  0  0  0
  188.3060  179.1010  137.7910 O   0  0  0  0  0  0  0  0  0  0  0  0
  191.7600  175.7490  138.3390 C   0  0  0  0  0  2  0  0  0  0  0  0
  190.6620  176.3860  137.4940 C   0  0  2  0  0  3  0  0  0  0  0  0
  187.6140  178.1220  135.2070 C   0  0  1  0  0  3  0  0  0  0  0  0
  186.5490  177.2250  134.5950 C   0  0  0  0  0  2  0  0  0  0  0  0
  186.1350  178.2530  135.6240 C   0  0  1  0  0  3  0  0  0  0  0  0
  185.3180  178.5640  137.9590 C   0  0  0  0  0  2  0  0  0  0  0  0
  184.5410  176.6620  136.7270 C   0  0  0  0  0  2  0  0  0  0  0  0
  183.8320  176.6360  138.0670 C   0  0  0  0  0  2  0  0  0  0  0  0
  185.7510  177.5480  136.9250 C   0  0  0  0  0  3  0  0  0  0  0  0
  184.3270  177.8400  138.8500 C   0  0  0  0  0  2  0  0  0  0  0  0
  189.1240  176.6290  139.3340 O   0  0  0  0  0  0  0  0  0  0  0  0
  189.5010  177.2470  140.5260 C   0  0  0  0  0  2  0  0  0  0  0  0
  188.3040  177.9620  141.1200 C   0  0  0  0  0  1  0  0  0  0  0  0
  187.4730  175.2040  135.9770 O   0  0  0  0  0  0  0  0  0  0  0  0
  187.4230  174.4650  137.1720 C   0  0  0  0  0  2  0  0  0  0  0  0
  185.2860  173.3460  137.7330 C   0  0  0  0  0  2  0  0  0  0  0  0
  186.2330  173.0200  135.5250 C   0  0  0  0  0  2  0  0  0  0  0  0
  186.5870  173.2130  136.9830 C   0  0  1  0  0  3  0  0  0  0  0  0
  184.3820  172.2500  137.2180 C   0  0  0  0  0  2  0  0  0  0  0  0
  184.7010  172.0410  135.4380 S   0  0  0  0  0  0  0  0  0  0  0  0
  1 24  1  1  0  0  0
  1  3  1  0  0  0  0
  1  8  1  0  0  0  0
  2  5  1  1  0  0  0
  2  8  1  0  0  0  0
  2  4  1  0  0  0  0
  3  9  1  0  0  0  0
  4  7  1  0  0  0  0
  6 21  1  1  0  0  0
  7 11  1  0  0  0  0
  8 12  1  0  0  0  0
  9 10  2  0  0  0  0
  9  6  1  0  0  0  0
 12  6  1  0  0  0  0
 12 11  1  0  0  0  0
 13 15  1  0  0  0  0
 13  3  1  0  0  0  0
 14 13  1  0  0  0  0
 14 15  1  0  0  0  0
 15 19  1  0  0  0  0
 16 20  1  0  0  0  0
 17 19  1  0  0  0  0
 17 18  1  0  0  0  0
 18 20  1  0  0  0  0
 19 16  1  0  0  0  0
 21 22  1  0  0  0  0
 22 23  1  0  0  0  0
 24 25  1  0  0  0  0
 27 28  1  0  0  0  0
 28 25  1  0  0  0  0
 28 26  1  0  0  0  0
 29 26  1  0  0  0  0
 30 27  1  0  0  0  0
 30 29  1  0  0  0  0
M  END
>  <MODEL>
9

>  <REMARK>
 VINA RESULT:      -3.6      5.738      8.852
  Name = 
  7 active torsions:
  status: ('A' for Active; 'I' for Inactive)
    1  A    between atoms: C_1  and  O_6
    2  A    between atoms: O_3  and  C_11
    3  A    between atoms: O_3  and  C_19
    4  A    between atoms: N_4  and  C_13
    5  A    between atoms: O_6  and  C_8
    6  A    between atoms: C_8  and  C_12
    7  A    between atoms: C_16  and  C_30
                            x       y       z     vdW  Elec       q    Type
                         _______ _______ _______ _____ _____    ______ ____

>  <TORSDO>
F 7

$$$$
