=
 OpenBabel10262420543D

 28 32  0  0  1  0  0  0  0  0999 V2000
  190.6760  176.2330  137.4740 N   0  0  0  0  0  0  0  0  0  0  0  0
  189.9300  176.8920  139.6080 C   0  0  1  0  0  3  0  0  0  0  0  0
  189.6470  177.9230  138.6180 C   0  0  0  0  0  0  0  0  0  0  0  0
  189.0640  179.0170  138.8310 O   0  0  0  0  0  0  0  0  0  0  0  0
  190.0570  177.4860  137.3590 N   0  0  0  0  0  2  0  0  0  0  0  0
  190.5800  175.8230  138.8350 N   0  0  0  0  0  2  0  0  0  0  0  0
  192.0430  177.5060  140.4840 O   0  0  0  0  0  0  0  0  0  0  0  0
  190.8450  177.3870  140.6920 C   0  0  0  0  0  0  0  0  0  0  0  0
  191.3050  176.8450  145.7200 C   0  0  0  0  0  3  0  0  0  0  0  0
  188.9500  176.8570  144.5820 C   0  0  1  0  0  3  0  0  0  0  0  0
  190.9480  175.7420  143.5300 C   0  0  0  0  0  2  0  0  0  0  0  0
  189.2880  177.3880  147.0010 C   0  0  0  0  0  0  0  0  0  0  0  0
  190.4890  176.8450  144.4660 C   0  0  2  0  0  0  0  0  0  0  0  0
  188.8210  177.3400  142.1480 C   0  0  0  0  0  2  0  0  0  0  0  0
  188.4790  177.3040  145.9400 C   0  0  0  0  0  3  0  0  0  0  0  0
  191.2180  177.1940  143.1680 C   0  0  2  0  0  3  0  0  0  0  0  0
  188.2950  177.7240  143.5170 C   0  0  0  0  0  2  0  0  0  0  0  0
  188.7270  177.8030  148.3130 C   0  0  0  0  0  1  0  0  0  0  0  0
  190.7320  177.1060  146.8940 C   0  0  0  0  0  3  0  0  0  0  0  0
  190.2970  177.7230  142.0450 C   0  0  1  0  0  3  0  0  0  0  0  0
  189.9850  175.2690  136.5990 C   0  0  0  0  0  2  0  0  0  0  0  0
  188.8150  174.4950  137.2320 C   0  0  2  0  0  3  0  0  0  0  0  0
  186.4490  172.9760  136.7240 C   0  0  0  0  0  0  0  0  0  0  0  0
  188.8140  173.1070  136.8750 O   0  0  0  0  0  0  0  0  0  0  0  0
  187.4830  175.1650  137.0140 C   0  0  0  0  0  3  0  0  0  0  0  0
  186.3810  174.4420  136.8060 C   0  0  0  0  0  3  0  0  0  0  0  0
  185.2050  172.1820  136.5580 C   0  0  0  0  0  1  0  0  0  0  0  0
  187.6330  172.3640  136.7390 C   0  0  0  0  0  3  0  0  0  0  0  0
  1  6  1  0  0  0  0
  2  8  1  1  0  0  0
  3  4  2  0  0  0  0
  3  2  1  0  0  0  0
  5  1  1  0  0  0  0
  5  3  1  0  0  0  0
  6  2  1  0  0  0  0
  7  8  2  0  0  0  0
  9 19  2  0  0  0  0
 10 17  1  6  0  0  0
 10 15  1  0  0  0  0
 12 18  1  0  0  0  0
 13 11  1  6  0  0  0
 13 10  1  0  0  0  0
 13  9  1  0  0  0  0
 14 17  1  0  0  0  0
 15 12  2  0  0  0  0
 16 11  1  6  0  0  0
 16 13  1  0  0  0  0
 19 12  1  0  0  0  0
 20  8  1  6  0  0  0
 20 14  1  0  0  0  0
 20 16  1  0  0  0  0
 21  1  1  0  0  0  0
 22 21  1  6  0  0  0
 23 28  2  0  0  0  0
 23 26  1  0  0  0  0
 24 22  1  0  0  0  0
 25 22  1  0  0  0  0
 26 25  2  0  0  0  0
 27 23  1  0  0  0  0
 28 24  1  0  0  0  0
M  END
>  <MODEL>
1

>  <REMARK>
 VINA RESULT:      -9.0      0.000      0.000
  Name = 
  4 active torsions:
  status: ('A' for Active; 'I' for Inactive)
    1  A    between atoms: N_1  and  C_2
    2  A    between atoms: C_2  and  C_3
    3  A    between atoms: C_16  and  C_20
    4  A    between atoms: C_20  and  C_25
                            x       y       z     vdW  Elec       q    Type
                         _______ _______ _______ _____ _____    ______ ____

>  <TORSDO>
F 4

$$$$
=
 OpenBabel10262420543D

 28 32  0  0  1  0  0  0  0  0999 V2000
  190.7080  176.7840  141.7500 N   0  0  0  0  0  0  0  0  0  0  0  0
  189.0740  177.9250  143.0050 C   0  0  1  0  0  3  0  0  0  0  0  0
  190.4060  178.4290  143.3080 C   0  0  0  0  0  0  0  0  0  0  0  0
  190.6840  179.3610  144.1070 O   0  0  0  0  0  0  0  0  0  0  0  0
  191.3470  177.7680  142.5190 N   0  0  0  0  0  2  0  0  0  0  0  0
  189.3070  176.8800  141.9970 N   0  0  0  0  0  2  0  0  0  0  0  0
  189.0580  176.7870  145.0820 O   0  0  0  0  0  0  0  0  0  0  0  0
  188.4000  177.3450  144.2160 C   0  0  0  0  0  0  0  0  0  0  0  0
  183.9580  178.4010  141.9940 C   0  0  0  0  0  3  0  0  0  0  0  0
  184.4130  179.0860  144.4770 C   0  0  1  0  0  3  0  0  0  0  0  0
  186.1860  179.2290  142.6940 C   0  0  0  0  0  2  0  0  0  0  0  0
  182.1090  178.8240  143.5450 C   0  0  0  0  0  0  0  0  0  0  0  0
  184.9190  178.5180  143.1340 C   0  0  2  0  0  0  0  0  0  0  0  0
  186.5330  178.3380  145.5360 C   0  0  0  0  0  2  0  0  0  0  0  0
  182.9120  179.0440  144.5900 C   0  0  0  0  0  3  0  0  0  0  0  0
  186.2320  177.7430  143.0130 C   0  0  2  0  0  3  0  0  0  0  0  0
  185.0240  178.3750  145.6760 C   0  0  0  0  0  2  0  0  0  0  0  0
  180.6360  178.8370  143.7430 C   0  0  0  0  0  1  0  0  0  0  0  0
  182.6490  178.5400  142.2020 C   0  0  0  0  0  3  0  0  0  0  0  0
  186.9120  177.4310  144.3650 C   0  0  1  0  0  3  0  0  0  0  0  0
  190.9940  177.0200  140.3250 C   0  0  0  0  0  2  0  0  0  0  0  0
  189.7770  177.0410  139.3820 C   0  0  2  0  0  3  0  0  0  0  0  0
  188.8830  177.4660  136.7020 C   0  0  0  0  0  0  0  0  0  0  0  0
  189.8700  176.0610  138.3400 O   0  0  0  0  0  0  0  0  0  0  0  0
  189.4540  178.4210  138.8720 C   0  0  0  0  0  3  0  0  0  0  0  0
  189.0100  178.6020  137.6280 C   0  0  0  0  0  3  0  0  0  0  0  0
  188.3240  177.6740  135.3420 C   0  0  0  0  0  1  0  0  0  0  0  0
  189.3230  176.2610  137.0650 C   0  0  0  0  0  3  0  0  0  0  0  0
  1  6  1  0  0  0  0
  1  5  1  0  0  0  0
  2  3  1  0  0  0  0
  2  8  1  1  0  0  0
  3  4  2  0  0  0  0
  5  3  1  0  0  0  0
  6  2  1  0  0  0  0
  8  7  2  0  0  0  0
  9 19  2  0  0  0  0
 10 15  1  6  0  0  0
 10 17  1  0  0  0  0
 11 13  1  0  0  0  0
 12 18  1  0  0  0  0
 12 15  2  0  0  0  0
 13  9  1  6  0  0  0
 13 10  1  0  0  0  0
 14 17  1  0  0  0  0
 16 11  1  6  0  0  0
 16 13  1  0  0  0  0
 16 20  1  0  0  0  0
 19 12  1  0  0  0  0
 20  8  1  6  0  0  0
 20 14  1  0  0  0  0
 21  1  1  0  0  0  0
 22 21  1  6  0  0  0
 23 28  2  0  0  0  0
 23 26  1  0  0  0  0
 24 22  1  0  0  0  0
 25 22  1  0  0  0  0
 26 25  2  0  0  0  0
 27 23  1  0  0  0  0
 28 24  1  0  0  0  0
M  END
>  <MODEL>
2

>  <REMARK>
 VINA RESULT:      -9.0      3.639      5.563
  Name = 
  4 active torsions:
  status: ('A' for Active; 'I' for Inactive)
    1  A    between atoms: N_1  and  C_2
    2  A    between atoms: C_2  and  C_3
    3  A    between atoms: C_16  and  C_20
    4  A    between atoms: C_20  and  C_25
                            x       y       z     vdW  Elec       q    Type
                         _______ _______ _______ _____ _____    ______ ____

>  <TORSDO>
F 4

$$$$
=
 OpenBabel10262420543D

 28 32  0  0  1  0  0  0  0  0999 V2000
  183.1130  177.2390  139.5100 N   0  0  0  0  0  0  0  0  0  0  0  0
  184.1630  178.8650  140.8510 C   0  0  1  0  0  3  0  0  0  0  0  0
  183.9800  179.3540  139.4910 C   0  0  0  0  0  0  0  0  0  0  0  0
  184.3040  180.4910  139.0610 O   0  0  0  0  0  0  0  0  0  0  0  0
  183.3160  178.3900  138.7340 N   0  0  0  0  0  2  0  0  0  0  0  0
  183.5860  177.5120  140.8260 N   0  0  0  0  0  2  0  0  0  0  0  0
  186.4760  178.6480  140.3930 O   0  0  0  0  0  0  0  0  0  0  0  0
  185.6120  178.8110  141.2420 C   0  0  0  0  0  0  0  0  0  0  0  0
  188.9110  177.5000  144.8740 C   0  0  0  0  0  3  0  0  0  0  0  0
  186.3550  177.7050  145.3930 C   0  0  1  0  0  3  0  0  0  0  0  0
  187.2170  176.7490  143.2280 C   0  0  0  0  0  2  0  0  0  0  0  0
  188.1130  177.8560  147.1630 C   0  0  0  0  0  0  0  0  0  0  0  0
  187.5150  177.6980  144.3740 C   0  0  2  0  0  0  0  0  0  0  0  0
  184.8550  178.5560  143.6040 C   0  0  0  0  0  2  0  0  0  0  0  0
  186.8290  177.9410  146.8020 C   0  0  0  0  0  3  0  0  0  0  0  0
  187.3610  178.2370  142.9510 C   0  0  2  0  0  3  0  0  0  0  0  0
  185.2850  178.7290  145.0470 C   0  0  0  0  0  2  0  0  0  0  0  0
  188.4840  178.0680  148.5860 C   0  0  0  0  0  1  0  0  0  0  0  0
  189.1750  177.5820  146.1770 C   0  0  0  0  0  3  0  0  0  0  0  0
  186.0110  178.9400  142.6800 C   0  0  1  0  0  3  0  0  0  0  0  0
  181.6740  176.9220  139.5390 C   0  0  0  0  0  2  0  0  0  0  0  0
  181.3050  175.4330  139.4150 C   0  0  2  0  0  3  0  0  0  0  0  0
  179.8170  173.4910  137.9400 C   0  0  0  0  0  0  0  0  0  0  0  0
  181.7430  174.8560  138.1790 O   0  0  0  0  0  0  0  0  0  0  0  0
  179.8530  175.1620  139.7150 C   0  0  0  0  0  3  0  0  0  0  0  0
  179.1780  174.2320  139.0380 C   0  0  0  0  0  3  0  0  0  0  0  0
  179.0730  172.4130  137.2390 C   0  0  0  0  0  1  0  0  0  0  0  0
  181.0420  173.8260  137.5360 C   0  0  0  0  0  3  0  0  0  0  0  0
  1 21  1  0  0  0  0
  1  6  1  0  0  0  0
  2  8  1  6  0  0  0
  3  2  1  0  0  0  0
  4  3  2  0  0  0  0
  5  3  1  0  0  0  0
  5  1  1  0  0  0  0
  6  2  1  0  0  0  0
  7  8  2  0  0  0  0
  9 19  2  0  0  0  0
 10 17  1  6  0  0  0
 10 15  1  0  0  0  0
 12 18  1  0  0  0  0
 13 11  1  6  0  0  0
 13  9  1  0  0  0  0
 13 10  1  0  0  0  0
 14 17  1  0  0  0  0
 15 12  2  0  0  0  0
 16 11  1  6  0  0  0
 16 13  1  0  0  0  0
 19 12  1  0  0  0  0
 20  8  1  6  0  0  0
 20 16  1  0  0  0  0
 20 14  1  0  0  0  0
 22 21  1  6  0  0  0
 22 25  1  0  0  0  0
 23 26  1  0  0  0  0
 24 22  1  0  0  0  0
 26 25  2  0  0  0  0
 27 23  1  0  0  0  0
 28 23  2  0  0  0  0
 28 24  1  0  0  0  0
M  END
>  <MODEL>
3

>  <REMARK>
 VINA RESULT:      -8.7      4.711      5.647
  Name = 
  4 active torsions:
  status: ('A' for Active; 'I' for Inactive)
    1  A    between atoms: N_1  and  C_2
    2  A    between atoms: C_2  and  C_3
    3  A    between atoms: C_16  and  C_20
    4  A    between atoms: C_20  and  C_25
                            x       y       z     vdW  Elec       q    Type
                         _______ _______ _______ _____ _____    ______ ____

>  <TORSDO>
F 4

$$$$
=
 OpenBabel10262420543D

 28 32  0  0  1  0  0  0  0  0999 V2000
  188.3330  176.3810  137.0660 N   0  0  0  0  0  0  0  0  0  0  0  0
  187.9290  178.0220  138.7060 C   0  0  1  0  0  3  0  0  0  0  0  0
  188.5740  178.6050  137.5370 C   0  0  0  0  0  0  0  0  0  0  0  0
  188.8680  179.8180  137.3770 O   0  0  0  0  0  0  0  0  0  0  0  0
  188.7580  177.6210  136.5660 N   0  0  0  0  0  2  0  0  0  0  0  0
  187.7830  176.6000  138.3620 N   0  0  0  0  0  2  0  0  0  0  0  0
  189.9670  177.9850  139.9110 O   0  0  0  0  0  0  0  0  0  0  0  0
  188.7620  178.1800  139.9460 C   0  0  0  0  0  0  0  0  0  0  0  0
  188.5520  177.4570  144.9680 C   0  0  0  0  0  3  0  0  0  0  0  0
  186.3720  177.8530  143.5780 C   0  0  1  0  0  3  0  0  0  0  0  0
  188.2920  176.4720  142.7090 C   0  0  0  0  0  2  0  0  0  0  0  0
  186.5030  178.2690  146.0380 C   0  0  0  0  0  0  0  0  0  0  0  0
  187.8960  177.6100  143.6330 C   0  0  2  0  0  0  0  0  0  0  0  0
  186.5990  178.4060  141.1660 C   0  0  0  0  0  2  0  0  0  0  0  0
  185.8180  178.3330  144.8920 C   0  0  0  0  0  3  0  0  0  0  0  0
  188.8140  177.8750  142.4390 C   0  0  2  0  0  3  0  0  0  0  0  0
  185.9800  178.8330  142.4820 C   0  0  0  0  0  2  0  0  0  0  0  0
  185.8610  178.7330  147.2960 C   0  0  0  0  0  1  0  0  0  0  0  0
  187.8920  177.7750  146.0820 C   0  0  0  0  0  3  0  0  0  0  0  0
  188.1170  178.5640  141.2430 C   0  0  1  0  0  3  0  0  0  0  0  0
  187.3110  175.8200  136.1650 C   0  0  0  0  0  2  0  0  0  0  0  0
  186.0940  175.1640  136.8430 C   0  0  2  0  0  3  0  0  0  0  0  0
  184.3520  172.9000  136.8720 C   0  0  0  0  0  0  0  0  0  0  0  0
  186.4160  173.9120  137.4630 O   0  0  0  0  0  0  0  0  0  0  0  0
  184.8910  175.0880  135.9390 C   0  0  0  0  0  3  0  0  0  0  0  0
  184.0700  174.0380  135.9840 C   0  0  0  0  0  3  0  0  0  0  0  0
  183.3940  171.7680  136.9580 C   0  0  0  0  0  1  0  0  0  0  0  0
  185.4960  172.8580  137.5540 C   0  0  0  0  0  3  0  0  0  0  0  0
  1  6  1  0  0  0  0
  2  8  1  1  0  0  0
  3  2  1  0  0  0  0
  4  3  2  0  0  0  0
  5  1  1  0  0  0  0
  5  3  1  0  0  0  0
  6  2  1  0  0  0  0
  7  8  2  0  0  0  0
  9 19  2  0  0  0  0
 10 17  1  6  0  0  0
 10 13  1  0  0  0  0
 10 15  1  0  0  0  0
 12 19  1  0  0  0  0
 12 18  1  0  0  0  0
 13 11  1  6  0  0  0
 13  9  1  0  0  0  0
 14 20  1  0  0  0  0
 14 17  1  0  0  0  0
 15 12  2  0  0  0  0
 16 11  1  6  0  0  0
 16 13  1  0  0  0  0
 20  8  1  6  0  0  0
 20 16  1  0  0  0  0
 21  1  1  0  0  0  0
 22 21  1  6  0  0  0
 22 24  1  0  0  0  0
 23 27  1  0  0  0  0
 23 28  2  0  0  0  0
 24 28  1  0  0  0  0
 25 26  2  0  0  0  0
 25 22  1  0  0  0  0
 26 23  1  0  0  0  0
M  END
>  <MODEL>
4

>  <REMARK>
 VINA RESULT:      -8.6      2.022      2.589
  Name = 
  4 active torsions:
  status: ('A' for Active; 'I' for Inactive)
    1  A    between atoms: N_1  and  C_2
    2  A    between atoms: C_2  and  C_3
    3  A    between atoms: C_16  and  C_20
    4  A    between atoms: C_20  and  C_25
                            x       y       z     vdW  Elec       q    Type
                         _______ _______ _______ _____ _____    ______ ____

>  <TORSDO>
F 4

$$$$
=
 OpenBabel10262420543D

 28 32  0  0  1  0  0  0  0  0999 V2000
  184.8940  179.3950  139.3550 N   0  0  0  0  0  0  0  0  0  0  0  0
  184.6790  178.2220  141.3860 C   0  0  1  0  0  3  0  0  0  0  0  0
  183.6170  177.8540  140.4590 C   0  0  0  0  0  0  0  0  0  0  0  0
  182.7060  177.0120  140.6690 O   0  0  0  0  0  0  0  0  0  0  0  0
  183.7960  178.5290  139.2520 N   0  0  0  0  0  2  0  0  0  0  0  0
  185.4820  179.2030  140.6390 N   0  0  0  0  0  2  0  0  0  0  0  0
  182.9870  179.2330  142.6980 O   0  0  0  0  0  0  0  0  0  0  0  0
  184.1410  178.8340  142.6470 C   0  0  0  0  0  0  0  0  0  0  0  0
  188.5210  177.5730  144.8860 C   0  0  0  0  0  3  0  0  0  0  0  0
  186.3110  177.7620  146.2730 C   0  0  1  0  0  3  0  0  0  0  0  0
  186.3640  176.7980  143.9460 C   0  0  0  0  0  2  0  0  0  0  0  0
  188.5790  177.9380  147.3080 C   0  0  0  0  0  0  0  0  0  0  0  0
  187.0370  177.7580  144.9100 C   0  0  2  0  0  0  0  0  0  0  0  0
  184.2690  178.5890  145.1250 C   0  0  0  0  0  2  0  0  0  0  0  0
  187.2500  178.0110  147.4230 C   0  0  0  0  0  3  0  0  0  0  0  0
  186.3860  178.2860  143.6310 C   0  0  2  0  0  3  0  0  0  0  0  0
  185.1780  178.7750  146.3240 C   0  0  0  0  0  2  0  0  0  0  0  0
  189.4270  178.1620  148.5070 C   0  0  0  0  0  1  0  0  0  0  0  0
  189.2280  177.6670  146.0120 C   0  0  0  0  0  3  0  0  0  0  0  0
  185.0200  178.9760  143.8520 C   0  0  1  0  0  3  0  0  0  0  0  0
  185.8650  179.0760  138.2950 C   0  0  0  0  0  2  0  0  0  0  0  0
  186.9860  178.0910  138.6740 C   0  0  2  0  0  3  0  0  0  0  0  0
  189.6220  177.1770  138.0630 C   0  0  0  0  0  0  0  0  0  0  0  0
  188.1840  178.7550  139.0970 O   0  0  0  0  0  0  0  0  0  0  0  0
  187.2280  177.0450  137.6180 C   0  0  0  0  0  3  0  0  0  0  0  0
  188.4620  176.6060  137.3630 C   0  0  0  0  0  3  0  0  0  0  0  0
  190.9820  176.6320  137.8150 C   0  0  0  0  0  1  0  0  0  0  0  0
  189.4610  178.2220  138.8740 C   0  0  0  0  0  3  0  0  0  0  0  0
  1  6  1  0  0  0  0
  2  8  1  1  0  0  0
  3  4  2  0  0  0  0
  3  2  1  0  0  0  0
  5  1  1  0  0  0  0
  5  3  1  0  0  0  0
  6  2  1  0  0  0  0
  8  7  2  0  0  0  0
  9 13  1  0  0  0  0
  9 19  2  0  0  0  0
 10 17  1  6  0  0  0
 10 15  1  0  0  0  0
 12 15  2  0  0  0  0
 12 18  1  0  0  0  0
 13 11  1  6  0  0  0
 13 10  1  0  0  0  0
 14 17  1  0  0  0  0
 16 20  1  0  0  0  0
 16 11  1  6  0  0  0
 16 13  1  0  0  0  0
 19 12  1  0  0  0  0
 20  8  1  6  0  0  0
 20 14  1  0  0  0  0
 21  1  1  0  0  0  0
 22 21  1  6  0  0  0
 22 24  1  0  0  0  0
 23 28  2  0  0  0  0
 25 22  1  0  0  0  0
 26 25  2  0  0  0  0
 26 23  1  0  0  0  0
 27 23  1  0  0  0  0
 28 24  1  0  0  0  0
M  END
>  <MODEL>
5

>  <REMARK>
 VINA RESULT:      -8.6      3.704      5.323
  Name = 
  4 active torsions:
  status: ('A' for Active; 'I' for Inactive)
    1  A    between atoms: N_1  and  C_2
    2  A    between atoms: C_2  and  C_3
    3  A    between atoms: C_16  and  C_20
    4  A    between atoms: C_20  and  C_25
                            x       y       z     vdW  Elec       q    Type
                         _______ _______ _______ _____ _____    ______ ____

>  <TORSDO>
F 4

$$$$
=
 OpenBabel10262420543D

 28 32  0  0  1  0  0  0  0  0999 V2000
  189.0670  176.5250  136.6560 N   0  0  0  0  0  0  0  0  0  0  0  0
  189.1350  176.9670  138.9680 C   0  0  1  0  0  3  0  0  0  0  0  0
  189.0820  178.2060  138.2040 C   0  0  0  0  0  0  0  0  0  0  0  0
  189.0500  179.3710  138.6780 O   0  0  0  0  0  0  0  0  0  0  0  0
  188.9960  177.9130  136.8430 N   0  0  0  0  0  2  0  0  0  0  0  0
  189.1130  175.9130  137.9430 N   0  0  0  0  0  2  0  0  0  0  0  0
  191.4830  176.8900  139.2640 O   0  0  0  0  0  0  0  0  0  0  0  0
  190.3830  176.8690  139.7970 C   0  0  0  0  0  0  0  0  0  0  0  0
  187.5200  177.4340  143.9530 C   0  0  0  0  0  3  0  0  0  0  0  0
  190.0760  177.9890  143.9990 C   0  0  1  0  0  3  0  0  0  0  0  0
  188.6170  178.5220  142.0160 C   0  0  0  0  0  2  0  0  0  0  0  0
  188.7660  177.4660  146.0620 C   0  0  0  0  0  0  0  0  0  0  0  0
  188.8070  177.6030  143.2090 C   0  0  2  0  0  0  0  0  0  0  0  0
  191.4280  177.4790  141.9770 C   0  0  0  0  0  2  0  0  0  0  0  0
  189.9390  177.7220  145.4740 C   0  0  0  0  0  3  0  0  0  0  0  0
  188.8630  177.0380  141.7890 C   0  0  2  0  0  3  0  0  0  0  0  0
  191.3200  177.2860  143.4770 C   0  0  0  0  0  2  0  0  0  0  0  0
  188.7210  177.2510  147.5320 C   0  0  0  0  0  1  0  0  0  0  0  0
  187.5180  177.3650  145.2840 C   0  0  0  0  0  3  0  0  0  0  0  0
  190.2910  176.7270  141.2860 C   0  0  1  0  0  3  0  0  0  0  0  0
  187.8750  176.0730  135.9180 C   0  0  0  0  0  2  0  0  0  0  0  0
  186.6410  176.9910  135.9930 C   0  0  2  0  0  3  0  0  0  0  0  0
  183.7870  177.0990  136.0500 C   0  0  0  0  0  0  0  0  0  0  0  0
  185.8520  176.7600  137.1680 O   0  0  0  0  0  0  0  0  0  0  0  0
  185.8300  176.9890  134.7230 C   0  0  0  0  0  3  0  0  0  0  0  0
  184.4990  177.0680  134.7640 C   0  0  0  0  0  3  0  0  0  0  0  0
  182.3100  177.2540  136.0780 C   0  0  0  0  0  1  0  0  0  0  0  0
  184.4610  176.9280  137.1870 C   0  0  0  0  0  3  0  0  0  0  0  0
  1  5  1  0  0  0  0
  1  6  1  0  0  0  0
  2  8  1  6  0  0  0
  3  4  2  0  0  0  0
  3  2  1  0  0  0  0
  5  3  1  0  0  0  0
  6  2  1  0  0  0  0
  7  8  2  0  0  0  0
  9 19  2  0  0  0  0
 10 17  1  6  0  0  0
 10 15  1  0  0  0  0
 12 18  1  0  0  0  0
 13 11  1  6  0  0  0
 13  9  1  0  0  0  0
 13 10  1  0  0  0  0
 14 17  1  0  0  0  0
 15 12  2  0  0  0  0
 16 11  1  6  0  0  0
 16 13  1  0  0  0  0
 19 12  1  0  0  0  0
 20  8  1  6  0  0  0
 20 16  1  0  0  0  0
 20 14  1  0  0  0  0
 21  1  1  0  0  0  0
 22 21  1  6  0  0  0
 22 24  1  0  0  0  0
 23 27  1  0  0  0  0
 23 28  2  0  0  0  0
 24 28  1  0  0  0  0
 25 26  2  0  0  0  0
 25 22  1  0  0  0  0
 26 23  1  0  0  0  0
M  END
>  <MODEL>
6

>  <REMARK>
 VINA RESULT:      -8.3      2.095      3.007
  Name = 
  4 active torsions:
  status: ('A' for Active; 'I' for Inactive)
    1  A    between atoms: N_1  and  C_2
    2  A    between atoms: C_2  and  C_3
    3  A    between atoms: C_16  and  C_20
    4  A    between atoms: C_20  and  C_25
                            x       y       z     vdW  Elec       q    Type
                         _______ _______ _______ _____ _____    ______ ____

>  <TORSDO>
F 4

$$$$
=
 OpenBabel10262420543D

 28 32  0  0  1  0  0  0  0  0999 V2000
  191.0480  176.2950  137.7290 N   0  0  0  0  0  0  0  0  0  0  0  0
  189.6480  176.9580  139.5030 C   0  0  1  0  0  3  0  0  0  0  0  0
  189.6100  177.9310  138.4190 C   0  0  0  0  0  0  0  0  0  0  0  0
  188.9170  178.9810  138.3880 O   0  0  0  0  0  0  0  0  0  0  0  0
  190.4110  177.4910  137.3670 N   0  0  0  0  0  2  0  0  0  0  0  0
  190.5720  175.9210  139.0200 N   0  0  0  0  0  2  0  0  0  0  0  0
  191.3560  177.6640  140.9830 O   0  0  0  0  0  0  0  0  0  0  0  0
  190.1550  177.5580  140.7830 C   0  0  0  0  0  0  0  0  0  0  0  0
  188.7640  177.3460  145.6620 C   0  0  0  0  0  3  0  0  0  0  0  0
  186.9720  177.4070  143.7580 C   0  0  1  0  0  3  0  0  0  0  0  0
  189.1220  176.1130  143.5430 C   0  0  0  0  0  2  0  0  0  0  0  0
  186.4720  178.0870  146.1100 C   0  0  0  0  0  0  0  0  0  0  0  0
  188.4470  177.3020  144.2010 C   0  0  2  0  0  0  0  0  0  0  0  0
  187.7500  177.7230  141.4190 C   0  0  0  0  0  2  0  0  0  0  0  0
  186.0860  177.9720  144.8350 C   0  0  0  0  0  3  0  0  0  0  0  0
  189.6120  177.5200  143.2350 C   0  0  2  0  0  3  0  0  0  0  0  0
  186.8040  178.2300  142.4900 C   0  0  0  0  0  2  0  0  0  0  0  0
  185.5160  178.6220  147.1140 C   0  0  0  0  0  1  0  0  0  0  0  0
  187.8340  177.7200  146.5400 C   0  0  0  0  0  3  0  0  0  0  0  0
  189.1910  178.0180  141.8340 C   0  0  1  0  0  3  0  0  0  0  0  0
  190.7230  175.2520  136.7410 C   0  0  0  0  0  2  0  0  0  0  0  0
  191.9160  174.6210  136.0020 C   0  0  2  0  0  3  0  0  0  0  0  0
  194.6770  173.9040  136.1680 C   0  0  0  0  0  0  0  0  0  0  0  0
  192.4000  173.4350  136.6470 O   0  0  0  0  0  0  0  0  0  0  0  0
  193.0050  175.6140  135.6900 C   0  0  0  0  0  3  0  0  0  0  0  0
  194.2890  175.2580  135.7440 C   0  0  0  0  0  3  0  0  0  0  0  0
  196.1070  173.5020  136.1600 C   0  0  0  0  0  1  0  0  0  0  0  0
  193.7500  173.0580  136.6150 C   0  0  0  0  0  3  0  0  0  0  0  0
  1  6  1  0  0  0  0
  2  8  1  1  0  0  0
  3  2  1  0  0  0  0
  4  3  2  0  0  0  0
  5  1  1  0  0  0  0
  5  3  1  0  0  0  0
  6  2  1  0  0  0  0
  8  7  2  0  0  0  0
  9 19  2  0  0  0  0
 10 17  1  6  0  0  0
 10 13  1  0  0  0  0
 10 15  1  0  0  0  0
 12 19  1  0  0  0  0
 12 18  1  0  0  0  0
 13 11  1  6  0  0  0
 13  9  1  0  0  0  0
 14 20  1  0  0  0  0
 14 17  1  0  0  0  0
 15 12  2  0  0  0  0
 16 11  1  6  0  0  0
 16 13  1  0  0  0  0
 20  8  1  6  0  0  0
 20 16  1  0  0  0  0
 21  1  1  0  0  0  0
 22 24  1  0  0  0  0
 22 21  1  1  0  0  0
 23 28  2  0  0  0  0
 25 26  2  0  0  0  0
 25 22  1  0  0  0  0
 26 23  1  0  0  0  0
 27 23  1  0  0  0  0
 28 24  1  0  0  0  0
M  END
>  <MODEL>
7

>  <REMARK>
 VINA RESULT:      -8.3      2.462      3.863
  Name = 
  4 active torsions:
  status: ('A' for Active; 'I' for Inactive)
    1  A    between atoms: N_1  and  C_2
    2  A    between atoms: C_2  and  C_3
    3  A    between atoms: C_16  and  C_20
    4  A    between atoms: C_20  and  C_25
                            x       y       z     vdW  Elec       q    Type
                         _______ _______ _______ _____ _____    ______ ____

>  <TORSDO>
F 4

$$$$
=
 OpenBabel10262420543D

 28 32  0  0  1  0  0  0  0  0999 V2000
  190.9440  176.2620  137.3340 N   0  0  0  0  0  0  0  0  0  0  0  0
  190.2180  176.6140  139.5460 C   0  0  1  0  0  3  0  0  0  0  0  0
  189.7940  177.7060  138.6800 C   0  0  0  0  0  0  0  0  0  0  0  0
  189.1110  178.7050  139.0250 O   0  0  0  0  0  0  0  0  0  0  0  0
  190.1970  177.4480  137.3710 N   0  0  0  0  0  2  0  0  0  0  0  0
  190.9430  175.7050  138.6460 N   0  0  0  0  0  2  0  0  0  0  0  0
  192.1920  177.6120  140.3930 O   0  0  0  0  0  0  0  0  0  0  0  0
  191.1190  177.0880  140.6510 C   0  0  0  0  0  0  0  0  0  0  0  0
  187.4090  177.4390  144.1010 C   0  0  0  0  0  3  0  0  0  0  0  0
  189.8700  178.0920  144.7050 C   0  0  1  0  0  3  0  0  0  0  0  0
  188.8480  178.6160  142.4620 C   0  0  0  0  0  2  0  0  0  0  0  0
  188.1720  177.4690  146.4300 C   0  0  0  0  0  0  0  0  0  0  0  0
  188.8170  177.6770  143.6540 C   0  0  2  0  0  0  0  0  0  0  0  0
  191.6440  177.6850  143.0140 C   0  0  0  0  0  2  0  0  0  0  0  0
  189.4310  177.7840  146.1110 C   0  0  0  0  0  3  0  0  0  0  0  0
  189.2010  177.1480  142.2720 C   0  0  2  0  0  3  0  0  0  0  0  0
  191.2260  177.4520  144.4520 C   0  0  0  0  0  2  0  0  0  0  0  0
  187.8220  177.2160  147.8510 C   0  0  0  0  0  1  0  0  0  0  0  0
  187.1250  177.3380  145.3990 C   0  0  0  0  0  3  0  0  0  0  0  0
  190.7160  176.9060  142.0820 C   0  0  1  0  0  3  0  0  0  0  0  0
  190.3230  175.3260  136.3800 C   0  0  0  0  0  2  0  0  0  0  0  0
  191.2880  174.4640  135.5470 C   0  0  2  0  0  3  0  0  0  0  0  0
  193.8130  173.1290  135.5040 C   0  0  0  0  0  0  0  0  0  0  0  0
  191.5260  173.1780  136.1330 O   0  0  0  0  0  0  0  0  0  0  0  0
  192.5550  175.1920  135.1780 C   0  0  0  0  0  3  0  0  0  0  0  0
  193.7230  174.5500  135.1350 C   0  0  0  0  0  3  0  0  0  0  0  0
  195.1090  172.4110  135.3880 C   0  0  0  0  0  1  0  0  0  0  0  0
  192.7470  172.5030  136.0000 C   0  0  0  0  0  3  0  0  0  0  0  0
  1  5  1  0  0  0  0
  1  6  1  0  0  0  0
  2  8  1  1  0  0  0
  3  4  2  0  0  0  0
  3  2  1  0  0  0  0
  5  3  1  0  0  0  0
  6  2  1  0  0  0  0
  7  8  2  0  0  0  0
  9 19  2  0  0  0  0
 10 17  1  6  0  0  0
 10 15  1  0  0  0  0
 12 18  1  0  0  0  0
 13 11  1  6  0  0  0
 13  9  1  0  0  0  0
 13 10  1  0  0  0  0
 14 17  1  0  0  0  0
 15 12  2  0  0  0  0
 16 11  1  6  0  0  0
 16 13  1  0  0  0  0
 19 12  1  0  0  0  0
 20  8  1  6  0  0  0
 20 16  1  0  0  0  0
 20 14  1  0  0  0  0
 21  1  1  0  0  0  0
 22 24  1  0  0  0  0
 22 21  1  1  0  0  0
 23 28  2  0  0  0  0
 25 22  1  0  0  0  0
 26 25  2  0  0  0  0
 26 23  1  0  0  0  0
 27 23  1  0  0  0  0
 28 24  1  0  0  0  0
M  END
>  <MODEL>
8

>  <REMARK>
 VINA RESULT:      -8.3      2.119      3.624
  Name = 
  4 active torsions:
  status: ('A' for Active; 'I' for Inactive)
    1  A    between atoms: N_1  and  C_2
    2  A    between atoms: C_2  and  C_3
    3  A    between atoms: C_16  and  C_20
    4  A    between atoms: C_20  and  C_25
                            x       y       z     vdW  Elec       q    Type
                         _______ _______ _______ _____ _____    ______ ____

>  <TORSDO>
F 4

$$$$
=
 OpenBabel10262420543D

 28 32  0  0  1  0  0  0  0  0999 V2000
  189.1390  177.8710  147.0040 N   0  0  0  0  0  0  0  0  0  0  0  0
  190.3550  177.2580  145.0830 C   0  0  1  0  0  3  0  0  0  0  0  0
  191.0420  176.8250  146.2920 C   0  0  0  0  0  0  0  0  0  0  0  0
  192.1260  176.1870  146.3430 O   0  0  0  0  0  0  0  0  0  0  0  0
  190.2780  177.1600  147.4090 N   0  0  0  0  0  2  0  0  0  0  0  0
  189.1360  177.9150  145.5800 N   0  0  0  0  0  2  0  0  0  0  0  0
  191.9820  178.9600  144.8320 O   0  0  0  0  0  0  0  0  0  0  0  0
  191.1800  178.2210  144.2790 C   0  0  0  0  0  0  0  0  0  0  0  0
  187.9790  178.0610  140.3400 C   0  0  0  0  0  3  0  0  0  0  0  0
  190.3480  176.9600  140.1900 C   0  0  1  0  0  3  0  0  0  0  0  0
  188.9520  176.8710  142.2840 C   0  0  0  0  0  2  0  0  0  0  0  0
  189.0400  177.6390  138.1720 C   0  0  0  0  0  0  0  0  0  0  0  0
  189.2490  177.6570  141.0210 C   0  0  2  0  0  0  0  0  0  0  0  0
  191.9160  177.2770  142.0920 C   0  0  0  0  0  2  0  0  0  0  0  0
  190.1690  177.1680  138.7100 C   0  0  0  0  0  3  0  0  0  0  0  0
  189.5240  178.2760  142.3920 C   0  0  2  0  0  3  0  0  0  0  0  0
  191.7470  177.4040  140.5900 C   0  0  0  0  0  2  0  0  0  0  0  0
  188.9390  177.7760  136.6960 C   0  0  0  0  0  1  0  0  0  0  0  0
  187.8990  178.0530  139.0100 C   0  0  0  0  0  3  0  0  0  0  0  0
  191.0170  178.2960  142.7920 C   0  0  1  0  0  3  0  0  0  0  0  0
  187.9350  177.1800  147.4970 C   0  0  0  0  0  2  0  0  0  0  0  0
  186.6430  177.4090  146.6920 C   0  0  2  0  0  3  0  0  0  0  0  0
  185.4310  178.8510  144.5450 C   0  0  0  0  0  0  0  0  0  0  0  0
  186.7850  177.0580  145.3100 O   0  0  0  0  0  0  0  0  0  0  0  0
  186.0580  178.7820  146.9010 C   0  0  0  0  0  3  0  0  0  0  0  0
  185.4700  179.4320  145.8960 C   0  0  0  0  0  3  0  0  0  0  0  0
  184.7150  179.5570  143.4520 C   0  0  0  0  0  1  0  0  0  0  0  0
  186.0890  177.7210  144.2890 C   0  0  0  0  0  3  0  0  0  0  0  0
  1  5  1  0  0  0  0
  1 21  1  0  0  0  0
  2  8  1  1  0  0  0
  2  6  1  0  0  0  0
  2  3  1  0  0  0  0
  3  4  2  0  0  0  0
  3  5  1  0  0  0  0
  6  1  1  0  0  0  0
  8  7  2  0  0  0  0
 10 15  1  6  0  0  0
 10 17  1  0  0  0  0
 10 13  1  0  0  0  0
 12 15  2  0  0  0  0
 12 19  1  0  0  0  0
 13  9  1  6  0  0  0
 13 11  1  0  0  0  0
 13 16  1  0  0  0  0
 14 20  1  0  0  0  0
 16 11  1  1  0  0  0
 16 20  1  0  0  0  0
 17 14  1  0  0  0  0
 18 12  1  0  0  0  0
 19  9  2  0  0  0  0
 20  8  1  1  0  0  0
 22 25  1  0  0  0  0
 22 21  1  6  0  0  0
 23 26  1  0  0  0  0
 24 22  1  0  0  0  0
 26 25  2  0  0  0  0
 27 23  1  0  0  0  0
 28 23  2  0  0  0  0
 28 24  1  0  0  0  0
M  END
>  <MODEL>
9

>  <REMARK>
 VINA RESULT:      -8.1      4.314      7.877
  Name = 
  4 active torsions:
  status: ('A' for Active; 'I' for Inactive)
    1  A    between atoms: N_1  and  C_2
    2  A    between atoms: C_2  and  C_3
    3  A    between atoms: C_16  and  C_20
    4  A    between atoms: C_20  and  C_25
                            x       y       z     vdW  Elec       q    Type
                         _______ _______ _______ _____ _____    ______ ____

>  <TORSDO>
F 4

$$$$
