=
 OpenBabel10262422543D

 37 42  0  0  1  0  0  0  0  0999 V2000
  179.4960  174.2890  136.7670 C   0  0  0  0  0  2  0  0  0  0  0  0
  183.8460  175.6350  137.8910 C   0  0  1  0  0  3  0  0  0  0  0  0
  184.6580  178.8510  139.6100 O   0  0  0  0  0  0  0  0  0  0  0  0
  181.8370  174.1720  137.0020 C   0  0  2  0  0  3  0  0  0  0  0  0
  183.6480  177.0960  138.2260 C   0  0  2  0  0  3  0  0  0  0  0  0
  182.4880  174.9680  138.1670 C   0  0  2  0  0  3  0  0  0  0  0  0
  184.9260  177.7700  138.7340 C   0  0  1  0  0  3  0  0  0  0  0  0
  182.7880  173.6060  135.9310 C   0  0  0  0  0  2  0  0  0  0  0  0
  181.5820  176.0630  138.7400 C   0  0  1  0  0  3  0  0  0  0  0  0
  179.6770  174.4680  139.2650 C   0  0  0  0  0  2  0  0  0  0  0  0
  185.7800  175.9470  136.3370 C   0  0  0  0  0  2  0  0  0  0  0  0
  184.2510  174.0030  136.1000 C   0  0  0  0  0  2  0  0  0  0  0  0
  180.6370  175.5270  139.8080 C   0  0  0  0  0  2  0  0  0  0  0  0
  183.9470  179.8740  138.9360 C   0  0  0  0  0  2  0  0  0  0  0  0
  184.3400  175.4690  136.4610 C   0  0  1  0  0  3  0  0  0  0  0  0
  182.5320  177.1180  139.2670 C   0  0  2  0  0  3  0  0  0  0  0  0
  180.7530  174.9110  136.3640 N   0  0  0  0  0  2  0  0  0  0  0  0
  185.9600  178.1470  137.6490 C   0  0  2  0  0  3  0  0  0  0  0  0
  178.9310  174.9460  138.0230 C   0  0  0  0  0  2  0  0  0  0  0  0
  182.4800  179.4960  138.6010 C   0  0  1  0  0  3  0  0  0  0  0  0
  181.8740  178.4330  139.4430 N   0  0  0  0  0  0  0  0  0  0  0  0
  185.8190  177.4710  136.2750 C   0  0  0  0  0  2  0  0  0  0  0  0
  188.4280  178.0530  137.2690 C   0  0  0  0  0  3  0  0  0  0  0  0
  187.3610  178.0790  138.1720 C   0  0  0  0  0  0  0  0  0  0  0  0
  187.6160  178.0350  139.5500 C   0  0  0  0  0  3  0  0  0  0  0  0
  189.2460  177.9140  141.7380 Cl  0  0  0  0  0  0  0  0  0  0  0  0
  189.9960  177.9460  139.1110 C   0  0  0  0  0  3  0  0  0  0  0  0
  188.9320  177.9690  140.0180 C   0  0  0  0  0  0  0  0  0  0  0  0
  189.7440  177.9880  137.7370 C   0  0  0  0  0  3  0  0  0  0  0  0
  182.3290  181.8900  138.5550 O   0  0  0  0  0  1  0  0  0  0  0  0
  181.5830  180.7190  138.4100 C   0  0  1  0  0  3  0  0  0  0  0  0
  180.9640  180.7020  137.1570 O   0  0  0  0  0  0  0  0  0  0  0  0
  179.6950  181.2370  137.3790 C   0  0  0  0  0  1  0  0  0  0  0  0
  181.9880  178.8010  140.8590 C   0  0  0  0  0  2  0  0  0  0  0  0
  180.6310  178.9030  141.5520 C   0  0  2  0  0  3  0  0  0  0  0  0
  179.4990  178.8070  140.5520 C   0  0  0  0  0  1  0  0  0  0  0  0
  180.5160  180.0790  142.2960 O   0  0  0  0  0  1  0  0  0  0  0  0
  1 19  1  0  0  0  0
  2  6  1  0  0  0  0
  2  5  1  0  0  0  0
  4  6  1  0  0  0  0
  5  7  1  0  0  0  0
  5 16  1  0  0  0  0
  6  9  1  0  0  0  0
  7  3  1  0  0  0  0
  8 12  1  0  0  0  0
  8  4  1  0  0  0  0
  9 16  1  0  0  0  0
  9 13  1  0  0  0  0
 10 13  1  0  0  0  0
 11 15  1  0  0  0  0
 12 15  1  0  0  0  0
 14  3  1  0  0  0  0
 15  2  1  0  0  0  0
 16 21  1  0  0  0  0
 17  1  1  0  0  0  0
 17  4  1  0  0  0  0
 18 24  1  0  0  0  0
 18  7  1  0  0  0  0
 19 10  1  0  0  0  0
 20 14  1  0  0  0  0
 20 21  1  0  0  0  0
 21 34  1  0  0  0  0
 22 11  1  0  0  0  0
 22 18  1  0  0  0  0
 23 29  2  0  0  0  0
 23 24  1  0  0  0  0
 24 25  2  0  0  0  0
 25 28  1  0  0  0  0
 27 28  2  0  0  0  0
 28 26  1  0  0  0  0
 29 27  1  0  0  0  0
 31 30  1  0  0  0  0
 31 20  1  0  0  0  0
 32 33  1  0  0  0  0
 32 31  1  0  0  0  0
 34 35  1  0  0  0  0
 35 37  1  0  0  0  0
 36 35  1  0  0  0  0
M  END
>  <MODEL>
1

>  <REMARK>
 VINA RESULT:      -6.1      0.000      0.000
  Name = 
  5 active torsions:
  status: ('A' for Active; 'I' for Inactive)
    1  A    between atoms: C_1  and  C_5
    2  A    between atoms: C_1  and  N_36
    3  A    between atoms: C_6  and  C_31
    4  A    between atoms: O_11  and  C_26
    5  A    between atoms: C_26  and  C_33
                            x       y       z     vdW  Elec       q    Type
                         _______ _______ _______ _____ _____    ______ ____

>  <TORSDO>
F 5

$$$$
=
 OpenBabel10262422543D

 37 42  0  0  1  0  0  0  0  0999 V2000
  181.8470  178.3030  139.7180 C   0  0  0  0  0  2  0  0  0  0  0  0
  185.9940  178.6090  141.8890 C   0  0  1  0  0  3  0  0  0  0  0  0
  189.2740  177.9470  140.2270 O   0  0  0  0  0  0  0  0  0  0  0  0
  183.3930  178.7170  141.4460 C   0  0  2  0  0  3  0  0  0  0  0  0
  186.9160  177.9270  140.9040 C   0  0  2  0  0  3  0  0  0  0  0  0
  184.8300  179.1530  141.0430 C   0  0  2  0  0  3  0  0  0  0  0  0
  188.3870  177.9770  141.3310 C   0  0  1  0  0  3  0  0  0  0  0  0
  183.1780  178.3160  142.9170 C   0  0  0  0  0  2  0  0  0  0  0  0
  185.1760  178.8380  139.5840 C   0  0  1  0  0  3  0  0  0  0  0  0
  183.2000  180.1250  138.6440 C   0  0  0  0  0  2  0  0  0  0  0  0
  186.7350  177.3460  143.9150 C   0  0  0  0  0  2  0  0  0  0  0  0
  184.4430  178.2940  143.7680 C   0  0  0  0  0  2  0  0  0  0  0  0
  184.7170  179.9360  138.6330 C   0  0  0  0  0  2  0  0  0  0  0  0
  189.1400  176.7310  139.5130 C   0  0  0  0  0  2  0  0  0  0  0  0
  185.5670  177.6470  142.9880 C   0  0  1  0  0  3  0  0  0  0  0  0
  186.6780  178.6390  139.5750 C   0  0  2  0  0  3  0  0  0  0  0  0
  182.8610  177.6840  140.5660 N   0  0  0  0  0  2  0  0  0  0  0  0
  188.7980  176.9730  142.4320 C   0  0  2  0  0  3  0  0  0  0  0  0
  182.4530  178.8150  138.4140 C   0  0  0  0  0  2  0  0  0  0  0  0
  187.8090  176.6140  138.7260 C   0  0  1  0  0  3  0  0  0  0  0  0
  187.1420  177.8960  138.3810 N   0  0  0  0  0  0  0  0  0  0  0  0
  187.6720  176.3350  143.2610 C   0  0  0  0  0  2  0  0  0  0  0  0
  190.4050  178.7900  143.0320 C   0  0  0  0  0  3  0  0  0  0  0  0
  189.8970  177.5130  143.2920 C   0  0  0  0  0  0  0  0  0  0  0  0
  190.4270  176.7570  144.3470 C   0  0  0  0  0  3  0  0  0  0  0  0
  192.1130  176.3310  146.4530 Cl  0  0  0  0  0  0  0  0  0  0  0  0
  191.9580  178.5560  144.8750 C   0  0  0  0  0  3  0  0  0  0  0  0
  191.4550  177.2790  145.1380 C   0  0  0  0  0  0  0  0  0  0  0  0
  191.4330  179.3120  143.8220 C   0  0  0  0  0  3  0  0  0  0  0  0
  189.0980  174.9220  137.6160 O   0  0  0  0  0  1  0  0  0  0  0  0
  187.8960  175.6290  137.5590 C   0  0  1  0  0  3  0  0  0  0  0  0
  186.8190  174.7400  137.5670 O   0  0  0  0  0  0  0  0  0  0  0  0
  186.6930  174.3210  136.2420 C   0  0  0  0  0  1  0  0  0  0  0  0
  188.0800  178.7600  137.6570 C   0  0  0  0  0  2  0  0  0  0  0  0
  187.8640  178.7260  136.1450 C   0  0  2  0  0  3  0  0  0  0  0  0
  186.5030  178.1620  135.8010 C   0  0  0  0  0  1  0  0  0  0  0  0
  188.8630  178.0000  135.4940 O   0  0  0  0  0  1  0  0  0  0  0  0
  1 17  1  0  0  0  0
  2 15  1  0  0  0  0
  3  7  1  0  0  0  0
  4  8  1  0  0  0  0
  5  7  1  0  0  0  0
  5  2  1  0  0  0  0
  6  4  1  0  0  0  0
  6  2  1  0  0  0  0
  7 18  1  0  0  0  0
  8 12  1  0  0  0  0
  9  6  1  0  0  0  0
 13 10  1  0  0  0  0
 13  9  1  0  0  0  0
 14  3  1  0  0  0  0
 15 12  1  0  0  0  0
 15 11  1  0  0  0  0
 16  9  1  0  0  0  0
 16  5  1  0  0  0  0
 17  4  1  0  0  0  0
 18 22  1  0  0  0  0
 18 24  1  0  0  0  0
 19 10  1  0  0  0  0
 19  1  1  0  0  0  0
 20 14  1  0  0  0  0
 21 20  1  0  0  0  0
 21 16  1  0  0  0  0
 22 11  1  0  0  0  0
 23 24  2  0  0  0  0
 23 29  1  0  0  0  0
 24 25  1  0  0  0  0
 25 28  2  0  0  0  0
 27 28  1  0  0  0  0
 28 26  1  0  0  0  0
 29 27  2  0  0  0  0
 31 32  1  0  0  0  0
 31 30  1  0  0  0  0
 31 20  1  0  0  0  0
 33 32  1  0  0  0  0
 34 21  1  0  0  0  0
 35 34  1  0  0  0  0
 36 35  1  0  0  0  0
 37 35  1  0  0  0  0
M  END
>  <MODEL>
2

>  <REMARK>
 VINA RESULT:      -6.0      3.808      6.818
  Name = 
  5 active torsions:
  status: ('A' for Active; 'I' for Inactive)
    1  A    between atoms: C_1  and  C_5
    2  A    between atoms: C_1  and  N_36
    3  A    between atoms: C_6  and  C_31
    4  A    between atoms: O_11  and  C_26
    5  A    between atoms: C_26  and  C_33
                            x       y       z     vdW  Elec       q    Type
                         _______ _______ _______ _____ _____    ______ ____

>  <TORSDO>
F 5

$$$$
=
 OpenBabel10262422543D

 37 42  0  0  1  0  0  0  0  0999 V2000
  186.9300  172.3080  136.3890 C   0  0  0  0  0  2  0  0  0  0  0  0
  183.7630  175.6920  137.1040 C   0  0  1  0  0  3  0  0  0  0  0  0
  184.6180  179.1450  138.2460 O   0  0  0  0  0  0  0  0  0  0  0  0
  184.8270  173.3680  136.4460 C   0  0  2  0  0  3  0  0  0  0  0  0
  184.5680  176.7230  137.8630 C   0  0  2  0  0  3  0  0  0  0  0  0
  184.7900  174.9110  136.2670 C   0  0  2  0  0  3  0  0  0  0  0  0
  183.7800  178.0070  138.1420 C   0  0  1  0  0  3  0  0  0  0  0  0
  183.5300  172.6940  136.9280 C   0  0  0  0  0  2  0  0  0  0  0  0
  186.1430  175.5870  136.5100 C   0  0  1  0  0  3  0  0  0  0  0  0
  187.3620  174.1860  134.7790 C   0  0  0  0  0  2  0  0  0  0  0  0
  181.8130  175.6300  138.6670 C   0  0  0  0  0  2  0  0  0  0  0  0
  182.3990  173.6560  137.2770 C   0  0  0  0  0  2  0  0  0  0  0  0
  187.0160  175.5940  135.2610 C   0  0  0  0  0  2  0  0  0  0  0  0
  185.5060  179.0130  139.3420 C   0  0  0  0  0  2  0  0  0  0  0  0
  182.9530  174.8270  138.0590 C   0  0  1  0  0  3  0  0  0  0  0  0
  185.8010  176.9790  137.0000 C   0  0  2  0  0  3  0  0  0  0  0  0
  185.9500  172.9340  137.2700 N   0  0  0  0  0  2  0  0  0  0  0  0
  182.7640  177.9280  139.3030 C   0  0  2  0  0  3  0  0  0  0  0  0
  187.9550  173.3240  135.8900 C   0  0  0  0  0  2  0  0  0  0  0  0
  186.6110  177.9470  139.1220 C   0  0  1  0  0  3  0  0  0  0  0  0
  186.9310  177.6230  137.7080 N   0  0  0  0  0  0  0  0  0  0  0  0
  182.3440  176.5280  139.7800 C   0  0  0  0  0  2  0  0  0  0  0  0
  181.0750  178.9580  137.7770 C   0  0  0  0  0  3  0  0  0  0  0  0
  181.5870  178.8230  139.0700 C   0  0  0  0  0  0  0  0  0  0  0  0
  180.9970  179.5310  140.1280 C   0  0  0  0  0  3  0  0  0  0  0  0
  179.1680  181.2450  141.2110 Cl  0  0  0  0  0  0  0  0  0  0  0  0
  179.3910  180.4940  138.5940 C   0  0  0  0  0  3  0  0  0  0  0  0
  179.9000  180.3640  139.8890 C   0  0  0  0  0  0  0  0  0  0  0  0
  179.9780  179.7910  137.5370 C   0  0  0  0  0  3  0  0  0  0  0  0
  187.4570  178.5790  141.2770 O   0  0  0  0  0  1  0  0  0  0  0  0
  187.8440  178.1870  139.9950 C   0  0  1  0  0  3  0  0  0  0  0  0
  188.6420  177.0420  140.0680 O   0  0  0  0  0  0  0  0  0  0  0  0
  189.9150  177.5140  140.3910 C   0  0  0  0  0  1  0  0  0  0  0  0
  187.2670  178.8530  136.9840 C   0  0  0  0  0  2  0  0  0  0  0  0
  188.7670  179.0000  136.7380 C   0  0  2  0  0  3  0  0  0  0  0  0
  189.4510  177.6510  136.7210 C   0  0  0  0  0  1  0  0  0  0  0  0
  189.3680  179.8330  137.6840 O   0  0  0  0  0  1  0  0  0  0  0  0
  1 17  1  0  0  0  0
  2  5  1  0  0  0  0
  2 15  1  0  0  0  0
  3 14  1  0  0  0  0
  4  8  1  0  0  0  0
  4 17  1  0  0  0  0
  5  7  1  0  0  0  0
  6  4  1  0  0  0  0
  6  9  1  0  0  0  0
  6  2  1  0  0  0  0
  7  3  1  0  0  0  0
  7 18  1  0  0  0  0
  8 12  1  0  0  0  0
  9 16  1  0  0  0  0
 10 13  1  0  0  0  0
 10 19  1  0  0  0  0
 11 22  1  0  0  0  0
 12 15  1  0  0  0  0
 13  9  1  0  0  0  0
 15 11  1  0  0  0  0
 16 21  1  0  0  0  0
 16  5  1  0  0  0  0
 18 22  1  0  0  0  0
 19  1  1  0  0  0  0
 20 14  1  0  0  0  0
 20 31  1  0  0  0  0
 21 20  1  0  0  0  0
 23 24  1  0  0  0  0
 24 18  1  0  0  0  0
 24 25  2  0  0  0  0
 27 28  2  0  0  0  0
 28 25  1  0  0  0  0
 28 26  1  0  0  0  0
 29 23  2  0  0  0  0
 29 27  1  0  0  0  0
 31 32  1  0  0  0  0
 31 30  1  0  0  0  0
 32 33  1  0  0  0  0
 34 21  1  0  0  0  0
 35 34  1  0  0  0  0
 35 37  1  0  0  0  0
 36 35  1  0  0  0  0
M  END
>  <MODEL>
3

>  <REMARK>
 VINA RESULT:      -5.5      2.866      6.804
  Name = 
  5 active torsions:
  status: ('A' for Active; 'I' for Inactive)
    1  A    between atoms: C_1  and  C_5
    2  A    between atoms: C_1  and  N_36
    3  A    between atoms: C_6  and  C_31
    4  A    between atoms: O_11  and  C_26
    5  A    between atoms: C_26  and  C_33
                            x       y       z     vdW  Elec       q    Type
                         _______ _______ _______ _____ _____    ______ ____

>  <TORSDO>
F 5

$$$$
=
 OpenBabel10262422543D

 37 42  0  0  1  0  0  0  0  0999 V2000
  183.1530  177.4520  135.3130 C   0  0  0  0  0  2  0  0  0  0  0  0
  184.6090  177.3600  139.7710 C   0  0  1  0  0  3  0  0  0  0  0  0
  182.4000  178.0480  142.7040 O   0  0  0  0  0  0  0  0  0  0  0  0
  184.6120  177.1560  137.1390 C   0  0  2  0  0  3  0  0  0  0  0  0
  183.4600  178.0270  140.4920 C   0  0  2  0  0  3  0  0  0  0  0  0
  183.9900  176.7470  138.5030 C   0  0  2  0  0  3  0  0  0  0  0  0
  183.6370  178.0390  142.0140 C   0  0  1  0  0  3  0  0  0  0  0  0
  186.0820  177.6130  137.1550 C   0  0  0  0  0  2  0  0  0  0  0  0
  182.4840  177.0100  138.5910 C   0  0  1  0  0  3  0  0  0  0  0  0
  181.9350  175.6270  136.5340 C   0  0  0  0  0  2  0  0  0  0  0  0
  186.4350  178.7290  140.7920 C   0  0  0  0  0  2  0  0  0  0  0  0
  186.7080  177.7080  138.5420 C   0  0  0  0  0  2  0  0  0  0  0  0
  181.6640  175.8600  138.0210 C   0  0  0  0  0  2  0  0  0  0  0  0
  181.6740  179.2290  142.4100 C   0  0  0  0  0  2  0  0  0  0  0  0
  185.7280  178.3550  139.4970 C   0  0  1  0  0  3  0  0  0  0  0  0
  182.2170  177.2540  140.0620 C   0  0  2  0  0  3  0  0  0  0  0  0
  183.7950  178.1360  136.4310 N   0  0  0  0  0  2  0  0  0  0  0  0
  184.6160  179.1000  142.5650 C   0  0  2  0  0  3  0  0  0  0  0  0
  181.7850  176.9030  135.7120 C   0  0  0  0  0  2  0  0  0  0  0  0
  181.1170  179.2730  140.9630 C   0  0  1  0  0  3  0  0  0  0  0  0
  180.9350  177.9590  140.2950 N   0  0  0  0  0  0  0  0  0  0  0  0
  185.5970  179.7390  141.5690 C   0  0  0  0  0  2  0  0  0  0  0  0
  184.6900  178.8460  145.0500 C   0  0  0  0  0  3  0  0  0  0  0  0
  185.2990  178.6290  143.8100 C   0  0  0  0  0  0  0  0  0  0  0  0
  186.5420  177.9810  143.7510 C   0  0  0  0  0  3  0  0  0  0  0  0
  188.7150  176.7430  144.8490 Cl  0  0  0  0  0  0  0  0  0  0  0  0
  186.5510  177.7690  146.1630 C   0  0  0  0  0  3  0  0  0  0  0  0
  187.1650  177.5510  144.9270 C   0  0  0  0  0  0  0  0  0  0  0  0
  185.3130  178.4160  146.2250 C   0  0  0  0  0  3  0  0  0  0  0  0
  179.6870  180.8840  142.0200 O   0  0  0  0  0  1  0  0  0  0  0  0
  179.9170  180.2100  140.8200 C   0  0  1  0  0  3  0  0  0  0  0  0
  180.1140  181.1300  139.7870 O   0  0  0  0  0  0  0  0  0  0  0  0
  179.0230  181.9970  139.8690 C   0  0  0  0  0  1  0  0  0  0  0  0
  180.0960  177.0930  141.1310 C   0  0  0  0  0  2  0  0  0  0  0  0
  178.9350  176.4730  140.3560 C   0  0  2  0  0  3  0  0  0  0  0  0
  178.9330  174.9660  140.4910 C   0  0  0  0  0  1  0  0  0  0  0  0
  178.9610  176.8350  139.0070 O   0  0  0  0  0  1  0  0  0  0  0  0
  1 19  1  0  0  0  0
  1 17  1  0  0  0  0
  2  5  1  0  0  0  0
  4  8  1  0  0  0  0
  4  6  1  0  0  0  0
  5  7  1  0  0  0  0
  6  9  1  0  0  0  0
  6  2  1  0  0  0  0
  7 18  1  0  0  0  0
  7  3  1  0  0  0  0
  8 12  1  0  0  0  0
  9 16  1  0  0  0  0
 10 13  1  0  0  0  0
 11 22  1  0  0  0  0
 12 15  1  0  0  0  0
 13  9  1  0  0  0  0
 14  3  1  0  0  0  0
 15  2  1  0  0  0  0
 15 11  1  0  0  0  0
 16 21  1  0  0  0  0
 16  5  1  0  0  0  0
 17  4  1  0  0  0  0
 18 24  1  0  0  0  0
 19 10  1  0  0  0  0
 20 14  1  0  0  0  0
 21 20  1  0  0  0  0
 21 34  1  0  0  0  0
 22 18  1  0  0  0  0
 23 29  1  0  0  0  0
 24 23  2  0  0  0  0
 25 24  1  0  0  0  0
 25 28  2  0  0  0  0
 26 28  1  0  0  0  0
 27 29  2  0  0  0  0
 28 27  1  0  0  0  0
 31 20  1  0  0  0  0
 31 30  1  0  0  0  0
 32 33  1  0  0  0  0
 32 31  1  0  0  0  0
 35 36  1  0  0  0  0
 35 34  1  0  0  0  0
 37 35  1  0  0  0  0
M  END
>  <MODEL>
4

>  <REMARK>
 VINA RESULT:      -5.4      2.932      4.523
  Name = 
  5 active torsions:
  status: ('A' for Active; 'I' for Inactive)
    1  A    between atoms: C_1  and  C_5
    2  A    between atoms: C_1  and  N_36
    3  A    between atoms: C_6  and  C_31
    4  A    between atoms: O_11  and  C_26
    5  A    between atoms: C_26  and  C_33
                            x       y       z     vdW  Elec       q    Type
                         _______ _______ _______ _____ _____    ______ ____

>  <TORSDO>
F 5

$$$$
=
 OpenBabel10262422543D

 37 42  0  0  1  0  0  0  0  0999 V2000
  181.4060  171.0070  135.4080 C   0  0  0  0  0  2  0  0  0  0  0  0
  184.5670  174.1180  136.9330 C   0  0  1  0  0  3  0  0  0  0  0  0
  183.7950  177.7030  137.6430 O   0  0  0  0  0  0  0  0  0  0  0  0
  183.4760  171.8410  136.1620 C   0  0  2  0  0  3  0  0  0  0  0  0
  183.8450  175.4290  136.7240 C   0  0  2  0  0  3  0  0  0  0  0  0
  183.4570  173.0690  137.1150 C   0  0  2  0  0  3  0  0  0  0  0  0
  184.6350  176.6340  137.2450 C   0  0  1  0  0  3  0  0  0  0  0  0
  184.8380  171.4480  135.5630 C   0  0  0  0  0  2  0  0  0  0  0  0
  182.1320  173.8380  137.0930 C   0  0  1  0  0  3  0  0  0  0  0  0
  180.7300  171.8080  137.6890 C   0  0  0  0  0  2  0  0  0  0  0  0
  186.7040  174.7720  135.8130 C   0  0  0  0  0  2  0  0  0  0  0  0
  185.9840  172.3960  135.9010 C   0  0  0  0  0  2  0  0  0  0  0  0
  181.1060  173.2460  138.0490 C   0  0  0  0  0  2  0  0  0  0  0  0
  183.0590  178.1960  136.5370 C   0  0  0  0  0  2  0  0  0  0  0  0
  185.5120  173.8280  135.7750 C   0  0  1  0  0  3  0  0  0  0  0  0
  182.5060  175.2660  137.4370 C   0  0  2  0  0  3  0  0  0  0  0  0
  182.4790  171.9480  135.1030 N   0  0  0  0  0  2  0  0  0  0  0  0
  185.7950  177.1140  136.3440 C   0  0  2  0  0  3  0  0  0  0  0  0
  180.3040  171.6700  136.2310 C   0  0  0  0  0  2  0  0  0  0  0  0
  181.9570  177.2260  136.0390 C   0  0  1  0  0  3  0  0  0  0  0  0
  181.4640  176.2370  137.0320 N   0  0  0  0  0  0  0  0  0  0  0  0
  186.3030  176.1400  135.2680 C   0  0  0  0  0  2  0  0  0  0  0  0
  188.0120  178.2580  136.4840 C   0  0  0  0  0  3  0  0  0  0  0  0
  186.9130  177.7030  137.1460 C   0  0  0  0  0  0  0  0  0  0  0  0
  186.8750  177.7010  138.5480 C   0  0  0  0  0  3  0  0  0  0  0  0
  187.8790  178.2500  141.0280 Cl  0  0  0  0  0  0  0  0  0  0  0  0
  189.0270  178.8090  138.6130 C   0  0  0  0  0  3  0  0  0  0  0  0
  187.9300  178.2550  139.2790 C   0  0  0  0  0  0  0  0  0  0  0  0
  189.0680  178.8110  137.2150 C   0  0  0  0  0  3  0  0  0  0  0  0
  179.8330  177.0350  134.9390 O   0  0  0  0  0  1  0  0  0  0  0  0
  180.8420  177.9400  135.2730 C   0  0  1  0  0  3  0  0  0  0  0  0
  180.3100  178.9930  136.0190 O   0  0  0  0  0  0  0  0  0  0  0  0
  178.9460  178.9840  135.7270 C   0  0  0  0  0  1  0  0  0  0  0  0
  181.0120  176.9340  138.2400 C   0  0  0  0  0  2  0  0  0  0  0  0
  179.5680  176.5970  138.6090 C   0  0  2  0  0  3  0  0  0  0  0  0
  179.4920  175.9510  139.9750 C   0  0  0  0  0  1  0  0  0  0  0  0
  178.9690  175.7730  137.6530 O   0  0  0  0  0  1  0  0  0  0  0  0
  1 19  1  0  0  0  0
  2  6  1  0  0  0  0
  4  6  1  0  0  0  0
  5  2  1  0  0  0  0
  5  7  1  0  0  0  0
  5 16  1  0  0  0  0
  7  3  1  0  0  0  0
  8 12  1  0  0  0  0
  8  4  1  0  0  0  0
  9  6  1  0  0  0  0
  9 16  1  0  0  0  0
  9 13  1  0  0  0  0
 10 13  1  0  0  0  0
 14  3  1  0  0  0  0
 15 11  1  0  0  0  0
 15 12  1  0  0  0  0
 15  2  1  0  0  0  0
 17  1  1  0  0  0  0
 17  4  1  0  0  0  0
 18 24  1  0  0  0  0
 18  7  1  0  0  0  0
 19 10  1  0  0  0  0
 20 14  1  0  0  0  0
 20 21  1  0  0  0  0
 21 16  1  0  0  0  0
 21 34  1  0  0  0  0
 22 11  1  0  0  0  0
 22 18  1  0  0  0  0
 23 24  2  0  0  0  0
 23 29  1  0  0  0  0
 24 25  1  0  0  0  0
 25 28  2  0  0  0  0
 27 28  1  0  0  0  0
 28 26  1  0  0  0  0
 29 27  2  0  0  0  0
 30 31  1  0  0  0  0
 31 32  1  0  0  0  0
 31 20  1  0  0  0  0
 33 32  1  0  0  0  0
 34 35  1  0  0  0  0
 35 36  1  0  0  0  0
 37 35  1  0  0  0  0
M  END
>  <MODEL>
5

>  <REMARK>
 VINA RESULT:      -4.6      2.266      3.007
  Name = 
  5 active torsions:
  status: ('A' for Active; 'I' for Inactive)
    1  A    between atoms: C_1  and  C_5
    2  A    between atoms: C_1  and  N_36
    3  A    between atoms: C_6  and  C_31
    4  A    between atoms: O_11  and  C_26
    5  A    between atoms: C_26  and  C_33
                            x       y       z     vdW  Elec       q    Type
                         _______ _______ _______ _____ _____    ______ ____

>  <TORSDO>
F 5

$$$$
=
 OpenBabel10262422543D

 37 42  0  0  1  0  0  0  0  0999 V2000
  187.8830  177.8760  134.9430 C   0  0  0  0  0  2  0  0  0  0  0  0
  187.0860  177.5510  139.5530 C   0  0  1  0  0  3  0  0  0  0  0  0
  183.7560  178.1390  141.1430 O   0  0  0  0  0  0  0  0  0  0  0  0
  188.3210  177.4710  137.2210 C   0  0  2  0  0  3  0  0  0  0  0  0
  185.7280  178.2030  139.6850 C   0  0  2  0  0  3  0  0  0  0  0  0
  187.1360  177.0080  138.1140 C   0  0  2  0  0  3  0  0  0  0  0  0
  185.1730  178.1400  141.1120 C   0  0  1  0  0  3  0  0  0  0  0  0
  189.6100  177.9010  137.9460 C   0  0  0  0  0  2  0  0  0  0  0  0
  185.7620  177.2930  137.5010 C   0  0  1  0  0  3  0  0  0  0  0  0
  186.2490  176.0170  135.3610 C   0  0  0  0  0  2  0  0  0  0  0  0
  188.2130  178.8390  141.3750 C   0  0  0  0  0  2  0  0  0  0  0  0
  189.5130  177.9210  139.4680 C   0  0  0  0  0  2  0  0  0  0  0  0
  185.3120  176.1850  136.5570 C   0  0  0  0  0  2  0  0  0  0  0  0
  183.2450  179.3440  140.6020 C   0  0  0  0  0  2  0  0  0  0  0  0
  188.1960  178.5380  139.8840 C   0  0  1  0  0  3  0  0  0  0  0  0
  184.8360  177.4720  138.6860 C   0  0  2  0  0  3  0  0  0  0  0  0
  187.9240  178.4960  136.2630 N   0  0  0  0  0  2  0  0  0  0  0  0
  185.7730  179.1580  142.1080 C   0  0  2  0  0  3  0  0  0  0  0  0
  186.4920  177.3330  134.6280 C   0  0  0  0  0  2  0  0  0  0  0  0
  183.4290  179.4650  139.0670 C   0  0  1  0  0  3  0  0  0  0  0  0
  183.5900  178.1870  138.3280 N   0  0  0  0  0  0  0  0  0  0  0  0
  187.1020  179.8260  141.7200 C   0  0  0  0  0  2  0  0  0  0  0  0
  184.6560  178.7330  144.3030 C   0  0  0  0  0  3  0  0  0  0  0  0
  185.7980  178.6170  143.5030 C   0  0  0  0  0  0  0  0  0  0  0  0
  186.9480  178.0040  144.0210 C   0  0  0  0  0  3  0  0  0  0  0  0
  188.3890  176.7450  145.9690 Cl  0  0  0  0  0  0  0  0  0  0  0  0
  185.8080  177.6250  146.1220 C   0  0  0  0  0  3  0  0  0  0  0  0
  186.9520  177.5080  145.3280 C   0  0  0  0  0  0  0  0  0  0  0  0
  184.6590  178.2370  145.6100 C   0  0  0  0  0  3  0  0  0  0  0  0
  181.1350  180.1380  138.8610 O   0  0  0  0  0  1  0  0  0  0  0  0
  182.4290  180.4280  138.4260 C   0  0  1  0  0  3  0  0  0  0  0  0
  182.7440  181.7560  138.7220 O   0  0  0  0  0  0  0  0  0  0  0  0
  181.6170  182.4850  138.3390 C   0  0  0  0  0  1  0  0  0  0  0  0
  182.4630  177.2980  138.6300 C   0  0  0  0  0  2  0  0  0  0  0  0
  181.6560  176.9270  137.3870 C   0  0  2  0  0  3  0  0  0  0  0  0
  181.7190  175.4400  137.1200 C   0  0  0  0  0  1  0  0  0  0  0  0
  182.0820  177.6370  136.2630 O   0  0  0  0  0  1  0  0  0  0  0  0
  1 17  1  0  0  0  0
  2  5  1  0  0  0  0
  2 15  1  0  0  0  0
  4  8  1  0  0  0  0
  4  6  1  0  0  0  0
  5  7  1  0  0  0  0
  6  2  1  0  0  0  0
  7  3  1  0  0  0  0
  7 18  1  0  0  0  0
  8 12  1  0  0  0  0
  9  6  1  0  0  0  0
  9 16  1  0  0  0  0
 10 13  1  0  0  0  0
 11 22  1  0  0  0  0
 12 15  1  0  0  0  0
 13  9  1  0  0  0  0
 14  3  1  0  0  0  0
 15 11  1  0  0  0  0
 16  5  1  0  0  0  0
 17  4  1  0  0  0  0
 18 24  1  0  0  0  0
 19  1  1  0  0  0  0
 19 10  1  0  0  0  0
 20 14  1  0  0  0  0
 21 34  1  0  0  0  0
 21 16  1  0  0  0  0
 21 20  1  0  0  0  0
 22 18  1  0  0  0  0
 23 29  1  0  0  0  0
 24 25  1  0  0  0  0
 24 23  2  0  0  0  0
 25 28  2  0  0  0  0
 28 26  1  0  0  0  0
 28 27  1  0  0  0  0
 29 27  2  0  0  0  0
 31 32  1  0  0  0  0
 31 30  1  0  0  0  0
 31 20  1  0  0  0  0
 33 32  1  0  0  0  0
 35 34  1  0  0  0  0
 36 35  1  0  0  0  0
 37 35  1  0  0  0  0
M  END
>  <MODEL>
6

>  <REMARK>
 VINA RESULT:      -4.5      2.892      5.617
  Name = 
  5 active torsions:
  status: ('A' for Active; 'I' for Inactive)
    1  A    between atoms: C_1  and  C_5
    2  A    between atoms: C_1  and  N_36
    3  A    between atoms: C_6  and  C_31
    4  A    between atoms: O_11  and  C_26
    5  A    between atoms: C_26  and  C_33
                            x       y       z     vdW  Elec       q    Type
                         _______ _______ _______ _____ _____    ______ ____

>  <TORSDO>
F 5

$$$$
=
 OpenBabel10262422543D

 37 42  0  0  1  0  0  0  0  0999 V2000
  189.7230  177.7160  138.3170 C   0  0  0  0  0  2  0  0  0  0  0  0
  186.2210  175.1150  136.5940 C   0  0  1  0  0  3  0  0  0  0  0  0
  182.6020  175.8370  137.1750 O   0  0  0  0  0  0  0  0  0  0  0  0
  188.6540  176.0100  137.0950 C   0  0  2  0  0  3  0  0  0  0  0  0
  185.0360  175.6160  137.3870 C   0  0  2  0  0  3  0  0  0  0  0  0
  187.2170  176.2870  136.5700 C   0  0  2  0  0  3  0  0  0  0  0  0
  183.7120  174.9870  136.9430 C   0  0  1  0  0  3  0  0  0  0  0  0
  189.1500  174.5540  137.0240 C   0  0  0  0  0  2  0  0  0  0  0  0
  186.5230  177.4540  137.2790 C   0  0  1  0  0  3  0  0  0  0  0  0
  188.3630  179.1180  136.7390 C   0  0  0  0  0  2  0  0  0  0  0  0
  185.8230  172.6760  136.9730 C   0  0  0  0  0  2  0  0  0  0  0  0
  188.1110  173.5460  136.5450 C   0  0  0  0  0  2  0  0  0  0  0  0
  186.8710  178.7980  136.6510 C   0  0  0  0  0  2  0  0  0  0  0  0
  182.4450  176.0820  138.5610 C   0  0  0  0  0  2  0  0  0  0  0  0
  186.7800  173.8370  137.2030 C   0  0  1  0  0  3  0  0  0  0  0  0
  185.0450  177.1310  137.2030 C   0  0  2  0  0  3  0  0  0  0  0  0
  188.8650  176.5420  138.4370 N   0  0  0  0  0  2  0  0  0  0  0  0
  183.4540  173.5480  137.4420 C   0  0  2  0  0  3  0  0  0  0  0  0
  188.8990  178.9920  138.1620 C   0  0  0  0  0  2  0  0  0  0  0  0
  183.5470  176.9930  139.1620 C   0  0  1  0  0  3  0  0  0  0  0  0
  184.2500  177.8820  138.2020 N   0  0  0  0  0  0  0  0  0  0  0  0
  184.6640  172.7540  137.9620 C   0  0  0  0  0  2  0  0  0  0  0  0
  183.2030  171.6420  135.8450 C   0  0  0  0  0  3  0  0  0  0  0  0
  182.6380  172.7600  136.4660 C   0  0  0  0  0  0  0  0  0  0  0  0
  181.3190  173.1300  136.1620 C   0  0  0  0  0  3  0  0  0  0  0  0
  178.9310  172.8480  134.8690 Cl  0  0  0  0  0  0  0  0  0  0  0  0
  181.1440  171.2650  134.6280 C   0  0  0  0  0  3  0  0  0  0  0  0
  180.5740  172.3830  135.2450 C   0  0  0  0  0  0  0  0  0  0  0  0
  182.4580  170.8950  134.9280 C   0  0  0  0  0  3  0  0  0  0  0  0
  181.8400  177.2370  140.8300 O   0  0  0  0  0  1  0  0  0  0  0  0
  183.0990  177.6990  140.4430 C   0  0  1  0  0  3  0  0  0  0  0  0
  184.0170  177.5020  141.4760 O   0  0  0  0  0  0  0  0  0  0  0  0
  184.6610  178.7310  141.6200 C   0  0  0  0  0  1  0  0  0  0  0  0
  183.2700  178.6930  137.4720 C   0  0  0  0  0  2  0  0  0  0  0  0
  182.6390  179.7780  138.3420 C   0  0  2  0  0  3  0  0  0  0  0  0
  181.4670  180.4280  137.6390 C   0  0  0  0  0  1  0  0  0  0  0  0
  183.5710  180.7470  138.7190 O   0  0  0  0  0  1  0  0  0  0  0  0
  1 17  1  0  0  0  0
  2 15  1  0  0  0  0
  2  5  1  0  0  0  0
  3 14  1  0  0  0  0
  4 17  1  0  0  0  0
  6  2  1  0  0  0  0
  6  4  1  0  0  0  0
  6  9  1  0  0  0  0
  7  3  1  0  0  0  0
  7  5  1  0  0  0  0
  7 18  1  0  0  0  0
  8  4  1  0  0  0  0
 10 19  1  0  0  0  0
 11 15  1  0  0  0  0
 11 22  1  0  0  0  0
 12  8  1  0  0  0  0
 12 15  1  0  0  0  0
 13 10  1  0  0  0  0
 13  9  1  0  0  0  0
 14 20  1  0  0  0  0
 16  9  1  0  0  0  0
 16  5  1  0  0  0  0
 16 21  1  0  0  0  0
 18 22  1  0  0  0  0
 19  1  1  0  0  0  0
 20 31  1  0  0  0  0
 21 20  1  0  0  0  0
 23 24  1  0  0  0  0
 24 18  1  0  0  0  0
 25 24  2  0  0  0  0
 26 28  1  0  0  0  0
 27 29  1  0  0  0  0
 27 28  2  0  0  0  0
 28 25  1  0  0  0  0
 29 23  2  0  0  0  0
 31 30  1  0  0  0  0
 31 32  1  0  0  0  0
 32 33  1  0  0  0  0
 34 21  1  0  0  0  0
 34 35  1  0  0  0  0
 35 37  1  0  0  0  0
 36 35  1  0  0  0  0
M  END
>  <MODEL>
7

>  <REMARK>
 VINA RESULT:      -4.1      3.240      6.870
  Name = 
  5 active torsions:
  status: ('A' for Active; 'I' for Inactive)
    1  A    between atoms: C_1  and  C_5
    2  A    between atoms: C_1  and  N_36
    3  A    between atoms: C_6  and  C_31
    4  A    between atoms: O_11  and  C_26
    5  A    between atoms: C_26  and  C_33
                            x       y       z     vdW  Elec       q    Type
                         _______ _______ _______ _____ _____    ______ ____

>  <TORSDO>
F 5

$$$$
=
 OpenBabel10262422543D

 37 42  0  0  1  0  0  0  0  0999 V2000
  184.5610  180.0090  144.6880 C   0  0  0  0  0  2  0  0  0  0  0  0
  187.0380  177.5710  141.5380 C   0  0  1  0  0  3  0  0  0  0  0  0
  190.5560  176.4330  142.0760 O   0  0  0  0  0  0  0  0  0  0  0  0
  185.0340  178.8390  142.6990 C   0  0  2  0  0  3  0  0  0  0  0  0
  188.4420  177.6770  142.0900 C   0  0  2  0  0  3  0  0  0  0  0  0
  186.1110  177.7190  142.7570 C   0  0  2  0  0  3  0  0  0  0  0  0
  189.4610  176.8650  141.2860 C   0  0  1  0  0  3  0  0  0  0  0  0
  184.5720  179.2850  141.3000 C   0  0  0  0  0  2  0  0  0  0  0  0
  187.0270  177.8160  143.9820 C   0  0  1  0  0  3  0  0  0  0  0  0
  185.1110  177.7550  145.6470 C   0  0  0  0  0  2  0  0  0  0  0  0
  187.5880  178.2500  139.1960 C   0  0  0  0  0  2  0  0  0  0  0  0
  185.3230  178.6390  140.1410 C   0  0  0  0  0  2  0  0  0  0  0  0
  186.4310  177.1240  145.2020 C   0  0  0  0  0  2  0  0  0  0  0  0
  191.2810  177.5440  142.5720 C   0  0  0  0  0  2  0  0  0  0  0  0
  186.8040  178.6080  140.4500 C   0  0  1  0  0  3  0  0  0  0  0  0
  188.3380  177.2020  143.5370 C   0  0  2  0  0  3  0  0  0  0  0  0
  185.4040  180.0030  143.4960 N   0  0  0  0  0  2  0  0  0  0  0  0
  189.9230  177.5000  139.9550 C   0  0  2  0  0  3  0  0  0  0  0  0
  185.2280  179.2640  145.8410 C   0  0  0  0  0  2  0  0  0  0  0  0
  190.5240  178.3430  143.6650 C   0  0  1  0  0  3  0  0  0  0  0  0
  189.4710  177.6000  144.4030 N   0  0  0  0  0  0  0  0  0  0  0  0
  189.0550  178.6280  139.3730 C   0  0  0  0  0  2  0  0  0  0  0  0
  189.2340  175.8840  138.1780 C   0  0  0  0  0  3  0  0  0  0  0  0
  190.2600  176.4610  138.9320 C   0  0  0  0  0  0  0  0  0  0  0  0
  191.5860  176.0530  138.7260 C   0  0  0  0  0  3  0  0  0  0  0  0
  193.5350  174.5740  137.5130 Cl  0  0  0  0  0  0  0  0  0  0  0  0
  190.8500  174.5070  137.0140 C   0  0  0  0  0  3  0  0  0  0  0  0
  191.8790  175.0790  137.7670 C   0  0  0  0  0  0  0  0  0  0  0  0
  189.5270  174.9100  137.2190 C   0  0  0  0  0  3  0  0  0  0  0  0
  192.7890  178.7790  144.3280 O   0  0  0  0  0  1  0  0  0  0  0  0
  191.4640  179.1450  144.5680 C   0  0  1  0  0  3  0  0  0  0  0  0
  191.3050  180.5180  144.3700 O   0  0  0  0  0  0  0  0  0  0  0  0
  190.3420  180.6260  143.3670 C   0  0  0  0  0  1  0  0  0  0  0  0
  190.0420  176.3780  144.9780 C   0  0  0  0  0  2  0  0  0  0  0  0
  190.2470  176.4780  146.4890 C   0  0  2  0  0  3  0  0  0  0  0  0
  189.3650  177.5510  147.0890 C   0  0  0  0  0  1  0  0  0  0  0  0
  191.5840  176.7170  146.8150 O   0  0  0  0  0  1  0  0  0  0  0  0
  1 19  1  0  0  0  0
  2  5  1  0  0  0  0
  2  6  1  0  0  0  0
  3 14  1  0  0  0  0
  4  6  1  0  0  0  0
  4 17  1  0  0  0  0
  5 16  1  0  0  0  0
  6  9  1  0  0  0  0
  7  3  1  0  0  0  0
  7  5  1  0  0  0  0
  8  4  1  0  0  0  0
  9 13  1  0  0  0  0
 10 19  1  0  0  0  0
 11 22  1  0  0  0  0
 11 15  1  0  0  0  0
 12 15  1  0  0  0  0
 12  8  1  0  0  0  0
 13 10  1  0  0  0  0
 14 20  1  0  0  0  0
 15  2  1  0  0  0  0
 16  9  1  0  0  0  0
 16 21  1  0  0  0  0
 17  1  1  0  0  0  0
 18  7  1  0  0  0  0
 20 21  1  0  0  0  0
 20 31  1  0  0  0  0
 21 34  1  0  0  0  0
 22 18  1  0  0  0  0
 23 24  1  0  0  0  0
 24 18  1  0  0  0  0
 25 24  2  0  0  0  0
 26 28  1  0  0  0  0
 27 29  1  0  0  0  0
 27 28  2  0  0  0  0
 28 25  1  0  0  0  0
 29 23  2  0  0  0  0
 30 31  1  0  0  0  0
 32 31  1  0  0  0  0
 33 32  1  0  0  0  0
 34 35  1  0  0  0  0
 35 37  1  0  0  0  0
 35 36  1  0  0  0  0
M  END
>  <MODEL>
8

>  <REMARK>
 VINA RESULT:      -4.1      5.673      8.261
  Name = 
  5 active torsions:
  status: ('A' for Active; 'I' for Inactive)
    1  A    between atoms: C_1  and  C_5
    2  A    between atoms: C_1  and  N_36
    3  A    between atoms: C_6  and  C_31
    4  A    between atoms: O_11  and  C_26
    5  A    between atoms: C_26  and  C_33
                            x       y       z     vdW  Elec       q    Type
                         _______ _______ _______ _____ _____    ______ ____

>  <TORSDO>
F 5

$$$$
=
 OpenBabel10262422543D

 37 42  0  0  1  0  0  0  0  0999 V2000
  189.8360  174.7390  137.1310 C   0  0  0  0  0  2  0  0  0  0  0  0
  186.2580  177.6950  137.8070 C   0  0  1  0  0  3  0  0  0  0  0  0
  185.5300  179.3830  141.0590 O   0  0  0  0  0  0  0  0  0  0  0  0
  187.9540  176.0590  136.6170 C   0  0  2  0  0  3  0  0  0  0  0  0
  186.2170  177.8020  139.3140 C   0  0  2  0  0  3  0  0  0  0  0  0
  187.7150  177.3400  137.4650 C   0  0  2  0  0  3  0  0  0  0  0  0
  185.1760  178.8090  139.8130 C   0  0  1  0  0  3  0  0  0  0  0  0
  186.7980  175.6030  135.7070 C   0  0  0  0  0  2  0  0  0  0  0  0
  188.4800  177.3450  138.7920 C   0  0  1  0  0  3  0  0  0  0  0  0
  190.7460  177.0090  137.6980 C   0  0  0  0  0  2  0  0  0  0  0  0
  183.8250  177.2220  137.4770 C   0  0  0  0  0  2  0  0  0  0  0  0
  185.5160  176.4170  135.8440 C   0  0  0  0  0  2  0  0  0  0  0  0
  189.9010  177.8720  138.6350 C   0  0  0  0  0  2  0  0  0  0  0  0
  185.5910  178.3890  142.0660 C   0  0  0  0  0  2  0  0  0  0  0  0
  185.2370  176.6820  137.3070 C   0  0  1  0  0  3  0  0  0  0  0  0
  187.6360  178.1890  139.7240 C   0  0  2  0  0  3  0  0  0  0  0  0
  188.4210  174.9390  137.4260 N   0  0  0  0  0  2  0  0  0  0  0  0
  183.7110  178.3200  139.7950 C   0  0  2  0  0  3  0  0  0  0  0  0
  190.7190  175.5340  138.0880 C   0  0  0  0  0  2  0  0  0  0  0  0
  186.7980  177.4270  141.9190 C   0  0  1  0  0  3  0  0  0  0  0  0
  187.9560  177.9490  141.1500 N   0  0  0  0  0  0  0  0  0  0  0  0
  183.3880  177.0890  138.9330 C   0  0  0  0  0  2  0  0  0  0  0  0
  183.1340  180.5030  138.7250 C   0  0  0  0  0  3  0  0  0  0  0  0
  182.7540  179.4450  139.5560 C   0  0  0  0  0  0  0  0  0  0  0  0
  181.4860  179.4560  140.1570 C   0  0  0  0  0  3  0  0  0  0  0  0
  179.0280  180.5280  140.6750 Cl  0  0  0  0  0  0  0  0  0  0  0  0
  180.9930  181.5730  139.0900 C   0  0  0  0  0  3  0  0  0  0  0  0
  180.6080  180.5180  139.9230 C   0  0  0  0  0  0  0  0  0  0  0  0
  182.2560  181.5650  138.4900 C   0  0  0  0  0  3  0  0  0  0  0  0
  188.4030  176.0920  143.1010 O   0  0  0  0  0  1  0  0  0  0  0  0
  187.1830  176.7560  143.2380 C   0  0  1  0  0  3  0  0  0  0  0  0
  187.2630  177.6880  144.2750 O   0  0  0  0  0  0  0  0  0  0  0  0
  188.1550  177.1290  145.1900 C   0  0  0  0  0  1  0  0  0  0  0  0
  188.3970  179.2240  141.7270 C   0  0  0  0  0  2  0  0  0  0  0  0
  189.8290  179.1670  142.2550 C   0  0  2  0  0  3  0  0  0  0  0  0
  190.4980  177.8640  141.8780 C   0  0  0  0  0  1  0  0  0  0  0  0
  189.8780  179.3490  143.6390 O   0  0  0  0  0  1  0  0  0  0  0  0
  1 17  1  0  0  0  0
  1 19  1  0  0  0  0
  2  5  1  0  0  0  0
  3 14  1  0  0  0  0
  4 17  1  0  0  0  0
  4  6  1  0  0  0  0
  5 16  1  0  0  0  0
  5  7  1  0  0  0  0
  6  2  1  0  0  0  0
  6  9  1  0  0  0  0
  7  3  1  0  0  0  0
  8 12  1  0  0  0  0
  8  4  1  0  0  0  0
  9 16  1  0  0  0  0
 10 19  1  0  0  0  0
 10 13  1  0  0  0  0
 11 22  1  0  0  0  0
 12 15  1  0  0  0  0
 13  9  1  0  0  0  0
 15 11  1  0  0  0  0
 15  2  1  0  0  0  0
 16 21  1  0  0  0  0
 18  7  1  0  0  0  0
 20 14  1  0  0  0  0
 20 31  1  0  0  0  0
 21 34  1  0  0  0  0
 21 20  1  0  0  0  0
 22 18  1  0  0  0  0
 23 24  1  0  0  0  0
 24 18  1  0  0  0  0
 24 25  2  0  0  0  0
 27 28  2  0  0  0  0
 28 25  1  0  0  0  0
 28 26  1  0  0  0  0
 29 23  2  0  0  0  0
 29 27  1  0  0  0  0
 30 31  1  0  0  0  0
 31 32  1  0  0  0  0
 32 33  1  0  0  0  0
 34 35  1  0  0  0  0
 35 37  1  0  0  0  0
 36 35  1  0  0  0  0
M  END
>  <MODEL>
9

>  <REMARK>
 VINA RESULT:      -4.0      3.554      7.459
  Name = 
  5 active torsions:
  status: ('A' for Active; 'I' for Inactive)
    1  A    between atoms: C_1  and  C_5
    2  A    between atoms: C_1  and  N_36
    3  A    between atoms: C_6  and  C_31
    4  A    between atoms: O_11  and  C_26
    5  A    between atoms: C_26  and  C_33
                            x       y       z     vdW  Elec       q    Type
                         _______ _______ _______ _____ _____    ______ ____

>  <TORSDO>
F 5

$$$$
