=
 OpenBabel10262421063D

 32 34  0  0  1  0  0  0  0  0999 V2000
  185.3190  179.2570  143.5930 C   0  0  1  0  0  3  0  0  0  0  0  0
  186.5190  177.1620  143.8650 O   0  0  0  0  0  0  0  0  0  0  0  0
  183.9440  178.6690  143.9490 C   0  0  0  0  0  2  0  0  0  0  0  0
  186.4800  178.5280  144.2800 C   0  0  2  0  0  3  0  0  0  0  0  0
  189.3810  176.9550  145.5440 C   0  0  0  0  0  2  0  0  0  0  0  0
  186.3180  178.6450  145.8090 C   0  0  2  0  0  3  0  0  0  0  0  0
  189.0600  176.9770  144.0460 C   0  0  1  0  0  3  0  0  0  0  0  0
  187.2390  177.7120  146.5840 C   0  0  0  0  0  2  0  0  0  0  0  0
  184.8670  178.5060  146.3030 C   0  0  0  0  0  2  0  0  0  0  0  0
  187.6990  176.4190  143.7330 C   0  0  0  0  0  0  0  0  0  0  0  0
  188.6970  178.0700  146.3270 C   0  0  1  0  0  3  0  0  0  0  0  0
  183.9460  177.8730  145.2590 C   0  0  0  0  0  2  0  0  0  0  0  0
  187.6190  175.2250  143.3470 O   0  0  0  0  0  0  0  0  0  0  0  0
  184.4760  178.8990  141.2320 N   0  0  0  0  0  2  0  0  0  0  0  0
  186.5540  179.8790  141.6580 O   0  0  0  0  0  0  0  0  0  0  0  0
  185.4990  179.3630  142.1150 C   0  0  0  0  0  0  0  0  0  0  0  0
  186.0320  178.6070  139.0960 O   0  0  0  0  0  0  0  0  0  0  0  0
  184.6250  178.9500  139.5090 S   0  0  0  0  0  0  0  0  0  0  0  0
  184.2770  180.3310  139.0240 O   0  0  0  0  0  0  0  0  0  0  0  0
  182.8850  176.8460  139.6550 C   0  0  0  0  0  3  0  0  0  0  0  0
  183.5220  177.7720  138.8200 C   0  0  0  0  0  0  0  0  0  0  0  0
  181.9960  175.9110  139.1140 C   0  0  0  0  0  3  0  0  0  0  0  0
  182.3790  176.8250  136.9040 C   0  0  0  0  0  3  0  0  0  0  0  0
  183.2700  177.7580  137.4430 C   0  0  0  0  0  3  0  0  0  0  0  0
  181.7410  175.9020  137.7400 C   0  0  0  0  0  3  0  0  0  0  0  0
  189.4230  178.2690  147.6450 C   0  0  0  0  0  2  0  0  0  0  0  0
  188.4550  178.1350  148.8030 C   0  0  0  0  0  1  0  0  0  0  0  0
  189.2480  178.2470  143.4930 O   0  0  0  0  0  0  0  0  0  0  0  0
  189.6980  178.0070  142.1920 C   0  0  0  0  0  2  0  0  0  0  0  0
  191.1070  177.4330  142.2100 C   0  0  0  0  0  2  0  0  0  0  0  0
  190.6880  177.1150  139.7770 C   0  0  0  0  0  1  0  0  0  0  0  0
  191.7320  177.4570  140.8240 C   0  0  0  0  0  2  0  0  0  0  0  0
  1 16  1  6  0  0  0
  1  3  1  0  0  0  0
  1  4  1  0  0  0  0
  3 12  1  0  0  0  0
  4  2  1  1  0  0  0
  4  6  1  0  0  0  0
  5 11  1  0  0  0  0
  6  9  1  6  0  0  0
  6  8  1  0  0  0  0
  7 28  1  1  0  0  0
  7  5  1  0  0  0  0
 10  2  1  0  0  0  0
 10  7  1  0  0  0  0
 11  8  1  0  0  0  0
 11 26  1  1  0  0  0
 12  9  1  0  0  0  0
 13 10  2  0  0  0  0
 14 16  1  0  0  0  0
 15 16  2  0  0  0  0
 17 18  2  0  0  0  0
 18 14  1  0  0  0  0
 19 18  2  0  0  0  0
 21 18  1  0  0  0  0
 21 20  2  0  0  0  0
 22 20  1  0  0  0  0
 23 24  2  0  0  0  0
 23 25  1  0  0  0  0
 24 21  1  0  0  0  0
 25 22  2  0  0  0  0
 26 27  1  0  0  0  0
 29 30  1  0  0  0  0
 29 28  1  0  0  0  0
 31 32  1  0  0  0  0
 32 30  1  0  0  0  0
M  END
>  <MODEL>
1

>  <REMARK>
 VINA RESULT:      -7.3      0.000      0.000
  Name = 
  8 active torsions:
  status: ('A' for Active; 'I' for Inactive)
    1  A    between atoms: C_1  and  C_27
    2  A    between atoms: C_7  and  S_22
    3  A    between atoms: C_9  and  C_12
    4  A    between atoms: C_9  and  C_31
    5  A    between atoms: O_10  and  C_12
    6  A    between atoms: O_10  and  C_17
    7  A    between atoms: C_13  and  C_29
    8  A    between atoms: N_16  and  S_22
                            x       y       z     vdW  Elec       q    Type
                         _______ _______ _______ _____ _____    ______ ____

>  <TORSDO>
F 8

$$$$
=
 OpenBabel10262421063D

 32 34  0  0  1  0  0  0  0  0999 V2000
  188.0240  177.6590  141.3080 C   0  0  1  0  0  3  0  0  0  0  0  0
  189.7560  178.6820  142.6700 O   0  0  0  0  0  0  0  0  0  0  0  0
  188.5360  178.2430  139.9810 C   0  0  0  0  0  2  0  0  0  0  0  0
  189.1380  177.4380  142.3370 C   0  0  2  0  0  3  0  0  0  0  0  0
  191.4250  176.9900  144.9940 C   0  0  0  0  0  2  0  0  0  0  0  0
  190.1640  176.4380  141.7670 C   0  0  2  0  0  3  0  0  0  0  0  0
  190.2790  178.0020  145.0760 C   0  0  1  0  0  3  0  0  0  0  0  0
  191.4560  176.3770  142.5720 C   0  0  0  0  0  2  0  0  0  0  0  0
  190.4680  176.6290  140.2700 C   0  0  0  0  0  2  0  0  0  0  0  0
  190.2820  178.9810  143.9330 C   0  0  0  0  0  0  0  0  0  0  0  0
  191.1790  175.8760  143.9840 C   0  0  1  0  0  3  0  0  0  0  0  0
  190.0320  177.9990  139.7500 C   0  0  0  0  0  2  0  0  0  0  0  0
  190.7920  180.1140  144.1210 O   0  0  0  0  0  0  0  0  0  0  0  0
  186.1460  177.9810  142.9760 N   0  0  0  0  0  2  0  0  0  0  0  0
  186.6010  179.5640  141.3200 O   0  0  0  0  0  0  0  0  0  0  0  0
  186.8880  178.4600  141.8520 C   0  0  0  0  0  0  0  0  0  0  0  0
  185.0930  180.3000  143.7400 O   0  0  0  0  0  0  0  0  0  0  0  0
  184.7910  178.8290  143.6410 S   0  0  0  0  0  0  0  0  0  0  0  0
  184.4880  178.2800  145.0080 O   0  0  0  0  0  0  0  0  0  0  0  0
  182.1370  178.9820  143.0040 C   0  0  0  0  0  3  0  0  0  0  0  0
  183.4140  178.5970  142.5780 C   0  0  0  0  0  0  0  0  0  0  0  0
  181.0360  178.8110  142.1580 C   0  0  0  0  0  3  0  0  0  0  0  0
  182.4850  177.8660  140.4630 C   0  0  0  0  0  3  0  0  0  0  0  0
  183.5860  178.0350  141.3080 C   0  0  0  0  0  3  0  0  0  0  0  0
  181.2100  178.2550  140.8880 C   0  0  0  0  0  3  0  0  0  0  0  0
  192.0870  174.7030  144.3060 C   0  0  0  0  0  2  0  0  0  0  0  0
  192.4280  174.6930  145.7830 C   0  0  0  0  0  1  0  0  0  0  0  0
  189.0390  177.3740  145.2270 O   0  0  0  0  0  0  0  0  0  0  0  0
  188.2370  178.3160  145.8750 C   0  0  0  0  0  2  0  0  0  0  0  0
  187.3650  177.6450  146.9260 C   0  0  0  0  0  2  0  0  0  0  0  0
  189.0680  178.2770  148.6290 C   0  0  0  0  0  1  0  0  0  0  0  0
  188.1970  177.1530  148.1000 C   0  0  0  0  0  2  0  0  0  0  0  0
  1 16  1  1  0  0  0
  1  4  1  0  0  0  0
  2 10  1  0  0  0  0
  3  1  1  0  0  0  0
  4  2  1  6  0  0  0
  5  7  1  0  0  0  0
  6  9  1  6  0  0  0
  6  4  1  0  0  0  0
  6  8  1  0  0  0  0
  7 28  1  6  0  0  0
  8 11  1  0  0  0  0
 10 13  2  0  0  0  0
 10  7  1  0  0  0  0
 11 26  1  1  0  0  0
 11  5  1  0  0  0  0
 12  3  1  0  0  0  0
 12  9  1  0  0  0  0
 14 18  1  0  0  0  0
 15 16  2  0  0  0  0
 16 14  1  0  0  0  0
 18 17  2  0  0  0  0
 18 19  2  0  0  0  0
 21 20  1  0  0  0  0
 21 18  1  0  0  0  0
 22 20  2  0  0  0  0
 23 25  2  0  0  0  0
 23 24  1  0  0  0  0
 24 21  2  0  0  0  0
 25 22  1  0  0  0  0
 26 27  1  0  0  0  0
 28 29  1  0  0  0  0
 29 30  1  0  0  0  0
 30 32  1  0  0  0  0
 32 31  1  0  0  0  0
M  END
>  <MODEL>
2

>  <REMARK>
 VINA RESULT:      -7.3      2.224      5.059
  Name = 
  8 active torsions:
  status: ('A' for Active; 'I' for Inactive)
    1  A    between atoms: C_1  and  C_27
    2  A    between atoms: C_7  and  S_22
    3  A    between atoms: C_9  and  C_12
    4  A    between atoms: C_9  and  C_31
    5  A    between atoms: O_10  and  C_12
    6  A    between atoms: O_10  and  C_17
    7  A    between atoms: C_13  and  C_29
    8  A    between atoms: N_16  and  S_22
                            x       y       z     vdW  Elec       q    Type
                         _______ _______ _______ _____ _____    ______ ____

>  <TORSDO>
F 8

$$$$
=
 OpenBabel10262421063D

 32 34  0  0  1  0  0  0  0  0999 V2000
  184.8390  178.1290  142.8390 C   0  0  1  0  0  3  0  0  0  0  0  0
  184.2140  179.4240  140.8810 O   0  0  0  0  0  0  0  0  0  0  0  0
  184.5970  179.2720  143.8380 C   0  0  0  0  0  2  0  0  0  0  0  0
  183.9460  178.2170  141.5960 C   0  0  2  0  0  3  0  0  0  0  0  0
  182.1840  178.2340  138.5320 C   0  0  0  0  0  2  0  0  0  0  0  0
  182.4670  178.1380  142.0280 C   0  0  2  0  0  3  0  0  0  0  0  0
  183.7040  178.4110  138.5930 C   0  0  1  0  0  3  0  0  0  0  0  0
  181.4960  178.5160  140.9180 C   0  0  0  0  0  2  0  0  0  0  0  0
  182.1430  178.9140  143.3170 C   0  0  0  0  0  2  0  0  0  0  0  0
  184.1250  179.5430  139.4890 C   0  0  0  0  0  0  0  0  0  0  0  0
  181.6070  177.5350  139.7580 C   0  0  1  0  0  3  0  0  0  0  0  0
  183.2230  179.9340  143.6800 C   0  0  0  0  0  2  0  0  0  0  0  0
  184.3960  180.6510  138.9600 O   0  0  0  0  0  0  0  0  0  0  0  0
  187.2110  177.5090  143.4740 N   0  0  0  0  0  2  0  0  0  0  0  0
  186.6800  178.3130  141.3450 O   0  0  0  0  0  0  0  0  0  0  0  0
  186.2870  178.0000  142.5000 C   0  0  0  0  0  0  0  0  0  0  0  0
  189.4410  178.6410  142.5710 O   0  0  0  0  0  0  0  0  0  0  0  0
  188.9090  177.3680  143.1720 S   0  0  0  0  0  0  0  0  0  0  0  0
  189.1490  176.2220  142.2270 O   0  0  0  0  0  0  0  0  0  0  0  0
  191.0810  176.7290  144.7060 C   0  0  0  0  0  3  0  0  0  0  0  0
  189.7230  177.0720  144.6980 C   0  0  0  0  0  0  0  0  0  0  0  0
  191.7380  176.5020  145.9190 C   0  0  0  0  0  3  0  0  0  0  0  0
  189.6830  176.9570  147.1190 C   0  0  0  0  0  3  0  0  0  0  0  0
  189.0250  177.1810  145.9060 C   0  0  0  0  0  3  0  0  0  0  0  0
  191.0410  176.6190  147.1250 C   0  0  0  0  0  3  0  0  0  0  0  0
  180.2360  176.9790  139.4140 C   0  0  0  0  0  2  0  0  0  0  0  0
  179.6450  176.2620  140.6120 C   0  0  0  0  0  1  0  0  0  0  0  0
  184.3550  177.2160  138.9150 O   0  0  0  0  0  0  0  0  0  0  0  0
  184.6360  176.6190  137.6830 C   0  0  0  0  0  2  0  0  0  0  0  0
  185.6230  177.4640  136.8910 C   0  0  0  0  0  2  0  0  0  0  0  0
  187.8570  178.5600  136.9030 C   0  0  0  0  0  1  0  0  0  0  0  0
  186.9740  177.5320  137.5840 C   0  0  0  0  0  2  0  0  0  0  0  0
  1 16  1  6  0  0  0
  1  3  1  0  0  0  0
  4  2  1  1  0  0  0
  4  6  1  0  0  0  0
  4  1  1  0  0  0  0
  5  7  1  0  0  0  0
  5 11  1  0  0  0  0
  6  8  1  6  0  0  0
  6  9  1  0  0  0  0
  7 28  1  1  0  0  0
  7 10  1  0  0  0  0
  9 12  1  0  0  0  0
 10  2  1  0  0  0  0
 11 26  1  6  0  0  0
 11  8  1  0  0  0  0
 12  3  1  0  0  0  0
 13 10  2  0  0  0  0
 15 16  2  0  0  0  0
 16 14  1  0  0  0  0
 17 18  2  0  0  0  0
 18 14  1  0  0  0  0
 18 21  1  0  0  0  0
 19 18  2  0  0  0  0
 20 22  1  0  0  0  0
 21 20  2  0  0  0  0
 21 24  1  0  0  0  0
 22 25  2  0  0  0  0
 23 25  1  0  0  0  0
 24 23  2  0  0  0  0
 26 27  1  0  0  0  0
 29 28  1  0  0  0  0
 30 32  1  0  0  0  0
 30 29  1  0  0  0  0
 31 32  1  0  0  0  0
M  END
>  <MODEL>
3

>  <REMARK>
 VINA RESULT:      -7.1      2.382      7.688
  Name = 
  8 active torsions:
  status: ('A' for Active; 'I' for Inactive)
    1  A    between atoms: C_1  and  C_27
    2  A    between atoms: C_7  and  S_22
    3  A    between atoms: C_9  and  C_12
    4  A    between atoms: C_9  and  C_31
    5  A    between atoms: O_10  and  C_12
    6  A    between atoms: O_10  and  C_17
    7  A    between atoms: C_13  and  C_29
    8  A    between atoms: N_16  and  S_22
                            x       y       z     vdW  Elec       q    Type
                         _______ _______ _______ _____ _____    ______ ____

>  <TORSDO>
F 8

$$$$
=
 OpenBabel10262421063D

 32 34  0  0  1  0  0  0  0  0999 V2000
  185.3980  176.9720  137.3280 C   0  0  1  0  0  3  0  0  0  0  0  0
  187.4810  178.2150  137.1790 O   0  0  0  0  0  0  0  0  0  0  0  0
  184.9530  177.2850  135.8900 C   0  0  0  0  0  2  0  0  0  0  0  0
  186.9220  176.9380  137.4920 C   0  0  2  0  0  3  0  0  0  0  0  0
  190.3740  176.9780  138.2510 C   0  0  0  0  0  2  0  0  0  0  0  0
  187.5050  175.8340  136.5850 C   0  0  2  0  0  3  0  0  0  0  0  0
  189.4030  178.0010  138.8470 C   0  0  1  0  0  3  0  0  0  0  0  0
  189.0190  175.9120  136.4420 C   0  0  0  0  0  2  0  0  0  0  0  0
  186.8340  175.7320  135.2040 C   0  0  0  0  0  2  0  0  0  0  0  0
  188.6200  178.7430  137.7980 C   0  0  0  0  0  0  0  0  0  0  0  0
  189.6930  175.6940  137.7900 C   0  0  1  0  0  3  0  0  0  0  0  0
  186.0320  176.9830  134.8430 C   0  0  0  0  0  2  0  0  0  0  0  0
  189.0190  179.8850  137.4550 O   0  0  0  0  0  0  0  0  0  0  0  0
  183.6410  177.3980  139.1020 N   0  0  0  0  0  2  0  0  0  0  0  0
  185.1530  179.0550  138.4490 O   0  0  0  0  0  0  0  0  0  0  0  0
  184.7330  177.8760  138.3120 C   0  0  0  0  0  0  0  0  0  0  0  0
  181.4300  177.8180  140.5180 O   0  0  0  0  0  0  0  0  0  0  0  0
  182.7920  178.3930  140.2350 S   0  0  0  0  0  0  0  0  0  0  0  0
  182.6480  179.7780  139.6640 O   0  0  0  0  0  0  0  0  0  0  0  0
  183.0680  178.7580  142.9300 C   0  0  0  0  0  3  0  0  0  0  0  0
  183.7140  178.4480  141.7270 C   0  0  0  0  0  0  0  0  0  0  0  0
  183.7930  178.7930  144.1250 C   0  0  0  0  0  3  0  0  0  0  0  0
  185.8110  178.2110  142.9180 C   0  0  0  0  0  3  0  0  0  0  0  0
  185.0870  178.1780  141.7230 C   0  0  0  0  0  3  0  0  0  0  0  0
  185.1640  178.5170  144.1200 C   0  0  0  0  0  3  0  0  0  0  0  0
  190.7320  174.5920  137.6780 C   0  0  0  0  0  2  0  0  0  0  0  0
  192.1280  175.1810  137.7310 C   0  0  0  0  0  1  0  0  0  0  0  0
  188.5720  177.4280  139.8150 O   0  0  0  0  0  0  0  0  0  0  0  0
  189.0300  177.9450  141.0300 C   0  0  0  0  0  2  0  0  0  0  0  0
  189.7150  176.8620  141.8490 C   0  0  0  0  0  2  0  0  0  0  0  0
  189.0860  176.9480  144.2560 C   0  0  0  0  0  1  0  0  0  0  0  0
  188.7850  176.3050  142.9160 C   0  0  0  0  0  2  0  0  0  0  0  0
  1  4  1  0  0  0  0
  1 16  1  1  0  0  0
  2 10  1  0  0  0  0
  3  1  1  0  0  0  0
  4  2  1  6  0  0  0
  5  7  1  0  0  0  0
  6  9  1  6  0  0  0
  6  4  1  0  0  0  0
  7 28  1  1  0  0  0
  8  6  1  0  0  0  0
  8 11  1  0  0  0  0
 10  7  1  0  0  0  0
 11 26  1  6  0  0  0
 11  5  1  0  0  0  0
 12  9  1  0  0  0  0
 12  3  1  0  0  0  0
 13 10  2  0  0  0  0
 14 18  1  0  0  0  0
 16 15  2  0  0  0  0
 16 14  1  0  0  0  0
 18 17  2  0  0  0  0
 18 21  1  0  0  0  0
 19 18  2  0  0  0  0
 20 22  1  0  0  0  0
 21 20  2  0  0  0  0
 23 25  1  0  0  0  0
 24 21  1  0  0  0  0
 24 23  2  0  0  0  0
 25 22  2  0  0  0  0
 26 27  1  0  0  0  0
 28 29  1  0  0  0  0
 29 30  1  0  0  0  0
 30 32  1  0  0  0  0
 32 31  1  0  0  0  0
M  END
>  <MODEL>
4

>  <REMARK>
 VINA RESULT:      -7.0      2.628      6.840
  Name = 
  8 active torsions:
  status: ('A' for Active; 'I' for Inactive)
    1  A    between atoms: C_1  and  C_27
    2  A    between atoms: C_7  and  S_22
    3  A    between atoms: C_9  and  C_12
    4  A    between atoms: C_9  and  C_31
    5  A    between atoms: O_10  and  C_12
    6  A    between atoms: O_10  and  C_17
    7  A    between atoms: C_13  and  C_29
    8  A    between atoms: N_16  and  S_22
                            x       y       z     vdW  Elec       q    Type
                         _______ _______ _______ _____ _____    ______ ____

>  <TORSDO>
F 8

$$$$
=
 OpenBabel10262421063D

 32 34  0  0  1  0  0  0  0  0999 V2000
  186.3400  179.0300  141.4730 C   0  0  1  0  0  3  0  0  0  0  0  0
  186.8290  177.0910  142.8530 O   0  0  0  0  0  0  0  0  0  0  0  0
  185.0690  178.4320  140.8490 C   0  0  0  0  0  2  0  0  0  0  0  0
  186.6210  178.5040  142.8850 C   0  0  2  0  0  3  0  0  0  0  0  0
  187.6610  177.3530  146.0610 C   0  0  0  0  0  2  0  0  0  0  0  0
  185.4430  178.8770  143.8090 C   0  0  2  0  0  3  0  0  0  0  0  0
  188.4860  177.0940  144.7970 C   0  0  1  0  0  3  0  0  0  0  0  0
  185.4760  178.1500  145.1470 C   0  0  0  0  0  2  0  0  0  0  0  0
  184.0580  178.7390  143.1530 C   0  0  0  0  0  2  0  0  0  0  0  0
  187.6960  176.4090  143.7150 C   0  0  0  0  0  0  0  0  0  0  0  0
  186.7180  178.5450  145.9360 C   0  0  1  0  0  3  0  0  0  0  0  0
  184.0870  177.8790  141.8890 C   0  0  0  0  0  2  0  0  0  0  0  0
  187.8140  175.1640  143.5910 O   0  0  0  0  0  0  0  0  0  0  0  0
  187.3130  178.6280  139.1700 N   0  0  0  0  0  2  0  0  0  0  0  0
  188.6760  179.0120  141.0280 O   0  0  0  0  0  0  0  0  0  0  0  0
  187.5130  178.8870  140.5610 C   0  0  0  0  0  0  0  0  0  0  0  0
  189.7760  177.7250  138.7340 O   0  0  0  0  0  0  0  0  0  0  0  0
  188.6190  178.4090  138.0560 S   0  0  0  0  0  0  0  0  0  0  0  0
  189.0570  179.7520  137.5390 O   0  0  0  0  0  0  0  0  0  0  0  0
  187.0890  177.9020  135.8470 C   0  0  0  0  0  3  0  0  0  0  0  0
  188.0570  177.4070  136.7300 C   0  0  0  0  0  0  0  0  0  0  0  0
  186.6450  177.1130  134.7810 C   0  0  0  0  0  3  0  0  0  0  0  0
  188.1320  175.3320  135.4780 C   0  0  0  0  0  3  0  0  0  0  0  0
  188.5750  176.1200  136.5450 C   0  0  0  0  0  3  0  0  0  0  0  0
  187.1680  175.8300  134.5960 C   0  0  0  0  0  3  0  0  0  0  0  0
  186.3240  179.0160  147.3240 C   0  0  0  0  0  2  0  0  0  0  0  0
  187.3840  178.6200  148.3330 C   0  0  0  0  0  1  0  0  0  0  0  0
  189.1110  178.2570  144.3360 O   0  0  0  0  0  0  0  0  0  0  0  0
  190.4410  177.8860  144.1210 C   0  0  0  0  0  2  0  0  0  0  0  0
  191.1650  177.6980  145.4460 C   0  0  0  0  0  2  0  0  0  0  0  0
  191.9880  175.9570  147.0230 C   0  0  0  0  0  1  0  0  0  0  0  0
  191.7450  176.2970  145.5640 C   0  0  0  0  0  2  0  0  0  0  0  0
  1 16  1  6  0  0  0
  1  4  1  0  0  0  0
  2 10  1  0  0  0  0
  3  1  1  0  0  0  0
  3 12  1  0  0  0  0
  4  2  1  6  0  0  0
  4  6  1  0  0  0  0
  6  9  1  6  0  0  0
  6  8  1  0  0  0  0
  7 28  1  6  0  0  0
  7  5  1  0  0  0  0
  8 11  1  0  0  0  0
 10  7  1  0  0  0  0
 11  5  1  0  0  0  0
 11 26  1  1  0  0  0
 12  9  1  0  0  0  0
 13 10  2  0  0  0  0
 14 16  1  0  0  0  0
 16 15  2  0  0  0  0
 18 17  2  0  0  0  0
 18 14  1  0  0  0  0
 19 18  2  0  0  0  0
 20 21  1  0  0  0  0
 21 18  1  0  0  0  0
 22 20  2  0  0  0  0
 23 24  1  0  0  0  0
 24 21  2  0  0  0  0
 25 22  1  0  0  0  0
 25 23  2  0  0  0  0
 26 27  1  0  0  0  0
 29 28  1  0  0  0  0
 29 30  1  0  0  0  0
 30 32  1  0  0  0  0
 32 31  1  0  0  0  0
M  END
>  <MODEL>
5

>  <REMARK>
 VINA RESULT:      -6.9      2.721      3.788
  Name = 
  8 active torsions:
  status: ('A' for Active; 'I' for Inactive)
    1  A    between atoms: C_1  and  C_27
    2  A    between atoms: C_7  and  S_22
    3  A    between atoms: C_9  and  C_12
    4  A    between atoms: C_9  and  C_31
    5  A    between atoms: O_10  and  C_12
    6  A    between atoms: O_10  and  C_17
    7  A    between atoms: C_13  and  C_29
    8  A    between atoms: N_16  and  S_22
                            x       y       z     vdW  Elec       q    Type
                         _______ _______ _______ _____ _____    ______ ____

>  <TORSDO>
F 8

$$$$
=
 OpenBabel10262421063D

 32 34  0  0  1  0  0  0  0  0999 V2000
  181.7650  177.9580  141.7310 C   0  0  1  0  0  3  0  0  0  0  0  0
  182.6460  179.2540  139.8740 O   0  0  0  0  0  0  0  0  0  0  0  0
  180.3170  178.4430  141.5560 C   0  0  0  0  0  2  0  0  0  0  0  0
  182.5540  177.9360  140.4170 C   0  0  2  0  0  3  0  0  0  0  0  0
  184.7040  177.9510  137.6110 C   0  0  0  0  0  2  0  0  0  0  0  0
  181.8680  176.9690  139.4290 C   0  0  2  0  0  3  0  0  0  0  0  0
  184.9380  178.8680  138.8150 C   0  0  1  0  0  3  0  0  0  0  0  0
  182.3880  177.0970  138.0040 C   0  0  0  0  0  2  0  0  0  0  0  0
  180.3300  177.0310  139.4520 C   0  0  0  0  0  2  0  0  0  0  0  0
  183.7420  179.7210  139.1390 C   0  0  0  0  0  0  0  0  0  0  0  0
  183.8630  176.7220  137.9410 C   0  0  1  0  0  3  0  0  0  0  0  0
  179.8000  178.3000  140.1200 C   0  0  0  0  0  2  0  0  0  0  0  0
  183.7250  180.9060  138.7190 O   0  0  0  0  0  0  0  0  0  0  0  0
  183.7380  178.2700  143.2880 N   0  0  0  0  0  2  0  0  0  0  0  0
  181.9310  179.7520  143.2830 O   0  0  0  0  0  0  0  0  0  0  0  0
  182.4650  178.7140  142.8100 C   0  0  0  0  0  0  0  0  0  0  0  0
  183.8050  179.0020  145.8430 O   0  0  0  0  0  0  0  0  0  0  0  0
  184.5950  179.0670  144.5630 S   0  0  0  0  0  0  0  0  0  0  0  0
  184.8240  180.5040  144.1810 O   0  0  0  0  0  0  0  0  0  0  0  0
  186.7870  177.6830  143.6970 C   0  0  0  0  0  3  0  0  0  0  0  0
  186.1310  178.2520  144.7950 C   0  0  0  0  0  0  0  0  0  0  0  0
  188.0180  177.0410  143.8720 C   0  0  0  0  0  3  0  0  0  0  0  0
  187.9380  177.5340  146.2420 C   0  0  0  0  0  3  0  0  0  0  0  0
  186.7070  178.1730  146.0680 C   0  0  0  0  0  3  0  0  0  0  0  0
  188.5940  176.9690  145.1430 C   0  0  0  0  0  3  0  0  0  0  0  0
  184.0850  175.6660  136.8730 C   0  0  0  0  0  2  0  0  0  0  0  0
  182.8570  175.5440  135.9920 C   0  0  0  0  0  1  0  0  0  0  0  0
  185.3960  178.1590  139.9290 O   0  0  0  0  0  0  0  0  0  0  0  0
  186.6960  178.6250  140.1400 C   0  0  0  0  0  2  0  0  0  0  0  0
  187.6700  177.9470  139.1890 C   0  0  0  0  0  2  0  0  0  0  0  0
  189.6100  177.2960  140.6060 C   0  0  0  0  0  1  0  0  0  0  0  0
  189.1110  178.2670  139.5520 C   0  0  0  0  0  2  0  0  0  0  0  0
  1 16  1  1  0  0  0
  3  1  1  0  0  0  0
  4  2  1  6  0  0  0
  4  1  1  0  0  0  0
  5 11  1  0  0  0  0
  5  7  1  0  0  0  0
  6  8  1  6  0  0  0
  6  9  1  0  0  0  0
  6  4  1  0  0  0  0
  7 10  1  0  0  0  0
  7 28  1  1  0  0  0
  9 12  1  0  0  0  0
 10  2  1  0  0  0  0
 11 26  1  6  0  0  0
 11  8  1  0  0  0  0
 12  3  1  0  0  0  0
 13 10  2  0  0  0  0
 14 18  1  0  0  0  0
 16 15  2  0  0  0  0
 16 14  1  0  0  0  0
 18 21  1  0  0  0  0
 18 17  2  0  0  0  0
 19 18  2  0  0  0  0
 20 22  2  0  0  0  0
 20 21  1  0  0  0  0
 21 24  2  0  0  0  0
 22 25  1  0  0  0  0
 24 23  1  0  0  0  0
 25 23  2  0  0  0  0
 27 26  1  0  0  0  0
 28 29  1  0  0  0  0
 30 32  1  0  0  0  0
 30 29  1  0  0  0  0
 32 31  1  0  0  0  0
M  END
>  <MODEL>
6

>  <REMARK>
 VINA RESULT:      -6.6      2.321      7.364
  Name = 
  8 active torsions:
  status: ('A' for Active; 'I' for Inactive)
    1  A    between atoms: C_1  and  C_27
    2  A    between atoms: C_7  and  S_22
    3  A    between atoms: C_9  and  C_12
    4  A    between atoms: C_9  and  C_31
    5  A    between atoms: O_10  and  C_12
    6  A    between atoms: O_10  and  C_17
    7  A    between atoms: C_13  and  C_29
    8  A    between atoms: N_16  and  S_22
                            x       y       z     vdW  Elec       q    Type
                         _______ _______ _______ _____ _____    ______ ____

>  <TORSDO>
F 8

$$$$
=
 OpenBabel10262421063D

 32 34  0  0  1  0  0  0  0  0999 V2000
  183.0640  175.2890  138.4050 C   0  0  1  0  0  3  0  0  0  0  0  0
  184.3280  175.9150  136.4270 O   0  0  0  0  0  0  0  0  0  0  0  0
  181.8390  174.7850  137.6250 C   0  0  0  0  0  2  0  0  0  0  0  0
  184.3750  175.1400  137.6250 C   0  0  2  0  0  3  0  0  0  0  0  0
  187.5320  175.1180  136.0350 C   0  0  0  0  0  2  0  0  0  0  0  0
  184.6160  173.6470  137.3180 C   0  0  2  0  0  3  0  0  0  0  0  0
  186.8320  176.4230  136.4250 C   0  0  1  0  0  3  0  0  0  0  0  0
  185.7220  173.4150  136.2980 C   0  0  0  0  0  2  0  0  0  0  0  0
  183.3460  172.8710  136.9260 C   0  0  0  0  0  2  0  0  0  0  0  0
  185.4450  176.5350  135.8530 C   0  0  0  0  0  0  0  0  0  0  0  0
  187.0570  173.9120  136.8380 C   0  0  1  0  0  3  0  0  0  0  0  0
  182.1950  173.7900  136.5140 C   0  0  0  0  0  2  0  0  0  0  0  0
  185.2870  177.2060  134.8010 O   0  0  0  0  0  0  0  0  0  0  0  0
  183.3900  177.0660  140.1800 N   0  0  0  0  0  2  0  0  0  0  0  0
  182.2070  177.5000  138.2120 O   0  0  0  0  0  0  0  0  0  0  0  0
  182.8510  176.6760  138.9140 C   0  0  0  0  0  0  0  0  0  0  0  0
  181.6860  178.9730  140.9100 O   0  0  0  0  0  0  0  0  0  0  0  0
  183.1540  178.6400  140.8590 S   0  0  0  0  0  0  0  0  0  0  0  0
  183.8740  179.6550  140.0140 O   0  0  0  0  0  0  0  0  0  0  0  0
  185.1410  178.3030  142.7060 C   0  0  0  0  0  3  0  0  0  0  0  0
  183.8000  178.6450  142.4900 C   0  0  0  0  0  0  0  0  0  0  0  0
  185.6660  178.3160  144.0020 C   0  0  0  0  0  3  0  0  0  0  0  0
  183.5130  179.0100  144.8690 C   0  0  0  0  0  3  0  0  0  0  0  0
  182.9870  178.9950  143.5740 C   0  0  0  0  0  3  0  0  0  0  0  0
  184.8540  178.6720  145.0830 C   0  0  0  0  0  3  0  0  0  0  0  0
  188.0970  172.8110  136.7450 C   0  0  0  0  0  2  0  0  0  0  0  0
  189.4900  173.3900  136.8960 C   0  0  0  0  0  1  0  0  0  0  0  0
  186.8480  176.6290  137.8080 O   0  0  0  0  0  0  0  0  0  0  0  0
  187.6510  177.7570  137.9910 C   0  0  0  0  0  2  0  0  0  0  0  0
  188.5830  177.5630  139.1780 C   0  0  0  0  0  2  0  0  0  0  0  0
  188.7370  177.7820  141.6530 C   0  0  0  0  0  1  0  0  0  0  0  0
  188.0980  178.3370  140.3940 C   0  0  0  0  0  2  0  0  0  0  0  0
  1 16  1  6  0  0  0
  3  1  1  0  0  0  0
  4  2  1  6  0  0  0
  4  1  1  0  0  0  0
  5  7  1  0  0  0  0
  5 11  1  0  0  0  0
  6  8  1  6  0  0  0
  6  4  1  0  0  0  0
  7 28  1  1  0  0  0
  8 11  1  0  0  0  0
  9  6  1  0  0  0  0
 10  7  1  0  0  0  0
 10  2  1  0  0  0  0
 11 26  1  6  0  0  0
 12  9  1  0  0  0  0
 12  3  1  0  0  0  0
 13 10  2  0  0  0  0
 14 18  1  0  0  0  0
 15 16  2  0  0  0  0
 16 14  1  0  0  0  0
 18 17  2  0  0  0  0
 18 21  1  0  0  0  0
 19 18  2  0  0  0  0
 20 22  1  0  0  0  0
 21 20  2  0  0  0  0
 21 24  1  0  0  0  0
 22 25  2  0  0  0  0
 23 25  1  0  0  0  0
 24 23  2  0  0  0  0
 26 27  1  0  0  0  0
 28 29  1  0  0  0  0
 29 30  1  0  0  0  0
 30 32  1  0  0  0  0
 32 31  1  0  0  0  0
M  END
>  <MODEL>
7

>  <REMARK>
 VINA RESULT:      -6.5      3.160      7.621
  Name = 
  8 active torsions:
  status: ('A' for Active; 'I' for Inactive)
    1  A    between atoms: C_1  and  C_27
    2  A    between atoms: C_7  and  S_22
    3  A    between atoms: C_9  and  C_12
    4  A    between atoms: C_9  and  C_31
    5  A    between atoms: O_10  and  C_12
    6  A    between atoms: O_10  and  C_17
    7  A    between atoms: C_13  and  C_29
    8  A    between atoms: N_16  and  S_22
                            x       y       z     vdW  Elec       q    Type
                         _______ _______ _______ _____ _____    ______ ____

>  <TORSDO>
F 8

$$$$
=
 OpenBabel10262421063D

 32 34  0  0  1  0  0  0  0  0999 V2000
  186.4790  177.9360  140.4390 C   0  0  1  0  0  3  0  0  0  0  0  0
  187.5460  178.9430  138.5020 O   0  0  0  0  0  0  0  0  0  0  0  0
  185.4230  179.0420  140.5990 C   0  0  0  0  0  2  0  0  0  0  0  0
  186.9350  177.7460  138.9880 C   0  0  2  0  0  3  0  0  0  0  0  0
  188.3410  177.1860  135.7940 C   0  0  0  0  0  2  0  0  0  0  0  0
  185.7220  177.3450  138.1230 C   0  0  2  0  0  3  0  0  0  0  0  0
  189.1750  177.7180  136.9630 C   0  0  1  0  0  3  0  0  0  0  0  0
  185.9980  177.4240  136.6280 C   0  0  0  0  0  2  0  0  0  0  0  0
  184.4220  178.0900  138.4750 C   0  0  0  0  0  2  0  0  0  0  0  0
  188.5940  178.9640  137.5750 C   0  0  0  0  0  0  0  0  0  0  0  0
  187.0890  176.4370  136.2350 C   0  0  1  0  0  3  0  0  0  0  0  0
  184.6700  179.3530  139.3000 C   0  0  0  0  0  2  0  0  0  0  0  0
  189.0670  180.0750  137.2250 O   0  0  0  0  0  0  0  0  0  0  0  0
  187.9550  177.1140  142.3270 N   0  0  0  0  0  2  0  0  0  0  0  0
  188.2920  179.1960  141.3220 O   0  0  0  0  0  0  0  0  0  0  0  0
  187.6210  178.1330  141.3800 C   0  0  0  0  0  0  0  0  0  0  0  0
  190.0910  178.4730  143.1370 O   0  0  0  0  0  0  0  0  0  0  0  0
  189.2360  177.2820  143.4770 S   0  0  0  0  0  0  0  0  0  0  0  0
  190.0770  176.0350  143.4650 O   0  0  0  0  0  0  0  0  0  0  0  0
  187.1570  177.7690  145.1850 C   0  0  0  0  0  3  0  0  0  0  0  0
  188.5300  177.5170  145.0660 C   0  0  0  0  0  0  0  0  0  0  0  0
  186.5850  177.9460  146.4490 C   0  0  0  0  0  3  0  0  0  0  0  0
  188.7550  177.6240  147.4770 C   0  0  0  0  0  3  0  0  0  0  0  0
  189.3270  177.4480  146.2140 C   0  0  0  0  0  3  0  0  0  0  0  0
  187.3830  177.8710  147.5940 C   0  0  0  0  0  3  0  0  0  0  0  0
  186.6080  175.5580  135.0940 C   0  0  0  0  0  2  0  0  0  0  0  0
  185.5200  174.6190  135.5780 C   0  0  0  0  0  1  0  0  0  0  0  0
  189.4220  176.7290  137.9190 O   0  0  0  0  0  0  0  0  0  0  0  0
  190.6970  177.0170  138.4110 C   0  0  0  0  0  2  0  0  0  0  0  0
  190.7600  176.7740  139.9120 C   0  0  0  0  0  2  0  0  0  0  0  0
  193.2280  177.0910  139.8480 C   0  0  0  0  0  1  0  0  0  0  0  0
  191.9410  177.4980  140.5400 C   0  0  0  0  0  2  0  0  0  0  0  0
  1  3  1  0  0  0  0
  1 16  1  1  0  0  0
  4  2  1  6  0  0  0
  4  1  1  0  0  0  0
  5 11  1  0  0  0  0
  5  7  1  0  0  0  0
  6  8  1  6  0  0  0
  6  9  1  0  0  0  0
  6  4  1  0  0  0  0
  7 10  1  0  0  0  0
  7 28  1  1  0  0  0
  9 12  1  0  0  0  0
 10  2  1  0  0  0  0
 11 26  1  6  0  0  0
 11  8  1  0  0  0  0
 12  3  1  0  0  0  0
 13 10  2  0  0  0  0
 14 18  1  0  0  0  0
 15 16  2  0  0  0  0
 16 14  1  0  0  0  0
 17 18  2  0  0  0  0
 18 21  1  0  0  0  0
 19 18  2  0  0  0  0
 20 22  1  0  0  0  0
 21 20  2  0  0  0  0
 21 24  1  0  0  0  0
 22 25  2  0  0  0  0
 23 25  1  0  0  0  0
 24 23  2  0  0  0  0
 26 27  1  0  0  0  0
 28 29  1  0  0  0  0
 29 30  1  0  0  0  0
 30 32  1  0  0  0  0
 31 32  1  0  0  0  0
M  END
>  <MODEL>
8

>  <REMARK>
 VINA RESULT:      -6.4      2.830      7.719
  Name = 
  8 active torsions:
  status: ('A' for Active; 'I' for Inactive)
    1  A    between atoms: C_1  and  C_27
    2  A    between atoms: C_7  and  S_22
    3  A    between atoms: C_9  and  C_12
    4  A    between atoms: C_9  and  C_31
    5  A    between atoms: O_10  and  C_12
    6  A    between atoms: O_10  and  C_17
    7  A    between atoms: C_13  and  C_29
    8  A    between atoms: N_16  and  S_22
                            x       y       z     vdW  Elec       q    Type
                         _______ _______ _______ _____ _____    ______ ____

>  <TORSDO>
F 8

$$$$
=
 OpenBabel10262421063D

 32 34  0  0  1  0  0  0  0  0999 V2000
  188.7710  177.4160  140.8520 C   0  0  1  0  0  3  0  0  0  0  0  0
  190.1260  178.6710  142.4320 O   0  0  0  0  0  0  0  0  0  0  0  0
  189.5750  177.8480  139.6150 C   0  0  0  0  0  2  0  0  0  0  0  0
  189.6150  177.3710  142.1320 C   0  0  2  0  0  3  0  0  0  0  0  0
  191.2190  177.3530  145.2810 C   0  0  0  0  0  2  0  0  0  0  0  0
  190.7560  176.3480  141.9510 C   0  0  2  0  0  3  0  0  0  0  0  0
  190.0750  178.3200  144.9610 C   0  0  1  0  0  3  0  0  0  0  0  0
  191.8220  176.4410  143.0340 C   0  0  0  0  0  2  0  0  0  0  0  0
  191.4010  176.3620  140.5540 C   0  0  0  0  0  2  0  0  0  0  0  0
  190.3370  179.1460  143.7320 C   0  0  0  0  0  0  0  0  0  0  0  0
  191.2270  176.1110  144.3970 C   0  0  1  0  0  3  0  0  0  0  0  0
  191.0860  177.6370  139.7710 C   0  0  0  0  0  2  0  0  0  0  0  0
  190.7780  180.3140  143.8820 O   0  0  0  0  0  0  0  0  0  0  0  0
  186.2480  177.6320  140.8150 N   0  0  0  0  0  2  0  0  0  0  0  0
  187.6280  179.4470  141.3250 O   0  0  0  0  0  0  0  0  0  0  0  0
  187.5320  178.2320  141.0080 C   0  0  0  0  0  0  0  0  0  0  0  0
  183.6590  177.7850  140.2280 O   0  0  0  0  0  0  0  0  0  0  0  0
  184.7670  178.5180  140.9380 S   0  0  0  0  0  0  0  0  0  0  0  0
  184.9520  179.8770  140.3200 O   0  0  0  0  0  0  0  0  0  0  0  0
  183.0120  178.8180  143.0120 C   0  0  0  0  0  3  0  0  0  0  0  0
  184.3530  178.6770  142.6350 C   0  0  0  0  0  0  0  0  0  0  0  0
  182.6730  178.9340  144.3640 C   0  0  0  0  0  3  0  0  0  0  0  0
  185.0140  178.7730  144.9650 C   0  0  0  0  0  3  0  0  0  0  0  0
  185.3530  178.6590  143.6130 C   0  0  0  0  0  3  0  0  0  0  0  0
  183.6730  178.9090  145.3400 C   0  0  0  0  0  3  0  0  0  0  0  0
  192.0450  175.0250  145.0720 C   0  0  0  0  0  2  0  0  0  0  0  0
  192.2100  175.3320  146.5470 C   0  0  0  0  0  1  0  0  0  0  0  0
  188.8410  177.6660  144.9020 O   0  0  0  0  0  0  0  0  0  0  0  0
  188.6850  177.0830  146.1630 C   0  0  0  0  0  2  0  0  0  0  0  0
  187.4110  177.5810  146.8290 C   0  0  0  0  0  2  0  0  0  0  0  0
  189.1790  178.0640  148.5130 C   0  0  0  0  0  1  0  0  0  0  0  0
  187.6910  178.1200  148.2230 C   0  0  0  0  0  2  0  0  0  0  0  0
  1 16  1  1  0  0  0
  1  4  1  0  0  0  0
  2 10  1  0  0  0  0
  3 12  1  0  0  0  0
  3  1  1  0  0  0  0
  4  2  1  6  0  0  0
  6  9  1  6  0  0  0
  6  4  1  0  0  0  0
  6  8  1  0  0  0  0
  7 28  1  6  0  0  0
  7  5  1  0  0  0  0
  8 11  1  0  0  0  0
 10 13  2  0  0  0  0
 10  7  1  0  0  0  0
 11 26  1  1  0  0  0
 11  5  1  0  0  0  0
 12  9  1  0  0  0  0
 14 18  1  0  0  0  0
 14 16  1  0  0  0  0
 16 15  2  0  0  0  0
 17 18  2  0  0  0  0
 18 21  1  0  0  0  0
 19 18  2  0  0  0  0
 20 22  1  0  0  0  0
 21 20  2  0  0  0  0
 21 24  1  0  0  0  0
 22 25  2  0  0  0  0
 23 25  1  0  0  0  0
 24 23  2  0  0  0  0
 26 27  1  0  0  0  0
 28 29  1  0  0  0  0
 29 30  1  0  0  0  0
 30 32  1  0  0  0  0
 32 31  1  0  0  0  0
M  END
>  <MODEL>
9

>  <REMARK>
 VINA RESULT:      -6.3      2.654      5.465
  Name = 
  8 active torsions:
  status: ('A' for Active; 'I' for Inactive)
    1  A    between atoms: C_1  and  C_27
    2  A    between atoms: C_7  and  S_22
    3  A    between atoms: C_9  and  C_12
    4  A    between atoms: C_9  and  C_31
    5  A    between atoms: O_10  and  C_12
    6  A    between atoms: O_10  and  C_17
    7  A    between atoms: C_13  and  C_29
    8  A    between atoms: N_16  and  S_22
                            x       y       z     vdW  Elec       q    Type
                         _______ _______ _______ _____ _____    ______ ____

>  <TORSDO>
F 8

$$$$
