=
 OpenBabel10262421153D

 32 36  0  0  1  0  0  0  0  0999 V2000
  190.0850  177.4650  139.5680 C   0  0  0  0  0  0  0  0  0  0  0  0
  187.7720  178.3500  139.2390 C   0  0  2  0  0  3  0  0  0  0  0  0
  191.1660  176.9330  140.4230 C   0  0  0  0  0  3  0  0  0  0  0  0
  188.8710  177.7610  140.1090 C   0  0  0  0  0  0  0  0  0  0  0  0
  186.4950  177.8980  139.6120 O   0  0  0  0  0  0  0  0  0  0  0  0
  186.1000  176.7620  135.4800 C   0  0  0  0  0  3  0  0  0  0  0  0
  187.9490  177.9890  137.7700 C   0  0  2  0  0  3  0  0  0  0  0  0
  184.7210  177.1310  137.5230 C   0  0  0  0  0  2  0  0  0  0  0  0
  185.4740  178.4670  137.7240 C   0  0  1  0  0  3  0  0  0  0  0  0
  188.6470  177.5330  141.6020 C   0  0  1  0  0  3  0  0  0  0  0  0
  185.6400  178.7780  139.0970 O   0  0  0  0  0  0  0  0  0  0  0  0
  189.9430  177.7080  142.4020 C   0  0  0  0  0  2  0  0  0  0  0  0
  189.3290  178.4230  137.3150 C   0  0  0  0  0  2  0  0  0  0  0  0
  190.3730  177.6030  138.0820 C   0  0  2  0  0  3  0  0  0  0  0  0
  186.8160  178.6090  136.9510 C   0  0  2  0  0  3  0  0  0  0  0  0
  191.0890  177.0000  141.7500 C   0  0  0  0  0  3  0  0  0  0  0  0
  185.5090  176.1090  136.6950 C   0  0  0  0  0  2  0  0  0  0  0  0
  186.7190  177.9430  135.6030 C   0  0  0  0  0  3  0  0  0  0  0  0
  192.3060  174.9160  135.9490 C   0  0  1  0  0  3  0  0  0  0  0  0
  190.2480  172.0590  135.7810 F   0  0  0  0  0  0  0  0  0  0  0  0
  193.7280  174.9090  135.4000 C   0  0  0  0  0  1  0  0  0  0  0  0
  189.5440  174.0740  136.6610 C   0  0  0  0  0  3  0  0  0  0  0  0
  190.6480  176.2750  137.4150 C   0  0  0  0  0  0  0  0  0  0  0  0
  191.9850  173.5780  136.5670 C   0  0  0  0  0  2  0  0  0  0  0  0
  189.6070  175.4360  137.2410 C   0  0  0  0  0  3  0  0  0  0  0  0
  192.0370  175.9900  136.9690 C   0  0  0  0  0  0  0  0  0  0  0  0
  193.0500  176.6240  137.5630 C   0  0  0  0  0  2  0  0  0  0  0  0
  190.5480  173.2550  136.3400 C   0  0  0  0  0  0  0  0  0  0  0  0
  187.5870  178.4610  142.1880 C   0  0  0  0  0  2  0  0  0  0  0  0
  185.4350  177.9100  143.0470 O   0  0  0  0  0  0  0  0  0  0  0  0
  187.1950  176.7820  143.9910 O   0  0  0  0  0  1  0  0  0  0  0  0
  186.6770  177.7150  143.1010 C   0  0  0  0  0  0  0  0  0  0  0  0
  1  4  2  0  0  0  0
  1  3  1  0  0  0  0
  2  5  1  1  0  0  0
  2  4  1  0  0  0  0
  3 16  2  0  0  0  0
  4 10  1  0  0  0  0
  6 18  2  0  0  0  0
  6 17  1  0  0  0  0
  7 13  1  6  0  0  0
  7  2  1  0  0  0  0
  9  8  1  1  0  0  0
  9 11  1  0  0  0  0
 10 29  1  1  0  0  0
 10 12  1  0  0  0  0
 11  5  1  0  0  0  0
 13 14  1  0  0  0  0
 14 23  1  6  0  0  0
 14  1  1  0  0  0  0
 15 18  1  6  0  0  0
 15  9  1  0  0  0  0
 15  7  1  0  0  0  0
 16 12  1  0  0  0  0
 17  8  1  0  0  0  0
 19 21  1  1  0  0  0
 19 24  1  0  0  0  0
 19 26  1  0  0  0  0
 20 28  1  0  0  0  0
 22 25  1  0  0  0  0
 25 23  2  0  0  0  0
 26 23  1  0  0  0  0
 26 27  2  0  0  0  0
 28 24  1  0  0  0  0
 28 22  2  0  0  0  0
 29 32  1  0  0  0  0
 30 32  2  0  0  0  0
 32 31  1  0  0  0  0
M  END
>  <MODEL>
1

>  <REMARK>
 VINA RESULT:      -6.9      0.000      0.000
  Name = 
  3 active torsions:
  status: ('A' for Active; 'I' for Inactive)
    1  A    between atoms: C_14  and  C_18
    2  A    between atoms: C_16  and  C_27
    3  A    between atoms: C_18  and  C_29
                            x       y       z     vdW  Elec       q    Type
                         _______ _______ _______ _____ _____    ______ ____

>  <TORSDO>
F 3

$$$$
=
 OpenBabel10262421153D

 32 36  0  0  1  0  0  0  0  0999 V2000
  185.4710  178.6700  140.4060 C   0  0  0  0  0  0  0  0  0  0  0  0
  183.2690  179.1340  141.4920 C   0  0  2  0  0  3  0  0  0  0  0  0
  186.8930  178.2710  140.4630 C   0  0  0  0  0  3  0  0  0  0  0  0
  184.7210  178.6820  141.5420 C   0  0  0  0  0  0  0  0  0  0  0  0
  182.4560  178.4190  142.3870 O   0  0  0  0  0  0  0  0  0  0  0  0
  180.0090  177.6220  138.9360 C   0  0  0  0  0  3  0  0  0  0  0  0
  182.6610  178.9530  140.1090 C   0  0  2  0  0  3  0  0  0  0  0  0
  179.9270  177.5340  141.4260 C   0  0  0  0  0  2  0  0  0  0  0  0
  180.5210  178.9620  141.4420 C   0  0  1  0  0  3  0  0  0  0  0  0
  185.3670  178.2770  142.8650 C   0  0  1  0  0  3  0  0  0  0  0  0
  181.3700  179.1680  142.5590 O   0  0  0  0  0  0  0  0  0  0  0  0
  186.8620  178.6150  142.8910 C   0  0  0  0  0  2  0  0  0  0  0  0
  183.5180  179.6770  139.0890 C   0  0  0  0  0  2  0  0  0  0  0  0
  184.8920  178.9990  139.0400 C   0  0  2  0  0  3  0  0  0  0  0  0
  181.2060  179.4250  140.1240 C   0  0  2  0  0  3  0  0  0  0  0  0
  187.5410  178.1980  141.6240 C   0  0  0  0  0  3  0  0  0  0  0  0
  180.2450  176.7590  140.1410 C   0  0  0  0  0  2  0  0  0  0  0  0
  180.4660  178.8810  138.9290 C   0  0  0  0  0  3  0  0  0  0  0  0
  185.6640  176.9220  135.7850 C   0  0  1  0  0  3  0  0  0  0  0  0
  184.1140  173.7800  136.1750 F   0  0  0  0  0  0  0  0  0  0  0  0
  186.5770  177.2200  134.6010 C   0  0  0  0  0  1  0  0  0  0  0  0
  183.7860  175.5410  137.6320 C   0  0  0  0  0  3  0  0  0  0  0  0
  184.9020  177.8130  138.1010 C   0  0  0  0  0  0  0  0  0  0  0  0
  185.8480  175.4920  136.2310 C   0  0  0  0  0  2  0  0  0  0  0  0
  184.0130  176.8270  138.3320 C   0  0  0  0  0  3  0  0  0  0  0  0
  185.8690  177.8230  136.9730 C   0  0  0  0  0  0  0  0  0  0  0  0
  186.9760  178.5620  137.0750 C   0  0  0  0  0  2  0  0  0  0  0  0
  184.5450  174.9470  136.7080 C   0  0  0  0  0  0  0  0  0  0  0  0
  184.7020  178.9320  144.0710 C   0  0  0  0  0  2  0  0  0  0  0  0
  185.5250  179.4550  146.2450 O   0  0  0  0  0  1  0  0  0  0  0  0
  185.9990  177.3420  145.4900 O   0  0  0  0  0  0  0  0  0  0  0  0
  185.4360  178.6020  145.3240 C   0  0  0  0  0  0  0  0  0  0  0  0
  1  3  1  0  0  0  0
  1  4  2  0  0  0  0
  2  4  1  6  0  0  0
  2  5  1  0  0  0  0
  3 16  2  0  0  0  0
  4 10  1  0  0  0  0
  5 11  1  0  0  0  0
  6 17  1  0  0  0  0
  7 13  1  6  0  0  0
  7 15  1  0  0  0  0
  7  2  1  0  0  0  0
  9  8  1  6  0  0  0
  9 11  1  0  0  0  0
 10 12  1  0  0  0  0
 10 29  1  1  0  0  0
 14 23  1  6  0  0  0
 14 13  1  0  0  0  0
 14  1  1  0  0  0  0
 15 18  1  6  0  0  0
 15  9  1  0  0  0  0
 16 12  1  0  0  0  0
 17  8  1  0  0  0  0
 18  6  2  0  0  0  0
 19 21  1  6  0  0  0
 19 24  1  0  0  0  0
 19 26  1  0  0  0  0
 20 28  1  0  0  0  0
 22 25  1  0  0  0  0
 23 25  2  0  0  0  0
 24 28  1  0  0  0  0
 26 27  2  0  0  0  0
 26 23  1  0  0  0  0
 28 22  2  0  0  0  0
 29 32  1  0  0  0  0
 32 31  2  0  0  0  0
 32 30  1  0  0  0  0
M  END
>  <MODEL>
2

>  <REMARK>
 VINA RESULT:      -6.6      3.825      5.587
  Name = 
  3 active torsions:
  status: ('A' for Active; 'I' for Inactive)
    1  A    between atoms: C_14  and  C_18
    2  A    between atoms: C_16  and  C_27
    3  A    between atoms: C_18  and  C_29
                            x       y       z     vdW  Elec       q    Type
                         _______ _______ _______ _____ _____    ______ ____

>  <TORSDO>
F 3

$$$$
=
 OpenBabel10262421153D

 32 36  0  0  1  0  0  0  0  0999 V2000
  188.3050  177.0780  138.2130 C   0  0  0  0  0  0  0  0  0  0  0  0
  186.8650  178.5090  139.6710 C   0  0  2  0  0  3  0  0  0  0  0  0
  189.5070  176.2520  137.9800 C   0  0  0  0  0  3  0  0  0  0  0  0
  188.0800  177.6230  139.4410 C   0  0  0  0  0  0  0  0  0  0  0  0
  186.3270  178.3550  140.9590 O   0  0  0  0  0  0  0  0  0  0  0  0
  182.6180  177.6000  138.9080 C   0  0  0  0  0  3  0  0  0  0  0  0
  185.7420  178.2070  138.6890 C   0  0  2  0  0  3  0  0  0  0  0  0
  183.4950  178.1630  141.1720 C   0  0  0  0  0  2  0  0  0  0  0  0
  184.3520  179.2650  140.5070 C   0  0  1  0  0  3  0  0  0  0  0  0
  189.0810  177.3650  140.5640 C   0  0  1  0  0  3  0  0  0  0  0  0
  185.5920  179.4430  141.1720 O   0  0  0  0  0  0  0  0  0  0  0  0
  190.5030  177.1760  140.0220 C   0  0  0  0  0  2  0  0  0  0  0  0
  186.2730  178.3240  137.2740 C   0  0  0  0  0  2  0  0  0  0  0  0
  187.3290  177.2340  137.0590 C   0  0  2  0  0  3  0  0  0  0  0  0
  184.5550  179.1290  138.9710 C   0  0  2  0  0  3  0  0  0  0  0  0
  190.5210  176.2550  138.8420 C   0  0  0  0  0  3  0  0  0  0  0  0
  183.1040  177.0340  140.2110 C   0  0  0  0  0  2  0  0  0  0  0  0
  183.3060  178.5880  138.3230 C   0  0  0  0  0  3  0  0  0  0  0  0
  184.6810  174.7850  135.4770 C   0  0  1  0  0  3  0  0  0  0  0  0
  185.8080  171.5040  136.1040 F   0  0  0  0  0  0  0  0  0  0  0  0
  183.4690  175.0580  134.5940 C   0  0  0  0  0  1  0  0  0  0  0  0
  186.7920  173.3770  137.0290 C   0  0  0  0  0  3  0  0  0  0  0  0
  186.7060  175.9210  136.6410 C   0  0  0  0  0  0  0  0  0  0  0  0
  185.4620  173.6150  134.9330 C   0  0  0  0  0  2  0  0  0  0  0  0
  187.1610  174.7980  137.2310 C   0  0  0  0  0  3  0  0  0  0  0  0
  185.6170  175.9540  135.6290 C   0  0  0  0  0  0  0  0  0  0  0  0
  185.5470  176.9870  134.7870 C   0  0  0  0  0  2  0  0  0  0  0  0
  186.0460  172.8360  136.0630 C   0  0  0  0  0  0  0  0  0  0  0  0
  189.1040  178.4820  141.6020 C   0  0  0  0  0  2  0  0  0  0  0  0
  190.0560  178.3290  143.7810 O   0  0  0  0  0  1  0  0  0  0  0  0
  188.2470  176.9730  143.3940 O   0  0  0  0  0  0  0  0  0  0  0  0
  189.1740  177.9220  142.9810 C   0  0  0  0  0  0  0  0  0  0  0  0
  1  4  2  0  0  0  0
  2  4  1  6  0  0  0
  2  5  1  0  0  0  0
  3  1  1  0  0  0  0
  3 16  2  0  0  0  0
  4 10  1  0  0  0  0
  5 11  1  0  0  0  0
  6 17  1  0  0  0  0
  7 13  1  6  0  0  0
  7 15  1  0  0  0  0
  7  2  1  0  0  0  0
  9 11  1  0  0  0  0
  9  8  1  1  0  0  0
 10 29  1  1  0  0  0
 12 10  1  0  0  0  0
 14 23  1  1  0  0  0
 14 13  1  0  0  0  0
 14  1  1  0  0  0  0
 15 18  1  6  0  0  0
 15  9  1  0  0  0  0
 16 12  1  0  0  0  0
 17  8  1  0  0  0  0
 18  6  2  0  0  0  0
 19 21  1  6  0  0  0
 19 26  1  0  0  0  0
 22 25  1  0  0  0  0
 23 25  2  0  0  0  0
 24 19  1  0  0  0  0
 24 28  1  0  0  0  0
 26 23  1  0  0  0  0
 27 26  2  0  0  0  0
 28 20  1  0  0  0  0
 28 22  2  0  0  0  0
 29 32  1  0  0  0  0
 32 31  2  0  0  0  0
 32 30  1  0  0  0  0
M  END
>  <MODEL>
3

>  <REMARK>
 VINA RESULT:      -6.1      2.199      4.273
  Name = 
  3 active torsions:
  status: ('A' for Active; 'I' for Inactive)
    1  A    between atoms: C_14  and  C_18
    2  A    between atoms: C_16  and  C_27
    3  A    between atoms: C_18  and  C_29
                            x       y       z     vdW  Elec       q    Type
                         _______ _______ _______ _____ _____    ______ ____

>  <TORSDO>
F 3

$$$$
=
 OpenBabel10262421153D

 32 36  0  0  1  0  0  0  0  0999 V2000
  183.7220  177.2380  139.0070 C   0  0  0  0  0  0  0  0  0  0  0  0
  185.2330  176.9610  137.0370 C   0  0  2  0  0  3  0  0  0  0  0  0
  182.6230  176.7760  139.8810 C   0  0  0  0  0  3  0  0  0  0  0  0
  184.1330  176.4670  137.9640 C   0  0  0  0  0  0  0  0  0  0  0  0
  186.0580  175.9190  136.5830 O   0  0  0  0  0  0  0  0  0  0  0  0
  189.2930  178.3290  138.0830 C   0  0  0  0  0  3  0  0  0  0  0  0
  186.1440  177.9720  137.7200 C   0  0  2  0  0  3  0  0  0  0  0  0
  188.8660  176.3830  136.5850 C   0  0  0  0  0  2  0  0  0  0  0  0
  187.7400  177.2100  135.9220 C   0  0  1  0  0  3  0  0  0  0  0  0
  183.4480  175.1250  137.7150 C   0  0  1  0  0  3  0  0  0  0  0  0
  186.6640  176.3900  135.4960 O   0  0  0  0  0  0  0  0  0  0  0  0
  181.9820  175.1460  138.1640 C   0  0  0  0  0  2  0  0  0  0  0  0
  185.3040  179.1100  138.2650 C   0  0  0  0  0  2  0  0  0  0  0  0
  184.3890  178.5570  139.3620 C   0  0  2  0  0  3  0  0  0  0  0  0
  187.2250  178.4290  136.7390 C   0  0  2  0  0  3  0  0  0  0  0  0
  181.8330  175.7690  139.5170 C   0  0  0  0  0  3  0  0  0  0  0  0
  189.1880  176.8330  138.0150 C   0  0  0  0  0  2  0  0  0  0  0  0
  188.3640  179.0810  137.4810 C   0  0  0  0  0  3  0  0  0  0  0  0
  184.9610  179.2400  143.1980 C   0  0  1  0  0  3  0  0  0  0  0  0
  188.1160  177.8990  144.0230 F   0  0  0  0  0  0  0  0  0  0  0  0
  184.0260  179.7950  144.2650 C   0  0  0  0  0  1  0  0  0  0  0  0
  187.3380  178.0590  141.8550 C   0  0  0  0  0  3  0  0  0  0  0  0
  185.0800  178.5180  140.7060 C   0  0  0  0  0  0  0  0  0  0  0  0
  185.6990  178.0380  143.7340 C   0  0  0  0  0  2  0  0  0  0  0  0
  186.3920  178.2080  140.7250 C   0  0  0  0  0  3  0  0  0  0  0  0
  184.2790  178.8480  141.9140 C   0  0  0  0  0  0  0  0  0  0  0  0
  182.9550  178.6890  141.8760 C   0  0  0  0  0  2  0  0  0  0  0  0
  187.0750  178.0010  143.1630 C   0  0  0  0  0  0  0  0  0  0  0  0
  183.4990  174.6980  136.2510 C   0  0  0  0  0  2  0  0  0  0  0  0
  183.4500  172.6290  135.0720 O   0  0  0  0  0  0  0  0  0  0  0  0
  184.3290  172.5410  137.1880 O   0  0  0  0  0  1  0  0  0  0  0  0
  183.7460  173.2340  136.1350 C   0  0  0  0  0  0  0  0  0  0  0  0
  1 14  1  0  0  0  0
  1  3  1  0  0  0  0
  2  5  1  1  0  0  0
  2  7  1  0  0  0  0
  2  4  1  0  0  0  0
  4  1  2  0  0  0  0
  7 13  1  6  0  0  0
  8 17  1  0  0  0  0
  9  8  1  1  0  0  0
  9 15  1  0  0  0  0
 10 29  1  6  0  0  0
 10  4  1  0  0  0  0
 10 12  1  0  0  0  0
 11  9  1  0  0  0  0
 11  5  1  0  0  0  0
 12 16  1  0  0  0  0
 13 14  1  0  0  0  0
 14 23  1  1  0  0  0
 15 18  1  1  0  0  0
 15  7  1  0  0  0  0
 16  3  2  0  0  0  0
 17  6  1  0  0  0  0
 18  6  2  0  0  0  0
 19 24  1  0  0  0  0
 19 21  1  1  0  0  0
 22 28  2  0  0  0  0
 23 25  2  0  0  0  0
 23 26  1  0  0  0  0
 25 22  1  0  0  0  0
 26 19  1  0  0  0  0
 27 26  2  0  0  0  0
 28 24  1  0  0  0  0
 28 20  1  0  0  0  0
 30 32  2  0  0  0  0
 32 29  1  0  0  0  0
 32 31  1  0  0  0  0
M  END
>  <MODEL>
4

>  <REMARK>
 VINA RESULT:      -5.9      3.547      7.545
  Name = 
  3 active torsions:
  status: ('A' for Active; 'I' for Inactive)
    1  A    between atoms: C_14  and  C_18
    2  A    between atoms: C_16  and  C_27
    3  A    between atoms: C_18  and  C_29
                            x       y       z     vdW  Elec       q    Type
                         _______ _______ _______ _____ _____    ______ ____

>  <TORSDO>
F 3

$$$$
=
 OpenBabel10262421153D

 32 36  0  0  1  0  0  0  0  0999 V2000
  186.5750  176.3350  136.7410 C   0  0  0  0  0  0  0  0  0  0  0  0
  185.8570  178.1800  138.2650 C   0  0  2  0  0  3  0  0  0  0  0  0
  187.5790  175.3690  136.2490 C   0  0  0  0  0  3  0  0  0  0  0  0
  186.8740  177.1550  137.7860 C   0  0  0  0  0  0  0  0  0  0  0  0
  185.8990  178.3640  139.6580 O   0  0  0  0  0  0  0  0  0  0  0  0
  181.6790  177.5270  139.5160 C   0  0  0  0  0  3  0  0  0  0  0  0
  184.4310  177.7760  137.9210 C   0  0  2  0  0  3  0  0  0  0  0  0
  183.4090  178.4890  141.0300 C   0  0  0  0  0  2  0  0  0  0  0  0
  183.9090  179.3330  139.8340 C   0  0  1  0  0  3  0  0  0  0  0  0
  188.2510  177.0580  138.4390 C   0  0  1  0  0  3  0  0  0  0  0  0
  185.3110  179.5360  139.8810 O   0  0  0  0  0  0  0  0  0  0  0  0
  189.3230  176.6220  137.4330 C   0  0  0  0  0  2  0  0  0  0  0  0
  184.3300  177.5290  136.4290 C   0  0  0  0  0  2  0  0  0  0  0  0
  185.2090  176.3240  136.0750 C   0  0  2  0  0  3  0  0  0  0  0  0
  183.4610  178.8440  138.4270 C   0  0  2  0  0  3  0  0  0  0  0  0
  188.8590  175.4660  136.6030 C   0  0  0  0  0  3  0  0  0  0  0  0
  182.6630  177.2190  140.6070 C   0  0  0  0  0  2  0  0  0  0  0  0
  182.0590  178.2930  138.4860 C   0  0  0  0  0  3  0  0  0  0  0  0
  182.1840  173.8040  136.1350 C   0  0  1  0  0  3  0  0  0  0  0  0
  183.4170  170.7410  137.3720 F   0  0  0  0  0  0  0  0  0  0  0  0
  180.7640  173.9330  135.5970 C   0  0  0  0  0  1  0  0  0  0  0  0
  184.6530  172.6920  137.3660 C   0  0  0  0  0  3  0  0  0  0  0  0
  184.4770  175.0150  136.2700 C   0  0  0  0  0  0  0  0  0  0  0  0
  182.7520  172.4550  135.7700 C   0  0  0  0  0  2  0  0  0  0  0  0
  185.0790  174.0670  137.0150 C   0  0  0  0  0  3  0  0  0  0  0  0
  183.1330  174.8680  135.6520 C   0  0  0  0  0  0  0  0  0  0  0  0
  182.8200  175.6200  134.5950 C   0  0  0  0  0  2  0  0  0  0  0  0
  183.6440  171.9760  136.8640 C   0  0  0  0  0  0  0  0  0  0  0  0
  188.6940  178.3690  139.0800 C   0  0  0  0  0  2  0  0  0  0  0  0
  188.5480  178.5740  141.4490 O   0  0  0  0  0  1  0  0  0  0  0  0
  190.3660  177.4150  140.6660 O   0  0  0  0  0  0  0  0  0  0  0  0
  189.1970  178.1380  140.4620 C   0  0  0  0  0  0  0  0  0  0  0  0
  1  4  2  0  0  0  0
  2  4  1  1  0  0  0
  2  5  1  0  0  0  0
  3 16  2  0  0  0  0
  3  1  1  0  0  0  0
  4 10  1  0  0  0  0
  5 11  1  0  0  0  0
  6 17  1  0  0  0  0
  7 13  1  6  0  0  0
  7  2  1  0  0  0  0
  7 15  1  0  0  0  0
  9 11  1  0  0  0  0
  9  8  1  1  0  0  0
 10 29  1  6  0  0  0
 12 10  1  0  0  0  0
 14 23  1  1  0  0  0
 14 13  1  0  0  0  0
 14  1  1  0  0  0  0
 15 18  1  1  0  0  0
 15  9  1  0  0  0  0
 16 12  1  0  0  0  0
 17  8  1  0  0  0  0
 18  6  2  0  0  0  0
 19 21  1  6  0  0  0
 23 25  2  0  0  0  0
 24 19  1  0  0  0  0
 24 28  1  0  0  0  0
 25 22  1  0  0  0  0
 26 19  1  0  0  0  0
 26 23  1  0  0  0  0
 27 26  2  0  0  0  0
 28 22  2  0  0  0  0
 28 20  1  0  0  0  0
 29 32  1  0  0  0  0
 32 31  2  0  0  0  0
 32 30  1  0  0  0  0
M  END
>  <MODEL>
5

>  <REMARK>
 VINA RESULT:      -5.8      2.983      5.985
  Name = 
  3 active torsions:
  status: ('A' for Active; 'I' for Inactive)
    1  A    between atoms: C_14  and  C_18
    2  A    between atoms: C_16  and  C_27
    3  A    between atoms: C_18  and  C_29
                            x       y       z     vdW  Elec       q    Type
                         _______ _______ _______ _____ _____    ______ ____

>  <TORSDO>
F 3

$$$$
=
 OpenBabel10262421153D

 32 36  0  0  1  0  0  0  0  0999 V2000
  187.5400  177.9360  138.9790 C   0  0  0  0  0  0  0  0  0  0  0  0
  185.1060  178.4850  139.0920 C   0  0  2  0  0  3  0  0  0  0  0  0
  188.8630  177.7440  139.6100 C   0  0  0  0  0  3  0  0  0  0  0  0
  186.4580  178.2450  139.7450 C   0  0  0  0  0  0  0  0  0  0  0  0
  184.0400  178.0260  139.8840 O   0  0  0  0  0  0  0  0  0  0  0  0
  182.8630  175.8380  136.3700 C   0  0  0  0  0  3  0  0  0  0  0  0
  184.9860  177.7790  137.7480 C   0  0  2  0  0  3  0  0  0  0  0  0
  181.9660  176.5860  138.5710 C   0  0  0  0  0  2  0  0  0  0  0  0
  182.5260  177.9940  138.2600 C   0  0  1  0  0  3  0  0  0  0  0  0
  186.6310  178.3870  141.2550 C   0  0  1  0  0  3  0  0  0  0  0  0
  182.9610  178.6610  139.4330 O   0  0  0  0  0  0  0  0  0  0  0  0
  188.0360  178.8820  141.6190 C   0  0  0  0  0  2  0  0  0  0  0  0
  186.1340  178.2090  136.8560 C   0  0  0  0  0  2  0  0  0  0  0  0
  187.4440  177.7150  137.4780 C   0  0  2  0  0  3  0  0  0  0  0  0
  183.6090  178.0600  137.1450 C   0  0  2  0  0  3  0  0  0  0  0  0
  189.0920  178.1410  140.8600 C   0  0  0  0  0  3  0  0  0  0  0  0
  182.6860  175.4650  137.8130 C   0  0  0  0  0  2  0  0  0  0  0  0
  183.3010  177.0640  136.0560 C   0  0  0  0  0  3  0  0  0  0  0  0
  189.2330  174.7640  135.5810 C   0  0  1  0  0  3  0  0  0  0  0  0
  187.6360  171.7820  136.5750 F   0  0  0  0  0  0  0  0  0  0  0  0
  190.4820  174.7480  134.7090 C   0  0  0  0  0  1  0  0  0  0  0  0
  186.8530  173.8820  137.1330 C   0  0  0  0  0  3  0  0  0  0  0  0
  187.7580  176.2920  137.0760 C   0  0  0  0  0  0  0  0  0  0  0  0
  189.2590  173.6010  136.5420 C   0  0  0  0  0  2  0  0  0  0  0  0
  186.8410  175.3460  137.3610 C   0  0  0  0  0  3  0  0  0  0  0  0
  189.0400  176.0310  136.3710 C   0  0  0  0  0  0  0  0  0  0  0  0
  190.0550  176.8830  136.5350 C   0  0  0  0  0  2  0  0  0  0  0  0
  187.8720  173.1030  136.7610 C   0  0  0  0  0  0  0  0  0  0  0  0
  185.6090  179.3300  141.8800 C   0  0  0  0  0  2  0  0  0  0  0  0
  183.7880  178.4910  143.1670 O   0  0  0  0  0  0  0  0  0  0  0  0
  185.8390  178.4150  144.1900 O   0  0  0  0  0  1  0  0  0  0  0  0
  185.0220  178.7330  143.1120 C   0  0  0  0  0  0  0  0  0  0  0  0
  1  3  1  0  0  0  0
  1  4  2  0  0  0  0
  2  4  1  1  0  0  0
  2  5  1  0  0  0  0
  3 16  2  0  0  0  0
  4 10  1  0  0  0  0
  6 17  1  0  0  0  0
  7 13  1  6  0  0  0
  7  2  1  0  0  0  0
  9  8  1  1  0  0  0
  9 11  1  0  0  0  0
 10 12  1  0  0  0  0
 10 29  1  6  0  0  0
 11  5  1  0  0  0  0
 13 14  1  0  0  0  0
 14 23  1  1  0  0  0
 14  1  1  0  0  0  0
 15 18  1  6  0  0  0
 15  7  1  0  0  0  0
 15  9  1  0  0  0  0
 16 12  1  0  0  0  0
 17  8  1  0  0  0  0
 18  6  2  0  0  0  0
 19 21  1  1  0  0  0
 19 26  1  0  0  0  0
 19 24  1  0  0  0  0
 20 28  1  0  0  0  0
 22 25  1  0  0  0  0
 23 25  2  0  0  0  0
 24 28  1  0  0  0  0
 26 27  2  0  0  0  0
 26 23  1  0  0  0  0
 28 22  2  0  0  0  0
 29 32  1  0  0  0  0
 32 30  2  0  0  0  0
 32 31  1  0  0  0  0
M  END
>  <MODEL>
6

>  <REMARK>
 VINA RESULT:      -5.8      1.832      2.799
  Name = 
  3 active torsions:
  status: ('A' for Active; 'I' for Inactive)
    1  A    between atoms: C_14  and  C_18
    2  A    between atoms: C_16  and  C_27
    3  A    between atoms: C_18  and  C_29
                            x       y       z     vdW  Elec       q    Type
                         _______ _______ _______ _____ _____    ______ ____

>  <TORSDO>
F 3

$$$$
=
 OpenBabel10262421153D

 32 36  0  0  1  0  0  0  0  0999 V2000
  189.0220  177.3010  141.3760 C   0  0  0  0  0  0  0  0  0  0  0  0
  186.8210  178.2230  142.1160 C   0  0  2  0  0  3  0  0  0  0  0  0
  190.2290  176.4770  141.5960 C   0  0  0  0  0  3  0  0  0  0  0  0
  188.0440  177.3420  142.3220 C   0  0  0  0  0  0  0  0  0  0  0  0
  185.6530  177.6490  142.6440 O   0  0  0  0  0  0  0  0  0  0  0  0
  184.0180  178.2780  138.7120 C   0  0  0  0  0  3  0  0  0  0  0  0
  186.5490  178.4890  140.6420 C   0  0  2  0  0  3  0  0  0  0  0  0
  183.3010  177.7770  141.0460 C   0  0  0  0  0  2  0  0  0  0  0  0
  184.2250  178.9240  141.5190 C   0  0  1  0  0  3  0  0  0  0  0  0
  188.2120  176.5280  143.6030 C   0  0  1  0  0  3  0  0  0  0  0  0
  184.7940  178.6540  142.7890 O   0  0  0  0  0  0  0  0  0  0  0  0
  189.6890  176.3750  143.9870 C   0  0  0  0  0  2  0  0  0  0  0  0
  187.7920  179.0810  140.0060 C   0  0  0  0  0  2  0  0  0  0  0  0
  188.9070  178.0300  140.0480 C   0  0  2  0  0  3  0  0  0  0  0  0
  185.3130  179.3780  140.5030 C   0  0  2  0  0  3  0  0  0  0  0  0
  190.5260  176.0010  142.8040 C   0  0  0  0  0  3  0  0  0  0  0  0
  183.7130  177.1840  139.6940 C   0  0  0  0  0  2  0  0  0  0  0  0
  184.7760  179.3130  139.0960 C   0  0  0  0  0  3  0  0  0  0  0  0
  190.1090  176.1250  136.8190 C   0  0  1  0  0  3  0  0  0  0  0  0
  187.3840  174.1950  135.6870 F   0  0  0  0  0  0  0  0  0  0  0  0
  191.4880  176.0100  136.1800 C   0  0  0  0  0  1  0  0  0  0  0  0
  187.2130  175.7510  137.3850 C   0  0  0  0  0  3  0  0  0  0  0  0
  188.8380  177.0870  138.8680 C   0  0  0  0  0  0  0  0  0  0  0  0
  189.4440  174.7710  136.8570 C   0  0  0  0  0  2  0  0  0  0  0  0
  187.6180  176.6780  138.4660 C   0  0  0  0  0  3  0  0  0  0  0  0
  190.1120  176.6940  138.2120 C   0  0  0  0  0  0  0  0  0  0  0  0
  191.2460  176.7530  138.9130 C   0  0  0  0  0  2  0  0  0  0  0  0
  187.9750  174.9300  136.6580 C   0  0  0  0  0  0  0  0  0  0  0  0
  187.4640  177.1310  144.7880 C   0  0  0  0  0  2  0  0  0  0  0  0
  189.2490  178.5140  145.5460 O   0  0  0  0  0  0  0  0  0  0  0  0
  188.3720  177.0860  147.1110 O   0  0  0  0  0  1  0  0  0  0  0  0
  188.4180  177.6120  145.8260 C   0  0  0  0  0  0  0  0  0  0  0  0
  1  3  1  0  0  0  0
  1  4  2  0  0  0  0
  2  4  1  6  0  0  0
  2  5  1  0  0  0  0
  3 16  2  0  0  0  0
  4 10  1  0  0  0  0
  5 11  1  0  0  0  0
  6 18  2  0  0  0  0
  6 17  1  0  0  0  0
  7 13  1  1  0  0  0
  7  2  1  0  0  0  0
  9  8  1  6  0  0  0
  9 11  1  0  0  0  0
 10 12  1  0  0  0  0
 10 29  1  1  0  0  0
 13 14  1  0  0  0  0
 14 23  1  6  0  0  0
 14  1  1  0  0  0  0
 15 18  1  6  0  0  0
 15  7  1  0  0  0  0
 15  9  1  0  0  0  0
 16 12  1  0  0  0  0
 17  8  1  0  0  0  0
 19 21  1  1  0  0  0
 19 24  1  0  0  0  0
 19 26  1  0  0  0  0
 20 28  1  0  0  0  0
 22 25  1  0  0  0  0
 25 23  2  0  0  0  0
 26 23  1  0  0  0  0
 26 27  2  0  0  0  0
 28 24  1  0  0  0  0
 28 22  2  0  0  0  0
 29 32  1  0  0  0  0
 30 32  2  0  0  0  0
 32 31  1  0  0  0  0
M  END
>  <MODEL>
7

>  <REMARK>
 VINA RESULT:      -5.6      2.009      3.102
  Name = 
  3 active torsions:
  status: ('A' for Active; 'I' for Inactive)
    1  A    between atoms: C_14  and  C_18
    2  A    between atoms: C_16  and  C_27
    3  A    between atoms: C_18  and  C_29
                            x       y       z     vdW  Elec       q    Type
                         _______ _______ _______ _____ _____    ______ ____

>  <TORSDO>
F 3

$$$$
=
 OpenBabel10262421153D

 32 36  0  0  1  0  0  0  0  0999 V2000
  185.0630  177.7890  137.7350 C   0  0  0  0  0  0  0  0  0  0  0  0
  186.8290  178.3630  139.4070 C   0  0  2  0  0  3  0  0  0  0  0  0
  184.6030  177.1010  136.5110 C   0  0  0  0  0  3  0  0  0  0  0  0
  186.3420  177.6210  138.1720 C   0  0  0  0  0  0  0  0  0  0  0  0
  187.7370  177.6030  140.1640 O   0  0  0  0  0  0  0  0  0  0  0  0
  185.0800  178.4000  143.4550 C   0  0  0  0  0  3  0  0  0  0  0  0
  185.6860  178.7330  140.3410 C   0  0  2  0  0  3  0  0  0  0  0  0
  187.3930  177.5960  142.9890 C   0  0  0  0  0  2  0  0  0  0  0  0
  187.5590  178.7960  142.0280 C   0  0  1  0  0  3  0  0  0  0  0  0
  187.2850  176.7150  137.3830 C   0  0  1  0  0  3  0  0  0  0  0  0
  188.3900  178.4780  140.9240 O   0  0  0  0  0  0  0  0  0  0  0  0
  186.9430  176.7070  135.8880 C   0  0  0  0  0  2  0  0  0  0  0  0
  184.6510  179.5290  139.5690 C   0  0  0  0  0  2  0  0  0  0  0  0
  184.0440  178.6230  138.4930 C   0  0  2  0  0  3  0  0  0  0  0  0
  186.2390  179.4740  141.5580 C   0  0  2  0  0  3  0  0  0  0  0  0
  185.4710  176.5520  135.6640 C   0  0  0  0  0  3  0  0  0  0  0  0
  185.9300  177.1890  143.2050 C   0  0  0  0  0  2  0  0  0  0  0  0
  185.2260  179.4780  142.6740 C   0  0  0  0  0  3  0  0  0  0  0  0
  180.7320  177.8130  140.4630 C   0  0  1  0  0  3  0  0  0  0  0  0
  180.1840  174.3420  140.1760 F   0  0  0  0  0  0  0  0  0  0  0  0
  179.7030  178.7320  141.1110 C   0  0  0  0  0  1  0  0  0  0  0  0
  182.1210  175.3790  139.4670 C   0  0  0  0  0  3  0  0  0  0  0  0
  182.8990  177.7950  139.0340 C   0  0  0  0  0  0  0  0  0  0  0  0
  180.0340  176.7250  139.6850 C   0  0  0  0  0  2  0  0  0  0  0  0
  183.0460  176.4550  139.0400 C   0  0  0  0  0  3  0  0  0  0  0  0
  181.7010  178.5090  139.5460 C   0  0  0  0  0  0  0  0  0  0  0  0
  181.4400  179.7390  139.0990 C   0  0  0  0  0  2  0  0  0  0  0  0
  180.8240  175.4640  139.7710 C   0  0  0  0  0  0  0  0  0  0  0  0
  188.7500  177.1070  137.5420 C   0  0  0  0  0  2  0  0  0  0  0  0
  189.4960  174.8800  137.1430 O   0  0  0  0  0  0  0  0  0  0  0  0
  190.4860  175.9530  138.9120 O   0  0  0  0  0  1  0  0  0  0  0  0
  189.5860  175.9140  137.8550 C   0  0  0  0  0  0  0  0  0  0  0  0
  1  4  2  0  0  0  0
  1 14  1  0  0  0  0
  2  4  1  6  0  0  0
  2  5  1  0  0  0  0
  2  7  1  0  0  0  0
  3  1  1  0  0  0  0
  5 11  1  0  0  0  0
  7 13  1  6  0  0  0
  7 15  1  0  0  0  0
  8 17  1  0  0  0  0
  9  8  1  6  0  0  0
 10 29  1  6  0  0  0
 10  4  1  0  0  0  0
 11  9  1  0  0  0  0
 12 10  1  0  0  0  0
 14 23  1  1  0  0  0
 14 13  1  0  0  0  0
 15  9  1  0  0  0  0
 15 18  1  1  0  0  0
 16 12  1  0  0  0  0
 16  3  2  0  0  0  0
 17  6  1  0  0  0  0
 18  6  2  0  0  0  0
 19 21  1  6  0  0  0
 22 28  2  0  0  0  0
 23 25  2  0  0  0  0
 23 26  1  0  0  0  0
 24 28  1  0  0  0  0
 24 19  1  0  0  0  0
 25 22  1  0  0  0  0
 26 19  1  0  0  0  0
 27 26  2  0  0  0  0
 28 20  1  0  0  0  0
 29 32  1  0  0  0  0
 30 32  2  0  0  0  0
 32 31  1  0  0  0  0
M  END
>  <MODEL>
8

>  <REMARK>
 VINA RESULT:      -5.5      3.492      7.894
  Name = 
  3 active torsions:
  status: ('A' for Active; 'I' for Inactive)
    1  A    between atoms: C_14  and  C_18
    2  A    between atoms: C_16  and  C_27
    3  A    between atoms: C_18  and  C_29
                            x       y       z     vdW  Elec       q    Type
                         _______ _______ _______ _____ _____    ______ ____

>  <TORSDO>
F 3

$$$$
=
 OpenBabel10262421153D

 32 36  0  0  1  0  0  0  0  0999 V2000
  188.7310  177.5070  139.6400 C   0  0  0  0  0  0  0  0  0  0  0  0
  186.6300  178.5520  140.4980 C   0  0  2  0  0  3  0  0  0  0  0  0
  190.0430  176.8600  139.8490 C   0  0  0  0  0  3  0  0  0  0  0  0
  187.9610  177.8480  140.7100 C   0  0  0  0  0  0  0  0  0  0  0  0
  185.6630  178.1620  141.4390 O   0  0  0  0  0  0  0  0  0  0  0  0
  183.2210  177.2880  138.0030 C   0  0  0  0  0  3  0  0  0  0  0  0
  186.0430  178.2650  139.1230 C   0  0  2  0  0  3  0  0  0  0  0  0
  183.0420  177.6270  140.4660 C   0  0  0  0  0  2  0  0  0  0  0  0
  183.9050  178.9000  140.2990 C   0  0  1  0  0  3  0  0  0  0  0  0
  188.4710  177.5500  142.1190 C   0  0  1  0  0  3  0  0  0  0  0  0
  184.7410  179.1210  141.4230 O   0  0  0  0  0  0  0  0  0  0  0  0
  190.0020  177.5980  142.1880 C   0  0  0  0  0  2  0  0  0  0  0  0
  187.0600  178.6360  138.0610 C   0  0  0  0  0  2  0  0  0  0  0  0
  188.2730  177.7100  138.2060 C   0  0  2  0  0  3  0  0  0  0  0  0
  184.7110  179.0010  138.9730 C   0  0  2  0  0  3  0  0  0  0  0  0
  190.6250  176.8570  141.0470 C   0  0  0  0  0  3  0  0  0  0  0  0
  183.2420  176.6060  139.3400 C   0  0  0  0  0  2  0  0  0  0  0  0
  183.9180  178.4190  137.8310 C   0  0  0  0  0  3  0  0  0  0  0  0
  188.9440  174.8840  135.5470 C   0  0  1  0  0  3  0  0  0  0  0  0
  186.4130  172.4630  135.9560 F   0  0  0  0  0  0  0  0  0  0  0  0
  190.1150  174.6620  134.5970 C   0  0  0  0  0  1  0  0  0  0  0  0
  186.3990  174.5020  137.0400 C   0  0  0  0  0  3  0  0  0  0  0  0
  188.0790  176.4070  137.4640 C   0  0  0  0  0  0  0  0  0  0  0  0
  188.5640  173.5830  136.2100 C   0  0  0  0  0  2  0  0  0  0  0  0
  186.8910  175.7840  137.5970 C   0  0  0  0  0  3  0  0  0  0  0  0
  189.1960  175.9100  136.6190 C   0  0  0  0  0  0  0  0  0  0  0  0
  190.4410  176.3060  136.8920 C   0  0  0  0  0  2  0  0  0  0  0  0
  187.0890  173.5420  136.4190 C   0  0  0  0  0  0  0  0  0  0  0  0
  187.9090  178.5090  143.1640 C   0  0  0  0  0  2  0  0  0  0  0  0
  186.5220  177.1610  144.5550 O   0  0  0  0  0  0  0  0  0  0  0  0
  188.5310  177.7860  145.4690 O   0  0  0  0  0  1  0  0  0  0  0  0
  187.6060  177.7890  144.4320 C   0  0  0  0  0  0  0  0  0  0  0  0
  1  3  1  0  0  0  0
  1  4  2  0  0  0  0
  2  4  1  1  0  0  0
  2  5  1  0  0  0  0
  3 16  2  0  0  0  0
  4 10  1  0  0  0  0
  6 17  1  0  0  0  0
  7 13  1  6  0  0  0
  7  2  1  0  0  0  0
  9  8  1  1  0  0  0
  9 11  1  0  0  0  0
 10 12  1  0  0  0  0
 10 29  1  1  0  0  0
 11  5  1  0  0  0  0
 13 14  1  0  0  0  0
 14 23  1  1  0  0  0
 14  1  1  0  0  0  0
 15 18  1  6  0  0  0
 15  7  1  0  0  0  0
 15  9  1  0  0  0  0
 16 12  1  0  0  0  0
 17  8  1  0  0  0  0
 18  6  2  0  0  0  0
 19 21  1  1  0  0  0
 19 24  1  0  0  0  0
 19 26  1  0  0  0  0
 20 28  1  0  0  0  0
 22 25  1  0  0  0  0
 23 25  2  0  0  0  0
 24 28  1  0  0  0  0
 26 27  2  0  0  0  0
 26 23  1  0  0  0  0
 28 22  2  0  0  0  0
 29 32  1  0  0  0  0
 32 30  2  0  0  0  0
 32 31  1  0  0  0  0
M  END
>  <MODEL>
9

>  <REMARK>
 VINA RESULT:      -5.5      1.842      2.631
  Name = 
  3 active torsions:
  status: ('A' for Active; 'I' for Inactive)
    1  A    between atoms: C_14  and  C_18
    2  A    between atoms: C_16  and  C_27
    3  A    between atoms: C_18  and  C_29
                            x       y       z     vdW  Elec       q    Type
                         _______ _______ _______ _____ _____    ______ ____

>  <TORSDO>
F 3

$$$$
