=
 OpenBabel10262419293D

 31 34  0  0  1  0  0  0  0  0999 V2000
  185.1780  178.3800  145.7210 C   0  0  0  0  0  0  0  0  0  0  0  0
  188.4450  177.6840  143.9720 C   0  0  0  0  0  0  0  0  0  0  0  0
  189.3920  177.3540  145.0000 C   0  0  0  0  0  0  0  0  0  0  0  0
  189.9950  176.9920  147.3440 C   0  0  0  0  0  3  0  0  0  0  0  0
  187.0780  178.0170  144.2230 C   0  0  0  0  0  0  0  0  0  0  0  0
  184.3630  178.6930  144.6340 C   0  0  0  0  0  3  0  0  0  0  0  0
  189.0530  177.3160  146.3660 C   0  0  0  0  0  3  0  0  0  0  0  0
  187.9910  178.0090  141.5650 C   0  0  0  0  0  0  0  0  0  0  0  0
  184.6450  178.4020  147.0390 N   0  0  0  0  0  1  0  0  0  0  0  0
  191.1400  177.0710  143.3270 C   0  0  0  0  0  3  0  0  0  0  0  0
  191.3080  176.6990  146.9780 C   0  0  0  0  0  0  0  0  0  0  0  0
  186.7090  178.3230  141.8690 N   0  0  0  0  0  0  0  0  0  0  0  0
  188.8950  177.6880  142.6130 C   0  0  0  0  0  0  0  0  0  0  0  0
  186.5170  178.0480  145.5140 C   0  0  0  0  0  3  0  0  0  0  0  0
  192.2450  176.3770  147.9490 O   0  0  0  0  0  1  0  0  0  0  0  0
  186.2330  178.3360  143.1340 C   0  0  0  0  0  0  0  0  0  0  0  0
  184.8910  178.6700  143.3440 C   0  0  0  0  0  3  0  0  0  0  0  0
  190.2320  177.3840  142.3280 C   0  0  0  0  0  3  0  0  0  0  0  0
  190.7340  177.0510  144.6510 C   0  0  0  0  0  0  0  0  0  0  0  0
  191.6750  176.7280  145.6340 C   0  0  0  0  0  3  0  0  0  0  0  0
  187.4670  178.1440  139.1260 C   0  0  0  0  0  3  0  0  0  0  0  0
  188.3370  178.0450  140.1240 C   0  0  0  0  0  3  0  0  0  0  0  0
  187.2840  179.1750  136.9960 O   0  0  0  0  0  1  0  0  0  0  0  0
  187.9220  178.1540  137.7040 C   0  0  1  0  0  3  0  0  0  0  0  0
  189.4400  178.3050  137.6090 C   0  0  0  0  0  2  0  0  0  0  0  0
  189.6570  176.6710  135.8870 O   0  0  0  0  0  0  0  0  0  0  0  0
  190.0970  177.1190  136.9780 C   0  0  0  0  0  0  0  0  0  0  0  0
  191.2200  176.5130  137.6320 N   0  0  0  0  0  2  0  0  0  0  0  0
  192.1090  175.5310  137.0830 C   0  0  0  0  0  0  0  0  0  0  0  0
  193.6170  175.9110  136.5670 S   0  0  0  0  0  0  0  0  0  0  0  0
  191.7270  174.0970  137.1630 C   0  0  0  0  0  1  0  0  0  0  0  0
  1  9  1  0  0  0  0
  2  5  1  0  0  0  0
  2  3  1  0  0  0  0
  3  7  1  0  0  0  0
  5 14  2  0  0  0  0
  6  1  2  0  0  0  0
  7  4  2  0  0  0  0
  8 12  2  0  0  0  0
  8 13  1  0  0  0  0
 10 19  1  0  0  0  0
 11  4  1  0  0  0  0
 11 15  1  0  0  0  0
 12 16  1  0  0  0  0
 13  2  2  0  0  0  0
 14  1  1  0  0  0  0
 16 17  2  0  0  0  0
 16  5  1  0  0  0  0
 17  6  1  0  0  0  0
 18 13  1  0  0  0  0
 18 10  2  0  0  0  0
 19  3  2  0  0  0  0
 19 20  1  0  0  0  0
 20 11  2  0  0  0  0
 21 22  2  0  0  0  0
 22  8  1  0  0  0  0
 24 23  1  6  0  0  0
 24 21  1  0  0  0  0
 25 24  1  0  0  0  0
 26 27  2  0  0  0  0
 27 25  1  0  0  0  0
 27 28  1  0  0  0  0
 29 31  1  0  0  0  0
 29 28  1  0  0  0  0
 30 29  2  0  0  0  0
M  END
>  <MODEL>
1

>  <REMARK>
 VINA RESULT:     -10.6      0.000      0.000
  Name = 
  5 active torsions:
  status: ('A' for Active; 'I' for Inactive)
    1  A    between atoms: C_1  and  N_24
    2  A    between atoms: C_3  and  C_19
    3  A    between atoms: C_3  and  C_22
    4  A    between atoms: C_9  and  C_22
    5  A    between atoms: C_15  and  C_23
                            x       y       z     vdW  Elec       q    Type
                         _______ _______ _______ _____ _____    ______ ____

>  <TORSDO>
F 5

$$$$
=
 OpenBabel10262419293D

 31 34  0  0  1  0  0  0  0  0999 V2000
  185.2410  178.3640  145.4840 C   0  0  0  0  0  0  0  0  0  0  0  0
  188.6090  177.7100  143.9210 C   0  0  0  0  0  0  0  0  0  0  0  0
  189.4940  177.3630  144.9970 C   0  0  0  0  0  0  0  0  0  0  0  0
  189.9590  176.9590  147.3660 C   0  0  0  0  0  3  0  0  0  0  0  0
  187.2280  178.0340  144.0970 C   0  0  0  0  0  0  0  0  0  0  0  0
  184.4910  178.6950  144.3580 C   0  0  0  0  0  3  0  0  0  0  0  0
  189.0750  177.2990  146.3400 C   0  0  0  0  0  3  0  0  0  0  0  0
  188.2970  178.0770  141.4980 C   0  0  0  0  0  0  0  0  0  0  0  0
  184.6310  178.3610  146.7690 N   0  0  0  0  0  1  0  0  0  0  0  0
  191.3390  177.1150  143.4260 C   0  0  0  0  0  3  0  0  0  0  0  0
  191.2910  176.6770  147.0730 C   0  0  0  0  0  0  0  0  0  0  0  0
  186.9990  178.3820  141.7310 N   0  0  0  0  0  0  0  0  0  0  0  0
  189.1390  177.7400  142.5920 C   0  0  0  0  0  0  0  0  0  0  0  0
  186.5910  178.0400  145.3520 C   0  0  0  0  0  3  0  0  0  0  0  0
  192.1710  176.3390  148.0930 O   0  0  0  0  0  1  0  0  0  0  0  0
  186.4480  178.3710  142.9650 C   0  0  0  0  0  0  0  0  0  0  0  0
  185.0950  178.6970  143.1010 C   0  0  0  0  0  3  0  0  0  0  0  0
  190.4920  177.4450  142.3810 C   0  0  0  0  0  3  0  0  0  0  0  0
  190.8560  177.0700  144.7230 C   0  0  0  0  0  0  0  0  0  0  0  0
  191.7380  176.7320  145.7550 C   0  0  0  0  0  3  0  0  0  0  0  0
  187.9320  178.0050  139.0270 C   0  0  0  0  0  3  0  0  0  0  0  0
  188.7280  178.1410  140.0800 C   0  0  0  0  0  3  0  0  0  0  0  0
  188.7110  179.3940  137.2680 O   0  0  0  0  0  1  0  0  0  0  0  0
  188.4730  178.0690  137.6370 C   0  0  1  0  0  3  0  0  0  0  0  0
  189.7490  177.2380  137.5010 C   0  0  0  0  0  2  0  0  0  0  0  0
  190.1420  174.9370  137.9790 O   0  0  0  0  0  0  0  0  0  0  0  0
  189.4690  175.7790  137.3290 C   0  0  0  0  0  0  0  0  0  0  0  0
  188.4380  175.3680  136.4220 N   0  0  0  0  0  2  0  0  0  0  0  0
  187.8780  174.0540  136.2940 C   0  0  0  0  0  0  0  0  0  0  0  0
  188.6200  172.8690  135.4380 S   0  0  0  0  0  0  0  0  0  0  0  0
  186.6940  173.6990  137.1180 C   0  0  0  0  0  1  0  0  0  0  0  0
  1  9  1  0  0  0  0
  2  5  1  0  0  0  0
  2  3  1  0  0  0  0
  3  7  1  0  0  0  0
  5 14  2  0  0  0  0
  6  1  2  0  0  0  0
  7  4  2  0  0  0  0
  8 12  2  0  0  0  0
  8 13  1  0  0  0  0
 10 19  1  0  0  0  0
 11  4  1  0  0  0  0
 11 15  1  0  0  0  0
 12 16  1  0  0  0  0
 13  2  2  0  0  0  0
 14  1  1  0  0  0  0
 16 17  2  0  0  0  0
 16  5  1  0  0  0  0
 17  6  1  0  0  0  0
 18 13  1  0  0  0  0
 18 10  2  0  0  0  0
 19  3  2  0  0  0  0
 19 20  1  0  0  0  0
 20 11  2  0  0  0  0
 21 22  2  0  0  0  0
 22  8  1  0  0  0  0
 24 23  1  1  0  0  0
 24 21  1  0  0  0  0
 25 24  1  0  0  0  0
 27 25  1  0  0  0  0
 27 26  2  0  0  0  0
 28 27  1  0  0  0  0
 29 28  1  0  0  0  0
 29 31  1  0  0  0  0
 30 29  2  0  0  0  0
M  END
>  <MODEL>
2

>  <REMARK>
 VINA RESULT:     -10.5      1.766      1.860
  Name = 
  5 active torsions:
  status: ('A' for Active; 'I' for Inactive)
    1  A    between atoms: C_1  and  N_24
    2  A    between atoms: C_3  and  C_19
    3  A    between atoms: C_3  and  C_22
    4  A    between atoms: C_9  and  C_22
    5  A    between atoms: C_15  and  C_23
                            x       y       z     vdW  Elec       q    Type
                         _______ _______ _______ _____ _____    ______ ____

>  <TORSDO>
F 5

$$$$
=
 OpenBabel10262419293D

 31 34  0  0  1  0  0  0  0  0999 V2000
  185.4970  178.3700  145.6360 C   0  0  0  0  0  0  0  0  0  0  0  0
  188.7800  177.3930  144.0580 C   0  0  0  0  0  0  0  0  0  0  0  0
  189.6800  177.1060  145.1400 C   0  0  0  0  0  0  0  0  0  0  0  0
  190.1960  176.9110  147.5250 C   0  0  0  0  0  3  0  0  0  0  0  0
  187.4230  177.8030  144.2370 C   0  0  0  0  0  0  0  0  0  0  0  0
  184.7310  178.6280  144.5010 C   0  0  0  0  0  3  0  0  0  0  0  0
  189.2990  177.1940  146.4940 C   0  0  0  0  0  3  0  0  0  0  0  0
  188.4130  177.5390  141.6200 C   0  0  0  0  0  0  0  0  0  0  0  0
  184.9280  178.5220  146.9290 N   0  0  0  0  0  1  0  0  0  0  0  0
  191.4610  176.6120  143.5540 C   0  0  0  0  0  3  0  0  0  0  0  0
  191.5030  176.5320  147.2270 C   0  0  0  0  0  0  0  0  0  0  0  0
  187.1390  177.9320  141.8550 N   0  0  0  0  0  0  0  0  0  0  0  0
  189.2690  177.2660  142.7200 C   0  0  0  0  0  0  0  0  0  0  0  0
  186.8260  177.9640  145.5020 C   0  0  0  0  0  3  0  0  0  0  0  0
  192.3960  176.2500  148.2520 O   0  0  0  0  0  1  0  0  0  0  0  0
  186.6260  178.0690  143.0970 C   0  0  0  0  0  0  0  0  0  0  0  0
  185.2950  178.4770  143.2360 C   0  0  0  0  0  3  0  0  0  0  0  0
  190.5990  176.8820  142.5040 C   0  0  0  0  0  3  0  0  0  0  0  0
  191.0160  176.7180  144.8620 C   0  0  0  0  0  0  0  0  0  0  0  0
  191.9120  176.4360  145.8980 C   0  0  0  0  0  3  0  0  0  0  0  0
  188.9210  178.4660  139.3550 C   0  0  0  0  0  3  0  0  0  0  0  0
  188.8020  177.4430  140.1920 C   0  0  0  0  0  3  0  0  0  0  0  0
  189.6920  176.9320  137.7180 O   0  0  0  0  0  1  0  0  0  0  0  0
  189.3030  178.2570  137.9280 C   0  0  1  0  0  3  0  0  0  0  0  0
  188.1580  178.6330  136.9870 C   0  0  0  0  0  2  0  0  0  0  0  0
  186.6490  176.8140  137.2980 O   0  0  0  0  0  0  0  0  0  0  0  0
  186.8480  178.0510  137.4150 C   0  0  0  0  0  0  0  0  0  0  0  0
  185.8410  178.9200  137.9500 N   0  0  0  0  0  2  0  0  0  0  0  0
  184.6310  178.5280  138.6140 C   0  0  0  0  0  0  0  0  0  0  0  0
  183.7150  177.2750  138.0900 S   0  0  0  0  0  0  0  0  0  0  0  0
  184.3020  179.1490  139.9230 C   0  0  0  0  0  1  0  0  0  0  0  0
  1  9  1  0  0  0  0
  2  5  1  0  0  0  0
  2  3  1  0  0  0  0
  3  7  1  0  0  0  0
  5 14  2  0  0  0  0
  6  1  2  0  0  0  0
  7  4  2  0  0  0  0
  8 12  2  0  0  0  0
  8 13  1  0  0  0  0
 10 19  1  0  0  0  0
 11  4  1  0  0  0  0
 11 15  1  0  0  0  0
 12 16  1  0  0  0  0
 13  2  2  0  0  0  0
 14  1  1  0  0  0  0
 16 17  2  0  0  0  0
 16  5  1  0  0  0  0
 17  6  1  0  0  0  0
 18 13  1  0  0  0  0
 18 10  2  0  0  0  0
 19  3  2  0  0  0  0
 19 20  1  0  0  0  0
 20 11  2  0  0  0  0
 21 22  2  0  0  0  0
 22  8  1  0  0  0  0
 24 23  1  1  0  0  0
 24 21  1  0  0  0  0
 25 27  1  0  0  0  0
 25 24  1  0  0  0  0
 26 27  2  0  0  0  0
 27 28  1  0  0  0  0
 28 29  1  0  0  0  0
 29 31  1  0  0  0  0
 30 29  2  0  0  0  0
M  END
>  <MODEL>
3

>  <REMARK>
 VINA RESULT:     -10.5      2.521      3.301
  Name = 
  5 active torsions:
  status: ('A' for Active; 'I' for Inactive)
    1  A    between atoms: C_1  and  N_24
    2  A    between atoms: C_3  and  C_19
    3  A    between atoms: C_3  and  C_22
    4  A    between atoms: C_9  and  C_22
    5  A    between atoms: C_15  and  C_23
                            x       y       z     vdW  Elec       q    Type
                         _______ _______ _______ _____ _____    ______ ____

>  <TORSDO>
F 5

$$$$
=
 OpenBabel10262419293D

 31 34  0  0  1  0  0  0  0  0999 V2000
  190.3420  177.5780  140.6830 C   0  0  0  0  0  0  0  0  0  0  0  0
  188.4540  177.6440  143.9460 C   0  0  0  0  0  0  0  0  0  0  0  0
  189.4100  177.3400  144.9740 C   0  0  0  0  0  0  0  0  0  0  0  0
  191.6770  176.8000  145.7220 C   0  0  0  0  0  3  0  0  0  0  0  0
  188.7730  177.7170  142.5550 C   0  0  0  0  0  0  0  0  0  0  0  0
  189.3190  177.8720  139.7840 C   0  0  0  0  0  3  0  0  0  0  0  0
  190.7700  177.0940  144.7020 C   0  0  0  0  0  3  0  0  0  0  0  0
  186.1190  178.1880  143.3500 C   0  0  0  0  0  0  0  0  0  0  0  0
  191.6630  177.3540  140.2080 N   0  0  0  0  0  1  0  0  0  0  0  0
  187.6700  177.5070  146.6700 C   0  0  0  0  0  3  0  0  0  0  0  0
  191.2440  176.7420  147.0450 C   0  0  0  0  0  0  0  0  0  0  0  0
  186.4830  178.2340  142.0460 N   0  0  0  0  0  0  0  0  0  0  0  0
  187.0970  177.8840  144.3340 C   0  0  0  0  0  0  0  0  0  0  0  0
  190.0700  177.5010  142.0490 C   0  0  0  0  0  3  0  0  0  0  0  0
  192.1450  176.4500  148.0590 O   0  0  0  0  0  1  0  0  0  0  0  0
  187.7480  178.0150  141.6250 C   0  0  0  0  0  0  0  0  0  0  0  0
  188.0250  178.0900  140.2560 C   0  0  0  0  0  3  0  0  0  0  0  0
  186.7410  177.8050  145.6860 C   0  0  0  0  0  3  0  0  0  0  0  0
  188.9930  177.2770  146.3290 C   0  0  0  0  0  0  0  0  0  0  0  0
  189.9050  176.9810  147.3470 C   0  0  0  0  0  3  0  0  0  0  0  0
  183.7210  178.4950  142.7160 C   0  0  0  0  0  3  0  0  0  0  0  0
  184.6870  178.4560  143.6260 C   0  0  0  0  0  3  0  0  0  0  0  0
  182.2610  179.8890  143.9640 O   0  0  0  0  0  1  0  0  0  0  0  0
  182.3100  178.7920  143.1010 C   0  0  1  0  0  3  0  0  0  0  0  0
  181.4410  179.0420  141.8680 C   0  0  0  0  0  2  0  0  0  0  0  0
  179.4310  177.8640  142.3690 O   0  0  0  0  0  0  0  0  0  0  0  0
  180.4480  177.9490  141.6330 C   0  0  0  0  0  0  0  0  0  0  0  0
  180.6780  177.0150  140.5700 N   0  0  0  0  0  2  0  0  0  0  0  0
  179.7470  176.0560  140.0510 C   0  0  0  0  0  0  0  0  0  0  0  0
  178.9320  176.2990  138.6500 S   0  0  0  0  0  0  0  0  0  0  0  0
  179.6620  174.7200  140.6970 C   0  0  0  0  0  1  0  0  0  0  0  0
  1 14  1  0  0  0  0
  2 13  2  0  0  0  0
  2  3  1  0  0  0  0
  3 19  1  0  0  0  0
  4 11  2  0  0  0  0
  5  2  1  0  0  0  0
  6 17  1  0  0  0  0
  6  1  2  0  0  0  0
  7  3  2  0  0  0  0
  7  4  1  0  0  0  0
  8 22  1  0  0  0  0
  8 13  1  0  0  0  0
  9  1  1  0  0  0  0
 11 20  1  0  0  0  0
 11 15  1  0  0  0  0
 12  8  2  0  0  0  0
 13 18  1  0  0  0  0
 14  5  2  0  0  0  0
 16 12  1  0  0  0  0
 16  5  1  0  0  0  0
 17 16  2  0  0  0  0
 18 10  2  0  0  0  0
 19 10  1  0  0  0  0
 19 20  2  0  0  0  0
 21 24  1  0  0  0  0
 21 22  2  0  0  0  0
 24 23  1  1  0  0  0
 25 24  1  0  0  0  0
 27 25  1  0  0  0  0
 27 26  2  0  0  0  0
 28 27  1  0  0  0  0
 29 28  1  0  0  0  0
 29 31  1  0  0  0  0
 30 29  2  0  0  0  0
M  END
>  <MODEL>
4

>  <REMARK>
 VINA RESULT:      -9.9      4.328      7.029
  Name = 
  5 active torsions:
  status: ('A' for Active; 'I' for Inactive)
    1  A    between atoms: C_1  and  N_24
    2  A    between atoms: C_3  and  C_19
    3  A    between atoms: C_3  and  C_22
    4  A    between atoms: C_9  and  C_22
    5  A    between atoms: C_15  and  C_23
                            x       y       z     vdW  Elec       q    Type
                         _______ _______ _______ _____ _____    ______ ____

>  <TORSDO>
F 5

$$$$
=
 OpenBabel10262419293D

 31 34  0  0  1  0  0  0  0  0999 V2000
  188.6450  177.3220  147.3790 C   0  0  0  0  0  0  0  0  0  0  0  0
  187.5000  177.9700  143.8460 C   0  0  0  0  0  0  0  0  0  0  0  0
  186.0940  178.2540  143.9210 C   0  0  0  0  0  0  0  0  0  0  0  0
  184.0160  178.5520  145.1800 C   0  0  0  0  0  3  0  0  0  0  0  0
  188.3150  177.6680  144.9800 C   0  0  0  0  0  0  0  0  0  0  0  0
  189.9960  177.0530  147.1700 C   0  0  0  0  0  3  0  0  0  0  0  0
  185.3830  178.2730  145.1370 C   0  0  0  0  0  3  0  0  0  0  0  0
  189.5130  177.7080  142.4380 C   0  0  0  0  0  0  0  0  0  0  0  0
  188.1080  177.2850  148.6950 N   0  0  0  0  0  1  0  0  0  0  0  0
  185.9990  178.5280  141.5030 C   0  0  0  0  0  3  0  0  0  0  0  0
  183.3220  178.8180  144.0020 C   0  0  0  0  0  0  0  0  0  0  0  0
  190.2300  177.4210  143.5510 N   0  0  0  0  0  0  0  0  0  0  0  0
  188.1240  177.9840  142.5580 C   0  0  0  0  0  0  0  0  0  0  0  0
  187.8180  177.6240  146.2970 C   0  0  0  0  0  3  0  0  0  0  0  0
  181.9620  179.0960  144.0430 O   0  0  0  0  0  1  0  0  0  0  0  0
  189.6900  177.3930  144.7890 C   0  0  0  0  0  0  0  0  0  0  0  0
  190.5160  177.0900  145.8770 C   0  0  0  0  0  3  0  0  0  0  0  0
  187.3550  178.2590  141.4200 C   0  0  0  0  0  3  0  0  0  0  0  0
  185.3660  178.5300  142.7350 C   0  0  0  0  0  0  0  0  0  0  0  0
  183.9960  178.8080  142.7830 C   0  0  0  0  0  3  0  0  0  0  0  0
  191.5050  177.2280  141.0070 C   0  0  0  0  0  3  0  0  0  0  0  0
  190.2710  177.6930  141.1640 C   0  0  0  0  0  3  0  0  0  0  0  0
  193.5570  177.4840  139.8440 O   0  0  0  0  0  1  0  0  0  0  0  0
  192.1850  177.2770  139.6800 C   0  0  1  0  0  3  0  0  0  0  0  0
  191.9290  176.0010  138.8780 C   0  0  0  0  0  2  0  0  0  0  0  0
  189.9530  175.0270  137.9670 O   0  0  0  0  0  0  0  0  0  0  0  0
  190.6590  176.0620  138.0910 C   0  0  0  0  0  0  0  0  0  0  0  0
  190.2700  177.3040  137.4880 N   0  0  0  0  0  2  0  0  0  0  0  0
  189.0000  177.6140  136.9000 C   0  0  0  0  0  0  0  0  0  0  0  0
  188.7340  177.5010  135.2870 S   0  0  0  0  0  0  0  0  0  0  0  0
  187.8380  177.8570  137.7950 C   0  0  0  0  0  1  0  0  0  0  0  0
  1  9  1  0  0  0  0
  2  3  1  0  0  0  0
  2  5  1  0  0  0  0
  3  7  2  0  0  0  0
  5 14  1  0  0  0  0
  6  1  1  0  0  0  0
  7  4  1  0  0  0  0
  8 13  1  0  0  0  0
  8 12  2  0  0  0  0
 10 19  1  0  0  0  0
 11 15  1  0  0  0  0
 11  4  2  0  0  0  0
 12 16  1  0  0  0  0
 13  2  2  0  0  0  0
 14  1  2  0  0  0  0
 16  5  2  0  0  0  0
 16 17  1  0  0  0  0
 17  6  2  0  0  0  0
 18 10  2  0  0  0  0
 18 13  1  0  0  0  0
 19 20  2  0  0  0  0
 19  3  1  0  0  0  0
 20 11  1  0  0  0  0
 21 22  2  0  0  0  0
 22  8  1  0  0  0  0
 24 23  1  1  0  0  0
 24 21  1  0  0  0  0
 25 24  1  0  0  0  0
 26 27  2  0  0  0  0
 27 25  1  0  0  0  0
 28 27  1  0  0  0  0
 29 28  1  0  0  0  0
 29 31  1  0  0  0  0
 30 29  2  0  0  0  0
M  END
>  <MODEL>
5

>  <REMARK>
 VINA RESULT:      -9.8      2.635      4.998
  Name = 
  5 active torsions:
  status: ('A' for Active; 'I' for Inactive)
    1  A    between atoms: C_1  and  N_24
    2  A    between atoms: C_3  and  C_19
    3  A    between atoms: C_3  and  C_22
    4  A    between atoms: C_9  and  C_22
    5  A    between atoms: C_15  and  C_23
                            x       y       z     vdW  Elec       q    Type
                         _______ _______ _______ _____ _____    ______ ____

>  <TORSDO>
F 5

$$$$
=
 OpenBabel10262419293D

 31 34  0  0  1  0  0  0  0  0999 V2000
  190.4190  176.8040  146.3040 C   0  0  0  0  0  0  0  0  0  0  0  0
  188.2290  177.7710  143.3910 C   0  0  0  0  0  0  0  0  0  0  0  0
  186.9450  178.1030  143.9420 C   0  0  0  0  0  0  0  0  0  0  0  0
  185.4140  178.3820  145.8310 C   0  0  0  0  0  3  0  0  0  0  0  0
  189.3490  177.3490  144.1730 C   0  0  0  0  0  0  0  0  0  0  0  0
  191.6090  176.5000  145.6450 C   0  0  0  0  0  3  0  0  0  0  0  0
  186.6720  178.0540  145.3230 C   0  0  0  0  0  3  0  0  0  0  0  0
  189.6540  177.5410  141.3860 C   0  0  0  0  0  0  0  0  0  0  0  0
  190.3390  176.6860  147.7190 N   0  0  0  0  0  1  0  0  0  0  0  0
  186.0860  178.5690  141.7110 C   0  0  0  0  0  3  0  0  0  0  0  0
  184.3910  178.7670  144.9650 C   0  0  0  0  0  0  0  0  0  0  0  0
  190.6740  177.1400  142.1810 N   0  0  0  0  0  0  0  0  0  0  0  0
  188.4010  177.8600  141.9730 C   0  0  0  0  0  0  0  0  0  0  0  0
  189.3060  177.2220  145.5750 C   0  0  0  0  0  3  0  0  0  0  0  0
  183.1400  179.0940  145.4680 O   0  0  0  0  0  1  0  0  0  0  0  0
  190.5670  177.0360  143.5240 C   0  0  0  0  0  0  0  0  0  0  0  0
  191.6810  176.6170  144.2580 C   0  0  0  0  0  3  0  0  0  0  0  0
  187.3220  178.2540  141.1700 C   0  0  0  0  0  3  0  0  0  0  0  0
  185.8900  178.4990  143.0810 C   0  0  0  0  0  0  0  0  0  0  0  0
  184.6300  178.8260  143.5940 C   0  0  0  0  0  3  0  0  0  0  0  0
  190.4780  176.6090  139.2190 C   0  0  0  0  0  3  0  0  0  0  0  0
  189.9540  177.5960  139.9350 C   0  0  0  0  0  3  0  0  0  0  0  0
  192.0530  176.3490  137.4630 O   0  0  0  0  0  1  0  0  0  0  0  0
  190.7580  176.7760  137.7620 C   0  0  1  0  0  3  0  0  0  0  0  0
  189.7360  176.0210  136.9120 C   0  0  0  0  0  2  0  0  0  0  0  0
  188.4970  177.7190  135.7900 O   0  0  0  0  0  0  0  0  0  0  0  0
  188.4930  176.8150  136.6660 C   0  0  0  0  0  0  0  0  0  0  0  0
  187.3190  176.5300  137.4370 N   0  0  0  0  0  2  0  0  0  0  0  0
  185.9920  177.0170  137.1950 C   0  0  0  0  0  0  0  0  0  0  0  0
  184.9210  176.2020  136.2600 S   0  0  0  0  0  0  0  0  0  0  0  0
  185.5090  178.1900  137.9680 C   0  0  0  0  0  1  0  0  0  0  0  0
  1  9  1  0  0  0  0
  2  3  1  0  0  0  0
  2  5  1  0  0  0  0
  3  7  2  0  0  0  0
  5 14  1  0  0  0  0
  6  1  1  0  0  0  0
  7  4  1  0  0  0  0
  8 13  1  0  0  0  0
  8 12  2  0  0  0  0
 10 19  1  0  0  0  0
 11 15  1  0  0  0  0
 11  4  2  0  0  0  0
 12 16  1  0  0  0  0
 13  2  2  0  0  0  0
 14  1  2  0  0  0  0
 16  5  2  0  0  0  0
 16 17  1  0  0  0  0
 17  6  2  0  0  0  0
 18 10  2  0  0  0  0
 18 13  1  0  0  0  0
 19 20  2  0  0  0  0
 19  3  1  0  0  0  0
 20 11  1  0  0  0  0
 21 22  2  0  0  0  0
 22  8  1  0  0  0  0
 24 23  1  1  0  0  0
 24 21  1  0  0  0  0
 25 24  1  0  0  0  0
 26 27  2  0  0  0  0
 27 25  1  0  0  0  0
 27 28  1  0  0  0  0
 29 28  1  0  0  0  0
 29 31  1  0  0  0  0
 30 29  2  0  0  0  0
M  END
>  <MODEL>
6

>  <REMARK>
 VINA RESULT:      -9.6      3.021      5.095
  Name = 
  5 active torsions:
  status: ('A' for Active; 'I' for Inactive)
    1  A    between atoms: C_1  and  N_24
    2  A    between atoms: C_3  and  C_19
    3  A    between atoms: C_3  and  C_22
    4  A    between atoms: C_9  and  C_22
    5  A    between atoms: C_15  and  C_23
                            x       y       z     vdW  Elec       q    Type
                         _______ _______ _______ _____ _____    ______ ____

>  <TORSDO>
F 5

$$$$
=
 OpenBabel10262419293D

 31 34  0  0  1  0  0  0  0  0999 V2000
  190.3230  177.0280  146.3320 C   0  0  0  0  0  0  0  0  0  0  0  0
  188.1280  177.8550  143.3800 C   0  0  0  0  0  0  0  0  0  0  0  0
  186.8500  178.2300  143.9180 C   0  0  0  0  0  0  0  0  0  0  0  0
  185.3300  178.6270  145.7950 C   0  0  0  0  0  3  0  0  0  0  0  0
  189.2470  177.4660  144.1790 C   0  0  0  0  0  0  0  0  0  0  0  0
  191.5060  176.6770  145.6860 C   0  0  0  0  0  3  0  0  0  0  0  0
  186.5830  178.2590  145.3000 C   0  0  0  0  0  3  0  0  0  0  0  0
  189.5410  177.5020  141.3840 C   0  0  0  0  0  0  0  0  0  0  0  0
  190.2480  176.9890  147.7520 N   0  0  0  0  0  1  0  0  0  0  0  0
  185.9840  178.5800  141.6680 C   0  0  0  0  0  3  0  0  0  0  0  0
  184.3070  178.9740  144.9140 C   0  0  0  0  0  0  0  0  0  0  0  0
  190.5610  177.1350  142.1960 N   0  0  0  0  0  0  0  0  0  0  0  0
  188.2930  177.8650  141.9590 C   0  0  0  0  0  0  0  0  0  0  0  0
  189.2100  177.4160  145.5860 C   0  0  0  0  0  3  0  0  0  0  0  0
  183.0610  179.3390  145.4040 O   0  0  0  0  0  1  0  0  0  0  0  0
  190.4600  177.1070  143.5430 C   0  0  0  0  0  0  0  0  0  0  0  0
  191.5730  176.7170  144.2950 C   0  0  0  0  0  3  0  0  0  0  0  0
  187.2140  178.2250  141.1400 C   0  0  0  0  0  3  0  0  0  0  0  0
  185.7940  178.5880  143.0400 C   0  0  0  0  0  0  0  0  0  0  0  0
  184.5400  178.9550  143.5400 C   0  0  0  0  0  3  0  0  0  0  0  0
  190.3150  176.4340  139.2620 C   0  0  0  0  0  3  0  0  0  0  0  0
  189.8340  177.4750  139.9310 C   0  0  0  0  0  3  0  0  0  0  0  0
  189.8290  177.5330  137.2160 O   0  0  0  0  0  1  0  0  0  0  0  0
  190.5930  176.5190  137.7980 C   0  0  1  0  0  3  0  0  0  0  0  0
  192.0800  176.7480  137.5280 C   0  0  0  0  0  2  0  0  0  0  0  0
  192.2950  174.3790  137.6910 O   0  0  0  0  0  0  0  0  0  0  0  0
  192.8840  175.4900  137.6330 C   0  0  0  0  0  0  0  0  0  0  0  0
  194.3140  175.5780  137.6670 N   0  0  0  0  0  2  0  0  0  0  0  0
  195.2450  174.4950  137.5370 C   0  0  0  0  0  0  0  0  0  0  0  0
  196.1870  174.3090  136.2080 S   0  0  0  0  0  0  0  0  0  0  0  0
  195.5050  173.6300  138.7170 C   0  0  0  0  0  1  0  0  0  0  0  0
  1  9  1  0  0  0  0
  2  3  1  0  0  0  0
  2  5  1  0  0  0  0
  3  7  2  0  0  0  0
  5 14  1  0  0  0  0
  6  1  1  0  0  0  0
  7  4  1  0  0  0  0
  8 13  1  0  0  0  0
  8 12  2  0  0  0  0
 10 19  1  0  0  0  0
 11 15  1  0  0  0  0
 11  4  2  0  0  0  0
 12 16  1  0  0  0  0
 13  2  2  0  0  0  0
 14  1  2  0  0  0  0
 16  5  2  0  0  0  0
 16 17  1  0  0  0  0
 17  6  2  0  0  0  0
 18 10  2  0  0  0  0
 18 13  1  0  0  0  0
 19 20  2  0  0  0  0
 19  3  1  0  0  0  0
 20 11  1  0  0  0  0
 21 22  2  0  0  0  0
 22  8  1  0  0  0  0
 24 23  1  1  0  0  0
 24 21  1  0  0  0  0
 25 27  1  0  0  0  0
 25 24  1  0  0  0  0
 27 28  1  0  0  0  0
 27 26  2  0  0  0  0
 29 28  1  0  0  0  0
 29 31  1  0  0  0  0
 30 29  2  0  0  0  0
M  END
>  <MODEL>
7

>  <REMARK>
 VINA RESULT:      -9.4      2.704      4.652
  Name = 
  5 active torsions:
  status: ('A' for Active; 'I' for Inactive)
    1  A    between atoms: C_1  and  N_24
    2  A    between atoms: C_3  and  C_19
    3  A    between atoms: C_3  and  C_22
    4  A    between atoms: C_9  and  C_22
    5  A    between atoms: C_15  and  C_23
                            x       y       z     vdW  Elec       q    Type
                         _______ _______ _______ _____ _____    ______ ____

>  <TORSDO>
F 5

$$$$
=
 OpenBabel10262419293D

 31 34  0  0  1  0  0  0  0  0999 V2000
  190.0910  177.5100  140.7150 C   0  0  0  0  0  0  0  0  0  0  0  0
  186.8290  178.2350  142.4620 C   0  0  0  0  0  0  0  0  0  0  0  0
  187.0700  178.0440  143.8650 C   0  0  0  0  0  0  0  0  0  0  0  0
  188.5310  177.4900  145.7490 C   0  0  0  0  0  3  0  0  0  0  0  0
  187.8230  178.0560  141.4500 C   0  0  0  0  0  0  0  0  0  0  0  0
  189.7260  177.7160  139.3870 C   0  0  0  0  0  3  0  0  0  0  0  0
  188.3270  177.6690  144.3800 C   0  0  0  0  0  3  0  0  0  0  0  0
  185.2340  178.8220  140.6700 C   0  0  0  0  0  0  0  0  0  0  0  0
  191.4220  177.1250  141.0360 N   0  0  0  0  0  1  0  0  0  0  0  0
  184.7510  178.6000  144.3590 C   0  0  0  0  0  3  0  0  0  0  0  0
  187.4780  177.6800  146.6420 C   0  0  0  0  0  0  0  0  0  0  0  0
  186.2160  178.6290  139.7580 N   0  0  0  0  0  0  0  0  0  0  0  0
  185.5150  178.6220  142.0480 C   0  0  0  0  0  0  0  0  0  0  0  0
  189.1490  177.6770  141.7310 C   0  0  0  0  0  3  0  0  0  0  0  0
  187.6800  177.5020  148.0040 O   0  0  0  0  0  1  0  0  0  0  0  0
  187.4730  178.2620  140.0940 C   0  0  0  0  0  0  0  0  0  0  0  0
  188.4190  178.0920  139.0790 C   0  0  0  0  0  3  0  0  0  0  0  0
  184.5100  178.7910  143.0090 C   0  0  0  0  0  3  0  0  0  0  0  0
  186.0130  178.2330  144.7940 C   0  0  0  0  0  0  0  0  0  0  0  0
  186.2230  178.0510  146.1650 C   0  0  0  0  0  3  0  0  0  0  0  0
  183.6210  179.3270  138.8290 C   0  0  0  0  0  3  0  0  0  0  0  0
  183.9170  179.2230  140.1190 C   0  0  0  0  0  3  0  0  0  0  0  0
  181.2980  178.8430  138.8040 O   0  0  0  0  0  1  0  0  0  0  0  0
  182.2640  179.7580  138.3810 C   0  0  1  0  0  3  0  0  0  0  0  0
  181.9320  181.1600  138.8900 C   0  0  0  0  0  2  0  0  0  0  0  0
  179.9640  181.3970  137.5660 O   0  0  0  0  0  0  0  0  0  0  0  0
  181.0430  181.9170  137.9540 C   0  0  0  0  0  0  0  0  0  0  0  0
  181.4420  183.2220  137.5160 N   0  0  0  0  0  2  0  0  0  0  0  0
  180.6340  184.1780  136.8160 C   0  0  0  0  0  0  0  0  0  0  0  0
  179.6900  185.2640  137.6000 S   0  0  0  0  0  0  0  0  0  0  0  0
  180.8050  184.3180  135.3460 C   0  0  0  0  0  1  0  0  0  0  0  0
  1  9  1  0  0  0  0
  1 14  1  0  0  0  0
  2  3  1  0  0  0  0
  3  7  2  0  0  0  0
  3 19  1  0  0  0  0
  4 11  2  0  0  0  0
  5 14  2  0  0  0  0
  5  2  1  0  0  0  0
  6  1  2  0  0  0  0
  7  4  1  0  0  0  0
  8 13  1  0  0  0  0
 10 19  1  0  0  0  0
 11 15  1  0  0  0  0
 12 16  1  0  0  0  0
 12  8  2  0  0  0  0
 13  2  2  0  0  0  0
 13 18  1  0  0  0  0
 16  5  1  0  0  0  0
 17  6  1  0  0  0  0
 17 16  2  0  0  0  0
 18 10  2  0  0  0  0
 19 20  2  0  0  0  0
 20 11  1  0  0  0  0
 21 22  2  0  0  0  0
 22  8  1  0  0  0  0
 24 23  1  1  0  0  0
 24 21  1  0  0  0  0
 24 25  1  0  0  0  0
 26 27  2  0  0  0  0
 27 25  1  0  0  0  0
 28 27  1  0  0  0  0
 29 28  1  0  0  0  0
 29 30  2  0  0  0  0
 31 29  1  0  0  0  0
M  END
>  <MODEL>
8

>  <REMARK>
 VINA RESULT:      -9.3      5.215      7.498
  Name = 
  5 active torsions:
  status: ('A' for Active; 'I' for Inactive)
    1  A    between atoms: C_1  and  N_24
    2  A    between atoms: C_3  and  C_19
    3  A    between atoms: C_3  and  C_22
    4  A    between atoms: C_9  and  C_22
    5  A    between atoms: C_15  and  C_23
                            x       y       z     vdW  Elec       q    Type
                         _______ _______ _______ _____ _____    ______ ____

>  <TORSDO>
F 5

$$$$
=
 OpenBabel10262419293D

 31 34  0  0  1  0  0  0  0  0999 V2000
  183.2980  178.7650  143.0360 C   0  0  0  0  0  0  0  0  0  0  0  0
  187.0180  178.1500  143.0370 C   0  0  0  0  0  0  0  0  0  0  0  0
  187.3890  177.9070  144.4030 C   0  0  0  0  0  0  0  0  0  0  0  0
  186.8450  177.6710  146.7780 C   0  0  0  0  0  3  0  0  0  0  0  0
  185.6830  178.4290  142.6090 C   0  0  0  0  0  0  0  0  0  0  0  0
  183.0730  178.9940  141.6800 C   0  0  0  0  0  3  0  0  0  0  0  0
  186.4560  177.9100  145.4580 C   0  0  0  0  0  3  0  0  0  0  0  0
  187.7240  178.3530  140.6780 C   0  0  0  0  0  0  0  0  0  0  0  0
  182.2160  178.8170  143.9560 N   0  0  0  0  0  1  0  0  0  0  0  0
  189.7180  177.6360  143.7440 C   0  0  0  0  0  3  0  0  0  0  0  0
  188.1840  177.4240  147.0760 C   0  0  0  0  0  0  0  0  0  0  0  0
  186.4410  178.6190  140.3370 N   0  0  0  0  0  0  0  0  0  0  0  0
  188.0460  178.1180  142.0410 C   0  0  0  0  0  0  0  0  0  0  0  0
  184.5880  178.4880  143.4910 C   0  0  0  0  0  3  0  0  0  0  0  0
  188.5720  177.1870  148.3870 O   0  0  0  0  0  1  0  0  0  0  0  0
  185.4320  178.6630  141.2350 C   0  0  0  0  0  0  0  0  0  0  0  0
  184.1390  178.9420  140.7840 C   0  0  0  0  0  3  0  0  0  0  0  0
  189.3700  177.8650  142.4230 C   0  0  0  0  0  3  0  0  0  0  0  0
  188.7460  177.6530  144.7310 C   0  0  0  0  0  0  0  0  0  0  0  0
  189.1310  177.4150  146.0540 C   0  0  0  0  0  3  0  0  0  0  0  0
  188.4090  178.0860  138.2890 C   0  0  0  0  0  3  0  0  0  0  0  0
  188.6970  178.3450  139.5590 C   0  0  0  0  0  3  0  0  0  0  0  0
  190.4810  177.1800  137.5700 O   0  0  0  0  0  1  0  0  0  0  0  0
  189.4710  178.0870  137.2410 C   0  0  1  0  0  3  0  0  0  0  0  0
  188.8910  177.7650  135.8640 C   0  0  0  0  0  2  0  0  0  0  0  0
  187.6660  175.7400  136.1490 O   0  0  0  0  0  0  0  0  0  0  0  0
  187.6190  176.9810  135.9450 C   0  0  0  0  0  0  0  0  0  0  0  0
  186.3680  177.6630  135.7860 N   0  0  0  0  0  2  0  0  0  0  0  0
  185.0610  177.1370  136.0530 C   0  0  0  0  0  0  0  0  0  0  0  0
  184.1400  176.4530  134.8830 S   0  0  0  0  0  0  0  0  0  0  0  0
  184.6080  177.0320  137.4650 C   0  0  0  0  0  1  0  0  0  0  0  0
  1 14  1  0  0  0  0
  1  9  1  0  0  0  0
  2  3  1  0  0  0  0
  3 19  2  0  0  0  0
  3  7  1  0  0  0  0
  4 11  1  0  0  0  0
  5  2  1  0  0  0  0
  5 14  2  0  0  0  0
  6  1  2  0  0  0  0
  7  4  2  0  0  0  0
  8 13  1  0  0  0  0
 10 19  1  0  0  0  0
 11 15  1  0  0  0  0
 12  8  2  0  0  0  0
 12 16  1  0  0  0  0
 13 18  1  0  0  0  0
 13  2  2  0  0  0  0
 16  5  1  0  0  0  0
 17 16  2  0  0  0  0
 17  6  1  0  0  0  0
 18 10  2  0  0  0  0
 19 20  1  0  0  0  0
 20 11  2  0  0  0  0
 21 22  2  0  0  0  0
 22  8  1  0  0  0  0
 24 23  1  1  0  0  0
 24 21  1  0  0  0  0
 25 27  1  0  0  0  0
 25 24  1  0  0  0  0
 27 26  2  0  0  0  0
 28 27  1  0  0  0  0
 28 29  1  0  0  0  0
 29 31  1  0  0  0  0
 30 29  2  0  0  0  0
M  END
>  <MODEL>
9

>  <REMARK>
 VINA RESULT:      -9.2      2.762      3.596
  Name = 
  5 active torsions:
  status: ('A' for Active; 'I' for Inactive)
    1  A    between atoms: C_1  and  N_24
    2  A    between atoms: C_3  and  C_19
    3  A    between atoms: C_3  and  C_22
    4  A    between atoms: C_9  and  C_22
    5  A    between atoms: C_15  and  C_23
                            x       y       z     vdW  Elec       q    Type
                         _______ _______ _______ _____ _____    ______ ____

>  <TORSDO>
F 5

$$$$
