=
 OpenBabel10262422343D

 43 49  0  0  1  0  0  0  0  0999 V2000
  191.1400  176.7430  147.0650 C   0  0  0  0  0  0  0  0  0  0  0  0
  189.1810  177.9590  142.5500 C   0  0  0  0  0  0  0  0  0  0  0  0
  186.3850  178.1390  142.9000 C   0  0  0  0  0  0  0  0  0  0  0  0
  190.8190  177.3130  144.7050 C   0  0  2  0  0  3  0  0  0  0  0  0
  189.8340  176.8050  147.3270 C   0  0  0  0  0  3  0  0  0  0  0  0
  192.0330  176.4290  148.0800 O   0  0  0  0  0  1  0  0  0  0  0  0
  189.4230  177.3970  144.9030 C   0  0  0  0  0  0  0  0  0  0  0  0
  191.6450  177.0070  145.7080 C   0  0  0  0  0  3  0  0  0  0  0  0
  188.8180  177.1410  146.2680 C   0  0  0  0  0  3  0  0  0  0  0  0
  187.1320  177.8260  143.9630 C   0  0  0  0  0  3  0  0  0  0  0  0
  188.5970  177.7240  143.8130 C   0  0  0  0  0  0  0  0  0  0  0  0
  190.5310  177.8690  142.3990 N   0  0  0  0  0  0  0  0  0  0  0  0
  188.4020  178.2730  141.5020 C   0  0  0  0  0  0  0  0  0  0  0  0
  187.0070  178.3640  141.6650 O   0  0  0  0  0  0  0  0  0  0  0  0
  191.3480  177.5550  143.4370 C   0  0  0  0  0  3  0  0  0  0  0  0
  184.9220  178.2530  143.0030 C   0  0  0  0  0  0  0  0  0  0  0  0
  184.2080  178.5420  141.9550 N   0  0  0  0  0  0  0  0  0  0  0  0
  184.3380  178.0460  144.2120 F   0  0  0  0  0  0  0  0  0  0  0  0
  182.7810  178.6750  141.9320 C   0  0  0  0  0  0  0  0  0  0  0  0
  182.1330  178.9730  142.9710 O   0  0  0  0  0  0  0  0  0  0  0  0
  182.0470  178.4160  140.6640 C   0  0  0  0  0  2  0  0  0  0  0  0
  182.6250  179.2120  139.5880 N   0  0  0  0  0  0  0  0  0  0  0  0
  181.9300  178.5520  137.3050 C   0  0  0  0  0  2  0  0  0  0  0  0
  183.8160  177.1410  138.6210 C   0  0  2  0  0  3  0  0  0  0  0  0
  181.5650  180.1110  139.1300 C   0  0  0  0  0  2  0  0  0  0  0  0
  182.8770  178.3340  138.4540 C   0  0  2  0  0  0  0  0  0  0  0  0
  184.3170  178.4390  138.0020 C   0  0  0  0  0  2  0  0  0  0  0  0
  181.3150  179.8870  137.6420 C   0  0  0  0  0  2  0  0  0  0  0  0
  183.5760  176.1470  137.5820 N   0  0  2  0  0  0  0  0  0  0  0  0
  185.0740  174.5440  136.7490 C   0  0  0  0  0  0  0  0  0  0  0  0
  184.1470  173.7800  137.5920 C   0  0  0  0  0  2  0  0  0  0  0  0
  186.1960  174.0660  136.3570 N   0  0  0  0  0  2  0  0  0  0  0  0
  183.3180  174.8660  138.2540 C   0  0  0  0  0  2  0  0  0  0  0  0
  184.8190  175.9930  136.8290 C   0  0  0  0  0  2  0  0  0  0  0  0
  188.9750  178.5080  140.2490 O   0  0  0  0  0  0  0  0  0  0  0  0
  188.3630  177.2460  136.7400 C   0  0  0  0  0  2  0  0  0  0  0  0
  189.2040  175.9740  136.9130 C   0  0  2  0  0  3  0  0  0  0  0  0
  190.2160  176.7980  139.0810 C   0  0  0  0  0  2  0  0  0  0  0  0
  188.5420  178.2590  137.8780 C   0  0  0  0  0  2  0  0  0  0  0  0
  188.8900  177.5620  139.1930 C   0  0  2  0  0  3  0  0  0  0  0  0
  190.5010  176.2670  137.6700 C   0  0  0  0  0  2  0  0  0  0  0  0
  190.1380  176.3670  134.6990 N   0  0  0  0  0  1  0  0  0  0  0  0
  189.5030  175.3760  135.5510 C   0  0  0  0  0  2  0  0  0  0  0  0
  1  5  1  0  0  0  0
  1  6  1  0  0  0  0
  2 11  1  0  0  0  0
  3 16  1  0  0  0  0
  3 10  2  0  0  0  0
  4 15  1  1  0  0  0
  4  7  1  0  0  0  0
  4  8  1  0  0  0  0
  7  9  1  0  0  0  0
  8  1  2  0  0  0  0
  9  5  2  0  0  0  0
 11 10  1  0  0  0  0
 11  7  2  0  0  0  0
 12  2  1  0  0  0  0
 12 15  2  0  0  0  0
 13 14  1  0  0  0  0
 13  2  2  0  0  0  0
 14  3  1  0  0  0  0
 16 18  1  0  0  0  0
 17 16  2  0  0  0  0
 19 17  1  0  0  0  0
 19 20  2  0  0  0  0
 21 19  1  0  0  0  0
 22 21  1  0  0  0  0
 23 28  1  0  0  0  0
 24 27  1  6  0  0  0
 25 22  1  0  0  0  0
 26 23  1  6  0  0  0
 26 24  1  0  0  0  0
 26 22  1  0  0  0  0
 27 26  1  0  0  0  0
 28 25  1  0  0  0  0
 29 34  1  6  0  0  0
 29 33  1  0  0  0  0
 29 24  1  0  0  0  0
 30 34  1  0  0  0  0
 30 31  1  0  0  0  0
 31 33  1  0  0  0  0
 32 30  2  0  0  0  0
 35 13  1  0  0  0  0
 36 37  1  0  0  0  0
 36 39  1  0  0  0  0
 37 43  1  6  0  0  0
 37 41  1  0  0  0  0
 38 40  1  0  0  0  0
 39 40  1  0  0  0  0
 40 35  1  1  0  0  0
 41 38  1  0  0  0  0
 42 43  1  0  0  0  0
M  END
>  <MODEL>
1

>  <REMARK>
 VINA RESULT:      -9.5      0.000      0.000
  Name = 
  8 active torsions:
  status: ('A' for Active; 'I' for Inactive)
    1  A    between atoms: O_1  and  C_34
    2  A    between atoms: O_1  and  C_35
    3  A    between atoms: C_2  and  C_13
    4  A    between atoms: C_3  and  N_4
    5  A    between atoms: C_3  and  C_12
    6  A    between atoms: N_6  and  C_12
    7  A    between atoms: N_11  and  C_14
    8  A    between atoms: C_19  and  C_37
                            x       y       z     vdW  Elec       q    Type
                         _______ _______ _______ _____ _____    ______ ____

>  <TORSDO>
F 8

$$$$
=
 OpenBabel10262422343D

 43 49  0  0  1  0  0  0  0  0999 V2000
  191.2070  176.7320  146.9870 C   0  0  0  0  0  0  0  0  0  0  0  0
  189.0830  177.8560  142.5230 C   0  0  0  0  0  0  0  0  0  0  0  0
  186.3150  178.1530  142.9930 C   0  0  0  0  0  0  0  0  0  0  0  0
  190.7970  177.2280  144.6240 C   0  0  2  0  0  3  0  0  0  0  0  0
  189.9180  176.8530  147.3060 C   0  0  0  0  0  3  0  0  0  0  0  0
  192.1340  176.4220  147.9720 O   0  0  0  0  0  1  0  0  0  0  0  0
  189.4150  177.3710  144.8830 C   0  0  0  0  0  0  0  0  0  0  0  0
  191.6570  176.9280  145.6000 C   0  0  0  0  0  3  0  0  0  0  0  0
  188.8660  177.1880  146.2820 C   0  0  0  0  0  3  0  0  0  0  0  0
  187.0990  177.8500  144.0320 C   0  0  0  0  0  3  0  0  0  0  0  0
  188.5510  177.6880  143.8190 C   0  0  0  0  0  0  0  0  0  0  0  0
  190.4210  177.7100  142.3150 N   0  0  0  0  0  0  0  0  0  0  0  0
  188.2680  178.1600  141.5000 C   0  0  0  0  0  0  0  0  0  0  0  0
  186.8870  178.3090  141.7230 O   0  0  0  0  0  0  0  0  0  0  0  0
  191.2740  177.4030  143.3260 C   0  0  0  0  0  3  0  0  0  0  0  0
  184.8640  178.3240  143.1570 C   0  0  0  0  0  0  0  0  0  0  0  0
  184.1000  178.5150  142.1210 N   0  0  0  0  0  0  0  0  0  0  0  0
  184.3410  178.2770  144.4100 F   0  0  0  0  0  0  0  0  0  0  0  0
  182.6780  178.6910  142.1560 C   0  0  0  0  0  0  0  0  0  0  0  0
  182.1000  179.1470  143.1790 O   0  0  0  0  0  0  0  0  0  0  0  0
  181.8670  178.2870  140.9770 C   0  0  0  0  0  2  0  0  0  0  0  0
  182.6480  178.4570  139.7580 N   0  0  0  0  0  0  0  0  0  0  0  0
  181.3550  178.3070  137.6530 C   0  0  0  0  0  2  0  0  0  0  0  0
  182.0620  176.0690  138.9850 C   0  0  2  0  0  3  0  0  0  0  0  0
  182.3620  179.8080  139.2740 C   0  0  0  0  0  2  0  0  0  0  0  0
  182.1000  177.5760  138.7370 C   0  0  2  0  0  0  0  0  0  0  0  0
  183.1790  176.6900  138.1560 C   0  0  0  0  0  2  0  0  0  0  0  0
  181.8030  179.7320  137.8560 C   0  0  0  0  0  2  0  0  0  0  0  0
  181.0840  175.4290  138.1130 N   0  0  2  0  0  0  0  0  0  0  0  0
  180.9360  173.1580  137.5400 C   0  0  0  0  0  0  0  0  0  0  0  0
  179.8400  173.3700  138.4930 C   0  0  0  0  0  2  0  0  0  0  0  0
  181.3540  171.9890  137.2270 N   0  0  0  0  0  2  0  0  0  0  0  0
  180.0830  174.7880  138.9770 C   0  0  0  0  0  2  0  0  0  0  0  0
  181.7740  174.3610  137.3930 C   0  0  0  0  0  2  0  0  0  0  0  0
  188.7900  178.3280  140.2150 O   0  0  0  0  0  0  0  0  0  0  0  0
  187.3190  176.9950  136.9990 C   0  0  0  0  0  2  0  0  0  0  0  0
  188.3930  175.9160  136.8040 C   0  0  2  0  0  3  0  0  0  0  0  0
  189.8810  176.9090  138.5940 C   0  0  0  0  0  2  0  0  0  0  0  0
  187.6650  178.0150  138.0910 C   0  0  0  0  0  2  0  0  0  0  0  0
  188.5440  177.3920  139.1750 C   0  0  2  0  0  3  0  0  0  0  0  0
  189.7860  176.4550  137.1310 C   0  0  0  0  0  2  0  0  0  0  0  0
  188.8520  174.0420  135.3200 N   0  0  0  0  0  1  0  0  0  0  0  0
  188.3400  175.4000  135.3780 C   0  0  0  0  0  2  0  0  0  0  0  0
  1  5  1  0  0  0  0
  1  6  1  0  0  0  0
  2 11  1  0  0  0  0
  3 16  1  0  0  0  0
  3 10  2  0  0  0  0
  4 15  1  1  0  0  0
  4  7  1  0  0  0  0
  4  8  1  0  0  0  0
  7  9  1  0  0  0  0
  8  1  2  0  0  0  0
  9  5  2  0  0  0  0
 11 10  1  0  0  0  0
 11  7  2  0  0  0  0
 12  2  1  0  0  0  0
 12 15  2  0  0  0  0
 13 14  1  0  0  0  0
 13  2  2  0  0  0  0
 14  3  1  0  0  0  0
 16 18  1  0  0  0  0
 17 19  1  0  0  0  0
 17 16  2  0  0  0  0
 19 20  2  0  0  0  0
 21 19  1  0  0  0  0
 22 21  1  0  0  0  0
 23 28  1  0  0  0  0
 24 27  1  6  0  0  0
 25 22  1  0  0  0  0
 26 23  1  6  0  0  0
 26 24  1  0  0  0  0
 26 22  1  0  0  0  0
 27 26  1  0  0  0  0
 28 25  1  0  0  0  0
 29 34  1  1  0  0  0
 29 33  1  0  0  0  0
 29 24  1  0  0  0  0
 30 31  1  0  0  0  0
 31 33  1  0  0  0  0
 32 30  2  0  0  0  0
 34 30  1  0  0  0  0
 35 13  1  0  0  0  0
 36 39  1  0  0  0  0
 37 43  1  6  0  0  0
 37 36  1  0  0  0  0
 37 41  1  0  0  0  0
 38 40  1  0  0  0  0
 39 40  1  0  0  0  0
 40 35  1  1  0  0  0
 41 38  1  0  0  0  0
 42 43  1  0  0  0  0
M  END
>  <MODEL>
2

>  <REMARK>
 VINA RESULT:      -9.3      1.435      1.697
  Name = 
  8 active torsions:
  status: ('A' for Active; 'I' for Inactive)
    1  A    between atoms: O_1  and  C_34
    2  A    between atoms: O_1  and  C_35
    3  A    between atoms: C_2  and  C_13
    4  A    between atoms: C_3  and  N_4
    5  A    between atoms: C_3  and  C_12
    6  A    between atoms: N_6  and  C_12
    7  A    between atoms: N_11  and  C_14
    8  A    between atoms: C_19  and  C_37
                            x       y       z     vdW  Elec       q    Type
                         _______ _______ _______ _____ _____    ______ ____

>  <TORSDO>
F 8

$$$$
=
 OpenBabel10262422343D

 43 49  0  0  1  0  0  0  0  0999 V2000
  191.1900  176.7870  146.8600 C   0  0  0  0  0  0  0  0  0  0  0  0
  187.0290  177.8470  144.1630 C   0  0  0  0  0  0  0  0  0  0  0  0
  187.8460  178.0800  141.4700 C   0  0  0  0  0  0  0  0  0  0  0  0
  188.8970  177.2660  146.1430 C   0  0  0  0  0  0  0  0  0  0  0  0
  191.6680  176.8770  145.6190 C   0  0  0  0  0  3  0  0  0  0  0  0
  192.0490  176.4990  147.9120 O   0  0  0  0  0  1  0  0  0  0  0  0
  189.3280  177.3780  144.8020 C   0  0  0  0  0  0  0  0  0  0  0  0
  189.7560  176.9880  147.1270 C   0  0  0  0  0  3  0  0  0  0  0  0
  190.7860  177.1860  144.4390 C   0  0  0  0  0  2  0  0  0  0  0  0
  188.7770  177.8000  142.3870 C   0  0  0  0  0  3  0  0  0  0  0  0
  188.3830  177.6720  143.8040 C   0  0  0  0  0  0  0  0  0  0  0  0
  186.6540  177.7300  145.4670 N   0  0  0  0  0  0  0  0  0  0  0  0
  186.1180  178.1260  143.2180 C   0  0  0  0  0  0  0  0  0  0  0  0
  186.5130  178.2460  141.8730 O   0  0  0  0  0  0  0  0  0  0  0  0
  187.5490  177.4470  146.4480 C   0  0  0  0  0  3  0  0  0  0  0  0
  188.1910  178.2160  140.0480 C   0  0  0  0  0  0  0  0  0  0  0  0
  187.2570  178.3140  139.1480 N   0  0  0  0  0  0  0  0  0  0  0  0
  189.5040  178.2390  139.6980 F   0  0  0  0  0  0  0  0  0  0  0  0
  187.4720  178.4550  137.7380 C   0  0  0  0  0  0  0  0  0  0  0  0
  188.1670  179.3970  137.2710 O   0  0  0  0  0  0  0  0  0  0  0  0
  186.8280  177.4920  136.8050 C   0  0  0  0  0  2  0  0  0  0  0  0
  187.5630  176.2340  136.8080 N   0  0  0  0  0  0  0  0  0  0  0  0
  187.1020  174.7430  134.8860 C   0  0  0  0  0  2  0  0  0  0  0  0
  185.3700  174.8880  136.9510 C   0  0  2  0  0  3  0  0  0  0  0  0
  188.6310  176.3830  135.8180 C   0  0  0  0  0  2  0  0  0  0  0  0
  186.6990  175.1960  136.2630 C   0  0  2  0  0  0  0  0  0  0  0  0
  186.5980  174.0260  137.2160 C   0  0  0  0  0  2  0  0  0  0  0  0
  188.5020  175.2890  134.7620 C   0  0  0  0  0  2  0  0  0  0  0  0
  184.4640  174.2050  136.0350 N   0  0  2  0  0  0  0  0  0  0  0  0
  182.8170  172.6160  136.5580 C   0  0  0  0  0  0  0  0  0  0  0  0
  182.0670  173.8450  136.2700 C   0  0  0  0  0  2  0  0  0  0  0  0
  182.2880  171.6160  137.1590 N   0  0  0  0  0  2  0  0  0  0  0  0
  183.1640  174.8840  136.1220 C   0  0  0  0  0  2  0  0  0  0  0  0
  184.2720  172.8470  136.5410 C   0  0  0  0  0  2  0  0  0  0  0  0
  184.7760  178.2990  143.5690 O   0  0  0  0  0  0  0  0  0  0  0  0
  182.6530  178.2370  140.4430 C   0  0  0  0  0  2  0  0  0  0  0  0
  181.5790  179.1820  140.9990 C   0  0  2  0  0  3  0  0  0  0  0  0
  182.4760  179.0020  143.3580 C   0  0  0  0  0  2  0  0  0  0  0  0
  183.6350  177.7320  141.5070 C   0  0  0  0  0  2  0  0  0  0  0  0
  183.8050  178.7500  142.6340 C   0  0  2  0  0  3  0  0  0  0  0  0
  181.2460  178.8480  142.4540 C   0  0  0  0  0  2  0  0  0  0  0  0
  179.9930  177.7120  139.8820 N   0  0  0  0  0  1  0  0  0  0  0  0
  180.3350  179.1010  140.1330 C   0  0  0  0  0  2  0  0  0  0  0  0
  1  8  1  0  0  0  0
  1  6  1  0  0  0  0
  2 12  1  0  0  0  0
  3 14  1  0  0  0  0
  3 10  2  0  0  0  0
  4 15  1  0  0  0  0
  4  8  2  0  0  0  0
  5  1  2  0  0  0  0
  7  4  1  0  0  0  0
  9  7  1  0  0  0  0
  9  5  1  0  0  0  0
 10 11  1  0  0  0  0
 11  2  1  0  0  0  0
 11  7  2  0  0  0  0
 12 15  2  0  0  0  0
 13 35  1  0  0  0  0
 13  2  2  0  0  0  0
 14 13  1  0  0  0  0
 16  3  1  0  0  0  0
 17 16  2  0  0  0  0
 18 16  1  0  0  0  0
 19 17  1  0  0  0  0
 20 19  2  0  0  0  0
 21 22  1  0  0  0  0
 21 19  1  0  0  0  0
 24 27  1  1  0  0  0
 25 22  1  0  0  0  0
 26 23  1  6  0  0  0
 26 22  1  0  0  0  0
 26 24  1  0  0  0  0
 26 27  1  0  0  0  0
 28 23  1  0  0  0  0
 28 25  1  0  0  0  0
 29 33  1  1  0  0  0
 29 34  1  0  0  0  0
 29 24  1  0  0  0  0
 30 32  2  0  0  0  0
 31 30  1  0  0  0  0
 33 31  1  0  0  0  0
 34 30  1  0  0  0  0
 36 37  1  0  0  0  0
 36 39  1  0  0  0  0
 37 43  1  6  0  0  0
 37 41  1  0  0  0  0
 39 40  1  0  0  0  0
 40 38  1  0  0  0  0
 40 35  1  1  0  0  0
 41 38  1  0  0  0  0
 42 43  1  0  0  0  0
M  END
>  <MODEL>
3

>  <REMARK>
 VINA RESULT:      -9.3      2.208      5.671
  Name = 
  8 active torsions:
  status: ('A' for Active; 'I' for Inactive)
    1  A    between atoms: O_1  and  C_34
    2  A    between atoms: O_1  and  C_35
    3  A    between atoms: C_2  and  C_13
    4  A    between atoms: C_3  and  N_4
    5  A    between atoms: C_3  and  C_12
    6  A    between atoms: N_6  and  C_12
    7  A    between atoms: N_11  and  C_14
    8  A    between atoms: C_19  and  C_37
                            x       y       z     vdW  Elec       q    Type
                         _______ _______ _______ _____ _____    ______ ____

>  <TORSDO>
F 8

$$$$
=
 OpenBabel10262422343D

 43 49  0  0  1  0  0  0  0  0999 V2000
  187.8880  177.3890  147.1580 C   0  0  0  0  0  0  0  0  0  0  0  0
  186.2070  178.5950  142.5290 C   0  0  0  0  0  0  0  0  0  0  0  0
  188.3550  178.1630  140.7480 C   0  0  0  0  0  0  0  0  0  0  0  0
  186.5280  178.1000  145.2490 C   0  0  0  0  0  0  0  0  0  0  0  0
  188.9560  177.1550  146.3950 C   0  0  0  0  0  3  0  0  0  0  0  0
  187.9560  177.1680  148.5270 O   0  0  0  0  0  1  0  0  0  0  0  0
  187.6160  177.8770  144.3770 C   0  0  0  0  0  0  0  0  0  0  0  0
  186.6340  177.8760  146.5610 C   0  0  0  0  0  3  0  0  0  0  0  0
  188.9430  177.3750  144.9060 C   0  0  0  0  0  2  0  0  0  0  0  0
  188.5550  177.9120  142.0450 C   0  0  0  0  0  3  0  0  0  0  0  0
  187.4520  178.1280  143.0030 C   0  0  0  0  0  0  0  0  0  0  0  0
  185.1820  178.7970  143.4030 N   0  0  0  0  0  0  0  0  0  0  0  0
  186.0380  178.8360  141.2190 C   0  0  0  0  0  0  0  0  0  0  0  0
  187.1020  178.6260  140.3230 O   0  0  0  0  0  0  0  0  0  0  0  0
  185.3180  178.5620  144.7340 C   0  0  0  0  0  3  0  0  0  0  0  0
  189.4230  177.9620  139.7580 C   0  0  0  0  0  0  0  0  0  0  0  0
  190.3860  177.1170  139.9880 N   0  0  0  0  0  0  0  0  0  0  0  0
  189.3800  178.6740  138.6020 F   0  0  0  0  0  0  0  0  0  0  0  0
  191.4750  176.8350  139.1000 C   0  0  0  0  0  0  0  0  0  0  0  0
  192.6730  176.9700  139.4680 O   0  0  0  0  0  0  0  0  0  0  0  0
  191.1840  176.4140  137.7030 C   0  0  0  0  0  2  0  0  0  0  0  0
  190.6170  175.0710  137.7000 N   0  0  0  0  0  0  0  0  0  0  0  0
  189.9960  174.1990  135.4680 C   0  0  0  0  0  2  0  0  0  0  0  0
  188.3910  175.9520  136.7470 C   0  0  2  0  0  3  0  0  0  0  0  0
  191.6770  174.1830  137.2200 C   0  0  0  0  0  2  0  0  0  0  0  0
  189.5910  175.0100  136.6690 C   0  0  2  0  0  0  0  0  0  0  0  0
  188.2810  174.5170  137.2450 C   0  0  0  0  0  2  0  0  0  0  0  0
  191.1930  173.4380  135.9800 C   0  0  0  0  0  2  0  0  0  0  0  0
  187.7550  176.0820  135.4410 N   0  0  2  0  0  0  0  0  0  0  0  0
  185.5650  176.7830  134.9700 C   0  0  0  0  0  0  0  0  0  0  0  0
  186.4060  177.9250  134.5940 C   0  0  0  0  0  2  0  0  0  0  0  0
  184.2980  176.8890  135.1290 N   0  0  0  0  0  2  0  0  0  0  0  0
  187.7820  177.5070  135.0830 C   0  0  0  0  0  2  0  0  0  0  0  0
  186.3510  175.7070  135.5990 C   0  0  0  0  0  2  0  0  0  0  0  0
  184.8070  179.2980  140.7460 O   0  0  0  0  0  0  0  0  0  0  0  0
  182.1150  176.8560  139.7090 C   0  0  0  0  0  2  0  0  0  0  0  0
  182.0000  177.3930  138.2760 C   0  0  2  0  0  3  0  0  0  0  0  0
  183.3660  179.4540  138.8150 C   0  0  0  0  0  2  0  0  0  0  0  0
  182.9390  177.7580  140.6380 C   0  0  0  0  0  2  0  0  0  0  0  0
  184.0050  178.5300  139.8600 C   0  0  2  0  0  3  0  0  0  0  0  0
  182.0420  178.9220  138.2530 C   0  0  0  0  0  2  0  0  0  0  0  0
  179.8860  176.2470  138.6520 N   0  0  0  0  0  1  0  0  0  0  0  0
  180.7180  176.8830  137.6460 C   0  0  0  0  0  2  0  0  0  0  0  0
  1  6  1  0  0  0  0
  2 11  1  0  0  0  0
  2 12  1  0  0  0  0
  3 10  2  0  0  0  0
  4  8  2  0  0  0  0
  5  1  2  0  0  0  0
  7  9  1  0  0  0  0
  7  4  1  0  0  0  0
  8  1  1  0  0  0  0
  9  5  1  0  0  0  0
 10 11  1  0  0  0  0
 11  7  2  0  0  0  0
 12 15  2  0  0  0  0
 13  2  2  0  0  0  0
 14  3  1  0  0  0  0
 14 13  1  0  0  0  0
 15  4  1  0  0  0  0
 16 17  2  0  0  0  0
 16  3  1  0  0  0  0
 18 16  1  0  0  0  0
 19 20  2  0  0  0  0
 19 17  1  0  0  0  0
 21 19  1  0  0  0  0
 22 21  1  0  0  0  0
 23 28  1  0  0  0  0
 24 27  1  1  0  0  0
 25 22  1  0  0  0  0
 26 23  1  6  0  0  0
 26 24  1  0  0  0  0
 26 27  1  0  0  0  0
 26 22  1  0  0  0  0
 28 25  1  0  0  0  0
 29 33  1  1  0  0  0
 29 34  1  0  0  0  0
 29 24  1  0  0  0  0
 30 32  2  0  0  0  0
 30 34  1  0  0  0  0
 31 30  1  0  0  0  0
 31 33  1  0  0  0  0
 35 13  1  0  0  0  0
 36 39  1  0  0  0  0
 37 43  1  1  0  0  0
 37 36  1  0  0  0  0
 38 40  1  0  0  0  0
 40 39  1  0  0  0  0
 40 35  1  1  0  0  0
 41 37  1  0  0  0  0
 41 38  1  0  0  0  0
 43 42  1  0  0  0  0
M  END
>  <MODEL>
4

>  <REMARK>
 VINA RESULT:      -9.3      2.298      6.540
  Name = 
  8 active torsions:
  status: ('A' for Active; 'I' for Inactive)
    1  A    between atoms: O_1  and  C_34
    2  A    between atoms: O_1  and  C_35
    3  A    between atoms: C_2  and  C_13
    4  A    between atoms: C_3  and  N_4
    5  A    between atoms: C_3  and  C_12
    6  A    between atoms: N_6  and  C_12
    7  A    between atoms: N_11  and  C_14
    8  A    between atoms: C_19  and  C_37
                            x       y       z     vdW  Elec       q    Type
                         _______ _______ _______ _____ _____    ______ ____

>  <TORSDO>
F 8

$$$$
=
 OpenBabel10262422343D

 43 49  0  0  1  0  0  0  0  0999 V2000
  187.7140  177.4510  146.9890 C   0  0  0  0  0  0  0  0  0  0  0  0
  188.2670  178.1730  142.0010 C   0  0  0  0  0  0  0  0  0  0  0  0
  185.6820  178.6170  140.9540 C   0  0  0  0  0  0  0  0  0  0  0  0
  188.6090  177.7090  144.7240 C   0  0  2  0  0  3  0  0  0  0  0  0
  186.4580  177.6510  146.5870 C   0  0  0  0  0  3  0  0  0  0  0  0
  187.9800  177.2140  148.3300 O   0  0  0  0  0  1  0  0  0  0  0  0
  187.3070  177.9280  144.2220 C   0  0  0  0  0  0  0  0  0  0  0  0
  188.8230  177.4830  146.0220 C   0  0  0  0  0  3  0  0  0  0  0  0
  186.1080  177.9140  145.1470 C   0  0  0  0  0  3  0  0  0  0  0  0
  185.7980  178.3980  142.2670 C   0  0  0  0  0  3  0  0  0  0  0  0
  187.1360  178.1620  142.8460 C   0  0  0  0  0  0  0  0  0  0  0  0
  189.5050  177.9580  142.5230 N   0  0  0  0  0  0  0  0  0  0  0  0
  188.1150  178.3960  140.6850 C   0  0  0  0  0  0  0  0  0  0  0  0
  186.8320  178.6170  140.1530 O   0  0  0  0  0  0  0  0  0  0  0  0
  189.6950  177.7290  143.8490 C   0  0  0  0  0  3  0  0  0  0  0  0
  184.3710  178.8560  140.3340 C   0  0  0  0  0  0  0  0  0  0  0  0
  183.3640  178.0750  140.5950 N   0  0  0  0  0  0  0  0  0  0  0  0
  184.2360  179.9110  139.4870 F   0  0  0  0  0  0  0  0  0  0  0  0
  182.0430  178.2110  140.0550 C   0  0  0  0  0  0  0  0  0  0  0  0
  181.1360  178.8170  140.6870 O   0  0  0  0  0  0  0  0  0  0  0  0
  181.7270  177.5910  138.7410 C   0  0  0  0  0  2  0  0  0  0  0  0
  182.4690  178.2660  137.6840 N   0  0  0  0  0  0  0  0  0  0  0  0
  182.5720  177.0500  135.5300 C   0  0  0  0  0  2  0  0  0  0  0  0
  184.1800  176.3420  137.5780 C   0  0  2  0  0  3  0  0  0  0  0  0
  181.4680  178.8210  136.7720 C   0  0  0  0  0  2  0  0  0  0  0  0
  183.1660  177.2590  136.8970 C   0  0  2  0  0  0  0  0  0  0  0  0
  184.6430  177.5720  136.8090 C   0  0  0  0  0  2  0  0  0  0  0  0
  181.6960  178.2670  135.3680 C   0  0  0  0  0  2  0  0  0  0  0  0
  184.4000  175.1390  136.7840 N   0  0  2  0  0  0  0  0  0  0  0  0
  186.1620  173.5980  136.9630 C   0  0  0  0  0  0  0  0  0  0  0  0
  185.0080  172.9100  137.5540 C   0  0  0  0  0  2  0  0  0  0  0  0
  187.3640  173.1940  137.1390 N   0  0  0  0  0  2  0  0  0  0  0  0
  183.9480  173.9960  137.5890 C   0  0  0  0  0  2  0  0  0  0  0  0
  185.8430  174.9910  136.6050 C   0  0  0  0  0  2  0  0  0  0  0  0
  189.2320  178.4090  139.8450 O   0  0  0  0  0  0  0  0  0  0  0  0
  189.4520  177.0940  136.3090 C   0  0  0  0  0  2  0  0  0  0  0  0
  190.2600  175.8460  136.6860 C   0  0  2  0  0  3  0  0  0  0  0  0
  190.7400  176.7170  139.0120 C   0  0  0  0  0  2  0  0  0  0  0  0
  189.3490  178.1240  137.4410 C   0  0  0  0  0  2  0  0  0  0  0  0
  189.4070  177.4490  138.8110 C   0  0  2  0  0  3  0  0  0  0  0  0
  191.3460  176.1780  137.7100 C   0  0  0  0  0  2  0  0  0  0  0  0
  189.9350  174.3130  134.8220 N   0  0  0  0  0  1  0  0  0  0  0  0
  190.8700  175.2400  135.4350 C   0  0  0  0  0  2  0  0  0  0  0  0
  1  6  1  0  0  0  0
  2 12  1  0  0  0  0
  2 11  1  0  0  0  0
  3 10  2  0  0  0  0
  4 15  1  1  0  0  0
  4  8  1  0  0  0  0
  5  1  1  0  0  0  0
  7  4  1  0  0  0  0
  7  9  1  0  0  0  0
  8  1  2  0  0  0  0
  9  5  2  0  0  0  0
 10 11  1  0  0  0  0
 11  7  2  0  0  0  0
 12 15  2  0  0  0  0
 13  2  2  0  0  0  0
 14 13  1  0  0  0  0
 14  3  1  0  0  0  0
 16 17  2  0  0  0  0
 16  3  1  0  0  0  0
 18 16  1  0  0  0  0
 19 17  1  0  0  0  0
 19 20  2  0  0  0  0
 21 19  1  0  0  0  0
 22 21  1  0  0  0  0
 24 27  1  6  0  0  0
 25 22  1  0  0  0  0
 26 23  1  6  0  0  0
 26 24  1  0  0  0  0
 26 22  1  0  0  0  0
 27 26  1  0  0  0  0
 28 23  1  0  0  0  0
 28 25  1  0  0  0  0
 29 34  1  1  0  0  0
 29 24  1  0  0  0  0
 29 33  1  0  0  0  0
 30 32  2  0  0  0  0
 30 31  1  0  0  0  0
 31 33  1  0  0  0  0
 34 30  1  0  0  0  0
 35 13  1  0  0  0  0
 36 37  1  0  0  0  0
 36 39  1  0  0  0  0
 37 43  1  6  0  0  0
 37 41  1  0  0  0  0
 39 40  1  0  0  0  0
 40 38  1  0  0  0  0
 40 35  1  1  0  0  0
 41 38  1  0  0  0  0
 42 43  1  0  0  0  0
M  END
>  <MODEL>
5

>  <REMARK>
 VINA RESULT:      -9.2      1.703      2.153
  Name = 
  8 active torsions:
  status: ('A' for Active; 'I' for Inactive)
    1  A    between atoms: O_1  and  C_34
    2  A    between atoms: O_1  and  C_35
    3  A    between atoms: C_2  and  C_13
    4  A    between atoms: C_3  and  N_4
    5  A    between atoms: C_3  and  C_12
    6  A    between atoms: N_6  and  C_12
    7  A    between atoms: N_11  and  C_14
    8  A    between atoms: C_19  and  C_37
                            x       y       z     vdW  Elec       q    Type
                         _______ _______ _______ _____ _____    ______ ____

>  <TORSDO>
F 8

$$$$
=
 OpenBabel10262422343D

 43 49  0  0  1  0  0  0  0  0999 V2000
  191.2140  176.7360  146.9820 C   0  0  0  0  0  0  0  0  0  0  0  0
  187.0310  177.8240  144.3310 C   0  0  0  0  0  0  0  0  0  0  0  0
  187.8210  178.0630  141.6310 C   0  0  0  0  0  0  0  0  0  0  0  0
  188.9170  177.2280  146.2900 C   0  0  0  0  0  0  0  0  0  0  0  0
  191.6810  176.8280  145.7360 C   0  0  0  0  0  3  0  0  0  0  0  0
  192.0830  176.4400  148.0240 O   0  0  0  0  0  1  0  0  0  0  0  0
  189.3350  177.3430  144.9450 C   0  0  0  0  0  0  0  0  0  0  0  0
  189.7850  176.9430  147.2640 C   0  0  0  0  0  3  0  0  0  0  0  0
  190.7880  177.1450  144.5660 C   0  0  0  0  0  2  0  0  0  0  0  0
  188.7610  177.7760  142.5370 C   0  0  0  0  0  3  0  0  0  0  0  0
  188.3810  177.6440  143.9570 C   0  0  0  0  0  0  0  0  0  0  0  0
  186.6690  177.7040  145.6380 N   0  0  0  0  0  0  0  0  0  0  0  0
  186.1120  178.1110  143.3960 C   0  0  0  0  0  0  0  0  0  0  0  0
  186.4940  178.2340  142.0480 O   0  0  0  0  0  0  0  0  0  0  0  0
  187.5730  177.4140  146.6100 C   0  0  0  0  0  3  0  0  0  0  0  0
  188.1530  178.2030  140.2060 C   0  0  0  0  0  0  0  0  0  0  0  0
  187.2110  178.3340  139.3180 N   0  0  0  0  0  0  0  0  0  0  0  0
  189.4620  178.1940  139.8390 F   0  0  0  0  0  0  0  0  0  0  0  0
  187.4120  178.4820  137.9070 C   0  0  0  0  0  0  0  0  0  0  0  0
  188.4460  179.0360  137.4470 O   0  0  0  0  0  0  0  0  0  0  0  0
  186.3600  178.0070  136.9690 C   0  0  0  0  0  2  0  0  0  0  0  0
  186.1180  176.5850  137.1770 N   0  0  0  0  0  0  0  0  0  0  0  0
  184.6860  175.5030  135.4720 C   0  0  0  0  0  2  0  0  0  0  0  0
  183.5870  176.9940  137.4350 C   0  0  2  0  0  3  0  0  0  0  0  0
  186.9670  175.8820  136.2130 C   0  0  0  0  0  2  0  0  0  0  0  0
  184.7570  176.2850  136.7560 C   0  0  2  0  0  0  0  0  0  0  0  0
  183.9940  175.5900  137.8620 C   0  0  0  0  0  2  0  0  0  0  0  0
  186.0990  175.0000  135.3200 C   0  0  0  0  0  2  0  0  0  0  0  0
  182.3960  176.9410  136.5950 N   0  0  2  0  0  0  0  0  0  0  0  0
  180.1510  176.9900  137.2770 C   0  0  0  0  0  0  0  0  0  0  0  0
  180.3960  178.3250  136.7190 C   0  0  0  0  0  2  0  0  0  0  0  0
  179.1330  176.7300  138.0100 N   0  0  0  0  0  2  0  0  0  0  0  0
  181.8930  178.3150  136.4640 C   0  0  0  0  0  2  0  0  0  0  0  0
  181.3820  176.1810  137.3230 C   0  0  0  0  0  2  0  0  0  0  0  0
  184.7750  178.2890  143.7620 O   0  0  0  0  0  0  0  0  0  0  0  0
  182.6380  178.3880  140.6460 C   0  0  0  0  0  2  0  0  0  0  0  0
  181.5790  179.3210  141.2460 C   0  0  2  0  0  3  0  0  0  0  0  0
  182.4820  179.0290  143.5920 C   0  0  0  0  0  2  0  0  0  0  0  0
  183.6190  177.8250  141.6830 C   0  0  0  0  0  2  0  0  0  0  0  0
  183.8060  178.7920  142.8520 C   0  0  2  0  0  3  0  0  0  0  0  0
  181.2470  178.9290  142.6870 C   0  0  0  0  0  2  0  0  0  0  0  0
  179.5740  180.5190  140.5610 N   0  0  0  0  0  1  0  0  0  0  0  0
  180.3310  179.2930  140.3840 C   0  0  0  0  0  2  0  0  0  0  0  0
  1  8  1  0  0  0  0
  1  6  1  0  0  0  0
  2 12  1  0  0  0  0
  3 14  1  0  0  0  0
  3 10  2  0  0  0  0
  4 15  1  0  0  0  0
  4  8  2  0  0  0  0
  5  1  2  0  0  0  0
  7  4  1  0  0  0  0
  9  7  1  0  0  0  0
  9  5  1  0  0  0  0
 10 11  1  0  0  0  0
 11  2  1  0  0  0  0
 11  7  2  0  0  0  0
 12 15  2  0  0  0  0
 13 35  1  0  0  0  0
 13  2  2  0  0  0  0
 14 13  1  0  0  0  0
 16  3  1  0  0  0  0
 17 16  2  0  0  0  0
 18 16  1  0  0  0  0
 19 17  1  0  0  0  0
 20 19  2  0  0  0  0
 21 22  1  0  0  0  0
 21 19  1  0  0  0  0
 24 27  1  1  0  0  0
 25 22  1  0  0  0  0
 26 23  1  6  0  0  0
 26 22  1  0  0  0  0
 26 24  1  0  0  0  0
 26 27  1  0  0  0  0
 28 23  1  0  0  0  0
 28 25  1  0  0  0  0
 29 33  1  1  0  0  0
 29 34  1  0  0  0  0
 29 24  1  0  0  0  0
 30 34  1  0  0  0  0
 30 32  2  0  0  0  0
 31 30  1  0  0  0  0
 33 31  1  0  0  0  0
 36 37  1  0  0  0  0
 36 39  1  0  0  0  0
 37 43  1  6  0  0  0
 37 41  1  0  0  0  0
 39 40  1  0  0  0  0
 40 38  1  0  0  0  0
 40 35  1  1  0  0  0
 41 38  1  0  0  0  0
 43 42  1  0  0  0  0
M  END
>  <MODEL>
6

>  <REMARK>
 VINA RESULT:      -9.2      2.238      5.681
  Name = 
  8 active torsions:
  status: ('A' for Active; 'I' for Inactive)
    1  A    between atoms: O_1  and  C_34
    2  A    between atoms: O_1  and  C_35
    3  A    between atoms: C_2  and  C_13
    4  A    between atoms: C_3  and  N_4
    5  A    between atoms: C_3  and  C_12
    6  A    between atoms: N_6  and  C_12
    7  A    between atoms: N_11  and  C_14
    8  A    between atoms: C_19  and  C_37
                            x       y       z     vdW  Elec       q    Type
                         _______ _______ _______ _____ _____    ______ ____

>  <TORSDO>
F 8

$$$$
=
 OpenBabel10262422343D

 43 49  0  0  1  0  0  0  0  0999 V2000
  184.7320  178.6250  145.6950 C   0  0  0  0  0  0  0  0  0  0  0  0
  182.5550  178.8230  141.1200 C   0  0  0  0  0  0  0  0  0  0  0  0
  184.6130  178.4450  139.2250 C   0  0  0  0  0  0  0  0  0  0  0  0
  183.1430  178.8150  143.8410 C   0  0  0  0  0  0  0  0  0  0  0  0
  185.7680  178.4380  144.8760 C   0  0  0  0  0  3  0  0  0  0  0  0
  184.9310  178.6350  147.0690 O   0  0  0  0  0  1  0  0  0  0  0  0
  184.1890  178.6240  142.9100 C   0  0  0  0  0  0  0  0  0  0  0  0
  183.3770  178.8190  145.1550 C   0  0  0  0  0  3  0  0  0  0  0  0
  185.6140  178.4170  143.3790 C   0  0  0  0  0  2  0  0  0  0  0  0
  184.9430  178.4340  140.5200 C   0  0  0  0  0  3  0  0  0  0  0  0
  183.8890  178.6290  141.5360 C   0  0  0  0  0  0  0  0  0  0  0  0
  181.5750  179.0030  142.0490 N   0  0  0  0  0  0  0  0  0  0  0  0
  182.2570  178.8280  139.8110 C   0  0  0  0  0  0  0  0  0  0  0  0
  183.2750  178.6420  138.8580 O   0  0  0  0  0  0  0  0  0  0  0  0
  181.8400  179.0030  143.3810 C   0  0  0  0  0  3  0  0  0  0  0  0
  185.6280  178.2540  138.1780 C   0  0  0  0  0  0  0  0  0  0  0  0
  186.8770  178.5300  138.4110 N   0  0  0  0  0  0  0  0  0  0  0  0
  185.2310  177.7820  136.9670 F   0  0  0  0  0  0  0  0  0  0  0  0
  187.9510  178.3810  137.4740 C   0  0  0  0  0  0  0  0  0  0  0  0
  188.4350  179.3750  136.8690 O   0  0  0  0  0  0  0  0  0  0  0  0
  188.4770  177.0210  137.1810 C   0  0  0  0  0  2  0  0  0  0  0  0
  189.9320  177.0560  137.1180 N   0  0  0  0  0  0  0  0  0  0  0  0
  191.0810  175.2530  138.3650 C   0  0  0  0  0  2  0  0  0  0  0  0
  190.0900  177.3990  139.6670 C   0  0  2  0  0  3  0  0  0  0  0  0
  190.3260  176.0020  136.1830 C   0  0  0  0  0  2  0  0  0  0  0  0
  190.4570  176.6220  138.4050 C   0  0  2  0  0  0  0  0  0  0  0  0
  191.4190  177.6450  138.9660 C   0  0  0  0  0  2  0  0  0  0  0  0
  191.2590  175.0200  136.8860 C   0  0  0  0  0  2  0  0  0  0  0  0
  190.2910  176.5760  140.8540 N   0  0  2  0  0  0  0  0  0  0  0  0
  191.0030  177.2680  142.9810 C   0  0  0  0  0  0  0  0  0  0  0  0
  189.5660  177.0140  143.1380 C   0  0  0  0  0  2  0  0  0  0  0  0
  191.6790  177.9330  143.8420 N   0  0  0  0  0  2  0  0  0  0  0  0
  189.1120  176.7530  141.7120 C   0  0  0  0  0  2  0  0  0  0  0  0
  191.4340  177.1270  141.5790 C   0  0  0  0  0  2  0  0  0  0  0  0
  180.9370  179.0190  139.3950 O   0  0  0  0  0  0  0  0  0  0  0  0
  181.0890  182.4720  137.8650 C   0  0  0  0  0  2  0  0  0  0  0  0
  180.3370  182.0790  136.5870 C   0  0  2  0  0  3  0  0  0  0  0  0
  180.5430  179.6070  137.0860 C   0  0  0  0  0  2  0  0  0  0  0  0
  181.5230  181.2710  138.7160 C   0  0  0  0  0  2  0  0  0  0  0  0
  180.5640  180.0930  138.5420 C   0  0  2  0  0  3  0  0  0  0  0  0
  180.8060  180.7200  136.0640 C   0  0  0  0  0  2  0  0  0  0  0  0
  181.1810  184.3140  136.1200 N   0  0  0  0  0  1  0  0  0  0  0  0
  180.5320  183.1540  135.5340 C   0  0  0  0  0  2  0  0  0  0  0  0
  1  6  1  0  0  0  0
  2 11  1  0  0  0  0
  2 12  1  0  0  0  0
  3 10  2  0  0  0  0
  4  8  2  0  0  0  0
  5  1  2  0  0  0  0
  7  9  1  0  0  0  0
  7  4  1  0  0  0  0
  8  1  1  0  0  0  0
  9  5  1  0  0  0  0
 10 11  1  0  0  0  0
 11  7  2  0  0  0  0
 12 15  2  0  0  0  0
 13  2  2  0  0  0  0
 14  3  1  0  0  0  0
 14 13  1  0  0  0  0
 15  4  1  0  0  0  0
 16 17  2  0  0  0  0
 16  3  1  0  0  0  0
 18 16  1  0  0  0  0
 19 17  1  0  0  0  0
 20 19  2  0  0  0  0
 21 19  1  0  0  0  0
 22 21  1  0  0  0  0
 22 26  1  0  0  0  0
 24 27  1  1  0  0  0
 24 29  1  0  0  0  0
 25 28  1  0  0  0  0
 25 22  1  0  0  0  0
 26 23  1  1  0  0  0
 26 27  1  0  0  0  0
 26 24  1  0  0  0  0
 28 23  1  0  0  0  0
 29 34  1  1  0  0  0
 29 33  1  0  0  0  0
 30 31  1  0  0  0  0
 30 32  2  0  0  0  0
 33 31  1  0  0  0  0
 34 30  1  0  0  0  0
 35 13  1  0  0  0  0
 36 39  1  0  0  0  0
 37 43  1  6  0  0  0
 37 36  1  0  0  0  0
 38 40  1  0  0  0  0
 40 39  1  0  0  0  0
 40 35  1  1  0  0  0
 41 37  1  0  0  0  0
 41 38  1  0  0  0  0
 43 42  1  0  0  0  0
M  END
>  <MODEL>
7

>  <REMARK>
 VINA RESULT:      -9.1      2.955      8.080
  Name = 
  8 active torsions:
  status: ('A' for Active; 'I' for Inactive)
    1  A    between atoms: O_1  and  C_34
    2  A    between atoms: O_1  and  C_35
    3  A    between atoms: C_2  and  C_13
    4  A    between atoms: C_3  and  N_4
    5  A    between atoms: C_3  and  C_12
    6  A    between atoms: N_6  and  C_12
    7  A    between atoms: N_11  and  C_14
    8  A    between atoms: C_19  and  C_37
                            x       y       z     vdW  Elec       q    Type
                         _______ _______ _______ _____ _____    ______ ____

>  <TORSDO>
F 8

$$$$
=
 OpenBabel10262422343D

 43 49  0  0  1  0  0  0  0  0999 V2000
  191.2180  176.6330  146.8240 C   0  0  0  0  0  0  0  0  0  0  0  0
  189.1430  177.9960  142.4030 C   0  0  0  0  0  0  0  0  0  0  0  0
  186.3590  178.1800  142.8360 C   0  0  0  0  0  0  0  0  0  0  0  0
  190.8360  177.2760  144.4920 C   0  0  1  0  0  3  0  0  0  0  0  0
  189.9200  176.6940  147.1240 C   0  0  0  0  0  3  0  0  0  0  0  0
  192.1370  176.2830  147.8040 O   0  0  0  0  0  1  0  0  0  0  0  0
  189.4460  177.3610  144.7310 C   0  0  0  0  0  0  0  0  0  0  0  0
  191.6870  176.9350  145.4620 C   0  0  0  0  0  3  0  0  0  0  0  0
  188.8780  177.0680  146.1040 C   0  0  0  0  0  3  0  0  0  0  0  0
  187.1330  177.8310  143.8680 C   0  0  0  0  0  3  0  0  0  0  0  0
  188.5930  177.7250  143.6750 C   0  0  0  0  0  0  0  0  0  0  0  0
  190.4880  177.9030  142.2130 N   0  0  0  0  0  0  0  0  0  0  0  0
  188.3380  178.3450  141.3870 C   0  0  0  0  0  0  0  0  0  0  0  0
  186.9490  178.4390  141.5910 O   0  0  0  0  0  0  0  0  0  0  0  0
  191.3320  177.5530  143.2180 C   0  0  0  0  0  3  0  0  0  0  0  0
  184.9010  178.2980  142.9820 C   0  0  0  0  0  0  0  0  0  0  0  0
  184.1760  178.7660  142.0090 N   0  0  0  0  0  0  0  0  0  0  0  0
  184.3310  177.9070  144.1520 F   0  0  0  0  0  0  0  0  0  0  0  0
  182.7510  178.9230  142.0330 C   0  0  0  0  0  0  0  0  0  0  0  0
  182.1540  179.3260  143.0680 O   0  0  0  0  0  0  0  0  0  0  0  0
  181.9590  178.5650  140.8260 C   0  0  0  0  0  2  0  0  0  0  0  0
  180.5380  178.5670  141.1480 N   0  0  0  0  0  0  0  0  0  0  0  0
  179.0180  178.5740  139.1950 C   0  0  0  0  0  2  0  0  0  0  0  0
  180.2230  180.8510  139.9970 C   0  0  2  0  0  3  0  0  0  0  0  0
  180.0630  177.2050  140.9060 C   0  0  0  0  0  2  0  0  0  0  0  0
  179.8450  179.3800  140.1590 C   0  0  2  0  0  0  0  0  0  0  0  0
  179.0130  180.4500  140.8310 C   0  0  0  0  0  2  0  0  0  0  0  0
  178.9310  177.2350  139.8830 C   0  0  0  0  0  2  0  0  0  0  0  0
  179.7950  181.3520  138.6960 N   0  0  2  0  0  0  0  0  0  0  0  0
  179.9120  183.5540  137.8920 C   0  0  0  0  0  0  0  0  0  0  0  0
  180.9860  182.8460  137.1850 C   0  0  0  0  0  2  0  0  0  0  0  0
  179.8470  184.8320  137.9340 N   0  0  0  0  0  2  0  0  0  0  0  0
  180.9980  181.4870  137.8640 C   0  0  0  0  0  2  0  0  0  0  0  0
  179.2620  182.6970  138.8990 C   0  0  0  0  0  2  0  0  0  0  0  0
  188.8780  178.6150  140.1270 O   0  0  0  0  0  0  0  0  0  0  0  0
  188.3450  177.6710  136.5070 C   0  0  0  0  0  2  0  0  0  0  0  0
  188.7770  176.2100  136.6900 C   0  0  2  0  0  3  0  0  0  0  0  0
  189.7230  176.6580  138.9940 C   0  0  0  0  0  2  0  0  0  0  0  0
  188.6660  178.5620  137.7130 C   0  0  0  0  0  2  0  0  0  0  0  0
  188.6550  177.7600  139.0140 C   0  0  2  0  0  3  0  0  0  0  0  0
  190.0090  176.1060  137.5910 C   0  0  0  0  0  2  0  0  0  0  0  0
  190.4580  175.7310  134.9960 N   0  0  0  0  0  1  0  0  0  0  0  0
  189.0520  175.5900  135.3330 C   0  0  0  0  0  2  0  0  0  0  0  0
  1  5  1  0  0  0  0
  1  6  1  0  0  0  0
  2 11  1  0  0  0  0
  3 16  1  0  0  0  0
  3 10  2  0  0  0  0
  4 15  1  6  0  0  0
  4  7  1  0  0  0  0
  4  8  1  0  0  0  0
  7  9  1  0  0  0  0
  8  1  2  0  0  0  0
  9  5  2  0  0  0  0
 11 10  1  0  0  0  0
 11  7  2  0  0  0  0
 12  2  1  0  0  0  0
 12 15  2  0  0  0  0
 13 14  1  0  0  0  0
 13  2  2  0  0  0  0
 14  3  1  0  0  0  0
 16 18  1  0  0  0  0
 17 19  1  0  0  0  0
 17 16  2  0  0  0  0
 19 20  2  0  0  0  0
 21 22  1  0  0  0  0
 21 19  1  0  0  0  0
 23 28  1  0  0  0  0
 24 26  1  0  0  0  0
 24 27  1  1  0  0  0
 25 22  1  0  0  0  0
 26 23  1  6  0  0  0
 26 27  1  0  0  0  0
 26 22  1  0  0  0  0
 28 25  1  0  0  0  0
 29 33  1  6  0  0  0
 29 34  1  0  0  0  0
 29 24  1  0  0  0  0
 30 32  2  0  0  0  0
 30 34  1  0  0  0  0
 31 33  1  0  0  0  0
 31 30  1  0  0  0  0
 35 13  1  0  0  0  0
 36 37  1  0  0  0  0
 36 39  1  0  0  0  0
 37 43  1  6  0  0  0
 37 41  1  0  0  0  0
 38 40  1  0  0  0  0
 39 40  1  0  0  0  0
 40 35  1  1  0  0  0
 41 38  1  0  0  0  0
 42 43  1  0  0  0  0
M  END
>  <MODEL>
8

>  <REMARK>
 VINA RESULT:      -9.1      2.092      3.942
  Name = 
  8 active torsions:
  status: ('A' for Active; 'I' for Inactive)
    1  A    between atoms: O_1  and  C_34
    2  A    between atoms: O_1  and  C_35
    3  A    between atoms: C_2  and  C_13
    4  A    between atoms: C_3  and  N_4
    5  A    between atoms: C_3  and  C_12
    6  A    between atoms: N_6  and  C_12
    7  A    between atoms: N_11  and  C_14
    8  A    between atoms: C_19  and  C_37
                            x       y       z     vdW  Elec       q    Type
                         _______ _______ _______ _____ _____    ______ ____

>  <TORSDO>
F 8

$$$$
=
 OpenBabel10262422343D

 43 49  0  0  1  0  0  0  0  0999 V2000
  181.1630  178.9200  143.2470 C   0  0  0  0  0  0  0  0  0  0  0  0
  184.7930  178.7340  139.7120 C   0  0  0  0  0  0  0  0  0  0  0  0
  187.2370  178.3690  141.0780 C   0  0  0  0  0  0  0  0  0  0  0  0
  182.4090  178.9130  141.1390 C   0  0  2  0  0  3  0  0  0  0  0  0
  182.2650  178.7470  143.9770 C   0  0  0  0  0  3  0  0  0  0  0  0
  179.9280  179.0180  143.8740 O   0  0  0  0  0  1  0  0  0  0  0  0
  183.6210  178.7310  141.8430 C   0  0  0  0  0  0  0  0  0  0  0  0
  181.2420  179.0040  141.7800 C   0  0  0  0  0  3  0  0  0  0  0  0
  183.6310  178.6330  143.3540 C   0  0  0  0  0  3  0  0  0  0  0  0
  186.1180  178.4500  141.8040 C   0  0  0  0  0  3  0  0  0  0  0  0
  184.8240  178.6410  141.1200 C   0  0  0  0  0  0  0  0  0  0  0  0
  183.6050  178.9090  139.0710 N   0  0  0  0  0  0  0  0  0  0  0  0
  185.9350  178.6480  139.0120 C   0  0  0  0  0  0  0  0  0  0  0  0
  187.1590  178.4680  139.6820 O   0  0  0  0  0  0  0  0  0  0  0  0
  182.4310  178.9990  139.7470 C   0  0  0  0  0  3  0  0  0  0  0  0
  188.5480  178.1780  141.7150 C   0  0  0  0  0  0  0  0  0  0  0  0
  189.1390  177.0200  141.6760 N   0  0  0  0  0  0  0  0  0  0  0  0
  189.1260  179.2370  142.3410 F   0  0  0  0  0  0  0  0  0  0  0  0
  190.4150  176.7170  142.2560 C   0  0  0  0  0  0  0  0  0  0  0  0
  191.4890  177.0260  141.6740 O   0  0  0  0  0  0  0  0  0  0  0  0
  190.4690  175.9870  143.5510 C   0  0  0  0  0  2  0  0  0  0  0  0
  191.0120  176.8570  144.5860 N   0  0  0  0  0  0  0  0  0  0  0  0
  190.2730  176.3360  146.8900 C   0  0  0  0  0  2  0  0  0  0  0  0
  188.6520  177.6840  145.2070 C   0  0  2  0  0  3  0  0  0  0  0  0
  192.0560  176.0860  145.2620 C   0  0  0  0  0  2  0  0  0  0  0  0
  189.9870  177.0560  145.6010 C   0  0  2  0  0  0  0  0  0  0  0  0
  189.7480  178.5310  145.8410 C   0  0  0  0  0  2  0  0  0  0  0  0
  191.7330  175.9870  146.7500 C   0  0  0  0  0  2  0  0  0  0  0  0
  187.6250  177.3690  146.1930 N   0  0  2  0  0  0  0  0  0  0  0  0
  186.2090  178.8620  147.3240 C   0  0  0  0  0  0  0  0  0  0  0  0
  185.3460  178.2190  146.3270 C   0  0  0  0  0  2  0  0  0  0  0  0
  185.8700  179.9350  147.9340 N   0  0  0  0  0  2  0  0  0  0  0  0
  186.3290  177.4080  145.5010 C   0  0  0  0  0  2  0  0  0  0  0  0
  187.6170  178.4500  147.1760 C   0  0  0  0  0  2  0  0  0  0  0  0
  185.9090  178.7390  137.6180 O   0  0  0  0  0  0  0  0  0  0  0  0
  189.1650  177.8290  135.9270 C   0  0  0  0  0  2  0  0  0  0  0  0
  188.7850  176.3610  135.6990 C   0  0  2  0  0  3  0  0  0  0  0  0
  186.7800  176.5190  137.2340 C   0  0  0  0  0  2  0  0  0  0  0  0
  188.2090  178.5710  136.8700 C   0  0  0  0  0  2  0  0  0  0  0  0
  186.7960  177.9910  136.7980 C   0  0  2  0  0  3  0  0  0  0  0  0
  188.0840  175.7730  136.9250 C   0  0  0  0  0  2  0  0  0  0  0  0
  190.8190  175.3370  136.5580 N   0  0  0  0  0  1  0  0  0  0  0  0
  190.0300  175.5620  135.3600 C   0  0  0  0  0  2  0  0  0  0  0  0
  1  6  1  0  0  0  0
  1  5  1  0  0  0  0
  2 11  1  0  0  0  0
  3 16  1  0  0  0  0
  3 10  2  0  0  0  0
  4 15  1  6  0  0  0
  4  8  1  0  0  0  0
  4  7  1  0  0  0  0
  7  9  1  0  0  0  0
  8  1  2  0  0  0  0
  9  5  2  0  0  0  0
 11 10  1  0  0  0  0
 11  7  2  0  0  0  0
 12  2  1  0  0  0  0
 12 15  2  0  0  0  0
 13 14  1  0  0  0  0
 13  2  2  0  0  0  0
 14  3  1  0  0  0  0
 16 18  1  0  0  0  0
 17 16  2  0  0  0  0
 17 19  1  0  0  0  0
 19 21  1  0  0  0  0
 20 19  2  0  0  0  0
 21 22  1  0  0  0  0
 22 25  1  0  0  0  0
 22 26  1  0  0  0  0
 24 26  1  0  0  0  0
 24 27  1  1  0  0  0
 24 29  1  0  0  0  0
 25 28  1  0  0  0  0
 26 27  1  1  0  0  0
 26 23  1  0  0  0  0
 28 23  1  0  0  0  0
 29 33  1  6  0  0  0
 29 34  1  0  0  0  0
 30 32  2  0  0  0  0
 31 30  1  0  0  0  0
 33 31  1  0  0  0  0
 34 30  1  0  0  0  0
 35 13  1  0  0  0  0
 36 39  1  0  0  0  0
 37 43  1  1  0  0  0
 37 36  1  0  0  0  0
 37 41  1  0  0  0  0
 40 39  1  0  0  0  0
 40 38  1  0  0  0  0
 40 35  1  1  0  0  0
 41 38  1  0  0  0  0
 43 42  1  0  0  0  0
M  END
>  <MODEL>
9

>  <REMARK>
 VINA RESULT:      -8.8      2.407      8.122
  Name = 
  8 active torsions:
  status: ('A' for Active; 'I' for Inactive)
    1  A    between atoms: O_1  and  C_34
    2  A    between atoms: O_1  and  C_35
    3  A    between atoms: C_2  and  C_13
    4  A    between atoms: C_3  and  N_4
    5  A    between atoms: C_3  and  C_12
    6  A    between atoms: N_6  and  C_12
    7  A    between atoms: N_11  and  C_14
    8  A    between atoms: C_19  and  C_37
                            x       y       z     vdW  Elec       q    Type
                         _______ _______ _______ _____ _____    ______ ____

>  <TORSDO>
F 8

$$$$
