=
 OpenBabel10262422593D

 37 40  0  0  1  0  0  0  0  0999 V2000
  182.5900  177.7500  137.1620 C   0  0  0  0  0  3  0  0  0  0  0  0
  182.6760  173.3650  136.7500 C   0  0  0  0  0  3  0  0  0  0  0  0
  183.7090  177.5060  137.8290 C   0  0  0  0  0  0  0  0  0  0  0  0
  182.9800  174.7310  136.7970 C   0  0  0  0  0  0  0  0  0  0  0  0
  182.0350  175.5200  136.2730 C   0  0  0  0  0  3  0  0  0  0  0  0
  184.2940  175.1480  137.1790 C   0  0  0  0  0  0  0  0  0  0  0  0
  184.9490  172.7860  137.2750 C   0  0  0  0  0  3  0  0  0  0  0  0
  182.1220  176.9340  136.0990 N   0  0  0  0  0  0  0  0  0  0  0  0
  185.2650  174.1390  137.3550 C   0  0  0  0  0  3  0  0  0  0  0  0
  184.6750  176.4330  137.4220 C   0  0  0  0  0  0  0  0  0  0  0  0
  183.6380  172.3900  137.0040 C   0  0  0  0  0  0  0  0  0  0  0  0
  183.2700  171.0440  136.9520 O   0  0  0  0  0  0  0  0  0  0  0  0
  183.7890  170.1420  135.9840 C   0  0  0  0  0  1  0  0  0  0  0  0
  180.5750  178.7860  135.6980 C   0  0  0  0  0  1  0  0  0  0  0  0
  181.2370  177.5460  135.1200 C   0  0  0  0  0  2  0  0  0  0  0  0
  183.9020  178.3530  139.0580 C   0  0  1  0  0  3  0  0  0  0  0  0
  184.2640  180.7110  138.8610 O   0  0  0  0  0  1  0  0  0  0  0  0
  183.2700  179.7350  138.9320 C   0  0  0  0  0  2  0  0  0  0  0  0
  183.4860  177.6440  140.3350 C   0  0  0  0  0  2  0  0  0  0  0  0
  183.3330  178.5820  141.3900 O   0  0  0  0  0  0  0  0  0  0  0  0
  185.3650  178.1270  142.4650 C   0  0  0  0  0  3  0  0  0  0  0  0
  184.0900  178.5130  142.5620 C   0  0  0  0  0  0  0  0  0  0  0  0
  183.4740  178.8690  143.8970 C   0  0  0  0  0  2  0  0  0  0  0  0
  184.0430  179.0110  146.2110 O   0  0  0  0  0  0  0  0  0  0  0  0
  185.7830  178.3170  144.8320 N   0  0  0  0  0  0  0  0  0  0  0  0
  184.4330  178.7410  145.0460 C   0  0  0  0  0  0  0  0  0  0  0  0
  186.2310  178.0290  143.6490 C   0  0  0  0  0  3  0  0  0  0  0  0
  186.1560  176.7700  137.2930 C   0  0  1  0  0  3  0  0  0  0  0  0
  186.6610  176.7620  135.8530 C   0  0  0  0  0  0  0  0  0  0  0  0
  187.5750  175.6730  135.3270 C   0  0  0  0  0  1  0  0  0  0  0  0
  185.6910  177.3160  134.8350 C   0  0  0  0  0  2  0  0  0  0  0  0
  186.9070  178.1290  135.2560 C   0  0  0  0  0  2  0  0  0  0  0  0
  186.6590  177.9510  138.1100 C   0  0  0  0  0  2  0  0  0  0  0  0
  187.9400  177.5870  138.8330 C   0  0  0  0  0  2  0  0  0  0  0  0
  189.0850  178.3980  138.2640 C   0  0  0  0  0  2  0  0  0  0  0  0
  190.0160  176.1140  138.1150 C   0  0  0  0  0  1  0  0  0  0  0  0
  190.0040  177.4870  137.4780 C   0  0  0  0  0  2  0  0  0  0  0  0
  1  3  2  0  0  0  0
  2  4  1  0  0  0  0
  2 11  2  0  0  0  0
  3 16  1  0  0  0  0
  4  6  1  0  0  0  0
  5  4  2  0  0  0  0
  6  9  1  0  0  0  0
  6 10  2  0  0  0  0
  7  9  2  0  0  0  0
  8  5  1  0  0  0  0
  8  1  1  0  0  0  0
 10  3  1  0  0  0  0
 11  7  1  0  0  0  0
 12 11  1  0  0  0  0
 13 12  1  0  0  0  0
 15 14  1  0  0  0  0
 15  8  1  0  0  0  0
 16 18  1  6  0  0  0
 16 19  1  0  0  0  0
 17 18  1  0  0  0  0
 19 20  1  0  0  0  0
 20 22  1  0  0  0  0
 21 22  2  0  0  0  0
 21 27  1  0  0  0  0
 22 23  1  0  0  0  0
 23 26  1  0  0  0  0
 25 26  1  0  0  0  0
 26 24  2  0  0  0  0
 27 25  2  0  0  0  0
 28 10  1  0  0  0  0
 28 33  1  6  0  0  0
 29 28  1  0  0  0  0
 30 29  1  0  0  0  0
 31 32  1  0  0  0  0
 31 29  1  0  0  0  0
 32 29  1  0  0  0  0
 33 34  1  0  0  0  0
 35 34  1  0  0  0  0
 37 36  1  0  0  0  0
 37 35  1  0  0  0  0
M  END
>  <MODEL>
1

>  <REMARK>
 VINA RESULT:      -6.0      0.000      0.000
  Name = 
  13 active torsions:
  status: ('A' for Active; 'I' for Inactive)
    1  A    between atoms: C_1  and  C_36
    2  A    between atoms: O_3  and  C_32
    3  A    between atoms: C_6  and  O_31
    4  A    between atoms: C_10  and  C_14
    5  A    between atoms: C_14  and  C_27
    6  A    between atoms: C_14  and  C_37
    7  A    between atoms: C_17  and  C_26
    8  A    between atoms: C_17  and  C_33
    9  A    between atoms: N_24  and  C_28
   10  A    between atoms: C_26  and  C_34
   11  A    between atoms: C_29  and  C_36
   12  A    between atoms: O_31  and  C_37
   13  A    between atoms: C_33  and  C_36
                            x       y       z     vdW  Elec       q    Type
                         _______ _______ _______ _____ _____    ______ ____

>  <TORSDO>
F 13

$$$$
=
 OpenBabel10262422593D

 37 40  0  0  1  0  0  0  0  0999 V2000
  183.9620  177.5870  138.3690 C   0  0  0  0  0  3  0  0  0  0  0  0
  185.4500  178.2290  142.4650 C   0  0  0  0  0  3  0  0  0  0  0  0
  182.8040  177.5550  139.0130 C   0  0  0  0  0  0  0  0  0  0  0  0
  184.7450  178.2590  141.2560 C   0  0  0  0  0  0  0  0  0  0  0  0
  185.5230  178.2200  140.1680 C   0  0  0  0  0  3  0  0  0  0  0  0
  183.3410  178.5340  141.2650 C   0  0  0  0  0  0  0  0  0  0  0  0
  183.4920  178.8950  143.6880 C   0  0  0  0  0  3  0  0  0  0  0  0
  185.0820  178.3360  138.8150 N   0  0  0  0  0  0  0  0  0  0  0  0
  182.7650  178.9030  142.5000 C   0  0  0  0  0  3  0  0  0  0  0  0
  182.5100  178.4350  140.1910 C   0  0  0  0  0  0  0  0  0  0  0  0
  184.8370  178.5230  143.6800 C   0  0  0  0  0  0  0  0  0  0  0  0
  185.5910  178.4650  144.8540 O   0  0  0  0  0  0  0  0  0  0  0  0
  185.1000  178.9220  146.1070 C   0  0  0  0  0  1  0  0  0  0  0  0
  186.2850  177.6210  136.8090 C   0  0  0  0  0  1  0  0  0  0  0  0
  186.0660  178.7340  137.8200 C   0  0  0  0  0  2  0  0  0  0  0  0
  181.8320  176.5260  138.5000 C   0  0  1  0  0  3  0  0  0  0  0  0
  179.8970  176.8200  137.1230 O   0  0  0  0  0  1  0  0  0  0  0  0
  181.2910  176.8580  137.1150 C   0  0  0  0  0  2  0  0  0  0  0  0
  182.3740  175.1100  138.5830 C   0  0  0  0  0  2  0  0  0  0  0  0
  182.3600  174.5030  137.2990 O   0  0  0  0  0  0  0  0  0  0  0  0
  183.2460  173.0360  135.7000 C   0  0  0  0  0  3  0  0  0  0  0  0
  183.4160  173.7150  136.8380 C   0  0  0  0  0  0  0  0  0  0  0  0
  184.7150  173.6420  137.6120 C   0  0  0  0  0  2  0  0  0  0  0  0
  186.8650  172.6080  137.5130 O   0  0  0  0  0  0  0  0  0  0  0  0
  185.4530  172.0680  135.7430 N   0  0  0  0  0  0  0  0  0  0  0  0
  185.7400  172.7520  136.9680 C   0  0  0  0  0  0  0  0  0  0  0  0
  184.3090  172.1860  135.1450 C   0  0  0  0  0  3  0  0  0  0  0  0
  181.2170  179.2420  140.2180 C   0  0  1  0  0  3  0  0  0  0  0  0
  181.1890  180.3840  139.2060 C   0  0  0  0  0  0  0  0  0  0  0  0
  182.4590  181.0450  138.7060 C   0  0  0  0  0  1  0  0  0  0  0  0
  180.0760  180.3060  138.1870 C   0  0  0  0  0  2  0  0  0  0  0  0
  180.0040  181.3140  139.3260 C   0  0  0  0  0  2  0  0  0  0  0  0
  179.9200  178.4470  140.2770 C   0  0  0  0  0  2  0  0  0  0  0  0
  179.4820  178.2560  141.7150 C   0  0  0  0  0  2  0  0  0  0  0  0
  179.2130  179.6070  142.3410 C   0  0  0  0  0  2  0  0  0  0  0  0
  179.7640  178.2850  144.3550 C   0  0  0  0  0  1  0  0  0  0  0  0
  178.9310  179.4300  143.8180 C   0  0  0  0  0  2  0  0  0  0  0  0
  1  8  1  0  0  0  0
  1  3  2  0  0  0  0
  2 11  2  0  0  0  0
  3 10  1  0  0  0  0
  4  6  1  0  0  0  0
  4  2  1  0  0  0  0
  5  4  2  0  0  0  0
  6  9  1  0  0  0  0
  8  5  1  0  0  0  0
  9  7  2  0  0  0  0
 10 28  1  0  0  0  0
 10  6  2  0  0  0  0
 11  7  1  0  0  0  0
 11 12  1  0  0  0  0
 12 13  1  0  0  0  0
 14 15  1  0  0  0  0
 15  8  1  0  0  0  0
 16 18  1  6  0  0  0
 16 19  1  0  0  0  0
 16  3  1  0  0  0  0
 18 17  1  0  0  0  0
 20 19  1  0  0  0  0
 21 22  2  0  0  0  0
 22 20  1  0  0  0  0
 22 23  1  0  0  0  0
 25 26  1  0  0  0  0
 26 24  2  0  0  0  0
 26 23  1  0  0  0  0
 27 21  1  0  0  0  0
 27 25  2  0  0  0  0
 28 33  1  6  0  0  0
 29 32  1  0  0  0  0
 29 28  1  0  0  0  0
 30 29  1  0  0  0  0
 31 29  1  0  0  0  0
 31 32  1  0  0  0  0
 33 34  1  0  0  0  0
 34 35  1  0  0  0  0
 35 37  1  0  0  0  0
 37 36  1  0  0  0  0
M  END
>  <MODEL>
2

>  <REMARK>
 VINA RESULT:      -5.2      2.746      8.067
  Name = 
  13 active torsions:
  status: ('A' for Active; 'I' for Inactive)
    1  A    between atoms: C_1  and  C_36
    2  A    between atoms: O_3  and  C_32
    3  A    between atoms: C_6  and  O_31
    4  A    between atoms: C_10  and  C_14
    5  A    between atoms: C_14  and  C_27
    6  A    between atoms: C_14  and  C_37
    7  A    between atoms: C_17  and  C_26
    8  A    between atoms: C_17  and  C_33
    9  A    between atoms: N_24  and  C_28
   10  A    between atoms: C_26  and  C_34
   11  A    between atoms: C_29  and  C_36
   12  A    between atoms: O_31  and  C_37
   13  A    between atoms: C_33  and  C_36
                            x       y       z     vdW  Elec       q    Type
                         _______ _______ _______ _____ _____    ______ ____

>  <TORSDO>
F 13

$$$$
=
 OpenBabel10262422593D

 37 40  0  0  1  0  0  0  0  0999 V2000
  189.2220  177.3050  138.0620 C   0  0  0  0  0  3  0  0  0  0  0  0
  186.6130  173.9430  136.9260 C   0  0  0  0  0  3  0  0  0  0  0  0
  190.0970  176.3160  138.1920 C   0  0  0  0  0  0  0  0  0  0  0  0
  187.6640  174.8540  137.0780 C   0  0  0  0  0  0  0  0  0  0  0  0
  187.2770  176.1350  137.1010 C   0  0  0  0  0  3  0  0  0  0  0  0
  189.0160  174.3950  136.9830 C   0  0  0  0  0  0  0  0  0  0  0  0
  188.1520  172.1670  136.4230 C   0  0  0  0  0  3  0  0  0  0  0  0
  188.1400  177.2720  137.1450 N   0  0  0  0  0  0  0  0  0  0  0  0
  189.2130  173.0510  136.5970 C   0  0  0  0  0  3  0  0  0  0  0  0
  190.1230  175.1350  137.2680 C   0  0  0  0  0  0  0  0  0  0  0  0
  186.8410  172.6030  136.6210 C   0  0  0  0  0  0  0  0  0  0  0  0
  185.7510  171.7390  136.4930 O   0  0  0  0  0  0  0  0  0  0  0  0
  184.4080  172.1640  136.6820 C   0  0  0  0  0  1  0  0  0  0  0  0
  186.9480  178.4060  135.3340 C   0  0  0  0  0  1  0  0  0  0  0  0
  187.5940  178.5460  136.7030 C   0  0  0  0  0  2  0  0  0  0  0  0
  191.0210  176.4510  139.3710 C   0  0  1  0  0  3  0  0  0  0  0  0
  193.1010  177.3190  140.1760 O   0  0  0  0  0  1  0  0  0  0  0  0
  192.3070  177.1980  139.0370 C   0  0  0  0  0  2  0  0  0  0  0  0
  190.3310  177.0150  140.6010 C   0  0  0  0  0  2  0  0  0  0  0  0
  190.2730  176.0330  141.6250 O   0  0  0  0  0  0  0  0  0  0  0  0
  191.4510  176.4150  143.6150 C   0  0  0  0  0  3  0  0  0  0  0  0
  190.2770  176.3710  142.9800 C   0  0  0  0  0  0  0  0  0  0  0  0
  188.9800  176.6800  143.6980 C   0  0  0  0  0  2  0  0  0  0  0  0
  188.1720  177.3060  145.8550 O   0  0  0  0  0  0  0  0  0  0  0  0
  190.4800  177.0440  145.7310 N   0  0  0  0  0  0  0  0  0  0  0  0
  189.1730  177.0270  145.1470 C   0  0  0  0  0  0  0  0  0  0  0  0
  191.5420  176.7640  145.0400 C   0  0  0  0  0  3  0  0  0  0  0  0
  191.4420  174.7110  136.6330 C   0  0  1  0  0  3  0  0  0  0  0  0
  191.8390  175.5610  135.4290 C   0  0  0  0  0  0  0  0  0  0  0  0
  190.8250  176.3740  134.6490 C   0  0  0  0  0  1  0  0  0  0  0  0
  193.2140  176.1830  135.5140 C   0  0  0  0  0  2  0  0  0  0  0  0
  192.9650  174.9960  134.5940 C   0  0  0  0  0  2  0  0  0  0  0  0
  192.5940  174.4230  137.5840 C   0  0  0  0  0  2  0  0  0  0  0  0
  193.2670  173.1150  137.2190 C   0  0  0  0  0  2  0  0  0  0  0  0
  194.6640  173.0900  137.8000 C   0  0  0  0  0  2  0  0  0  0  0  0
  195.4830  172.4950  135.5450 C   0  0  0  0  0  1  0  0  0  0  0  0
  195.6640  173.4350  136.7170 C   0  0  0  0  0  2  0  0  0  0  0  0
  1  3  2  0  0  0  0
  2  4  1  0  0  0  0
  3 16  1  0  0  0  0
  4  5  2  0  0  0  0
  5  8  1  0  0  0  0
  6  4  1  0  0  0  0
  6 10  2  0  0  0  0
  7  9  2  0  0  0  0
  7 11  1  0  0  0  0
  8  1  1  0  0  0  0
  9  6  1  0  0  0  0
 10  3  1  0  0  0  0
 11  2  2  0  0  0  0
 12 11  1  0  0  0  0
 12 13  1  0  0  0  0
 14 15  1  0  0  0  0
 15  8  1  0  0  0  0
 16 18  1  6  0  0  0
 16 19  1  0  0  0  0
 18 17  1  0  0  0  0
 19 20  1  0  0  0  0
 20 22  1  0  0  0  0
 21 27  1  0  0  0  0
 22 21  2  0  0  0  0
 22 23  1  0  0  0  0
 23 26  1  0  0  0  0
 26 25  1  0  0  0  0
 26 24  2  0  0  0  0
 27 25  2  0  0  0  0
 28 10  1  0  0  0  0
 28 33  1  1  0  0  0
 29 31  1  0  0  0  0
 29 28  1  0  0  0  0
 30 29  1  0  0  0  0
 32 29  1  0  0  0  0
 32 31  1  0  0  0  0
 34 33  1  0  0  0  0
 34 35  1  0  0  0  0
 36 37  1  0  0  0  0
 37 35  1  0  0  0  0
M  END
>  <MODEL>
3

>  <REMARK>
 VINA RESULT:      -5.0      4.083      6.092
  Name = 
  13 active torsions:
  status: ('A' for Active; 'I' for Inactive)
    1  A    between atoms: C_1  and  C_36
    2  A    between atoms: O_3  and  C_32
    3  A    between atoms: C_6  and  O_31
    4  A    between atoms: C_10  and  C_14
    5  A    between atoms: C_14  and  C_27
    6  A    between atoms: C_14  and  C_37
    7  A    between atoms: C_17  and  C_26
    8  A    between atoms: C_17  and  C_33
    9  A    between atoms: N_24  and  C_28
   10  A    between atoms: C_26  and  C_34
   11  A    between atoms: C_29  and  C_36
   12  A    between atoms: O_31  and  C_37
   13  A    between atoms: C_33  and  C_36
                            x       y       z     vdW  Elec       q    Type
                         _______ _______ _______ _____ _____    ______ ____

>  <TORSDO>
F 13

$$$$
=
 OpenBabel10262422593D

 37 40  0  0  1  0  0  0  0  0999 V2000
  183.6980  179.4580  138.8680 C   0  0  0  0  0  3  0  0  0  0  0  0
  180.3560  177.0940  140.4940 C   0  0  0  0  0  3  0  0  0  0  0  0
  184.2040  178.2450  138.6930 C   0  0  0  0  0  0  0  0  0  0  0  0
  181.4070  177.6110  139.7270 C   0  0  0  0  0  0  0  0  0  0  0  0
  181.4140  178.9470  139.6420 C   0  0  0  0  0  3  0  0  0  0  0  0
  182.2200  176.7230  138.9550 C   0  0  0  0  0  0  0  0  0  0  0  0
  180.7560  174.8800  139.6490 C   0  0  0  0  0  3  0  0  0  0  0  0
  182.3050  179.7320  138.8490 N   0  0  0  0  0  0  0  0  0  0  0  0
  181.8230  175.3690  138.9000 C   0  0  0  0  0  3  0  0  0  0  0  0
  183.3620  177.0680  138.2990 C   0  0  0  0  0  0  0  0  0  0  0  0
  180.0350  175.7390  140.4800 C   0  0  0  0  0  0  0  0  0  0  0  0
  178.9830  175.2810  141.2770 O   0  0  0  0  0  0  0  0  0  0  0  0
  178.9310  173.9590  141.7960 C   0  0  0  0  0  1  0  0  0  0  0  0
  180.9350  181.0760  137.3320 C   0  0  0  0  0  1  0  0  0  0  0  0
  181.8900  181.0860  138.5150 C   0  0  0  0  0  2  0  0  0  0  0  0
  185.6780  178.1360  138.9780 C   0  0  1  0  0  3  0  0  0  0  0  0
  187.7050  177.7500  137.7660 O   0  0  0  0  0  1  0  0  0  0  0  0
  186.5430  178.5200  137.7830 C   0  0  0  0  0  2  0  0  0  0  0  0
  186.0900  178.8640  140.2450 C   0  0  0  0  0  2  0  0  0  0  0  0
  186.2300  177.9430  141.3170 O   0  0  0  0  0  0  0  0  0  0  0  0
  184.9090  179.1480  142.8330 C   0  0  0  0  0  3  0  0  0  0  0  0
  185.9040  178.2790  142.6320 C   0  0  0  0  0  0  0  0  0  0  0  0
  186.6610  177.6670  143.7920 C   0  0  0  0  0  2  0  0  0  0  0  0
  186.7210  177.7010  146.1780 O   0  0  0  0  0  0  0  0  0  0  0  0
  185.0970  179.0750  145.2350 N   0  0  0  0  0  0  0  0  0  0  0  0
  186.1740  178.1380  145.1320 C   0  0  0  0  0  0  0  0  0  0  0  0
  184.5020  179.5530  144.1860 C   0  0  0  0  0  3  0  0  0  0  0  0
  183.8020  176.1910  137.1320 C   0  0  1  0  0  3  0  0  0  0  0  0
  183.7190  176.8910  135.7780 C   0  0  0  0  0  0  0  0  0  0  0  0
  184.9590  177.2610  134.9880 C   0  0  0  0  0  1  0  0  0  0  0  0
  182.5250  176.5070  134.9350 C   0  0  0  0  0  2  0  0  0  0  0  0
  182.5690  177.8600  135.6310 C   0  0  0  0  0  2  0  0  0  0  0  0
  185.0810  175.3910  137.3270 C   0  0  0  0  0  2  0  0  0  0  0  0
  184.7960  173.9060  137.2230 C   0  0  0  0  0  2  0  0  0  0  0  0
  185.7560  173.2790  136.2360 C   0  0  0  0  0  2  0  0  0  0  0  0
  184.0580  171.5290  136.6360 C   0  0  0  0  0  1  0  0  0  0  0  0
  185.4480  171.8020  136.1040 C   0  0  0  0  0  2  0  0  0  0  0  0
  3  1  2  0  0  0  0
  3 16  1  0  0  0  0
  4  2  1  0  0  0  0
  5  4  2  0  0  0  0
  6  4  1  0  0  0  0
  7 11  1  0  0  0  0
  8  1  1  0  0  0  0
  8  5  1  0  0  0  0
  9  6  1  0  0  0  0
  9  7  2  0  0  0  0
 10  3  1  0  0  0  0
 10  6  2  0  0  0  0
 11  2  2  0  0  0  0
 11 12  1  0  0  0  0
 12 13  1  0  0  0  0
 14 15  1  0  0  0  0
 15  8  1  0  0  0  0
 16 18  1  6  0  0  0
 16 19  1  0  0  0  0
 17 18  1  0  0  0  0
 19 20  1  0  0  0  0
 20 22  1  0  0  0  0
 21 27  1  0  0  0  0
 22 21  2  0  0  0  0
 22 23  1  0  0  0  0
 23 26  1  0  0  0  0
 26 25  1  0  0  0  0
 26 24  2  0  0  0  0
 27 25  2  0  0  0  0
 28 33  1  1  0  0  0
 28 10  1  0  0  0  0
 29 28  1  0  0  0  0
 30 29  1  0  0  0  0
 31 32  1  0  0  0  0
 31 29  1  0  0  0  0
 32 29  1  0  0  0  0
 34 33  1  0  0  0  0
 35 34  1  0  0  0  0
 37 35  1  0  0  0  0
 37 36  1  0  0  0  0
M  END
>  <MODEL>
4

>  <REMARK>
 VINA RESULT:      -4.9      2.460      4.311
  Name = 
  13 active torsions:
  status: ('A' for Active; 'I' for Inactive)
    1  A    between atoms: C_1  and  C_36
    2  A    between atoms: O_3  and  C_32
    3  A    between atoms: C_6  and  O_31
    4  A    between atoms: C_10  and  C_14
    5  A    between atoms: C_14  and  C_27
    6  A    between atoms: C_14  and  C_37
    7  A    between atoms: C_17  and  C_26
    8  A    between atoms: C_17  and  C_33
    9  A    between atoms: N_24  and  C_28
   10  A    between atoms: C_26  and  C_34
   11  A    between atoms: C_29  and  C_36
   12  A    between atoms: O_31  and  C_37
   13  A    between atoms: C_33  and  C_36
                            x       y       z     vdW  Elec       q    Type
                         _______ _______ _______ _____ _____    ______ ____

>  <TORSDO>
F 13

$$$$
=
 OpenBabel10262422593D

 37 40  0  0  1  0  0  0  0  0999 V2000
  189.0070  177.5020  140.0500 C   0  0  0  0  0  3  0  0  0  0  0  0
  192.9040  176.5510  138.2290 C   0  0  0  0  0  3  0  0  0  0  0  0
  188.6250  177.4190  138.7830 C   0  0  0  0  0  0  0  0  0  0  0  0
  191.5560  176.6010  138.6040 C   0  0  0  0  0  0  0  0  0  0  0  0
  191.3600  176.7780  139.9150 C   0  0  0  0  0  3  0  0  0  0  0  0
  190.5460  176.2600  137.6490 C   0  0  0  0  0  0  0  0  0  0  0  0
  192.3280  175.6830  136.0640 C   0  0  0  0  0  3  0  0  0  0  0  0
  190.0980  176.7670  140.5840 N   0  0  0  0  0  0  0  0  0  0  0  0
  190.9800  175.7510  136.4060 C   0  0  0  0  0  3  0  0  0  0  0  0
  189.2050  176.4200  137.8270 C   0  0  0  0  0  0  0  0  0  0  0  0
  193.3000  176.1170  136.9660 C   0  0  0  0  0  0  0  0  0  0  0  0
  194.6600  176.1010  136.6480 O   0  0  0  0  0  0  0  0  0  0  0  0
  195.1920  175.3200  135.5870 C   0  0  0  0  0  1  0  0  0  0  0  0
  188.6830  176.5180  142.5630 C   0  0  0  0  0  1  0  0  0  0  0  0
  190.1000  176.5110  142.0160 C   0  0  0  0  0  2  0  0  0  0  0  0
  187.6030  178.4440  138.3710 C   0  0  1  0  0  3  0  0  0  0  0  0
  189.0460  179.9930  137.2540 O   0  0  0  0  0  1  0  0  0  0  0  0
  187.9560  179.1430  137.0640 C   0  0  0  0  0  2  0  0  0  0  0  0
  186.1860  177.8980  138.3680 C   0  0  0  0  0  2  0  0  0  0  0  0
  185.2770  178.8870  138.8260 O   0  0  0  0  0  0  0  0  0  0  0  0
  183.3870  178.6780  140.1960 C   0  0  0  0  0  3  0  0  0  0  0  0
  184.7090  178.8410  140.1010 C   0  0  0  0  0  0  0  0  0  0  0  0
  185.5770  178.9720  141.3340 C   0  0  0  0  0  2  0  0  0  0  0  0
  185.4080  178.9900  143.7150 O   0  0  0  0  0  0  0  0  0  0  0  0
  183.3800  178.7190  142.6070 N   0  0  0  0  0  0  0  0  0  0  0  0
  184.8000  178.8970  142.6170 C   0  0  0  0  0  0  0  0  0  0  0  0
  182.7110  178.6170  141.5000 C   0  0  0  0  0  3  0  0  0  0  0  0
  188.2710  175.5540  136.9900 C   0  0  1  0  0  3  0  0  0  0  0  0
  187.9490  176.1510  135.6230 C   0  0  0  0  0  0  0  0  0  0  0  0
  188.7390  177.3100  135.0460 C   0  0  0  0  0  1  0  0  0  0  0  0
  187.4420  175.1620  134.5990 C   0  0  0  0  0  2  0  0  0  0  0  0
  186.4830  176.1460  135.2540 C   0  0  0  0  0  2  0  0  0  0  0  0
  188.5780  174.0650  136.9480 C   0  0  0  0  0  2  0  0  0  0  0  0
  187.4520  173.2750  137.5860 C   0  0  0  0  0  2  0  0  0  0  0  0
  186.9830  172.2050  136.6240 C   0  0  0  0  0  2  0  0  0  0  0  0
  184.8360  172.8770  137.6470 C   0  0  0  0  0  1  0  0  0  0  0  0
  185.4960  172.3610  136.3860 C   0  0  0  0  0  2  0  0  0  0  0  0
  1  8  1  0  0  0  0
  2  4  1  0  0  0  0
  3  1  2  0  0  0  0
  4  5  2  0  0  0  0
  5  8  1  0  0  0  0
  6 10  2  0  0  0  0
  6  4  1  0  0  0  0
  7  9  2  0  0  0  0
  7 11  1  0  0  0  0
  8 15  1  0  0  0  0
  9  6  1  0  0  0  0
 10  3  1  0  0  0  0
 11  2  2  0  0  0  0
 12 11  1  0  0  0  0
 13 12  1  0  0  0  0
 15 14  1  0  0  0  0
 16 18  1  6  0  0  0
 16  3  1  0  0  0  0
 18 17  1  0  0  0  0
 19 16  1  0  0  0  0
 19 20  1  0  0  0  0
 20 22  1  0  0  0  0
 21 27  1  0  0  0  0
 22 21  2  0  0  0  0
 22 23  1  0  0  0  0
 23 26  1  0  0  0  0
 25 26  1  0  0  0  0
 26 24  2  0  0  0  0
 27 25  2  0  0  0  0
 28 33  1  6  0  0  0
 28 10  1  0  0  0  0
 29 28  1  0  0  0  0
 30 29  1  0  0  0  0
 31 32  1  0  0  0  0
 31 29  1  0  0  0  0
 32 29  1  0  0  0  0
 33 34  1  0  0  0  0
 35 34  1  0  0  0  0
 37 35  1  0  0  0  0
 37 36  1  0  0  0  0
M  END
>  <MODEL>
5

>  <REMARK>
 VINA RESULT:      -4.6      3.159      6.650
  Name = 
  13 active torsions:
  status: ('A' for Active; 'I' for Inactive)
    1  A    between atoms: C_1  and  C_36
    2  A    between atoms: O_3  and  C_32
    3  A    between atoms: C_6  and  O_31
    4  A    between atoms: C_10  and  C_14
    5  A    between atoms: C_14  and  C_27
    6  A    between atoms: C_14  and  C_37
    7  A    between atoms: C_17  and  C_26
    8  A    between atoms: C_17  and  C_33
    9  A    between atoms: N_24  and  C_28
   10  A    between atoms: C_26  and  C_34
   11  A    between atoms: C_29  and  C_36
   12  A    between atoms: O_31  and  C_37
   13  A    between atoms: C_33  and  C_36
                            x       y       z     vdW  Elec       q    Type
                         _______ _______ _______ _____ _____    ______ ____

>  <TORSDO>
F 13

$$$$
=
 OpenBabel10262422593D

 37 40  0  0  1  0  0  0  0  0999 V2000
  181.9530  179.1230  141.3680 C   0  0  0  0  0  3  0  0  0  0  0  0
  185.5000  178.3410  138.8750 C   0  0  0  0  0  3  0  0  0  0  0  0
  181.3510  178.9870  140.1940 C   0  0  0  0  0  0  0  0  0  0  0  0
  184.2430  178.3260  139.4900 C   0  0  0  0  0  0  0  0  0  0  0  0
  184.2800  178.5260  140.8130 C   0  0  0  0  0  3  0  0  0  0  0  0
  183.0970  177.9070  138.7430 C   0  0  0  0  0  0  0  0  0  0  0  0
  184.5890  177.3880  136.8660 C   0  0  0  0  0  3  0  0  0  0  0  0
  183.1650  178.4630  141.7030 N   0  0  0  0  0  0  0  0  0  0  0  0
  183.3250  177.3910  137.4490 C   0  0  0  0  0  3  0  0  0  0  0  0
  181.8050  177.9970  139.1630 C   0  0  0  0  0  0  0  0  0  0  0  0
  185.6830  177.8970  137.5680 C   0  0  0  0  0  0  0  0  0  0  0  0
  186.9600  177.9470  137.0050 O   0  0  0  0  0  0  0  0  0  0  0  0
  187.3580  177.1130  135.9250 C   0  0  0  0  0  1  0  0  0  0  0  0
  184.4290  179.2780  143.6310 C   0  0  0  0  0  1  0  0  0  0  0  0
  183.4440  178.2440  143.1140 C   0  0  0  0  0  2  0  0  0  0  0  0
  180.2130  179.9440  139.9620 C   0  0  1  0  0  3  0  0  0  0  0  0
  179.3870  181.3650  141.7020 O   0  0  0  0  0  1  0  0  0  0  0  0
  179.2940  180.0790  141.1700 C   0  0  0  0  0  2  0  0  0  0  0  0
  180.6730  181.2920  139.4350 C   0  0  0  0  0  2  0  0  0  0  0  0
  179.8260  181.7230  138.3800 O   0  0  0  0  0  0  0  0  0  0  0  0
  180.7830  183.0700  136.7180 C   0  0  0  0  0  3  0  0  0  0  0  0
  179.9710  182.9720  137.7740 C   0  0  0  0  0  0  0  0  0  0  0  0
  179.2230  184.1760  138.3060 C   0  0  0  0  0  2  0  0  0  0  0  0
  178.9310  186.5050  137.8710 O   0  0  0  0  0  0  0  0  0  0  0  0
  180.3860  185.4280  136.4100 N   0  0  0  0  0  0  0  0  0  0  0  0
  179.4950  185.4330  137.5300 C   0  0  0  0  0  0  0  0  0  0  0  0
  180.9900  184.3470  136.0210 C   0  0  0  0  0  3  0  0  0  0  0  0
  180.7850  177.0610  138.5250 C   0  0  1  0  0  3  0  0  0  0  0  0
  180.1740  176.0650  139.5070 C   0  0  0  0  0  0  0  0  0  0  0  0
  178.9670  176.4120  140.3560 C   0  0  0  0  0  1  0  0  0  0  0  0
  180.2450  174.6190  139.0750 C   0  0  0  0  0  2  0  0  0  0  0  0
  181.1630  175.1370  140.1730 C   0  0  0  0  0  2  0  0  0  0  0  0
  179.7680  177.6980  137.5900 C   0  0  0  0  0  2  0  0  0  0  0  0
  179.7330  176.9620  136.2650 C   0  0  0  0  0  2  0  0  0  0  0  0
  179.7620  177.9650  135.1330 C   0  0  0  0  0  2  0  0  0  0  0  0
  180.7730  180.1790  134.7060 C   0  0  0  0  0  1  0  0  0  0  0  0
  181.0370  178.7770  135.2120 C   0  0  0  0  0  2  0  0  0  0  0  0
  1  8  1  0  0  0  0
  2  4  1  0  0  0  0
  3  1  2  0  0  0  0
  4  5  2  0  0  0  0
  5  8  1  0  0  0  0
  6 10  2  0  0  0  0
  6  4  1  0  0  0  0
  7  9  2  0  0  0  0
  7 11  1  0  0  0  0
  8 15  1  0  0  0  0
  9  6  1  0  0  0  0
 10  3  1  0  0  0  0
 11  2  2  0  0  0  0
 12 11  1  0  0  0  0
 13 12  1  0  0  0  0
 15 14  1  0  0  0  0
 16 19  1  1  0  0  0
 16  3  1  0  0  0  0
 16 18  1  0  0  0  0
 18 17  1  0  0  0  0
 20 19  1  0  0  0  0
 21 22  2  0  0  0  0
 22 23  1  0  0  0  0
 22 20  1  0  0  0  0
 25 26  1  0  0  0  0
 26 24  2  0  0  0  0
 26 23  1  0  0  0  0
 27 25  2  0  0  0  0
 27 21  1  0  0  0  0
 28 33  1  1  0  0  0
 28 10  1  0  0  0  0
 28 29  1  0  0  0  0
 29 32  1  0  0  0  0
 29 30  1  0  0  0  0
 31 29  1  0  0  0  0
 31 32  1  0  0  0  0
 34 33  1  0  0  0  0
 35 37  1  0  0  0  0
 35 34  1  0  0  0  0
 36 37  1  0  0  0  0
M  END
>  <MODEL>
6

>  <REMARK>
 VINA RESULT:      -4.6      3.757      7.619
  Name = 
  13 active torsions:
  status: ('A' for Active; 'I' for Inactive)
    1  A    between atoms: C_1  and  C_36
    2  A    between atoms: O_3  and  C_32
    3  A    between atoms: C_6  and  O_31
    4  A    between atoms: C_10  and  C_14
    5  A    between atoms: C_14  and  C_27
    6  A    between atoms: C_14  and  C_37
    7  A    between atoms: C_17  and  C_26
    8  A    between atoms: C_17  and  C_33
    9  A    between atoms: N_24  and  C_28
   10  A    between atoms: C_26  and  C_34
   11  A    between atoms: C_29  and  C_36
   12  A    between atoms: O_31  and  C_37
   13  A    between atoms: C_33  and  C_36
                            x       y       z     vdW  Elec       q    Type
                         _______ _______ _______ _____ _____    ______ ____

>  <TORSDO>
F 13

$$$$
=
 OpenBabel10262422593D

 37 40  0  0  1  0  0  0  0  0999 V2000
  190.4590  175.1880  136.9750 C   0  0  0  0  0  3  0  0  0  0  0  0
  190.4570  177.1450  140.9220 C   0  0  0  0  0  3  0  0  0  0  0  0
  189.1590  175.4300  137.0810 C   0  0  0  0  0  0  0  0  0  0  0  0
  190.2520  176.7850  139.5840 C   0  0  0  0  0  0  0  0  0  0  0  0
  191.3500  176.3380  138.9650 C   0  0  0  0  0  3  0  0  0  0  0  0
  189.0100  177.1050  138.9500 C   0  0  0  0  0  0  0  0  0  0  0  0
  188.3370  178.2760  140.9990 C   0  0  0  0  0  3  0  0  0  0  0  0
  191.4540  175.9980  137.5820 N   0  0  0  0  0  0  0  0  0  0  0  0
  188.1020  177.9030  139.6790 C   0  0  0  0  0  3  0  0  0  0  0  0
  188.6190  176.6760  137.7180 C   0  0  0  0  0  0  0  0  0  0  0  0
  189.5080  177.8680  141.6410 C   0  0  0  0  0  0  0  0  0  0  0  0
  189.7650  178.1880  142.9760 O   0  0  0  0  0  0  0  0  0  0  0  0
  190.8130  177.5840  143.7220 C   0  0  0  0  0  1  0  0  0  0  0  0
  193.6840  175.0020  137.7240 C   0  0  0  0  0  1  0  0  0  0  0  0
  192.7840  175.9840  136.9920 C   0  0  0  0  0  2  0  0  0  0  0  0
  188.2740  174.3300  136.5610 C   0  0  1  0  0  3  0  0  0  0  0  0
  188.6730  172.9810  134.6250 O   0  0  0  0  0  1  0  0  0  0  0  0
  189.0590  173.1750  135.9500 C   0  0  0  0  0  2  0  0  0  0  0  0
  187.2560  173.8580  137.5840 C   0  0  0  0  0  2  0  0  0  0  0  0
  186.6500  172.6480  137.1510 O   0  0  0  0  0  0  0  0  0  0  0  0
  184.8600  171.5490  136.1110 C   0  0  0  0  0  3  0  0  0  0  0  0
  185.2840  172.5590  136.8770 C   0  0  0  0  0  0  0  0  0  0  0  0
  184.3190  173.5810  137.4380 C   0  0  0  0  0  2  0  0  0  0  0  0
  181.9900  174.1060  137.4500 O   0  0  0  0  0  0  0  0  0  0  0  0
  182.5440  172.2120  136.2170 N   0  0  0  0  0  0  0  0  0  0  0  0
  182.8920  173.3280  137.0450 C   0  0  0  0  0  0  0  0  0  0  0  0
  183.4390  171.3820  135.7760 C   0  0  0  0  0  3  0  0  0  0  0  0
  187.5650  177.4960  136.9830 C   0  0  1  0  0  3  0  0  0  0  0  0
  187.8400  177.6420  135.4880 C   0  0  0  0  0  0  0  0  0  0  0  0
  189.2340  177.8940  134.9490 C   0  0  0  0  0  1  0  0  0  0  0  0
  186.9610  176.8000  134.5940 C   0  0  0  0  0  2  0  0  0  0  0  0
  186.7340  178.3020  134.6980 C   0  0  0  0  0  2  0  0  0  0  0  0
  186.1120  177.1850  137.3090 C   0  0  0  0  0  2  0  0  0  0  0  0
  185.4090  178.4250  137.8260 C   0  0  0  0  0  2  0  0  0  0  0  0
  184.5730  178.0610  139.0330 C   0  0  0  0  0  2  0  0  0  0  0  0
  182.5950  176.7920  139.7980 C   0  0  0  0  0  1  0  0  0  0  0  0
  183.5210  177.0500  138.6290 C   0  0  0  0  0  2  0  0  0  0  0  0
  1  3  2  0  0  0  0
  1  8  1  0  0  0  0
  2 11  2  0  0  0  0
  3 10  1  0  0  0  0
  4  2  1  0  0  0  0
  5  4  2  0  0  0  0
  6  4  1  0  0  0  0
  6  9  1  0  0  0  0
  7 11  1  0  0  0  0
  8  5  1  0  0  0  0
  9  7  2  0  0  0  0
 10  6  2  0  0  0  0
 11 12  1  0  0  0  0
 12 13  1  0  0  0  0
 15  8  1  0  0  0  0
 15 14  1  0  0  0  0
 16 18  1  1  0  0  0
 16  3  1  0  0  0  0
 16 19  1  0  0  0  0
 17 18  1  0  0  0  0
 20 19  1  0  0  0  0
 21 22  2  0  0  0  0
 22 20  1  0  0  0  0
 22 23  1  0  0  0  0
 25 26  1  0  0  0  0
 26 23  1  0  0  0  0
 26 24  2  0  0  0  0
 27 21  1  0  0  0  0
 27 25  2  0  0  0  0
 28 33  1  6  0  0  0
 28 10  1  0  0  0  0
 29 28  1  0  0  0  0
 30 29  1  0  0  0  0
 31 32  1  0  0  0  0
 31 29  1  0  0  0  0
 32 29  1  0  0  0  0
 33 34  1  0  0  0  0
 34 35  1  0  0  0  0
 37 35  1  0  0  0  0
 37 36  1  0  0  0  0
M  END
>  <MODEL>
7

>  <REMARK>
 VINA RESULT:      -4.5      3.402      8.079
  Name = 
  13 active torsions:
  status: ('A' for Active; 'I' for Inactive)
    1  A    between atoms: C_1  and  C_36
    2  A    between atoms: O_3  and  C_32
    3  A    between atoms: C_6  and  O_31
    4  A    between atoms: C_10  and  C_14
    5  A    between atoms: C_14  and  C_27
    6  A    between atoms: C_14  and  C_37
    7  A    between atoms: C_17  and  C_26
    8  A    between atoms: C_17  and  C_33
    9  A    between atoms: N_24  and  C_28
   10  A    between atoms: C_26  and  C_34
   11  A    between atoms: C_29  and  C_36
   12  A    between atoms: O_31  and  C_37
   13  A    between atoms: C_33  and  C_36
                            x       y       z     vdW  Elec       q    Type
                         _______ _______ _______ _____ _____    ______ ____

>  <TORSDO>
F 13

$$$$
=
 OpenBabel10262422593D

 37 40  0  0  1  0  0  0  0  0999 V2000
  183.8730  177.3960  138.6970 C   0  0  0  0  0  3  0  0  0  0  0  0
  185.3330  178.4320  142.7220 C   0  0  0  0  0  3  0  0  0  0  0  0
  182.7190  177.3540  139.3480 C   0  0  0  0  0  0  0  0  0  0  0  0
  184.6240  178.3310  141.5190 C   0  0  0  0  0  0  0  0  0  0  0  0
  185.4020  178.2470  140.4330 C   0  0  0  0  0  3  0  0  0  0  0  0
  183.2080  178.5320  141.5150 C   0  0  0  0  0  0  0  0  0  0  0  0
  183.3440  179.0880  143.9010 C   0  0  0  0  0  3  0  0  0  0  0  0
  184.9530  178.2350  139.0780 N   0  0  0  0  0  0  0  0  0  0  0  0
  182.6160  178.9660  142.7210 C   0  0  0  0  0  3  0  0  0  0  0  0
  182.3820  178.3070  140.4560 C   0  0  0  0  0  0  0  0  0  0  0  0
  184.7060  178.7870  143.9140 C   0  0  0  0  0  0  0  0  0  0  0  0
  185.4650  178.8600  145.0850 O   0  0  0  0  0  0  0  0  0  0  0  0
  184.9300  178.5620  146.3680 C   0  0  0  0  0  1  0  0  0  0  0  0
  187.2360  177.8910  138.2710 C   0  0  0  0  0  1  0  0  0  0  0  0
  185.9130  178.6040  138.0490 C   0  0  0  0  0  2  0  0  0  0  0  0
  181.8020  176.2390  138.9230 C   0  0  1  0  0  3  0  0  0  0  0  0
  179.7490  175.1930  139.5710 O   0  0  0  0  0  1  0  0  0  0  0  0
  180.9490  175.7020  140.0660 C   0  0  0  0  0  2  0  0  0  0  0  0
  180.9720  176.5910  137.7010 C   0  0  0  0  0  2  0  0  0  0  0  0
  181.4230  175.8570  136.5720 O   0  0  0  0  0  0  0  0  0  0  0  0
  182.8070  173.9750  136.7630 C   0  0  0  0  0  3  0  0  0  0  0  0
  181.5770  174.4690  136.6020 C   0  0  0  0  0  0  0  0  0  0  0  0
  180.3760  173.5600  136.4550 C   0  0  0  0  0  2  0  0  0  0  0  0
  179.8150  171.2400  136.4060 O   0  0  0  0  0  0  0  0  0  0  0  0
  182.0830  171.6770  136.6910 N   0  0  0  0  0  0  0  0  0  0  0  0
  180.7260  172.1000  136.5140 C   0  0  0  0  0  0  0  0  0  0  0  0
  183.0560  172.5270  136.8070 C   0  0  0  0  0  3  0  0  0  0  0  0
  181.0480  179.0440  140.4280 C   0  0  1  0  0  3  0  0  0  0  0  0
  180.9460  180.0770  139.3080 C   0  0  0  0  0  0  0  0  0  0  0  0
  182.1740  180.7230  138.6970 C   0  0  0  0  0  1  0  0  0  0  0  0
  179.8020  179.8610  138.3450 C   0  0  0  0  0  2  0  0  0  0  0  0
  179.7340  180.9770  139.3790 C   0  0  0  0  0  2  0  0  0  0  0  0
  179.7970  178.1940  140.5900 C   0  0  0  0  0  2  0  0  0  0  0  0
  179.3350  178.2030  142.0340 C   0  0  0  0  0  2  0  0  0  0  0  0
  178.9340  179.6090  142.4240 C   0  0  0  0  0  2  0  0  0  0  0  0
  179.6330  178.5330  144.5350 C   0  0  0  0  0  1  0  0  0  0  0  0
  178.9310  179.7300  143.9330 C   0  0  0  0  0  2  0  0  0  0  0  0
  1  8  1  0  0  0  0
  1  3  2  0  0  0  0
  2 11  2  0  0  0  0
  3 10  1  0  0  0  0
  4  2  1  0  0  0  0
  5  4  2  0  0  0  0
  6  4  1  0  0  0  0
  6  9  1  0  0  0  0
  7 11  1  0  0  0  0
  8  5  1  0  0  0  0
  9  7  2  0  0  0  0
 10  6  2  0  0  0  0
 11 12  1  0  0  0  0
 12 13  1  0  0  0  0
 15 14  1  0  0  0  0
 15  8  1  0  0  0  0
 16 19  1  6  0  0  0
 16  3  1  0  0  0  0
 16 18  1  0  0  0  0
 17 18  1  0  0  0  0
 20 22  1  0  0  0  0
 20 19  1  0  0  0  0
 21 27  1  0  0  0  0
 22 21  2  0  0  0  0
 23 26  1  0  0  0  0
 23 22  1  0  0  0  0
 24 26  2  0  0  0  0
 25 27  2  0  0  0  0
 26 25  1  0  0  0  0
 28 10  1  0  0  0  0
 28 33  1  6  0  0  0
 29 32  1  0  0  0  0
 29 28  1  0  0  0  0
 30 29  1  0  0  0  0
 31 29  1  0  0  0  0
 31 32  1  0  0  0  0
 33 34  1  0  0  0  0
 34 35  1  0  0  0  0
 35 37  1  0  0  0  0
 37 36  1  0  0  0  0
M  END
>  <MODEL>
8

>  <REMARK>
 VINA RESULT:      -4.5      2.855      8.352
  Name = 
  13 active torsions:
  status: ('A' for Active; 'I' for Inactive)
    1  A    between atoms: C_1  and  C_36
    2  A    between atoms: O_3  and  C_32
    3  A    between atoms: C_6  and  O_31
    4  A    between atoms: C_10  and  C_14
    5  A    between atoms: C_14  and  C_27
    6  A    between atoms: C_14  and  C_37
    7  A    between atoms: C_17  and  C_26
    8  A    between atoms: C_17  and  C_33
    9  A    between atoms: N_24  and  C_28
   10  A    between atoms: C_26  and  C_34
   11  A    between atoms: C_29  and  C_36
   12  A    between atoms: O_31  and  C_37
   13  A    between atoms: C_33  and  C_36
                            x       y       z     vdW  Elec       q    Type
                         _______ _______ _______ _____ _____    ______ ____

>  <TORSDO>
F 13

$$$$
=
 OpenBabel10262422593D

 37 40  0  0  1  0  0  0  0  0999 V2000
  182.2110  179.3260  140.2020 C   0  0  0  0  0  3  0  0  0  0  0  0
  186.0590  178.2180  138.3650 C   0  0  0  0  0  3  0  0  0  0  0  0
  181.7770  179.0310  138.9850 C   0  0  0  0  0  0  0  0  0  0  0  0
  184.7270  178.2850  138.7930 C   0  0  0  0  0  0  0  0  0  0  0  0
  184.5810  178.6630  140.0680 C   0  0  0  0  0  3  0  0  0  0  0  0
  183.6900  177.7660  137.9540 C   0  0  0  0  0  0  0  0  0  0  0  0
  185.4220  176.9980  136.3940 C   0  0  0  0  0  3  0  0  0  0  0  0
  183.3520  178.7200  140.7910 N   0  0  0  0  0  0  0  0  0  0  0  0
  184.0890  177.0790  136.7870 C   0  0  0  0  0  3  0  0  0  0  0  0
  182.3540  177.9110  138.1710 C   0  0  0  0  0  0  0  0  0  0  0  0
  186.4150  177.6000  137.1690 C   0  0  0  0  0  0  0  0  0  0  0  0
  187.7590  177.5750  136.7910 O   0  0  0  0  0  0  0  0  0  0  0  0
  188.6680  178.6190  137.1140 C   0  0  0  0  0  1  0  0  0  0  0  0
  182.0610  178.9660  142.8550 C   0  0  0  0  0  1  0  0  0  0  0  0
  183.4260  178.6960  142.2440 C   0  0  0  0  0  2  0  0  0  0  0  0
  180.7000  179.9460  138.4670 C   0  0  1  0  0  3  0  0  0  0  0  0
  179.6030  181.3360  140.0770 O   0  0  0  0  0  1  0  0  0  0  0  0
  179.5340  180.0990  139.4360 C   0  0  0  0  0  2  0  0  0  0  0  0
  181.2390  181.2860  137.9980 C   0  0  0  0  0  2  0  0  0  0  0  0
  180.6640  181.6370  136.7480 O   0  0  0  0  0  0  0  0  0  0  0  0
  179.5950  183.1420  135.3040 C   0  0  0  0  0  3  0  0  0  0  0  0
  180.1080  182.8960  136.5130 C   0  0  0  0  0  0  0  0  0  0  0  0
  180.0900  183.9440  137.6050 C   0  0  0  0  0  2  0  0  0  0  0  0
  179.3720  186.1860  137.9960 O   0  0  0  0  0  0  0  0  0  0  0  0
  178.9310  185.3940  135.8530 N   0  0  0  0  0  0  0  0  0  0  0  0
  179.4510  185.2340  137.1780 C   0  0  0  0  0  0  0  0  0  0  0  0
  178.9900  184.4410  134.9750 C   0  0  0  0  0  3  0  0  0  0  0  0
  181.4170  176.8950  137.5280 C   0  0  1  0  0  3  0  0  0  0  0  0
  180.4700  176.2250  138.5200 C   0  0  0  0  0  0  0  0  0  0  0  0
  178.9870  176.5380  138.5510 C   0  0  0  0  0  1  0  0  0  0  0  0
  180.8200  174.7980  138.8710 C   0  0  0  0  0  2  0  0  0  0  0  0
  181.0740  175.9170  139.8700 C   0  0  0  0  0  2  0  0  0  0  0  0
  180.7430  177.3170  136.2300 C   0  0  0  0  0  2  0  0  0  0  0  0
  180.4880  176.1090  135.3500 C   0  0  0  0  0  2  0  0  0  0  0  0
  181.8030  175.4260  135.0420 C   0  0  0  0  0  2  0  0  0  0  0  0
  180.6510  173.3180  135.6200 C   0  0  0  0  0  1  0  0  0  0  0  0
  181.5380  174.0020  134.6020 C   0  0  0  0  0  2  0  0  0  0  0  0
  1  8  1  0  0  0  0
  2  4  1  0  0  0  0
  3  1  2  0  0  0  0
  4  5  2  0  0  0  0
  5  8  1  0  0  0  0
  6 10  2  0  0  0  0
  6  4  1  0  0  0  0
  7  9  2  0  0  0  0
  7 11  1  0  0  0  0
  8 15  1  0  0  0  0
  9  6  1  0  0  0  0
 10  3  1  0  0  0  0
 11  2  2  0  0  0  0
 12 13  1  0  0  0  0
 12 11  1  0  0  0  0
 15 14  1  0  0  0  0
 16 19  1  1  0  0  0
 16  3  1  0  0  0  0
 16 18  1  0  0  0  0
 18 17  1  0  0  0  0
 20 19  1  0  0  0  0
 21 22  2  0  0  0  0
 22 20  1  0  0  0  0
 22 23  1  0  0  0  0
 25 26  1  0  0  0  0
 26 23  1  0  0  0  0
 26 24  2  0  0  0  0
 27 21  1  0  0  0  0
 27 25  2  0  0  0  0
 28 33  1  6  0  0  0
 28 10  1  0  0  0  0
 28 29  1  0  0  0  0
 29 30  1  0  0  0  0
 29 31  1  0  0  0  0
 29 32  1  0  0  0  0
 31 32  1  0  0  0  0
 34 33  1  0  0  0  0
 35 34  1  0  0  0  0
 37 35  1  0  0  0  0
 37 36  1  0  0  0  0
M  END
>  <MODEL>
9

>  <REMARK>
 VINA RESULT:      -4.4      3.606      7.544
  Name = 
  13 active torsions:
  status: ('A' for Active; 'I' for Inactive)
    1  A    between atoms: C_1  and  C_36
    2  A    between atoms: O_3  and  C_32
    3  A    between atoms: C_6  and  O_31
    4  A    between atoms: C_10  and  C_14
    5  A    between atoms: C_14  and  C_27
    6  A    between atoms: C_14  and  C_37
    7  A    between atoms: C_17  and  C_26
    8  A    between atoms: C_17  and  C_33
    9  A    between atoms: N_24  and  C_28
   10  A    between atoms: C_26  and  C_34
   11  A    between atoms: C_29  and  C_36
   12  A    between atoms: O_31  and  C_37
   13  A    between atoms: C_33  and  C_36
                            x       y       z     vdW  Elec       q    Type
                         _______ _______ _______ _____ _____    ______ ____

>  <TORSDO>
F 13

$$$$
