=
 OpenBabel10262422523D

 37 41  0  0  1  0  0  0  0  0999 V2000
  182.9230  176.8620  137.5860 C   0  0  1  0  0  0  0  0  0  0  0  0
  183.5570  179.0180  140.0760 C   0  0  2  0  0  3  0  0  0  0  0  0
  185.1230  177.8970  137.9380 O   0  0  0  0  0  0  0  0  0  0  0  0
  182.9870  177.9470  141.0010 C   0  0  0  0  0  2  0  0  0  0  0  0
  183.0010  179.0210  138.6380 C   0  0  2  0  0  3  0  0  0  0  0  0
  183.4430  178.1690  142.4560 C   0  0  1  0  0  3  0  0  0  0  0  0
  187.0090  178.1850  139.1970 O   0  0  0  0  0  0  0  0  0  0  0  0
  181.5950  178.5960  138.6310 N   0  0  2  0  0  0  0  0  0  0  0  0
  183.3290  175.9370  138.5500 O   0  0  0  0  0  1  0  0  0  0  0  0
  186.7970  179.4810  141.5730 O   0  0  0  0  0  0  0  0  0  0  0  0
  185.7650  178.3510  139.0880 C   0  0  0  0  0  0  0  0  0  0  0  0
  181.5130  177.3350  137.8850 C   0  0  0  0  0  2  0  0  0  0  0  0
  185.0130  178.9700  140.1440 N   0  0  0  0  0  0  0  0  0  0  0  0
  183.7420  178.1240  137.6570 C   0  0  2  0  0  3  0  0  0  0  0  0
  184.6880  179.0700  142.6650 C   0  0  2  0  0  3  0  0  0  0  0  0
  182.9980  176.2440  136.2050 C   0  0  0  0  0  1  0  0  0  0  0  0
  185.5820  179.1660  141.4480 C   0  0  0  0  0  0  0  0  0  0  0  0
  181.1210  179.8080  136.5720 N   0  0  0  0  0  2  0  0  0  0  0  0
  179.7100  181.8820  136.6160 C   0  0  0  0  0  2  0  0  0  0  0  0
  180.5360  180.8940  135.8630 C   0  0  0  0  0  0  0  0  0  0  0  0
  180.7360  181.0320  134.5960 N   0  0  0  0  0  2  0  0  0  0  0  0
  181.5430  182.8750  137.7420 F   0  0  0  0  0  0  0  0  0  0  0  0
  180.7180  180.9060  138.7760 C   0  0  0  0  0  2  0  0  0  0  0  0
  180.3680  182.1770  137.9710 C   0  0  2  0  0  0  0  0  0  0  0  0
  180.7430  179.5930  137.9710 C   0  0  2  0  0  3  0  0  0  0  0  0
  179.4350  183.0220  138.7840 C   0  0  0  0  0  0  0  0  0  0  0  0
  179.0930  184.1660  138.3840 O   0  0  0  0  0  0  0  0  0  0  0  0
  178.9310  182.5400  139.9870 O   0  0  0  0  0  1  0  0  0  0  0  0
  186.3240  177.5790  143.8350 C   0  0  0  0  0  3  0  0  0  0  0  0
  185.4390  178.6610  143.8980 C   0  0  0  0  0  0  0  0  0  0  0  0
  185.2630  179.3440  145.1120 C   0  0  0  0  0  3  0  0  0  0  0  0
  185.7920  179.6390  147.4780 N   0  0  0  0  0  1  0  0  0  0  0  0
  186.8530  177.8630  146.1800 C   0  0  0  0  0  3  0  0  0  0  0  0
  185.9700  178.9450  146.2500 C   0  0  0  0  0  0  0  0  0  0  0  0
  187.0300  177.1810  144.9730 C   0  0  0  0  0  3  0  0  0  0  0  0
  182.2760  178.6070  143.3390 C   0  0  0  0  0  2  0  0  0  0  0  0
  181.1080  179.1330  142.5180 C   0  0  0  0  0  1  0  0  0  0  0  0
  1 16  1  6  0  0  0
  1 14  1  0  0  0  0
  1 12  1  0  0  0  0
  1  9  1  0  0  0  0
  2 13  1  0  0  0  0
  2  4  1  1  0  0  0
  3 11  1  0  0  0  0
  4  6  1  0  0  0  0
  5  2  1  0  0  0  0
  6 15  1  0  0  0  0
  6 36  1  0  0  0  0
  8  5  1  0  0  0  0
 11  7  2  0  0  0  0
 11 13  1  0  0  0  0
 12  8  1  0  0  0  0
 13 17  1  0  0  0  0
 14  3  1  0  0  0  0
 14  5  1  0  0  0  0
 15 30  1  0  0  0  0
 17 10  2  0  0  0  0
 17 15  1  0  0  0  0
 18 25  1  0  0  0  0
 19 24  1  0  0  0  0
 20 18  1  0  0  0  0
 20 19  1  0  0  0  0
 21 20  2  0  0  0  0
 22 24  1  0  0  0  0
 24 23  1  0  0  0  0
 24 26  1  0  0  0  0
 25  8  1  0  0  0  0
 25 23  1  0  0  0  0
 26 28  1  0  0  0  0
 27 26  2  0  0  0  0
 29 30  2  0  0  0  0
 29 35  1  0  0  0  0
 30 31  1  0  0  0  0
 31 34  2  0  0  0  0
 33 34  1  0  0  0  0
 34 32  1  0  0  0  0
 35 33  2  0  0  0  0
 37 36  1  0  0  0  0
M  END
>  <MODEL>
1

>  <REMARK>
 VINA RESULT:      -8.7      0.000      0.000
  Name = 
  4 active torsions:
  status: ('A' for Active; 'I' for Inactive)
    1  A    between atoms: C_6  and  C_31
    2  A    between atoms: C_7  and  C_14
    3  A    between atoms: C_11  and  C_33
    4  A    between atoms: N_20  and  C_36
                            x       y       z     vdW  Elec       q    Type
                         _______ _______ _______ _____ _____    ______ ____

>  <TORSDO>
F 4

$$$$
=
 OpenBabel10262422523D

 37 41  0  0  1  0  0  0  0  0999 V2000
  182.5980  177.0340  138.2140 C   0  0  1  0  0  0  0  0  0  0  0  0
  184.9460  178.9050  139.7100 C   0  0  2  0  0  3  0  0  0  0  0  0
  184.9170  177.1730  137.4130 O   0  0  0  0  0  0  0  0  0  0  0  0
  184.5540  178.1750  140.9920 C   0  0  0  0  0  2  0  0  0  0  0  0
  183.8290  179.0500  138.6580 C   0  0  2  0  0  3  0  0  0  0  0  0
  185.6670  178.2770  142.0520 C   0  0  1  0  0  3  0  0  0  0  0  0
  187.1510  176.7840  137.7040 O   0  0  0  0  0  0  0  0  0  0  0  0
  182.5220  179.1910  139.3130 N   0  0  2  0  0  0  0  0  0  0  0  0
  183.0830  176.0710  139.1020 O   0  0  0  0  0  1  0  0  0  0  0  0
  188.4690  178.1760  139.6260 O   0  0  0  0  0  0  0  0  0  0  0  0
  186.1190  177.4040  138.0770 C   0  0  0  0  0  0  0  0  0  0  0  0
  181.7130  178.0200  138.9520 C   0  0  0  0  0  2  0  0  0  0  0  0
  186.1720  178.3110  139.1900 N   0  0  0  0  0  0  0  0  0  0  0  0
  183.7130  177.8930  137.6760 C   0  0  2  0  0  3  0  0  0  0  0  0
  187.0840  178.6480  141.5410 C   0  0  2  0  0  3  0  0  0  0  0  0
  181.8350  176.3690  137.0880 C   0  0  0  0  0  1  0  0  0  0  0  0
  187.3020  178.3390  140.0760 C   0  0  0  0  0  0  0  0  0  0  0  0
  180.7300  180.7810  139.7510 N   0  0  0  0  0  2  0  0  0  0  0  0
  179.9240  182.3150  137.9380 C   0  0  0  0  0  2  0  0  0  0  0  0
  179.8310  181.8020  139.3350 C   0  0  0  0  0  0  0  0  0  0  0  0
  178.9370  182.2570  140.1470 N   0  0  0  0  0  2  0  0  0  0  0  0
  179.0460  180.3570  136.9330 F   0  0  0  0  0  0  0  0  0  0  0  0
  181.3700  180.2540  137.3980 C   0  0  0  0  0  2  0  0  0  0  0  0
  180.1830  181.1480  136.9760 C   0  0  2  0  0  0  0  0  0  0  0  0
  181.8300  180.4030  138.8600 C   0  0  2  0  0  3  0  0  0  0  0  0
  180.4580  181.7010  135.6100 C   0  0  0  0  0  0  0  0  0  0  0  0
  180.4070  180.9570  134.5950 O   0  0  0  0  0  0  0  0  0  0  0  0
  180.7600  183.0500  135.4540 O   0  0  0  0  0  1  0  0  0  0  0  0
  187.9530  176.7530  142.9270 C   0  0  0  0  0  3  0  0  0  0  0  0
  188.1400  178.0440  142.4190 C   0  0  0  0  0  0  0  0  0  0  0  0
  189.3070  178.7540  142.7400 C   0  0  0  0  0  3  0  0  0  0  0  0
  191.4600  178.8950  143.8840 N   0  0  0  0  0  1  0  0  0  0  0  0
  190.0860  176.8840  144.0660 C   0  0  0  0  0  3  0  0  0  0  0  0
  190.2780  178.1740  143.5620 C   0  0  0  0  0  0  0  0  0  0  0  0
  188.9240  176.1750  143.7480 C   0  0  0  0  0  3  0  0  0  0  0  0
  185.2380  179.1670  143.2180 C   0  0  0  0  0  2  0  0  0  0  0  0
  183.9460  178.6830  143.8590 C   0  0  0  0  0  1  0  0  0  0  0  0
  1 16  1  6  0  0  0
  1 12  1  0  0  0  0
  1  9  1  0  0  0  0
  2  4  1  1  0  0  0
  3 14  1  0  0  0  0
  3 11  1  0  0  0  0
  4  6  1  0  0  0  0
  5  8  1  0  0  0  0
  5  2  1  0  0  0  0
  6 36  1  0  0  0  0
  7 11  2  0  0  0  0
 10 17  2  0  0  0  0
 11 13  1  0  0  0  0
 12  8  1  0  0  0  0
 13  2  1  0  0  0  0
 13 17  1  0  0  0  0
 14  1  1  0  0  0  0
 14  5  1  0  0  0  0
 15  6  1  0  0  0  0
 15 30  1  0  0  0  0
 17 15  1  0  0  0  0
 19 20  1  0  0  0  0
 20 18  1  0  0  0  0
 20 21  2  0  0  0  0
 22 24  1  0  0  0  0
 23 25  1  0  0  0  0
 24 23  1  0  0  0  0
 24 19  1  0  0  0  0
 25  8  1  0  0  0  0
 25 18  1  0  0  0  0
 26 24  1  0  0  0  0
 27 26  2  0  0  0  0
 28 26  1  0  0  0  0
 29 35  1  0  0  0  0
 30 31  1  0  0  0  0
 30 29  2  0  0  0  0
 31 34  2  0  0  0  0
 34 32  1  0  0  0  0
 34 33  1  0  0  0  0
 35 33  2  0  0  0  0
 36 37  1  0  0  0  0
M  END
>  <MODEL>
2

>  <REMARK>
 VINA RESULT:      -7.8      2.432      3.046
  Name = 
  4 active torsions:
  status: ('A' for Active; 'I' for Inactive)
    1  A    between atoms: C_6  and  C_31
    2  A    between atoms: C_7  and  C_14
    3  A    between atoms: C_11  and  C_33
    4  A    between atoms: N_20  and  C_36
                            x       y       z     vdW  Elec       q    Type
                         _______ _______ _______ _____ _____    ______ ____

>  <TORSDO>
F 4

$$$$
=
 OpenBabel10262422523D

 37 41  0  0  1  0  0  0  0  0999 V2000
  188.2190  177.8170  135.6570 C   0  0  1  0  0  0  0  0  0  0  0  0
  186.0600  177.1040  138.1230 C   0  0  2  0  0  3  0  0  0  0  0  0
  187.0280  175.6740  135.8220 O   0  0  0  0  0  0  0  0  0  0  0  0
  185.3680  178.4110  137.7460 C   0  0  0  0  0  2  0  0  0  0  0  0
  187.5750  177.0470  137.8400 C   0  0  2  0  0  3  0  0  0  0  0  0
  183.9180  178.4420  138.2670 C   0  0  1  0  0  3  0  0  0  0  0  0
  185.0880  174.4660  135.7830 O   0  0  0  0  0  0  0  0  0  0  0  0
  188.1800  178.3740  138.0130 N   0  0  2  0  0  0  0  0  0  0  0  0
  187.0550  178.2870  135.0440 O   0  0  0  0  0  1  0  0  0  0  0  0
  183.3030  174.8150  137.7980 O   0  0  0  0  0  0  0  0  0  0  0  0
  185.7900  175.3370  136.3640 C   0  0  0  0  0  0  0  0  0  0  0  0
  188.6870  178.8070  136.7060 C   0  0  0  0  0  2  0  0  0  0  0  0
  185.3110  175.9930  137.5480 N   0  0  0  0  0  0  0  0  0  0  0  0
  187.9530  176.5630  136.4470 C   0  0  2  0  0  3  0  0  0  0  0  0
  183.2810  177.0760  138.6340 C   0  0  2  0  0  3  0  0  0  0  0  0
  189.2980  177.5860  134.6190 C   0  0  0  0  0  1  0  0  0  0  0  0
  183.9360  175.8960  137.9500 C   0  0  0  0  0  0  0  0  0  0  0  0
  190.3640  177.4270  138.5220 N   0  0  0  0  0  2  0  0  0  0  0  0
  191.2870  177.5450  140.8520 C   0  0  0  0  0  2  0  0  0  0  0  0
  191.4110  177.1070  139.4320 C   0  0  0  0  0  0  0  0  0  0  0  0
  192.4370  176.4310  139.0370 N   0  0  0  0  0  2  0  0  0  0  0  0
  189.5790  175.9970  141.4020 F   0  0  0  0  0  0  0  0  0  0  0  0
  188.7950  177.9880  140.3790 C   0  0  0  0  0  2  0  0  0  0  0  0
  189.8390  177.3560  141.3250 C   0  0  2  0  0  0  0  0  0  0  0  0
  189.2970  178.3280  138.9630 C   0  0  2  0  0  3  0  0  0  0  0  0
  189.6930  177.9710  142.6840 C   0  0  0  0  0  0  0  0  0  0  0  0
  190.6560  178.5840  143.2170 O   0  0  0  0  0  0  0  0  0  0  0  0
  188.4830  177.8770  143.3630 O   0  0  0  0  0  1  0  0  0  0  0  0
  180.9470  176.7310  139.4700 C   0  0  0  0  0  3  0  0  0  0  0  0
  181.7960  177.1100  138.4240 C   0  0  0  0  0  0  0  0  0  0  0  0
  181.2480  177.5120  137.1960 C   0  0  0  0  0  3  0  0  0  0  0  0
  179.3080  177.9440  135.7750 N   0  0  0  0  0  1  0  0  0  0  0  0
  179.0180  177.1560  138.0690 C   0  0  0  0  0  3  0  0  0  0  0  0
  179.8610  177.5340  137.0200 C   0  0  0  0  0  0  0  0  0  0  0  0
  179.5610  176.7540  139.2930 C   0  0  0  0  0  3  0  0  0  0  0  0
  183.7590  179.4590  139.3950 C   0  0  0  0  0  2  0  0  0  0  0  0
  184.1260  178.8690  140.7490 C   0  0  0  0  0  1  0  0  0  0  0  0
  1 16  1  6  0  0  0
  1 14  1  0  0  0  0
  1 12  1  0  0  0  0
  2  4  1  6  0  0  0
  3 11  1  0  0  0  0
  3 14  1  0  0  0  0
  4  6  1  0  0  0  0
  5  8  1  0  0  0  0
  5  2  1  0  0  0  0
  6 15  1  0  0  0  0
  6 36  1  0  0  0  0
  7 11  2  0  0  0  0
  8 25  1  0  0  0  0
  9  1  1  0  0  0  0
 10 17  2  0  0  0  0
 11 13  1  0  0  0  0
 12  8  1  0  0  0  0
 13 17  1  0  0  0  0
 13  2  1  0  0  0  0
 14  5  1  0  0  0  0
 17 15  1  0  0  0  0
 18 25  1  0  0  0  0
 18 20  1  0  0  0  0
 19 24  1  0  0  0  0
 20 19  1  0  0  0  0
 21 20  2  0  0  0  0
 23 24  1  0  0  0  0
 24 22  1  0  0  0  0
 24 26  1  0  0  0  0
 25 23  1  0  0  0  0
 26 27  2  0  0  0  0
 26 28  1  0  0  0  0
 30 15  1  0  0  0  0
 30 29  2  0  0  0  0
 31 30  1  0  0  0  0
 32 34  1  0  0  0  0
 33 35  2  0  0  0  0
 34 31  2  0  0  0  0
 34 33  1  0  0  0  0
 35 29  1  0  0  0  0
 36 37  1  0  0  0  0
M  END
>  <MODEL>
3

>  <REMARK>
 VINA RESULT:      -6.6      4.513      8.465
  Name = 
  4 active torsions:
  status: ('A' for Active; 'I' for Inactive)
    1  A    between atoms: C_6  and  C_31
    2  A    between atoms: C_7  and  C_14
    3  A    between atoms: C_11  and  C_33
    4  A    between atoms: N_20  and  C_36
                            x       y       z     vdW  Elec       q    Type
                         _______ _______ _______ _____ _____    ______ ____

>  <TORSDO>
F 4

$$$$
=
 OpenBabel10262422523D

 37 41  0  0  1  0  0  0  0  0999 V2000
  190.2210  175.8010  135.6940 C   0  0  1  0  0  0  0  0  0  0  0  0
  187.4390  175.4350  137.5300 C   0  0  2  0  0  3  0  0  0  0  0  0
  189.2970  173.6090  136.3090 O   0  0  0  0  0  0  0  0  0  0  0  0
  186.7770  176.3570  136.5110 C   0  0  0  0  0  2  0  0  0  0  0  0
  188.9540  175.6400  137.7280 C   0  0  2  0  0  3  0  0  0  0  0  0
  185.2430  176.2190  136.5500 C   0  0  1  0  0  3  0  0  0  0  0  0
  187.6400  172.0400  136.1820 O   0  0  0  0  0  0  0  0  0  0  0  0
  189.3080  177.0540  137.5530 N   0  0  2  0  0  0  0  0  0  0  0  0
  189.2960  175.7710  134.6480 O   0  0  0  0  0  1  0  0  0  0  0  0
  185.2410  172.5930  137.3260 O   0  0  0  0  0  0  0  0  0  0  0  0
  187.9950  173.1870  136.5660 C   0  0  0  0  0  0  0  0  0  0  0  0
  190.1830  177.1530  136.3790 C   0  0  0  0  0  2  0  0  0  0  0  0
  187.0650  174.0580  137.2290 N   0  0  0  0  0  0  0  0  0  0  0  0
  189.8430  174.8380  136.7880 C   0  0  2  0  0  3  0  0  0  0  0  0
  184.6760  174.9330  137.2080 C   0  0  2  0  0  3  0  0  0  0  0  0
  191.6110  175.5060  135.1690 C   0  0  0  0  0  1  0  0  0  0  0  0
  185.6560  173.7810  137.2330 C   0  0  0  0  0  0  0  0  0  0  0  0
  191.4170  177.1170  138.7680 N   0  0  0  0  0  2  0  0  0  0  0  0
  191.4840  177.8770  141.1580 C   0  0  0  0  0  2  0  0  0  0  0  0
  192.1780  177.3510  139.9470 C   0  0  0  0  0  0  0  0  0  0  0  0
  193.4430  177.0920  139.9730 N   0  0  0  0  0  2  0  0  0  0  0  0
  190.3300  175.8610  141.6310 F   0  0  0  0  0  0  0  0  0  0  0  0
  189.2630  177.2380  140.0210 C   0  0  0  0  0  2  0  0  0  0  0  0
  190.1180  177.1920  141.3070 C   0  0  2  0  0  0  0  0  0  0  0  0
  190.0260  177.5710  138.7250 C   0  0  2  0  0  3  0  0  0  0  0  0
  189.3620  177.8620  142.4130 C   0  0  0  0  0  0  0  0  0  0  0  0
  189.9400  178.1710  143.4880 O   0  0  0  0  0  1  0  0  0  0  0  0
  188.0120  178.1580  142.2530 O   0  0  0  0  0  0  0  0  0  0  0  0
  183.2400  174.5330  135.1970 C   0  0  0  0  0  3  0  0  0  0  0  0
  183.3610  174.5560  136.5910 C   0  0  0  0  0  0  0  0  0  0  0  0
  182.2540  174.2310  137.3900 C   0  0  0  0  0  3  0  0  0  0  0  0
  179.9180  173.5550  137.6070 N   0  0  0  0  0  1  0  0  0  0  0  0
  180.9220  173.8630  135.4020 C   0  0  0  0  0  3  0  0  0  0  0  0
  181.0380  173.8850  136.7950 C   0  0  0  0  0  0  0  0  0  0  0  0
  182.0230  174.1870  134.6040 C   0  0  0  0  0  3  0  0  0  0  0  0
  184.5900  177.4770  137.1190 C   0  0  0  0  0  2  0  0  0  0  0  0
  185.5390  178.2530  138.0200 C   0  0  0  0  0  1  0  0  0  0  0  0
  1 16  1  6  0  0  0
  1 12  1  0  0  0  0
  1 14  1  0  0  0  0
  2  4  1  6  0  0  0
  2  5  1  0  0  0  0
  3 11  1  0  0  0  0
  3 14  1  0  0  0  0
  4  6  1  0  0  0  0
  6 36  1  0  0  0  0
  6 15  1  0  0  0  0
  7 11  2  0  0  0  0
  8  5  1  0  0  0  0
  8 25  1  0  0  0  0
  9  1  1  0  0  0  0
 11 13  1  0  0  0  0
 12  8  1  0  0  0  0
 13 17  1  0  0  0  0
 13  2  1  0  0  0  0
 14  5  1  0  0  0  0
 15 17  1  0  0  0  0
 17 10  2  0  0  0  0
 18 20  1  0  0  0  0
 19 24  1  0  0  0  0
 20 21  2  0  0  0  0
 20 19  1  0  0  0  0
 23 24  1  0  0  0  0
 24 22  1  0  0  0  0
 24 26  1  0  0  0  0
 25 18  1  0  0  0  0
 25 23  1  0  0  0  0
 26 27  1  0  0  0  0
 28 26  2  0  0  0  0
 29 30  1  0  0  0  0
 30 15  1  0  0  0  0
 30 31  2  0  0  0  0
 33 34  2  0  0  0  0
 34 31  1  0  0  0  0
 34 32  1  0  0  0  0
 35 29  2  0  0  0  0
 35 33  1  0  0  0  0
 36 37  1  0  0  0  0
M  END
>  <MODEL>
4

>  <REMARK>
 VINA RESULT:      -6.3      5.801      9.534
  Name = 
  4 active torsions:
  status: ('A' for Active; 'I' for Inactive)
    1  A    between atoms: C_6  and  C_31
    2  A    between atoms: C_7  and  C_14
    3  A    between atoms: C_11  and  C_33
    4  A    between atoms: N_20  and  C_36
                            x       y       z     vdW  Elec       q    Type
                         _______ _______ _______ _____ _____    ______ ____

>  <TORSDO>
F 4

$$$$
=
 OpenBabel10262422523D

 37 41  0  0  1  0  0  0  0  0999 V2000
  190.3090  175.7860  137.9050 C   0  0  1  0  0  0  0  0  0  0  0  0
  189.5850  177.4570  140.7220 C   0  0  2  0  0  3  0  0  0  0  0  0
  191.8500  177.3900  138.9490 O   0  0  0  0  0  0  0  0  0  0  0  0
  189.2780  176.0890  141.3240 C   0  0  0  0  0  2  0  0  0  0  0  0
  189.3680  177.5780  139.2000 C   0  0  2  0  0  3  0  0  0  0  0  0
  189.3160  176.1380  142.8640 C   0  0  1  0  0  3  0  0  0  0  0  0
  193.2000  178.0120  140.6860 O   0  0  0  0  0  0  0  0  0  0  0  0
  188.2520  176.7260  138.7700 N   0  0  2  0  0  0  0  0  0  0  0  0
  190.8260  174.8660  138.8200 O   0  0  0  0  0  1  0  0  0  0  0  0
  192.0490  178.6370  143.0640 O   0  0  0  0  0  0  0  0  0  0  0  0
  192.0320  177.7780  140.2740 C   0  0  0  0  0  0  0  0  0  0  0  0
  188.7950  175.6950  137.8800 C   0  0  0  0  0  2  0  0  0  0  0  0
  190.9090  177.8780  141.1640 N   0  0  0  0  0  0  0  0  0  0  0  0
  190.5700  177.2030  138.3450 C   0  0  2  0  0  3  0  0  0  0  0  0
  190.0690  177.3340  143.5040 C   0  0  2  0  0  3  0  0  0  0  0  0
  190.8840  175.5320  136.5270 C   0  0  0  0  0  1  0  0  0  0  0  0
  191.0890  177.9720  142.5860 C   0  0  0  0  0  0  0  0  0  0  0  0
  186.4040  178.3030  138.9320 N   0  0  0  0  0  2  0  0  0  0  0  0
  184.8280  178.6140  137.0040 C   0  0  0  0  0  2  0  0  0  0  0  0
  185.2470  178.9380  138.3980 C   0  0  0  0  0  0  0  0  0  0  0  0
  184.5630  179.7620  139.1180 N   0  0  0  0  0  2  0  0  0  0  0  0
  184.0770  176.4250  137.5120 F   0  0  0  0  0  0  0  0  0  0  0  0
  186.4110  176.5860  137.1220 C   0  0  0  0  0  2  0  0  0  0  0  0
  185.0070  177.1110  136.7480 C   0  0  2  0  0  0  0  0  0  0  0  0
  187.2440  177.5020  138.0390 C   0  0  2  0  0  3  0  0  0  0  0  0
  184.7610  176.8380  135.2960 C   0  0  0  0  0  0  0  0  0  0  0  0
  185.6370  176.2670  134.5940 O   0  0  0  0  0  0  0  0  0  0  0  0
  183.5510  177.2040  134.7140 O   0  0  0  0  0  1  0  0  0  0  0  0
  191.6790  175.9950  144.8750 C   0  0  0  0  0  3  0  0  0  0  0  0
  190.6530  176.9460  144.8300 C   0  0  0  0  0  0  0  0  0  0  0  0
  190.1840  177.5180  146.0230 C   0  0  0  0  0  3  0  0  0  0  0  0
  190.2640  177.7230  148.4550 N   0  0  0  0  0  1  0  0  0  0  0  0
  191.7650  176.1900  147.2870 C   0  0  0  0  0  3  0  0  0  0  0  0
  190.7400  177.1400  147.2480 C   0  0  0  0  0  0  0  0  0  0  0  0
  192.2340  175.6180  146.1010 C   0  0  0  0  0  3  0  0  0  0  0  0
  187.9180  175.9720  143.4560 C   0  0  0  0  0  2  0  0  0  0  0  0
  187.2650  177.3120  143.7600 C   0  0  0  0  0  1  0  0  0  0  0  0
  1 16  1  6  0  0  0
  1 14  1  0  0  0  0
  1  9  1  0  0  0  0
  2 13  1  0  0  0  0
  2  4  1  6  0  0  0
  3 11  1  0  0  0  0
  4  6  1  0  0  0  0
  5  2  1  0  0  0  0
  6 36  1  0  0  0  0
  6 15  1  0  0  0  0
  8  5  1  0  0  0  0
 11  7  2  0  0  0  0
 11 13  1  0  0  0  0
 12  1  1  0  0  0  0
 12  8  1  0  0  0  0
 13 17  1  0  0  0  0
 14  3  1  0  0  0  0
 14  5  1  0  0  0  0
 15 30  1  0  0  0  0
 17 10  2  0  0  0  0
 17 15  1  0  0  0  0
 19 20  1  0  0  0  0
 20 18  1  0  0  0  0
 20 21  2  0  0  0  0
 23 25  1  0  0  0  0
 24 19  1  0  0  0  0
 24 23  1  0  0  0  0
 24 22  1  0  0  0  0
 25  8  1  0  0  0  0
 25 18  1  0  0  0  0
 26 24  1  0  0  0  0
 27 26  2  0  0  0  0
 28 26  1  0  0  0  0
 29 35  1  0  0  0  0
 30 29  2  0  0  0  0
 30 31  1  0  0  0  0
 31 34  2  0  0  0  0
 34 33  1  0  0  0  0
 34 32  1  0  0  0  0
 35 33  2  0  0  0  0
 36 37  1  0  0  0  0
M  END
>  <MODEL>
5

>  <REMARK>
 VINA RESULT:      -6.0      4.518      6.682
  Name = 
  4 active torsions:
  status: ('A' for Active; 'I' for Inactive)
    1  A    between atoms: C_6  and  C_31
    2  A    between atoms: C_7  and  C_14
    3  A    between atoms: C_11  and  C_33
    4  A    between atoms: N_20  and  C_36
                            x       y       z     vdW  Elec       q    Type
                         _______ _______ _______ _____ _____    ______ ____

>  <TORSDO>
F 4

$$$$
=
 OpenBabel10262422523D

 37 41  0  0  1  0  0  0  0  0999 V2000
  189.1690  178.7710  138.8340 C   0  0  1  0  0  0  0  0  0  0  0  0
  188.9860  176.7990  141.5410 C   0  0  2  0  0  3  0  0  0  0  0  0
  187.0460  178.1570  139.9070 O   0  0  0  0  0  0  0  0  0  0  0  0
  189.9870  177.7610  142.1740 C   0  0  0  0  0  2  0  0  0  0  0  0
  189.0590  176.6760  140.0060 C   0  0  2  0  0  3  0  0  0  0  0  0
  189.9750  177.6440  143.7100 C   0  0  1  0  0  3  0  0  0  0  0  0
  185.6240  178.2330  141.6960 O   0  0  0  0  0  0  0  0  0  0  0  0
  190.4440  176.8380  139.5430 N   0  0  2  0  0  0  0  0  0  0  0  0
  189.2450  179.7670  139.8100 O   0  0  0  0  0  1  0  0  0  0  0  0
  186.3430  176.9510  143.9790 O   0  0  0  0  0  0  0  0  0  0  0  0
  186.7270  177.8420  141.2260 C   0  0  0  0  0  0  0  0  0  0  0  0
  190.5010  178.0530  138.7240 C   0  0  0  0  0  2  0  0  0  0  0  0
  187.6530  177.1120  142.0440 N   0  0  0  0  0  0  0  0  0  0  0  0
  188.2120  177.6800  139.2370 C   0  0  2  0  0  3  0  0  0  0  0  0
  188.7240  176.9870  144.3490 C   0  0  2  0  0  3  0  0  0  0  0  0
  188.7740  179.3740  137.5020 C   0  0  0  0  0  1  0  0  0  0  0  0
  187.4940  177.0390  143.4700 C   0  0  0  0  0  0  0  0  0  0  0  0
  192.2100  175.8740  138.1720 N   0  0  0  0  0  2  0  0  0  0  0  0
  191.7140  173.9660  136.6200 C   0  0  0  0  0  2  0  0  0  0  0  0
  192.6730  174.9580  137.1870 C   0  0  0  0  0  0  0  0  0  0  0  0
  193.8970  175.0000  136.7780 N   0  0  0  0  0  2  0  0  0  0  0  0
  190.4840  175.5560  135.3650 F   0  0  0  0  0  0  0  0  0  0  0  0
  189.8220  175.3870  137.6370 C   0  0  0  0  0  2  0  0  0  0  0  0
  190.3530  174.6380  136.3950 C   0  0  2  0  0  0  0  0  0  0  0  0
  190.8670  175.6940  138.7260 C   0  0  2  0  0  3  0  0  0  0  0  0
  189.3570  173.5880  136.0040 C   0  0  0  0  0  0  0  0  0  0  0  0
  189.1400  173.3310  134.7900 O   0  0  0  0  0  0  0  0  0  0  0  0
  188.6730  172.8780  136.9850 O   0  0  0  0  0  1  0  0  0  0  0  0
  189.4470  177.3780  146.7130 C   0  0  0  0  0  3  0  0  0  0  0  0
  188.4740  177.5420  145.7200 C   0  0  0  0  0  0  0  0  0  0  0  0
  187.2820  178.2190  146.0210 C   0  0  0  0  0  3  0  0  0  0  0  0
  185.8600  179.4130  147.6070 N   0  0  0  0  0  1  0  0  0  0  0  0
  188.0430  178.5600  148.2940 C   0  0  0  0  0  3  0  0  0  0  0  0
  187.0680  178.7260  147.3060 C   0  0  0  0  0  0  0  0  0  0  0  0
  189.2320  177.8870  147.9970 C   0  0  0  0  0  3  0  0  0  0  0  0
  191.2680  177.0130  144.2250 C   0  0  0  0  0  2  0  0  0  0  0  0
  191.4450  175.5880  143.7230 C   0  0  0  0  0  1  0  0  0  0  0  0
  1 16  1  6  0  0  0
  1 14  1  0  0  0  0
  1  9  1  0  0  0  0
  2 13  1  0  0  0  0
  2  4  1  6  0  0  0
  3 11  1  0  0  0  0
  4  6  1  0  0  0  0
  5  2  1  0  0  0  0
  6 36  1  0  0  0  0
  6 15  1  0  0  0  0
  8  5  1  0  0  0  0
 11  7  2  0  0  0  0
 11 13  1  0  0  0  0
 12  1  1  0  0  0  0
 12  8  1  0  0  0  0
 13 17  1  0  0  0  0
 14  3  1  0  0  0  0
 14  5  1  0  0  0  0
 15 30  1  0  0  0  0
 17 10  2  0  0  0  0
 17 15  1  0  0  0  0
 18 25  1  0  0  0  0
 19 20  1  0  0  0  0
 20 18  1  0  0  0  0
 21 20  2  0  0  0  0
 22 24  1  0  0  0  0
 23 25  1  0  0  0  0
 24 19  1  0  0  0  0
 24 23  1  0  0  0  0
 25  8  1  0  0  0  0
 26 24  1  0  0  0  0
 26 28  1  0  0  0  0
 27 26  2  0  0  0  0
 29 35  1  0  0  0  0
 30 31  1  0  0  0  0
 30 29  2  0  0  0  0
 31 34  2  0  0  0  0
 34 32  1  0  0  0  0
 34 33  1  0  0  0  0
 35 33  2  0  0  0  0
 37 36  1  0  0  0  0
M  END
>  <MODEL>
6

>  <REMARK>
 VINA RESULT:      -6.0      5.905      8.628
  Name = 
  4 active torsions:
  status: ('A' for Active; 'I' for Inactive)
    1  A    between atoms: C_6  and  C_31
    2  A    between atoms: C_7  and  C_14
    3  A    between atoms: C_11  and  C_33
    4  A    between atoms: N_20  and  C_36
                            x       y       z     vdW  Elec       q    Type
                         _______ _______ _______ _____ _____    ______ ____

>  <TORSDO>
F 4

$$$$
=
 OpenBabel10262422523D

 37 41  0  0  1  0  0  0  0  0999 V2000
  187.7930  178.8600  136.4460 C   0  0  1  0  0  0  0  0  0  0  0  0
  188.7130  176.8310  138.9530 C   0  0  2  0  0  3  0  0  0  0  0  0
  186.4710  178.5760  138.4980 O   0  0  0  0  0  0  0  0  0  0  0  0
  190.0450  177.5750  138.9200 C   0  0  0  0  0  2  0  0  0  0  0  0
  187.9530  176.7660  137.6130 C   0  0  2  0  0  3  0  0  0  0  0  0
  190.8160  177.3940  140.2420 C   0  0  1  0  0  3  0  0  0  0  0  0
  186.2280  178.8170  140.7580 O   0  0  0  0  0  0  0  0  0  0  0  0
  188.8970  176.7060  136.4890 N   0  0  2  0  0  0  0  0  0  0  0  0
  188.5350  179.7830  137.1860 O   0  0  0  0  0  1  0  0  0  0  0  0
  187.8000  177.3290  142.3980 O   0  0  0  0  0  0  0  0  0  0  0  0
  186.8380  178.2630  139.8050 C   0  0  0  0  0  0  0  0  0  0  0  0
  188.7260  177.9290  135.6970 C   0  0  0  0  0  2  0  0  0  0  0  0
  187.9150  177.3470  140.0580 N   0  0  0  0  0  0  0  0  0  0  0  0
  187.0150  177.9340  137.3450 C   0  0  2  0  0  3  0  0  0  0  0  0
  189.9900  176.9350  141.4720 C   0  0  2  0  0  3  0  0  0  0  0  0
  186.8710  179.5820  135.4850 C   0  0  0  0  0  1  0  0  0  0  0  0
  188.5120  177.2390  141.3600 C   0  0  0  0  0  0  0  0  0  0  0  0
  187.2280  175.1250  135.6880 N   0  0  0  0  0  2  0  0  0  0  0  0
  187.9320  172.9800  134.5940 C   0  0  0  0  0  2  0  0  0  0  0  0
  186.8580  173.8890  135.0880 C   0  0  0  0  0  0  0  0  0  0  0  0
  185.6150  173.5530  134.9940 N   0  0  0  0  0  2  0  0  0  0  0  0
  188.6840  172.3480  136.7500 F   0  0  0  0  0  0  0  0  0  0  0  0
  189.5970  174.3910  135.9620 C   0  0  0  0  0  2  0  0  0  0  0  0
  189.1020  172.9760  135.5880 C   0  0  2  0  0  0  0  0  0  0  0  0
  188.6300  175.5440  135.6330 C   0  0  2  0  0  3  0  0  0  0  0  0
  190.2410  172.2100  134.9880 C   0  0  0  0  0  0  0  0  0  0  0  0
  191.3710  172.7490  134.8450 O   0  0  0  0  0  1  0  0  0  0  0  0
  190.0600  170.8880  134.5940 O   0  0  0  0  0  0  0  0  0  0  0  0
  190.7950  178.8400  142.8820 C   0  0  0  0  0  3  0  0  0  0  0  0
  190.5910  177.4630  142.7410 C   0  0  0  0  0  0  0  0  0  0  0  0
  190.9530  176.5970  143.7850 C   0  0  0  0  0  3  0  0  0  0  0  0
  191.8780  176.2300  146.0150 N   0  0  0  0  0  1  0  0  0  0  0  0
  191.7150  178.4860  145.0940 C   0  0  0  0  0  3  0  0  0  0  0  0
  191.5140  177.1090  144.9590 C   0  0  0  0  0  0  0  0  0  0  0  0
  191.3560  179.3510  144.0550 C   0  0  0  0  0  3  0  0  0  0  0  0
  192.0560  176.5260  140.0410 C   0  0  0  0  0  2  0  0  0  0  0  0
  192.4530  176.4280  138.5760 C   0  0  0  0  0  1  0  0  0  0  0  0
  1 16  1  6  0  0  0
  1  9  1  0  0  0  0
  1 14  1  0  0  0  0
  2  4  1  6  0  0  0
  2 13  1  0  0  0  0
  3 11  1  0  0  0  0
  4  6  1  0  0  0  0
  5  2  1  0  0  0  0
  6 15  1  0  0  0  0
  8  5  1  0  0  0  0
 11 13  1  0  0  0  0
 11  7  2  0  0  0  0
 12  1  1  0  0  0  0
 12  8  1  0  0  0  0
 13 17  1  0  0  0  0
 14  5  1  0  0  0  0
 14  3  1  0  0  0  0
 15 30  1  0  0  0  0
 17 15  1  0  0  0  0
 17 10  2  0  0  0  0
 19 20  1  0  0  0  0
 19 24  1  0  0  0  0
 20 18  1  0  0  0  0
 21 20  2  0  0  0  0
 24 23  1  0  0  0  0
 24 22  1  0  0  0  0
 25 18  1  0  0  0  0
 25 23  1  0  0  0  0
 25  8  1  0  0  0  0
 26 24  1  0  0  0  0
 27 26  1  0  0  0  0
 28 26  2  0  0  0  0
 29 35  1  0  0  0  0
 30 29  2  0  0  0  0
 30 31  1  0  0  0  0
 31 34  2  0  0  0  0
 34 33  1  0  0  0  0
 34 32  1  0  0  0  0
 35 33  2  0  0  0  0
 36  6  1  0  0  0  0
 37 36  1  0  0  0  0
M  END
>  <MODEL>
7

>  <REMARK>
 VINA RESULT:      -5.9      5.858      8.579
  Name = 
  4 active torsions:
  status: ('A' for Active; 'I' for Inactive)
    1  A    between atoms: C_6  and  C_31
    2  A    between atoms: C_7  and  C_14
    3  A    between atoms: C_11  and  C_33
    4  A    between atoms: N_20  and  C_36
                            x       y       z     vdW  Elec       q    Type
                         _______ _______ _______ _____ _____    ______ ____

>  <TORSDO>
F 4

$$$$
=
 OpenBabel10262422523D

 37 41  0  0  1  0  0  0  0  0999 V2000
  190.5040  176.7880  139.0330 C   0  0  1  0  0  0  0  0  0  0  0  0
  188.5730  176.0500  136.3910 C   0  0  2  0  0  3  0  0  0  0  0  0
  189.4310  178.4990  137.6340 O   0  0  0  0  0  0  0  0  0  0  0  0
  187.7940  175.1540  137.3500 C   0  0  0  0  0  2  0  0  0  0  0  0
  190.0620  176.2530  136.7320 C   0  0  2  0  0  3  0  0  0  0  0  0
  186.3870  174.8450  136.8020 C   0  0  1  0  0  3  0  0  0  0  0  0
  187.5510  179.5330  136.8440 O   0  0  0  0  0  0  0  0  0  0  0  0
  190.6170  175.0440  137.3560 N   0  0  2  0  0  0  0  0  0  0  0  0
  189.2760  176.7220  139.6960 O   0  0  0  0  0  1  0  0  0  0  0  0
  185.9090  178.1470  135.1850 O   0  0  0  0  0  0  0  0  0  0  0  0
  188.2540  178.4880  136.8880 C   0  0  0  0  0  0  0  0  0  0  0  0
  191.0030  175.3880  138.7300 C   0  0  0  0  0  2  0  0  0  0  0  0
  187.8350  177.2940  136.2080 N   0  0  0  0  0  0  0  0  0  0  0  0
  190.3580  177.4140  137.6710 C   0  0  2  0  0  3  0  0  0  0  0  0
  185.8440  175.7940  135.7020 C   0  0  2  0  0  3  0  0  0  0  0  0
  191.5110  177.5450  139.8730 C   0  0  0  0  0  1  0  0  0  0  0  0
  186.5010  177.1570  135.6960 C   0  0  0  0  0  0  0  0  0  0  0  0
  191.7190  173.1480  136.3000 N   0  0  0  0  0  2  0  0  0  0  0  0
  194.1770  173.2240  135.8030 C   0  0  0  0  0  2  0  0  0  0  0  0
  192.8770  172.4930  135.7960 C   0  0  0  0  0  0  0  0  0  0  0  0
  192.8050  171.2790  135.3610 N   0  0  0  0  0  2  0  0  0  0  0  0
  194.4620  173.1260  138.1530 F   0  0  0  0  0  0  0  0  0  0  0  0
  193.0870  174.9120  137.4130 C   0  0  0  0  0  2  0  0  0  0  0  0
  194.3120  174.0220  137.1070 C   0  0  2  0  0  0  0  0  0  0  0  0
  191.8030  174.5710  136.6340 C   0  0  2  0  0  3  0  0  0  0  0  0
  195.5290  174.8910  137.0150 C   0  0  0  0  0  0  0  0  0  0  0  0
  195.6280  175.7620  136.1110 O   0  0  0  0  0  0  0  0  0  0  0  0
  196.5570  174.7480  137.9410 O   0  0  0  0  0  1  0  0  0  0  0  0
  183.6000  175.6650  134.6010 C   0  0  0  0  0  3  0  0  0  0  0  0
  184.3470  175.8770  135.7640 C   0  0  0  0  0  0  0  0  0  0  0  0
  183.6890  176.1660  136.9700 C   0  0  0  0  0  3  0  0  0  0  0  0
  181.6280  176.5330  138.2280 N   0  0  0  0  0  1  0  0  0  0  0  0
  181.5520  176.0280  135.8400 C   0  0  0  0  0  3  0  0  0  0  0  0
  182.2930  176.2410  137.0060 C   0  0  0  0  0  0  0  0  0  0  0  0
  182.2050  175.7400  134.6380 C   0  0  0  0  0  3  0  0  0  0  0  0
  186.2670  173.3780  136.3910 C   0  0  0  0  0  2  0  0  0  0  0  0
  185.1980  172.6490  137.1900 C   0  0  0  0  0  1  0  0  0  0  0  0
  1  9  1  0  0  0  0
  1 16  1  1  0  0  0
  2  5  1  0  0  0  0
  2  4  1  1  0  0  0
  3 14  1  0  0  0  0
  5  8  1  0  0  0  0
  5 14  1  0  0  0  0
  6  4  1  0  0  0  0
  7 11  2  0  0  0  0
  8 12  1  0  0  0  0
 10 17  2  0  0  0  0
 11  3  1  0  0  0  0
 12  1  1  0  0  0  0
 13  2  1  0  0  0  0
 13 11  1  0  0  0  0
 14  1  1  0  0  0  0
 15 30  1  0  0  0  0
 15  6  1  0  0  0  0
 17 15  1  0  0  0  0
 17 13  1  0  0  0  0
 18 25  1  0  0  0  0
 19 24  1  0  0  0  0
 20 19  1  0  0  0  0
 20 18  1  0  0  0  0
 21 20  2  0  0  0  0
 24 23  1  0  0  0  0
 24 22  1  0  0  0  0
 25  8  1  0  0  0  0
 25 23  1  0  0  0  0
 26 24  1  0  0  0  0
 26 28  1  0  0  0  0
 27 26  2  0  0  0  0
 29 35  2  0  0  0  0
 29 30  1  0  0  0  0
 30 31  2  0  0  0  0
 31 34  1  0  0  0  0
 33 34  2  0  0  0  0
 34 32  1  0  0  0  0
 35 33  1  0  0  0  0
 36  6  1  0  0  0  0
 36 37  1  0  0  0  0
M  END
>  <MODEL>
8

>  <REMARK>
 VINA RESULT:      -5.9      6.634     11.115
  Name = 
  4 active torsions:
  status: ('A' for Active; 'I' for Inactive)
    1  A    between atoms: C_6  and  C_31
    2  A    between atoms: C_7  and  C_14
    3  A    between atoms: C_11  and  C_33
    4  A    between atoms: N_20  and  C_36
                            x       y       z     vdW  Elec       q    Type
                         _______ _______ _______ _____ _____    ______ ____

>  <TORSDO>
F 4

$$$$
