=
 OpenBabel10262423313D

 34 38  0  0  1  0  0  0  0  0999 V2000
  187.2910  178.1410  144.4180 C   0  0  0  0  0  0  0  0  0  0  0  0
  188.7100  177.4030  147.7420 C   0  0  0  0  0  2  0  0  0  0  0  0
  186.5240  177.5320  147.0140 C   0  0  0  0  0  3  0  0  0  0  0  0
  186.5340  178.2000  142.0210 C   0  0  1  0  0  3  0  0  0  0  0  0
  187.6510  178.5580  143.0080 C   0  0  0  0  0  2  0  0  0  0  0  0
  184.8920  178.5560  143.8330 C   0  0  0  0  0  0  0  0  0  0  0  0
  185.1740  178.5950  142.5300 C   0  0  0  0  0  3  0  0  0  0  0  0
  185.5940  177.8550  146.0820 N   0  0  0  0  0  0  0  0  0  0  0  0
  185.9390  178.1870  144.8130 C   0  0  0  0  0  0  0  0  0  0  0  0
  190.1760  177.6720  147.7220 C   0  0  0  0  0  2  0  0  0  0  0  0
  190.9190  176.7720  146.7990 C   0  0  0  0  0  0  0  0  0  0  0  0
  190.6390  176.7590  145.4980 C   0  0  0  0  0  3  0  0  0  0  0  0
  187.8830  177.5100  146.6970 C   0  0  0  0  0  0  0  0  0  0  0  0
  189.4910  177.4120  144.8420 C   0  0  0  0  0  2  0  0  0  0  0  0
  188.2800  177.7300  145.3440 C   0  0  0  0  0  0  0  0  0  0  0  0
  192.0500  176.0370  147.2890 N   0  0  0  0  0  0  0  0  0  0  0  0
  192.4900  175.0580  146.6520 O   0  0  0  0  0  0  0  0  0  0  0  0
  192.6800  176.4170  148.4530 O   0  0  0  0  0  0  0  0  0  0  0  0
  183.5060  178.8760  144.2820 C   0  0  0  0  0  2  0  0  0  0  0  0
  182.6470  178.8930  143.1830 O   0  0  0  0  0  1  0  0  0  0  0  0
  186.7850  178.7360  140.7220 O   0  0  0  0  0  0  0  0  0  0  0  0
  188.2410  177.5050  137.5970 O   0  0  0  0  0  0  0  0  0  0  0  0
  189.1160  177.9090  140.2170 C   0  0  0  0  0  3  0  0  0  0  0  0
  191.8090  176.3850  137.3940 C   0  0  0  0  0  0  0  0  0  0  0  0
  190.4080  176.7150  137.0460 C   0  0  0  0  0  3  0  0  0  0  0  0
  189.5590  177.2000  137.9500 C   0  0  2  0  0  3  0  0  0  0  0  0
  191.3980  177.1120  139.7710 C   0  0  0  0  0  3  0  0  0  0  0  0
  189.9950  177.4230  139.3400 C   0  0  0  0  0  0  0  0  0  0  0  0
  192.2510  176.5710  138.6500 C   0  0  0  0  0  3  0  0  0  0  0  0
  187.7230  178.2230  139.8120 C   0  0  0  0  0  0  0  0  0  0  0  0
  187.3420  178.0150  138.5460 C   0  0  0  0  0  3  0  0  0  0  0  0
  192.6940  175.8620  136.3840 N   0  0  0  0  0  0  0  0  0  0  0  0
  192.2670  175.7090  135.0010 C   0  0  0  0  0  1  0  0  0  0  0  0
  194.0540  175.4650  136.7140 C   0  0  0  0  0  1  0  0  0  0  0  0
  1  9  2  0  0  0  0
  1 15  1  0  0  0  0
  4 21  1  6  0  0  0
  4  7  1  0  0  0  0
  4  5  1  0  0  0  0
  5  1  1  0  0  0  0
  6 19  1  0  0  0  0
  6  9  1  0  0  0  0
  7  6  2  0  0  0  0
  8  3  2  0  0  0  0
  9  8  1  0  0  0  0
 10  2  1  0  0  0  0
 11 16  1  0  0  0  0
 11 10  1  0  0  0  0
 12 11  2  0  0  0  0
 13  3  1  0  0  0  0
 13  2  1  0  0  0  0
 14 15  1  0  0  0  0
 14 12  1  0  0  0  0
 15 13  2  0  0  0  0
 16 18  2  0  0  0  0
 17 16  2  0  0  0  0
 20 19  1  0  0  0  0
 22 26  1  0  0  0  0
 22 31  1  0  0  0  0
 24 29  1  0  0  0  0
 25 24  2  0  0  0  0
 26 25  1  1  0  0  0
 26 28  1  0  0  0  0
 28 27  1  0  0  0  0
 28 23  2  0  0  0  0
 29 27  2  0  0  0  0
 30 23  1  0  0  0  0
 30 21  1  0  0  0  0
 31 30  2  0  0  0  0
 32 34  1  0  0  0  0
 32 24  1  0  0  0  0
 33 32  1  0  0  0  0
M  END
>  <MODEL>
1

>  <REMARK>
 VINA RESULT:     -10.0      0.000      0.000
  Name = 
  5 active torsions:
  status: ('A' for Active; 'I' for Inactive)
    1  A    between atoms: N_3  and  C_25
    2  A    between atoms: C_7  and  N_11
    3  A    between atoms: C_8  and  O_18
    4  A    between atoms: C_10  and  C_12
    5  A    between atoms: O_18  and  C_30
                            x       y       z     vdW  Elec       q    Type
                         _______ _______ _______ _____ _____    ______ ____

>  <TORSDO>
F 5

$$$$
=
 OpenBabel10262423313D

 34 38  0  0  1  0  0  0  0  0999 V2000
  184.2360  178.6250  141.8080 C   0  0  0  0  0  0  0  0  0  0  0  0
  185.2330  178.2230  138.2790 C   0  0  0  0  0  2  0  0  0  0  0  0
  183.2670  178.9690  139.2310 C   0  0  0  0  0  3  0  0  0  0  0  0
  183.9110  179.2630  144.2180 C   0  0  1  0  0  3  0  0  0  0  0  0
  184.6830  178.3770  143.2320 C   0  0  0  0  0  2  0  0  0  0  0  0
  181.9590  179.1510  142.7060 C   0  0  0  0  0  0  0  0  0  0  0  0
  182.4300  179.2590  143.9500 C   0  0  0  0  0  3  0  0  0  0  0  0
  182.4530  179.1530  140.2990 N   0  0  0  0  0  0  0  0  0  0  0  0
  182.8890  178.9620  141.5690 C   0  0  0  0  0  0  0  0  0  0  0  0
  186.5270  177.4880  138.2130 C   0  0  0  0  0  2  0  0  0  0  0  0
  187.6540  178.2410  138.8280 C   0  0  0  0  0  0  0  0  0  0  0  0
  187.6150  178.5850  140.1130 C   0  0  0  0  0  3  0  0  0  0  0  0
  184.6010  178.5920  139.3970 C   0  0  0  0  0  0  0  0  0  0  0  0
  186.4500  178.4850  141.0120 C   0  0  0  0  0  2  0  0  0  0  0  0
  185.1320  178.5040  140.7180 C   0  0  0  0  0  0  0  0  0  0  0  0
  188.8570  178.4510  138.0750 N   0  0  0  0  0  0  0  0  0  0  0  0
  189.6990  177.5370  137.9620 O   0  0  0  0  0  0  0  0  0  0  0  0
  189.0870  179.6550  137.4460 O   0  0  0  0  0  0  0  0  0  0  0  0
  180.4870  179.2370  142.4830 C   0  0  0  0  0  2  0  0  0  0  0  0
  180.0470  180.5370  142.7360 O   0  0  0  0  0  1  0  0  0  0  0  0
  184.2010  178.9210  145.5730 O   0  0  0  0  0  0  0  0  0  0  0  0
  186.9700  178.2900  147.8830 O   0  0  0  0  0  0  0  0  0  0  0  0
  186.5140  178.0050  145.1430 C   0  0  0  0  0  3  0  0  0  0  0  0
  190.2410  176.9000  146.7030 C   0  0  0  0  0  0  0  0  0  0  0  0
  189.1590  177.4370  147.5590 C   0  0  0  0  0  3  0  0  0  0  0  0
  187.9770  177.7850  147.0550 C   0  0  0  0  0  0  0  0  0  0  0  0
  188.7550  177.1080  144.6790 C   0  0  0  0  0  2  0  0  0  0  0  0
  187.7100  177.6450  145.6120 C   0  0  0  0  0  0  0  0  0  0  0  0
  190.0430  176.7540  145.3820 C   0  0  0  0  0  3  0  0  0  0  0  0
  185.4650  178.5380  146.0490 C   0  0  0  0  0  0  0  0  0  0  0  0
  185.7240  178.6600  147.3570 C   0  0  0  0  0  3  0  0  0  0  0  0
  191.5060  176.5350  147.2910 N   0  0  0  0  0  0  0  0  0  0  0  0
  192.3720  175.5390  146.6790 C   0  0  0  0  0  1  0  0  0  0  0  0
  191.9630  177.1550  148.5250 C   0  0  0  0  0  1  0  0  0  0  0  0
  1  5  1  0  0  0  0
  2 13  1  0  0  0  0
  3 13  2  0  0  0  0
  3  8  1  0  0  0  0
  4 21  1  1  0  0  0
  5  4  1  0  0  0  0
  6  7  2  0  0  0  0
  7  4  1  0  0  0  0
  8  9  2  0  0  0  0
  9  1  1  0  0  0  0
  9  6  1  0  0  0  0
 10  2  1  0  0  0  0
 10 11  1  0  0  0  0
 11 12  2  0  0  0  0
 12 14  1  0  0  0  0
 13 15  1  0  0  0  0
 15 14  1  0  0  0  0
 15  1  2  0  0  0  0
 16 11  1  0  0  0  0
 17 16  2  0  0  0  0
 18 16  2  0  0  0  0
 19  6  1  0  0  0  0
 19 20  1  0  0  0  0
 21 30  1  0  0  0  0
 23 28  2  0  0  0  0
 23 30  1  0  0  0  0
 24 32  1  0  0  0  0
 24 25  1  0  0  0  0
 26 25  2  0  0  0  0
 26 22  1  0  0  0  0
 27 29  1  0  0  0  0
 27 28  1  0  0  0  0
 28 26  1  0  0  0  0
 29 24  2  0  0  0  0
 30 31  2  0  0  0  0
 31 22  1  0  0  0  0
 32 34  1  0  0  0  0
 33 32  1  0  0  0  0
M  END
>  <MODEL>
2

>  <REMARK>
 VINA RESULT:      -9.6      3.303      7.881
  Name = 
  5 active torsions:
  status: ('A' for Active; 'I' for Inactive)
    1  A    between atoms: N_3  and  C_25
    2  A    between atoms: C_7  and  N_11
    3  A    between atoms: C_8  and  O_18
    4  A    between atoms: C_10  and  C_12
    5  A    between atoms: O_18  and  C_30
                            x       y       z     vdW  Elec       q    Type
                         _______ _______ _______ _____ _____    ______ ____

>  <TORSDO>
F 5

$$$$
=
 OpenBabel10262423313D

 34 38  0  0  1  0  0  0  0  0999 V2000
  188.4310  177.7060  144.5740 C   0  0  0  0  0  0  0  0  0  0  0  0
  191.6680  176.9560  142.9710 C   0  0  0  0  0  2  0  0  0  0  0  0
  190.9280  176.6330  145.1340 C   0  0  0  0  0  3  0  0  0  0  0  0
  186.0460  177.8560  145.3570 C   0  0  1  0  0  3  0  0  0  0  0  0
  187.0850  178.3580  144.3460 C   0  0  0  0  0  2  0  0  0  0  0  0
  187.8640  177.5900  147.0100 C   0  0  0  0  0  0  0  0  0  0  0  0
  186.5780  177.8480  146.7650 C   0  0  0  0  0  3  0  0  0  0  0  0
  190.0270  176.8260  146.1270 N   0  0  0  0  0  0  0  0  0  0  0  0
  188.8100  177.3770  145.8910 C   0  0  0  0  0  0  0  0  0  0  0  0
  191.7010  177.5730  141.6160 C   0  0  0  0  0  2  0  0  0  0  0  0
  190.6910  176.9930  140.6890 C   0  0  0  0  0  0  0  0  0  0  0  0
  189.3940  177.0630  140.9760 C   0  0  0  0  0  3  0  0  0  0  0  0
  190.6310  176.9790  143.8140 C   0  0  0  0  0  0  0  0  0  0  0  0
  188.8000  177.4900  142.2570 C   0  0  0  0  0  2  0  0  0  0  0  0
  189.3190  177.4430  143.5020 C   0  0  0  0  0  0  0  0  0  0  0  0
  191.1090  176.5040  139.4070 N   0  0  0  0  0  0  0  0  0  0  0  0
  192.2250  176.8180  138.9450 O   0  0  0  0  0  0  0  0  0  0  0  0
  190.2950  175.6640  138.6800 O   0  0  0  0  0  0  0  0  0  0  0  0
  188.3260  177.5100  148.4260 C   0  0  0  0  0  2  0  0  0  0  0  0
  189.1190  178.6180  148.7270 O   0  0  0  0  0  1  0  0  0  0  0  0
  184.8220  178.5840  145.2610 O   0  0  0  0  0  0  0  0  0  0  0  0
  181.8480  178.8850  143.1480 O   0  0  0  0  0  0  0  0  0  0  0  0
  184.5900  178.5410  142.7480 C   0  0  0  0  0  3  0  0  0  0  0  0
  182.0670  178.7530  139.4120 C   0  0  0  0  0  0  0  0  0  0  0  0
  181.5500  178.8540  140.7960 C   0  0  0  0  0  3  0  0  0  0  0  0
  182.3600  178.7870  141.8500 C   0  0  0  0  0  0  0  0  0  0  0  0
  184.4110  178.4940  140.2970 C   0  0  0  0  0  2  0  0  0  0  0  0
  183.8110  178.6050  141.6680 C   0  0  0  0  0  0  0  0  0  0  0  0
  183.3830  178.5870  139.1960 C   0  0  0  0  0  3  0  0  0  0  0  0
  184.0170  178.6490  144.1140 C   0  0  0  0  0  0  0  0  0  0  0  0
  182.6970  178.8130  144.2630 C   0  0  0  0  0  3  0  0  0  0  0  0
  181.1550  178.8320  138.2990 N   0  0  0  0  0  0  0  0  0  0  0  0
  179.7510  179.1690  138.4850 C   0  0  0  0  0  1  0  0  0  0  0  0
  181.6080  178.5750  136.9400 C   0  0  0  0  0  1  0  0  0  0  0  0
  1  9  1  0  0  0  0
  2 13  1  0  0  0  0
  3  8  1  0  0  0  0
  4 21  1  1  0  0  0
  4  7  1  0  0  0  0
  5  1  1  0  0  0  0
  5  4  1  0  0  0  0
  6 19  1  0  0  0  0
  7  6  2  0  0  0  0
  9  8  2  0  0  0  0
  9  6  1  0  0  0  0
 10  2  1  0  0  0  0
 11 12  2  0  0  0  0
 11 10  1  0  0  0  0
 12 14  1  0  0  0  0
 13  3  2  0  0  0  0
 14 15  1  0  0  0  0
 15 13  1  0  0  0  0
 15  1  2  0  0  0  0
 16 11  1  0  0  0  0
 17 16  2  0  0  0  0
 18 16  2  0  0  0  0
 19 20  1  0  0  0  0
 22 31  1  0  0  0  0
 23 30  1  0  0  0  0
 24 25  1  0  0  0  0
 25 26  2  0  0  0  0
 26 22  1  0  0  0  0
 27 28  1  0  0  0  0
 28 26  1  0  0  0  0
 28 23  2  0  0  0  0
 29 24  2  0  0  0  0
 29 27  1  0  0  0  0
 30 31  2  0  0  0  0
 30 21  1  0  0  0  0
 32 33  1  0  0  0  0
 32 24  1  0  0  0  0
 34 32  1  0  0  0  0
M  END
>  <MODEL>
3

>  <REMARK>
 VINA RESULT:      -9.6      3.098      7.206
  Name = 
  5 active torsions:
  status: ('A' for Active; 'I' for Inactive)
    1  A    between atoms: N_3  and  C_25
    2  A    between atoms: C_7  and  N_11
    3  A    between atoms: C_8  and  O_18
    4  A    between atoms: C_10  and  C_12
    5  A    between atoms: O_18  and  C_30
                            x       y       z     vdW  Elec       q    Type
                         _______ _______ _______ _____ _____    ______ ____

>  <TORSDO>
F 5

$$$$
=
 OpenBabel10262423313D

 34 38  0  0  1  0  0  0  0  0999 V2000
  189.4100  177.4360  142.3280 C   0  0  0  0  0  0  0  0  0  0  0  0
  190.9230  176.6960  145.6100 C   0  0  0  0  0  2  0  0  0  0  0  0
  191.8720  176.9810  143.5250 C   0  0  0  0  0  3  0  0  0  0  0  0
  188.2650  178.3890  140.3020 C   0  0  1  0  0  3  0  0  0  0  0  0
  188.0890  177.6070  141.6090 C   0  0  0  0  0  2  0  0  0  0  0  0
  190.5250  177.4120  140.0860 C   0  0  0  0  0  0  0  0  0  0  0  0
  189.4310  177.8890  139.4900 C   0  0  0  0  0  3  0  0  0  0  0  0
  191.7770  177.1090  142.1790 N   0  0  0  0  0  0  0  0  0  0  0  0
  190.5850  177.3010  141.5610 C   0  0  0  0  0  0  0  0  0  0  0  0
  189.8440  176.3850  146.5900 C   0  0  0  0  0  2  0  0  0  0  0  0
  188.9480  177.5440  146.8530 C   0  0  0  0  0  0  0  0  0  0  0  0
  188.2500  178.0960  145.8640 C   0  0  0  0  0  3  0  0  0  0  0  0
  190.7390  177.0610  144.3370 C   0  0  0  0  0  0  0  0  0  0  0  0
  188.4040  177.8210  144.4230 C   0  0  0  0  0  2  0  0  0  0  0  0
  189.4850  177.3880  143.7410 C   0  0  0  0  0  0  0  0  0  0  0  0
  188.7130  177.9610  148.2060 N   0  0  0  0  0  0  0  0  0  0  0  0
  189.5640  178.6430  148.8130 O   0  0  0  0  0  0  0  0  0  0  0  0
  187.5360  177.6350  148.8430 O   0  0  0  0  0  0  0  0  0  0  0  0
  191.6870  177.0070  139.2420 C   0  0  0  0  0  2  0  0  0  0  0  0
  191.4670  175.7330  138.7180 O   0  0  0  0  0  1  0  0  0  0  0  0
  187.0610  178.4110  139.5340 O   0  0  0  0  0  0  0  0  0  0  0  0
  183.4130  178.6370  139.7280 O   0  0  0  0  0  0  0  0  0  0  0  0
  185.5440  178.6970  141.5310 C   0  0  0  0  0  3  0  0  0  0  0  0
  181.6390  179.0650  142.9990 C   0  0  0  0  0  0  0  0  0  0  0  0
  181.9240  178.9040  141.5540 C   0  0  0  0  0  3  0  0  0  0  0  0
  183.1690  178.7870  141.0970 C   0  0  2  0  0  3  0  0  0  0  0  0
  184.1050  178.9760  143.5040 C   0  0  0  0  0  3  0  0  0  0  0  0
  184.3120  178.8160  142.0270 C   0  0  0  0  0  0  0  0  0  0  0  0
  182.6490  179.0970  143.8840 C   0  0  0  0  0  3  0  0  0  0  0  0
  185.7720  178.5390  140.0720 C   0  0  0  0  0  0  0  0  0  0  0  0
  184.7230  178.5150  139.2410 C   0  0  0  0  0  3  0  0  0  0  0  0
  180.2750  179.1870  143.4500 N   0  0  0  0  0  0  0  0  0  0  0  0
  179.6950  178.2400  144.3910 C   0  0  0  0  0  1  0  0  0  0  0  0
  179.4250  180.2700  142.9780 C   0  0  0  0  0  1  0  0  0  0  0  0
  1 15  1  0  0  0  0
  2 10  1  0  0  0  0
  3 13  1  0  0  0  0
  4 21  1  6  0  0  0
  4  5  1  0  0  0  0
  5  1  1  0  0  0  0
  6  9  1  0  0  0  0
  7  6  2  0  0  0  0
  7  4  1  0  0  0  0
  8  3  2  0  0  0  0
  9  8  1  0  0  0  0
  9  1  2  0  0  0  0
 10 11  1  0  0  0  0
 11 16  1  0  0  0  0
 12 11  2  0  0  0  0
 13  2  1  0  0  0  0
 14 12  1  0  0  0  0
 15 13  2  0  0  0  0
 15 14  1  0  0  0  0
 16 17  2  0  0  0  0
 16 18  2  0  0  0  0
 19  6  1  0  0  0  0
 20 19  1  0  0  0  0
 21 30  1  0  0  0  0
 22 26  1  0  0  0  0
 23 28  2  0  0  0  0
 24 32  1  0  0  0  0
 24 29  1  0  0  0  0
 25 24  2  0  0  0  0
 26 25  1  6  0  0  0
 26 28  1  0  0  0  0
 27 29  2  0  0  0  0
 28 27  1  0  0  0  0
 30 23  1  0  0  0  0
 31 22  1  0  0  0  0
 31 30  2  0  0  0  0
 32 33  1  0  0  0  0
 34 32  1  0  0  0  0
M  END
>  <MODEL>
4

>  <REMARK>
 VINA RESULT:      -9.5      2.700      7.419
  Name = 
  5 active torsions:
  status: ('A' for Active; 'I' for Inactive)
    1  A    between atoms: N_3  and  C_25
    2  A    between atoms: C_7  and  N_11
    3  A    between atoms: C_8  and  O_18
    4  A    between atoms: C_10  and  C_12
    5  A    between atoms: O_18  and  C_30
                            x       y       z     vdW  Elec       q    Type
                         _______ _______ _______ _____ _____    ______ ____

>  <TORSDO>
F 5

$$$$
=
 OpenBabel10262423313D

 34 38  0  0  1  0  0  0  0  0999 V2000
  184.6700  178.8170  142.5340 C   0  0  0  0  0  0  0  0  0  0  0  0
  184.7790  178.6520  146.2180 C   0  0  0  0  0  2  0  0  0  0  0  0
  183.0060  178.5730  144.7420 C   0  0  0  0  0  3  0  0  0  0  0  0
  184.8320  178.4800  140.0480 C   0  0  1  0  0  3  0  0  0  0  0  0
  185.5210  179.0320  141.3020 C   0  0  0  0  0  2  0  0  0  0  0  0
  182.6500  179.0320  141.0690 C   0  0  0  0  0  0  0  0  0  0  0  0
  183.3860  178.8870  139.9650 C   0  0  0  0  0  3  0  0  0  0  0  0
  182.4810  178.7100  143.5000 N   0  0  0  0  0  0  0  0  0  0  0  0
  183.2670  178.8630  142.4050 C   0  0  0  0  0  0  0  0  0  0  0  0
  186.1560  178.9790  146.6850 C   0  0  0  0  0  2  0  0  0  0  0  0
  187.1700  177.9840  146.2440 C   0  0  0  0  0  0  0  0  0  0  0  0
  187.3800  177.7620  144.9490 C   0  0  0  0  0  3  0  0  0  0  0  0
  184.3880  178.5640  144.9430 C   0  0  0  0  0  0  0  0  0  0  0  0
  186.5570  178.2580  143.8300 C   0  0  0  0  0  2  0  0  0  0  0  0
  185.2500  178.5940  143.8070 C   0  0  0  0  0  0  0  0  0  0  0  0
  188.0370  177.3820  147.2160 N   0  0  0  0  0  0  0  0  0  0  0  0
  189.0520  176.7520  146.8520 O   0  0  0  0  0  0  0  0  0  0  0  0
  187.7760  177.5120  148.5610 O   0  0  0  0  0  0  0  0  0  0  0  0
  181.2010  179.3550  140.9330 C   0  0  0  0  0  2  0  0  0  0  0  0
  180.6010  178.4640  140.0420 O   0  0  0  0  0  1  0  0  0  0  0  0
  185.5440  178.8250  138.8590 O   0  0  0  0  0  0  0  0  0  0  0  0
  187.9090  177.0320  136.7150 O   0  0  0  0  0  0  0  0  0  0  0  0
  187.9320  178.1270  139.2840 C   0  0  0  0  0  3  0  0  0  0  0  0
  191.3870  176.2390  137.8540 C   0  0  0  0  0  0  0  0  0  0  0  0
  190.1540  176.3440  137.0400 C   0  0  0  0  0  3  0  0  0  0  0  0
  189.0610  176.9460  137.5030 C   0  0  2  0  0  3  0  0  0  0  0  0
  190.2560  177.4660  139.7400 C   0  0  0  0  0  3  0  0  0  0  0  0
  189.0460  177.5320  138.8550 C   0  0  0  0  0  0  0  0  0  0  0  0
  191.4200  176.7580  139.0930 C   0  0  0  0  0  3  0  0  0  0  0  0
  186.7240  178.2030  138.4250 C   0  0  0  0  0  0  0  0  0  0  0  0
  186.7540  177.6650  137.1990 C   0  0  0  0  0  3  0  0  0  0  0  0
  192.5480  175.5780  137.3130 N   0  0  0  0  0  0  0  0  0  0  0  0
  192.6260  174.1270  137.2210 C   0  0  0  0  0  1  0  0  0  0  0  0
  193.6910  176.3430  136.8390 C   0  0  0  0  0  1  0  0  0  0  0  0
  1 15  1  0  0  0  0
  2 10  1  0  0  0  0
  3 13  1  0  0  0  0
  4 21  1  6  0  0  0
  4  5  1  0  0  0  0
  5  1  1  0  0  0  0
  6  9  1  0  0  0  0
  7  4  1  0  0  0  0
  7  6  2  0  0  0  0
  8  3  2  0  0  0  0
  9  1  2  0  0  0  0
  9  8  1  0  0  0  0
 11 10  1  0  0  0  0
 11 16  1  0  0  0  0
 12 11  2  0  0  0  0
 13  2  1  0  0  0  0
 14 12  1  0  0  0  0
 15 14  1  0  0  0  0
 15 13  2  0  0  0  0
 16 18  2  0  0  0  0
 17 16  2  0  0  0  0
 19  6  1  0  0  0  0
 20 19  1  0  0  0  0
 22 31  1  0  0  0  0
 22 26  1  0  0  0  0
 24 29  1  0  0  0  0
 25 24  2  0  0  0  0
 26 25  1  1  0  0  0
 26 28  1  0  0  0  0
 28 23  2  0  0  0  0
 28 27  1  0  0  0  0
 29 27  2  0  0  0  0
 30 21  1  0  0  0  0
 30 23  1  0  0  0  0
 31 30  2  0  0  0  0
 32 24  1  0  0  0  0
 33 32  1  0  0  0  0
 34 32  1  0  0  0  0
M  END
>  <MODEL>
5

>  <REMARK>
 VINA RESULT:      -9.4      2.131      3.063
  Name = 
  5 active torsions:
  status: ('A' for Active; 'I' for Inactive)
    1  A    between atoms: N_3  and  C_25
    2  A    between atoms: C_7  and  N_11
    3  A    between atoms: C_8  and  O_18
    4  A    between atoms: C_10  and  C_12
    5  A    between atoms: O_18  and  C_30
                            x       y       z     vdW  Elec       q    Type
                         _______ _______ _______ _____ _____    ______ ____

>  <TORSDO>
F 5

$$$$
=
 OpenBabel10262423313D

 34 38  0  0  1  0  0  0  0  0999 V2000
  189.5480  177.5420  143.1000 C   0  0  0  0  0  0  0  0  0  0  0  0
  191.2780  177.1280  139.8680 C   0  0  0  0  0  2  0  0  0  0  0  0
  191.8930  176.5340  142.0130 C   0  0  0  0  0  3  0  0  0  0  0  0
  188.0360  177.4900  145.1090 C   0  0  1  0  0  3  0  0  0  0  0  0
  188.3260  178.1490  143.7550 C   0  0  0  0  0  2  0  0  0  0  0  0
  190.4650  177.1320  145.3930 C   0  0  0  0  0  0  0  0  0  0  0  0
  189.2740  177.3530  145.9540 C   0  0  0  0  0  3  0  0  0  0  0  0
  191.7220  176.5730  143.3570 N   0  0  0  0  0  0  0  0  0  0  0  0
  190.6000  177.0880  143.9190 C   0  0  0  0  0  0  0  0  0  0  0  0
  190.5480  177.8910  138.8180 C   0  0  0  0  0  2  0  0  0  0  0  0
  189.1770  177.3690  138.5680 C   0  0  0  0  0  0  0  0  0  0  0  0
  188.2760  177.3440  139.5460 C   0  0  0  0  0  3  0  0  0  0  0  0
  190.9060  177.0090  141.1470 C   0  0  0  0  0  0  0  0  0  0  0  0
  188.5270  177.5990  140.9770 C   0  0  0  0  0  2  0  0  0  0  0  0
  189.6610  177.4410  141.6920 C   0  0  0  0  0  0  0  0  0  0  0  0
  188.7790  177.0440  137.2280 N   0  0  0  0  0  0  0  0  0  0  0  0
  189.6390  176.8300  136.3480 O   0  0  0  0  0  0  0  0  0  0  0  0
  187.4460  176.9400  136.9000 O   0  0  0  0  0  0  0  0  0  0  0  0
  191.6490  176.9190  146.2750 C   0  0  0  0  0  2  0  0  0  0  0  0
  191.2440  176.3320  147.4740 O   0  0  0  0  0  1  0  0  0  0  0  0
  186.9920  178.1650  145.8110 O   0  0  0  0  0  0  0  0  0  0  0  0
  183.4310  179.0020  145.6920 O   0  0  0  0  0  0  0  0  0  0  0  0
  185.3990  178.2570  143.8560 C   0  0  0  0  0  3  0  0  0  0  0  0
  181.5120  178.9850  142.4760 C   0  0  0  0  0  0  0  0  0  0  0  0
  181.8740  179.1100  143.9070 C   0  0  0  0  0  3  0  0  0  0  0  0
  183.1130  178.8770  144.3360 C   0  0  0  0  0  0  0  0  0  0  0  0
  183.8820  178.3340  141.9240 C   0  0  0  0  0  2  0  0  0  0  0  0
  184.1700  178.4820  143.3880 C   0  0  0  0  0  0  0  0  0  0  0  0
  182.4430  178.6270  141.5760 C   0  0  0  0  0  3  0  0  0  0  0  0
  185.7060  178.3970  145.3020 C   0  0  0  0  0  0  0  0  0  0  0  0
  184.7340  178.7570  146.1500 C   0  0  0  0  0  3  0  0  0  0  0  0
  180.1580  179.2460  142.0550 N   0  0  0  0  0  0  0  0  0  0  0  0
  179.6140  180.5960  142.0320 C   0  0  0  0  0  1  0  0  0  0  0  0
  179.2830  178.1630  141.6340 C   0  0  0  0  0  1  0  0  0  0  0  0
  1  5  1  0  0  0  0
  1  9  1  0  0  0  0
  2 13  1  0  0  0  0
  3  8  1  0  0  0  0
  4 21  1  1  0  0  0
  4  7  1  0  0  0  0
  5  4  1  0  0  0  0
  6  7  2  0  0  0  0
  6 19  1  0  0  0  0
  8  9  2  0  0  0  0
  9  6  1  0  0  0  0
 10  2  1  0  0  0  0
 11 10  1  0  0  0  0
 11 12  2  0  0  0  0
 12 14  1  0  0  0  0
 13 15  1  0  0  0  0
 13  3  2  0  0  0  0
 14 15  1  0  0  0  0
 15  1  2  0  0  0  0
 16 11  1  0  0  0  0
 17 16  2  0  0  0  0
 18 16  2  0  0  0  0
 19 20  1  0  0  0  0
 22 31  1  0  0  0  0
 23 30  1  0  0  0  0
 24 25  1  0  0  0  0
 25 26  2  0  0  0  0
 26 22  1  0  0  0  0
 27 28  1  0  0  0  0
 28 23  2  0  0  0  0
 28 26  1  0  0  0  0
 29 27  1  0  0  0  0
 29 24  2  0  0  0  0
 30 21  1  0  0  0  0
 30 31  2  0  0  0  0
 32 24  1  0  0  0  0
 33 32  1  0  0  0  0
 34 32  1  0  0  0  0
M  END
>  <MODEL>
6

>  <REMARK>
 VINA RESULT:      -9.3      2.542      8.758
  Name = 
  5 active torsions:
  status: ('A' for Active; 'I' for Inactive)
    1  A    between atoms: N_3  and  C_25
    2  A    between atoms: C_7  and  N_11
    3  A    between atoms: C_8  and  O_18
    4  A    between atoms: C_10  and  C_12
    5  A    between atoms: O_18  and  C_30
                            x       y       z     vdW  Elec       q    Type
                         _______ _______ _______ _____ _____    ______ ____

>  <TORSDO>
F 5

$$$$
=
 OpenBabel10262423313D

 34 38  0  0  1  0  0  0  0  0999 V2000
  188.9260  177.7510  143.7290 C   0  0  0  0  0  0  0  0  0  0  0  0
  189.1150  177.4340  147.3990 C   0  0  0  0  0  2  0  0  0  0  0  0
  187.3100  177.4230  145.9600 C   0  0  0  0  0  3  0  0  0  0  0  0
  189.0310  177.5160  141.2270 C   0  0  1  0  0  3  0  0  0  0  0  0
  189.7510  178.0130  142.4870 C   0  0  0  0  0  2  0  0  0  0  0  0
  186.8760  178.0350  142.3190 C   0  0  0  0  0  0  0  0  0  0  0  0
  187.5850  177.9330  141.1940 C   0  0  0  0  0  3  0  0  0  0  0  0
  186.7580  177.6140  144.7380 N   0  0  0  0  0  0  0  0  0  0  0  0
  187.5210  177.8080  143.6320 C   0  0  0  0  0  0  0  0  0  0  0  0
  190.5040  177.7360  147.8480 C   0  0  0  0  0  2  0  0  0  0  0  0
  191.5030  176.7550  147.3440 C   0  0  0  0  0  0  0  0  0  0  0  0
  191.6830  176.5860  146.0370 C   0  0  0  0  0  3  0  0  0  0  0  0
  188.6960  177.4000  146.1300 C   0  0  0  0  0  0  0  0  0  0  0  0
  190.8380  177.1310  144.9570 C   0  0  0  0  0  2  0  0  0  0  0  0
  189.5330  177.4740  144.9770 C   0  0  0  0  0  0  0  0  0  0  0  0
  192.3880  176.1100  148.2710 N   0  0  0  0  0  0  0  0  0  0  0  0
  192.5330  174.8700  148.2470 O   0  0  0  0  0  0  0  0  0  0  0  0
  193.1070  176.8510  149.1820 O   0  0  0  0  0  0  0  0  0  0  0  0
  185.4250  178.3690  142.2290 C   0  0  0  0  0  2  0  0  0  0  0  0
  185.2640  179.7530  142.1560 O   0  0  0  0  0  1  0  0  0  0  0  0
  189.7190  177.9070  140.0390 O   0  0  0  0  0  0  0  0  0  0  0  0
  193.0370  176.7550  139.0060 O   0  0  0  0  0  0  0  0  0  0  0  0
  190.3910  176.0030  138.5240 C   0  0  0  0  0  3  0  0  0  0  0  0
  193.4780  173.8320  136.7060 C   0  0  0  0  0  0  0  0  0  0  0  0
  193.7460  174.9860  137.5960 C   0  0  0  0  0  3  0  0  0  0  0  0
  192.7580  175.6690  138.1700 C   0  0  0  0  0  0  0  0  0  0  0  0
  191.0000  174.1380  137.0430 C   0  0  0  0  0  2  0  0  0  0  0  0
  191.3530  175.2940  137.9320 C   0  0  0  0  0  0  0  0  0  0  0  0
  192.2120  173.4540  136.4600 C   0  0  0  0  0  3  0  0  0  0  0  0
  190.7180  177.1510  139.4070 C   0  0  0  0  0  0  0  0  0  0  0  0
  191.9990  177.4790  139.6130 C   0  0  0  0  0  3  0  0  0  0  0  0
  194.5770  173.1200  136.1050 N   0  0  0  0  0  0  0  0  0  0  0  0
  195.8250  173.7890  135.7660 C   0  0  0  0  0  1  0  0  0  0  0  0
  194.4770  171.6980  135.8130 C   0  0  0  0  0  1  0  0  0  0  0  0
  1 15  1  0  0  0  0
  2 10  1  0  0  0  0
  3 13  1  0  0  0  0
  4 21  1  6  0  0  0
  4  5  1  0  0  0  0
  5  1  1  0  0  0  0
  6  9  1  0  0  0  0
  7  4  1  0  0  0  0
  7  6  2  0  0  0  0
  8  3  2  0  0  0  0
  9  1  2  0  0  0  0
  9  8  1  0  0  0  0
 11 10  1  0  0  0  0
 11 16  1  0  0  0  0
 12 11  2  0  0  0  0
 13  2  1  0  0  0  0
 14 15  1  0  0  0  0
 14 12  1  0  0  0  0
 15 13  2  0  0  0  0
 16 18  2  0  0  0  0
 17 16  2  0  0  0  0
 19  6  1  0  0  0  0
 20 19  1  0  0  0  0
 22 31  1  0  0  0  0
 23 30  1  0  0  0  0
 24 25  1  0  0  0  0
 25 26  2  0  0  0  0
 26 22  1  0  0  0  0
 27 28  1  0  0  0  0
 28 26  1  0  0  0  0
 28 23  2  0  0  0  0
 29 24  2  0  0  0  0
 29 27  1  0  0  0  0
 30 31  2  0  0  0  0
 30 21  1  0  0  0  0
 32 24  1  0  0  0  0
 33 32  1  0  0  0  0
 34 32  1  0  0  0  0
M  END
>  <MODEL>
7

>  <REMARK>
 VINA RESULT:      -9.0      1.873      2.786
  Name = 
  5 active torsions:
  status: ('A' for Active; 'I' for Inactive)
    1  A    between atoms: N_3  and  C_25
    2  A    between atoms: C_7  and  N_11
    3  A    between atoms: C_8  and  O_18
    4  A    between atoms: C_10  and  C_12
    5  A    between atoms: O_18  and  C_30
                            x       y       z     vdW  Elec       q    Type
                         _______ _______ _______ _____ _____    ______ ____

>  <TORSDO>
F 5

$$$$
=
 OpenBabel10262423313D

 34 38  0  0  1  0  0  0  0  0999 V2000
  183.0990  178.5660  141.6050 C   0  0  0  0  0  0  0  0  0  0  0  0
  183.1330  178.0170  137.9570 C   0  0  0  0  0  2  0  0  0  0  0  0
  181.4470  178.6990  139.3800 C   0  0  0  0  0  3  0  0  0  0  0  0
  183.3900  179.3240  143.9850 C   0  0  1  0  0  3  0  0  0  0  0  0
  183.9300  178.4300  142.8630 C   0  0  0  0  0  2  0  0  0  0  0  0
  181.1160  179.0070  143.0700 C   0  0  0  0  0  0  0  0  0  0  0  0
  181.8960  179.2160  144.1320 C   0  0  0  0  0  3  0  0  0  0  0  0
  180.9410  178.8960  140.6210 N   0  0  0  0  0  0  0  0  0  0  0  0
  181.7160  178.8070  141.7310 C   0  0  0  0  0  0  0  0  0  0  0  0
  184.4120  177.3580  137.5710 C   0  0  0  0  0  2  0  0  0  0  0  0
  185.6050  178.2120  137.8240 C   0  0  0  0  0  0  0  0  0  0  0  0
  185.8880  178.6280  139.0550 C   0  0  0  0  0  3  0  0  0  0  0  0
  182.8010  178.4130  139.1900 C   0  0  0  0  0  0  0  0  0  0  0  0
  185.0200  178.5120  140.2420 C   0  0  0  0  0  2  0  0  0  0  0  0
  183.6740  178.4350  140.3180 C   0  0  0  0  0  0  0  0  0  0  0  0
  186.5400  178.4490  136.7620 N   0  0  0  0  0  0  0  0  0  0  0  0
  186.4320  177.8400  135.6780 O   0  0  0  0  0  0  0  0  0  0  0  0
  187.5550  179.3680  136.9160 O   0  0  0  0  0  0  0  0  0  0  0  0
  179.6370  178.9920  143.2540 C   0  0  0  0  0  2  0  0  0  0  0  0
  179.3050  178.1860  144.3430 O   0  0  0  0  0  1  0  0  0  0  0  0
  184.0600  179.0800  145.2220 O   0  0  0  0  0  0  0  0  0  0  0  0
  187.3250  177.7090  144.2940 O   0  0  0  0  0  0  0  0  0  0  0  0
  186.0510  178.4860  146.6550 C   0  0  0  0  0  3  0  0  0  0  0  0
  189.9630  177.0030  146.8570 C   0  0  0  0  0  0  0  0  0  0  0  0
  189.2350  177.1280  145.5730 C   0  0  0  0  0  3  0  0  0  0  0  0
  187.9920  177.6010  145.5180 C   0  0  2  0  0  3  0  0  0  0  0  0
  187.9670  177.9220  148.0880 C   0  0  0  0  0  3  0  0  0  0  0  0
  187.2960  178.0180  146.7490 C   0  0  0  0  0  0  0  0  0  0  0  0
  189.3690  177.3710  148.0050 C   0  0  0  0  0  3  0  0  0  0  0  0
  185.3690  178.5890  145.3400 C   0  0  0  0  0  0  0  0  0  0  0  0
  186.0140  178.2060  144.2320 C   0  0  0  0  0  3  0  0  0  0  0  0
  191.3080  176.4850  146.8700 N   0  0  0  0  0  0  0  0  0  0  0  0
  192.0740  176.3830  148.1030 C   0  0  0  0  0  1  0  0  0  0  0  0
  191.9520  176.0450  145.6420 C   0  0  0  0  0  1  0  0  0  0  0  0
  1  9  1  0  0  0  0
  1  5  1  0  0  0  0
  2 13  1  0  0  0  0
  3  8  1  0  0  0  0
  4  7  1  0  0  0  0
  4 21  1  1  0  0  0
  5  4  1  0  0  0  0
  6 19  1  0  0  0  0
  6  7  2  0  0  0  0
  8  9  2  0  0  0  0
  9  6  1  0  0  0  0
 10 11  1  0  0  0  0
 10  2  1  0  0  0  0
 11 12  2  0  0  0  0
 12 14  1  0  0  0  0
 13  3  2  0  0  0  0
 13 15  1  0  0  0  0
 14 15  1  0  0  0  0
 15  1  2  0  0  0  0
 16 18  2  0  0  0  0
 16 11  1  0  0  0  0
 17 16  2  0  0  0  0
 19 20  1  0  0  0  0
 21 30  1  0  0  0  0
 22 26  1  0  0  0  0
 23 28  2  0  0  0  0
 24 32  1  0  0  0  0
 24 29  1  0  0  0  0
 25 24  2  0  0  0  0
 26 25  1  1  0  0  0
 26 28  1  0  0  0  0
 28 27  1  0  0  0  0
 29 27  2  0  0  0  0
 30 23  1  0  0  0  0
 31 22  1  0  0  0  0
 31 30  2  0  0  0  0
 32 33  1  0  0  0  0
 34 32  1  0  0  0  0
M  END
>  <MODEL>
8

>  <REMARK>
 VINA RESULT:      -9.0      4.033      8.409
  Name = 
  5 active torsions:
  status: ('A' for Active; 'I' for Inactive)
    1  A    between atoms: N_3  and  C_25
    2  A    between atoms: C_7  and  N_11
    3  A    between atoms: C_8  and  O_18
    4  A    between atoms: C_10  and  C_12
    5  A    between atoms: O_18  and  C_30
                            x       y       z     vdW  Elec       q    Type
                         _______ _______ _______ _____ _____    ______ ____

>  <TORSDO>
F 5

$$$$
=
 OpenBabel10262423313D

 34 38  0  0  1  0  0  0  0  0999 V2000
  189.3980  177.5170  142.0080 C   0  0  0  0  0  0  0  0  0  0  0  0
  188.9570  177.7950  145.6600 C   0  0  0  0  0  2  0  0  0  0  0  0
  190.8340  178.0030  144.3310 C   0  0  0  0  0  3  0  0  0  0  0  0
  189.4160  177.7500  139.5040 C   0  0  1  0  0  3  0  0  0  0  0  0
  188.6800  177.1750  140.7200 C   0  0  0  0  0  2  0  0  0  0  0  0
  191.5460  177.4580  140.7230 C   0  0  0  0  0  0  0  0  0  0  0  0
  190.8980  177.4900  139.5570 C   0  0  0  0  0  3  0  0  0  0  0  0
  191.4740  177.8780  143.1440 N   0  0  0  0  0  0  0  0  0  0  0  0
  190.8040  177.6090  141.9950 C   0  0  0  0  0  0  0  0  0  0  0  0
  187.5850  177.3450  146.0260 C   0  0  0  0  0  2  0  0  0  0  0  0
  186.5190  178.2170  145.4610 C   0  0  0  0  0  0  0  0  0  0  0  0
  186.4000  178.3720  144.1450 C   0  0  0  0  0  3  0  0  0  0  0  0
  189.4460  177.8790  144.4180 C   0  0  0  0  0  0  0  0  0  0  0  0
  187.3610  177.9240  143.1190 C   0  0  0  0  0  2  0  0  0  0  0  0
  188.6910  177.7220  143.2180 C   0  0  0  0  0  0  0  0  0  0  0  0
  185.5160  178.7600  146.3330 N   0  0  0  0  0  0  0  0  0  0  0  0
  185.8460  179.3780  147.3660 O   0  0  0  0  0  0  0  0  0  0  0  0
  184.1800  178.6270  146.0300 O   0  0  0  0  0  0  0  0  0  0  0  0
  193.0270  177.2800  140.7200 C   0  0  0  0  0  2  0  0  0  0  0  0
  193.4810  177.1280  139.4090 O   0  0  0  0  0  1  0  0  0  0  0  0
  188.8460  177.2940  138.2770 O   0  0  0  0  0  0  0  0  0  0  0  0
  185.6500  176.5030  136.6780 O   0  0  0  0  0  0  0  0  0  0  0  0
  186.5430  178.2530  138.6620 C   0  0  0  0  0  3  0  0  0  0  0  0
  182.4810  178.2510  137.6410 C   0  0  0  0  0  0  0  0  0  0  0  0
  183.4570  177.3530  136.9830 C   0  0  0  0  0  3  0  0  0  0  0  0
  184.7460  177.3600  137.3140 C   0  0  2  0  0  3  0  0  0  0  0  0
  184.3170  179.2140  139.0710 C   0  0  0  0  0  3  0  0  0  0  0  0
  185.2440  178.2740  138.3580 C   0  0  0  0  0  0  0  0  0  0  0  0
  182.8890  179.1010  138.5980 C   0  0  0  0  0  3  0  0  0  0  0  0
  187.4780  177.3310  137.9690 C   0  0  0  0  0  0  0  0  0  0  0  0
  187.0100  176.5070  137.0230 C   0  0  0  0  0  3  0  0  0  0  0  0
  181.0940  178.2100  137.2510 N   0  0  0  0  0  0  0  0  0  0  0  0
  180.4830  179.2900  136.4890 C   0  0  0  0  0  1  0  0  0  0  0  0
  180.2490  177.0800  137.6080 C   0  0  0  0  0  1  0  0  0  0  0  0
  1 15  1  0  0  0  0
  2 10  1  0  0  0  0
  3 13  1  0  0  0  0
  4 21  1  6  0  0  0
  4  7  1  0  0  0  0
  4  5  1  0  0  0  0
  5  1  1  0  0  0  0
  6  9  1  0  0  0  0
  7  6  2  0  0  0  0
  8  3  2  0  0  0  0
  9  1  2  0  0  0  0
  9  8  1  0  0  0  0
 11 10  1  0  0  0  0
 11 16  1  0  0  0  0
 12 11  2  0  0  0  0
 13  2  1  0  0  0  0
 14 15  1  0  0  0  0
 14 12  1  0  0  0  0
 15 13  2  0  0  0  0
 16 17  2  0  0  0  0
 18 16  2  0  0  0  0
 19  6  1  0  0  0  0
 20 19  1  0  0  0  0
 22 31  1  0  0  0  0
 22 26  1  0  0  0  0
 24 29  1  0  0  0  0
 25 24  2  0  0  0  0
 26 25  1  6  0  0  0
 26 28  1  0  0  0  0
 28 23  2  0  0  0  0
 28 27  1  0  0  0  0
 29 27  2  0  0  0  0
 30 21  1  0  0  0  0
 30 23  1  0  0  0  0
 31 30  2  0  0  0  0
 32 34  1  0  0  0  0
 32 24  1  0  0  0  0
 33 32  1  0  0  0  0
M  END
>  <MODEL>
9

>  <REMARK>
 VINA RESULT:      -8.9      3.513      6.892
  Name = 
  5 active torsions:
  status: ('A' for Active; 'I' for Inactive)
    1  A    between atoms: N_3  and  C_25
    2  A    between atoms: C_7  and  N_11
    3  A    between atoms: C_8  and  O_18
    4  A    between atoms: C_10  and  C_12
    5  A    between atoms: O_18  and  C_30
                            x       y       z     vdW  Elec       q    Type
                         _______ _______ _______ _____ _____    ______ ____

>  <TORSDO>
F 5

$$$$
