=
 OpenBabel10262419103D

 34 39  0  0  1  0  0  0  0  0999 V2000
  190.9390  177.0660  141.5470 C   0  0  0  0  0  0  0  0  0  0  0  0
  188.9130  178.2700  140.7190 C   0  0  2  0  0  3  0  0  0  0  0  0
  189.0510  177.6790  143.0840 C   0  0  2  0  0  3  0  0  0  0  0  0
  187.0900  177.7740  144.6200 C   0  0  1  0  0  3  0  0  0  0  0  0
  190.8180  177.8020  139.2340 C   0  0  0  0  0  3  0  0  0  0  0  0
  189.4480  178.0670  139.4120 O   0  0  0  0  0  0  0  0  0  0  0  0
  186.8660  178.4640  142.1790 C   0  0  0  0  0  2  0  0  0  0  0  0
  189.4540  177.2290  141.6870 C   0  0  2  0  0  3  0  0  0  0  0  0
  191.5690  177.3520  140.2480 C   0  0  0  0  0  3  0  0  0  0  0  0
  189.9220  177.0930  144.2240 C   0  0  1  0  0  3  0  0  0  0  0  0
  191.6240  176.5370  142.5170 N   0  0  0  0  0  0  0  0  0  0  0  0
  187.3820  178.2190  140.7450 C   0  0  0  0  0  2  0  0  0  0  0  0
  187.6600  176.6700  145.4970 C   0  0  0  0  0  2  0  0  0  0  0  0
  189.1940  176.6340  145.5000 C   0  0  2  0  0  3  0  0  0  0  0  0
  187.5350  177.5100  143.1910 C   0  0  1  0  0  3  0  0  0  0  0  0
  190.9710  176.0810  143.7490 C   0  0  0  0  0  2  0  0  0  0  0  0
  191.0570  176.8650  147.2290 C   0  0  0  0  0  0  0  0  0  0  0  0
  191.6330  177.5970  148.0780 O   0  0  0  0  0  0  0  0  0  0  0  0
  189.7600  177.2390  146.7120 N   0  0  0  0  0  0  0  0  0  0  0  0
  191.7380  175.6080  146.8040 C   0  0  0  0  0  1  0  0  0  0  0  0
  189.0830  178.4180  147.2590 C   0  0  0  0  0  3  0  0  0  0  0  0
  189.1600  178.4040  148.7780 C   0  0  0  0  0  2  0  0  0  0  0  0
  187.8750  178.0090  148.0920 C   0  0  0  0  0  2  0  0  0  0  0  0
  185.6940  177.7580  144.7140 O   0  0  0  0  0  0  0  0  0  0  0  0
  185.3550  179.0030  145.2500 C   0  0  0  0  0  2  0  0  0  0  0  0
  184.2840  179.6570  144.3970 C   0  0  0  0  0  2  0  0  0  0  0  0
  182.9380  179.0340  144.7090 C   0  0  0  0  0  2  0  0  0  0  0  0
  179.9190  178.4130  143.9220 C   0  0  0  0  0  1  0  0  0  0  0  0
  182.3440  178.5220  143.4860 N   0  0  0  0  0  0  0  0  0  0  0  0
  181.0540  179.2190  143.3050 C   0  0  1  0  0  3  0  0  0  0  0  0
  181.1510  178.4910  141.1160 C   0  0  0  0  0  2  0  0  0  0  0  0
  182.6750  178.4010  141.0620 C   0  0  0  0  0  2  0  0  0  0  0  0
  183.2570  178.8650  142.3940 C   0  0  0  0  0  2  0  0  0  0  0  0
  180.7580  179.5530  141.9540 O   0  0  0  0  0  0  0  0  0  0  0  0
  1  8  1  0  0  0  0
  1 11  2  0  0  0  0
  2 12  1  6  0  0  0
  2  8  1  0  0  0  0
  3 15  1  0  0  0  0
  3 10  1  0  0  0  0
  4 24  1  0  0  0  0
  4 13  1  0  0  0  0
  5  6  1  0  0  0  0
  5  9  2  0  0  0  0
  6  2  1  0  0  0  0
  7 15  1  0  0  0  0
  8  3  1  0  0  0  0
  9  1  1  0  0  0  0
 10 14  1  0  0  0  0
 11 16  1  0  0  0  0
 12  7  1  0  0  0  0
 13 14  1  0  0  0  0
 14 19  1  0  0  0  0
 15  4  1  0  0  0  0
 16 10  1  0  0  0  0
 17 18  2  0  0  0  0
 19 17  1  0  0  0  0
 19 21  1  0  0  0  0
 20 17  1  0  0  0  0
 21 23  1  0  0  0  0
 21 22  1  0  0  0  0
 23 22  1  0  0  0  0
 24 25  1  0  0  0  0
 26 27  1  0  0  0  0
 26 25  1  0  0  0  0
 29 27  1  0  0  0  0
 30 29  1  0  0  0  0
 30 28  1  0  0  0  0
 31 34  1  0  0  0  0
 32 31  1  0  0  0  0
 32 33  1  0  0  0  0
 33 29  1  0  0  0  0
 34 30  1  0  0  0  0
M  END
>  <MODEL>
1

>  <REMARK>
 VINA RESULT:      -8.2      0.000      0.000
  Name = 
  7 active torsions:
  status: ('A' for Active; 'I' for Inactive)
    1  A    between atoms: C_3  and  N_13
    2  A    between atoms: C_3  and  C_17
    3  A    between atoms: C_5  and  O_18
    4  A    between atoms: C_12  and  N_23
    5  A    between atoms: C_17  and  C_29
    6  A    between atoms: O_18  and  C_29
    7  A    between atoms: N_23  and  C_28
                            x       y       z     vdW  Elec       q    Type
                         _______ _______ _______ _____ _____    ______ ____

>  <TORSDO>
F 7

$$$$
=
 OpenBabel10262419103D

 34 39  0  0  1  0  0  0  0  0999 V2000
  189.2570  177.3540  145.5400 C   0  0  0  0  0  0  0  0  0  0  0  0
  186.7930  177.4510  145.9470 C   0  0  2  0  0  3  0  0  0  0  0  0
  187.6260  177.7390  143.6700 C   0  0  2  0  0  3  0  0  0  0  0  0
  186.2080  178.6020  141.8100 C   0  0  1  0  0  3  0  0  0  0  0  0
  188.3700  176.9300  147.7620 C   0  0  0  0  0  3  0  0  0  0  0  0
  187.1220  177.4180  147.3350 O   0  0  0  0  0  0  0  0  0  0  0  0
  185.2400  178.2800  144.1430 C   0  0  0  0  0  2  0  0  0  0  0  0
  187.9600  177.9900  145.1330 C   0  0  2  0  0  3  0  0  0  0  0  0
  189.4060  176.8560  146.9170 C   0  0  0  0  0  3  0  0  0  0  0  0
  188.8550  177.7090  142.7260 C   0  0  1  0  0  3  0  0  0  0  0  0
  190.2710  177.3840  144.7280 N   0  0  0  0  0  0  0  0  0  0  0  0
  185.5530  178.3000  145.6540 C   0  0  0  0  0  2  0  0  0  0  0  0
  187.4170  179.1860  141.0930 C   0  0  0  0  0  2  0  0  0  0  0  0
  188.7110  178.4060  141.3620 C   0  0  2  0  0  3  0  0  0  0  0  0
  186.4740  178.6760  143.3040 C   0  0  1  0  0  3  0  0  0  0  0  0
  190.1820  178.0410  143.4200 C   0  0  0  0  0  2  0  0  0  0  0  0
  190.3830  176.9380  140.1140 C   0  0  0  0  0  0  0  0  0  0  0  0
  190.5670  175.9690  139.3290 O   0  0  0  0  0  0  0  0  0  0  0  0
  189.0680  177.5230  140.2450 N   0  0  0  0  0  0  0  0  0  0  0  0
  191.5560  177.4640  140.8690 C   0  0  0  0  0  1  0  0  0  0  0  0
  187.9820  177.0470  139.3840 C   0  0  0  0  0  3  0  0  0  0  0  0
  188.5200  176.7230  137.9990 C   0  0  0  0  0  2  0  0  0  0  0  0
  187.7540  178.0050  138.2230 C   0  0  0  0  0  2  0  0  0  0  0  0
  185.0720  179.3460  141.4720 O   0  0  0  0  0  0  0  0  0  0  0  0
  184.6850  178.8630  140.2200 C   0  0  0  0  0  2  0  0  0  0  0  0
  183.1730  178.9030  140.0980 C   0  0  0  0  0  2  0  0  0  0  0  0
  182.5480  178.3160  141.3480 C   0  0  0  0  0  2  0  0  0  0  0  0
  180.6050  178.5320  143.8570 C   0  0  0  0  0  1  0  0  0  0  0  0
  181.1780  178.7860  141.4720 N   0  0  0  0  0  0  0  0  0  0  0  0
  181.0760  179.4860  142.7690 C   0  0  1  0  0  3  0  0  0  0  0  0
  179.1310  180.4090  141.9340 C   0  0  0  0  0  2  0  0  0  0  0  0
  179.5410  180.3040  140.4660 C   0  0  0  0  0  2  0  0  0  0  0  0
  180.9500  179.7260  140.3740 C   0  0  0  0  0  2  0  0  0  0  0  0
  180.2630  180.6530  142.7360 O   0  0  0  0  0  0  0  0  0  0  0  0
  1  9  1  0  0  0  0
  2 12  1  1  0  0  0
  2  6  1  0  0  0  0
  3  8  1  0  0  0  0
  4 15  1  0  0  0  0
  6  5  1  0  0  0  0
  7 12  1  0  0  0  0
  8  1  1  0  0  0  0
  8  2  1  0  0  0  0
  9  5  2  0  0  0  0
 10 16  1  0  0  0  0
 10  3  1  0  0  0  0
 11  1  2  0  0  0  0
 13 14  1  0  0  0  0
 13  4  1  0  0  0  0
 14 10  1  0  0  0  0
 15  3  1  0  0  0  0
 15  7  1  0  0  0  0
 16 11  1  0  0  0  0
 17 19  1  0  0  0  0
 17 20  1  0  0  0  0
 18 17  2  0  0  0  0
 19 14  1  0  0  0  0
 21 19  1  0  0  0  0
 22 23  1  0  0  0  0
 22 21  1  0  0  0  0
 23 21  1  0  0  0  0
 24  4  1  0  0  0  0
 25 24  1  0  0  0  0
 26 25  1  0  0  0  0
 26 27  1  0  0  0  0
 27 29  1  0  0  0  0
 29 30  1  0  0  0  0
 30 28  1  0  0  0  0
 31 34  1  0  0  0  0
 32 31  1  0  0  0  0
 33 32  1  0  0  0  0
 33 29  1  0  0  0  0
 34 30  1  0  0  0  0
M  END
>  <MODEL>
2

>  <REMARK>
 VINA RESULT:      -8.2      1.800      5.370
  Name = 
  7 active torsions:
  status: ('A' for Active; 'I' for Inactive)
    1  A    between atoms: C_3  and  N_13
    2  A    between atoms: C_3  and  C_17
    3  A    between atoms: C_5  and  O_18
    4  A    between atoms: C_12  and  N_23
    5  A    between atoms: C_17  and  C_29
    6  A    between atoms: O_18  and  C_29
    7  A    between atoms: N_23  and  C_28
                            x       y       z     vdW  Elec       q    Type
                         _______ _______ _______ _____ _____    ______ ____

>  <TORSDO>
F 7

$$$$
=
 OpenBabel10262419103D

 34 39  0  0  1  0  0  0  0  0999 V2000
  189.9860  177.1700  143.3730 C   0  0  0  0  0  0  0  0  0  0  0  0
  187.5530  177.7220  143.2350 C   0  0  2  0  0  3  0  0  0  0  0  0
  188.8020  177.3660  141.1680 C   0  0  2  0  0  3  0  0  0  0  0  0
  187.9140  177.9920  138.9240 C   0  0  1  0  0  3  0  0  0  0  0  0
  188.6680  177.3910  145.4030 C   0  0  0  0  0  3  0  0  0  0  0  0
  187.6280  177.9520  144.6400 O   0  0  0  0  0  0  0  0  0  0  0  0
  186.5170  178.3490  141.0230 C   0  0  0  0  0  2  0  0  0  0  0  0
  188.9230  177.8860  142.5930 C   0  0  2  0  0  3  0  0  0  0  0  0
  189.8000  176.9760  144.8200 C   0  0  0  0  0  3  0  0  0  0  0  0
  190.1470  176.9420  140.5220 C   0  0  1  0  0  3  0  0  0  0  0  0
  191.1120  176.8650  142.7990 N   0  0  0  0  0  0  0  0  0  0  0  0
  186.5650  178.6600  142.5340 C   0  0  0  0  0  2  0  0  0  0  0  0
  189.3160  178.2140  138.3750 C   0  0  0  0  0  2  0  0  0  0  0  0
  190.3730  177.3290  139.0500 C   0  0  2  0  0  3  0  0  0  0  0  0
  187.9290  178.3580  140.3990 C   0  0  1  0  0  3  0  0  0  0  0  0
  191.3730  177.2190  141.4000 C   0  0  0  0  0  2  0  0  0  0  0  0
  192.1130  175.7500  138.0580 C   0  0  0  0  0  0  0  0  0  0  0  0
  192.3680  174.6050  137.5950 O   0  0  0  0  0  0  0  0  0  0  0  0
  190.7420  176.1760  138.2220 N   0  0  0  0  0  0  0  0  0  0  0  0
  193.2590  176.6410  138.4000 C   0  0  0  0  0  1  0  0  0  0  0  0
  189.6600  175.3070  137.7500 C   0  0  0  0  0  3  0  0  0  0  0  0
  190.1670  174.4000  136.6400 C   0  0  0  0  0  2  0  0  0  0  0  0
  189.3250  175.6040  136.2940 C   0  0  0  0  0  2  0  0  0  0  0  0
  187.0150  178.8030  138.2220 O   0  0  0  0  0  0  0  0  0  0  0  0
  186.8680  178.1850  136.9780 C   0  0  0  0  0  2  0  0  0  0  0  0
  185.9710  176.9690  137.1090 C   0  0  0  0  0  2  0  0  0  0  0  0
  184.5220  177.3910  136.9730 C   0  0  0  0  0  2  0  0  0  0  0  0
  183.6590  179.6650  139.0230 C   0  0  0  0  0  1  0  0  0  0  0  0
  183.8730  177.3260  138.2720 N   0  0  0  0  0  0  0  0  0  0  0  0
  182.9620  178.4850  138.3600 C   0  0  1  0  0  3  0  0  0  0  0  0
  181.9550  177.3570  140.1050 C   0  0  0  0  0  2  0  0  0  0  0  0
  182.3500  175.9630  139.6220 C   0  0  0  0  0  2  0  0  0  0  0  0
  183.1050  176.0800  138.3010 C   0  0  0  0  0  2  0  0  0  0  0  0
  181.7240  178.2040  139.0030 O   0  0  0  0  0  0  0  0  0  0  0  0
  1  9  1  0  0  0  0
  2 12  1  6  0  0  0
  2  6  1  0  0  0  0
  3  8  1  0  0  0  0
  4 15  1  0  0  0  0
  6  5  1  0  0  0  0
  7 12  1  0  0  0  0
  8  2  1  0  0  0  0
  8  1  1  0  0  0  0
  9  5  2  0  0  0  0
 10  3  1  0  0  0  0
 10 16  1  0  0  0  0
 11  1  2  0  0  0  0
 13  4  1  0  0  0  0
 13 14  1  0  0  0  0
 14 10  1  0  0  0  0
 15  7  1  0  0  0  0
 15  3  1  0  0  0  0
 16 11  1  0  0  0  0
 17 19  1  0  0  0  0
 17 20  1  0  0  0  0
 18 17  2  0  0  0  0
 19 14  1  0  0  0  0
 21 19  1  0  0  0  0
 22 21  1  0  0  0  0
 23 22  1  0  0  0  0
 23 21  1  0  0  0  0
 24  4  1  0  0  0  0
 25 26  1  0  0  0  0
 25 24  1  0  0  0  0
 27 26  1  0  0  0  0
 27 29  1  0  0  0  0
 29 33  1  0  0  0  0
 29 30  1  0  0  0  0
 30 34  1  0  0  0  0
 30 28  1  0  0  0  0
 32 31  1  0  0  0  0
 33 32  1  0  0  0  0
 34 31  1  0  0  0  0
M  END
>  <MODEL>
3

>  <REMARK>
 VINA RESULT:      -8.1      2.766      6.509
  Name = 
  7 active torsions:
  status: ('A' for Active; 'I' for Inactive)
    1  A    between atoms: C_3  and  N_13
    2  A    between atoms: C_3  and  C_17
    3  A    between atoms: C_5  and  O_18
    4  A    between atoms: C_12  and  N_23
    5  A    between atoms: C_17  and  C_29
    6  A    between atoms: O_18  and  C_29
    7  A    between atoms: N_23  and  C_28
                            x       y       z     vdW  Elec       q    Type
                         _______ _______ _______ _____ _____    ______ ____

>  <TORSDO>
F 7

$$$$
=
 OpenBabel10262419103D

 34 39  0  0  1  0  0  0  0  0999 V2000
  186.1430  178.2340  146.0960 C   0  0  0  0  0  0  0  0  0  0  0  0
  185.2850  178.1920  143.7500 C   0  0  2  0  0  3  0  0  0  0  0  0
  187.6660  177.8200  144.1440 C   0  0  2  0  0  3  0  0  0  0  0  0
  189.3650  177.8820  142.3210 C   0  0  1  0  0  3  0  0  0  0  0  0
  183.7620  178.4550  145.6640 C   0  0  0  0  0  3  0  0  0  0  0  0
  184.0490  178.6430  144.3000 O   0  0  0  0  0  0  0  0  0  0  0  0
  186.8940  178.2240  141.8090 C   0  0  0  0  0  2  0  0  0  0  0  0
  186.4440  178.5630  144.6640 C   0  0  2  0  0  3  0  0  0  0  0  0
  184.7420  178.2240  146.5470 C   0  0  0  0  0  3  0  0  0  0  0  0
  188.7910  177.6210  145.1920 C   0  0  1  0  0  3  0  0  0  0  0  0
  187.1180  178.1100  146.9470 N   0  0  0  0  0  0  0  0  0  0  0  0
  185.5550  178.7630  142.3550 C   0  0  0  0  0  2  0  0  0  0  0  0
  190.4550  178.3300  143.2830 C   0  0  0  0  0  2  0  0  0  0  0  0
  190.2400  177.8220  144.7160 C   0  0  2  0  0  3  0  0  0  0  0  0
  188.0470  178.4600  142.8080 C   0  0  1  0  0  3  0  0  0  0  0  0
  188.5140  178.2990  146.5390 C   0  0  0  0  0  2  0  0  0  0  0  0
  191.2280  175.5420  144.1370 C   0  0  0  0  0  0  0  0  0  0  0  0
  192.1760  174.7260  144.2890 O   0  0  0  0  0  0  0  0  0  0  0  0
  191.0940  176.6710  145.0290 N   0  0  0  0  0  0  0  0  0  0  0  0
  190.2510  175.2910  143.0380 C   0  0  0  0  0  1  0  0  0  0  0  0
  192.0090  176.7970  146.1680 C   0  0  0  0  0  3  0  0  0  0  0  0
  192.0430  175.4960  146.9540 C   0  0  0  0  0  2  0  0  0  0  0  0
  191.2530  176.6680  147.4840 C   0  0  0  0  0  2  0  0  0  0  0  0
  189.6670  178.3510  141.0370 O   0  0  0  0  0  0  0  0  0  0  0  0
  190.2800  177.2730  140.3950 C   0  0  0  0  0  2  0  0  0  0  0  0
  190.0750  177.3830  138.8950 C   0  0  0  0  0  2  0  0  0  0  0  0
  188.7770  178.1130  138.6140 C   0  0  0  0  0  2  0  0  0  0  0  0
  185.6200  178.3840  138.3380 C   0  0  0  0  0  1  0  0  0  0  0  0
  187.7550  177.1550  138.2270 N   0  0  0  0  0  0  0  0  0  0  0  0
  186.7460  177.8920  137.4390 C   0  0  1  0  0  3  0  0  0  0  0  0
  186.0350  175.8190  136.7110 C   0  0  0  0  0  2  0  0  0  0  0  0
  187.3860  175.1300  136.8990 C   0  0  0  0  0  2  0  0  0  0  0  0
  188.4100  176.1490  137.3880 C   0  0  0  0  0  2  0  0  0  0  0  0
  186.2260  177.1630  136.3330 O   0  0  0  0  0  0  0  0  0  0  0  0
  1  9  1  0  0  0  0
  1 11  2  0  0  0  0
  2 12  1  6  0  0  0
  2  6  1  0  0  0  0
  2  8  1  0  0  0  0
  3  8  1  0  0  0  0
  3 10  1  0  0  0  0
  4 15  1  0  0  0  0
  4 13  1  0  0  0  0
  5  9  2  0  0  0  0
  6  5  1  0  0  0  0
  7 12  1  0  0  0  0
  7 15  1  0  0  0  0
  8  1  1  0  0  0  0
 10 16  1  0  0  0  0
 13 14  1  0  0  0  0
 14 19  1  0  0  0  0
 14 10  1  0  0  0  0
 15  3  1  0  0  0  0
 16 11  1  0  0  0  0
 17 18  2  0  0  0  0
 17 19  1  0  0  0  0
 19 21  1  0  0  0  0
 20 17  1  0  0  0  0
 21 22  1  0  0  0  0
 21 23  1  0  0  0  0
 22 23  1  0  0  0  0
 24  4  1  0  0  0  0
 25 24  1  0  0  0  0
 26 25  1  0  0  0  0
 27 26  1  0  0  0  0
 29 27  1  0  0  0  0
 30 29  1  0  0  0  0
 30 28  1  0  0  0  0
 31 32  1  0  0  0  0
 32 33  1  0  0  0  0
 33 29  1  0  0  0  0
 34 31  1  0  0  0  0
 34 30  1  0  0  0  0
M  END
>  <MODEL>
4

>  <REMARK>
 VINA RESULT:      -8.0      2.478      5.850
  Name = 
  7 active torsions:
  status: ('A' for Active; 'I' for Inactive)
    1  A    between atoms: C_3  and  N_13
    2  A    between atoms: C_3  and  C_17
    3  A    between atoms: C_5  and  O_18
    4  A    between atoms: C_12  and  N_23
    5  A    between atoms: C_17  and  C_29
    6  A    between atoms: O_18  and  C_29
    7  A    between atoms: N_23  and  C_28
                            x       y       z     vdW  Elec       q    Type
                         _______ _______ _______ _____ _____    ______ ____

>  <TORSDO>
F 7

$$$$
=
 OpenBabel10262419103D

 34 39  0  0  1  0  0  0  0  0999 V2000
  189.7440  177.1860  143.2180 C   0  0  0  0  0  0  0  0  0  0  0  0
  187.3330  177.7590  142.8960 C   0  0  2  0  0  3  0  0  0  0  0  0
  188.7330  177.3930  140.9300 C   0  0  2  0  0  3  0  0  0  0  0  0
  188.0230  178.0290  138.6260 C   0  0  1  0  0  3  0  0  0  0  0  0
  188.2770  177.4180  145.1420 C   0  0  0  0  0  3  0  0  0  0  0  0
  187.3020  177.9880  144.3040 O   0  0  0  0  0  0  0  0  0  0  0  0
  186.4730  178.3950  140.6130 C   0  0  0  0  0  2  0  0  0  0  0  0
  188.7490  177.9110  142.3600 C   0  0  2  0  0  3  0  0  0  0  0  0
  189.4470  176.9930  144.6470 C   0  0  0  0  0  3  0  0  0  0  0  0
  190.1190  176.9590  140.3880 C   0  0  1  0  0  3  0  0  0  0  0  0
  190.9070  176.8730  142.7310 N   0  0  0  0  0  0  0  0  0  0  0  0
  186.4090  178.7050  142.1230 C   0  0  0  0  0  2  0  0  0  0  0  0
  189.4640  178.2380  138.1850 C   0  0  0  0  0  2  0  0  0  0  0  0
  190.4600  177.3450  138.9380 C   0  0  2  0  0  3  0  0  0  0  0  0
  187.9290  178.3930  140.0980 C   0  0  1  0  0  3  0  0  0  0  0  0
  191.2780  177.2260  141.3560 C   0  0  0  0  0  2  0  0  0  0  0  0
  192.2540  175.7390  138.0950 C   0  0  0  0  0  0  0  0  0  0  0  0
  192.5290  174.5920  137.6500 O   0  0  0  0  0  0  0  0  0  0  0  0
  190.8810  176.1900  138.1380 N   0  0  0  0  0  0  0  0  0  0  0  0
  193.3800  176.6080  138.5450 C   0  0  0  0  0  1  0  0  0  0  0  0
  189.8310  175.3420  137.5660 C   0  0  0  0  0  3  0  0  0  0  0  0
  190.4220  174.4230  136.5090 C   0  0  0  0  0  2  0  0  0  0  0  0
  189.6410  175.6440  136.0860 C   0  0  0  0  0  2  0  0  0  0  0  0
  187.1860  178.8470  137.8590 O   0  0  0  0  0  0  0  0  0  0  0  0
  186.9370  178.1160  136.6950 C   0  0  0  0  0  2  0  0  0  0  0  0
  186.1720  176.8510  137.0350 C   0  0  0  0  0  2  0  0  0  0  0  0
  186.0650  175.9770  135.8020 C   0  0  0  0  0  2  0  0  0  0  0  0
  187.0850  172.9640  135.8370 C   0  0  0  0  0  1  0  0  0  0  0  0
  185.3950  174.7330  136.1440 N   0  0  0  0  0  0  0  0  0  0  0  0
  186.3870  173.8820  136.8310 C   0  0  1  0  0  3  0  0  0  0  0  0
  184.5790  172.6530  137.5740 C   0  0  0  0  0  2  0  0  0  0  0  0
  183.5830  173.8090  137.5090 C   0  0  0  0  0  2  0  0  0  0  0  0
  184.3060  175.0760  137.0620 C   0  0  0  0  0  2  0  0  0  0  0  0
  185.8570  173.1340  137.9200 O   0  0  0  0  0  0  0  0  0  0  0  0
  1  9  1  0  0  0  0
  2 12  1  6  0  0  0
  2  6  1  0  0  0  0
  3  8  1  0  0  0  0
  4 15  1  0  0  0  0
  6  5  1  0  0  0  0
  7 12  1  0  0  0  0
  8  2  1  0  0  0  0
  8  1  1  0  0  0  0
  9  5  2  0  0  0  0
 10  3  1  0  0  0  0
 10 16  1  0  0  0  0
 11  1  2  0  0  0  0
 13  4  1  0  0  0  0
 13 14  1  0  0  0  0
 14 10  1  0  0  0  0
 15  7  1  0  0  0  0
 15  3  1  0  0  0  0
 16 11  1  0  0  0  0
 17 19  1  0  0  0  0
 17 20  1  0  0  0  0
 18 17  2  0  0  0  0
 19 14  1  0  0  0  0
 21 19  1  0  0  0  0
 22 21  1  0  0  0  0
 23 22  1  0  0  0  0
 23 21  1  0  0  0  0
 24  4  1  0  0  0  0
 25 26  1  0  0  0  0
 25 24  1  0  0  0  0
 27 29  1  0  0  0  0
 27 26  1  0  0  0  0
 28 30  1  0  0  0  0
 29 30  1  0  0  0  0
 29 33  1  0  0  0  0
 30 34  1  0  0  0  0
 31 34  1  0  0  0  0
 32 31  1  0  0  0  0
 33 32  1  0  0  0  0
M  END
>  <MODEL>
5

>  <REMARK>
 VINA RESULT:      -8.0      3.876      7.482
  Name = 
  7 active torsions:
  status: ('A' for Active; 'I' for Inactive)
    1  A    between atoms: C_3  and  N_13
    2  A    between atoms: C_3  and  C_17
    3  A    between atoms: C_5  and  O_18
    4  A    between atoms: C_12  and  N_23
    5  A    between atoms: C_17  and  C_29
    6  A    between atoms: O_18  and  C_29
    7  A    between atoms: N_23  and  C_28
                            x       y       z     vdW  Elec       q    Type
                         _______ _______ _______ _____ _____    ______ ____

>  <TORSDO>
F 7

$$$$
=
 OpenBabel10262419103D

 34 39  0  0  1  0  0  0  0  0999 V2000
  190.8330  177.3310  145.3160 C   0  0  0  0  0  0  0  0  0  0  0  0
  188.5430  176.9290  146.2310 C   0  0  2  0  0  3  0  0  0  0  0  0
  188.8010  177.3610  143.8430 C   0  0  2  0  0  3  0  0  0  0  0  0
  186.8790  177.9030  142.3500 C   0  0  1  0  0  3  0  0  0  0  0  0
  190.5390  176.7540  147.6590 C   0  0  0  0  0  3  0  0  0  0  0  0
  189.1570  176.9750  147.5180 O   0  0  0  0  0  0  0  0  0  0  0  0
  186.5100  177.4090  144.8200 C   0  0  0  0  0  2  0  0  0  0  0  0
  189.3790  177.6880  145.2120 C   0  0  2  0  0  3  0  0  0  0  0  0
  191.3660  176.8850  146.6140 C   0  0  0  0  0  3  0  0  0  0  0  0
  189.7840  177.5750  142.6620 C   0  0  1  0  0  3  0  0  0  0  0  0
  191.6270  177.5610  144.3130 N   0  0  0  0  0  0  0  0  0  0  0  0
  187.1240  177.5050  146.2330 C   0  0  0  0  0  2  0  0  0  0  0  0
  187.7670  178.7150  141.4180 C   0  0  0  0  0  2  0  0  0  0  0  0
  189.2180  178.2170  141.3830 C   0  0  2  0  0  3  0  0  0  0  0  0
  187.4340  178.0410  143.7580 C   0  0  1  0  0  3  0  0  0  0  0  0
  191.1330  178.1760  143.0760 C   0  0  0  0  0  2  0  0  0  0  0  0
  190.8280  176.9320  139.8770 C   0  0  0  0  0  0  0  0  0  0  0  0
  190.9830  176.0170  139.0240 O   0  0  0  0  0  0  0  0  0  0  0  0
  189.5020  177.4170  140.1870 N   0  0  0  0  0  0  0  0  0  0  0  0
  192.0430  177.5030  140.5260 C   0  0  0  0  0  1  0  0  0  0  0  0
  188.3570  176.9070  139.4260 C   0  0  0  0  0  3  0  0  0  0  0  0
  188.7440  176.7140  137.9690 C   0  0  0  0  0  2  0  0  0  0  0  0
  187.9190  177.9140  138.3700 C   0  0  0  0  0  2  0  0  0  0  0  0
  185.5720  178.3980  142.2820 O   0  0  0  0  0  0  0  0  0  0  0  0
  185.4820  179.0060  141.0280 C   0  0  0  0  0  2  0  0  0  0  0  0
  184.1330  178.7010  140.4030 C   0  0  0  0  0  2  0  0  0  0  0  0
  184.3270  178.2670  138.9640 C   0  0  0  0  0  2  0  0  0  0  0  0
  183.7610  176.6780  136.2670 C   0  0  0  0  0  1  0  0  0  0  0  0
  183.2390  177.3880  138.5710 N   0  0  0  0  0  0  0  0  0  0  0  0
  183.8270  176.3140  137.7440 C   0  0  1  0  0  3  0  0  0  0  0  0
  181.8660  175.1590  138.1380 C   0  0  0  0  0  2  0  0  0  0  0  0
  181.5580  175.8470  139.4660 C   0  0  0  0  0  2  0  0  0  0  0  0
  182.6800  176.8260  139.8020 C   0  0  0  0  0  2  0  0  0  0  0  0
  183.2600  175.0290  137.9720 O   0  0  0  0  0  0  0  0  0  0  0  0
  1  9  1  0  0  0  0
  2 12  1  1  0  0  0
  2  6  1  0  0  0  0
  3  8  1  0  0  0  0
  4 15  1  0  0  0  0
  6  5  1  0  0  0  0
  7 12  1  0  0  0  0
  8  1  1  0  0  0  0
  8  2  1  0  0  0  0
  9  5  2  0  0  0  0
 10 16  1  0  0  0  0
 10  3  1  0  0  0  0
 11  1  2  0  0  0  0
 13  4  1  0  0  0  0
 14 13  1  0  0  0  0
 14 10  1  0  0  0  0
 15  3  1  0  0  0  0
 15  7  1  0  0  0  0
 16 11  1  0  0  0  0
 17 19  1  0  0  0  0
 17 20  1  0  0  0  0
 18 17  2  0  0  0  0
 19 14  1  0  0  0  0
 21 19  1  0  0  0  0
 22 23  1  0  0  0  0
 22 21  1  0  0  0  0
 23 21  1  0  0  0  0
 24  4  1  0  0  0  0
 25 24  1  0  0  0  0
 26 25  1  0  0  0  0
 27 26  1  0  0  0  0
 28 30  1  0  0  0  0
 29 27  1  0  0  0  0
 29 33  1  0  0  0  0
 30 34  1  0  0  0  0
 30 29  1  0  0  0  0
 31 32  1  0  0  0  0
 32 33  1  0  0  0  0
 34 31  1  0  0  0  0
M  END
>  <MODEL>
6

>  <REMARK>
 VINA RESULT:      -7.9      2.586      5.818
  Name = 
  7 active torsions:
  status: ('A' for Active; 'I' for Inactive)
    1  A    between atoms: C_3  and  N_13
    2  A    between atoms: C_3  and  C_17
    3  A    between atoms: C_5  and  O_18
    4  A    between atoms: C_12  and  N_23
    5  A    between atoms: C_17  and  C_29
    6  A    between atoms: O_18  and  C_29
    7  A    between atoms: N_23  and  C_28
                            x       y       z     vdW  Elec       q    Type
                         _______ _______ _______ _____ _____    ______ ____

>  <TORSDO>
F 7

$$$$
=
 OpenBabel10262419103D

 34 39  0  0  1  0  0  0  0  0999 V2000
  190.9970  177.2230  145.1470 C   0  0  0  0  0  0  0  0  0  0  0  0
  188.7210  176.8910  146.1240 C   0  0  2  0  0  3  0  0  0  0  0  0
  188.9270  177.3390  143.7330 C   0  0  2  0  0  3  0  0  0  0  0  0
  186.9830  177.9640  142.3010 C   0  0  1  0  0  3  0  0  0  0  0  0
  190.7500  176.6320  147.4920 C   0  0  0  0  0  3  0  0  0  0  0  0
  189.3730  176.9020  147.3930 O   0  0  0  0  0  0  0  0  0  0  0  0
  186.6670  177.4570  144.7770 C   0  0  0  0  0  2  0  0  0  0  0  0
  189.5540  177.6310  145.0880 C   0  0  2  0  0  3  0  0  0  0  0  0
  191.5510  176.7450  146.4240 C   0  0  0  0  0  3  0  0  0  0  0  0
  189.8820  177.5300  142.5270 C   0  0  1  0  0  3  0  0  0  0  0  0
  191.7690  177.4340  144.1240 N   0  0  0  0  0  0  0  0  0  0  0  0
  187.3240  177.5170  146.1720 C   0  0  0  0  0  2  0  0  0  0  0  0
  187.8720  178.7530  141.3520 C   0  0  0  0  0  2  0  0  0  0  0  0
  189.3040  178.2050  141.2710 C   0  0  2  0  0  3  0  0  0  0  0  0
  187.5820  178.0680  143.6940 C   0  0  1  0  0  3  0  0  0  0  0  0
  191.2620  178.0790  142.9080 C   0  0  0  0  0  2  0  0  0  0  0  0
  190.8330  176.9290  139.6770 C   0  0  0  0  0  0  0  0  0  0  0  0
  190.9450  176.0160  138.8150 O   0  0  0  0  0  0  0  0  0  0  0  0
  189.5240  177.4080  140.0590 N   0  0  0  0  0  0  0  0  0  0  0  0
  192.0800  177.5030  140.2600 C   0  0  0  0  0  1  0  0  0  0  0  0
  188.3410  176.8950  139.3610 C   0  0  0  0  0  3  0  0  0  0  0  0
  188.6550  176.6900  137.8880 C   0  0  0  0  0  2  0  0  0  0  0  0
  187.8540  177.8940  138.3200 C   0  0  0  0  0  2  0  0  0  0  0  0
  185.6930  178.5050  142.2760 O   0  0  0  0  0  0  0  0  0  0  0  0
  185.5420  179.0150  140.9840 C   0  0  0  0  0  2  0  0  0  0  0  0
  184.2480  178.5040  140.3770 C   0  0  0  0  0  2  0  0  0  0  0  0
  183.2190  178.3050  141.4720 C   0  0  0  0  0  2  0  0  0  0  0  0
  180.3710  179.7190  141.3770 C   0  0  0  0  0  1  0  0  0  0  0  0
  181.9560  177.8950  140.8820 N   0  0  0  0  0  0  0  0  0  0  0  0
  181.3130  179.1120  140.3460 C   0  0  1  0  0  3  0  0  0  0  0  0
  179.9790  177.6750  139.1260 C   0  0  0  0  0  2  0  0  0  0  0  0
  180.9950  176.5360  139.0840 C   0  0  0  0  0  2  0  0  0  0  0  0
  182.2760  176.9730  139.7900 C   0  0  0  0  0  2  0  0  0  0  0  0
  180.6440  178.9170  139.1050 O   0  0  0  0  0  0  0  0  0  0  0  0
  1  9  1  0  0  0  0
  2 12  1  1  0  0  0
  2  6  1  0  0  0  0
  3  8  1  0  0  0  0
  4 15  1  0  0  0  0
  6  5  1  0  0  0  0
  7 12  1  0  0  0  0
  8  1  1  0  0  0  0
  8  2  1  0  0  0  0
  9  5  2  0  0  0  0
 10 16  1  0  0  0  0
 10  3  1  0  0  0  0
 11  1  2  0  0  0  0
 13  4  1  0  0  0  0
 14 13  1  0  0  0  0
 14 10  1  0  0  0  0
 15  3  1  0  0  0  0
 15  7  1  0  0  0  0
 16 11  1  0  0  0  0
 17 19  1  0  0  0  0
 17 20  1  0  0  0  0
 18 17  2  0  0  0  0
 19 14  1  0  0  0  0
 21 19  1  0  0  0  0
 22 23  1  0  0  0  0
 22 21  1  0  0  0  0
 23 21  1  0  0  0  0
 24  4  1  0  0  0  0
 25 24  1  0  0  0  0
 26 25  1  0  0  0  0
 26 27  1  0  0  0  0
 29 27  1  0  0  0  0
 30 29  1  0  0  0  0
 30 28  1  0  0  0  0
 32 31  1  0  0  0  0
 32 33  1  0  0  0  0
 33 29  1  0  0  0  0
 34 31  1  0  0  0  0
 34 30  1  0  0  0  0
M  END
>  <MODEL>
7

>  <REMARK>
 VINA RESULT:      -7.8      1.894      5.313
  Name = 
  7 active torsions:
  status: ('A' for Active; 'I' for Inactive)
    1  A    between atoms: C_3  and  N_13
    2  A    between atoms: C_3  and  C_17
    3  A    between atoms: C_5  and  O_18
    4  A    between atoms: C_12  and  N_23
    5  A    between atoms: C_17  and  C_29
    6  A    between atoms: O_18  and  C_29
    7  A    between atoms: N_23  and  C_28
                            x       y       z     vdW  Elec       q    Type
                         _______ _______ _______ _____ _____    ______ ____

>  <TORSDO>
F 7

$$$$
=
 OpenBabel10262419103D

 34 39  0  0  1  0  0  0  0  0999 V2000
  181.1630  178.6120  142.9260 C   0  0  0  0  0  0  0  0  0  0  0  0
  181.2280  178.1200  140.4780 C   0  0  2  0  0  3  0  0  0  0  0  0
  183.3330  178.3560  141.6910 C   0  0  2  0  0  3  0  0  0  0  0  0
  185.5330  178.6160  140.5470 C   0  0  1  0  0  3  0  0  0  0  0  0
  179.0980  178.2250  141.7040 C   0  0  0  0  0  3  0  0  0  0  0  0
  179.8170  178.3270  140.4990 O   0  0  0  0  0  0  0  0  0  0  0  0
  183.3930  178.3180  139.2000 C   0  0  0  0  0  2  0  0  0  0  0  0
  181.8940  178.8460  141.6370 C   0  0  2  0  0  3  0  0  0  0  0  0
  179.7200  178.3250  142.8860 C   0  0  0  0  0  3  0  0  0  0  0  0
  184.0220  178.5380  143.0680 C   0  0  1  0  0  3  0  0  0  0  0  0
  181.7710  178.8100  144.0570 N   0  0  0  0  0  0  0  0  0  0  0  0
  181.8740  178.5860  139.1680 C   0  0  0  0  0  2  0  0  0  0  0  0
  186.1040  179.4060  141.7160 C   0  0  0  0  0  2  0  0  0  0  0  0
  185.4840  179.0180  143.0650 C   0  0  2  0  0  3  0  0  0  0  0  0
  184.0470  178.9210  140.4620 C   0  0  1  0  0  3  0  0  0  0  0  0
  183.1620  179.2730  144.1030 C   0  0  0  0  0  2  0  0  0  0  0  0
  186.3140  178.0830  145.2890 C   0  0  0  0  0  0  0  0  0  0  0  0
  186.8550  177.1240  145.9030 O   0  0  0  0  0  0  0  0  0  0  0  0
  186.3610  178.1380  143.8460 N   0  0  0  0  0  0  0  0  0  0  0  0
  185.6570  179.1530  146.0950 C   0  0  0  0  0  1  0  0  0  0  0  0
  187.1290  177.1260  143.1150 C   0  0  0  0  0  3  0  0  0  0  0  0
  188.3690  176.7410  143.9060 C   0  0  0  0  0  2  0  0  0  0  0  0
  188.4970  177.6670  142.7200 C   0  0  0  0  0  2  0  0  0  0  0  0
  186.1860  179.0020  139.3720 O   0  0  0  0  0  0  0  0  0  0  0  0
  186.7490  177.8270  138.8690 C   0  0  0  0  0  2  0  0  0  0  0  0
  187.8160  178.1630  137.8450 C   0  0  0  0  0  2  0  0  0  0  0  0
  189.0510  178.6840  138.5530 C   0  0  0  0  0  2  0  0  0  0  0  0
  191.4100  177.4990  140.3280 C   0  0  0  0  0  1  0  0  0  0  0  0
  190.1930  177.8520  138.2120 N   0  0  0  0  0  0  0  0  0  0  0  0
  190.4050  176.9230  139.3420 C   0  0  1  0  0  3  0  0  0  0  0  0
  191.6870  175.6850  137.8730 C   0  0  0  0  0  2  0  0  0  0  0  0
  190.9660  176.1640  136.6140 C   0  0  0  0  0  2  0  0  0  0  0  0
  189.8300  177.1030  137.0080 C   0  0  0  0  0  2  0  0  0  0  0  0
  190.7810  175.6080  138.9490 O   0  0  0  0  0  0  0  0  0  0  0  0
  1 11  2  0  0  0  0
  2 12  1  6  0  0  0
  2  6  1  0  0  0  0
  2  8  1  0  0  0  0
  3 10  1  0  0  0  0
  4 13  1  0  0  0  0
  5  9  2  0  0  0  0
  6  5  1  0  0  0  0
  7 15  1  0  0  0  0
  8  3  1  0  0  0  0
  8  1  1  0  0  0  0
  9  1  1  0  0  0  0
 10 16  1  0  0  0  0
 11 16  1  0  0  0  0
 12  7  1  0  0  0  0
 13 14  1  0  0  0  0
 14 10  1  0  0  0  0
 14 19  1  0  0  0  0
 15  4  1  0  0  0  0
 15  3  1  0  0  0  0
 17 18  2  0  0  0  0
 17 20  1  0  0  0  0
 19 17  1  0  0  0  0
 21 19  1  0  0  0  0
 21 22  1  0  0  0  0
 23 21  1  0  0  0  0
 23 22  1  0  0  0  0
 24  4  1  0  0  0  0
 25 24  1  0  0  0  0
 26 27  1  0  0  0  0
 26 25  1  0  0  0  0
 29 27  1  0  0  0  0
 29 30  1  0  0  0  0
 30 28  1  0  0  0  0
 31 34  1  0  0  0  0
 32 33  1  0  0  0  0
 32 31  1  0  0  0  0
 33 29  1  0  0  0  0
 34 30  1  0  0  0  0
M  END
>  <MODEL>
8

>  <REMARK>
 VINA RESULT:      -7.8      2.473      8.005
  Name = 
  7 active torsions:
  status: ('A' for Active; 'I' for Inactive)
    1  A    between atoms: C_3  and  N_13
    2  A    between atoms: C_3  and  C_17
    3  A    between atoms: C_5  and  O_18
    4  A    between atoms: C_12  and  N_23
    5  A    between atoms: C_17  and  C_29
    6  A    between atoms: O_18  and  C_29
    7  A    between atoms: N_23  and  C_28
                            x       y       z     vdW  Elec       q    Type
                         _______ _______ _______ _____ _____    ______ ____

>  <TORSDO>
F 7

$$$$
=
 OpenBabel10262419103D

 34 39  0  0  1  0  0  0  0  0999 V2000
  186.0160  178.2980  145.8610 C   0  0  0  0  0  0  0  0  0  0  0  0
  185.2120  178.2060  143.4970 C   0  0  2  0  0  3  0  0  0  0  0  0
  187.5840  177.8510  143.9520 C   0  0  2  0  0  3  0  0  0  0  0  0
  189.3240  177.8830  142.1670 C   0  0  1  0  0  3  0  0  0  0  0  0
  183.6450  178.5020  145.3710 C   0  0  0  0  0  3  0  0  0  0  0  0
  183.9610  178.6630  144.0100 O   0  0  0  0  0  0  0  0  0  0  0  0
  186.8640  178.2070  141.5930 C   0  0  0  0  0  2  0  0  0  0  0  0
  186.3480  178.6000  144.4290 C   0  0  2  0  0  3  0  0  0  0  0  0
  184.6050  178.2920  146.2800 C   0  0  0  0  0  3  0  0  0  0  0  0
  188.6850  177.6760  145.0290 C   0  0  1  0  0  3  0  0  0  0  0  0
  186.9710  178.1950  146.7360 N   0  0  0  0  0  0  0  0  0  0  0  0
  185.5110  178.7510  142.0970 C   0  0  0  0  0  2  0  0  0  0  0  0
  190.3900  178.3540  143.1450 C   0  0  0  0  0  2  0  0  0  0  0  0
  190.1440  177.8740  144.5820 C   0  0  2  0  0  3  0  0  0  0  0  0
  187.9940  178.4660  142.6130 C   0  0  1  0  0  3  0  0  0  0  0  0
  188.3760  178.3800  146.3560 C   0  0  0  0  0  2  0  0  0  0  0  0
  191.1640  175.5930  144.0640 C   0  0  0  0  0  0  0  0  0  0  0  0
  192.1120  174.7850  144.2570 O   0  0  0  0  0  0  0  0  0  0  0  0
  190.9950  176.7320  144.9380 N   0  0  0  0  0  0  0  0  0  0  0  0
  190.2250  175.3220  142.9370 C   0  0  0  0  0  1  0  0  0  0  0  0
  191.8710  176.8780  146.1030 C   0  0  0  0  0  3  0  0  0  0  0  0
  192.0480  175.5340  146.7930 C   0  0  0  0  0  2  0  0  0  0  0  0
  191.1170  176.5630  147.3890 C   0  0  0  0  0  2  0  0  0  0  0  0
  189.6530  178.3280  140.8820 O   0  0  0  0  0  0  0  0  0  0  0  0
  189.4670  177.2160  140.0570 C   0  0  0  0  0  2  0  0  0  0  0  0
  190.7520  176.9060  139.3120 C   0  0  0  0  0  2  0  0  0  0  0  0
  190.5410  177.1200  137.8270 C   0  0  0  0  0  2  0  0  0  0  0  0
  193.4700  176.3500  136.8560 C   0  0  0  0  0  1  0  0  0  0  0  0
  191.0450  175.9700  137.0950 N   0  0  0  0  0  0  0  0  0  0  0  0
  192.3760  175.6520  137.6510 C   0  0  1  0  0  3  0  0  0  0  0  0
  192.1380  173.5990  136.6210 C   0  0  0  0  0  2  0  0  0  0  0  0
  190.6110  173.6010  136.6480 C   0  0  0  0  0  2  0  0  0  0  0  0
  190.1190  174.8650  137.3470 C   0  0  0  0  0  2  0  0  0  0  0  0
  192.6430  174.2590  137.7600 O   0  0  0  0  0  0  0  0  0  0  0  0
  1  9  1  0  0  0  0
  1 11  2  0  0  0  0
  2 12  1  6  0  0  0
  2  6  1  0  0  0  0
  2  8  1  0  0  0  0
  3  8  1  0  0  0  0
  3 10  1  0  0  0  0
  4 15  1  0  0  0  0
  4 13  1  0  0  0  0
  5  9  2  0  0  0  0
  6  5  1  0  0  0  0
  7 12  1  0  0  0  0
  7 15  1  0  0  0  0
  8  1  1  0  0  0  0
 10 16  1  0  0  0  0
 13 14  1  0  0  0  0
 14 19  1  0  0  0  0
 14 10  1  0  0  0  0
 15  3  1  0  0  0  0
 16 11  1  0  0  0  0
 17 18  2  0  0  0  0
 17 19  1  0  0  0  0
 19 21  1  0  0  0  0
 20 17  1  0  0  0  0
 21 22  1  0  0  0  0
 21 23  1  0  0  0  0
 22 23  1  0  0  0  0
 24  4  1  0  0  0  0
 25 24  1  0  0  0  0
 26 25  1  0  0  0  0
 27 26  1  0  0  0  0
 28 30  1  0  0  0  0
 29 33  1  0  0  0  0
 29 30  1  0  0  0  0
 29 27  1  0  0  0  0
 30 34  1  0  0  0  0
 31 32  1  0  0  0  0
 31 34  1  0  0  0  0
 32 33  1  0  0  0  0
M  END
>  <MODEL>
9

>  <REMARK>
 VINA RESULT:      -7.7      2.534      7.394
  Name = 
  7 active torsions:
  status: ('A' for Active; 'I' for Inactive)
    1  A    between atoms: C_3  and  N_13
    2  A    between atoms: C_3  and  C_17
    3  A    between atoms: C_5  and  O_18
    4  A    between atoms: C_12  and  N_23
    5  A    between atoms: C_17  and  C_29
    6  A    between atoms: O_18  and  C_29
    7  A    between atoms: N_23  and  C_28
                            x       y       z     vdW  Elec       q    Type
                         _______ _______ _______ _____ _____    ______ ____

>  <TORSDO>
F 7

$$$$
