=
 OpenBabel10262421343D

 32 36  0  0  1  0  0  0  0  0999 V2000
  181.1620  180.1180  140.6530 C   0  0  0  0  0  2  0  0  0  0  0  0
  185.5910  178.2640  142.0900 C   0  0  0  0  0  0  0  0  0  0  0  0
  184.9650  178.5750  146.9680 C   0  0  0  0  0  3  0  0  0  0  0  0
  186.2900  178.4660  147.0840 C   0  0  0  0  0  3  0  0  0  0  0  0
  183.7250  178.5680  140.5500 C   0  0  0  0  0  0  0  0  0  0  0  0
  183.3460  178.5830  142.9510 C   0  0  0  0  0  3  0  0  0  0  0  0
  181.3850  178.8840  141.4910 C   0  0  0  0  0  2  0  0  0  0  0  0
  184.2470  178.4040  145.6560 C   0  0  0  0  0  3  0  0  0  0  0  0
  184.7120  178.3840  143.1980 C   0  0  0  0  0  0  0  0  0  0  0  0
  185.1780  178.3180  144.4640 C   0  0  0  0  0  0  0  0  0  0  0  0
  187.4570  177.9270  143.5210 N   0  0  0  0  0  0  0  0  0  0  0  0
  181.8420  178.5400  137.0010 S   0  0  0  0  0  0  0  0  0  0  0  0
  182.0490  178.9680  138.5720 C   0  0  0  0  0  0  0  0  0  0  0  0
  182.8460  178.6720  141.6490 C   0  0  0  0  0  0  0  0  0  0  0  0
  183.3030  178.6150  139.1780 N   0  0  0  0  0  2  0  0  0  0  0  0
  181.0330  179.7370  139.2580 N   0  0  0  0  0  0  0  0  0  0  0  0
  187.1420  178.2050  145.9140 C   0  0  0  0  0  3  0  0  0  0  0  0
  186.6280  178.1180  144.6820 C   0  0  1  0  0  3  0  0  0  0  0  0
  185.0850  178.3560  140.7920 C   0  0  0  0  0  3  0  0  0  0  0  0
  186.8660  178.0530  142.2500 N   0  0  0  0  0  0  0  0  0  0  0  0
  191.1300  178.5070  143.8630 C   0  0  0  0  0  0  0  0  0  0  0  0
  191.6340  177.2140  143.7120 C   0  0  0  0  0  3  0  0  0  0  0  0
  189.3800  176.3660  143.4290 C   0  0  0  0  0  0  0  0  0  0  0  0
  191.2600  174.8940  143.3310 F   0  0  0  0  0  0  0  0  0  0  0  0
  190.7610  176.1440  143.4940 C   0  0  0  0  0  0  0  0  0  0  0  0
  189.7530  178.7330  143.8020 C   0  0  0  0  0  3  0  0  0  0  0  0
  191.9780  179.5440  144.0670 F   0  0  0  0  0  0  0  0  0  0  0  0
  188.5500  175.3260  143.1610 F   0  0  0  0  0  0  0  0  0  0  0  0
  188.8670  177.6660  143.6010 C   0  0  0  0  0  0  0  0  0  0  0  0
  179.7810  180.1090  138.6060 C   0  0  0  0  0  2  0  0  0  0  0  0
  179.6200  181.6210  138.5630 C   0  0  0  0  0  2  0  0  0  0  0  0
  180.6130  182.2000  137.6750 N   0  0  0  0  0  1  0  0  0  0  0  0
  1  7  1  0  0  0  0
  2 20  2  0  0  0  0
  2  9  1  0  0  0  0
  3  4  1  0  0  0  0
  5 19  2  0  0  0  0
  5 14  1  0  0  0  0
  6  9  1  0  0  0  0
  7 14  1  0  0  0  0
  8  3  2  0  0  0  0
  9 10  2  0  0  0  0
 10 18  1  0  0  0  0
 10  8  1  0  0  0  0
 11 29  1  0  0  0  0
 11 18  1  0  0  0  0
 12 13  2  0  0  0  0
 13 15  1  0  0  0  0
 13 16  1  0  0  0  0
 14  6  2  0  0  0  0
 15  5  1  0  0  0  0
 16  1  1  0  0  0  0
 17  4  2  0  0  0  0
 18 17  1  6  0  0  0
 19  2  1  0  0  0  0
 20 11  1  0  0  0  0
 21 27  1  0  0  0  0
 22 21  2  0  0  0  0
 23 25  2  0  0  0  0
 23 29  1  0  0  0  0
 24 25  1  0  0  0  0
 25 22  1  0  0  0  0
 26 21  1  0  0  0  0
 28 23  1  0  0  0  0
 29 26  2  0  0  0  0
 30 16  1  0  0  0  0
 31 30  1  0  0  0  0
 32 31  1  0  0  0  0
M  END
>  <MODEL>
1

>  <REMARK>
 VINA RESULT:      -9.3      0.000      0.000
  Name = 
  3 active torsions:
  status: ('A' for Active; 'I' for Inactive)
    1  A    between atoms: C_1  and  C_10
    2  A    between atoms: C_10  and  N_24
    3  A    between atoms: N_16  and  C_32
                            x       y       z     vdW  Elec       q    Type
                         _______ _______ _______ _____ _____    ______ ____

>  <TORSDO>
F 3

$$$$
=
 OpenBabel10262421343D

 32 36  0  0  1  0  0  0  0  0999 V2000
  180.9730  180.1120  143.0070 C   0  0  0  0  0  2  0  0  0  0  0  0
  185.5560  178.0850  143.0190 C   0  0  0  0  0  0  0  0  0  0  0  0
  186.5370  178.5230  147.8270 C   0  0  0  0  0  3  0  0  0  0  0  0
  187.8240  178.3550  147.5190 C   0  0  0  0  0  3  0  0  0  0  0  0
  183.3090  178.4440  142.1450 C   0  0  0  0  0  0  0  0  0  0  0  0
  183.7180  178.5250  144.5390 C   0  0  0  0  0  3  0  0  0  0  0  0
  181.4060  178.8870  143.7720 C   0  0  0  0  0  2  0  0  0  0  0  0
  185.4310  178.3590  146.8200 C   0  0  0  0  0  3  0  0  0  0  0  0
  185.0830  178.2680  144.3440 C   0  0  0  0  0  0  0  0  0  0  0  0
  185.9270  178.2060  145.3970 C   0  0  0  0  0  0  0  0  0  0  0  0
  187.7680  177.6920  143.7900 N   0  0  0  0  0  0  0  0  0  0  0  0
  180.3880  178.4310  139.3860 S   0  0  0  0  0  0  0  0  0  0  0  0
  181.1020  178.8810  140.7930 C   0  0  0  0  0  0  0  0  0  0  0  0
  182.8320  178.6110  143.4630 C   0  0  0  0  0  0  0  0  0  0  0  0
  182.4710  178.4830  140.9790 N   0  0  0  0  0  2  0  0  0  0  0  0
  180.3900  179.7100  141.7410 N   0  0  0  0  0  0  0  0  0  0  0  0
  188.2470  178.0320  146.1480 C   0  0  0  0  0  3  0  0  0  0  0  0
  187.3620  177.9440  145.1480 C   0  0  1  0  0  3  0  0  0  0  0  0
  184.6650  178.1750  141.9470 C   0  0  0  0  0  3  0  0  0  0  0  0
  186.8060  177.8190  142.7710 N   0  0  0  0  0  0  0  0  0  0  0  0
  191.2400  176.3330  143.9960 C   0  0  0  0  0  0  0  0  0  0  0  0
  191.7790  176.7540  142.7780 C   0  0  0  0  0  3  0  0  0  0  0  0
  189.6720  177.8070  142.2060 C   0  0  0  0  0  0  0  0  0  0  0  0
  191.5330  177.9100  140.7120 F   0  0  0  0  0  0  0  0  0  0  0  0
  190.9970  177.4910  141.8840 C   0  0  0  0  0  0  0  0  0  0  0  0
  189.9180  176.6440  144.3200 C   0  0  0  0  0  3  0  0  0  0  0  0
  192.0030  175.6260  144.8640 F   0  0  0  0  0  0  0  0  0  0  0  0
  188.9430  178.5700  141.3530 F   0  0  0  0  0  0  0  0  0  0  0  0
  189.1190  177.3670  143.4250 C   0  0  0  0  0  0  0  0  0  0  0  0
  179.0100  180.1260  141.5100 C   0  0  0  0  0  2  0  0  0  0  0  0
  178.9310  181.6220  141.2440 C   0  0  0  0  0  2  0  0  0  0  0  0
  179.2210  181.8930  139.8470 N   0  0  0  0  0  1  0  0  0  0  0  0
  1  7  1  0  0  0  0
  2  9  1  0  0  0  0
  4  3  1  0  0  0  0
  5 14  1  0  0  0  0
  8  3  2  0  0  0  0
  9  6  1  0  0  0  0
  9 10  2  0  0  0  0
 10  8  1  0  0  0  0
 11 18  1  0  0  0  0
 12 13  2  0  0  0  0
 13 15  1  0  0  0  0
 13 16  1  0  0  0  0
 14  7  1  0  0  0  0
 14  6  2  0  0  0  0
 15  5  1  0  0  0  0
 16  1  1  0  0  0  0
 17  4  2  0  0  0  0
 18 10  1  0  0  0  0
 18 17  1  6  0  0  0
 19  5  2  0  0  0  0
 19  2  1  0  0  0  0
 20  2  2  0  0  0  0
 20 11  1  0  0  0  0
 21 26  1  0  0  0  0
 21 27  1  0  0  0  0
 22 21  2  0  0  0  0
 23 29  1  0  0  0  0
 24 25  1  0  0  0  0
 25 23  2  0  0  0  0
 25 22  1  0  0  0  0
 28 23  1  0  0  0  0
 29 11  1  0  0  0  0
 29 26  2  0  0  0  0
 30 16  1  0  0  0  0
 31 30  1  0  0  0  0
 32 31  1  0  0  0  0
M  END
>  <MODEL>
2

>  <REMARK>
 VINA RESULT:      -9.1      1.782      2.154
  Name = 
  3 active torsions:
  status: ('A' for Active; 'I' for Inactive)
    1  A    between atoms: C_1  and  C_10
    2  A    between atoms: C_10  and  N_24
    3  A    between atoms: N_16  and  C_32
                            x       y       z     vdW  Elec       q    Type
                         _______ _______ _______ _____ _____    ______ ____

>  <TORSDO>
F 3

$$$$
=
 OpenBabel10262421343D

 32 36  0  0  0  0  0  0  0  0999 V2000
  191.9420  175.5990  138.1110 C   0  0  0  0  0  2  0  0  0  0  0  0
  188.6090  177.5360  141.3130 C   0  0  0  0  0  0  0  0  0  0  0  0
  191.2590  177.1540  145.4490 C   0  0  0  0  0  3  0  0  0  0  0  0
  190.1170  177.2920  146.1220 C   0  0  0  0  0  3  0  0  0  0  0  0
  189.6240  177.2070  139.1210 C   0  0  0  0  0  0  0  0  0  0  0  0
  190.9960  177.1560  141.1260 C   0  0  0  0  0  3  0  0  0  0  0  0
  192.1320  176.8280  138.9650 C   0  0  0  0  0  2  0  0  0  0  0  0
  191.3490  177.3240  143.9560 C   0  0  0  0  0  2  0  0  0  0  0  0
  189.8740  177.3830  141.9360 C   0  0  0  0  0  0  0  0  0  0  0  0
  189.9990  177.4450  143.2790 C   0  0  0  0  0  0  0  0  0  0  0  0
  187.5470  177.8980  143.4070 N   0  0  0  0  0  0  0  0  0  0  0  0
  189.8010  177.2340  135.1070 S   0  0  0  0  0  0  0  0  0  0  0  0
  190.2780  176.7920  136.6130 C   0  0  0  0  0  0  0  0  0  0  0  0
  190.8870  177.0710  139.7360 C   0  0  0  0  0  0  0  0  0  0  0  0
  189.4150  177.1670  137.7000 N   0  0  0  0  0  2  0  0  0  0  0  0
  191.4690  175.9930  136.7970 N   0  0  0  0  0  0  0  0  0  0  0  0
  188.8510  177.5850  145.4330 C   0  0  0  0  0  3  0  0  0  0  0  0
  188.7890  177.6750  144.0990 C   0  0  0  0  0  0  0  0  0  0  0  0
  188.5050  177.4470  139.9230 C   0  0  0  0  0  3  0  0  0  0  0  0
  187.5310  177.7730  142.0050 N   0  0  0  0  0  0  0  0  0  0  0  0
  185.1200  178.5700  146.1650 C   0  0  0  0  0  0  0  0  0  0  0  0
  183.9240  178.7080  145.4590 C   0  0  0  0  0  3  0  0  0  0  0  0
  185.1020  178.3100  143.3780 C   0  0  0  0  0  0  0  0  0  0  0  0
  182.7440  178.6960  143.3910 F   0  0  0  0  0  0  0  0  0  0  0  0
  183.9130  178.5770  144.0670 C   0  0  0  0  0  0  0  0  0  0  0  0
  186.3090  178.3060  145.4810 C   0  0  0  0  0  3  0  0  0  0  0  0
  185.1270  178.6890  147.5150 F   0  0  0  0  0  0  0  0  0  0  0  0
  185.0670  178.1300  142.0330 F   0  0  0  0  0  0  0  0  0  0  0  0
  186.3140  178.1900  144.0850 C   0  0  0  0  0  0  0  0  0  0  0  0
  192.3110  175.6010  135.6700 C   0  0  0  0  0  2  0  0  0  0  0  0
  193.7590  175.4360  136.1060 C   0  0  0  0  0  2  0  0  0  0  0  0
  194.4540  176.7070  136.0100 N   0  0  0  0  0  1  0  0  0  0  0  0
  1  7  1  0  0  0  0
  2  9  1  0  0  0  0
  2 20  2  0  0  0  0
  3  4  2  0  0  0  0
  5 14  1  0  0  0  0
  5 19  2  0  0  0  0
  6  9  1  0  0  0  0
  7 14  1  0  0  0  0
  8  3  1  0  0  0  0
  9 10  2  0  0  0  0
 10  8  1  0  0  0  0
 10 18  1  0  0  0  0
 11 29  1  0  0  0  0
 11 18  1  0  0  0  0
 12 13  2  0  0  0  0
 13 16  1  0  0  0  0
 13 15  1  0  0  0  0
 14  6  2  0  0  0  0
 15  5  1  0  0  0  0
 16  1  1  0  0  0  0
 17  4  1  0  0  0  0
 18 17  2  0  0  0  0
 19  2  1  0  0  0  0
 20 11  1  0  0  0  0
 21 27  1  0  0  0  0
 22 21  2  0  0  0  0
 23 25  2  0  0  0  0
 23 29  1  0  0  0  0
 24 25  1  0  0  0  0
 25 22  1  0  0  0  0
 26 21  1  0  0  0  0
 28 23  1  0  0  0  0
 29 26  2  0  0  0  0
 30 31  1  0  0  0  0
 30 16  1  0  0  0  0
 32 31  1  0  0  0  0
M  END
>  <MODEL>
3

>  <REMARK>
 VINA RESULT:      -9.0      4.577      7.880
  Name = 
  3 active torsions:
  status: ('A' for Active; 'I' for Inactive)
    1  A    between atoms: C_1  and  C_10
    2  A    between atoms: C_10  and  N_24
    3  A    between atoms: N_16  and  C_32
                            x       y       z     vdW  Elec       q    Type
                         _______ _______ _______ _____ _____    ______ ____

>  <TORSDO>
F 3

$$$$
=
 OpenBabel10262421343D

 32 36  0  0  1  0  0  0  0  0999 V2000
  186.9490  177.1610  145.6710 C   0  0  0  0  0  2  0  0  0  0  0  0
  184.3140  178.4640  141.6130 C   0  0  0  0  0  0  0  0  0  0  0  0
  179.8820  178.8880  143.7240 C   0  0  0  0  0  3  0  0  0  0  0  0
  179.3570  178.8020  142.5010 C   0  0  0  0  0  3  0  0  0  0  0  0
  186.3420  178.2610  142.9500 C   0  0  0  0  0  0  0  0  0  0  0  0
  184.1940  178.6170  144.0300 C   0  0  0  0  0  3  0  0  0  0  0  0
  186.1760  178.4420  145.4810 C   0  0  0  0  0  2  0  0  0  0  0  0
  181.3630  178.9990  143.9680 C   0  0  0  0  0  3  0  0  0  0  0  0
  183.5380  178.6280  142.7900 C   0  0  0  0  0  0  0  0  0  0  0  0
  182.1980  178.7830  142.7230 C   0  0  0  0  0  0  0  0  0  0  0  0
  182.3900  178.6840  140.2350 N   0  0  0  0  0  0  0  0  0  0  0  0
  190.2980  178.1260  143.6370 S   0  0  0  0  0  0  0  0  0  0  0  0
  188.7170  177.8780  143.9980 C   0  0  0  0  0  0  0  0  0  0  0  0
  185.5760  178.4400  144.1230 C   0  0  0  0  0  0  0  0  0  0  0  0
  187.7700  178.1040  142.9410 N   0  0  0  0  0  2  0  0  0  0  0  0
  188.3360  177.3730  145.3000 N   0  0  0  0  0  0  0  0  0  0  0  0
  180.2090  178.7710  141.3030 C   0  0  0  0  0  3  0  0  0  0  0  0
  181.5440  178.7780  141.3960 C   0  0  1  0  0  3  0  0  0  0  0  0
  185.6950  178.2850  141.7120 C   0  0  0  0  0  3  0  0  0  0  0  0
  183.7710  178.4900  140.4300 N   0  0  0  0  0  0  0  0  0  0  0  0
  181.1880  177.5450  136.8890 C   0  0  0  0  0  0  0  0  0  0  0  0
  180.9450  178.7620  136.2490 C   0  0  0  0  0  3  0  0  0  0  0  0
  181.6580  179.9540  138.2360 C   0  0  0  0  0  0  0  0  0  0  0  0
  180.9590  181.1430  136.2850 F   0  0  0  0  0  0  0  0  0  0  0  0
  181.1810  179.9650  136.9200 C   0  0  0  0  0  0  0  0  0  0  0  0
  181.6610  177.5290  138.2030 C   0  0  0  0  0  3  0  0  0  0  0  0
  180.9660  176.3800  136.2340 F   0  0  0  0  0  0  0  0  0  0  0  0
  181.9340  181.1290  138.8550 F   0  0  0  0  0  0  0  0  0  0  0  0
  181.8840  178.7280  138.8920 C   0  0  0  0  0  0  0  0  0  0  0  0
  189.3240  177.1230  146.3440 C   0  0  0  0  0  2  0  0  0  0  0  0
  188.6650  177.0820  147.7150 C   0  0  0  0  0  2  0  0  0  0  0  0
  189.0480  178.2530  148.4850 N   0  0  0  0  0  1  0  0  0  0  0  0
  2 19  1  0  0  0  0
  2  9  1  0  0  0  0
  3  8  2  0  0  0  0
  4  3  1  0  0  0  0
  5 14  1  0  0  0  0
  6 14  2  0  0  0  0
  7  1  1  0  0  0  0
  9  6  1  0  0  0  0
 10  9  2  0  0  0  0
 10  8  1  0  0  0  0
 11 20  1  0  0  0  0
 11 18  1  0  0  0  0
 12 13  2  0  0  0  0
 13 16  1  0  0  0  0
 14  7  1  0  0  0  0
 15  5  1  0  0  0  0
 15 13  1  0  0  0  0
 16  1  1  0  0  0  0
 16 30  1  0  0  0  0
 17  4  2  0  0  0  0
 18 17  1  1  0  0  0
 18 10  1  0  0  0  0
 19  5  2  0  0  0  0
 20  2  2  0  0  0  0
 21 26  1  0  0  0  0
 22 21  2  0  0  0  0
 22 25  1  0  0  0  0
 23 28  1  0  0  0  0
 23 29  1  0  0  0  0
 24 25  1  0  0  0  0
 25 23  2  0  0  0  0
 26 29  2  0  0  0  0
 27 21  1  0  0  0  0
 29 11  1  0  0  0  0
 30 31  1  0  0  0  0
 31 32  1  0  0  0  0
M  END
>  <MODEL>
4

>  <REMARK>
 VINA RESULT:      -8.8      4.242      8.873
  Name = 
  3 active torsions:
  status: ('A' for Active; 'I' for Inactive)
    1  A    between atoms: C_1  and  C_10
    2  A    between atoms: C_10  and  N_24
    3  A    between atoms: N_16  and  C_32
                            x       y       z     vdW  Elec       q    Type
                         _______ _______ _______ _____ _____    ______ ____

>  <TORSDO>
F 3

$$$$
=
 OpenBabel10262421343D

 32 36  0  0  1  0  0  0  0  0999 V2000
  186.8030  177.1770  146.0170 C   0  0  0  0  0  2  0  0  0  0  0  0
  184.2370  178.4530  141.9050 C   0  0  0  0  0  0  0  0  0  0  0  0
  179.7720  178.9020  143.9390 C   0  0  0  0  0  3  0  0  0  0  0  0
  179.2680  178.8070  142.7080 C   0  0  0  0  0  3  0  0  0  0  0  0
  186.2420  178.2570  143.2780 C   0  0  0  0  0  0  0  0  0  0  0  0
  184.0780  178.6250  144.3190 C   0  0  0  0  0  3  0  0  0  0  0  0
  186.0360  178.4580  145.8030 C   0  0  0  0  0  2  0  0  0  0  0  0
  181.2490  179.0120  144.2070 C   0  0  0  0  0  3  0  0  0  0  0  0
  183.4430  178.6280  143.0680 C   0  0  0  0  0  0  0  0  0  0  0  0
  182.1050  178.7840  142.9780 C   0  0  0  0  0  0  0  0  0  0  0  0
  182.3380  178.6660  140.4940 N   0  0  0  0  0  0  0  0  0  0  0  0
  190.1870  178.1210  144.0310 S   0  0  0  0  0  0  0  0  0  0  0  0
  188.5990  177.8780  144.3680 C   0  0  0  0  0  0  0  0  0  0  0  0
  185.4580  178.4470  144.4360 C   0  0  0  0  0  0  0  0  0  0  0  0
  187.6700  178.0980  143.2940 N   0  0  0  0  0  2  0  0  0  0  0  0
  188.1960  177.3840  145.6660 N   0  0  0  0  0  0  0  0  0  0  0  0
  180.1390  178.7660  141.5240 C   0  0  0  0  0  3  0  0  0  0  0  0
  181.4720  178.7710  141.6400 C   0  0  1  0  0  3  0  0  0  0  0  0
  185.6160  178.2730  142.0290 C   0  0  0  0  0  3  0  0  0  0  0  0
  183.7140  178.4710  140.7130 N   0  0  0  0  0  0  0  0  0  0  0  0
  181.1800  179.9970  137.2030 C   0  0  0  0  0  0  0  0  0  0  0  0
  180.8630  178.8210  136.5200 C   0  0  0  0  0  3  0  0  0  0  0  0
  181.5130  177.5170  138.4580 C   0  0  0  0  0  0  0  0  0  0  0  0
  180.7000  176.4460  136.4830 F   0  0  0  0  0  0  0  0  0  0  0  0
  181.0270  177.5830  137.1470 C   0  0  0  0  0  0  0  0  0  0  0  0
  181.6680  179.9370  138.5110 C   0  0  0  0  0  3  0  0  0  0  0  0
  181.0130  181.1980  136.5970 F   0  0  0  0  0  0  0  0  0  0  0  0
  181.6150  176.3110  139.0720 F   0  0  0  0  0  0  0  0  0  0  0  0
  181.8540  178.7000  139.1420 C   0  0  0  0  0  0  0  0  0  0  0  0
  189.1660  177.1400  146.7290 C   0  0  0  0  0  2  0  0  0  0  0  0
  188.4750  177.0350  148.0810 C   0  0  0  0  0  2  0  0  0  0  0  0
  188.6890  178.2530  148.8440 N   0  0  0  0  0  1  0  0  0  0  0  0
  2 19  1  0  0  0  0
  2  9  1  0  0  0  0
  3  8  2  0  0  0  0
  4  3  1  0  0  0  0
  5 15  1  0  0  0  0
  5 14  1  0  0  0  0
  6 14  2  0  0  0  0
  7  1  1  0  0  0  0
  9  6  1  0  0  0  0
 10  9  2  0  0  0  0
 10  8  1  0  0  0  0
 11 20  1  0  0  0  0
 11 18  1  0  0  0  0
 12 13  2  0  0  0  0
 13 16  1  0  0  0  0
 14  7  1  0  0  0  0
 15 13  1  0  0  0  0
 16  1  1  0  0  0  0
 16 30  1  0  0  0  0
 17  4  2  0  0  0  0
 18 17  1  1  0  0  0
 18 10  1  0  0  0  0
 19  5  2  0  0  0  0
 20  2  2  0  0  0  0
 21 26  1  0  0  0  0
 22 25  1  0  0  0  0
 22 21  2  0  0  0  0
 23 28  1  0  0  0  0
 23 29  1  0  0  0  0
 24 25  1  0  0  0  0
 25 23  2  0  0  0  0
 26 29  2  0  0  0  0
 27 21  1  0  0  0  0
 29 11  1  0  0  0  0
 30 31  1  0  0  0  0
 31 32  1  0  0  0  0
M  END
>  <MODEL>
5

>  <REMARK>
 VINA RESULT:      -8.8      4.092      8.711
  Name = 
  3 active torsions:
  status: ('A' for Active; 'I' for Inactive)
    1  A    between atoms: C_1  and  C_10
    2  A    between atoms: C_10  and  N_24
    3  A    between atoms: N_16  and  C_32
                            x       y       z     vdW  Elec       q    Type
                         _______ _______ _______ _____ _____    ______ ____

>  <TORSDO>
F 3

$$$$
=
 OpenBabel10262421343D

 32 36  0  0  1  0  0  0  0  0999 V2000
  188.8040  176.4650  143.9460 C   0  0  0  0  0  2  0  0  0  0  0  0
  185.4090  178.5630  140.9140 C   0  0  0  0  0  0  0  0  0  0  0  0
  181.6140  178.7040  144.0540 C   0  0  0  0  0  3  0  0  0  0  0  0
  180.8200  178.8580  142.9930 C   0  0  0  0  0  3  0  0  0  0  0  0
  187.6690  178.0640  141.6790 C   0  0  0  0  0  0  0  0  0  0  0  0
  185.8530  178.2700  143.2800 C   0  0  0  0  0  3  0  0  0  0  0  0
  188.0970  177.7790  144.1680 C   0  0  0  0  0  2  0  0  0  0  0  0
  183.1150  178.7300  143.9560 C   0  0  0  0  0  3  0  0  0  0  0  0
  184.9350  178.5270  142.2510 C   0  0  0  0  0  0  0  0  0  0  0  0
  183.6290  178.7250  142.5310 C   0  0  0  0  0  0  0  0  0  0  0  0
  183.2420  179.0830  140.0900 N   0  0  0  0  0  0  0  0  0  0  0  0
  191.6600  177.7030  141.3770 S   0  0  0  0  0  0  0  0  0  0  0  0
  190.1890  177.4330  142.0530 C   0  0  0  0  0  0  0  0  0  0  0  0
  187.2050  178.0430  143.0110 C   0  0  0  0  0  0  0  0  0  0  0  0
  189.0440  177.8750  141.3050 N   0  0  0  0  0  2  0  0  0  0  0  0
  190.0810  176.7070  143.2990 N   0  0  0  0  0  0  0  0  0  0  0  0
  181.3720  179.0280  141.6410 C   0  0  0  0  0  3  0  0  0  0  0  0
  182.6910  178.9830  141.4160 C   0  0  1  0  0  3  0  0  0  0  0  0
  186.7610  178.3330  140.6520 C   0  0  0  0  0  3  0  0  0  0  0  0
  184.6140  178.8210  139.9160 N   0  0  0  0  0  0  0  0  0  0  0  0
  181.3060  181.0370  137.5650 C   0  0  0  0  0  0  0  0  0  0  0  0
  180.8540  180.0260  136.7130 C   0  0  0  0  0  3  0  0  0  0  0  0
  181.9740  178.3680  138.0840 C   0  0  0  0  0  0  0  0  0  0  0  0
  180.7290  177.7160  136.1510 F   0  0  0  0  0  0  0  0  0  0  0  0
  181.1860  178.6930  136.9730 C   0  0  0  0  0  0  0  0  0  0  0  0
  182.0940  180.7170  138.6730 C   0  0  0  0  0  3  0  0  0  0  0  0
  180.9770  182.3280  137.3160 F   0  0  0  0  0  0  0  0  0  0  0  0
  182.2410  177.0650  138.3530 F   0  0  0  0  0  0  0  0  0  0  0  0
  182.4480  179.3870  138.9330 C   0  0  0  0  0  0  0  0  0  0  0  0
  191.2610  176.2430  144.0210 C   0  0  0  0  0  2  0  0  0  0  0  0
  191.5760  177.1600  145.1940 C   0  0  0  0  0  2  0  0  0  0  0  0
  191.9760  176.3720  146.3470 N   0  0  0  0  0  1  0  0  0  0  0  0
  1  7  1  0  0  0  0
  2  9  1  0  0  0  0
  4  3  1  0  0  0  0
  5 14  1  0  0  0  0
  8  3  2  0  0  0  0
  9 10  2  0  0  0  0
  9  6  1  0  0  0  0
 10  8  1  0  0  0  0
 11 18  1  0  0  0  0
 12 13  2  0  0  0  0
 13 16  1  0  0  0  0
 14  6  2  0  0  0  0
 14  7  1  0  0  0  0
 15  5  1  0  0  0  0
 15 13  1  0  0  0  0
 16  1  1  0  0  0  0
 16 30  1  0  0  0  0
 17  4  2  0  0  0  0
 18 17  1  6  0  0  0
 18 10  1  0  0  0  0
 19  2  1  0  0  0  0
 19  5  2  0  0  0  0
 20 11  1  0  0  0  0
 20  2  2  0  0  0  0
 21 26  1  0  0  0  0
 22 25  1  0  0  0  0
 22 21  2  0  0  0  0
 23 28  1  0  0  0  0
 23 29  1  0  0  0  0
 24 25  1  0  0  0  0
 25 23  2  0  0  0  0
 26 29  2  0  0  0  0
 27 21  1  0  0  0  0
 29 11  1  0  0  0  0
 30 31  1  0  0  0  0
 31 32  1  0  0  0  0
M  END
>  <MODEL>
6

>  <REMARK>
 VINA RESULT:      -8.7      4.081      8.763
  Name = 
  3 active torsions:
  status: ('A' for Active; 'I' for Inactive)
    1  A    between atoms: C_1  and  C_10
    2  A    between atoms: C_10  and  N_24
    3  A    between atoms: N_16  and  C_32
                            x       y       z     vdW  Elec       q    Type
                         _______ _______ _______ _____ _____    ______ ____

>  <TORSDO>
F 3

$$$$
=
 OpenBabel10262421343D

 32 36  0  0  0  0  0  0  0  0999 V2000
  188.4760  178.4480  137.3280 C   0  0  0  0  0  2  0  0  0  0  0  0
  189.4710  177.2240  142.0850 C   0  0  0  0  0  0  0  0  0  0  0  0
  185.1870  178.5850  144.1020 C   0  0  0  0  0  3  0  0  0  0  0  0
  185.8100  178.5810  145.2810 C   0  0  0  0  0  3  0  0  0  0  0  0
  189.7410  177.0660  139.6670 C   0  0  0  0  0  0  0  0  0  0  0  0
  187.5710  177.5970  140.6240 C   0  0  0  0  0  3  0  0  0  0  0  0
  187.7220  177.4480  138.1710 C   0  0  0  0  0  2  0  0  0  0  0  0
  185.8330  178.0830  142.8390 C   0  0  0  0  0  2  0  0  0  0  0  0
  188.0970  177.5380  141.9230 C   0  0  0  0  0  0  0  0  0  0  0  0
  187.3110  177.7850  142.9930 C   0  0  0  0  0  0  0  0  0  0  0  0
  189.2850  177.3260  144.4510 N   0  0  0  0  0  0  0  0  0  0  0  0
  191.5920  176.1320  136.2250 S   0  0  0  0  0  0  0  0  0  0  0  0
  190.4900  176.9140  137.1560 C   0  0  0  0  0  0  0  0  0  0  0  0
  188.3710  177.3630  139.5030 C   0  0  0  0  0  0  0  0  0  0  0  0
  190.6350  176.7790  138.5800 N   0  0  0  0  0  2  0  0  0  0  0  0
  189.4850  177.7570  136.5460 N   0  0  0  0  0  0  0  0  0  0  0  0
  187.1980  178.1150  145.4130 C   0  0  0  0  0  3  0  0  0  0  0  0
  187.9060  177.7240  144.3460 C   0  0  0  0  0  0  0  0  0  0  0  0
  190.2660  176.9930  140.9600 C   0  0  0  0  0  3  0  0  0  0  0  0
  190.0150  177.1290  143.2640 N   0  0  0  0  0  0  0  0  0  0  0  0
  190.1040  177.6930  148.0760 C   0  0  0  0  0  0  0  0  0  0  0  0
  191.2780  176.9420  148.1760 C   0  0  0  0  0  3  0  0  0  0  0  0
  191.1570  176.4330  145.8090 C   0  0  0  0  0  0  0  0  0  0  0  0
  192.9540  175.6020  147.1470 F   0  0  0  0  0  0  0  0  0  0  0  0
  191.8050  176.3140  147.0440 C   0  0  0  0  0  0  0  0  0  0  0  0
  189.4530  177.8110  146.8460 C   0  0  0  0  0  3  0  0  0  0  0  0
  189.5980  178.3080  149.1720 F   0  0  0  0  0  0  0  0  0  0  0  0
  191.7110  175.8630  144.7090 F   0  0  0  0  0  0  0  0  0  0  0  0
  189.9630  177.1720  145.7080 C   0  0  0  0  0  0  0  0  0  0  0  0
  189.3800  177.8990  135.0970 C   0  0  0  0  0  2  0  0  0  0  0  0
  188.0500  177.3570  134.5940 C   0  0  0  0  0  2  0  0  0  0  0  0
  188.0320  175.9090  134.7030 N   0  0  0  0  0  1  0  0  0  0  0  0
  1  7  1  0  0  0  0
  2 20  2  0  0  0  0
  3  4  2  0  0  0  0
  4 17  1  0  0  0  0
  5 19  2  0  0  0  0
  6  9  1  0  0  0  0
  7 14  1  0  0  0  0
  8 10  1  0  0  0  0
  8  3  1  0  0  0  0
  9  2  1  0  0  0  0
  9 10  2  0  0  0  0
 10 18  1  0  0  0  0
 11 29  1  0  0  0  0
 12 13  2  0  0  0  0
 13 15  1  0  0  0  0
 14  5  1  0  0  0  0
 14  6  2  0  0  0  0
 15  5  1  0  0  0  0
 16 13  1  0  0  0  0
 16  1  1  0  0  0  0
 18 11  1  0  0  0  0
 18 17  2  0  0  0  0
 19  2  1  0  0  0  0
 20 11  1  0  0  0  0
 21 22  1  0  0  0  0
 21 27  1  0  0  0  0
 23 25  1  0  0  0  0
 25 24  1  0  0  0  0
 25 22  2  0  0  0  0
 26 21  2  0  0  0  0
 28 23  1  0  0  0  0
 29 23  2  0  0  0  0
 29 26  1  0  0  0  0
 30 16  1  0  0  0  0
 31 32  1  0  0  0  0
 31 30  1  0  0  0  0
M  END
>  <MODEL>
7

>  <REMARK>
 VINA RESULT:      -8.0      4.530      5.880
  Name = 
  3 active torsions:
  status: ('A' for Active; 'I' for Inactive)
    1  A    between atoms: C_1  and  C_10
    2  A    between atoms: C_10  and  N_24
    3  A    between atoms: N_16  and  C_32
                            x       y       z     vdW  Elec       q    Type
                         _______ _______ _______ _____ _____    ______ ____

>  <TORSDO>
F 3

$$$$
=
 OpenBabel10262421343D

 32 36  0  0  0  0  0  0  0  0999 V2000
  190.8180  177.8930  144.7160 C   0  0  0  0  0  2  0  0  0  0  0  0
  186.8710  178.0180  141.6310 C   0  0  0  0  0  0  0  0  0  0  0  0
  189.2960  178.0200  137.3410 C   0  0  0  0  0  3  0  0  0  0  0  0
  188.1730  178.4640  136.7750 C   0  0  0  0  0  3  0  0  0  0  0  0
  188.0100  177.5360  143.7310 C   0  0  0  0  0  0  0  0  0  0  0  0
  189.2110  177.3810  141.6240 C   0  0  0  0  0  3  0  0  0  0  0  0
  190.4590  176.8560  143.6810 C   0  0  0  0  0  2  0  0  0  0  0  0
  189.3620  177.5750  138.7780 C   0  0  0  0  0  2  0  0  0  0  0  0
  188.0660  177.7610  140.9090 C   0  0  0  0  0  0  0  0  0  0  0  0
  188.1060  177.8860  139.5650 C   0  0  0  0  0  0  0  0  0  0  0  0
  185.6800  178.4720  139.6260 N   0  0  0  0  0  0  0  0  0  0  0  0
  188.3050  176.7530  147.6610 S   0  0  0  0  0  0  0  0  0  0  0  0
  188.8670  177.2200  146.1920 C   0  0  0  0  0  0  0  0  0  0  0  0
  189.1960  177.2630  143.0160 C   0  0  0  0  0  0  0  0  0  0  0  0
  187.8870  177.4110  145.1570 N   0  0  0  0  0  2  0  0  0  0  0  0
  190.2740  177.5000  146.0030 N   0  0  0  0  0  0  0  0  0  0  0  0
  186.9240  178.5840  137.5420 C   0  0  0  0  0  3  0  0  0  0  0  0
  186.8790  178.2990  138.8490 C   0  0  0  0  0  0  0  0  0  0  0  0
  186.8630  177.9010  143.0220 C   0  0  0  0  0  3  0  0  0  0  0  0
  185.7670  178.3500  141.0260 N   0  0  0  0  0  0  0  0  0  0  0  0
  182.6990  180.4810  138.6140 C   0  0  0  0  0  0  0  0  0  0  0  0
  181.9190  179.5190  137.9670 C   0  0  0  0  0  3  0  0  0  0  0  0
  183.6140  177.8430  138.4080 C   0  0  0  0  0  0  0  0  0  0  0  0
  181.6030  177.2710  137.2510 F   0  0  0  0  0  0  0  0  0  0  0  0
  182.3740  178.2020  137.8650 C   0  0  0  0  0  0  0  0  0  0  0  0
  183.9370  180.1280  139.1550 C   0  0  0  0  0  3  0  0  0  0  0  0
  182.2520  181.7560  138.7190 F   0  0  0  0  0  0  0  0  0  0  0  0
  184.0170  176.5490  138.3500 F   0  0  0  0  0  0  0  0  0  0  0  0
  184.4120  178.8140  139.0430 C   0  0  0  0  0  0  0  0  0  0  0  0
  191.2410  177.3260  147.0820 C   0  0  0  0  0  2  0  0  0  0  0  0
  191.9790  176.0030  146.9400 C   0  0  0  0  0  2  0  0  0  0  0  0
  192.8340  175.7860  148.0940 N   0  0  0  0  0  1  0  0  0  0  0  0
  1 16  1  0  0  0  0
  2 19  1  0  0  0  0
  3  8  1  0  0  0  0
  4  3  2  0  0  0  0
  4 17  1  0  0  0  0
  5 15  1  0  0  0  0
  6 14  2  0  0  0  0
  7  1  1  0  0  0  0
  8 10  1  0  0  0  0
  9  6  1  0  0  0  0
  9  2  1  0  0  0  0
 10  9  2  0  0  0  0
 11 20  1  0  0  0  0
 13 12  2  0  0  0  0
 14  7  1  0  0  0  0
 14  5  1  0  0  0  0
 15 13  1  0  0  0  0
 16 13  1  0  0  0  0
 16 30  1  0  0  0  0
 17 18  2  0  0  0  0
 18 10  1  0  0  0  0
 18 11  1  0  0  0  0
 19  5  2  0  0  0  0
 20  2  2  0  0  0  0
 21 27  1  0  0  0  0
 21 26  1  0  0  0  0
 22 21  2  0  0  0  0
 23 29  1  0  0  0  0
 24 25  1  0  0  0  0
 25 22  1  0  0  0  0
 25 23  2  0  0  0  0
 28 23  1  0  0  0  0
 29 26  2  0  0  0  0
 29 11  1  0  0  0  0
 31 30  1  0  0  0  0
 31 32  1  0  0  0  0
M  END
>  <MODEL>
8

>  <REMARK>
 VINA RESULT:      -7.9      4.490      9.411
  Name = 
  3 active torsions:
  status: ('A' for Active; 'I' for Inactive)
    1  A    between atoms: C_1  and  C_10
    2  A    between atoms: C_10  and  N_24
    3  A    between atoms: N_16  and  C_32
                            x       y       z     vdW  Elec       q    Type
                         _______ _______ _______ _____ _____    ______ ____

>  <TORSDO>
F 3

$$$$
=
 OpenBabel10262421343D

 32 36  0  0  1  0  0  0  0  0999 V2000
  182.7090  179.7470  143.8760 C   0  0  0  0  0  2  0  0  0  0  0  0
  186.8740  177.9280  141.7650 C   0  0  0  0  0  0  0  0  0  0  0  0
  189.6360  177.5230  145.8260 C   0  0  0  0  0  3  0  0  0  0  0  0
  190.7000  177.4630  145.0240 C   0  0  0  0  0  3  0  0  0  0  0  0
  184.4780  178.3530  141.8980 C   0  0  0  0  0  0  0  0  0  0  0  0
  185.7750  178.0140  143.9250 C   0  0  0  0  0  3  0  0  0  0  0  0
  183.3600  178.4200  144.1800 C   0  0  0  0  0  2  0  0  0  0  0  0
  188.2240  177.5030  145.3060 C   0  0  0  0  0  3  0  0  0  0  0  0
  186.9520  177.8490  143.1800 C   0  0  0  0  0  0  0  0  0  0  0  0
  188.1320  177.6300  143.8000 C   0  0  0  0  0  0  0  0  0  0  0  0
  189.1990  177.4860  141.5460 N   0  0  0  0  0  0  0  0  0  0  0  0
  180.7250  178.7300  140.5130 S   0  0  0  0  0  0  0  0  0  0  0  0
  181.9390  178.9440  141.5960 C   0  0  0  0  0  0  0  0  0  0  0  0
  184.5480  178.2600  143.3050 C   0  0  0  0  0  0  0  0  0  0  0  0
  183.2590  178.5710  141.1690 N   0  0  0  0  0  2  0  0  0  0  0  0
  181.6730  179.5600  142.8780 N   0  0  0  0  0  0  0  0  0  0  0  0
  190.5550  177.4100  143.5610 C   0  0  0  0  0  3  0  0  0  0  0  0
  189.3520  177.4720  142.9780 C   0  0  1  0  0  3  0  0  0  0  0  0
  185.6450  178.1770  141.1510 C   0  0  0  0  0  3  0  0  0  0  0  0
  187.9250  177.7600  141.0140 N   0  0  0  0  0  0  0  0  0  0  0  0
  192.6850  177.3330  140.2190 C   0  0  0  0  0  0  0  0  0  0  0  0
  192.4650  176.9560  138.8920 C   0  0  0  0  0  3  0  0  0  0  0  0
  190.0740  176.9240  139.2960 C   0  0  0  0  0  0  0  0  0  0  0  0
  190.9550  176.4030  137.1370 F   0  0  0  0  0  0  0  0  0  0  0  0
  191.1610  176.7530  138.4300 C   0  0  0  0  0  0  0  0  0  0  0  0
  191.6040  177.5030  141.0860 C   0  0  0  0  0  3  0  0  0  0  0  0
  193.9490  177.5380  140.6620 F   0  0  0  0  0  0  0  0  0  0  0  0
  188.8130  176.7770  138.8190 F   0  0  0  0  0  0  0  0  0  0  0  0
  190.2940  177.2850  140.6400 C   0  0  0  0  0  0  0  0  0  0  0  0
  180.3250  179.9570  143.2730 C   0  0  0  0  0  2  0  0  0  0  0  0
  179.7760  179.0250  144.3430 C   0  0  0  0  0  2  0  0  0  0  0  0
  179.6800  177.6730  143.8220 N   0  0  0  0  0  1  0  0  0  0  0  0
  1  7  1  0  0  0  0
  2  9  1  0  0  0  0
  4  3  1  0  0  0  0
  5 14  1  0  0  0  0
  8  3  2  0  0  0  0
  9 10  2  0  0  0  0
  9  6  1  0  0  0  0
 10  8  1  0  0  0  0
 11 18  1  0  0  0  0
 12 13  2  0  0  0  0
 13 16  1  0  0  0  0
 14  6  2  0  0  0  0
 14  7  1  0  0  0  0
 15 13  1  0  0  0  0
 15  5  1  0  0  0  0
 16 30  1  0  0  0  0
 16  1  1  0  0  0  0
 17  4  2  0  0  0  0
 18 17  1  6  0  0  0
 18 10  1  0  0  0  0
 19  2  1  0  0  0  0
 19  5  2  0  0  0  0
 20 11  1  0  0  0  0
 20  2  2  0  0  0  0
 21 27  1  0  0  0  0
 21 26  1  0  0  0  0
 22 21  2  0  0  0  0
 23 29  1  0  0  0  0
 24 25  1  0  0  0  0
 25 22  1  0  0  0  0
 25 23  2  0  0  0  0
 28 23  1  0  0  0  0
 29 26  2  0  0  0  0
 29 11  1  0  0  0  0
 30 31  1  0  0  0  0
 32 31  1  0  0  0  0
M  END
>  <MODEL>
9

>  <REMARK>
 VINA RESULT:      -7.5      2.991      4.002
  Name = 
  3 active torsions:
  status: ('A' for Active; 'I' for Inactive)
    1  A    between atoms: C_1  and  C_10
    2  A    between atoms: C_10  and  N_24
    3  A    between atoms: N_16  and  C_32
                            x       y       z     vdW  Elec       q    Type
                         _______ _______ _______ _____ _____    ______ ____

>  <TORSDO>
F 3

$$$$
