=
 OpenBabel10262419093D

 34 40  0  0  1  0  0  0  0  0999 V2000
  181.3170  178.8170  143.5970 C   0  0  0  0  0  0  0  0  0  0  0  0
  180.2030  178.0860  141.4820 C   0  0  0  0  0  0  0  0  0  0  0  0
  182.6170  178.0280  141.6780 N   0  0  0  0  0  0  0  0  0  0  0  0
  184.2560  178.0020  140.1020 C   0  0  1  0  0  3  0  0  0  0  0  0
  178.9330  179.1110  143.3240 C   0  0  0  0  0  3  0  0  0  0  0  0
  179.0560  178.6090  141.9370 C   0  0  0  0  0  3  0  0  0  0  0  0
  181.9760  177.8350  139.4290 C   0  0  1  0  0  3  0  0  0  0  0  0
  181.3660  177.8650  142.4080 C   0  0  1  0  0  3  0  0  0  0  0  0
  184.0180  179.3990  138.9310 S   0  0  0  0  0  0  0  0  0  0  0  0
  180.0030  179.2150  144.1170 C   0  0  0  0  0  3  0  0  0  0  0  0
  183.7620  178.5930  142.2500 C   0  0  0  0  0  0  0  0  0  0  0  0
  182.4260  179.3930  144.0880 C   0  0  0  0  0  3  0  0  0  0  0  0
  180.2420  177.3800  139.8340 S   0  0  0  0  0  0  0  0  0  0  0  0
  184.8350  178.5190  141.3470 N   0  0  0  0  0  0  0  0  0  0  0  0
  182.2160  179.2790  139.0780 C   0  0  1  0  0  3  0  0  0  0  0  0
  182.9330  177.4140  140.4500 N   0  0  2  0  0  0  0  0  0  0  0  0
  183.7310  179.2470  143.4100 C   0  0  0  0  0  3  0  0  0  0  0  0
  181.6610  182.0600  138.2270 C   0  0  0  0  0  2  0  0  0  0  0  0
  180.4780  183.0240  138.2890 C   0  0  0  0  0  2  0  0  0  0  0  0
  181.3040  180.8670  137.3840 C   0  0  0  0  0  0  0  0  0  0  0  0
  179.9910  183.3750  136.8830 C   0  0  1  0  0  3  0  0  0  0  0  0
  181.5710  179.6140  137.7690 C   0  0  0  0  0  3  0  0  0  0  0  0
  179.5460  182.1070  136.1500 C   0  0  1  0  0  3  0  0  0  0  0  0
  179.0940  182.4300  134.8840 F   0  0  0  0  0  0  0  0  0  0  0  0
  180.6980  181.1100  136.0360 C   0  0  0  0  0  2  0  0  0  0  0  0
  178.9310  184.2560  136.9760 F   0  0  0  0  0  0  0  0  0  0  0  0
  186.1330  179.1650  141.4780 C   0  0  0  0  0  2  0  0  0  0  0  0
  189.3210  177.1420  141.7350 C   0  0  0  0  0  0  0  0  0  0  0  0
  189.0750  176.3830  142.8830 C   0  0  0  0  0  3  0  0  0  0  0  0
  187.1460  178.1840  141.9550 C   0  0  0  0  0  0  0  0  0  0  0  0
  187.8650  176.5280  143.5700 C   0  0  0  0  0  3  0  0  0  0  0  0
  188.3590  178.0430  141.2720 C   0  0  0  0  0  3  0  0  0  0  0  0
  186.9030  177.4300  143.1080 C   0  0  0  0  0  3  0  0  0  0  0  0
  190.8370  176.9670  140.8780 Cl  0  0  0  0  0  0  0  0  0  0  0  0
  1 12  2  0  0  0  0
  1 10  1  0  0  0  0
  2  6  2  0  0  0  0
  3 11  1  0  0  0  0
  3  8  1  0  0  0  0
  4  9  1  6  0  0  0
  4 16  1  0  0  0  0
  4 14  1  0  0  0  0
  5 10  2  0  0  0  0
  6  5  1  0  0  0  0
  7 13  1  1  0  0  0
  7 16  1  0  0  0  0
  8  2  1  6  0  0  0
  8  1  1  0  0  0  0
  9 15  1  0  0  0  0
 11 17  2  0  0  0  0
 13  2  1  0  0  0  0
 14 27  1  0  0  0  0
 14 11  1  0  0  0  0
 15 22  1  6  0  0  0
 15  7  1  0  0  0  0
 16  3  1  1  0  0  0
 17 12  1  0  0  0  0
 18 19  1  0  0  0  0
 20 22  2  0  0  0  0
 20 18  1  0  0  0  0
 21 26  1  1  0  0  0
 21 19  1  0  0  0  0
 23 24  1  6  0  0  0
 23 21  1  0  0  0  0
 25 23  1  0  0  0  0
 25 20  1  0  0  0  0
 27 30  1  0  0  0  0
 28 29  1  0  0  0  0
 29 31  2  0  0  0  0
 30 33  2  0  0  0  0
 32 28  2  0  0  0  0
 32 30  1  0  0  0  0
 33 31  1  0  0  0  0
 34 28  1  0  0  0  0
M  END
>  <MODEL>
1

>  <REMARK>
 VINA RESULT:      -7.6      0.000      0.000
  Name = 
  3 active torsions:
  status: ('A' for Active; 'I' for Inactive)
    1  A    between atoms: C_12  and  C_28
    2  A    between atoms: C_17  and  C_29
    3  A    between atoms: N_26  and  C_28
                            x       y       z     vdW  Elec       q    Type
                         _______ _______ _______ _____ _____    ______ ____

>  <TORSDO>
F 3

$$$$
=
 OpenBabel10262419093D

 34 40  0  0  1  0  0  0  0  0999 V2000
  184.1700  178.0450  139.9770 C   0  0  0  0  0  0  0  0  0  0  0  0
  186.1710  178.8770  141.2250 C   0  0  0  0  0  0  0  0  0  0  0  0
  186.3420  178.3070  138.8760 N   0  0  0  0  0  0  0  0  0  0  0  0
  188.1340  177.7730  137.5830 C   0  0  1  0  0  3  0  0  0  0  0  0
  184.0510  178.3740  142.3680 C   0  0  0  0  0  3  0  0  0  0  0  0
  185.4910  178.7140  142.3680 C   0  0  0  0  0  3  0  0  0  0  0  0
  188.4780  178.4860  139.8300 C   0  0  1  0  0  3  0  0  0  0  0  0
  185.4600  178.8530  139.9000 C   0  0  1  0  0  3  0  0  0  0  0  0
  189.0790  176.4020  138.3600 S   0  0  0  0  0  0  0  0  0  0  0  0
  183.4180  178.0530  141.2370 C   0  0  0  0  0  3  0  0  0  0  0  0
  185.8810  177.5060  137.8250 C   0  0  0  0  0  0  0  0  0  0  0  0
  183.7820  177.2360  138.9770 C   0  0  0  0  0  3  0  0  0  0  0  0
  187.8790  179.4150  141.2990 S   0  0  0  0  0  0  0  0  0  0  0  0
  186.9350  177.2210  136.9420 N   0  0  0  0  0  0  0  0  0  0  0  0
  188.6830  177.0070  140.0220 C   0  0  1  0  0  3  0  0  0  0  0  0
  187.6680  178.7170  138.6360 N   0  0  2  0  0  0  0  0  0  0  0  0
  184.6590  176.9770  137.8160 C   0  0  0  0  0  3  0  0  0  0  0  0
  188.3230  176.3940  142.8960 C   0  0  0  0  0  2  0  0  0  0  0  0
  188.3170  177.1810  144.2050 C   0  0  0  0  0  2  0  0  0  0  0  0
  189.6790  176.4900  142.2510 C   0  0  0  0  0  0  0  0  0  0  0  0
  189.4710  176.7420  145.1060 C   0  0  1  0  0  3  0  0  0  0  0  0
  189.8320  176.7530  140.9480 C   0  0  0  0  0  3  0  0  0  0  0  0
  190.8080  176.9850  144.4020 C   0  0  1  0  0  3  0  0  0  0  0  0
  191.8500  176.6000  145.2250 F   0  0  0  0  0  0  0  0  0  0  0  0
  190.8840  176.2030  143.0910 C   0  0  0  0  0  2  0  0  0  0  0  0
  189.4270  177.4630  146.2840 F   0  0  0  0  0  0  0  0  0  0  0  0
  186.9200  176.2660  135.8430 C   0  0  0  0  0  2  0  0  0  0  0  0
  184.2640  173.5750  136.0030 C   0  0  0  0  0  0  0  0  0  0  0  0
  184.8090  172.7050  136.9520 C   0  0  0  0  0  3  0  0  0  0  0  0
  186.1780  175.0390  136.2440 C   0  0  0  0  0  0  0  0  0  0  0  0
  186.0420  173.0000  137.5430 C   0  0  0  0  0  3  0  0  0  0  0  0
  184.9470  174.7400  135.6480 C   0  0  0  0  0  3  0  0  0  0  0  0
  186.7270  174.1650  137.1870 C   0  0  0  0  0  3  0  0  0  0  0  0
  182.7250  173.2040  135.2570 Cl  0  0  0  0  0  0  0  0  0  0  0  0
  1 10  1  0  0  0  0
  2 13  1  0  0  0  0
  2  6  2  0  0  0  0
  3  8  1  0  0  0  0
  4  9  1  1  0  0  0
  4 16  1  0  0  0  0
  6  5  1  0  0  0  0
  7 15  1  0  0  0  0
  7 13  1  1  0  0  0
  8  1  1  1  0  0  0
  8  2  1  0  0  0  0
  9 15  1  0  0  0  0
 10  5  2  0  0  0  0
 11  3  1  0  0  0  0
 12  1  2  0  0  0  0
 14  4  1  0  0  0  0
 14 11  1  0  0  0  0
 15 22  1  1  0  0  0
 16  3  1  1  0  0  0
 16  7  1  0  0  0  0
 17 11  2  0  0  0  0
 17 12  1  0  0  0  0
 18 19  1  0  0  0  0
 19 21  1  0  0  0  0
 20 18  1  0  0  0  0
 20 25  1  0  0  0  0
 21 26  1  1  0  0  0
 22 20  2  0  0  0  0
 23 21  1  0  0  0  0
 23 24  1  1  0  0  0
 25 23  1  0  0  0  0
 27 30  1  0  0  0  0
 27 14  1  0  0  0  0
 28 29  1  0  0  0  0
 29 31  2  0  0  0  0
 30 33  2  0  0  0  0
 32 28  2  0  0  0  0
 32 30  1  0  0  0  0
 33 31  1  0  0  0  0
 34 28  1  0  0  0  0
M  END
>  <MODEL>
2

>  <REMARK>
 VINA RESULT:      -7.0      5.699      8.771
  Name = 
  3 active torsions:
  status: ('A' for Active; 'I' for Inactive)
    1  A    between atoms: C_12  and  C_28
    2  A    between atoms: C_17  and  C_29
    3  A    between atoms: N_26  and  C_28
                            x       y       z     vdW  Elec       q    Type
                         _______ _______ _______ _____ _____    ______ ____

>  <TORSDO>
F 3

$$$$
=
 OpenBabel10262419093D

 34 40  0  0  1  0  0  0  0  0999 V2000
  187.9560  173.4490  136.4900 C   0  0  0  0  0  0  0  0  0  0  0  0
  186.5770  175.5050  136.8460 C   0  0  0  0  0  0  0  0  0  0  0  0
  188.9940  175.6510  136.7570 N   0  0  0  0  0  0  0  0  0  0  0  0
  190.4370  177.2270  137.5350 C   0  0  1  0  0  3  0  0  0  0  0  0
  185.5690  173.2600  136.8230 C   0  0  0  0  0  3  0  0  0  0  0  0
  185.5120  174.7200  137.0570 C   0  0  0  0  0  3  0  0  0  0  0  0
  188.0900  177.6190  137.6600 C   0  0  1  0  0  3  0  0  0  0  0  0
  187.8310  174.9470  136.2330 C   0  0  1  0  0  3  0  0  0  0  0  0
  190.1180  177.5410  139.3170 S   0  0  0  0  0  0  0  0  0  0  0  0
  186.7260  172.6500  136.5560 C   0  0  0  0  0  3  0  0  0  0  0  0
  190.2180  175.0190  137.0020 C   0  0  0  0  0  0  0  0  0  0  0  0
  189.1360  172.8780  136.7820 C   0  0  0  0  0  3  0  0  0  0  0  0
  186.3980  177.2800  137.0260 S   0  0  0  0  0  0  0  0  0  0  0  0
  191.1760  175.9670  137.3980 N   0  0  0  0  0  0  0  0  0  0  0  0
  188.3420  177.2550  139.0990 C   0  0  1  0  0  3  0  0  0  0  0  0
  189.1420  177.0510  136.8210 N   0  0  2  0  0  0  0  0  0  0  0  0
  190.3460  173.6930  137.0120 C   0  0  0  0  0  3  0  0  0  0  0  0
  188.5540  177.1230  142.0500 C   0  0  0  0  0  2  0  0  0  0  0  0
  187.8010  176.4360  143.1860 C   0  0  0  0  0  2  0  0  0  0  0  0
  187.6420  178.0890  141.3450 C   0  0  0  0  0  0  0  0  0  0  0  0
  187.1500  177.4670  144.1070 C   0  0  1  0  0  3  0  0  0  0  0  0
  187.5630  178.1530  140.0100 C   0  0  0  0  0  3  0  0  0  0  0  0
  186.1570  178.3240  143.3170 C   0  0  1  0  0  3  0  0  0  0  0  0
  185.5620  179.2470  144.1560 F   0  0  0  0  0  0  0  0  0  0  0  0
  186.8600  179.0590  142.1760 C   0  0  0  0  0  2  0  0  0  0  0  0
  186.4900  176.8110  145.1280 F   0  0  0  0  0  0  0  0  0  0  0  0
  192.5040  175.6970  137.9300 C   0  0  0  0  0  2  0  0  0  0  0  0
  195.0240  176.6390  135.2690 C   0  0  0  0  0  0  0  0  0  0  0  0
  195.3780  175.3820  134.7670 C   0  0  0  0  0  3  0  0  0  0  0  0
  193.4870  175.5880  136.8180 C   0  0  0  0  0  0  0  0  0  0  0  0
  194.7890  174.2280  135.2940 C   0  0  0  0  0  3  0  0  0  0  0  0
  194.0810  176.7420  136.2950 C   0  0  0  0  0  3  0  0  0  0  0  0
  193.8460  174.3310  136.3210 C   0  0  0  0  0  3  0  0  0  0  0  0
  195.7660  178.0830  134.6160 Cl  0  0  0  0  0  0  0  0  0  0  0  0
  1 10  1  0  0  0  0
  1 12  2  0  0  0  0
  2 13  1  0  0  0  0
  2  6  2  0  0  0  0
  3 11  1  0  0  0  0
  4  9  1  1  0  0  0
  5  6  1  0  0  0  0
  7 13  1  6  0  0  0
  7 15  1  0  0  0  0
  8  1  1  1  0  0  0
  8  3  1  0  0  0  0
  8  2  1  0  0  0  0
 10  5  2  0  0  0  0
 11 17  2  0  0  0  0
 11 14  1  0  0  0  0
 12 17  1  0  0  0  0
 14  4  1  0  0  0  0
 14 27  1  0  0  0  0
 15  9  1  0  0  0  0
 15 22  1  1  0  0  0
 16  3  1  1  0  0  0
 16  4  1  0  0  0  0
 16  7  1  0  0  0  0
 18 19  1  0  0  0  0
 19 21  1  0  0  0  0
 20 18  1  0  0  0  0
 20 25  1  0  0  0  0
 21 26  1  1  0  0  0
 22 20  2  0  0  0  0
 23 21  1  0  0  0  0
 23 24  1  1  0  0  0
 25 23  1  0  0  0  0
 28 32  1  0  0  0  0
 29 28  2  0  0  0  0
 29 31  1  0  0  0  0
 30 27  1  0  0  0  0
 31 33  2  0  0  0  0
 32 30  2  0  0  0  0
 33 30  1  0  0  0  0
 34 28  1  0  0  0  0
M  END
>  <MODEL>
3

>  <REMARK>
 VINA RESULT:      -7.0      6.295      9.382
  Name = 
  3 active torsions:
  status: ('A' for Active; 'I' for Inactive)
    1  A    between atoms: C_12  and  C_28
    2  A    between atoms: C_17  and  C_29
    3  A    between atoms: N_26  and  C_28
                            x       y       z     vdW  Elec       q    Type
                         _______ _______ _______ _____ _____    ______ ____

>  <TORSDO>
F 3

$$$$
=
 OpenBabel10262419093D

 34 40  0  0  1  0  0  0  0  0999 V2000
  186.3520  178.0480  142.4410 C   0  0  0  0  0  0  0  0  0  0  0  0
  188.2550  178.0480  140.8200 C   0  0  0  0  0  0  0  0  0  0  0  0
  186.0210  178.6300  140.0860 N   0  0  0  0  0  0  0  0  0  0  0  0
  185.0660  178.6280  138.0220 C   0  0  1  0  0  3  0  0  0  0  0  0
  188.5210  177.2300  143.1260 C   0  0  0  0  0  3  0  0  0  0  0  0
  189.0020  177.4220  141.7390 C   0  0  0  0  0  3  0  0  0  0  0  0
  187.3960  178.1810  138.2390 C   0  0  1  0  0  3  0  0  0  0  0  0
  186.9550  178.6990  141.2020 C   0  0  1  0  0  3  0  0  0  0  0  0
  185.2940  176.9860  137.2290 S   0  0  0  0  0  0  0  0  0  0  0  0
  187.2630  177.5230  143.4660 C   0  0  0  0  0  3  0  0  0  0  0  0
  184.6440  178.4480  140.2580 C   0  0  0  0  0  0  0  0  0  0  0  0
  185.0310  177.8310  142.5540 C   0  0  0  0  0  3  0  0  0  0  0  0
  188.9540  178.3590  139.1980 S   0  0  0  0  0  0  0  0  0  0  0  0
  183.9920  178.5310  139.0170 N   0  0  0  0  0  0  0  0  0  0  0  0
  186.9080  176.7730  138.0250 C   0  0  1  0  0  3  0  0  0  0  0  0
  186.3050  179.0030  138.7570 N   0  0  2  0  0  0  0  0  0  0  0  0
  184.1140  178.0790  141.4220 C   0  0  0  0  0  3  0  0  0  0  0  0
  186.2450  174.1300  136.8650 C   0  0  0  0  0  2  0  0  0  0  0  0
  186.5060  172.6680  137.2190 C   0  0  0  0  0  2  0  0  0  0  0  0
  187.5490  174.8300  136.5960 C   0  0  0  0  0  0  0  0  0  0  0  0
  187.3660  171.9970  136.1480 C   0  0  1  0  0  3  0  0  0  0  0  0
  187.8360  176.0310  137.1120 C   0  0  0  0  0  3  0  0  0  0  0  0
  188.7130  172.7140  136.0320 C   0  0  1  0  0  3  0  0  0  0  0  0
  189.4930  172.0970  135.0720 F   0  0  0  0  0  0  0  0  0  0  0  0
  188.5180  174.1820  135.6560 C   0  0  0  0  0  2  0  0  0  0  0  0
  187.5700  170.6740  136.4930 F   0  0  0  0  0  0  0  0  0  0  0  0
  182.6010  178.2040  138.7380 C   0  0  0  0  0  2  0  0  0  0  0  0
  181.0010  181.6280  138.5490 C   0  0  0  0  0  0  0  0  0  0  0  0
  180.0560  181.5490  139.5770 C   0  0  0  0  0  3  0  0  0  0  0  0
  181.7300  179.3720  139.0430 C   0  0  0  0  0  0  0  0  0  0  0  0
  179.9460  180.3800  140.3350 C   0  0  0  0  0  3  0  0  0  0  0  0
  181.8360  180.5410  138.2800 C   0  0  0  0  0  3  0  0  0  0  0  0
  180.7800  179.2910  140.0670 C   0  0  0  0  0  3  0  0  0  0  0  0
  181.1350  183.0890  137.5940 Cl  0  0  0  0  0  0  0  0  0  0  0  0
  1 12  2  0  0  0  0
  1 10  1  0  0  0  0
  2  6  2  0  0  0  0
  3 11  1  0  0  0  0
  3  8  1  0  0  0  0
  4  9  1  1  0  0  0
  4 16  1  0  0  0  0
  4 14  1  0  0  0  0
  5 10  2  0  0  0  0
  6  5  1  0  0  0  0
  7 16  1  0  0  0  0
  7 13  1  1  0  0  0
  8  2  1  6  0  0  0
  8  1  1  0  0  0  0
  9 15  1  0  0  0  0
 11 17  2  0  0  0  0
 13  2  1  0  0  0  0
 14 11  1  0  0  0  0
 15 22  1  6  0  0  0
 15  7  1  0  0  0  0
 16  3  1  1  0  0  0
 17 12  1  0  0  0  0
 18 19  1  0  0  0  0
 20 18  1  0  0  0  0
 20 22  2  0  0  0  0
 21 26  1  1  0  0  0
 21 19  1  0  0  0  0
 23 24  1  6  0  0  0
 23 21  1  0  0  0  0
 25 23  1  0  0  0  0
 25 20  1  0  0  0  0
 27 14  1  0  0  0  0
 27 30  1  0  0  0  0
 28 29  1  0  0  0  0
 29 31  2  0  0  0  0
 30 33  2  0  0  0  0
 32 28  2  0  0  0  0
 32 30  1  0  0  0  0
 33 31  1  0  0  0  0
 34 28  1  0  0  0  0
M  END
>  <MODEL>
4

>  <REMARK>
 VINA RESULT:      -6.8      5.316      8.586
  Name = 
  3 active torsions:
  status: ('A' for Active; 'I' for Inactive)
    1  A    between atoms: C_12  and  C_28
    2  A    between atoms: C_17  and  C_29
    3  A    between atoms: N_26  and  C_28
                            x       y       z     vdW  Elec       q    Type
                         _______ _______ _______ _____ _____    ______ ____

>  <TORSDO>
F 3

$$$$
=
 OpenBabel10262419093D

 34 40  0  0  1  0  0  0  0  0999 V2000
  187.7190  177.3000  136.9720 C   0  0  0  0  0  0  0  0  0  0  0  0
  189.2440  175.6360  135.8970 C   0  0  0  0  0  0  0  0  0  0  0  0
  189.5350  176.2380  138.2260 N   0  0  0  0  0  0  0  0  0  0  0  0
  191.3290  176.0690  139.6120 C   0  0  1  0  0  3  0  0  0  0  0  0
  187.5770  176.8920  134.5940 C   0  0  0  0  0  3  0  0  0  0  0  0
  188.7440  175.9880  134.7050 C   0  0  0  0  0  3  0  0  0  0  0  0
  191.4420  175.1310  137.4250 C   0  0  1  0  0  3  0  0  0  0  0  0
  188.5510  176.0380  137.1690 C   0  0  0  0  0  0  0  0  0  0  0  0
  192.7910  176.8740  138.8420 S   0  0  0  0  0  0  0  0  0  0  0  0
  187.0870  177.5200  135.6650 C   0  0  0  0  0  2  0  0  0  0  0  0
  189.4040  177.2260  139.2080 C   0  0  0  0  0  0  0  0  0  0  0  0
  187.6590  178.2610  137.9080 C   0  0  0  0  0  3  0  0  0  0  0  0
  190.5760  174.4370  135.9600 S   0  0  0  0  0  0  0  0  0  0  0  0
  190.4410  177.1080  140.1470 N   0  0  0  0  0  0  0  0  0  0  0  0
  192.2520  176.3780  137.1850 C   0  0  1  0  0  3  0  0  0  0  0  0
  190.5590  175.3350  138.5710 N   0  0  2  0  0  0  0  0  0  0  0  0
  188.5130  178.2120  139.1130 C   0  0  0  0  0  3  0  0  0  0  0  0
  194.2700  174.3360  137.9100 C   0  0  0  0  0  2  0  0  0  0  0  0
  195.6220  174.3170  138.6200 C   0  0  0  0  0  2  0  0  0  0  0  0
  194.3660  175.1620  136.6560 C   0  0  0  0  0  0  0  0  0  0  0  0
  196.7300  173.8770  137.6640 C   0  0  1  0  0  3  0  0  0  0  0  0
  193.4410  176.0730  136.3290 C   0  0  0  0  0  3  0  0  0  0  0  0
  196.8190  174.8450  136.4820 C   0  0  1  0  0  3  0  0  0  0  0  0
  197.8310  174.4520  135.6260 F   0  0  0  0  0  0  0  0  0  0  0  0
  195.4980  174.8910  135.7150 C   0  0  0  0  0  2  0  0  0  0  0  0
  197.9340  173.8580  138.3420 F   0  0  0  0  0  0  0  0  0  0  0  0
  190.7770  178.0550  141.2010 C   0  0  0  0  0  2  0  0  0  0  0  0
  190.5890  176.8160  144.7730 C   0  0  0  0  0  0  0  0  0  0  0  0
  189.2060  176.7530  144.9700 C   0  0  0  0  0  3  0  0  0  0  0  0
  190.2300  177.5840  142.5030 C   0  0  0  0  0  0  0  0  0  0  0  0
  188.3360  177.1090  143.9360 C   0  0  0  0  0  3  0  0  0  0  0  0
  191.1010  177.2330  143.5410 C   0  0  0  0  0  3  0  0  0  0  0  0
  188.8470  177.5270  142.7040 C   0  0  0  0  0  3  0  0  0  0  0  0
  191.6810  176.3780  146.0690 Cl  0  0  0  0  0  0  0  0  0  0  0  0
  1  8  1  0  0  0  0
  1 12  2  0  0  0  0
  2 13  1  0  0  0  0
  2  8  2  0  0  0  0
  3 11  1  0  0  0  0
  4  9  1  6  0  0  0
  4 14  1  0  0  0  0
  5  6  2  0  0  0  0
  5 10  1  0  0  0  0
  6  2  1  0  0  0  0
  7 13  1  6  0  0  0
  7 16  1  0  0  0  0
  8  3  1  0  0  0  0
 10  1  1  0  0  0  0
 11 14  1  0  0  0  0
 12 17  1  0  0  0  0
 14 27  1  0  0  0  0
 15 22  1  6  0  0  0
 15  7  1  0  0  0  0
 15  9  1  0  0  0  0
 16  3  1  6  0  0  0
 16  4  1  0  0  0  0
 17 11  2  0  0  0  0
 18 19  1  0  0  0  0
 20 18  1  0  0  0  0
 21 26  1  1  0  0  0
 21 19  1  0  0  0  0
 22 20  2  0  0  0  0
 23 24  1  6  0  0  0
 23 21  1  0  0  0  0
 25 23  1  0  0  0  0
 25 20  1  0  0  0  0
 27 30  1  0  0  0  0
 28 29  1  0  0  0  0
 28 34  1  0  0  0  0
 30 33  2  0  0  0  0
 30 32  1  0  0  0  0
 31 29  2  0  0  0  0
 32 28  2  0  0  0  0
 33 31  1  0  0  0  0
M  END
>  <MODEL>
5

>  <REMARK>
 VINA RESULT:      -6.5      8.245     11.329
  Name = 
  3 active torsions:
  status: ('A' for Active; 'I' for Inactive)
    1  A    between atoms: C_12  and  C_28
    2  A    between atoms: C_17  and  C_29
    3  A    between atoms: N_26  and  C_28
                            x       y       z     vdW  Elec       q    Type
                         _______ _______ _______ _____ _____    ______ ____

>  <TORSDO>
F 3

$$$$
=
 OpenBabel10262419093D

 34 40  0  0  1  0  0  0  0  0999 V2000
  189.9050  177.9500  145.8390 C   0  0  0  0  0  0  0  0  0  0  0  0
  187.5140  177.4160  146.3430 C   0  0  0  0  0  0  0  0  0  0  0  0
  188.3190  177.3950  144.0570 N   0  0  0  0  0  0  0  0  0  0  0  0
  187.2230  177.5710  142.0730 C   0  0  1  0  0  3  0  0  0  0  0  0
  189.0560  178.2150  148.0870 C   0  0  0  0  0  3  0  0  0  0  0  0
  187.7060  177.8630  147.5910 C   0  0  0  0  0  3  0  0  0  0  0  0
  185.9740  177.4210  144.0960 C   0  0  1  0  0  3  0  0  0  0  0  0
  188.6840  177.1280  145.4430 C   0  0  1  0  0  3  0  0  0  0  0  0
  186.1670  179.0750  142.0740 S   0  0  0  0  0  0  0  0  0  0  0  0
  190.1030  178.2610  147.2600 C   0  0  0  0  0  3  0  0  0  0  0  0
  189.2180  177.9240  143.1240 C   0  0  0  0  0  0  0  0  0  0  0  0
  190.7170  178.4980  144.9200 C   0  0  0  0  0  3  0  0  0  0  0  0
  185.8730  176.8860  145.8520 S   0  0  0  0  0  0  0  0  0  0  0  0
  188.6180  177.9680  141.8550 N   0  0  0  0  0  0  0  0  0  0  0  0
  185.8340  178.8990  143.8460 C   0  0  1  0  0  3  0  0  0  0  0  0
  187.1620  176.9190  143.4100 N   0  0  2  0  0  0  0  0  0  0  0  0
  190.3870  178.4530  143.4810 C   0  0  0  0  0  3  0  0  0  0  0  0
  183.4590  177.8780  142.4020 C   0  0  0  0  0  2  0  0  0  0  0  0
  182.6160  178.3140  141.2060 C   0  0  0  0  0  2  0  0  0  0  0  0
  183.3630  178.9070  143.4950 C   0  0  0  0  0  0  0  0  0  0  0  0
  181.1860  178.6360  141.6390 C   0  0  1  0  0  3  0  0  0  0  0  0
  184.4400  179.3530  144.1530 C   0  0  0  0  0  3  0  0  0  0  0  0
  181.1910  179.7700  142.6670 C   0  0  1  0  0  3  0  0  0  0  0  0
  179.8950  180.0670  143.0470 F   0  0  0  0  0  0  0  0  0  0  0  0
  182.0030  179.3830  143.9020 C   0  0  0  0  0  2  0  0  0  0  0  0
  180.4500  179.0130  140.5320 F   0  0  0  0  0  0  0  0  0  0  0  0
  189.1400  178.6280  140.6660 C   0  0  0  0  0  2  0  0  0  0  0  0
  188.9420  176.4290  137.5920 C   0  0  0  0  0  0  0  0  0  0  0  0
  190.1650  175.7540  137.6560 C   0  0  0  0  0  3  0  0  0  0  0  0
  189.4880  177.6150  139.6320 C   0  0  0  0  0  0  0  0  0  0  0  0
  191.0510  176.0130  138.7060 C   0  0  0  0  0  3  0  0  0  0  0  0
  188.6040  177.3600  138.5770 C   0  0  0  0  0  3  0  0  0  0  0  0
  190.7140  176.9450  139.6910 C   0  0  0  0  0  3  0  0  0  0  0  0
  187.8340  176.1110  136.2740 Cl  0  0  0  0  0  0  0  0  0  0  0  0
  1 10  1  0  0  0  0
  2  6  2  0  0  0  0
  3  8  1  0  0  0  0
  4  9  1  1  0  0  0
  4 16  1  0  0  0  0
  6  5  1  0  0  0  0
  7 13  1  1  0  0  0
  8  1  1  1  0  0  0
  8  2  1  0  0  0  0
  9 15  1  0  0  0  0
 10  5  2  0  0  0  0
 11 17  2  0  0  0  0
 11  3  1  0  0  0  0
 12  1  2  0  0  0  0
 13  2  1  0  0  0  0
 14  4  1  0  0  0  0
 14 11  1  0  0  0  0
 15  7  1  0  0  0  0
 15 22  1  6  0  0  0
 16  3  1  1  0  0  0
 16  7  1  0  0  0  0
 17 12  1  0  0  0  0
 18 20  1  0  0  0  0
 19 21  1  0  0  0  0
 19 18  1  0  0  0  0
 20 25  1  0  0  0  0
 20 22  2  0  0  0  0
 21 26  1  6  0  0  0
 21 23  1  0  0  0  0
 23 24  1  1  0  0  0
 23 25  1  0  0  0  0
 27 14  1  0  0  0  0
 28 29  2  0  0  0  0
 28 32  1  0  0  0  0
 29 31  1  0  0  0  0
 30 33  1  0  0  0  0
 30 27  1  0  0  0  0
 31 33  2  0  0  0  0
 32 30  2  0  0  0  0
 34 28  1  0  0  0  0
M  END
>  <MODEL>
6

>  <REMARK>
 VINA RESULT:      -6.4      3.869      6.810
  Name = 
  3 active torsions:
  status: ('A' for Active; 'I' for Inactive)
    1  A    between atoms: C_12  and  C_28
    2  A    between atoms: C_17  and  C_29
    3  A    between atoms: N_26  and  C_28
                            x       y       z     vdW  Elec       q    Type
                         _______ _______ _______ _____ _____    ______ ____

>  <TORSDO>
F 3

$$$$
=
 OpenBabel10262419093D

 34 40  0  0  1  0  0  0  0  0999 V2000
  184.1800  178.0430  140.0350 C   0  0  0  0  0  0  0  0  0  0  0  0
  186.1030  178.9260  141.3670 C   0  0  0  0  0  0  0  0  0  0  0  0
  186.4100  178.2830  139.0510 N   0  0  0  0  0  0  0  0  0  0  0  0
  188.2740  177.7180  137.8790 C   0  0  1  0  0  3  0  0  0  0  0  0
  183.9240  178.4480  142.4050 C   0  0  0  0  0  3  0  0  0  0  0  0
  185.3610  178.7960  142.4740 C   0  0  0  0  0  3  0  0  0  0  0  0
  188.4870  178.5040  140.1180 C   0  0  1  0  0  3  0  0  0  0  0  0
  185.4690  178.8560  140.0060 C   0  0  1  0  0  3  0  0  0  0  0  0
  189.1790  176.3780  138.7520 S   0  0  0  0  0  0  0  0  0  0  0  0
  183.3570  178.0870  141.2510 C   0  0  0  0  0  3  0  0  0  0  0  0
  186.0120  177.4460  138.0020 C   0  0  0  0  0  0  0  0  0  0  0  0
  183.8520  177.2010  139.0420 C   0  0  0  0  0  3  0  0  0  0  0  0
  187.8030  179.4760  141.5200 S   0  0  0  0  0  0  0  0  0  0  0  0
  187.1160  177.1390  137.1900 N   0  0  0  0  0  0  0  0  0  0  0  0
  188.6870  177.0330  140.3680 C   0  0  1  0  0  3  0  0  0  0  0  0
  187.7460  178.6920  138.8730 N   0  0  2  0  0  0  0  0  0  0  0  0
  184.7940  176.9100  137.9410 C   0  0  0  0  0  3  0  0  0  0  0  0
  188.1660  176.4060  143.2150 C   0  0  0  0  0  2  0  0  0  0  0  0
  188.0520  177.1910  144.5200 C   0  0  0  0  0  2  0  0  0  0  0  0
  189.5560  176.5460  142.6560 C   0  0  0  0  0  0  0  0  0  0  0  0
  189.1610  176.7890  145.4930 C   0  0  1  0  0  3  0  0  0  0  0  0
  189.7830  176.8150  141.3650 C   0  0  0  0  0  3  0  0  0  0  0  0
  190.5310  177.0760  144.8740 C   0  0  1  0  0  3  0  0  0  0  0  0
  191.5310  176.7230  145.7610 F   0  0  0  0  0  0  0  0  0  0  0  0
  190.7150  176.2970  143.5710 C   0  0  0  0  0  2  0  0  0  0  0  0
  189.0190  177.5070  146.6640 F   0  0  0  0  0  0  0  0  0  0  0  0
  187.1660  176.1500  136.1230 C   0  0  0  0  0  2  0  0  0  0  0  0
  190.5100  174.4990  135.4770 C   0  0  0  0  0  0  0  0  0  0  0  0
  191.2000  175.5220  134.8200 C   0  0  0  0  0  3  0  0  0  0  0  0
  188.5740  175.9390  135.6880 C   0  0  0  0  0  0  0  0  0  0  0  0
  190.5760  176.7530  134.5940 C   0  0  0  0  0  3  0  0  0  0  0  0
  189.1970  174.7060  135.9090 C   0  0  0  0  0  3  0  0  0  0  0  0
  189.2630  176.9600  135.0250 C   0  0  0  0  0  3  0  0  0  0  0  0
  191.2870  172.9560  135.7550 Cl  0  0  0  0  0  0  0  0  0  0  0  0
  1 10  1  0  0  0  0
  2 13  1  0  0  0  0
  2  6  2  0  0  0  0
  3  8  1  0  0  0  0
  4  9  1  1  0  0  0
  4 16  1  0  0  0  0
  5  6  1  0  0  0  0
  7 15  1  0  0  0  0
  7 13  1  1  0  0  0
  8  1  1  1  0  0  0
  8  2  1  0  0  0  0
  9 15  1  0  0  0  0
 10  5  2  0  0  0  0
 11  3  1  0  0  0  0
 12  1  2  0  0  0  0
 14  4  1  0  0  0  0
 14 11  1  0  0  0  0
 15 22  1  1  0  0  0
 16  3  1  1  0  0  0
 16  7  1  0  0  0  0
 17 11  2  0  0  0  0
 17 12  1  0  0  0  0
 18 19  1  0  0  0  0
 19 21  1  0  0  0  0
 20 18  1  0  0  0  0
 20 25  1  0  0  0  0
 21 26  1  1  0  0  0
 22 20  2  0  0  0  0
 23 21  1  0  0  0  0
 23 24  1  1  0  0  0
 25 23  1  0  0  0  0
 27 14  1  0  0  0  0
 28 34  1  0  0  0  0
 28 32  1  0  0  0  0
 29 28  2  0  0  0  0
 30 32  2  0  0  0  0
 30 27  1  0  0  0  0
 31 29  1  0  0  0  0
 31 33  2  0  0  0  0
 33 30  1  0  0  0  0
M  END
>  <MODEL>
7

>  <REMARK>
 VINA RESULT:      -6.3      5.507      8.703
  Name = 
  3 active torsions:
  status: ('A' for Active; 'I' for Inactive)
    1  A    between atoms: C_12  and  C_28
    2  A    between atoms: C_17  and  C_29
    3  A    between atoms: N_26  and  C_28
                            x       y       z     vdW  Elec       q    Type
                         _______ _______ _______ _____ _____    ______ ____

>  <TORSDO>
F 3

$$$$
=
 OpenBabel10262419093D

 34 40  0  0  1  0  0  0  0  0999 V2000
  186.3900  174.0080  136.9750 C   0  0  0  0  0  0  0  0  0  0  0  0
  184.0270  174.8110  137.1330 C   0  0  0  0  0  0  0  0  0  0  0  0
  185.8430  176.3940  136.8690 N   0  0  0  0  0  0  0  0  0  0  0  0
  185.9820  178.6160  137.3270 C   0  0  1  0  0  3  0  0  0  0  0  0
  184.6160  172.4480  137.4840 C   0  0  0  0  0  3  0  0  0  0  0  0
  183.6630  173.5810  137.5180 C   0  0  0  0  0  3  0  0  0  0  0  0
  183.8890  177.5000  137.5480 C   0  0  1  0  0  3  0  0  0  0  0  0
  185.3790  175.0560  136.5220 C   0  0  1  0  0  3  0  0  0  0  0  0
  185.4760  178.9280  139.0660 S   0  0  0  0  0  0  0  0  0  0  0  0
  185.9120  172.6440  137.2300 C   0  0  0  0  0  3  0  0  0  0  0  0
  187.1880  176.6900  137.1190 C   0  0  0  0  0  0  0  0  0  0  0  0
  187.6600  174.3320  137.2670 C   0  0  0  0  0  3  0  0  0  0  0  0
  182.7870  176.1060  137.0770 S   0  0  0  0  0  0  0  0  0  0  0  0
  187.3440  178.0710  137.3180 N   0  0  0  0  0  0  0  0  0  0  0  0
  184.2610  177.5860  139.0040 C   0  0  1  0  0  3  0  0  0  0  0  0
  185.0960  177.5790  136.7290 N   0  0  2  0  0  0  0  0  0  0  0  0
  188.1040  175.7410  137.3040 C   0  0  0  0  0  3  0  0  0  0  0  0
  184.4680  178.9040  141.6480 C   0  0  0  0  0  2  0  0  0  0  0  0
  184.5060  178.4590  143.1080 C   0  0  0  0  0  2  0  0  0  0  0  0
  183.1500  178.5220  141.0330 C   0  0  0  0  0  0  0  0  0  0  0  0
  183.2870  178.9840  143.8660 C   0  0  1  0  0  3  0  0  0  0  0  0
  183.0640  177.9390  139.8310 C   0  0  0  0  0  3  0  0  0  0  0  0
  182.0020  178.4480  143.2300 C   0  0  1  0  0  3  0  0  0  0  0  0
  180.9020  178.9150  143.9260 F   0  0  0  0  0  0  0  0  0  0  0  0
  181.8950  178.8810  141.7680 C   0  0  0  0  0  2  0  0  0  0  0  0
  183.3610  178.5760  145.1840 F   0  0  0  0  0  0  0  0  0  0  0  0
  188.5380  178.7540  137.7960 C   0  0  0  0  0  2  0  0  0  0  0  0
  188.8050  177.3530  141.3020 C   0  0  0  0  0  0  0  0  0  0  0  0
  190.0510  176.7190  141.2510 C   0  0  0  0  0  3  0  0  0  0  0  0
  189.0730  178.0640  139.0020 C   0  0  0  0  0  0  0  0  0  0  0  0
  190.8050  176.7540  140.0750 C   0  0  0  0  0  3  0  0  0  0  0  0
  188.3150  178.0240  140.1780 C   0  0  0  0  0  3  0  0  0  0  0  0
  190.3150  177.4240  138.9500 C   0  0  0  0  0  3  0  0  0  0  0  0
  187.8560  177.3050  142.7720 Cl  0  0  0  0  0  0  0  0  0  0  0  0
  1 10  1  0  0  0  0
  1 12  2  0  0  0  0
  2  6  2  0  0  0  0
  3 11  1  0  0  0  0
  4  9  1  1  0  0  0
  5  6  1  0  0  0  0
  7 13  1  1  0  0  0
  7 15  1  0  0  0  0
  8  3  1  0  0  0  0
  8  1  1  1  0  0  0
  8  2  1  0  0  0  0
 10  5  2  0  0  0  0
 11 17  2  0  0  0  0
 11 14  1  0  0  0  0
 12 17  1  0  0  0  0
 13  2  1  0  0  0  0
 14  4  1  0  0  0  0
 14 27  1  0  0  0  0
 15  9  1  0  0  0  0
 15 22  1  1  0  0  0
 16  3  1  1  0  0  0
 16  4  1  0  0  0  0
 16  7  1  0  0  0  0
 18 19  1  0  0  0  0
 19 21  1  0  0  0  0
 20 18  1  0  0  0  0
 20 25  1  0  0  0  0
 21 26  1  1  0  0  0
 22 20  2  0  0  0  0
 23 21  1  0  0  0  0
 23 24  1  1  0  0  0
 25 23  1  0  0  0  0
 27 30  1  0  0  0  0
 28 34  1  0  0  0  0
 29 28  1  0  0  0  0
 30 32  1  0  0  0  0
 31 29  2  0  0  0  0
 32 28  2  0  0  0  0
 33 30  2  0  0  0  0
 33 31  1  0  0  0  0
M  END
>  <MODEL>
8

>  <REMARK>
 VINA RESULT:      -6.3      4.205      6.540
  Name = 
  3 active torsions:
  status: ('A' for Active; 'I' for Inactive)
    1  A    between atoms: C_12  and  C_28
    2  A    between atoms: C_17  and  C_29
    3  A    between atoms: N_26  and  C_28
                            x       y       z     vdW  Elec       q    Type
                         _______ _______ _______ _____ _____    ______ ____

>  <TORSDO>
F 3

$$$$
=
 OpenBabel10262419093D

 34 40  0  0  1  0  0  0  0  0999 V2000
  185.6280  177.4520  138.0790 C   0  0  0  0  0  0  0  0  0  0  0  0
  185.2890  178.6280  140.2590 C   0  0  0  0  0  0  0  0  0  0  0  0
  187.5220  178.0590  139.5090 N   0  0  0  0  0  0  0  0  0  0  0  0
  189.4750  177.8140  140.6470 C   0  0  1  0  0  3  0  0  0  0  0  0
  183.3930  177.7940  138.9310 C   0  0  0  0  0  3  0  0  0  0  0  0
  183.9780  178.3720  140.1620 C   0  0  0  0  0  3  0  0  0  0  0  0
  187.5420  178.6100  141.7900 C   0  0  1  0  0  3  0  0  0  0  0  0
  186.1930  178.4640  139.0690 C   0  0  0  0  0  0  0  0  0  0  0  0
  189.2450  176.6340  142.0370 S   0  0  0  0  0  0  0  0  0  0  0  0
  184.1700  177.3520  137.9400 C   0  0  0  0  0  2  0  0  0  0  0  0
  188.3260  177.1750  138.7820 C   0  0  0  0  0  0  0  0  0  0  0  0
  186.4180  176.5730  137.4400 C   0  0  0  0  0  3  0  0  0  0  0  0
  185.9070  179.4480  141.7290 S   0  0  0  0  0  0  0  0  0  0  0  0
  189.5840  177.0580  139.3940 N   0  0  0  0  0  0  0  0  0  0  0  0
  187.5390  177.1900  142.2890 C   0  0  1  0  0  3  0  0  0  0  0  0
  188.2710  178.6820  140.5260 N   0  0  2  0  0  0  0  0  0  0  0  0
  187.8520  176.4470  137.7720 C   0  0  0  0  0  3  0  0  0  0  0  0
  189.4250  178.0410  144.4070 C   0  0  0  0  0  2  0  0  0  0  0  0
  190.4480  177.3660  145.3180 C   0  0  0  0  0  2  0  0  0  0  0  0
  188.0480  177.5170  144.7100 C   0  0  0  0  0  0  0  0  0  0  0  0
  190.0380  177.4970  146.7850 C   0  0  1  0  0  3  0  0  0  0  0  0
  187.1960  177.1480  143.7470 C   0  0  0  0  0  3  0  0  0  0  0  0
  188.6770  176.8340  147.0100 C   0  0  1  0  0  3  0  0  0  0  0  0
  188.3150  176.9440  148.3400 F   0  0  0  0  0  0  0  0  0  0  0  0
  187.6020  177.4850  146.1390 C   0  0  0  0  0  2  0  0  0  0  0  0
  190.9900  176.8880  147.5790 F   0  0  0  0  0  0  0  0  0  0  0  0
  190.6280  176.0970  139.0680 C   0  0  0  0  0  2  0  0  0  0  0  0
  190.1930  174.1560  135.8480 C   0  0  0  0  0  0  0  0  0  0  0  0
  190.4340  175.1490  134.8930 C   0  0  0  0  0  3  0  0  0  0  0  0
  190.5810  175.7640  137.6180 C   0  0  0  0  0  0  0  0  0  0  0  0
  190.7440  176.4500  135.3010 C   0  0  0  0  0  3  0  0  0  0  0  0
  190.2650  174.4630  137.2090 C   0  0  0  0  0  3  0  0  0  0  0  0
  190.8140  176.7580  136.6620 C   0  0  0  0  0  3  0  0  0  0  0  0
  189.7980  172.5290  135.3390 Cl  0  0  0  0  0  0  0  0  0  0  0  0
  1  8  1  0  0  0  0
  2 13  1  0  0  0  0
  4  9  1  1  0  0  0
  5  6  2  0  0  0  0
  6  2  1  0  0  0  0
  7 13  1  6  0  0  0
  7 15  1  0  0  0  0
  8  3  1  0  0  0  0
  8  2  2  0  0  0  0
  9 15  1  0  0  0  0
 10  1  1  0  0  0  0
 10  5  1  0  0  0  0
 11 14  1  0  0  0  0
 11  3  1  0  0  0  0
 12 17  1  0  0  0  0
 12  1  2  0  0  0  0
 14  4  1  0  0  0  0
 15 22  1  1  0  0  0
 16  3  1  6  0  0  0
 16  4  1  0  0  0  0
 16  7  1  0  0  0  0
 17 11  2  0  0  0  0
 18 20  1  0  0  0  0
 18 19  1  0  0  0  0
 19 21  1  0  0  0  0
 20 25  1  0  0  0  0
 21 23  1  0  0  0  0
 21 26  1  1  0  0  0
 22 20  2  0  0  0  0
 23 24  1  1  0  0  0
 25 23  1  0  0  0  0
 27 14  1  0  0  0  0
 28 32  1  0  0  0  0
 29 31  1  0  0  0  0
 29 28  2  0  0  0  0
 30 27  1  0  0  0  0
 31 33  2  0  0  0  0
 32 30  2  0  0  0  0
 33 30  1  0  0  0  0
 34 28  1  0  0  0  0
M  END
>  <MODEL>
9

>  <REMARK>
 VINA RESULT:      -6.3      5.746      9.067
  Name = 
  3 active torsions:
  status: ('A' for Active; 'I' for Inactive)
    1  A    between atoms: C_12  and  C_28
    2  A    between atoms: C_17  and  C_29
    3  A    between atoms: N_26  and  C_28
                            x       y       z     vdW  Elec       q    Type
                         _______ _______ _______ _____ _____    ______ ____

>  <TORSDO>
F 3

$$$$
