=
 OpenBabel10262421333D

 32 37  0  0  1  0  0  0  0  0999 V2000
  190.3670  176.2310  143.2600 C   0  0  0  0  0  0  0  0  0  0  0  0
  187.1430  177.2150  144.4230 O   0  0  0  0  0  0  0  0  0  0  0  0
  184.4320  178.7630  140.5180 C   0  0  0  0  0  0  0  0  0  0  0  0
  179.9800  178.8170  142.5790 C   0  0  0  0  0  3  0  0  0  0  0  0
  179.3900  178.8290  141.3140 C   0  0  0  0  0  3  0  0  0  0  0  0
  186.4320  178.6860  141.7990 C   0  0  0  0  0  0  0  0  0  0  0  0
  184.2970  178.4930  142.9110 C   0  0  0  0  0  3  0  0  0  0  0  0
  189.3040  176.3790  144.1810 N   0  0  0  0  0  0  0  0  0  0  0  0
  186.3660  178.4060  144.3080 C   0  0  0  0  0  2  0  0  0  0  0  0
  181.3690  178.7300  142.7020 C   0  0  0  0  0  3  0  0  0  0  0  0
  183.6540  178.6140  141.6740 C   0  0  0  0  0  0  0  0  0  0  0  0
  182.1790  178.6480  141.5590 C   0  0  0  0  0  0  0  0  0  0  0  0
  182.4060  178.4770  139.0320 C   0  0  1  0  0  3  0  0  0  0  0  0
  190.1190  176.9970  141.6750 S   0  0  0  0  0  0  0  0  0  0  0  0
  188.3810  177.2560  142.1750 C   0  0  2  0  0  3  0  0  0  0  0  0
  191.4070  175.5850  143.5470 O   0  0  0  0  0  0  0  0  0  0  0  0
  185.6900  178.5150  142.9790 C   0  0  0  0  0  0  0  0  0  0  0  0
  187.9240  178.6600  141.8260 C   0  0  0  0  0  2  0  0  0  0  0  0
  188.2830  176.9590  143.6510 C   0  0  0  0  0  0  0  0  0  0  0  0
  180.1850  178.7430  140.1690 C   0  0  0  0  0  3  0  0  0  0  0  0
  181.5780  178.6530  140.2800 C   0  0  0  0  0  0  0  0  0  0  0  0
  185.7890  178.8000  140.6060 N   0  0  0  0  0  0  0  0  0  0  0  0
  183.7940  178.8870  139.2440 N   0  0  0  0  0  2  0  0  0  0  0  0
  183.7290  174.9450  136.9340 C   0  0  2  0  0  3  0  0  0  0  0  0
  182.5980  175.0170  135.9080 C   0  0  0  0  0  2  0  0  0  0  0  0
  181.0560  176.4790  137.2650 C   0  0  0  0  0  2  0  0  0  0  0  0
  180.2270  174.9310  135.6580 O   0  0  0  0  0  1  0  0  0  0  0  0
  181.2380  175.1200  136.5980 C   0  0  1  0  0  3  0  0  0  0  0  0
  183.9120  176.2790  137.6500 C   0  0  0  0  0  2  0  0  0  0  0  0
  184.9050  174.6090  136.2930 F   0  0  0  0  0  0  0  0  0  0  0  0
  182.1420  175.8250  139.6770 O   0  0  0  0  0  0  0  0  0  0  0  0
  182.3690  176.7370  138.4920 P   0  0  1  0  0  0  0  0  0  0  0  0
  1 16  2  0  0  0  0
  1  8  1  0  0  0  0
  3 22  2  0  0  0  0
  3 11  1  0  0  0  0
  4 10  1  0  0  0  0
  5  4  2  0  0  0  0
  6 18  1  0  0  0  0
  6 17  2  0  0  0  0
  7 17  1  0  0  0  0
  9  2  1  0  0  0  0
 11  7  2  0  0  0  0
 12 11  1  0  0  0  0
 12 10  2  0  0  0  0
 13 23  1  1  0  0  0
 13 21  1  0  0  0  0
 14 15  1  0  0  0  0
 14  1  1  0  0  0  0
 15 18  1  1  0  0  0
 15 19  1  0  0  0  0
 17  9  1  0  0  0  0
 19  8  2  0  0  0  0
 19  2  1  0  0  0  0
 20 21  2  0  0  0  0
 20  5  1  0  0  0  0
 21 12  1  0  0  0  0
 22  6  1  0  0  0  0
 23  3  1  0  0  0  0
 24 30  1  6  0  0  0
 24 29  1  0  0  0  0
 25 28  1  0  0  0  0
 25 24  1  0  0  0  0
 26 32  1  0  0  0  0
 28 27  1  6  0  0  0
 28 26  1  0  0  0  0
 29 32  1  0  0  0  0
 32 13  1  0  0  0  0
 32 31  2  1  0  0  0
M  END
>  <MODEL>
1

>  <REMARK>
 VINA RESULT:      -8.3      0.000      0.000
  Name = 
  1 active torsions:
  status: ('A' for Active; 'I' for Inactive)
    1  A    between atoms: C_16  and  P_32
                            x       y       z     vdW  Elec       q    Type
                         _______ _______ _______ _____ _____    ______ ____

>  <TORSDO>
F 1

$$$$
=
 OpenBabel10262421333D

 32 37  0  0  1  0  0  0  0  0999 V2000
  190.1600  176.2190  142.9380 C   0  0  0  0  0  0  0  0  0  0  0  0
  186.7820  176.8250  143.9060 O   0  0  0  0  0  0  0  0  0  0  0  0
  184.4420  179.1860  140.1730 C   0  0  0  0  0  0  0  0  0  0  0  0
  179.7940  178.6480  141.6470 C   0  0  0  0  0  3  0  0  0  0  0  0
  179.3460  178.9440  140.3590 C   0  0  0  0  0  3  0  0  0  0  0  0
  186.2900  178.8570  141.6290 C   0  0  0  0  0  0  0  0  0  0  0  0
  184.0590  178.3560  142.4050 C   0  0  0  0  0  3  0  0  0  0  0  0
  188.9970  176.1210  143.7350 N   0  0  0  0  0  0  0  0  0  0  0  0
  185.9640  177.9910  143.9790 C   0  0  0  0  0  2  0  0  0  0  0  0
  181.1640  178.5670  141.9110 C   0  0  0  0  0  3  0  0  0  0  0  0
  183.5500  178.7500  141.1620 C   0  0  0  0  0  0  0  0  0  0  0  0
  182.0970  178.7760  140.8840 C   0  0  0  0  0  0  0  0  0  0  0  0
  182.6080  179.2110  138.4310 C   0  0  1  0  0  3  0  0  0  0  0  0
  190.0500  177.3320  141.5550 S   0  0  0  0  0  0  0  0  0  0  0  0
  188.2560  177.4240  141.8920 C   0  0  2  0  0  3  0  0  0  0  0  0
  191.1950  175.5480  143.1880 O   0  0  0  0  0  0  0  0  0  0  0  0
  185.4330  178.3950  142.6410 C   0  0  0  0  0  0  0  0  0  0  0  0
  187.7700  178.8600  141.8260 C   0  0  0  0  0  2  0  0  0  0  0  0
  188.0120  176.7850  143.2360 C   0  0  0  0  0  0  0  0  0  0  0  0
  180.2650  179.1500  139.3270 C   0  0  0  0  0  3  0  0  0  0  0  0
  181.6400  179.0680  139.5790 C   0  0  0  0  0  0  0  0  0  0  0  0
  185.7770  179.2330  140.4270 N   0  0  0  0  0  0  0  0  0  0  0  0
  183.9420  179.5930  138.8960 N   0  0  0  0  0  2  0  0  0  0  0  0
  182.0680  174.9960  137.6800 C   0  0  2  0  0  3  0  0  0  0  0  0
  183.5470  174.6730  137.8930 C   0  0  0  0  0  2  0  0  0  0  0  0
  184.4190  177.0110  137.5290 C   0  0  0  0  0  2  0  0  0  0  0  0
  185.7410  175.0890  137.0540 O   0  0  0  0  0  1  0  0  0  0  0  0
  184.4330  175.5700  137.0300 C   0  0  1  0  0  3  0  0  0  0  0  0
  181.7070  176.3520  138.2750 C   0  0  0  0  0  2  0  0  0  0  0  0
  181.2970  174.0190  138.2780 F   0  0  0  0  0  0  0  0  0  0  0  0
  182.2780  177.8570  136.0700 O   0  0  0  0  0  0  0  0  0  0  0  0
  182.7190  177.6480  137.5020 P   0  0  1  0  0  0  0  0  0  0  0  0
  1 16  2  0  0  0  0
  1  8  1  0  0  0  0
  2  9  1  0  0  0  0
  3 22  2  0  0  0  0
  3 11  1  0  0  0  0
  4 10  1  0  0  0  0
  5  4  2  0  0  0  0
  6 18  1  0  0  0  0
  6 17  2  0  0  0  0
  7 17  1  0  0  0  0
 11  7  2  0  0  0  0
 12 11  1  0  0  0  0
 12 10  2  0  0  0  0
 13 23  1  1  0  0  0
 13 21  1  0  0  0  0
 14 15  1  0  0  0  0
 14  1  1  0  0  0  0
 15 18  1  1  0  0  0
 15 19  1  0  0  0  0
 17  9  1  0  0  0  0
 19  8  2  0  0  0  0
 19  2  1  0  0  0  0
 20 21  2  0  0  0  0
 20  5  1  0  0  0  0
 21 12  1  0  0  0  0
 22  6  1  0  0  0  0
 23  3  1  0  0  0  0
 24 25  1  0  0  0  0
 24 29  1  0  0  0  0
 24 30  1  1  0  0  0
 28 27  1  1  0  0  0
 28 26  1  0  0  0  0
 28 25  1  0  0  0  0
 32 31  2  6  0  0  0
 32 26  1  0  0  0  0
 32 29  1  0  0  0  0
 32 13  1  0  0  0  0
M  END
>  <MODEL>
2

>  <REMARK>
 VINA RESULT:      -8.3      1.454      1.891
  Name = 
  1 active torsions:
  status: ('A' for Active; 'I' for Inactive)
    1  A    between atoms: C_16  and  P_32
                            x       y       z     vdW  Elec       q    Type
                         _______ _______ _______ _____ _____    ______ ____

>  <TORSDO>
F 1

$$$$
=
 OpenBabel10262421333D

 32 37  0  0  1  0  0  0  0  0999 V2000
  190.1860  176.2780  143.1980 C   0  0  0  0  0  0  0  0  0  0  0  0
  187.1200  177.1830  144.7780 O   0  0  0  0  0  0  0  0  0  0  0  0
  183.9390  178.8250  141.2880 C   0  0  0  0  0  0  0  0  0  0  0  0
  179.7720  178.7540  143.8760 C   0  0  0  0  0  3  0  0  0  0  0  0
  179.0320  178.8000  142.6940 C   0  0  0  0  0  3  0  0  0  0  0  0
  186.0810  178.7310  142.3130 C   0  0  0  0  0  0  0  0  0  0  0  0
  184.1000  178.4730  143.6690 C   0  0  0  0  0  3  0  0  0  0  0  0
  189.2420  176.3820  144.2460 N   0  0  0  0  0  0  0  0  0  0  0  0
  186.3250  178.3670  144.8000 C   0  0  0  0  0  2  0  0  0  0  0  0
  181.1670  178.6800  143.8260 C   0  0  0  0  0  3  0  0  0  0  0  0
  183.3090  178.6280  142.5250 C   0  0  0  0  0  0  0  0  0  0  0  0
  181.8320  178.6470  142.5910 C   0  0  0  0  0  0  0  0  0  0  0  0
  181.7500  178.5620  140.0510 C   0  0  1  0  0  3  0  0  0  0  0  0
  189.7400  177.0940  141.6820 S   0  0  0  0  0  0  0  0  0  0  0  0
  188.0740  177.3140  142.3990 C   0  0  2  0  0  3  0  0  0  0  0  0
  191.2590  175.6370  143.3330 O   0  0  0  0  0  0  0  0  0  0  0  0
  185.4910  178.5110  143.5670 C   0  0  0  0  0  0  0  0  0  0  0  0
  187.5660  178.7230  142.1570 C   0  0  0  0  0  2  0  0  0  0  0  0
  188.1600  176.9660  143.8640 C   0  0  0  0  0  0  0  0  0  0  0  0
  179.6820  178.7630  141.4580 C   0  0  0  0  0  3  0  0  0  0  0  0
  181.0780  178.6860  141.3960 C   0  0  0  0  0  0  0  0  0  0  0  0
  185.2970  178.8760  141.2120 N   0  0  0  0  0  0  0  0  0  0  0  0
  183.1500  178.9830  140.1060 N   0  0  0  0  0  2  0  0  0  0  0  0
  180.9680  175.3590  137.2660 C   0  0  2  0  0  3  0  0  0  0  0  0
  179.7150  174.8950  138.0080 C   0  0  0  0  0  2  0  0  0  0  0  0
  180.2580  175.9780  140.2200 C   0  0  0  0  0  2  0  0  0  0  0  0
  178.9310  174.0070  140.0790 O   0  0  0  0  0  1  0  0  0  0  0  0
  180.0100  174.6620  139.4900 C   0  0  1  0  0  3  0  0  0  0  0  0
  181.3560  176.7770  137.6700 C   0  0  0  0  0  2  0  0  0  0  0  0
  180.7330  175.3230  135.9060 F   0  0  0  0  0  0  0  0  0  0  0  0
  182.9450  176.1090  139.7860 O   0  0  0  0  0  0  0  0  0  0  0  0
  181.6620  176.8410  139.4590 P   0  0  1  0  0  0  0  0  0  0  0  0
  1 16  2  0  0  0  0
  1  8  1  0  0  0  0
  2  9  1  0  0  0  0
  3 11  1  0  0  0  0
  5  4  2  0  0  0  0
  6 17  2  0  0  0  0
 10  4  1  0  0  0  0
 11 12  1  0  0  0  0
 11  7  2  0  0  0  0
 12 10  2  0  0  0  0
 13 23  1  1  0  0  0
 13 21  1  0  0  0  0
 14 15  1  0  0  0  0
 14  1  1  0  0  0  0
 15 18  1  1  0  0  0
 15 19  1  0  0  0  0
 17  7  1  0  0  0  0
 17  9  1  0  0  0  0
 18  6  1  0  0  0  0
 19  8  2  0  0  0  0
 19  2  1  0  0  0  0
 20  5  1  0  0  0  0
 21 20  2  0  0  0  0
 21 12  1  0  0  0  0
 22  3  2  0  0  0  0
 22  6  1  0  0  0  0
 23  3  1  0  0  0  0
 24 30  1  6  0  0  0
 24 29  1  0  0  0  0
 24 25  1  0  0  0  0
 25 28  1  0  0  0  0
 28 27  1  1  0  0  0
 28 26  1  0  0  0  0
 29 32  1  0  0  0  0
 32 31  2  1  0  0  0
 32 13  1  0  0  0  0
 32 26  1  0  0  0  0
M  END
>  <MODEL>
3

>  <REMARK>
 VINA RESULT:      -8.3      1.519      1.825
  Name = 
  1 active torsions:
  status: ('A' for Active; 'I' for Inactive)
    1  A    between atoms: C_16  and  P_32
                            x       y       z     vdW  Elec       q    Type
                         _______ _______ _______ _____ _____    ______ ____

>  <TORSDO>
F 1

$$$$
=
 OpenBabel10262421333D

 32 37  0  0  1  0  0  0  0  0999 V2000
  180.9680  176.9320  139.3300 C   0  0  0  0  0  0  0  0  0  0  0  0
  183.8010  175.7610  137.5080 O   0  0  0  0  0  0  0  0  0  0  0  0
  187.8710  178.1470  139.1610 C   0  0  0  0  0  0  0  0  0  0  0  0
  191.3480  175.3230  137.1600 C   0  0  0  0  0  3  0  0  0  0  0  0
  192.2910  175.8490  138.0440 C   0  0  0  0  0  3  0  0  0  0  0  0
  185.6070  178.0890  138.4410 C   0  0  0  0  0  0  0  0  0  0  0  0
  187.1870  176.5040  137.5330 C   0  0  0  0  0  3  0  0  0  0  0  0
  181.6940  176.1050  138.4420 N   0  0  0  0  0  0  0  0  0  0  0  0
  184.8200  176.3970  136.7390 C   0  0  0  0  0  2  0  0  0  0  0  0
  190.0070  175.7050  137.2570 C   0  0  0  0  0  3  0  0  0  0  0  0
  188.1940  177.0740  138.3190 C   0  0  0  0  0  0  0  0  0  0  0  0
  189.5990  176.6160  138.2440 C   0  0  0  0  0  0  0  0  0  0  0  0
  190.1420  178.0530  140.2700 C   0  0  1  0  0  3  0  0  0  0  0  0
  181.8640  178.3190  139.9910 S   0  0  0  0  0  0  0  0  0  0  0  0
  183.3700  177.5650  139.2820 C   0  0  2  0  0  3  0  0  0  0  0  0
  179.7730  176.6870  139.6370 O   0  0  0  0  0  0  0  0  0  0  0  0
  185.8840  177.0000  137.5990 C   0  0  0  0  0  0  0  0  0  0  0  0
  184.2160  178.6110  138.5790 C   0  0  0  0  0  2  0  0  0  0  0  0
  182.9320  176.4520  138.3620 C   0  0  0  0  0  0  0  0  0  0  0  0
  191.8960  176.7530  139.0330 C   0  0  0  0  0  3  0  0  0  0  0  0
  190.5550  177.1420  139.1410 C   0  0  0  0  0  0  0  0  0  0  0  0
  186.5990  178.6280  139.2000 N   0  0  0  0  0  0  0  0  0  0  0  0
  188.8860  178.7430  139.9740 N   0  0  0  0  0  2  0  0  0  0  0  0
  188.2970  176.8140  143.9700 C   0  0  2  0  0  3  0  0  0  0  0  0
  189.3430  177.5150  144.8350 C   0  0  0  0  0  2  0  0  0  0  0  0
  191.1320  177.6820  143.0660 C   0  0  0  0  0  2  0  0  0  0  0  0
  191.6650  177.5560  145.3820 O   0  0  0  0  0  1  0  0  0  0  0  0
  190.7580  177.1040  144.4260 C   0  0  1  0  0  3  0  0  0  0  0  0
  188.3110  177.3490  142.5420 C   0  0  0  0  0  2  0  0  0  0  0  0
  187.0440  177.0130  144.5160 F   0  0  0  0  0  0  0  0  0  0  0  0
  190.1810  175.6280  141.5480 O   0  0  0  0  0  0  0  0  0  0  0  0
  189.9550  177.1000  141.8120 P   0  0  1  0  0  0  0  0  0  0  0  0
  1 16  2  0  0  0  0
  1 14  1  0  0  0  0
  2 19  1  0  0  0  0
  3 22  2  0  0  0  0
  3 23  1  0  0  0  0
  4 10  2  0  0  0  0
  4  5  1  0  0  0  0
  5 20  2  0  0  0  0
  6 18  1  0  0  0  0
  6 22  1  0  0  0  0
  7 17  1  0  0  0  0
  7 11  2  0  0  0  0
  8  1  1  0  0  0  0
  9  2  1  0  0  0  0
  9 17  1  0  0  0  0
 10 12  1  0  0  0  0
 11  3  1  0  0  0  0
 12 11  1  0  0  0  0
 12 21  2  0  0  0  0
 13 21  1  6  0  0  0
 13 32  1  0  0  0  0
 15 18  1  6  0  0  0
 15 14  1  0  0  0  0
 17  6  2  0  0  0  0
 19  8  2  0  0  0  0
 19 15  1  0  0  0  0
 20 21  1  0  0  0  0
 23 13  1  0  0  0  0
 24 30  1  1  0  0  0
 24 25  1  0  0  0  0
 26 28  1  0  0  0  0
 28 25  1  0  0  0  0
 28 27  1  1  0  0  0
 29 24  1  0  0  0  0
 32 31  2  6  0  0  0
 32 29  1  0  0  0  0
 32 26  1  0  0  0  0
M  END
>  <MODEL>
4

>  <REMARK>
 VINA RESULT:      -8.1      3.925      9.082
  Name = 
  1 active torsions:
  status: ('A' for Active; 'I' for Inactive)
    1  A    between atoms: C_16  and  P_32
                            x       y       z     vdW  Elec       q    Type
                         _______ _______ _______ _____ _____    ______ ____

>  <TORSDO>
F 1

$$$$
=
 OpenBabel10262421333D

 32 37  0  0  1  0  0  0  0  0999 V2000
  191.4820  175.3040  136.9320 C   0  0  0  0  0  0  0  0  0  0  0  0
  190.3010  176.0990  140.2010 O   0  0  0  0  0  0  0  0  0  0  0  0
  186.1020  178.7790  139.7830 C   0  0  0  0  0  0  0  0  0  0  0  0
  184.4850  178.4990  144.4060 C   0  0  0  0  0  3  0  0  0  0  0  0
  183.2090  178.8820  143.9880 C   0  0  0  0  0  3  0  0  0  0  0  0
  188.3400  178.2580  139.1780 C   0  0  0  0  0  0  0  0  0  0  0  0
  187.5990  177.8790  141.4450 C   0  0  0  0  0  3  0  0  0  0  0  0
  191.4230  175.2510  138.3440 N   0  0  0  0  0  0  0  0  0  0  0  0
  189.9640  177.3140  140.8670 C   0  0  0  0  0  2  0  0  0  0  0  0
  185.5020  178.3110  143.4670 C   0  0  0  0  0  3  0  0  0  0  0  0
  186.3320  178.3620  141.1010 C   0  0  0  0  0  0  0  0  0  0  0  0
  185.2490  178.5010  142.1000 C   0  0  0  0  0  0  0  0  0  0  0  0
  183.6200  179.0080  140.2140 C   0  0  1  0  0  3  0  0  0  0  0  0
  190.3930  176.4820  136.1630 S   0  0  0  0  0  0  0  0  0  0  0  0
  189.6070  176.6830  137.8000 C   0  0  2  0  0  3  0  0  0  0  0  0
  192.2450  174.5530  136.2710 O   0  0  0  0  0  0  0  0  0  0  0  0
  188.6070  177.8120  140.4830 C   0  0  0  0  0  0  0  0  0  0  0  0
  189.3760  178.1500  138.1090 C   0  0  0  0  0  2  0  0  0  0  0  0
  190.4900  176.0030  138.8160 C   0  0  0  0  0  0  0  0  0  0  0  0
  182.9440  179.0690  142.6300 C   0  0  0  0  0  3  0  0  0  0  0  0
  183.9550  178.8820  141.6790 C   0  0  0  0  0  0  0  0  0  0  0  0
  187.1010  178.7220  138.8620 N   0  0  0  0  0  0  0  0  0  0  0  0
  184.8130  179.2750  139.4100 N   0  0  0  0  0  2  0  0  0  0  0  0
  182.5410  175.9460  137.3700 C   0  0  2  0  0  3  0  0  0  0  0  0
  181.1010  176.4420  137.2410 C   0  0  0  0  0  2  0  0  0  0  0  0
  181.0380  177.7410  139.4010 C   0  0  0  0  0  2  0  0  0  0  0  0
  179.0750  176.7850  138.4520 O   0  0  0  0  0  1  0  0  0  0  0  0
  180.4440  176.5790  138.6140 C   0  0  1  0  0  3  0  0  0  0  0  0
  183.4430  177.0160  137.9750 C   0  0  0  0  0  2  0  0  0  0  0  0
  183.0200  175.6030  136.1210 F   0  0  0  0  0  0  0  0  0  0  0  0
  183.0560  176.3520  140.5940 O   0  0  0  0  0  0  0  0  0  0  0  0
  182.8220  177.4830  139.6170 P   0  0  1  0  0  0  0  0  0  0  0  0
  1  8  1  0  0  0  0
  2  9  1  0  0  0  0
  3 11  1  0  0  0  0
  5  4  1  0  0  0  0
  6 17  2  0  0  0  0
  8 19  2  0  0  0  0
 10  4  2  0  0  0  0
 11  7  2  0  0  0  0
 11 12  1  0  0  0  0
 12 10  1  0  0  0  0
 13 23  1  6  0  0  0
 13 21  1  0  0  0  0
 14  1  1  0  0  0  0
 14 15  1  0  0  0  0
 15 18  1  1  0  0  0
 15 19  1  0  0  0  0
 16  1  2  0  0  0  0
 17  9  1  0  0  0  0
 17  7  1  0  0  0  0
 18  6  1  0  0  0  0
 19  2  1  0  0  0  0
 20  5  2  0  0  0  0
 21 12  2  0  0  0  0
 21 20  1  0  0  0  0
 22  6  1  0  0  0  0
 22  3  2  0  0  0  0
 23  3  1  0  0  0  0
 24 30  1  6  0  0  0
 24 29  1  0  0  0  0
 25 24  1  0  0  0  0
 25 28  1  0  0  0  0
 26 32  1  0  0  0  0
 28 27  1  6  0  0  0
 28 26  1  0  0  0  0
 29 32  1  0  0  0  0
 32 13  1  0  0  0  0
 32 31  2  1  0  0  0
M  END
>  <MODEL>
5

>  <REMARK>
 VINA RESULT:      -7.8      3.035      3.898
  Name = 
  1 active torsions:
  status: ('A' for Active; 'I' for Inactive)
    1  A    between atoms: C_16  and  P_32
                            x       y       z     vdW  Elec       q    Type
                         _______ _______ _______ _____ _____    ______ ____

>  <TORSDO>
F 1

$$$$
=
 OpenBabel10262421333D

 32 37  0  0  1  0  0  0  0  0999 V2000
  182.7630  174.0280  136.7130 C   0  0  0  0  0  0  0  0  0  0  0  0
  186.2720  173.9050  136.0910 O   0  0  0  0  0  0  0  0  0  0  0  0
  188.5060  177.4750  138.7850 C   0  0  0  0  0  0  0  0  0  0  0  0
  193.1710  176.0100  138.3800 C   0  0  0  0  0  3  0  0  0  0  0  0
  193.5200  176.8030  139.4750 C   0  0  0  0  0  3  0  0  0  0  0  0
  186.7890  176.6810  137.3470 C   0  0  0  0  0  0  0  0  0  0  0  0
  189.0040  175.7320  137.1940 C   0  0  0  0  0  3  0  0  0  0  0  0
  183.9790  173.5090  136.2140 N   0  0  0  0  0  0  0  0  0  0  0  0
  187.2380  174.8600  135.6560 C   0  0  0  0  0  2  0  0  0  0  0  0
  191.8360  175.9230  137.9760 C   0  0  0  0  0  3  0  0  0  0  0  0
  189.4300  176.5880  138.2150 C   0  0  0  0  0  0  0  0  0  0  0  0
  190.8380  176.6260  138.6680 C   0  0  0  0  0  0  0  0  0  0  0  0
  190.1400  178.1190  140.6040 C   0  0  1  0  0  3  0  0  0  0  0  0
  182.8750  175.6200  137.4990 S   0  0  0  0  0  0  0  0  0  0  0  0
  184.6900  175.4250  137.4240 C   0  0  2  0  0  3  0  0  0  0  0  0
  181.6810  173.3930  136.6180 O   0  0  0  0  0  0  0  0  0  0  0  0
  187.6770  175.7640  136.7630 C   0  0  0  0  0  0  0  0  0  0  0  0
  185.3500  176.7070  136.9500 C   0  0  0  0  0  2  0  0  0  0  0  0
  184.9850  174.2490  136.5260 C   0  0  0  0  0  0  0  0  0  0  0  0
  192.5340  177.5030  140.1750 C   0  0  0  0  0  3  0  0  0  0  0  0
  191.1930  177.4210  139.7800 C   0  0  0  0  0  0  0  0  0  0  0  0
  187.2210  177.5040  138.3400 N   0  0  0  0  0  0  0  0  0  0  0  0
  188.9210  178.3570  139.8310 N   0  0  0  0  0  2  0  0  0  0  0  0
  187.7870  176.7990  143.9720 C   0  0  2  0  0  3  0  0  0  0  0  0
  188.7060  177.4660  144.9950 C   0  0  0  0  0  2  0  0  0  0  0  0
  190.7260  177.6620  143.4990 C   0  0  0  0  0  2  0  0  0  0  0  0
  190.9280  177.4690  145.8630 O   0  0  0  0  0  1  0  0  0  0  0  0
  190.1610  177.0520  144.7770 C   0  0  1  0  0  3  0  0  0  0  0  0
  188.0040  177.3720  142.5760 C   0  0  0  0  0  2  0  0  0  0  0  0
  186.4710  176.9960  144.3430 F   0  0  0  0  0  0  0  0  0  0  0  0
  189.9840  175.6600  141.8060 O   0  0  0  0  0  0  0  0  0  0  0  0
  189.7330  177.1270  142.0770 P   0  0  1  0  0  0  0  0  0  0  0  0
  1 14  1  0  0  0  0
  2 19  1  0  0  0  0
  3 23  1  0  0  0  0
  4  5  1  0  0  0  0
  5 20  2  0  0  0  0
  6 22  1  0  0  0  0
  7 11  2  0  0  0  0
  8 19  2  0  0  0  0
  8  1  1  0  0  0  0
  9  2  1  0  0  0  0
  9 17  1  0  0  0  0
 10  4  2  0  0  0  0
 10 12  1  0  0  0  0
 11 12  1  0  0  0  0
 11  3  1  0  0  0  0
 12 21  2  0  0  0  0
 13 21  1  6  0  0  0
 13 32  1  0  0  0  0
 15 18  1  6  0  0  0
 15 14  1  0  0  0  0
 16  1  2  0  0  0  0
 17  7  1  0  0  0  0
 17  6  2  0  0  0  0
 18  6  1  0  0  0  0
 19 15  1  0  0  0  0
 21 20  1  0  0  0  0
 22  3  2  0  0  0  0
 23 13  1  0  0  0  0
 24 30  1  1  0  0  0
 24 25  1  0  0  0  0
 26 28  1  0  0  0  0
 28 25  1  0  0  0  0
 28 27  1  1  0  0  0
 29 24  1  0  0  0  0
 32 31  2  6  0  0  0
 32 29  1  0  0  0  0
 32 26  1  0  0  0  0
M  END
>  <MODEL>
6

>  <REMARK>
 VINA RESULT:      -7.7      4.581      9.482
  Name = 
  1 active torsions:
  status: ('A' for Active; 'I' for Inactive)
    1  A    between atoms: C_16  and  P_32
                            x       y       z     vdW  Elec       q    Type
                         _______ _______ _______ _____ _____    ______ ____

>  <TORSDO>
F 1

$$$$
=
 OpenBabel10262421333D

 32 37  0  0  1  0  0  0  0  0999 V2000
  190.4950  175.7090  136.0290 C   0  0  0  0  0  0  0  0  0  0  0  0
  190.3070  175.5610  139.5870 O   0  0  0  0  0  0  0  0  0  0  0  0
  187.0650  179.0220  141.1680 C   0  0  0  0  0  0  0  0  0  0  0  0
  186.4460  177.5150  145.7950 C   0  0  0  0  0  3  0  0  0  0  0  0
  185.2760  178.2700  145.8900 C   0  0  0  0  0  3  0  0  0  0  0  0
  188.8800  178.2930  139.8190 C   0  0  0  0  0  0  0  0  0  0  0  0
  188.5560  177.3210  142.0060 C   0  0  0  0  0  3  0  0  0  0  0  0
  190.7220  175.1890  137.3250 N   0  0  0  0  0  0  0  0  0  0  0  0
  190.4810  176.5160  140.6320 C   0  0  0  0  0  2  0  0  0  0  0  0
  187.1450  177.4550  144.5870 C   0  0  0  0  0  3  0  0  0  0  0  0
  187.4390  178.1420  142.1930 C   0  0  0  0  0  0  0  0  0  0  0  0
  186.6760  178.1490  143.4610 C   0  0  0  0  0  0  0  0  0  0  0  0
  184.9030  179.5930  142.3490 C   0  0  1  0  0  3  0  0  0  0  0  0
  189.6550  177.2750  135.9680 S   0  0  0  0  0  0  0  0  0  0  0  0
  189.3220  177.0600  137.7520 C   0  0  2  0  0  3  0  0  0  0  0  0
  190.8540  175.0900  134.9950 O   0  0  0  0  0  0  0  0  0  0  0  0
  189.2760  177.3830  140.8130 C   0  0  0  0  0  0  0  0  0  0  0  0
  189.5930  178.3480  138.5090 C   0  0  0  0  0  2  0  0  0  0  0  0
  190.1660  175.9080  138.2370 C   0  0  0  0  0  0  0  0  0  0  0  0
  184.7970  178.9610  144.7750 C   0  0  0  0  0  3  0  0  0  0  0  0
  185.4880  178.9070  143.5580 C   0  0  0  0  0  0  0  0  0  0  0  0
  187.7900  179.0800  140.0180 N   0  0  0  0  0  0  0  0  0  0  0  0
  185.9260  179.8690  141.3390 N   0  0  0  0  0  2  0  0  0  0  0  0
  182.0370  178.3490  139.3720 C   0  0  2  0  0  3  0  0  0  0  0  0
  180.8390  178.8320  140.1890 C   0  0  0  0  0  2  0  0  0  0  0  0
  182.0010  178.8800  142.4260 C   0  0  0  0  0  2  0  0  0  0  0  0
  179.6580  178.5090  142.2360 O   0  0  0  0  0  1  0  0  0  0  0  0
  180.8750  178.2600  141.6050 C   0  0  1  0  0  3  0  0  0  0  0  0
  183.3340  178.9820  139.8640 C   0  0  0  0  0  2  0  0  0  0  0  0
  181.8480  178.6780  138.0440 F   0  0  0  0  0  0  0  0  0  0  0  0
  183.9450  177.0970  141.7410 O   0  0  0  0  0  0  0  0  0  0  0  0
  183.5930  178.5630  141.6120 P   0  0  1  0  0  0  0  0  0  0  0  0
  1  8  1  0  0  0  0
  2  9  1  0  0  0  0
  3 23  1  0  0  0  0
  3 11  1  0  0  0  0
  4  5  1  0  0  0  0
  6 22  1  0  0  0  0
  6 17  2  0  0  0  0
  7 11  2  0  0  0  0
  8 19  2  0  0  0  0
  9 17  1  0  0  0  0
 10  4  2  0  0  0  0
 11 12  1  0  0  0  0
 12 21  2  0  0  0  0
 12 10  1  0  0  0  0
 13 23  1  6  0  0  0
 13 21  1  0  0  0  0
 14  1  1  0  0  0  0
 14 15  1  0  0  0  0
 15 19  1  0  0  0  0
 15 18  1  1  0  0  0
 16  1  2  0  0  0  0
 17  7  1  0  0  0  0
 18  6  1  0  0  0  0
 19  2  1  0  0  0  0
 20  5  2  0  0  0  0
 21 20  1  0  0  0  0
 22  3  2  0  0  0  0
 24 30  1  6  0  0  0
 24 29  1  0  0  0  0
 24 25  1  0  0  0  0
 25 28  1  0  0  0  0
 28 27  1  1  0  0  0
 28 26  1  0  0  0  0
 29 32  1  0  0  0  0
 32 31  2  1  0  0  0
 32 13  1  0  0  0  0
 32 26  1  0  0  0  0
M  END
>  <MODEL>
7

>  <REMARK>
 VINA RESULT:      -7.5      3.470      5.419
  Name = 
  1 active torsions:
  status: ('A' for Active; 'I' for Inactive)
    1  A    between atoms: C_16  and  P_32
                            x       y       z     vdW  Elec       q    Type
                         _______ _______ _______ _____ _____    ______ ____

>  <TORSDO>
F 1

$$$$
=
 OpenBabel10262421333D

 32 37  0  0  1  0  0  0  0  0999 V2000
  187.3520  176.4690  135.6240 C   0  0  0  0  0  0  0  0  0  0  0  0
  189.7220  175.2820  138.0080 O   0  0  0  0  0  0  0  0  0  0  0  0
  189.5890  178.2580  142.0220 C   0  0  0  0  0  0  0  0  0  0  0  0
  192.0960  175.4750  145.1910 C   0  0  0  0  0  3  0  0  0  0  0  0
  191.5850  176.2190  146.2560 C   0  0  0  0  0  3  0  0  0  0  0  0
  189.6370  177.8820  139.6770 C   0  0  0  0  0  0  0  0  0  0  0  0
  190.7360  176.3210  141.1560 C   0  0  0  0  0  3  0  0  0  0  0  0
  188.2910  175.5800  136.1940 N   0  0  0  0  0  0  0  0  0  0  0  0
  190.8200  175.8760  138.6990 C   0  0  0  0  0  2  0  0  0  0  0  0
  191.6800  175.7460  143.8850 C   0  0  0  0  0  3  0  0  0  0  0  0
  190.3420  177.0980  142.2510 C   0  0  0  0  0  0  0  0  0  0  0  0
  190.7450  176.7630  143.6340 C   0  0  0  0  0  0  0  0  0  0  0  0
  189.1530  178.5480  144.4960 C   0  0  1  0  0  3  0  0  0  0  0  0
  187.1500  178.0190  136.4730 S   0  0  0  0  0  0  0  0  0  0  0  0
  188.1470  177.3000  137.8260 C   0  0  2  0  0  3  0  0  0  0  0  0
  186.6950  176.1700  134.5940 O   0  0  0  0  0  0  0  0  0  0  0  0
  190.3750  176.7020  139.8630 C   0  0  0  0  0  0  0  0  0  0  0  0
  189.1860  178.2920  138.3140 C   0  0  0  0  0  2  0  0  0  0  0  0
  188.7570  176.0200  137.3110 C   0  0  0  0  0  0  0  0  0  0  0  0
  190.6510  177.2300  146.0190 C   0  0  0  0  0  3  0  0  0  0  0  0
  190.2250  177.5090  144.7150 C   0  0  0  0  0  0  0  0  0  0  0  0
  189.2610  178.6230  140.7540 N   0  0  0  0  0  0  0  0  0  0  0  0
  189.1760  179.0650  143.1280 N   0  0  0  0  0  2  0  0  0  0  0  0
  184.8960  177.9980  144.0560 C   0  0  2  0  0  3  0  0  0  0  0  0
  184.5720  178.7280  145.3590 C   0  0  0  0  0  2  0  0  0  0  0  0
  186.8550  178.4970  146.4060 C   0  0  0  0  0  2  0  0  0  0  0  0
  184.8790  178.6580  147.7240 O   0  0  0  0  0  1  0  0  0  0  0  0
  185.3750  178.1500  146.5250 C   0  0  1  0  0  3  0  0  0  0  0  0
  186.3060  178.3220  143.5750 C   0  0  0  0  0  2  0  0  0  0  0  0
  183.9880  178.3720  143.0850 F   0  0  0  0  0  0  0  0  0  0  0  0
  187.5960  176.3330  144.9260 O   0  0  0  0  0  0  0  0  0  0  0  0
  187.5110  177.8410  144.8460 P   0  0  1  0  0  0  0  0  0  0  0  0
  1  8  1  0  0  0  0
  1 14  1  0  0  0  0
  2  9  1  0  0  0  0
  3 11  1  0  0  0  0
  3 23  1  0  0  0  0
  4  5  1  0  0  0  0
  6 17  2  0  0  0  0
  6 22  1  0  0  0  0
  7 11  2  0  0  0  0
  8 19  2  0  0  0  0
  9 17  1  0  0  0  0
 10  4  2  0  0  0  0
 11 12  1  0  0  0  0
 12 10  1  0  0  0  0
 12 21  2  0  0  0  0
 13 23  1  6  0  0  0
 13 21  1  0  0  0  0
 13 32  1  0  0  0  0
 14 15  1  0  0  0  0
 15 18  1  6  0  0  0
 16  1  2  0  0  0  0
 17  7  1  0  0  0  0
 18  6  1  0  0  0  0
 19 15  1  0  0  0  0
 19  2  1  0  0  0  0
 20  5  2  0  0  0  0
 21 20  1  0  0  0  0
 22  3  2  0  0  0  0
 24 30  1  6  0  0  0
 24 25  1  0  0  0  0
 25 28  1  0  0  0  0
 26 28  1  0  0  0  0
 28 27  1  1  0  0  0
 29 24  1  0  0  0  0
 29 32  1  0  0  0  0
 32 31  2  1  0  0  0
 32 26  1  0  0  0  0
M  END
>  <MODEL>
8

>  <REMARK>
 VINA RESULT:      -7.4      4.662      8.616
  Name = 
  1 active torsions:
  status: ('A' for Active; 'I' for Inactive)
    1  A    between atoms: C_16  and  P_32
                            x       y       z     vdW  Elec       q    Type
                         _______ _______ _______ _____ _____    ______ ____

>  <TORSDO>
F 1

$$$$
=
 OpenBabel10262421333D

 32 37  0  0  1  0  0  0  0  0999 V2000
  188.9520  177.0300  145.9890 C   0  0  0  0  0  0  0  0  0  0  0  0
  186.7540  177.6850  143.2590 O   0  0  0  0  0  0  0  0  0  0  0  0
  189.4300  177.8120  139.0380 C   0  0  0  0  0  0  0  0  0  0  0  0
  185.7950  177.5690  135.7530 C   0  0  0  0  0  3  0  0  0  0  0  0
  186.7060  177.1900  134.7660 C   0  0  0  0  0  3  0  0  0  0  0  0
  189.0580  178.3740  141.3170 C   0  0  0  0  0  0  0  0  0  0  0  0
  187.1710  178.0750  139.8400 C   0  0  0  0  0  3  0  0  0  0  0  0
  187.7150  177.1990  145.3250 N   0  0  0  0  0  0  0  0  0  0  0  0
  186.7190  178.6670  142.2250 C   0  0  0  0  0  2  0  0  0  0  0  0
  186.2250  177.7510  137.0700 C   0  0  0  0  0  3  0  0  0  0  0  0
  188.0510  177.7990  138.7880 C   0  0  0  0  0  0  0  0  0  0  0  0
  187.5720  177.5520  137.4100 C   0  0  0  0  0  0  0  0  0  0  0  0
  189.9260  176.8510  136.7530 C   0  0  1  0  0  3  0  0  0  0  0  0
  190.3990  177.3610  145.0100 S   0  0  0  0  0  0  0  0  0  0  0  0
  189.2890  177.4240  143.5600 C   0  0  2  0  0  3  0  0  0  0  0  0
  189.0150  176.6550  147.1880 O   0  0  0  0  0  0  0  0  0  0  0  0
  187.6680  178.3520  141.1130 C   0  0  0  0  0  0  0  0  0  0  0  0
  189.6240  178.6120  142.6770 C   0  0  0  0  0  2  0  0  0  0  0  0
  187.8710  177.4590  144.0730 C   0  0  0  0  0  0  0  0  0  0  0  0
  188.0480  176.9840  135.0930 C   0  0  0  0  0  3  0  0  0  0  0  0
  188.4910  177.1620  136.4100 C   0  0  0  0  0  0  0  0  0  0  0  0
  189.8970  178.1010  140.2830 N   0  0  0  0  0  0  0  0  0  0  0  0
  190.3470  177.5310  137.9770 N   0  0  0  0  0  2  0  0  0  0  0  0
  191.0550  172.8420  135.6230 C   0  0  2  0  0  3  0  0  0  0  0  0
  189.6080  172.3800  135.4580 C   0  0  0  0  0  2  0  0  0  0  0  0
  188.5530  174.1980  136.8520 C   0  0  0  0  0  2  0  0  0  0  0  0
  187.5550  172.0490  136.6270 O   0  0  0  0  0  1  0  0  0  0  0  0
  188.7850  172.6980  136.7070 C   0  0  1  0  0  3  0  0  0  0  0  0
  191.1560  174.3630  135.6100 C   0  0  0  0  0  2  0  0  0  0  0  0
  191.8190  172.3270  134.5940 F   0  0  0  0  0  0  0  0  0  0  0  0
  190.8020  174.7550  138.2870 O   0  0  0  0  0  0  0  0  0  0  0  0
  190.1500  175.0540  136.9550 P   0  0  1  0  0  0  0  0  0  0  0  0
  1 16  2  0  0  0  0
  2 19  1  0  0  0  0
  3 22  2  0  0  0  0
  4 10  1  0  0  0  0
  5 20  1  0  0  0  0
  5  4  2  0  0  0  0
  6 18  1  0  0  0  0
  7 17  1  0  0  0  0
  8  1  1  0  0  0  0
  9  2  1  0  0  0  0
 10 12  2  0  0  0  0
 11  3  1  0  0  0  0
 11  7  2  0  0  0  0
 12 11  1  0  0  0  0
 13 21  1  1  0  0  0
 13 32  1  0  0  0  0
 13 23  1  0  0  0  0
 14  1  1  0  0  0  0
 15 18  1  1  0  0  0
 15 19  1  0  0  0  0
 15 14  1  0  0  0  0
 17  6  2  0  0  0  0
 17  9  1  0  0  0  0
 19  8  2  0  0  0  0
 20 21  2  0  0  0  0
 21 12  1  0  0  0  0
 22  6  1  0  0  0  0
 23  3  1  0  0  0  0
 24 30  1  6  0  0  0
 25 24  1  0  0  0  0
 25 28  1  0  0  0  0
 26 32  1  0  0  0  0
 28 27  1  6  0  0  0
 28 26  1  0  0  0  0
 29 24  1  0  0  0  0
 29 32  1  0  0  0  0
 32 31  2  1  0  0  0
M  END
>  <MODEL>
9

>  <REMARK>
 VINA RESULT:      -7.3      4.639      6.326
  Name = 
  1 active torsions:
  status: ('A' for Active; 'I' for Inactive)
    1  A    between atoms: C_16  and  P_32
                            x       y       z     vdW  Elec       q    Type
                         _______ _______ _______ _____ _____    ______ ____

>  <TORSDO>
F 1

$$$$
