=
 OpenBabel10262421433D

 30 33  0  0  1  0  0  0  0  0999 V2000
  186.2950  177.5660  144.3460 C   0  0  2  0  0  3  0  0  0  0  0  0
  187.9120  176.9670  147.5990 C   0  0  2  0  0  3  0  0  0  0  0  0
  189.8120  176.7950  144.8150 C   0  0  0  0  0  2  0  0  0  0  0  0
  186.0840  177.4140  145.8550 C   0  0  0  0  0  2  0  0  0  0  0  0
  189.9680  177.5110  146.1410 C   0  0  0  0  0  2  0  0  0  0  0  0
  188.9760  177.5680  148.3030 O   0  0  0  0  0  0  0  0  0  0  0  0
  187.5030  176.7890  143.8130 C   0  0  0  0  0  2  0  0  0  0  0  0
  188.8120  177.5590  143.9510 C   0  0  2  0  0  3  0  0  0  0  0  0
  189.3460  176.6910  147.2670 C   0  0  1  0  0  3  0  0  0  0  0  0
  187.2540  179.2620  146.9380 C   0  0  0  0  0  2  0  0  0  0  0  0
  187.2020  177.9500  146.6970 C   0  0  0  0  0  0  0  0  0  0  0  0
  186.2210  179.0220  143.8670 C   0  0  1  0  0  3  0  0  0  0  0  0
  185.5180  179.0810  142.6470 O   0  0  0  0  0  0  0  0  0  0  0  0
  184.8440  179.6030  143.7680 C   0  0  1  0  0  3  0  0  0  0  0  0
  183.1910  179.0800  145.4030 O   0  0  0  0  0  1  0  0  0  0  0  0
  183.7030  178.6680  144.1730 C   0  0  1  0  0  3  0  0  0  0  0  0
  182.5930  178.6940  143.1360 C   0  0  0  0  0  2  0  0  0  0  0  0
  180.3110  179.6490  143.0580 C   0  0  0  0  0  1  0  0  0  0  0  0
  181.2380  178.7230  143.8150 C   0  0  0  0  0  2  0  0  0  0  0  0
  189.3480  177.9330  142.6360 N   0  0  0  0  0  0  0  0  0  0  0  0
  190.6380  178.3110  142.8020 O   0  0  0  0  0  1  0  0  0  0  0  0
  189.3430  176.5410  141.5300 S   0  0  0  0  0  0  0  0  0  0  0  0
  190.5940  175.6060  138.5010 C   0  0  2  0  0  3  0  0  0  0  0  0
  191.6670  176.9500  139.1290 S   0  0  0  0  0  0  0  0  0  0  0  0
  191.3620  174.7840  137.4890 C   0  0  0  0  0  1  0  0  0  0  0  0
  189.0420  177.5400  140.0220 C   0  0  2  0  0  0  0  0  0  0  0  0
  190.3540  178.1690  139.5470 C   0  0  0  0  0  2  0  0  0  0  0  0
  189.3400  176.1610  137.8550 C   0  0  0  0  0  2  0  0  0  0  0  0
  188.0960  178.6720  140.3760 C   0  0  0  0  0  1  0  0  0  0  0  0
  188.3820  176.6980  138.9170 C   0  0  0  0  0  2  0  0  0  0  0  0
  1  7  1  1  0  0  0
  1  4  1  0  0  0  0
  2 11  1  6  0  0  0
  2  6  1  0  0  0  0
  3  5  1  0  0  0  0
  4 11  1  0  0  0  0
  7  8  1  0  0  0  0
  8 20  1  6  0  0  0
  8  3  1  0  0  0  0
  9  5  1  6  0  0  0
  9  2  1  0  0  0  0
  9  6  1  0  0  0  0
 11 10  2  0  0  0  0
 12 13  1  6  0  0  0
 12  1  1  0  0  0  0
 13 14  1  0  0  0  0
 14 12  1  0  0  0  0
 14 16  1  1  0  0  0
 16 15  1  1  0  0  0
 17 19  1  0  0  0  0
 17 16  1  0  0  0  0
 18 19  1  0  0  0  0
 20 21  1  0  0  0  0
 22 20  1  0  0  0  0
 23 25  1  6  0  0  0
 23 24  1  0  0  0  0
 24 27  1  0  0  0  0
 26 29  1  1  0  0  0
 26 22  1  0  0  0  0
 27 26  1  0  0  0  0
 28 23  1  0  0  0  0
 28 30  1  0  0  0  0
 30 26  1  0  0  0  0
M  END
>  <MODEL>
1

>  <REMARK>
 VINA RESULT:      -6.2      0.000      0.000
  Name = 
  7 active torsions:
  status: ('A' for Active; 'I' for Inactive)
    1  A    between atoms: C_1  and  C_4
    2  A    between atoms: S_3  and  N_11
    3  A    between atoms: S_3  and  C_19
    4  A    between atoms: C_8  and  C_9
    5  A    between atoms: C_8  and  C_12
    6  A    between atoms: C_9  and  C_21
    7  A    between atoms: N_11  and  C_25
                            x       y       z     vdW  Elec       q    Type
                         _______ _______ _______ _____ _____    ______ ____

>  <TORSDO>
F 7

$$$$
=
 OpenBabel10262421433D

 30 33  0  0  1  0  0  0  0  0999 V2000
  185.9720  177.6630  143.2240 C   0  0  2  0  0  3  0  0  0  0  0  0
  186.4320  177.5820  146.8750 C   0  0  2  0  0  3  0  0  0  0  0  0
  189.1340  177.0950  144.9130 C   0  0  0  0  0  2  0  0  0  0  0  0
  185.2780  177.7160  144.5880 C   0  0  0  0  0  2  0  0  0  0  0  0
  188.8570  177.9930  146.1010 C   0  0  0  0  0  2  0  0  0  0  0  0
  187.2150  178.3140  147.7930 O   0  0  0  0  0  0  0  0  0  0  0  0
  187.2780  176.8650  143.2280 C   0  0  0  0  0  2  0  0  0  0  0  0
  188.4800  177.6940  143.6720 C   0  0  2  0  0  3  0  0  0  0  0  0
  187.8940  177.3160  147.0690 C   0  0  1  0  0  3  0  0  0  0  0  0
  186.0510  179.7380  145.7150 C   0  0  0  0  0  2  0  0  0  0  0  0
  186.0660  178.4040  145.6610 C   0  0  0  0  0  0  0  0  0  0  0  0
  186.0730  179.0350  142.5430 C   0  0  1  0  0  3  0  0  0  0  0  0
  186.3580  178.8620  141.1740 O   0  0  0  0  0  0  0  0  0  0  0  0
  185.0570  179.3080  141.4770 C   0  0  1  0  0  3  0  0  0  0  0  0
  182.8520  178.4940  141.8700 O   0  0  0  0  0  1  0  0  0  0  0  0
  184.0490  178.1850  141.2250 C   0  0  1  0  0  3  0  0  0  0  0  0
  183.7860  178.0220  139.7370 C   0  0  0  0  0  2  0  0  0  0  0  0
  182.4010  179.7460  138.6250 C   0  0  0  0  0  1  0  0  0  0  0  0
  183.8060  179.3720  139.0480 C   0  0  0  0  0  2  0  0  0  0  0  0
  189.4190  177.9010  142.5620 N   0  0  0  0  0  0  0  0  0  0  0  0
  190.6560  178.0750  143.0880 O   0  0  0  0  0  1  0  0  0  0  0  0
  189.4870  176.4670  141.5120 S   0  0  0  0  0  0  0  0  0  0  0  0
  187.9320  177.3150  138.6010 C   0  0  2  0  0  3  0  0  0  0  0  0
  188.9110  175.8050  138.2620 S   0  0  0  0  0  0  0  0  0  0  0  0
  186.8200  177.4300  137.5810 C   0  0  0  0  0  1  0  0  0  0  0  0
  190.3910  177.3090  140.1570 C   0  0  2  0  0  0  0  0  0  0  0  0
  190.5190  176.3670  138.9570 C   0  0  0  0  0  2  0  0  0  0  0  0
  188.8000  178.5570  138.5450 C   0  0  0  0  0  2  0  0  0  0  0  0
  191.7930  177.6280  140.6390 C   0  0  0  0  0  1  0  0  0  0  0  0
  189.7090  178.6320  139.7700 C   0  0  0  0  0  2  0  0  0  0  0  0
  1  7  1  1  0  0  0
  1  4  1  0  0  0  0
  2 11  1  6  0  0  0
  2  9  1  0  0  0  0
  2  6  1  0  0  0  0
  3  5  1  0  0  0  0
  4 11  1  0  0  0  0
  7  8  1  0  0  0  0
  8 20  1  6  0  0  0
  8  3  1  0  0  0  0
  9  5  1  6  0  0  0
  9  6  1  0  0  0  0
 11 10  2  0  0  0  0
 12 13  1  6  0  0  0
 12  1  1  0  0  0  0
 13 14  1  0  0  0  0
 14 16  1  1  0  0  0
 14 12  1  0  0  0  0
 16 15  1  1  0  0  0
 17 16  1  0  0  0  0
 18 19  1  0  0  0  0
 19 17  1  0  0  0  0
 20 21  1  0  0  0  0
 22 20  1  0  0  0  0
 23 25  1  6  0  0  0
 24 23  1  0  0  0  0
 24 27  1  0  0  0  0
 26 29  1  1  0  0  0
 26 22  1  0  0  0  0
 27 26  1  0  0  0  0
 28 23  1  0  0  0  0
 28 30  1  0  0  0  0
 30 26  1  0  0  0  0
M  END
>  <MODEL>
2

>  <REMARK>
 VINA RESULT:      -5.9      1.973      2.591
  Name = 
  7 active torsions:
  status: ('A' for Active; 'I' for Inactive)
    1  A    between atoms: C_1  and  C_4
    2  A    between atoms: S_3  and  N_11
    3  A    between atoms: S_3  and  C_19
    4  A    between atoms: C_8  and  C_9
    5  A    between atoms: C_8  and  C_12
    6  A    between atoms: C_9  and  C_21
    7  A    between atoms: N_11  and  C_25
                            x       y       z     vdW  Elec       q    Type
                         _______ _______ _______ _____ _____    ______ ____

>  <TORSDO>
F 7

$$$$
=
 OpenBabel10262421433D

 30 33  0  0  1  0  0  0  0  0999 V2000
  187.8170  177.1890  142.7190 C   0  0  2  0  0  3  0  0  0  0  0  0
  190.3260  176.5690  145.3390 C   0  0  2  0  0  3  0  0  0  0  0  0
  191.3140  176.4240  142.1160 C   0  0  0  0  0  2  0  0  0  0  0  0
  188.0630  177.0260  144.2210 C   0  0  0  0  0  2  0  0  0  0  0  0
  191.8570  177.1290  143.3410 C   0  0  0  0  0  2  0  0  0  0  0  0
  191.5520  177.1680  145.7010 O   0  0  0  0  0  0  0  0  0  0  0  0
  188.8110  176.4200  141.8450 C   0  0  0  0  0  2  0  0  0  0  0  0
  190.1030  177.1920  141.5940 C   0  0  2  0  0  3  0  0  0  0  0  0
  191.5970  176.3000  144.5940 C   0  0  1  0  0  3  0  0  0  0  0  0
  189.5020  178.8680  144.9220 C   0  0  0  0  0  2  0  0  0  0  0  0
  189.3810  177.5580  144.6970 C   0  0  0  0  0  0  0  0  0  0  0  0
  187.6030  178.6480  142.2950 C   0  0  1  0  0  3  0  0  0  0  0  0
  186.9340  178.6870  141.0560 O   0  0  0  0  0  0  0  0  0  0  0  0
  186.1760  179.0880  142.1730 C   0  0  1  0  0  3  0  0  0  0  0  0
  184.5940  178.2830  143.7630 O   0  0  0  0  0  1  0  0  0  0  0  0
  185.1290  178.0220  142.5020 C   0  0  1  0  0  3  0  0  0  0  0  0
  184.0100  178.0330  141.4740 C   0  0  0  0  0  2  0  0  0  0  0  0
  181.5940  178.4550  141.1380 C   0  0  0  0  0  1  0  0  0  0  0  0
  182.7820  178.7200  142.0380 C   0  0  0  0  0  2  0  0  0  0  0  0
  190.2240  177.5770  140.1820 N   0  0  0  0  0  0  0  0  0  0  0  0
  191.5400  177.5890  139.8630 O   0  0  0  0  0  1  0  0  0  0  0  0
  189.4350  176.3800  139.1280 S   0  0  0  0  0  0  0  0  0  0  0  0
  187.6270  175.4470  136.3950 C   0  0  2  0  0  3  0  0  0  0  0  0
  189.3170  175.8380  135.8070 S   0  0  0  0  0  0  0  0  0  0  0  0
  186.9530  174.5260  135.4010 C   0  0  0  0  0  1  0  0  0  0  0  0
  188.7810  177.6210  137.9470 C   0  0  2  0  0  0  0  0  0  0  0  0
  189.5020  177.4870  136.6030 C   0  0  0  0  0  2  0  0  0  0  0  0
  186.7980  176.7050  136.5610 C   0  0  0  0  0  2  0  0  0  0  0  0
  189.0790  179.0050  138.4890 C   0  0  0  0  0  1  0  0  0  0  0  0
  187.2560  177.4910  137.7890 C   0  0  0  0  0  2  0  0  0  0  0  0
  1  7  1  6  0  0  0
  1  4  1  0  0  0  0
  2 11  1  6  0  0  0
  2  6  1  0  0  0  0
  3  5  1  0  0  0  0
  4 11  1  0  0  0  0
  8 20  1  6  0  0  0
  8  7  1  0  0  0  0
  8  3  1  0  0  0  0
  9  5  1  6  0  0  0
  9  2  1  0  0  0  0
  9  6  1  0  0  0  0
 11 10  2  0  0  0  0
 12 13  1  6  0  0  0
 12  1  1  0  0  0  0
 13 14  1  0  0  0  0
 14 12  1  0  0  0  0
 14 16  1  1  0  0  0
 16 15  1  1  0  0  0
 17 19  1  0  0  0  0
 17 16  1  0  0  0  0
 18 19  1  0  0  0  0
 21 20  1  0  0  0  0
 22 20  1  0  0  0  0
 23 25  1  6  0  0  0
 23 28  1  0  0  0  0
 24 23  1  0  0  0  0
 24 27  1  0  0  0  0
 26 29  1  1  0  0  0
 26 22  1  0  0  0  0
 27 26  1  0  0  0  0
 28 30  1  0  0  0  0
 30 26  1  0  0  0  0
M  END
>  <MODEL>
3

>  <REMARK>
 VINA RESULT:      -5.9      2.285      2.894
  Name = 
  7 active torsions:
  status: ('A' for Active; 'I' for Inactive)
    1  A    between atoms: C_1  and  C_4
    2  A    between atoms: S_3  and  N_11
    3  A    between atoms: S_3  and  C_19
    4  A    between atoms: C_8  and  C_9
    5  A    between atoms: C_8  and  C_12
    6  A    between atoms: C_9  and  C_21
    7  A    between atoms: N_11  and  C_25
                            x       y       z     vdW  Elec       q    Type
                         _______ _______ _______ _____ _____    ______ ____

>  <TORSDO>
F 7

$$$$
=
 OpenBabel10262421433D

 30 33  0  0  1  0  0  0  0  0999 V2000
  187.6510  178.6920  141.1830 C   0  0  2  0  0  3  0  0  0  0  0  0
  188.8750  177.9040  144.5640 C   0  0  2  0  0  3  0  0  0  0  0  0
  185.5710  178.4520  144.1490 C   0  0  0  0  0  2  0  0  0  0  0  0
  188.8830  178.4310  142.0530 C   0  0  0  0  0  2  0  0  0  0  0  0
  186.3690  177.3580  144.8280 C   0  0  0  0  0  2  0  0  0  0  0  0
  188.6010  176.8910  145.5070 O   0  0  0  0  0  0  0  0  0  0  0  0
  186.4690  179.2900  141.9510 C   0  0  0  0  0  2  0  0  0  0  0  0
  185.6110  178.2330  142.6390 C   0  0  2  0  0  3  0  0  0  0  0  0
  187.6510  177.9260  145.4270 C   0  0  1  0  0  3  0  0  0  0  0  0
  188.7370  176.1270  142.8430 C   0  0  0  0  0  2  0  0  0  0  0  0
  188.6740  177.4260  143.1450 C   0  0  0  0  0  0  0  0  0  0  0  0
  187.2810  177.5030  140.2850 C   0  0  1  0  0  3  0  0  0  0  0  0
  186.7850  177.9770  139.0550 O   0  0  0  0  0  0  0  0  0  0  0  0
  188.0610  177.3830  139.0120 C   0  0  1  0  0  3  0  0  0  0  0  0
  190.3880  177.8970  139.0000 O   0  0  0  0  0  1  0  0  0  0  0  0
  189.1280  178.4570  138.7900 C   0  0  1  0  0  3  0  0  0  0  0  0
  189.0550  179.0030  137.3740 C   0  0  0  0  0  2  0  0  0  0  0  0
  187.8960  177.8830  135.4950 C   0  0  0  0  0  1  0  0  0  0  0  0
  189.1330  177.8720  136.3680 C   0  0  0  0  0  2  0  0  0  0  0  0
  184.2780  178.1540  142.0280 N   0  0  0  0  0  0  0  0  0  0  0  0
  183.3660  178.5000  142.9670 O   0  0  0  0  0  1  0  0  0  0  0  0
  184.1240  179.3140  140.6880 S   0  0  0  0  0  0  0  0  0  0  0  0
  181.7260  180.7010  138.7050 C   0  0  2  0  0  3  0  0  0  0  0  0
  180.8890  180.1250  140.2290 S   0  0  0  0  0  0  0  0  0  0  0  0
  180.8900  181.7820  138.0540 C   0  0  0  0  0  1  0  0  0  0  0  0
  182.9730  178.2730  139.7120 C   0  0  2  0  0  0  0  0  0  0  0  0
  181.5530  178.4100  140.2680 C   0  0  0  0  0  2  0  0  0  0  0  0
  181.9300  179.5610  137.7270 C   0  0  0  0  0  2  0  0  0  0  0  0
  183.3860  176.8220  139.8680 C   0  0  0  0  0  1  0  0  0  0  0  0
  183.0350  178.6260  138.2160 C   0  0  0  0  0  2  0  0  0  0  0  0
  1  7  1  1  0  0  0
  1  4  1  0  0  0  0
  2 11  1  6  0  0  0
  2  9  1  0  0  0  0
  2  6  1  0  0  0  0
  3  5  1  0  0  0  0
  4 11  1  0  0  0  0
  7  8  1  0  0  0  0
  8 20  1  6  0  0  0
  8  3  1  0  0  0  0
  9  5  1  6  0  0  0
  9  6  1  0  0  0  0
 10 11  2  0  0  0  0
 12 13  1  6  0  0  0
 12  1  1  0  0  0  0
 14 16  1  1  0  0  0
 14 13  1  0  0  0  0
 14 12  1  0  0  0  0
 16 15  1  6  0  0  0
 17 16  1  0  0  0  0
 18 19  1  0  0  0  0
 19 17  1  0  0  0  0
 20 21  1  0  0  0  0
 22 20  1  0  0  0  0
 23 25  1  6  0  0  0
 23 24  1  0  0  0  0
 24 27  1  0  0  0  0
 26 29  1  1  0  0  0
 26 27  1  0  0  0  0
 26 22  1  0  0  0  0
 28 30  1  0  0  0  0
 28 23  1  0  0  0  0
 30 26  1  0  0  0  0
M  END
>  <MODEL>
4

>  <REMARK>
 VINA RESULT:      -5.8      3.560      6.945
  Name = 
  7 active torsions:
  status: ('A' for Active; 'I' for Inactive)
    1  A    between atoms: C_1  and  C_4
    2  A    between atoms: S_3  and  N_11
    3  A    between atoms: S_3  and  C_19
    4  A    between atoms: C_8  and  C_9
    5  A    between atoms: C_8  and  C_12
    6  A    between atoms: C_9  and  C_21
    7  A    between atoms: N_11  and  C_25
                            x       y       z     vdW  Elec       q    Type
                         _______ _______ _______ _____ _____    ______ ____

>  <TORSDO>
F 7

$$$$
=
 OpenBabel10262421433D

 30 33  0  0  1  0  0  0  0  0999 V2000
  187.5710  177.5710  142.0210 C   0  0  2  0  0  3  0  0  0  0  0  0
  190.9040  176.8640  143.4160 C   0  0  2  0  0  3  0  0  0  0  0  0
  190.5670  176.9740  140.0600 C   0  0  0  0  0  2  0  0  0  0  0  0
  188.3810  177.3150  143.2950 C   0  0  0  0  0  2  0  0  0  0  0  0
  191.5370  177.6130  141.0310 C   0  0  0  0  0  2  0  0  0  0  0  0
  192.1700  177.4810  143.3210 O   0  0  0  0  0  0  0  0  0  0  0  0
  188.1540  176.8990  140.7760 C   0  0  0  0  0  2  0  0  0  0  0  0
  189.2430  177.7320  140.1060 C   0  0  2  0  0  3  0  0  0  0  0  0
  191.7890  176.6920  142.2190 C   0  0  1  0  0  3  0  0  0  0  0  0
  189.9680  179.1560  143.5260 C   0  0  0  0  0  2  0  0  0  0  0  0
  189.7770  177.8600  143.2660 C   0  0  0  0  0  0  0  0  0  0  0  0
  187.2010  179.0470  141.8260 C   0  0  1  0  0  3  0  0  0  0  0  0
  186.1500  179.1510  140.8930 O   0  0  0  0  0  0  0  0  0  0  0  0
  185.8090  179.4280  142.2300 C   0  0  1  0  0  3  0  0  0  0  0  0
  185.0890  178.2680  144.1840 O   0  0  0  0  0  1  0  0  0  0  0  0
  184.9550  178.2920  142.7970 C   0  0  1  0  0  3  0  0  0  0  0  0
  183.4910  178.4910  142.4400 C   0  0  0  0  0  2  0  0  0  0  0  0
  181.2350  178.9630  143.3430 C   0  0  0  0  0  1  0  0  0  0  0  0
  182.7180  178.9870  143.6460 C   0  0  0  0  0  2  0  0  0  0  0  0
  188.8050  178.2160  138.7900 N   0  0  0  0  0  0  0  0  0  0  0  0
  189.1550  179.5210  138.6870 O   0  0  0  0  0  1  0  0  0  0  0  0
  189.6360  177.3410  137.4830 S   0  0  0  0  0  0  0  0  0  0  0  0
  188.4570  174.2050  136.8620 C   0  0  2  0  0  3  0  0  0  0  0  0
  189.3070  174.7660  135.3400 S   0  0  0  0  0  0  0  0  0  0  0  0
  188.4050  172.6930  136.8770 C   0  0  0  0  0  1  0  0  0  0  0  0
  188.1200  177.0710  136.4880 C   0  0  2  0  0  0  0  0  0  0  0  0
  188.4840  176.4020  135.1610 C   0  0  0  0  0  2  0  0  0  0  0  0
  187.0490  174.7610  136.9410 C   0  0  0  0  0  2  0  0  0  0  0  0
  187.5080  178.4210  136.1670 C   0  0  0  0  0  1  0  0  0  0  0  0
  187.0780  176.2530  137.2700 C   0  0  0  0  0  2  0  0  0  0  0  0
  1  7  1  6  0  0  0
  1  4  1  0  0  0  0
  2 11  1  6  0  0  0
  3  8  1  0  0  0  0
  3  5  1  0  0  0  0
  6  2  1  0  0  0  0
  8 20  1  6  0  0  0
  8  7  1  0  0  0  0
  9  5  1  6  0  0  0
  9  6  1  0  0  0  0
  9  2  1  0  0  0  0
 11  4  1  0  0  0  0
 11 10  2  0  0  0  0
 12 13  1  6  0  0  0
 12  1  1  0  0  0  0
 12 14  1  0  0  0  0
 13 14  1  0  0  0  0
 14 16  1  1  0  0  0
 16 15  1  1  0  0  0
 17 16  1  0  0  0  0
 17 19  1  0  0  0  0
 18 19  1  0  0  0  0
 21 20  1  0  0  0  0
 22 20  1  0  0  0  0
 23 25  1  6  0  0  0
 23 28  1  0  0  0  0
 24 23  1  0  0  0  0
 26 29  1  6  0  0  0
 26 30  1  0  0  0  0
 26 22  1  0  0  0  0
 27 24  1  0  0  0  0
 27 26  1  0  0  0  0
 28 30  1  0  0  0  0
M  END
>  <MODEL>
5

>  <REMARK>
 VINA RESULT:      -5.8      2.680      3.753
  Name = 
  7 active torsions:
  status: ('A' for Active; 'I' for Inactive)
    1  A    between atoms: C_1  and  C_4
    2  A    between atoms: S_3  and  N_11
    3  A    between atoms: S_3  and  C_19
    4  A    between atoms: C_8  and  C_9
    5  A    between atoms: C_8  and  C_12
    6  A    between atoms: C_9  and  C_21
    7  A    between atoms: N_11  and  C_25
                            x       y       z     vdW  Elec       q    Type
                         _______ _______ _______ _____ _____    ______ ____

>  <TORSDO>
F 7

$$$$
=
 OpenBabel10262421433D

 30 33  0  0  1  0  0  0  0  0999 V2000
  187.7620  178.7400  141.3230 C   0  0  2  0  0  3  0  0  0  0  0  0
  187.8070  178.0120  144.9310 C   0  0  2  0  0  3  0  0  0  0  0  0
  184.9920  179.3110  143.5980 C   0  0  0  0  0  2  0  0  0  0  0  0
  188.6100  178.2710  142.5080 C   0  0  0  0  0  2  0  0  0  0  0  0
  185.2660  178.1280  144.5020 C   0  0  0  0  0  2  0  0  0  0  0  0
  187.0390  177.1950  145.7880 O   0  0  0  0  0  0  0  0  0  0  0  0
  186.6220  179.6830  141.7160 C   0  0  0  0  0  2  0  0  0  0  0  0
  185.3660  178.9420  142.1650 C   0  0  2  0  0  3  0  0  0  0  0  0
  186.4500  178.4190  145.4190 C   0  0  1  0  0  3  0  0  0  0  0  0
  187.6610  176.1630  143.2890 C   0  0  0  0  0  2  0  0  0  0  0  0
  187.8650  177.4610  143.5260 C   0  0  0  0  0  0  0  0  0  0  0  0
  187.3410  177.5960  140.3900 C   0  0  1  0  0  3  0  0  0  0  0  0
  186.8770  178.1280  139.1710 O   0  0  0  0  0  0  0  0  0  0  0  0
  188.1220  177.4730  139.1180 C   0  0  1  0  0  3  0  0  0  0  0  0
  190.4710  177.8740  139.1450 O   0  0  0  0  0  1  0  0  0  0  0  0
  189.2430  178.4980  138.9320 C   0  0  1  0  0  3  0  0  0  0  0  0
  189.2140  179.0770  137.5270 C   0  0  0  0  0  2  0  0  0  0  0  0
  187.9600  178.0730  135.6440 C   0  0  0  0  0  1  0  0  0  0  0  0
  189.2050  177.9630  136.4990 C   0  0  0  0  0  2  0  0  0  0  0  0
  184.2680  179.1330  141.2100 N   0  0  0  0  0  0  0  0  0  0  0  0
  184.7660  179.7650  140.1200 O   0  0  0  0  0  1  0  0  0  0  0  0
  183.6210  177.5680  140.6650 S   0  0  0  0  0  0  0  0  0  0  0  0
  181.6080  176.7530  138.0400 C   0  0  2  0  0  3  0  0  0  0  0  0
  182.1450  178.4840  137.7810 S   0  0  0  0  0  0  0  0  0  0  0  0
  181.2010  176.1520  136.7120 C   0  0  0  0  0  1  0  0  0  0  0  0
  181.8810  178.1390  140.5840 C   0  0  2  0  0  0  0  0  0  0  0  0
  181.7190  179.1480  139.4440 C   0  0  0  0  0  2  0  0  0  0  0  0
  180.4430  176.6770  139.0070 C   0  0  0  0  0  2  0  0  0  0  0  0
  181.5480  178.8550  141.8780 C   0  0  0  0  0  1  0  0  0  0  0  0
  180.9120  176.9530  140.4350 C   0  0  0  0  0  2  0  0  0  0  0  0
  1  7  1  1  0  0  0
  1  4  1  0  0  0  0
  2 11  1  6  0  0  0
  2  9  1  0  0  0  0
  2  6  1  0  0  0  0
  3  5  1  0  0  0  0
  4 11  1  0  0  0  0
  7  8  1  0  0  0  0
  8 20  1  6  0  0  0
  8  3  1  0  0  0  0
  9  5  1  6  0  0  0
  9  6  1  0  0  0  0
 10 11  2  0  0  0  0
 12 13  1  6  0  0  0
 12  1  1  0  0  0  0
 14 16  1  1  0  0  0
 14 13  1  0  0  0  0
 14 12  1  0  0  0  0
 16 15  1  6  0  0  0
 17 16  1  0  0  0  0
 18 19  1  0  0  0  0
 19 17  1  0  0  0  0
 21 20  1  0  0  0  0
 22 20  1  0  0  0  0
 23 25  1  6  0  0  0
 23 28  1  0  0  0  0
 24 23  1  0  0  0  0
 24 27  1  0  0  0  0
 26 22  1  0  0  0  0
 26 29  1  1  0  0  0
 27 26  1  0  0  0  0
 28 30  1  0  0  0  0
 30 26  1  0  0  0  0
M  END
>  <MODEL>
6

>  <REMARK>
 VINA RESULT:      -5.6      3.499      6.867
  Name = 
  7 active torsions:
  status: ('A' for Active; 'I' for Inactive)
    1  A    between atoms: C_1  and  C_4
    2  A    between atoms: S_3  and  N_11
    3  A    between atoms: S_3  and  C_19
    4  A    between atoms: C_8  and  C_9
    5  A    between atoms: C_8  and  C_12
    6  A    between atoms: C_9  and  C_21
    7  A    between atoms: N_11  and  C_25
                            x       y       z     vdW  Elec       q    Type
                         _______ _______ _______ _____ _____    ______ ____

>  <TORSDO>
F 7

$$$$
=
 OpenBabel10262421433D

 30 33  0  0  1  0  0  0  0  0999 V2000
  190.5960  175.9000  137.9870 C   0  0  2  0  0  3  0  0  0  0  0  0
  187.3500  177.5470  137.4320 C   0  0  2  0  0  3  0  0  0  0  0  0
  188.6070  177.5080  140.5630 C   0  0  0  0  0  2  0  0  0  0  0  0
  189.4910  176.2090  136.9730 C   0  0  0  0  0  2  0  0  0  0  0  0
  188.0380  178.6010  139.6830 C   0  0  0  0  0  2  0  0  0  0  0  0
  186.8530  178.8520  137.6340 O   0  0  0  0  0  0  0  0  0  0  0  0
  190.1000  175.8260  139.4330 C   0  0  0  0  0  2  0  0  0  0  0  0
  190.0290  177.1920  140.1090 C   0  0  2  0  0  3  0  0  0  0  0  0
  186.9390  178.0440  138.7840 C   0  0  1  0  0  3  0  0  0  0  0  0
  189.4440  178.6300  136.6680 C   0  0  0  0  0  2  0  0  0  0  0  0
  188.8360  177.5450  137.1530 C   0  0  0  0  0  0  0  0  0  0  0  0
  191.8510  176.7610  137.7940 C   0  0  1  0  0  3  0  0  0  0  0  0
  192.9230  176.2010  138.5180 O   0  0  0  0  0  0  0  0  0  0  0  0
  193.0050  176.0860  137.1170 C   0  0  1  0  0  3  0  0  0  0  0  0
  193.1790  174.4670  135.3770 O   0  0  0  0  0  1  0  0  0  0  0  0
  192.7640  174.6350  136.6980 C   0  0  1  0  0  3  0  0  0  0  0  0
  193.5420  173.6820  137.5900 C   0  0  0  0  0  2  0  0  0  0  0  0
  195.7780  173.7770  138.6470 C   0  0  0  0  0  1  0  0  0  0  0  0
  195.0290  173.8140  137.3320 C   0  0  0  0  0  2  0  0  0  0  0  0
  191.0220  177.3030  141.1860 N   0  0  0  0  0  0  0  0  0  0  0  0
  192.0590  178.0410  140.7240 O   0  0  0  0  0  1  0  0  0  0  0  0
  190.3430  178.1620  142.5870 S   0  0  0  0  0  0  0  0  0  0  0  0
  187.5920  177.8520  144.5740 C   0  0  2  0  0  3  0  0  0  0  0  0
  189.0040  178.2350  145.6750 S   0  0  0  0  0  0  0  0  0  0  0  0
  186.3010  178.2420  145.2610 C   0  0  0  0  0  1  0  0  0  0  0  0
  190.0410  176.6440  143.5700 C   0  0  2  0  0  0  0  0  0  0  0  0
  190.1770  176.9570  145.0620 C   0  0  0  0  0  2  0  0  0  0  0  0
  187.5530  176.3780  144.2230 C   0  0  0  0  0  2  0  0  0  0  0  0
  191.1070  175.6240  143.2190 C   0  0  0  0  0  1  0  0  0  0  0  0
  188.6700  176.0300  143.2400 C   0  0  0  0  0  2  0  0  0  0  0  0
  1  4  1  6  0  0  0
  1  7  1  0  0  0  0
  2 11  1  1  0  0  0
  2  6  1  0  0  0  0
  2  9  1  0  0  0  0
  4 11  1  0  0  0  0
  5  3  1  0  0  0  0
  6  9  1  0  0  0  0
  7  8  1  0  0  0  0
  8  3  1  0  0  0  0
  8 20  1  1  0  0  0
  9  5  1  1  0  0  0
 10 11  2  0  0  0  0
 12  1  1  0  0  0  0
 12 13  1  1  0  0  0
 14 16  1  1  0  0  0
 14 12  1  0  0  0  0
 14 13  1  0  0  0  0
 16 15  1  6  0  0  0
 16 17  1  0  0  0  0
 19 17  1  0  0  0  0
 19 18  1  0  0  0  0
 20 22  1  0  0  0  0
 21 20  1  0  0  0  0
 22 26  1  0  0  0  0
 23 25  1  1  0  0  0
 23 24  1  0  0  0  0
 26 29  1  6  0  0  0
 26 27  1  0  0  0  0
 27 24  1  0  0  0  0
 28 23  1  0  0  0  0
 30 26  1  0  0  0  0
 30 28  1  0  0  0  0
M  END
>  <MODEL>
7

>  <REMARK>
 VINA RESULT:      -5.3      3.387      9.133
  Name = 
  7 active torsions:
  status: ('A' for Active; 'I' for Inactive)
    1  A    between atoms: C_1  and  C_4
    2  A    between atoms: S_3  and  N_11
    3  A    between atoms: S_3  and  C_19
    4  A    between atoms: C_8  and  C_9
    5  A    between atoms: C_8  and  C_12
    6  A    between atoms: C_9  and  C_21
    7  A    between atoms: N_11  and  C_25
                            x       y       z     vdW  Elec       q    Type
                         _______ _______ _______ _____ _____    ______ ____

>  <TORSDO>
F 7

$$$$
=
 OpenBabel10262421433D

 30 33  0  0  1  0  0  0  0  0999 V2000
  188.3480  175.7110  136.7210 C   0  0  2  0  0  3  0  0  0  0  0  0
  184.7220  176.3460  136.7510 C   0  0  2  0  0  3  0  0  0  0  0  0
  186.6250  177.8390  139.1040 C   0  0  0  0  0  2  0  0  0  0  0  0
  186.9970  175.3610  136.0910 C   0  0  0  0  0  2  0  0  0  0  0  0
  185.5640  178.3430  138.1480 C   0  0  0  0  0  2  0  0  0  0  0  0
  183.9160  177.5000  136.6530 O   0  0  0  0  0  0  0  0  0  0  0  0
  188.2490  176.1500  138.1840 C   0  0  0  0  0  2  0  0  0  0  0  0
  187.9290  177.6330  138.3390 C   0  0  2  0  0  3  0  0  0  0  0  0
  184.5060  177.2710  137.9100 C   0  0  1  0  0  3  0  0  0  0  0  0
  186.1540  177.3850  135.0170 C   0  0  0  0  0  2  0  0  0  0  0  0
  186.0310  176.5050  136.0130 C   0  0  0  0  0  0  0  0  0  0  0  0
  189.2050  176.6320  135.8430 C   0  0  1  0  0  3  0  0  0  0  0  0
  190.4570  176.8370  136.4560 O   0  0  0  0  0  0  0  0  0  0  0  0
  190.4650  176.0280  135.3030 C   0  0  1  0  0  3  0  0  0  0  0  0
  190.2990  173.7430  134.6480 O   0  0  0  0  0  1  0  0  0  0  0  0
  190.7150  174.5690  135.6910 C   0  0  1  0  0  3  0  0  0  0  0  0
  192.1910  174.3300  135.9600 C   0  0  0  0  0  2  0  0  0  0  0  0
  193.4660  175.5960  137.6620 C   0  0  0  0  0  1  0  0  0  0  0  0
  192.4850  174.4640  137.4410 C   0  0  0  0  0  2  0  0  0  0  0  0
  189.0640  178.3620  138.9210 N   0  0  0  0  0  0  0  0  0  0  0  0
  189.1230  179.5810  138.3340 O   0  0  0  0  0  1  0  0  0  0  0  0
  188.8240  178.6240  140.6630 S   0  0  0  0  0  0  0  0  0  0  0  0
  188.9260  177.3430  143.8200 C   0  0  2  0  0  3  0  0  0  0  0  0
  190.1860  178.6710  143.7420 S   0  0  0  0  0  0  0  0  0  0  0  0
  188.5230  177.1200  145.2610 C   0  0  0  0  0  1  0  0  0  0  0  0
  190.1430  177.4590  141.1790 C   0  0  2  0  0  0  0  0  0  0  0  0
  191.0520  178.1290  142.2120 C   0  0  0  0  0  2  0  0  0  0  0  0
  189.4560  176.0490  143.2350 C   0  0  0  0  0  2  0  0  0  0  0  0
  190.9940  177.1280  139.9680 C   0  0  0  0  0  1  0  0  0  0  0  0
  189.5480  176.1450  141.7130 C   0  0  0  0  0  2  0  0  0  0  0  0
  1  4  1  6  0  0  0
  1  7  1  0  0  0  0
  2 11  1  6  0  0  0
  2  9  1  0  0  0  0
  5  3  1  0  0  0  0
  6  2  1  0  0  0  0
  6  9  1  0  0  0  0
  7  8  1  0  0  0  0
  8 20  1  1  0  0  0
  8  3  1  0  0  0  0
  9  5  1  6  0  0  0
 10 11  2  0  0  0  0
 11  4  1  0  0  0  0
 12 13  1  1  0  0  0
 12  1  1  0  0  0  0
 14 16  1  1  0  0  0
 14 12  1  0  0  0  0
 14 13  1  0  0  0  0
 16 15  1  6  0  0  0
 16 17  1  0  0  0  0
 17 19  1  0  0  0  0
 19 18  1  0  0  0  0
 20 22  1  0  0  0  0
 21 20  1  0  0  0  0
 22 26  1  0  0  0  0
 23 25  1  1  0  0  0
 24 23  1  0  0  0  0
 26 29  1  6  0  0  0
 26 30  1  0  0  0  0
 26 27  1  0  0  0  0
 27 24  1  0  0  0  0
 28 23  1  0  0  0  0
 30 28  1  0  0  0  0
M  END
>  <MODEL>
8

>  <REMARK>
 VINA RESULT:      -5.3      4.169      8.988
  Name = 
  7 active torsions:
  status: ('A' for Active; 'I' for Inactive)
    1  A    between atoms: C_1  and  C_4
    2  A    between atoms: S_3  and  N_11
    3  A    between atoms: S_3  and  C_19
    4  A    between atoms: C_8  and  C_9
    5  A    between atoms: C_8  and  C_12
    6  A    between atoms: C_9  and  C_21
    7  A    between atoms: N_11  and  C_25
                            x       y       z     vdW  Elec       q    Type
                         _______ _______ _______ _____ _____    ______ ____

>  <TORSDO>
F 7

$$$$
=
 OpenBabel10262421433D

 30 33  0  0  1  0  0  0  0  0999 V2000
  185.3400  179.0820  142.3790 C   0  0  2  0  0  3  0  0  0  0  0  0
  182.8510  179.2000  139.6690 C   0  0  2  0  0  3  0  0  0  0  0  0
  186.0770  178.6420  138.8520 C   0  0  0  0  0  2  0  0  0  0  0  0
  183.8740  179.3400  142.0180 C   0  0  0  0  0  2  0  0  0  0  0  0
  184.7770  177.9550  138.4900 C   0  0  0  0  0  2  0  0  0  0  0  0
  182.4290  178.2970  138.6700 O   0  0  0  0  0  0  0  0  0  0  0  0
  186.3170  179.3930  141.2430 C   0  0  0  0  0  2  0  0  0  0  0  0
  186.4810  178.2330  140.2650 C   0  0  2  0  0  3  0  0  0  0  0  0
  183.6390  178.9680  138.4170 C   0  0  1  0  0  3  0  0  0  0  0  0
  182.9550  177.2390  141.1800 C   0  0  0  0  0  2  0  0  0  0  0  0
  183.3480  178.4850  140.9040 C   0  0  0  0  0  0  0  0  0  0  0  0
  185.5670  177.7220  143.0520 C   0  0  1  0  0  3  0  0  0  0  0  0
  186.7050  177.7910  143.8810 O   0  0  0  0  0  0  0  0  0  0  0  0
  185.4670  177.7120  144.5470 C   0  0  1  0  0  3  0  0  0  0  0  0
  183.8100  179.0440  145.6240 O   0  0  0  0  0  1  0  0  0  0  0  0
  185.1360  179.0590  145.1940 C   0  0  1  0  0  3  0  0  0  0  0  0
  186.0440  179.3200  146.3840 C   0  0  0  0  0  2  0  0  0  0  0  0
  187.3970  178.2850  148.1790 C   0  0  0  0  0  1  0  0  0  0  0  0
  186.4070  178.0170  147.0670 C   0  0  0  0  0  2  0  0  0  0  0  0
  187.8320  177.6620  140.3410 N   0  0  0  0  0  0  0  0  0  0  0  0
  188.3820  177.7230  139.1050 O   0  0  0  0  0  1  0  0  0  0  0  0
  188.8640  178.6200  141.4280 S   0  0  0  0  0  0  0  0  0  0  0  0
  189.8970  177.6890  144.5390 C   0  0  2  0  0  3  0  0  0  0  0  0
  191.2140  178.7490  143.8350 S   0  0  0  0  0  0  0  0  0  0  0  0
  190.0000  177.6980  146.0480 C   0  0  0  0  0  1  0  0  0  0  0  0
  190.1120  177.2970  141.6640 C   0  0  2  0  0  0  0  0  0  0  0  0
  191.4070  177.8990  142.2150 C   0  0  0  0  0  2  0  0  0  0  0  0
  190.0100  176.2650  144.0320 C   0  0  0  0  0  2  0  0  0  0  0  0
  190.4310  176.6900  140.3110 C   0  0  0  0  0  1  0  0  0  0  0  0
  189.5730  176.1780  142.5710 C   0  0  0  0  0  2  0  0  0  0  0  0
  1  7  1  6  0  0  0
  1 12  1  0  0  0  0
  2  6  1  6  0  0  0
  2 11  1  0  0  0  0
  3  8  1  0  0  0  0
  4  1  1  0  0  0  0
  5  3  1  0  0  0  0
  8 20  1  6  0  0  0
  8  7  1  0  0  0  0
  9  5  1  1  0  0  0
  9  6  1  0  0  0  0
  9  2  1  0  0  0  0
 11 10  2  0  0  0  0
 11  4  1  0  0  0  0
 12 13  1  1  0  0  0
 12 14  1  0  0  0  0
 13 14  1  0  0  0  0
 14 16  1  1  0  0  0
 16 15  1  1  0  0  0
 16 17  1  0  0  0  0
 17 19  1  0  0  0  0
 19 18  1  0  0  0  0
 20 22  1  0  0  0  0
 21 20  1  0  0  0  0
 22 26  1  0  0  0  0
 23 25  1  1  0  0  0
 24 23  1  0  0  0  0
 26 29  1  6  0  0  0
 26 27  1  0  0  0  0
 26 30  1  0  0  0  0
 27 24  1  0  0  0  0
 28 23  1  0  0  0  0
 30 28  1  0  0  0  0
M  END
>  <MODEL>
9

>  <REMARK>
 VINA RESULT:      -5.3      2.511      5.958
  Name = 
  7 active torsions:
  status: ('A' for Active; 'I' for Inactive)
    1  A    between atoms: C_1  and  C_4
    2  A    between atoms: S_3  and  N_11
    3  A    between atoms: S_3  and  C_19
    4  A    between atoms: C_8  and  C_9
    5  A    between atoms: C_8  and  C_12
    6  A    between atoms: C_9  and  C_21
    7  A    between atoms: N_11  and  C_25
                            x       y       z     vdW  Elec       q    Type
                         _______ _______ _______ _____ _____    ______ ____

>  <TORSDO>
F 7

$$$$
