=
 OpenBabel10262421453D

 30 33  0  0  1  0  0  0  0  0999 V2000
  188.3390  178.1060  142.4530 C   0  0  2  0  0  3  0  0  0  0  0  0
  186.9080  177.9120  143.0530 C   0  0  1  0  0  0  0  0  0  0  0  0
  188.3800  178.6210  141.0100 C   0  0  0  0  0  2  0  0  0  0  0  0
  184.6230  178.4000  139.6070 S   0  0  0  0  0  0  0  0  0  0  0  0
  184.3270  178.4900  144.1470 C   0  0  2  0  0  3  0  0  0  0  0  0
  185.9530  178.7210  140.7930 C   0  0  2  0  0  3  0  0  0  0  0  0
  187.2330  178.5100  138.7810 C   0  0  0  0  0  2  0  0  0  0  0  0
  185.4830  178.5150  145.1580 C   0  0  0  0  0  2  0  0  0  0  0  0
  187.1940  178.0950  140.2290 C   0  0  1  0  0  3  0  0  0  0  0  0
  185.6350  178.1870  142.1920 C   0  0  2  0  0  3  0  0  0  0  0  0
  185.7340  177.0110  137.5950 N   0  0  0  0  0  1  0  0  0  0  0  0
  185.8280  178.3130  138.2320 C   0  0  1  0  0  3  0  0  0  0  0  0
  186.7260  176.6980  143.9560 C   0  0  0  0  0  2  0  0  0  0  0  0
  186.8380  178.0780  144.5780 C   0  0  1  0  0  3  0  0  0  0  0  0
  185.2640  180.2880  143.0460 O   0  0  0  0  0  1  0  0  0  0  0  0
  184.6720  179.0780  142.8500 N   0  0  0  0  0  0  0  0  0  0  0  0
  183.0910  178.9550  144.6500 O   0  0  0  0  0  0  0  0  0  0  0  0
  180.9030  178.6010  144.1020 O   0  0  0  0  0  1  0  0  0  0  0  0
  182.1500  178.9860  143.6110 C   0  0  0  0  0  2  0  0  0  0  0  0
  189.3920  177.0040  142.7000 C   0  0  2  0  0  3  0  0  0  0  0  0
  190.4860  177.4080  143.7110 C   0  0  0  0  0  3  0  0  0  0  0  0
  190.5590  176.4490  144.8970 C   0  0  0  0  0  2  0  0  0  0  0  0
  189.9420  177.0830  146.1290 C   0  0  0  0  0  1  0  0  0  0  0  0
  190.3250  178.8530  144.1910 C   0  0  0  0  0  2  0  0  0  0  0  0
  191.6320  179.6310  144.1390 C   0  0  0  0  0  1  0  0  0  0  0  0
  189.9480  176.6020  141.4800 O   0  0  0  0  0  0  0  0  0  0  0  0
  191.2730  177.0390  141.5260 C   0  0  0  0  0  2  0  0  0  0  0  0
  191.7820  177.2270  140.1420 C   0  0  0  0  0  0  0  0  0  0  0  0
  193.1430  177.3870  139.9180 O   0  0  0  0  0  1  0  0  0  0  0  0
  190.9830  177.2070  139.1700 O   0  0  0  0  0  0  0  0  0  0  0  0
  1 20  1  6  0  0  0
  1  2  1  0  0  0  0
  2 13  1  6  0  0  0
  2 14  1  0  0  0  0
  3  1  1  0  0  0  0
  5 17  1  1  0  0  0
  5  8  1  0  0  0  0
  6  4  1  6  0  0  0
  6 10  1  0  0  0  0
  9  7  1  6  0  0  0
  9  6  1  0  0  0  0
  9  3  1  0  0  0  0
 10 16  1  1  0  0  0
 10  2  1  0  0  0  0
 12 11  1  1  0  0  0
 12  7  1  0  0  0  0
 12  4  1  0  0  0  0
 14 13  1  1  0  0  0
 14  8  1  0  0  0  0
 16 15  1  0  0  0  0
 16  5  1  0  0  0  0
 19 18  1  0  0  0  0
 19 17  1  0  0  0  0
 20 26  1  6  0  0  0
 20 21  1  0  0  0  0
 21 24  1  0  0  0  0
 21 22  1  0  0  0  0
 22 23  1  0  0  0  0
 25 24  1  0  0  0  0
 26 27  1  0  0  0  0
 28 27  1  0  0  0  0
 29 28  1  0  0  0  0
 30 28  2  0  0  0  0
M  END
>  <MODEL>
1

>  <REMARK>
 VINA RESULT:      -6.5      0.000      0.000
  Name = 
  9 active torsions:
  status: ('A' for Active; 'I' for Inactive)
    1  A    between atoms: C_1  and  C_22
    2  A    between atoms: C_2  and  C_14
    3  A    between atoms: C_3  and  C_19
    4  A    between atoms: C_7  and  O_16
    5  A    between atoms: C_14  and  C_20
    6  A    between atoms: C_14  and  C_22
    7  A    between atoms: O_16  and  C_26
    8  A    between atoms: C_19  and  O_29
    9  A    between atoms: C_22  and  O_29
                            x       y       z     vdW  Elec       q    Type
                         _______ _______ _______ _____ _____    ______ ____

>  <TORSDO>
F 9

$$$$
=
 OpenBabel10262421453D

 30 33  0  0  1  0  0  0  0  0999 V2000
  188.4270  177.3890  144.6860 C   0  0  2  0  0  3  0  0  0  0  0  0
  189.5610  177.8110  143.6950 C   0  0  1  0  0  0  0  0  0  0  0  0
  187.0710  177.0890  144.0400 C   0  0  0  0  0  2  0  0  0  0  0  0
  187.3130  178.3410  140.2310 S   0  0  0  0  0  0  0  0  0  0  0  0
  191.5790  177.6750  141.6690 C   0  0  2  0  0  3  0  0  0  0  0  0
  187.8470  177.5660  141.7780 C   0  0  2  0  0  3  0  0  0  0  0  0
  185.5000  177.7690  142.2040 C   0  0  0  0  0  2  0  0  0  0  0  0
  192.0350  177.2480  143.0720 C   0  0  0  0  0  2  0  0  0  0  0  0
  186.8570  177.9720  142.8280 C   0  0  1  0  0  3  0  0  0  0  0  0
  189.2760  177.9530  142.1660 C   0  0  2  0  0  3  0  0  0  0  0  0
  185.0830  179.7190  140.8160 N   0  0  0  0  0  1  0  0  0  0  0  0
  185.5740  178.3520  140.8010 C   0  0  1  0  0  3  0  0  0  0  0  0
  190.5100  178.8940  144.1940 C   0  0  0  0  0  2  0  0  0  0  0  0
  190.9770  177.4500  144.1680 C   0  0  1  0  0  3  0  0  0  0  0  0
  190.1200  175.8890  141.6110 O   0  0  0  0  0  1  0  0  0  0  0  0
  190.2300  177.2150  141.3290 N   0  0  0  0  0  0  0  0  0  0  0  0
  192.5180  177.4310  140.6420 O   0  0  0  0  0  0  0  0  0  0  0  0
  192.6810  176.5190  138.5560 O   0  0  0  0  0  1  0  0  0  0  0  0
  191.8370  177.1900  139.4400 C   0  0  0  0  0  2  0  0  0  0  0  0
  188.2740  178.1810  146.0030 C   0  0  2  0  0  3  0  0  0  0  0  0
  189.3710  177.8730  147.0430 C   0  0  0  0  0  3  0  0  0  0  0  0
  189.6530  176.3760  147.1600 C   0  0  0  0  0  2  0  0  0  0  0  0
  191.1300  176.1340  147.4020 C   0  0  0  0  0  1  0  0  0  0  0  0
  189.0530  178.4740  148.4150 C   0  0  0  0  0  2  0  0  0  0  0  0
  187.9790  177.6890  149.1560 C   0  0  0  0  0  1  0  0  0  0  0  0
  186.9950  177.9700  146.5320 O   0  0  0  0  0  0  0  0  0  0  0  0
  186.3110  179.1660  146.3120 C   0  0  0  0  0  2  0  0  0  0  0  0
  184.8660  178.8820  146.1130 C   0  0  0  0  0  0  0  0  0  0  0  0
  184.2230  179.3220  144.9640 O   0  0  0  0  0  0  0  0  0  0  0  0
  184.2320  178.2140  146.9710 O   0  0  0  0  0  1  0  0  0  0  0  0
  1 20  1  1  0  0  0
  2 14  1  0  0  0  0
  2 13  1  1  0  0  0
  2  1  1  0  0  0  0
  3  1  1  0  0  0  0
  4 12  1  0  0  0  0
  5 17  1  6  0  0  0
  5  8  1  0  0  0  0
  6  4  1  6  0  0  0
  6 10  1  0  0  0  0
  6  9  1  0  0  0  0
  9  7  1  6  0  0  0
  9  3  1  0  0  0  0
 10 16  1  6  0  0  0
 10  2  1  0  0  0  0
 12 11  1  1  0  0  0
 12  7  1  0  0  0  0
 14  8  1  6  0  0  0
 14 13  1  0  0  0  0
 16 15  1  0  0  0  0
 16  5  1  0  0  0  0
 18 19  1  0  0  0  0
 19 17  1  0  0  0  0
 20 26  1  1  0  0  0
 20 21  1  0  0  0  0
 21 22  1  0  0  0  0
 21 24  1  0  0  0  0
 22 23  1  0  0  0  0
 24 25  1  0  0  0  0
 27 26  1  0  0  0  0
 28 27  1  0  0  0  0
 28 30  1  0  0  0  0
 29 28  2  0  0  0  0
M  END
>  <MODEL>
2

>  <REMARK>
 VINA RESULT:      -6.2      2.058      6.353
  Name = 
  9 active torsions:
  status: ('A' for Active; 'I' for Inactive)
    1  A    between atoms: C_1  and  C_22
    2  A    between atoms: C_2  and  C_14
    3  A    between atoms: C_3  and  C_19
    4  A    between atoms: C_7  and  O_16
    5  A    between atoms: C_14  and  C_20
    6  A    between atoms: C_14  and  C_22
    7  A    between atoms: O_16  and  C_26
    8  A    between atoms: C_19  and  O_29
    9  A    between atoms: C_22  and  O_29
                            x       y       z     vdW  Elec       q    Type
                         _______ _______ _______ _____ _____    ______ ____

>  <TORSDO>
F 9

$$$$
=
 OpenBabel10262421453D

 30 33  0  0  1  0  0  0  0  0999 V2000
  187.8190  177.0130  142.7960 C   0  0  2  0  0  3  0  0  0  0  0  0
  187.0210  178.1060  142.0140 C   0  0  1  0  0  0  0  0  0  0  0  0
  187.2240  176.6090  144.1490 C   0  0  0  0  0  2  0  0  0  0  0  0
  184.3430  179.2820  144.9780 S   0  0  0  0  0  0  0  0  0  0  0  0
  184.9760  179.3870  140.4720 C   0  0  2  0  0  3  0  0  0  0  0  0
  185.3420  178.1510  143.9780 C   0  0  2  0  0  3  0  0  0  0  0  0
  186.0120  177.4670  146.1720 C   0  0  0  0  0  2  0  0  0  0  0  0
  186.0070  178.5930  139.6550 C   0  0  0  0  0  2  0  0  0  0  0  0
  186.5440  177.7950  144.8010 C   0  0  1  0  0  3  0  0  0  0  0  0
  185.7380  178.7530  142.6270 C   0  0  2  0  0  3  0  0  0  0  0  0
  185.6580  179.5900  147.2980 N   0  0  0  0  0  1  0  0  0  0  0  0
  185.0050  178.5530  146.5200 C   0  0  1  0  0  3  0  0  0  0  0  0
  187.8610  179.1290  141.2580 C   0  0  0  0  0  2  0  0  0  0  0  0
  187.1660  178.0210  140.4870 C   0  0  1  0  0  3  0  0  0  0  0  0
  184.2670  177.4280  141.4620 O   0  0  0  0  0  1  0  0  0  0  0  0
  184.5850  178.7250  141.7200 N   0  0  0  0  0  0  0  0  0  0  0  0
  183.8710  179.8600  139.7300 O   0  0  0  0  0  0  0  0  0  0  0  0
  182.5500  178.3170  138.6880 O   0  0  0  0  0  1  0  0  0  0  0  0
  183.7160  179.0730  138.5790 C   0  0  0  0  0  2  0  0  0  0  0  0
  189.3570  177.1320  142.8570 C   0  0  2  0  0  3  0  0  0  0  0  0
  189.8700  177.9350  144.0710 C   0  0  0  0  0  3  0  0  0  0  0  0
  190.6440  179.1830  143.6530 C   0  0  0  0  0  2  0  0  0  0  0  0
  192.0540  179.1410  144.2090 C   0  0  0  0  0  1  0  0  0  0  0  0
  190.7030  177.0730  145.0240 C   0  0  0  0  0  2  0  0  0  0  0  0
  190.1120  177.0230  146.4260 C   0  0  0  0  0  1  0  0  0  0  0  0
  189.8350  177.6660  141.6540 O   0  0  0  0  0  0  0  0  0  0  0  0
  190.6400  176.6640  141.1100 C   0  0  0  0  0  2  0  0  0  0  0  0
  190.5230  176.6830  139.6280 C   0  0  0  0  0  0  0  0  0  0  0  0
  190.2510  177.8740  138.9680 O   0  0  0  0  0  0  0  0  0  0  0  0
  190.7020  175.6260  138.9690 O   0  0  0  0  0  1  0  0  0  0  0  0
  1 20  1  1  0  0  0
  1  3  1  0  0  0  0
  2 13  1  1  0  0  0
  2 10  1  0  0  0  0
  2  1  1  0  0  0  0
  4 12  1  0  0  0  0
  5 17  1  6  0  0  0
  5 16  1  0  0  0  0
  6  9  1  0  0  0  0
  6  4  1  1  0  0  0
  7 12  1  0  0  0  0
  8  5  1  0  0  0  0
  9  3  1  6  0  0  0
  9  7  1  0  0  0  0
 10 16  1  6  0  0  0
 10  6  1  0  0  0  0
 12 11  1  1  0  0  0
 14  8  1  6  0  0  0
 14 13  1  0  0  0  0
 14  2  1  0  0  0  0
 15 16  1  0  0  0  0
 19 18  1  0  0  0  0
 19 17  1  0  0  0  0
 20 26  1  6  0  0  0
 20 21  1  0  0  0  0
 21 24  1  0  0  0  0
 22 21  1  0  0  0  0
 22 23  1  0  0  0  0
 24 25  1  0  0  0  0
 27 26  1  0  0  0  0
 28 27  1  0  0  0  0
 29 28  2  0  0  0  0
 30 28  1  0  0  0  0
M  END
>  <MODEL>
3

>  <REMARK>
 VINA RESULT:      -6.1      2.147      4.242
  Name = 
  9 active torsions:
  status: ('A' for Active; 'I' for Inactive)
    1  A    between atoms: C_1  and  C_22
    2  A    between atoms: C_2  and  C_14
    3  A    between atoms: C_3  and  C_19
    4  A    between atoms: C_7  and  O_16
    5  A    between atoms: C_14  and  C_20
    6  A    between atoms: C_14  and  C_22
    7  A    between atoms: O_16  and  C_26
    8  A    between atoms: C_19  and  O_29
    9  A    between atoms: C_22  and  O_29
                            x       y       z     vdW  Elec       q    Type
                         _______ _______ _______ _____ _____    ______ ____

>  <TORSDO>
F 9

$$$$
=
 OpenBabel10262421453D

 30 33  0  0  1  0  0  0  0  0999 V2000
  189.5010  177.7100  141.3690 C   0  0  2  0  0  3  0  0  0  0  0  0
  189.6120  177.0140  142.7650 C   0  0  1  0  0  0  0  0  0  0  0  0
  188.3480  178.7080  141.2240 C   0  0  0  0  0  2  0  0  0  0  0  0
  185.9970  178.2200  144.4440 S   0  0  0  0  0  0  0  0  0  0  0  0
  190.1010  176.5950  145.5540 C   0  0  2  0  0  3  0  0  0  0  0  0
  187.5340  178.3640  143.4970 C   0  0  2  0  0  3  0  0  0  0  0  0
  185.9700  179.1720  141.8750 C   0  0  0  0  0  2  0  0  0  0  0  0
  191.3410  176.4970  144.6540 C   0  0  0  0  0  2  0  0  0  0  0  0
  187.1590  178.2630  142.0490 C   0  0  1  0  0  3  0  0  0  0  0  0
  188.5680  177.3050  143.8900 C   0  0  2  0  0  3  0  0  0  0  0  0
  184.0310  177.9230  142.6400 N   0  0  0  0  0  1  0  0  0  0  0  0
  185.0330  178.8940  143.0420 C   0  0  1  0  0  3  0  0  0  0  0  0
  190.0220  175.5460  142.7440 C   0  0  0  0  0  2  0  0  0  0  0  0
  191.0390  176.5970  143.1500 C   0  0  1  0  0  3  0  0  0  0  0  0
  189.8870  178.8240  145.0000 O   0  0  0  0  0  1  0  0  0  0  0  0
  189.1840  177.6720  145.1700 N   0  0  0  0  0  0  0  0  0  0  0  0
  190.3740  176.5730  146.9410 O   0  0  0  0  0  0  0  0  0  0  0  0
  192.2940  176.8980  148.1320 O   0  0  0  0  0  1  0  0  0  0  0  0
  191.6850  176.1220  147.1470 C   0  0  0  0  0  2  0  0  0  0  0  0
  189.6750  176.8440  140.1030 C   0  0  2  0  0  3  0  0  0  0  0  0
  191.0020  177.0940  139.3570 C   0  0  0  0  0  3  0  0  0  0  0  0
  191.4600  175.8700  138.5670 C   0  0  0  0  0  2  0  0  0  0  0  0
  191.4090  176.1530  137.0780 C   0  0  0  0  0  1  0  0  0  0  0  0
  192.1100  177.5790  140.2960 C   0  0  0  0  0  2  0  0  0  0  0  0
  193.4890  177.1070  139.8580 C   0  0  0  0  0  1  0  0  0  0  0  0
  188.5730  177.0210  139.2580 O   0  0  0  0  0  0  0  0  0  0  0  0
  188.8870  178.1400  138.4860 C   0  0  0  0  0  2  0  0  0  0  0  0
  188.0550  178.1430  137.2540 C   0  0  0  0  0  0  0  0  0  0  0  0
  187.5050  179.3300  136.7890 O   0  0  0  0  0  1  0  0  0  0  0  0
  187.8770  177.0740  136.6130 O   0  0  0  0  0  0  0  0  0  0  0  0
  1 20  1  6  0  0  0
  1  2  1  0  0  0  0
  2 13  1  6  0  0  0
  2 14  1  0  0  0  0
  2 10  1  0  0  0  0
  3  1  1  0  0  0  0
  5 17  1  1  0  0  0
  6 10  1  0  0  0  0
  6  4  1  1  0  0  0
  7  9  1  0  0  0  0
  7 12  1  0  0  0  0
  8  5  1  0  0  0  0
  9  3  1  6  0  0  0
  9  6  1  0  0  0  0
 10 16  1  1  0  0  0
 12 11  1  6  0  0  0
 12  4  1  0  0  0  0
 14 13  1  6  0  0  0
 14  8  1  0  0  0  0
 15 16  1  0  0  0  0
 16  5  1  0  0  0  0
 17 19  1  0  0  0  0
 19 18  1  0  0  0  0
 20 26  1  6  0  0  0
 21 20  1  0  0  0  0
 21 24  1  0  0  0  0
 22 21  1  0  0  0  0
 23 22  1  0  0  0  0
 25 24  1  0  0  0  0
 27 26  1  0  0  0  0
 28 27  1  0  0  0  0
 29 28  1  0  0  0  0
 30 28  2  0  0  0  0
M  END
>  <MODEL>
4

>  <REMARK>
 VINA RESULT:      -6.0      3.184      5.560
  Name = 
  9 active torsions:
  status: ('A' for Active; 'I' for Inactive)
    1  A    between atoms: C_1  and  C_22
    2  A    between atoms: C_2  and  C_14
    3  A    between atoms: C_3  and  C_19
    4  A    between atoms: C_7  and  O_16
    5  A    between atoms: C_14  and  C_20
    6  A    between atoms: C_14  and  C_22
    7  A    between atoms: O_16  and  C_26
    8  A    between atoms: C_19  and  O_29
    9  A    between atoms: C_22  and  O_29
                            x       y       z     vdW  Elec       q    Type
                         _______ _______ _______ _____ _____    ______ ____

>  <TORSDO>
F 9

$$$$
=
 OpenBabel10262421453D

 30 33  0  0  1  0  0  0  0  0999 V2000
  189.4500  176.7530  144.1500 C   0  0  2  0  0  3  0  0  0  0  0  0
  189.8070  177.5200  142.8350 C   0  0  1  0  0  0  0  0  0  0  0  0
  187.9530  176.5700  144.4150 C   0  0  0  0  0  2  0  0  0  0  0  0
  186.0260  178.9010  141.7720 S   0  0  0  0  0  0  0  0  0  0  0  0
  190.1680  178.1170  140.0580 C   0  0  2  0  0  3  0  0  0  0  0  0
  187.2720  177.7410  142.3870 C   0  0  2  0  0  3  0  0  0  0  0  0
  185.7020  177.6580  144.1920 C   0  0  0  0  0  2  0  0  0  0  0  0
  191.3130  177.3260  140.7080 C   0  0  0  0  0  2  0  0  0  0  0  0
  187.1740  177.7550  143.8830 C   0  0  1  0  0  3  0  0  0  0  0  0
  188.6850  178.0870  141.9090 C   0  0  2  0  0  3  0  0  0  0  0  0
  184.7970  179.8980  143.9410 N   0  0  0  0  0  1  0  0  0  0  0  0
  184.9960  178.6310  143.2600 C   0  0  1  0  0  3  0  0  0  0  0  0
  190.9980  178.4670  142.9200 C   0  0  0  0  0  2  0  0  0  0  0  0
  191.1610  177.1270  142.2250 C   0  0  1  0  0  3  0  0  0  0  0  0
  188.7470  176.3370  140.4210 O   0  0  0  0  0  1  0  0  0  0  0  0
  188.8390  177.6920  140.5040 N   0  0  0  0  0  0  0  0  0  0  0  0
  190.2620  178.2480  138.6540 O   0  0  0  0  0  0  0  0  0  0  0  0
  189.1010  178.8220  136.7750 O   0  0  0  0  0  1  0  0  0  0  0  0
  189.1010  178.8650  138.1680 C   0  0  0  0  0  2  0  0  0  0  0  0
  190.2230  177.1100  145.4380 C   0  0  2  0  0  3  0  0  0  0  0  0
  191.5390  176.3230  145.6100 C   0  0  0  0  0  3  0  0  0  0  0  0
  191.8110  175.3880  144.4340 C   0  0  0  0  0  2  0  0  0  0  0  0
  192.4250  174.0900  144.9220 C   0  0  0  0  0  1  0  0  0  0  0  0
  191.5860  175.5570  146.9350 C   0  0  0  0  0  2  0  0  0  0  0  0
  192.4600  176.2460  147.9730 C   0  0  0  0  0  1  0  0  0  0  0  0
  189.3840  176.9520  146.5480 O   0  0  0  0  0  0  0  0  0  0  0  0
  189.2200  178.2380  147.0620 C   0  0  0  0  0  2  0  0  0  0  0  0
  188.0360  178.2660  147.9600 C   0  0  0  0  0  0  0  0  0  0  0  0
  186.7730  178.5130  147.4390 O   0  0  0  0  0  0  0  0  0  0  0  0
  188.1730  178.0320  149.1900 O   0  0  0  0  0  1  0  0  0  0  0  0
  1  3  1  0  0  0  0
  1 20  1  1  0  0  0
  2 13  1  1  0  0  0
  2  1  1  0  0  0  0
  4 12  1  0  0  0  0
  5 17  1  6  0  0  0
  5 16  1  0  0  0  0
  5  8  1  0  0  0  0
  6  4  1  6  0  0  0
  6  9  1  0  0  0  0
  9  7  1  6  0  0  0
  9  3  1  0  0  0  0
 10 16  1  6  0  0  0
 10  6  1  0  0  0  0
 10  2  1  0  0  0  0
 12 11  1  1  0  0  0
 12  7  1  0  0  0  0
 14  8  1  6  0  0  0
 14  2  1  0  0  0  0
 14 13  1  0  0  0  0
 15 16  1  0  0  0  0
 18 19  1  0  0  0  0
 19 17  1  0  0  0  0
 20 21  1  1  0  0  0
 20 26  1  0  0  0  0
 21 24  1  0  0  0  0
 22 23  1  0  0  0  0
 22 21  1  0  0  0  0
 24 25  1  0  0  0  0
 26 27  1  0  0  0  0
 27 28  1  0  0  0  0
 28 30  1  0  0  0  0
 29 28  2  0  0  0  0
M  END
>  <MODEL>
5

>  <REMARK>
 VINA RESULT:      -5.7      2.574      6.055
  Name = 
  9 active torsions:
  status: ('A' for Active; 'I' for Inactive)
    1  A    between atoms: C_1  and  C_22
    2  A    between atoms: C_2  and  C_14
    3  A    between atoms: C_3  and  C_19
    4  A    between atoms: C_7  and  O_16
    5  A    between atoms: C_14  and  C_20
    6  A    between atoms: C_14  and  C_22
    7  A    between atoms: O_16  and  C_26
    8  A    between atoms: C_19  and  O_29
    9  A    between atoms: C_22  and  O_29
                            x       y       z     vdW  Elec       q    Type
                         _______ _______ _______ _____ _____    ______ ____

>  <TORSDO>
F 9

$$$$
=
 OpenBabel10262421453D

 30 33  0  0  1  0  0  0  0  0999 V2000
  188.3860  178.2160  144.2110 C   0  0  2  0  0  3  0  0  0  0  0  0
  187.0870  177.8900  143.4050 C   0  0  1  0  0  0  0  0  0  0  0  0
  189.6270  178.5110  143.3620 C   0  0  0  0  0  2  0  0  0  0  0  0
  188.7030  177.4940  139.5880 S   0  0  0  0  0  0  0  0  0  0  0  0
  184.7670  178.2090  141.7580 C   0  0  2  0  0  3  0  0  0  0  0  0
  188.4660  178.1930  141.2410 C   0  0  2  0  0  3  0  0  0  0  0  0
  190.8400  177.8910  141.2550 C   0  0  0  0  0  2  0  0  0  0  0  0
  184.5680  178.5670  143.2380 C   0  0  0  0  0  2  0  0  0  0  0  0
  189.5990  177.6950  142.0870 C   0  0  1  0  0  3  0  0  0  0  0  0
  187.1070  177.8300  141.8440 C   0  0  2  0  0  3  0  0  0  0  0  0
  190.9400  176.0150  139.7140 N   0  0  0  0  0  1  0  0  0  0  0  0
  190.5100  177.3950  139.8550 C   0  0  1  0  0  3  0  0  0  0  0  0
  186.1900  176.8100  143.9980 C   0  0  0  0  0  2  0  0  0  0  0  0
  185.7860  178.2670  144.1280 C   0  0  1  0  0  3  0  0  0  0  0  0
  186.2680  179.9490  141.5500 O   0  0  0  0  0  1  0  0  0  0  0  0
  186.0580  178.6460  141.2200 N   0  0  0  0  0  0  0  0  0  0  0  0
  183.6800  178.5430  140.9180 O   0  0  0  0  0  0  0  0  0  0  0  0
  181.4740  177.9660  141.0300 O   0  0  0  0  0  1  0  0  0  0  0  0
  182.5100  178.6270  141.6870 C   0  0  0  0  0  2  0  0  0  0  0  0
  188.7240  177.3440  145.4390 C   0  0  2  0  0  3  0  0  0  0  0  0
  187.7190  177.4930  146.6010 C   0  0  0  0  0  3  0  0  0  0  0  0
  187.1620  178.9110  146.7050 C   0  0  0  0  0  2  0  0  0  0  0  0
  185.6940  178.8760  147.0830 C   0  0  0  0  0  1  0  0  0  0  0  0
  188.3130  177.0440  147.9400 C   0  0  0  0  0  2  0  0  0  0  0  0
  188.6920  178.2200  148.8280 C   0  0  0  0  0  1  0  0  0  0  0  0
  190.0330  177.6090  145.8590 O   0  0  0  0  0  0  0  0  0  0  0  0
  190.7470  176.4450  145.5720 C   0  0  0  0  0  2  0  0  0  0  0  0
  191.7400  176.1940  146.6480 C   0  0  0  0  0  0  0  0  0  0  0  0
  191.9020  177.1170  147.6740 O   0  0  0  0  0  1  0  0  0  0  0  0
  192.4120  175.1300  146.6490 O   0  0  0  0  0  0  0  0  0  0  0  0
  1 20  1  1  0  0  0
  2 13  1  1  0  0  0
  2 14  1  0  0  0  0
  2  1  1  0  0  0  0
  3  1  1  0  0  0  0
  4 12  1  0  0  0  0
  5 17  1  6  0  0  0
  5  8  1  0  0  0  0
  6  4  1  6  0  0  0
  6 10  1  0  0  0  0
  6  9  1  0  0  0  0
  9  7  1  6  0  0  0
  9  3  1  0  0  0  0
 10 16  1  6  0  0  0
 10  2  1  0  0  0  0
 12 11  1  1  0  0  0
 12  7  1  0  0  0  0
 13 14  1  0  0  0  0
 14  8  1  6  0  0  0
 16 15  1  0  0  0  0
 16  5  1  0  0  0  0
 17 19  1  0  0  0  0
 18 19  1  0  0  0  0
 20 26  1  1  0  0  0
 20 21  1  0  0  0  0
 21 22  1  0  0  0  0
 21 24  1  0  0  0  0
 22 23  1  0  0  0  0
 24 25  1  0  0  0  0
 27 26  1  0  0  0  0
 27 28  1  0  0  0  0
 28 30  2  0  0  0  0
 28 29  1  0  0  0  0
M  END
>  <MODEL>
6

>  <REMARK>
 VINA RESULT:      -5.6      2.769      4.077
  Name = 
  9 active torsions:
  status: ('A' for Active; 'I' for Inactive)
    1  A    between atoms: C_1  and  C_22
    2  A    between atoms: C_2  and  C_14
    3  A    between atoms: C_3  and  C_19
    4  A    between atoms: C_7  and  O_16
    5  A    between atoms: C_14  and  C_20
    6  A    between atoms: C_14  and  C_22
    7  A    between atoms: O_16  and  C_26
    8  A    between atoms: C_19  and  O_29
    9  A    between atoms: C_22  and  O_29
                            x       y       z     vdW  Elec       q    Type
                         _______ _______ _______ _____ _____    ______ ____

>  <TORSDO>
F 9

$$$$
=
 OpenBabel10262421453D

 30 33  0  0  1  0  0  0  0  0999 V2000
  185.8910  178.5610  139.9050 C   0  0  2  0  0  3  0  0  0  0  0  0
  186.6560  177.9670  138.6780 C   0  0  1  0  0  0  0  0  0  0  0  0
  186.7570  178.8700  141.1310 C   0  0  0  0  0  2  0  0  0  0  0  0
  190.3440  177.1960  140.4500 S   0  0  0  0  0  0  0  0  0  0  0  0
  188.3650  177.7580  136.3910 C   0  0  2  0  0  3  0  0  0  0  0  0
  188.8210  178.1030  140.0820 C   0  0  2  0  0  3  0  0  0  0  0  0
  188.7270  178.0890  142.4740 C   0  0  0  0  0  2  0  0  0  0  0  0
  186.9600  178.3080  136.1050 C   0  0  0  0  0  2  0  0  0  0  0  0
  187.8930  177.8740  141.2380 C   0  0  1  0  0  3  0  0  0  0  0  0
  188.1890  177.6760  138.7550 C   0  0  2  0  0  3  0  0  0  0  0  0
  189.9610  176.0280  142.8370 N   0  0  0  0  0  1  0  0  0  0  0  0
  190.0400  177.3530  142.2480 C   0  0  1  0  0  3  0  0  0  0  0  0
  185.9170  176.8900  137.8930 C   0  0  0  0  0  2  0  0  0  0  0  0
  186.0170  178.2920  137.3200 C   0  0  1  0  0  3  0  0  0  0  0  0
  188.8150  179.6120  137.6890 O   0  0  0  0  0  1  0  0  0  0  0  0
  188.9450  178.2590  137.6400 N   0  0  0  0  0  0  0  0  0  0  0  0
  189.2610  177.8310  135.3010 O   0  0  0  0  0  0  0  0  0  0  0  0
  189.1500  175.5620  135.5180 O   0  0  0  0  0  1  0  0  0  0  0  0
  189.9880  176.6340  135.2180 C   0  0  0  0  0  2  0  0  0  0  0  0
  184.5390  177.9290  140.3010 C   0  0  2  0  0  3  0  0  0  0  0  0
  183.3140  178.6780  139.7340 C   0  0  0  0  0  3  0  0  0  0  0  0
  182.4990  177.8100  138.7780 C   0  0  0  0  0  2  0  0  0  0  0  0
  182.5290  176.3610  139.2230 C   0  0  0  0  0  1  0  0  0  0  0  0
  183.7030  180.0010  139.0670 C   0  0  0  0  0  2  0  0  0  0  0  0
  182.4890  180.8190  138.6520 C   0  0  0  0  0  1  0  0  0  0  0  0
  184.4650  177.8120  141.6940 O   0  0  0  0  0  0  0  0  0  0  0  0
  183.3530  178.5720  142.0610 C   0  0  0  0  0  2  0  0  0  0  0  0
  183.5040  179.0220  143.4700 C   0  0  0  0  0  0  0  0  0  0  0  0
  184.5810  179.8180  143.8350 O   0  0  0  0  0  0  0  0  0  0  0  0
  182.6360  178.7070  144.3270 O   0  0  0  0  0  1  0  0  0  0  0  0
  1 20  1  1  0  0  0
  1  3  1  0  0  0  0
  2 13  1  1  0  0  0
  2 10  1  0  0  0  0
  2  1  1  0  0  0  0
  4 12  1  0  0  0  0
  5 17  1  6  0  0  0
  5 16  1  0  0  0  0
  6  4  1  1  0  0  0
  6  9  1  0  0  0  0
  8  5  1  0  0  0  0
  9  3  1  6  0  0  0
  9  7  1  0  0  0  0
 10 16  1  6  0  0  0
 10  6  1  0  0  0  0
 12  7  1  0  0  0  0
 12 11  1  6  0  0  0
 14  8  1  6  0  0  0
 14 13  1  0  0  0  0
 14  2  1  0  0  0  0
 16 15  1  0  0  0  0
 19 17  1  0  0  0  0
 19 18  1  0  0  0  0
 20 21  1  1  0  0  0
 20 26  1  0  0  0  0
 22 23  1  0  0  0  0
 22 21  1  0  0  0  0
 24 21  1  0  0  0  0
 25 24  1  0  0  0  0
 26 27  1  0  0  0  0
 27 28  1  0  0  0  0
 28 29  2  0  0  0  0
 28 30  1  0  0  0  0
M  END
>  <MODEL>
7

>  <REMARK>
 VINA RESULT:      -5.4      2.951      7.782
  Name = 
  9 active torsions:
  status: ('A' for Active; 'I' for Inactive)
    1  A    between atoms: C_1  and  C_22
    2  A    between atoms: C_2  and  C_14
    3  A    between atoms: C_3  and  C_19
    4  A    between atoms: C_7  and  O_16
    5  A    between atoms: C_14  and  C_20
    6  A    between atoms: C_14  and  C_22
    7  A    between atoms: O_16  and  C_26
    8  A    between atoms: C_19  and  O_29
    9  A    between atoms: C_22  and  O_29
                            x       y       z     vdW  Elec       q    Type
                         _______ _______ _______ _____ _____    ______ ____

>  <TORSDO>
F 9

$$$$
=
 OpenBabel10262421453D

 30 33  0  0  1  0  0  0  0  0999 V2000
  189.8200  177.7240  143.6570 C   0  0  2  0  0  3  0  0  0  0  0  0
  188.3850  177.5060  143.0750 C   0  0  1  0  0  0  0  0  0  0  0  0
  190.9100  178.0180  142.6210 C   0  0  0  0  0  2  0  0  0  0  0  0
  189.2950  177.2840  139.0170 S   0  0  0  0  0  0  0  0  0  0  0  0
  185.8370  178.0290  141.8800 C   0  0  2  0  0  3  0  0  0  0  0  0
  189.3860  177.8860  140.7230 C   0  0  2  0  0  3  0  0  0  0  0  0
  191.7070  177.4810  140.3030 C   0  0  0  0  0  2  0  0  0  0  0  0
  185.9160  178.3010  143.3900 C   0  0  0  0  0  2  0  0  0  0  0  0
  190.6190  177.2860  141.3280 C   0  0  1  0  0  3  0  0  0  0  0  0
  188.1330  177.5440  141.5340 C   0  0  2  0  0  3  0  0  0  0  0  0
  191.4380  175.7040  138.6680 N   0  0  0  0  0  1  0  0  0  0  0  0
  191.1140  177.0900  138.9570 C   0  0  1  0  0  3  0  0  0  0  0  0
  187.5480  176.4310  143.7560 C   0  0  0  0  0  2  0  0  0  0  0  0
  187.2510  177.8930  144.0350 C   0  0  1  0  0  3  0  0  0  0  0  0
  187.3710  179.7120  141.5080 O   0  0  0  0  0  1  0  0  0  0  0  0
  187.0380  178.4430  141.1490 N   0  0  0  0  0  0  0  0  0  0  0  0
  184.6410  178.4630  141.2640 O   0  0  0  0  0  0  0  0  0  0  0  0
  184.5520  179.9080  139.4990 O   0  0  0  0  0  1  0  0  0  0  0  0
  184.8560  178.6040  139.8850 C   0  0  0  0  0  2  0  0  0  0  0  0
  190.3170  176.7610  144.7570 C   0  0  2  0  0  3  0  0  0  0  0  0
  190.3210  177.3830  146.1700 C   0  0  0  0  0  3  0  0  0  0  0  0
  190.6430  176.3550  147.2530 C   0  0  0  0  0  2  0  0  0  0  0  0
  191.9820  176.6630  147.8930 C   0  0  0  0  0  1  0  0  0  0  0  0
  189.0120  178.1110  146.4840 C   0  0  0  0  0  2  0  0  0  0  0  0
  188.2790  177.4990  147.6690 C   0  0  0  0  0  1  0  0  0  0  0  0
  191.5810  176.2670  144.4140 O   0  0  0  0  0  0  0  0  0  0  0  0
  191.3410  174.9930  143.8960 C   0  0  0  0  0  2  0  0  0  0  0  0
  192.0550  173.9810  144.7190 C   0  0  0  0  0  0  0  0  0  0  0  0
  191.8550  172.6270  144.4840 O   0  0  0  0  0  0  0  0  0  0  0  0
  192.8670  174.3510  145.6070 O   0  0  0  0  0  1  0  0  0  0  0  0
  1 20  1  6  0  0  0
  2  1  1  0  0  0  0
  2 13  1  1  0  0  0
  2 14  1  0  0  0  0
  3  1  1  0  0  0  0
  5 17  1  6  0  0  0
  5  8  1  0  0  0  0
  6  4  1  6  0  0  0
  6  9  1  0  0  0  0
  6 10  1  0  0  0  0
  9  7  1  6  0  0  0
  9  3  1  0  0  0  0
 10 16  1  1  0  0  0
 10  2  1  0  0  0  0
 12 11  1  1  0  0  0
 12  4  1  0  0  0  0
 12  7  1  0  0  0  0
 13 14  1  0  0  0  0
 14  8  1  6  0  0  0
 16 15  1  0  0  0  0
 16  5  1  0  0  0  0
 18 19  1  0  0  0  0
 19 17  1  0  0  0  0
 20 26  1  6  0  0  0
 20 21  1  0  0  0  0
 21 24  1  0  0  0  0
 21 22  1  0  0  0  0
 22 23  1  0  0  0  0
 24 25  1  0  0  0  0
 27 26  1  0  0  0  0
 27 28  1  0  0  0  0
 28 30  1  0  0  0  0
 29 28  2  0  0  0  0
M  END
>  <MODEL>
8

>  <REMARK>
 VINA RESULT:      -5.4      2.634      3.966
  Name = 
  9 active torsions:
  status: ('A' for Active; 'I' for Inactive)
    1  A    between atoms: C_1  and  C_22
    2  A    between atoms: C_2  and  C_14
    3  A    between atoms: C_3  and  C_19
    4  A    between atoms: C_7  and  O_16
    5  A    between atoms: C_14  and  C_20
    6  A    between atoms: C_14  and  C_22
    7  A    between atoms: O_16  and  C_26
    8  A    between atoms: C_19  and  O_29
    9  A    between atoms: C_22  and  O_29
                            x       y       z     vdW  Elec       q    Type
                         _______ _______ _______ _____ _____    ______ ____

>  <TORSDO>
F 9

$$$$
=
 OpenBabel10262421453D

 30 33  0  0  1  0  0  0  0  0999 V2000
  188.2690  177.9770  144.1610 C   0  0  2  0  0  3  0  0  0  0  0  0
  186.7090  177.8920  144.2180 C   0  0  1  0  0  0  0  0  0  0  0  0
  188.8510  178.4600  142.8290 C   0  0  0  0  0  2  0  0  0  0  0  0
  185.8230  178.4670  140.1900 S   0  0  0  0  0  0  0  0  0  0  0  0
  183.9550  178.6630  144.3350 C   0  0  2  0  0  3  0  0  0  0  0  0
  186.6690  178.7200  141.7710 C   0  0  2  0  0  3  0  0  0  0  0  0
  188.5570  178.3840  140.3380 C   0  0  0  0  0  2  0  0  0  0  0  0
  184.6800  178.6300  145.6890 C   0  0  0  0  0  2  0  0  0  0  0  0
  187.9820  178.0010  141.6770 C   0  0  1  0  0  3  0  0  0  0  0  0
  185.8420  178.2360  142.9650 C   0  0  2  0  0  3  0  0  0  0  0  0
  187.4700  176.9680  138.6910 N   0  0  0  0  0  1  0  0  0  0  0  0
  187.4250  178.2720  139.3280 C   0  0  1  0  0  3  0  0  0  0  0  0
  186.1360  176.7100  144.9910 C   0  0  0  0  0  2  0  0  0  0  0  0
  186.1180  178.0910  145.6210 C   0  0  1  0  0  3  0  0  0  0  0  0
  185.3430  180.3730  143.6460 O   0  0  0  0  0  1  0  0  0  0  0  0
  184.7750  179.2020  143.2470 N   0  0  0  0  0  0  0  0  0  0  0  0
  182.6570  179.2210  144.3740 O   0  0  0  0  0  0  0  0  0  0  0  0
  181.1580  179.9100  142.7960 O   0  0  0  0  0  1  0  0  0  0  0  0
  181.9590  178.8490  143.2160 C   0  0  0  0  0  2  0  0  0  0  0  0
  189.0880  176.8110  144.7580 C   0  0  2  0  0  3  0  0  0  0  0  0
  189.9300  177.2100  145.9880 C   0  0  0  0  0  3  0  0  0  0  0  0
  190.2600  176.0120  146.8750 C   0  0  0  0  0  2  0  0  0  0  0  0
  191.7040  176.0760  147.3330 C   0  0  0  0  0  1  0  0  0  0  0  0
  189.2680  178.3240  146.8050 C   0  0  0  0  0  2  0  0  0  0  0  0
  188.7040  177.8170  148.1250 C   0  0  0  0  0  1  0  0  0  0  0  0
  189.8840  176.2370  143.7590 O   0  0  0  0  0  0  0  0  0  0  0  0
  191.1970  176.5130  144.1410 C   0  0  0  0  0  2  0  0  0  0  0  0
  191.7680  177.5480  143.2400 C   0  0  0  0  0  0  0  0  0  0  0  0
  192.0540  178.8150  143.7300 O   0  0  0  0  0  1  0  0  0  0  0  0
  192.0230  177.2670  142.0400 O   0  0  0  0  0  0  0  0  0  0  0  0
  1  2  1  0  0  0  0
  1 20  1  6  0  0  0
  2 13  1  6  0  0  0
  2 14  1  0  0  0  0
  3  1  1  0  0  0  0
  5 17  1  1  0  0  0
  5  8  1  0  0  0  0
  6  4  1  6  0  0  0
  6 10  1  0  0  0  0
  9  7  1  6  0  0  0
  9  6  1  0  0  0  0
  9  3  1  0  0  0  0
 10 16  1  1  0  0  0
 10  2  1  0  0  0  0
 12 11  1  1  0  0  0
 12  4  1  0  0  0  0
 12  7  1  0  0  0  0
 14 13  1  6  0  0  0
 14  8  1  0  0  0  0
 16 15  1  0  0  0  0
 16  5  1  0  0  0  0
 18 19  1  0  0  0  0
 19 17  1  0  0  0  0
 20 26  1  6  0  0  0
 20 21  1  0  0  0  0
 21 24  1  0  0  0  0
 21 22  1  0  0  0  0
 22 23  1  0  0  0  0
 24 25  1  0  0  0  0
 26 27  1  0  0  0  0
 28 29  1  0  0  0  0
 28 27  1  0  0  0  0
 30 28  2  0  0  0  0
M  END
>  <MODEL>
9

>  <REMARK>
 VINA RESULT:      -5.4      1.530      2.163
  Name = 
  9 active torsions:
  status: ('A' for Active; 'I' for Inactive)
    1  A    between atoms: C_1  and  C_22
    2  A    between atoms: C_2  and  C_14
    3  A    between atoms: C_3  and  C_19
    4  A    between atoms: C_7  and  O_16
    5  A    between atoms: C_14  and  C_20
    6  A    between atoms: C_14  and  C_22
    7  A    between atoms: O_16  and  C_26
    8  A    between atoms: C_19  and  O_29
    9  A    between atoms: C_22  and  O_29
                            x       y       z     vdW  Elec       q    Type
                         _______ _______ _______ _____ _____    ______ ____

>  <TORSDO>
F 9

$$$$
