=
 OpenBabel10262423113D

 34 39  0  0  1  0  0  0  0  0999 V2000
  182.6320  177.9120  140.9140 C   0  0  0  0  0  0  0  0  0  0  0  0
  179.9940  175.8580  139.1710 C   0  0  0  0  0  3  0  0  0  0  0  0
  179.8030  177.7080  140.6760 N   0  0  0  0  0  0  0  0  0  0  0  0
  184.1030  178.0290  142.9640 C   0  0  2  0  0  3  0  0  0  0  0  0
  184.0420  177.9050  141.4200 C   0  0  0  0  0  2  0  0  0  0  0  0
  182.0760  179.6010  142.6600 C   0  0  1  0  0  3  0  0  0  0  0  0
  180.7600  179.9440  143.2510 N   0  0  0  0  0  0  0  0  0  0  0  0
  182.9150  178.7730  143.6390 C   0  0  0  0  0  2  0  0  0  0  0  0
  180.3820  178.6440  141.3610 C   0  0  0  0  0  0  0  0  0  0  0  0
  181.7840  178.7660  141.4720 C   0  0  0  0  0  0  0  0  0  0  0  0
  179.7820  179.3560  142.4160 N   0  0  0  0  0  0  0  0  0  0  0  0
  180.7760  174.8810  138.3420 C   0  0  0  0  0  2  0  0  0  0  0  0
  181.4600  175.5210  137.1220 C   0  0  2  0  0  3  0  0  0  0  0  0
  181.8560  177.0040  137.2970 C   0  0  0  0  0  2  0  0  0  0  0  0
  180.6010  176.8190  139.8710 C   0  0  0  0  0  0  0  0  0  0  0  0
  182.7550  177.2620  138.5100 C   0  0  0  0  0  2  0  0  0  0  0  0
  182.1340  176.9270  139.8780 C   0  0  1  0  0  3  0  0  0  0  0  0
  187.9190  178.0470  143.6050 C   0  0  0  0  0  2  0  0  0  0  0  0
  185.7590  177.9410  145.8590 C   0  0  0  0  0  2  0  0  0  0  0  0
  189.9130  177.0860  146.6630 C   0  0  0  0  0  0  0  0  0  0  0  0
  189.5270  177.3780  145.3500 C   0  0  0  0  0  3  0  0  0  0  0  0
  188.1970  177.6730  145.0350 C   0  0  0  0  0  0  0  0  0  0  0  0
  185.4700  178.5510  143.4120 C   0  0  1  0  0  3  0  0  0  0  0  0
  187.6220  177.4040  147.3840 C   0  0  0  0  0  3  0  0  0  0  0  0
  187.2290  177.7080  146.0760 C   0  0  0  0  0  0  0  0  0  0  0  0
  188.9520  177.1010  147.6780 C   0  0  0  0  0  3  0  0  0  0  0  0
  185.4750  179.0570  144.8630 C   0  0  0  0  0  2  0  0  0  0  0  0
  186.5760  177.5400  143.1060 C   0  0  0  0  0  2  0  0  0  0  0  0
  191.3190  176.7720  146.9680 C   0  0  0  0  0  0  0  0  0  0  0  0
  191.8310  177.1320  148.0610 O   0  0  0  0  0  1  0  0  0  0  0  0
  192.0950  176.0730  146.0500 O   0  0  0  0  0  0  0  0  0  0  0  0
  180.6570  175.2850  135.9180 N   0  0  0  0  0  0  0  0  0  0  0  0
  181.4480  175.4060  134.8230 O   0  0  0  0  0  1  0  0  0  0  0  0
  180.1620  173.9170  135.9480 C   0  0  0  0  0  1  0  0  0  0  0  0
  1  5  1  0  0  0  0
  1 10  2  0  0  0  0
  2 15  2  0  0  0  0
  3  9  2  0  0  0  0
  4  5  1  6  0  0  0
  4 23  1  0  0  0  0
  4  8  1  0  0  0  0
  6  7  1  0  0  0  0
  6  8  1  1  0  0  0
  9 10  1  0  0  0  0
  9 11  1  0  0  0  0
 10  6  1  0  0  0  0
 11  7  2  0  0  0  0
 12  2  1  0  0  0  0
 13 32  1  6  0  0  0
 13 14  1  0  0  0  0
 13 12  1  0  0  0  0
 14 16  1  0  0  0  0
 15 17  1  0  0  0  0
 15  3  1  0  0  0  0
 17 16  1  6  0  0  0
 17  1  1  0  0  0  0
 18 22  1  0  0  0  0
 19 25  1  0  0  0  0
 20 29  1  0  0  0  0
 20 26  1  0  0  0  0
 21 20  2  0  0  0  0
 22 21  1  0  0  0  0
 22 25  2  0  0  0  0
 23 28  1  1  0  0  0
 23 27  1  0  0  0  0
 24 26  2  0  0  0  0
 25 24  1  0  0  0  0
 27 19  1  0  0  0  0
 28 18  1  0  0  0  0
 29 30  1  0  0  0  0
 31 29  2  0  0  0  0
 32 34  1  0  0  0  0
 33 32  1  0  0  0  0
M  END
>  <MODEL>
1

>  <REMARK>
 VINA RESULT:     -10.0      0.000      0.000
  Name = 
  3 active torsions:
  status: ('A' for Active; 'I' for Inactive)
    1  A    between atoms: N_3  and  C_25
    2  A    between atoms: C_7  and  C_11
    3  A    between atoms: C_8  and  C_18
                            x       y       z     vdW  Elec       q    Type
                         _______ _______ _______ _____ _____    ______ ____

>  <TORSDO>
F 3

$$$$
=
 OpenBabel10262423113D

 34 39  0  0  1  0  0  0  0  0999 V2000
  191.0250  176.5220  138.0640 C   0  0  0  0  0  0  0  0  0  0  0  0
  191.8640  173.7820  135.6150 C   0  0  0  0  0  3  0  0  0  0  0  0
  190.3660  175.6380  135.4400 N   0  0  0  0  0  0  0  0  0  0  0  0
  189.5380  177.1320  140.0130 C   0  0  2  0  0  3  0  0  0  0  0  0
  190.9850  176.8850  139.5180 C   0  0  0  0  0  2  0  0  0  0  0  0
  189.1830  178.1540  137.6680 C   0  0  1  0  0  3  0  0  0  0  0  0
  188.2080  178.2170  136.5520 N   0  0  0  0  0  0  0  0  0  0  0  0
  188.5200  177.6210  138.9420 C   0  0  0  0  0  2  0  0  0  0  0  0
  189.8910  176.7310  135.9500 C   0  0  0  0  0  0  0  0  0  0  0  0
  190.2240  177.1890  137.2440 C   0  0  0  0  0  0  0  0  0  0  0  0
  188.6980  177.3560  135.5430 N   0  0  0  0  0  0  0  0  0  0  0  0
  192.9020  172.9600  136.3230 C   0  0  0  0  0  2  0  0  0  0  0  0
  194.2710  173.6520  136.4230 C   0  0  2  0  0  3  0  0  0  0  0  0
  194.2210  175.1960  136.4730 C   0  0  0  0  0  2  0  0  0  0  0  0
  191.3840  174.9060  136.1490 C   0  0  0  0  0  0  0  0  0  0  0  0
  193.3500  175.7460  137.6060 C   0  0  0  0  0  2  0  0  0  0  0  0
  191.8570  175.3750  137.5340 C   0  0  1  0  0  3  0  0  0  0  0  0
  190.2770  178.1650  143.6680 C   0  0  0  0  0  2  0  0  0  0  0  0
  187.4400  177.4280  142.5910 C   0  0  0  0  0  2  0  0  0  0  0  0
  188.2510  177.7090  146.8210 C   0  0  0  0  0  0  0  0  0  0  0  0
  189.3000  177.9160  145.9180 C   0  0  0  0  0  3  0  0  0  0  0  0
  189.0910  177.8470  144.5370 C   0  0  0  0  0  0  0  0  0  0  0  0
  189.5370  177.9930  141.2780 C   0  0  1  0  0  3  0  0  0  0  0  0
  186.7400  177.3790  144.9550 C   0  0  0  0  0  3  0  0  0  0  0  0
  187.7810  177.5950  144.0450 C   0  0  0  0  0  0  0  0  0  0  0  0
  186.9690  177.4400  146.3300 C   0  0  0  0  0  3  0  0  0  0  0  0
  188.1300  178.4480  141.6960 C   0  0  0  0  0  2  0  0  0  0  0  0
  190.3300  177.3260  142.4020 C   0  0  0  0  0  2  0  0  0  0  0  0
  188.4980  177.7800  148.2700 C   0  0  0  0  0  0  0  0  0  0  0  0
  187.6200  177.3940  149.0870 O   0  0  0  0  0  1  0  0  0  0  0  0
  189.7060  178.2730  148.7510 O   0  0  0  0  0  0  0  0  0  0  0  0
  195.1640  173.1460  135.3750 N   0  0  0  0  0  0  0  0  0  0  0  0
  196.1300  174.0670  135.1300 O   0  0  0  0  0  1  0  0  0  0  0  0
  195.8230  171.9450  135.8640 C   0  0  0  0  0  1  0  0  0  0  0  0
  1  5  1  0  0  0  0
  2 15  2  0  0  0  0
  2 12  1  0  0  0  0
  3  9  2  0  0  0  0
  3 15  1  0  0  0  0
  4  8  1  6  0  0  0
  4 23  1  0  0  0  0
  5  4  1  0  0  0  0
  6  8  1  1  0  0  0
  7  6  1  0  0  0  0
  9 10  1  0  0  0  0
 10  6  1  0  0  0  0
 10  1  2  0  0  0  0
 11  9  1  0  0  0  0
 11  7  2  0  0  0  0
 12 13  1  0  0  0  0
 13 32  1  6  0  0  0
 13 14  1  0  0  0  0
 14 16  1  0  0  0  0
 15 17  1  0  0  0  0
 17 16  1  6  0  0  0
 17  1  1  0  0  0  0
 18 22  1  0  0  0  0
 19 25  1  0  0  0  0
 20 29  1  0  0  0  0
 21 20  2  0  0  0  0
 22 21  1  0  0  0  0
 23 27  1  1  0  0  0
 23 28  1  0  0  0  0
 24 26  2  0  0  0  0
 25 22  2  0  0  0  0
 25 24  1  0  0  0  0
 26 20  1  0  0  0  0
 27 19  1  0  0  0  0
 28 18  1  0  0  0  0
 29 31  2  0  0  0  0
 29 30  1  0  0  0  0
 32 34  1  0  0  0  0
 33 32  1  0  0  0  0
M  END
>  <MODEL>
2

>  <REMARK>
 VINA RESULT:      -9.8      7.002      8.928
  Name = 
  3 active torsions:
  status: ('A' for Active; 'I' for Inactive)
    1  A    between atoms: N_3  and  C_25
    2  A    between atoms: C_7  and  C_11
    3  A    between atoms: C_8  and  C_18
                            x       y       z     vdW  Elec       q    Type
                         _______ _______ _______ _____ _____    ______ ____

>  <TORSDO>
F 3

$$$$
=
 OpenBabel10262423113D

 34 39  0  0  1  0  0  0  0  0999 V2000
  181.7100  177.3040  139.8740 C   0  0  0  0  0  0  0  0  0  0  0  0
  179.0780  174.9510  138.5530 C   0  0  0  0  0  3  0  0  0  0  0  0
  179.0160  177.3080  138.9580 N   0  0  0  0  0  0  0  0  0  0  0  0
  182.7290  178.2490  141.9840 C   0  0  2  0  0  3  0  0  0  0  0  0
  182.9510  177.3960  140.7100 C   0  0  0  0  0  2  0  0  0  0  0  0
  181.2160  179.6770  140.4530 C   0  0  1  0  0  3  0  0  0  0  0  0
  179.9220  180.4000  140.4290 N   0  0  0  0  0  0  0  0  0  0  0  0
  181.6300  179.3480  141.8910 C   0  0  0  0  0  2  0  0  0  0  0  0
  179.6430  178.3920  139.2910 C   0  0  0  0  0  0  0  0  0  0  0  0
  180.9860  178.4050  139.7300 C   0  0  0  0  0  0  0  0  0  0  0  0
  179.0230  179.5860  139.7010 N   0  0  0  0  0  0  0  0  0  0  0  0
  179.7660  173.6180  138.5030 C   0  0  0  0  0  2  0  0  0  0  0  0
  180.8090  173.5060  137.3780 C   0  0  2  0  0  3  0  0  0  0  0  0
  181.4880  174.8360  136.9810 C   0  0  0  0  0  2  0  0  0  0  0  0
  179.7340  176.0610  138.8950 C   0  0  0  0  0  0  0  0  0  0  0  0
  182.1610  175.5560  138.1540 C   0  0  0  0  0  2  0  0  0  0  0  0
  181.2190  175.9980  139.2890 C   0  0  1  0  0  3  0  0  0  0  0  0
  186.3780  178.1750  143.2680 C   0  0  0  0  0  2  0  0  0  0  0  0
  183.9000  178.8190  145.0560 C   0  0  0  0  0  2  0  0  0  0  0  0
  187.7590  177.9260  146.7720 C   0  0  0  0  0  0  0  0  0  0  0  0
  187.6140  177.8850  145.3810 C   0  0  0  0  0  3  0  0  0  0  0  0
  186.3890  178.1760  144.7710 C   0  0  0  0  0  0  0  0  0  0  0  0
  184.0600  178.7760  142.5230 C   0  0  1  0  0  3  0  0  0  0  0  0
  185.4340  178.5800  146.9720 C   0  0  0  0  0  3  0  0  0  0  0  0
  185.2830  178.5520  145.5820 C   0  0  0  0  0  0  0  0  0  0  0  0
  186.6600  178.2750  147.5650 C   0  0  0  0  0  3  0  0  0  0  0  0
  183.8990  179.6480  143.7790 C   0  0  0  0  0  2  0  0  0  0  0  0
  185.0790  177.6470  142.6810 C   0  0  0  0  0  2  0  0  0  0  0  0
  189.0560  177.6090  147.3900 C   0  0  0  0  0  0  0  0  0  0  0  0
  189.4060  178.1670  148.4640 O   0  0  0  0  0  1  0  0  0  0  0  0
  189.9100  176.6880  146.7930 O   0  0  0  0  0  0  0  0  0  0  0  0
  180.2300  172.8000  136.2300 N   0  0  0  0  0  0  0  0  0  0  0  0
  181.1860  172.0290  135.6540 O   0  0  0  0  0  1  0  0  0  0  0  0
  179.1830  171.9100  136.7090 C   0  0  0  0  0  1  0  0  0  0  0  0
  1  5  1  0  0  0  0
  2 15  2  0  0  0  0
  3  9  2  0  0  0  0
  4  5  1  6  0  0  0
  4 23  1  0  0  0  0
  6  8  1  1  0  0  0
  7  6  1  0  0  0  0
  8  4  1  0  0  0  0
  9 11  1  0  0  0  0
  9 10  1  0  0  0  0
 10  1  2  0  0  0  0
 10  6  1  0  0  0  0
 11  7  2  0  0  0  0
 12  2  1  0  0  0  0
 13 32  1  6  0  0  0
 13 12  1  0  0  0  0
 14 13  1  0  0  0  0
 14 16  1  0  0  0  0
 15  3  1  0  0  0  0
 15 17  1  0  0  0  0
 17 16  1  6  0  0  0
 17  1  1  0  0  0  0
 18 22  1  0  0  0  0
 19 25  1  0  0  0  0
 20 29  1  0  0  0  0
 20 26  1  0  0  0  0
 21 20  2  0  0  0  0
 22 21  1  0  0  0  0
 22 25  2  0  0  0  0
 23 28  1  1  0  0  0
 23 27  1  0  0  0  0
 24 26  2  0  0  0  0
 25 24  1  0  0  0  0
 27 19  1  0  0  0  0
 28 18  1  0  0  0  0
 29 30  1  0  0  0  0
 31 29  2  0  0  0  0
 32 34  1  0  0  0  0
 33 32  1  0  0  0  0
M  END
>  <MODEL>
3

>  <REMARK>
 VINA RESULT:      -9.0      1.612      2.164
  Name = 
  3 active torsions:
  status: ('A' for Active; 'I' for Inactive)
    1  A    between atoms: N_3  and  C_25
    2  A    between atoms: C_7  and  C_11
    3  A    between atoms: C_8  and  C_18
                            x       y       z     vdW  Elec       q    Type
                         _______ _______ _______ _____ _____    ______ ____

>  <TORSDO>
F 3

$$$$
=
 OpenBabel10262423113D

 34 39  0  0  1  0  0  0  0  0999 V2000
  190.3080  176.9460  140.6700 C   0  0  0  0  0  0  0  0  0  0  0  0
  190.2910  178.8610  143.9170 C   0  0  0  0  0  3  0  0  0  0  0  0
  188.6400  178.6750  142.1960 N   0  0  0  0  0  0  0  0  0  0  0  0
  190.9980  177.0510  138.2420 C   0  0  2  0  0  3  0  0  0  0  0  0
  191.1870  176.3510  139.6110 C   0  0  0  0  0  2  0  0  0  0  0  0
  188.5200  177.2050  138.9530 C   0  0  1  0  0  3  0  0  0  0  0  0
  187.3520  178.1190  138.9430 N   0  0  0  0  0  0  0  0  0  0  0  0
  189.6040  177.6940  137.9870 C   0  0  0  0  0  2  0  0  0  0  0  0
  188.2520  178.1280  141.0870 C   0  0  0  0  0  0  0  0  0  0  0  0
  189.0630  177.2540  140.3300 C   0  0  0  0  0  0  0  0  0  0  0  0
  187.2320  178.6280  140.2570 N   0  0  0  0  0  0  0  0  0  0  0  0
  191.6090  178.5230  144.5500 C   0  0  0  0  0  2  0  0  0  0  0  0
  191.6800  177.0860  145.0920 C   0  0  2  0  0  3  0  0  0  0  0  0
  190.8040  176.0590  144.3410 C   0  0  0  0  0  2  0  0  0  0  0  0
  189.9010  178.2890  142.7760 C   0  0  0  0  0  0  0  0  0  0  0  0
  191.0890  175.9930  142.8370 C   0  0  0  0  0  2  0  0  0  0  0  0
  190.8170  177.2890  142.0520 C   0  0  1  0  0  3  0  0  0  0  0  0
  191.6820  173.7740  136.3010 C   0  0  0  0  0  2  0  0  0  0  0  0
  193.9130  175.6220  137.4690 C   0  0  0  0  0  2  0  0  0  0  0  0
  194.7740  171.6160  136.1110 C   0  0  0  0  0  0  0  0  0  0  0  0
  193.4530  172.0760  136.0590 C   0  0  0  0  0  3  0  0  0  0  0  0
  193.1190  173.3680  136.4770 C   0  0  0  0  0  0  0  0  0  0  0  0
  191.4560  176.1400  137.1000 C   0  0  1  0  0  3  0  0  0  0  0  0
  195.4650  173.7660  136.9870 C   0  0  0  0  0  3  0  0  0  0  0  0
  194.1490  174.2390  136.9290 C   0  0  0  0  0  0  0  0  0  0  0  0
  195.7780  172.4700  136.5770 C   0  0  0  0  0  3  0  0  0  0  0  0
  192.9000  176.4140  136.6530 C   0  0  0  0  0  2  0  0  0  0  0  0
  191.1750  174.6710  137.4180 C   0  0  0  0  0  2  0  0  0  0  0  0
  195.0980  170.2490  135.6720 C   0  0  0  0  0  0  0  0  0  0  0  0
  194.3260  169.6280  134.8930 O   0  0  0  0  0  0  0  0  0  0  0  0
  196.2620  169.6300  136.1130 O   0  0  0  0  0  1  0  0  0  0  0  0
  191.4400  177.0860  146.5400 N   0  0  0  0  0  0  0  0  0  0  0  0
  190.1060  177.0020  146.7700 O   0  0  0  0  0  1  0  0  0  0  0  0
  192.0560  175.8990  147.1140 C   0  0  0  0  0  1  0  0  0  0  0  0
  1 17  1  0  0  0  0
  2 12  1  0  0  0  0
  3 15  1  0  0  0  0
  4  8  1  6  0  0  0
  4  5  1  0  0  0  0
  5  1  1  0  0  0  0
  6  8  1  6  0  0  0
  6 10  1  0  0  0  0
  7  6  1  0  0  0  0
  7 11  2  0  0  0  0
  9  3  2  0  0  0  0
 10  1  2  0  0  0  0
 10  9  1  0  0  0  0
 11  9  1  0  0  0  0
 12 13  1  0  0  0  0
 13 32  1  1  0  0  0
 14 13  1  0  0  0  0
 15  2  2  0  0  0  0
 16 14  1  0  0  0  0
 17 15  1  0  0  0  0
 17 16  1  1  0  0  0
 18 22  1  0  0  0  0
 18 28  1  0  0  0  0
 20 26  1  0  0  0  0
 21 20  2  0  0  0  0
 21 22  1  0  0  0  0
 22 25  2  0  0  0  0
 23 27  1  1  0  0  0
 23 28  1  0  0  0  0
 23  4  1  0  0  0  0
 25 24  1  0  0  0  0
 25 19  1  0  0  0  0
 26 24  2  0  0  0  0
 27 19  1  0  0  0  0
 29 20  1  0  0  0  0
 29 31  1  0  0  0  0
 30 29  2  0  0  0  0
 32 33  1  0  0  0  0
 32 34  1  0  0  0  0
M  END
>  <MODEL>
4

>  <REMARK>
 VINA RESULT:      -8.4      7.876     11.190
  Name = 
  3 active torsions:
  status: ('A' for Active; 'I' for Inactive)
    1  A    between atoms: N_3  and  C_25
    2  A    between atoms: C_7  and  C_11
    3  A    between atoms: C_8  and  C_18
                            x       y       z     vdW  Elec       q    Type
                         _______ _______ _______ _____ _____    ______ ____

>  <TORSDO>
F 3

$$$$
=
 OpenBabel10262423113D

 34 39  0  0  1  0  0  0  0  0999 V2000
  188.4830  175.8190  137.3420 C   0  0  0  0  0  0  0  0  0  0  0  0
  186.4890  173.4180  135.2270 C   0  0  0  0  0  3  0  0  0  0  0  0
  186.8580  175.7700  135.0050 N   0  0  0  0  0  0  0  0  0  0  0  0
  188.3850  177.3100  139.3790 C   0  0  2  0  0  3  0  0  0  0  0  0
  189.0300  176.0670  138.7150 C   0  0  0  0  0  2  0  0  0  0  0  0
  188.4190  178.2850  136.9880 C   0  0  1  0  0  3  0  0  0  0  0  0
  187.6050  179.0770  136.0330 N   0  0  0  0  0  0  0  0  0  0  0  0
  187.8670  178.4130  138.4110 C   0  0  0  0  0  2  0  0  0  0  0  0
  187.4650  176.8410  135.4130 C   0  0  0  0  0  0  0  0  0  0  0  0
  188.2880  176.8730  136.5600 C   0  0  0  0  0  0  0  0  0  0  0  0
  187.0740  178.1550  135.1010 N   0  0  0  0  0  0  0  0  0  0  0  0
  186.6990  172.0850  135.8860 C   0  0  0  0  0  2  0  0  0  0  0  0
  188.1110  171.5120  135.6770 C   0  0  2  0  0  3  0  0  0  0  0  0
  189.2260  172.5660  135.5050 C   0  0  0  0  0  2  0  0  0  0  0  0
  187.1220  174.5120  135.6540 C   0  0  0  0  0  0  0  0  0  0  0  0
  189.3090  173.5670  136.6610 C   0  0  0  0  0  2  0  0  0  0  0  0
  188.0610  174.4450  136.8690 C   0  0  1  0  0  3  0  0  0  0  0  0
  191.0790  177.3250  142.1570 C   0  0  0  0  0  2  0  0  0  0  0  0
  188.0170  177.6530  142.6770 C   0  0  0  0  0  2  0  0  0  0  0  0
  190.7820  176.8260  145.8870 C   0  0  0  0  0  0  0  0  0  0  0  0
  191.2720  176.9080  144.5790 C   0  0  0  0  0  3  0  0  0  0  0  0
  190.4230  177.1840  143.5030 C   0  0  0  0  0  0  0  0  0  0  0  0
  189.2850  177.8600  140.4880 C   0  0  1  0  0  3  0  0  0  0  0  0
  188.5590  177.3230  145.0610 C   0  0  0  0  0  3  0  0  0  0  0  0
  189.0420  177.4180  143.7510 C   0  0  0  0  0  0  0  0  0  0  0  0
  189.4190  177.0350  146.1210 C   0  0  0  0  0  3  0  0  0  0  0  0
  188.5040  178.5980  141.5860 C   0  0  0  0  0  2  0  0  0  0  0  0
  190.2290  176.7810  141.0200 C   0  0  0  0  0  2  0  0  0  0  0  0
  191.6950  176.5270  147.0020 C   0  0  0  0  0  0  0  0  0  0  0  0
  191.7130  177.2590  148.0270 O   0  0  0  0  0  1  0  0  0  0  0  0
  192.5480  175.4310  146.9340 O   0  0  0  0  0  0  0  0  0  0  0  0
  188.0920  170.5220  134.5940 N   0  0  0  0  0  0  0  0  0  0  0  0
  189.0950  169.6290  134.7890 O   0  0  0  0  0  1  0  0  0  0  0  0
  186.8370  169.7880  134.6550 C   0  0  0  0  0  1  0  0  0  0  0  0
  1  5  1  0  0  0  0
  2 15  2  0  0  0  0
  2 12  1  0  0  0  0
  3  9  2  0  0  0  0
  3 15  1  0  0  0  0
  4  8  1  6  0  0  0
  4 23  1  0  0  0  0
  5  4  1  0  0  0  0
  6  8  1  1  0  0  0
  7  6  1  0  0  0  0
  9 10  1  0  0  0  0
 10  6  1  0  0  0  0
 10  1  2  0  0  0  0
 11  9  1  0  0  0  0
 11  7  2  0  0  0  0
 13 32  1  6  0  0  0
 13 12  1  0  0  0  0
 14 13  1  0  0  0  0
 14 16  1  0  0  0  0
 15 17  1  0  0  0  0
 17 16  1  6  0  0  0
 17  1  1  0  0  0  0
 18 22  1  0  0  0  0
 19 25  1  0  0  0  0
 20 26  1  0  0  0  0
 20 29  1  0  0  0  0
 21 20  2  0  0  0  0
 22 25  2  0  0  0  0
 22 21  1  0  0  0  0
 23 28  1  1  0  0  0
 23 27  1  0  0  0  0
 24 26  2  0  0  0  0
 25 24  1  0  0  0  0
 27 19  1  0  0  0  0
 28 18  1  0  0  0  0
 29 30  1  0  0  0  0
 31 29  2  0  0  0  0
 32 34  1  0  0  0  0
 32 33  1  0  0  0  0
M  END
>  <MODEL>
5

>  <REMARK>
 VINA RESULT:      -8.4      5.525      6.603
  Name = 
  3 active torsions:
  status: ('A' for Active; 'I' for Inactive)
    1  A    between atoms: N_3  and  C_25
    2  A    between atoms: C_7  and  C_11
    3  A    between atoms: C_8  and  C_18
                            x       y       z     vdW  Elec       q    Type
                         _______ _______ _______ _____ _____    ______ ____

>  <TORSDO>
F 3

$$$$
=
 OpenBabel10262423113D

 34 39  0  0  1  0  0  0  0  0999 V2000
  190.3130  176.5060  138.2190 C   0  0  0  0  0  0  0  0  0  0  0  0
  189.6450  173.9390  135.5410 C   0  0  0  0  0  3  0  0  0  0  0  0
  189.0220  176.2420  135.6970 N   0  0  0  0  0  0  0  0  0  0  0  0
  189.4660  177.4390  140.4090 C   0  0  2  0  0  3  0  0  0  0  0  0
  190.6120  176.6960  139.6760 C   0  0  0  0  0  2  0  0  0  0  0  0
  189.2600  178.7650  138.2010 C   0  0  1  0  0  3  0  0  0  0  0  0
  188.2610  179.3280  137.2610 N   0  0  0  0  0  0  0  0  0  0  0  0
  188.6070  178.4020  139.5390 C   0  0  0  0  0  2  0  0  0  0  0  0
  189.1020  177.3720  136.3270 C   0  0  0  0  0  0  0  0  0  0  0  0
  189.7560  177.5200  137.5710 C   0  0  0  0  0  0  0  0  0  0  0  0
  188.2250  178.4570  136.1470 N   0  0  0  0  0  0  0  0  0  0  0  0
  190.3410  172.7030  136.0340 C   0  0  0  0  0  2  0  0  0  0  0  0
  191.8740  172.7840  135.9450 C   0  0  2  0  0  3  0  0  0  0  0  0
  192.4630  174.2060  136.0740 C   0  0  0  0  0  2  0  0  0  0  0  0
  189.7370  175.0970  136.1970 C   0  0  0  0  0  0  0  0  0  0  0  0
  192.0430  174.9300  137.3570 C   0  0  0  0  0  2  0  0  0  0  0  0
  190.5320  175.1880  137.5090 C   0  0  1  0  0  3  0  0  0  0  0  0
  191.6700  177.9760  143.5430 C   0  0  0  0  0  2  0  0  0  0  0  0
  188.6780  177.0850  143.6310 C   0  0  0  0  0  2  0  0  0  0  0  0
  191.2260  176.8040  147.1040 C   0  0  0  0  0  0  0  0  0  0  0  0
  191.7720  177.2700  145.9030 C   0  0  0  0  0  3  0  0  0  0  0  0
  190.9900  177.3910  144.7500 C   0  0  0  0  0  0  0  0  0  0  0  0
  189.9780  178.0890  141.6960 C   0  0  1  0  0  3  0  0  0  0  0  0
  189.0720  176.5900  146.0150 C   0  0  0  0  0  3  0  0  0  0  0  0
  189.6070  177.0650  144.8130 C   0  0  0  0  0  0  0  0  0  0  0  0
  189.8700  176.4650  147.1530 C   0  0  0  0  0  3  0  0  0  0  0  0
  188.8720  178.3050  142.7420 C   0  0  0  0  0  2  0  0  0  0  0  0
  191.2050  177.3540  142.2370 C   0  0  0  0  0  2  0  0  0  0  0  0
  192.0720  176.6790  148.3020 C   0  0  0  0  0  0  0  0  0  0  0  0
  192.5770  175.5680  148.6140 O   0  0  0  0  0  0  0  0  0  0  0  0
  192.3230  177.7890  149.1010 O   0  0  0  0  0  1  0  0  0  0  0  0
  192.3420  172.0820  134.7440 N   0  0  0  0  0  0  0  0  0  0  0  0
  193.6740  172.2950  134.5950 O   0  0  0  0  0  1  0  0  0  0  0  0
  192.1480  170.6530  134.9340 C   0  0  0  0  0  1  0  0  0  0  0  0
  1  5  1  0  0  0  0
  2 12  1  0  0  0  0
  2 15  2  0  0  0  0
  3 15  1  0  0  0  0
  3  9  2  0  0  0  0
  4  8  1  6  0  0  0
  4 23  1  0  0  0  0
  5  4  1  0  0  0  0
  6  8  1  1  0  0  0
  7  6  1  0  0  0  0
  9 10  1  0  0  0  0
 10  6  1  0  0  0  0
 10  1  2  0  0  0  0
 11  9  1  0  0  0  0
 11  7  2  0  0  0  0
 13 32  1  6  0  0  0
 13 12  1  0  0  0  0
 13 14  1  0  0  0  0
 14 16  1  0  0  0  0
 15 17  1  0  0  0  0
 17 16  1  6  0  0  0
 17  1  1  0  0  0  0
 18 22  1  0  0  0  0
 19 25  1  0  0  0  0
 20 26  1  0  0  0  0
 20 29  1  0  0  0  0
 21 20  2  0  0  0  0
 22 25  2  0  0  0  0
 22 21  1  0  0  0  0
 23 28  1  1  0  0  0
 23 27  1  0  0  0  0
 24 26  2  0  0  0  0
 25 24  1  0  0  0  0
 27 19  1  0  0  0  0
 28 18  1  0  0  0  0
 29 30  2  0  0  0  0
 29 31  1  0  0  0  0
 32 34  1  0  0  0  0
 33 32  1  0  0  0  0
M  END
>  <MODEL>
6

>  <REMARK>
 VINA RESULT:      -8.1      6.485      7.851
  Name = 
  3 active torsions:
  status: ('A' for Active; 'I' for Inactive)
    1  A    between atoms: N_3  and  C_25
    2  A    between atoms: C_7  and  C_11
    3  A    between atoms: C_8  and  C_18
                            x       y       z     vdW  Elec       q    Type
                         _______ _______ _______ _____ _____    ______ ____

>  <TORSDO>
F 3

$$$$
=
 OpenBabel10262423113D

 34 39  0  0  1  0  0  0  0  0999 V2000
  186.2260  178.0280  143.5580 C   0  0  0  0  0  0  0  0  0  0  0  0
  189.5410  178.3190  145.3300 C   0  0  0  0  0  3  0  0  0  0  0  0
  187.3060  178.2650  146.1810 N   0  0  0  0  0  0  0  0  0  0  0  0
  184.4050  179.3470  142.4070 C   0  0  2  0  0  3  0  0  0  0  0  0
  185.5130  178.2730  142.2630 C   0  0  0  0  0  2  0  0  0  0  0  0
  184.0480  178.2970  144.7400 C   0  0  1  0  0  3  0  0  0  0  0  0
  183.7850  178.6500  146.1560 N   0  0  0  0  0  0  0  0  0  0  0  0
  183.7670  179.4890  143.8190 C   0  0  0  0  0  2  0  0  0  0  0  0
  186.0380  178.1130  145.9570 C   0  0  0  0  0  0  0  0  0  0  0  0
  185.4920  177.9770  144.6620 C   0  0  0  0  0  0  0  0  0  0  0  0
  185.0140  178.5020  146.8400 N   0  0  0  0  0  0  0  0  0  0  0  0
  190.5560  178.2540  144.2260 C   0  0  0  0  0  2  0  0  0  0  0  0
  190.7070  176.8510  143.6130 C   0  0  2  0  0  3  0  0  0  0  0  0
  189.4340  175.9770  143.6590 C   0  0  0  0  0  2  0  0  0  0  0  0
  188.2380  178.1590  145.0880 C   0  0  0  0  0  0  0  0  0  0  0  0
  188.2150  176.6320  143.0010 C   0  0  0  0  0  2  0  0  0  0  0  0
  187.7340  177.9410  143.6530 C   0  0  1  0  0  3  0  0  0  0  0  0
  181.2380  178.0960  140.5690 C   0  0  0  0  0  2  0  0  0  0  0  0
  184.1580  177.3690  139.7310 C   0  0  0  0  0  2  0  0  0  0  0  0
  180.7530  175.2350  138.1530 C   0  0  0  0  0  0  0  0  0  0  0  0
  180.5370  176.2500  139.0930 C   0  0  0  0  0  3  0  0  0  0  0  0
  181.6030  176.9800  139.6290 C   0  0  0  0  0  0  0  0  0  0  0  0
  183.3670  179.2080  141.2910 C   0  0  1  0  0  3  0  0  0  0  0  0
  183.1320  175.6830  138.2520 C   0  0  0  0  0  3  0  0  0  0  0  0
  182.9250  176.7060  139.1830 C   0  0  0  0  0  0  0  0  0  0  0  0
  182.0590  174.9560  137.7360 C   0  0  0  0  0  3  0  0  0  0  0  0
  183.9890  178.8690  139.9280 C   0  0  0  0  0  2  0  0  0  0  0  0
  182.2340  178.2670  141.7040 C   0  0  0  0  0  2  0  0  0  0  0  0
  179.6150  174.4770  137.6100 C   0  0  0  0  0  0  0  0  0  0  0  0
  178.9490  174.9300  136.6410 O   0  0  0  0  0  0  0  0  0  0  0  0
  179.2650  173.2480  138.1600 O   0  0  0  0  0  1  0  0  0  0  0  0
  191.8780  176.1790  144.1860 N   0  0  0  0  0  0  0  0  0  0  0  0
  191.9780  176.5010  145.5000 O   0  0  0  0  0  1  0  0  0  0  0  0
  191.6780  174.7410  144.1030 C   0  0  0  0  0  1  0  0  0  0  0  0
  1 17  1  0  0  0  0
  1 10  2  0  0  0  0
  4  5  1  1  0  0  0
  4  8  1  0  0  0  0
  5  1  1  0  0  0  0
  6  8  1  6  0  0  0
  6  7  1  0  0  0  0
  7 11  2  0  0  0  0
  9  3  2  0  0  0  0
  9 11  1  0  0  0  0
 10  6  1  0  0  0  0
 10  9  1  0  0  0  0
 12  2  1  0  0  0  0
 13 14  1  0  0  0  0
 13 32  1  1  0  0  0
 13 12  1  0  0  0  0
 15  2  2  0  0  0  0
 15  3  1  0  0  0  0
 16 14  1  0  0  0  0
 17 16  1  1  0  0  0
 17 15  1  0  0  0  0
 18 28  1  0  0  0  0
 19 27  1  0  0  0  0
 20 21  1  0  0  0  0
 21 22  2  0  0  0  0
 22 18  1  0  0  0  0
 23 27  1  6  0  0  0
 23 28  1  0  0  0  0
 23  4  1  0  0  0  0
 24 25  2  0  0  0  0
 25 22  1  0  0  0  0
 25 19  1  0  0  0  0
 26 20  2  0  0  0  0
 26 24  1  0  0  0  0
 29 20  1  0  0  0  0
 29 31  1  0  0  0  0
 30 29  2  0  0  0  0
 32 33  1  0  0  0  0
 34 32  1  0  0  0  0
M  END
>  <MODEL>
7

>  <REMARK>
 VINA RESULT:      -7.8      3.126      9.663
  Name = 
  3 active torsions:
  status: ('A' for Active; 'I' for Inactive)
    1  A    between atoms: N_3  and  C_25
    2  A    between atoms: C_7  and  C_11
    3  A    between atoms: C_8  and  C_18
                            x       y       z     vdW  Elec       q    Type
                         _______ _______ _______ _____ _____    ______ ____

>  <TORSDO>
F 3

$$$$
=
 OpenBabel10262423113D

 34 39  0  0  1  0  0  0  0  0999 V2000
  186.3000  177.8570  143.4160 C   0  0  0  0  0  0  0  0  0  0  0  0
  189.4970  178.5080  145.3050 C   0  0  0  0  0  3  0  0  0  0  0  0
  187.2160  178.5320  146.0250 N   0  0  0  0  0  0  0  0  0  0  0  0
  184.5310  178.9310  141.9670 C   0  0  2  0  0  3  0  0  0  0  0  0
  185.6620  177.8760  142.0590 C   0  0  0  0  0  2  0  0  0  0  0  0
  184.0510  178.2540  144.4130 C   0  0  1  0  0  3  0  0  0  0  0  0
  183.6970  178.8190  145.7380 N   0  0  0  0  0  0  0  0  0  0  0  0
  183.8070  179.2780  143.3000 C   0  0  0  0  0  2  0  0  0  0  0  0
  185.9670  178.3150  145.7560 C   0  0  0  0  0  0  0  0  0  0  0  0
  185.5020  177.9620  144.4700 C   0  0  0  0  0  0  0  0  0  0  0  0
  184.8850  178.8120  146.5060 N   0  0  0  0  0  0  0  0  0  0  0  0
  190.5770  178.2950  144.2850 C   0  0  0  0  0  2  0  0  0  0  0  0
  190.7880  176.8180  143.9120 C   0  0  2  0  0  3  0  0  0  0  0  0
  189.5280  175.9290  144.0230 C   0  0  0  0  0  2  0  0  0  0  0  0
  188.2140  178.2790  145.0170 C   0  0  0  0  0  0  0  0  0  0  0  0
  188.3410  176.4410  143.2020 C   0  0  0  0  0  2  0  0  0  0  0  0
  187.8000  177.8240  143.6090 C   0  0  1  0  0  3  0  0  0  0  0  0
  182.8950  179.0810  138.4640 C   0  0  0  0  0  2  0  0  0  0  0  0
  181.5260  180.0820  141.0860 C   0  0  0  0  0  2  0  0  0  0  0  0
  179.9660  181.0930  137.1900 C   0  0  0  0  0  0  0  0  0  0  0  0
  181.1360  180.3310  137.2700 C   0  0  0  0  0  3  0  0  0  0  0  0
  181.6800  179.9660  138.5070 C   0  0  0  0  0  0  0  0  0  0  0  0
  183.5640  178.5920  140.8300 C   0  0  1  0  0  3  0  0  0  0  0  0
  179.8450  181.1210  139.6100 C   0  0  0  0  0  3  0  0  0  0  0  0
  181.0090  180.3500  139.7000 C   0  0  0  0  0  0  0  0  0  0  0  0
  179.3230  181.4860  138.3690 C   0  0  0  0  0  3  0  0  0  0  0  0
  182.0880  178.6760  141.2500 C   0  0  0  0  0  2  0  0  0  0  0  0
  183.8950  179.3870  139.5670 C   0  0  0  0  0  2  0  0  0  0  0  0
  179.4180  181.4710  135.8770 C   0  0  0  0  0  0  0  0  0  0  0  0
  178.9480  182.6250  135.6890 O   0  0  0  0  0  1  0  0  0  0  0  0
  179.4160  180.5560  134.8300 O   0  0  0  0  0  0  0  0  0  0  0  0
  191.9330  176.2750  144.6500 N   0  0  0  0  0  0  0  0  0  0  0  0
  191.6970  176.3830  145.9820 O   0  0  0  0  0  1  0  0  0  0  0  0
  192.0560  174.8580  144.3430 C   0  0  0  0  0  1  0  0  0  0  0  0
  1 17  1  0  0  0  0
  1 10  2  0  0  0  0
  4  5  1  1  0  0  0
  4  8  1  0  0  0  0
  5  1  1  0  0  0  0
  6  8  1  6  0  0  0
  6 10  1  0  0  0  0
  6  7  1  0  0  0  0
  7 11  2  0  0  0  0
  9  3  2  0  0  0  0
  9 11  1  0  0  0  0
 10  9  1  0  0  0  0
 12  2  1  0  0  0  0
 13 14  1  0  0  0  0
 13 12  1  0  0  0  0
 13 32  1  1  0  0  0
 15  2  2  0  0  0  0
 15  3  1  0  0  0  0
 16 14  1  0  0  0  0
 17 16  1  1  0  0  0
 17 15  1  0  0  0  0
 18 22  1  0  0  0  0
 18 28  1  0  0  0  0
 19 27  1  0  0  0  0
 20 21  2  0  0  0  0
 20 26  1  0  0  0  0
 21 22  1  0  0  0  0
 22 25  2  0  0  0  0
 23 28  1  6  0  0  0
 23 27  1  0  0  0  0
 23  4  1  0  0  0  0
 24 25  1  0  0  0  0
 25 19  1  0  0  0  0
 26 24  2  0  0  0  0
 29 20  1  0  0  0  0
 30 29  1  0  0  0  0
 31 29  2  0  0  0  0
 32 33  1  0  0  0  0
 34 32  1  0  0  0  0
M  END
>  <MODEL>
8

>  <REMARK>
 VINA RESULT:      -7.5      3.742     10.237
  Name = 
  3 active torsions:
  status: ('A' for Active; 'I' for Inactive)
    1  A    between atoms: N_3  and  C_25
    2  A    between atoms: C_7  and  C_11
    3  A    between atoms: C_8  and  C_18
                            x       y       z     vdW  Elec       q    Type
                         _______ _______ _______ _____ _____    ______ ____

>  <TORSDO>
F 3

$$$$
=
 OpenBabel10262423113D

 34 39  0  0  1  0  0  0  0  0999 V2000
  187.7850  175.1590  137.2060 C   0  0  0  0  0  0  0  0  0  0  0  0
  185.3320  173.9890  134.5940 C   0  0  0  0  0  3  0  0  0  0  0  0
  187.7000  173.6980  134.7660 N   0  0  0  0  0  0  0  0  0  0  0  0
  189.2470  177.0950  137.9120 C   0  0  2  0  0  3  0  0  0  0  0  0
  188.0380  176.1920  138.2630 C   0  0  0  0  0  2  0  0  0  0  0  0
  190.2510  174.9280  136.9270 C   0  0  1  0  0  3  0  0  0  0  0  0
  191.0200  174.4130  135.7690 N   0  0  0  0  0  0  0  0  0  0  0  0
  190.3410  176.4550  137.0070 C   0  0  0  0  0  2  0  0  0  0  0  0
  188.7880  173.8480  135.4540 C   0  0  0  0  0  0  0  0  0  0  0  0
  188.8390  174.5550  136.6760 C   0  0  0  0  0  0  0  0  0  0  0  0
  190.0900  173.7590  134.9290 N   0  0  0  0  0  0  0  0  0  0  0  0
  184.0010  174.4690  135.0970 C   0  0  0  0  0  2  0  0  0  0  0  0
  183.4850  173.6830  136.3130 C   0  0  2  0  0  3  0  0  0  0  0  0
  184.5840  173.0940  137.2260 C   0  0  0  0  0  2  0  0  0  0  0  0
  186.4450  174.1470  135.3120 C   0  0  0  0  0  0  0  0  0  0  0  0
  185.5740  174.1400  137.7470 C   0  0  0  0  0  2  0  0  0  0  0  0
  186.4010  174.8660  136.6700 C   0  0  1  0  0  3  0  0  0  0  0  0
  191.0970  177.3860  141.2980 C   0  0  0  0  0  2  0  0  0  0  0  0
  188.0090  177.7020  140.9500 C   0  0  0  0  0  2  0  0  0  0  0  0
  189.8070  177.1900  144.8410 C   0  0  0  0  0  0  0  0  0  0  0  0
  190.6310  177.1730  143.7100 C   0  0  0  0  0  3  0  0  0  0  0  0
  190.1030  177.3440  142.4260 C   0  0  0  0  0  0  0  0  0  0  0  0
  189.8190  177.7500  139.1710 C   0  0  1  0  0  3  0  0  0  0  0  0
  187.8900  177.5780  143.4110 C   0  0  0  0  0  3  0  0  0  0  0  0
  188.7080  177.5740  142.2750 C   0  0  0  0  0  0  0  0  0  0  0  0
  188.4330  177.3940  144.6830 C   0  0  0  0  0  3  0  0  0  0  0  0
  188.7760  178.5620  139.9540 C   0  0  0  0  0  2  0  0  0  0  0  0
  190.5800  176.7350  140.0250 C   0  0  0  0  0  2  0  0  0  0  0  0
  190.3860  177.0000  146.1800 C   0  0  0  0  0  0  0  0  0  0  0  0
  189.6400  176.8370  147.1820 O   0  0  0  0  0  1  0  0  0  0  0  0
  191.7660  176.9960  146.3520 O   0  0  0  0  0  0  0  0  0  0  0  0
  182.5080  172.6780  135.8810 N   0  0  0  0  0  0  0  0  0  0  0  0
  182.5690  171.6090  136.7140 O   0  0  0  0  0  1  0  0  0  0  0  0
  181.1730  173.2450  135.9960 C   0  0  0  0  0  1  0  0  0  0  0  0
  1  5  1  0  0  0  0
  2 12  1  0  0  0  0
  2 15  2  0  0  0  0
  3 15  1  0  0  0  0
  3  9  2  0  0  0  0
  4  8  1  1  0  0  0
  4  5  1  0  0  0  0
  4 23  1  0  0  0  0
  6  8  1  6  0  0  0
  7  6  1  0  0  0  0
  9 10  1  0  0  0  0
 10  6  1  0  0  0  0
 10  1  2  0  0  0  0
 11  9  1  0  0  0  0
 11  7  2  0  0  0  0
 12 13  1  0  0  0  0
 13 32  1  6  0  0  0
 13 14  1  0  0  0  0
 14 16  1  0  0  0  0
 15 17  1  0  0  0  0
 17  1  1  0  0  0  0
 17 16  1  1  0  0  0
 18 22  1  0  0  0  0
 19 25  1  0  0  0  0
 20 29  1  0  0  0  0
 21 20  2  0  0  0  0
 22 21  1  0  0  0  0
 23 27  1  1  0  0  0
 23 28  1  0  0  0  0
 24 26  2  0  0  0  0
 25 22  2  0  0  0  0
 25 24  1  0  0  0  0
 26 20  1  0  0  0  0
 27 19  1  0  0  0  0
 28 18  1  0  0  0  0
 29 31  2  0  0  0  0
 29 30  1  0  0  0  0
 32 34  1  0  0  0  0
 32 33  1  0  0  0  0
M  END
>  <MODEL>
9

>  <REMARK>
 VINA RESULT:      -7.3      4.931      6.718
  Name = 
  3 active torsions:
  status: ('A' for Active; 'I' for Inactive)
    1  A    between atoms: N_3  and  C_25
    2  A    between atoms: C_7  and  C_11
    3  A    between atoms: C_8  and  C_18
                            x       y       z     vdW  Elec       q    Type
                         _______ _______ _______ _____ _____    ______ ____

>  <TORSDO>
F 3

$$$$
