=
 OpenBabel10252414543D

 34 39  0  0  1  0  0  0  0  0999 V2000
  188.3030  177.0730  137.2240 C   0  0  0  0  0  0  0  0  0  0  0  0
  190.6620  176.6770  137.9130 N   0  0  0  0  0  0  0  0  0  0  0  0
  189.0800  177.8390  139.4580 C   0  0  0  0  0  0  0  0  0  0  0  0
  188.2280  178.4470  142.2290 N   0  0  2  0  0  0  0  0  0  0  0  0
  185.7580  176.9280  136.8850 C   0  0  0  0  0  1  0  0  0  0  0  0
  191.2470  176.4100  136.6090 C   0  0  0  0  0  1  0  0  0  0  0  0
  191.1600  176.8470  140.2520 C   0  0  0  0  0  3  0  0  0  0  0  0
  189.4880  177.5600  138.0220 C   0  0  2  0  0  3  0  0  0  0  0  0
  189.6320  178.1900  141.8540 C   0  0  2  0  0  3  0  0  0  0  0  0
  188.4710  176.4720  136.1270 O   0  0  0  0  0  0  0  0  0  0  0  0
  187.7750  178.5600  139.6700 C   0  0  2  0  0  3  0  0  0  0  0  0
  186.9340  177.3890  137.6770 C   0  0  0  0  0  0  0  0  0  0  0  0
  191.4970  176.4170  139.0430 C   0  0  0  0  0  3  0  0  0  0  0  0
  187.3670  177.2970  141.8610 C   0  0  0  0  0  2  0  0  0  0  0  0
  187.2510  178.5580  141.1190 C   0  0  1  0  0  0  0  0  0  0  0  0
  189.9040  177.5880  140.4840 C   0  0  0  0  0  0  0  0  0  0  0  0
  186.7280  178.0280  138.7900 N   0  0  0  0  0  0  0  0  0  0  0  0
  184.6390  178.2930  143.2550 C   0  0  1  0  0  3  0  0  0  0  0  0
  184.0890  177.6340  142.1240 O   0  0  0  0  0  0  0  0  0  0  0  0
  186.0340  179.4480  141.4480 C   0  0  2  0  0  3  0  0  0  0  0  0
  183.6570  178.5980  141.1950 C   0  0  0  0  0  2  0  0  0  0  0  0
  185.5920  179.4580  142.9210 C   0  0  0  0  0  2  0  0  0  0  0  0
  184.8610  179.2140  140.4830 C   0  0  0  0  0  2  0  0  0  0  0  0
  183.5510  178.7440  144.2140 C   0  0  0  0  0  1  0  0  0  0  0  0
  190.3450  177.4810  143.0040 C   0  0  0  0  0  2  0  0  0  0  0  0
  190.0010  178.1470  144.3220 C   0  0  0  0  0  2  0  0  0  0  0  0
  190.2590  177.1840  145.4720 C   0  0  0  0  0  2  0  0  0  0  0  0
  187.3580  176.7030  144.6820 F   0  0  0  0  0  0  0  0  0  0  0  0
  189.0300  177.0260  146.3640 C   0  0  2  0  0  3  0  0  0  0  0  0
  187.7540  177.5610  145.6930 C   0  0  2  0  0  3  0  0  0  0  0  0
  187.0470  178.7040  147.7810 C   0  0  0  0  0  2  0  0  0  0  0  0
  188.3680  178.3290  148.3980 C   0  0  0  0  0  3  0  0  0  0  0  0
  189.2840  177.6040  147.7390 C   0  0  0  0  0  3  0  0  0  0  0  0
  186.6290  177.6980  146.7130 C   0  0  0  0  0  2  0  0  0  0  0  0
  1 12  1  0  0  0  0
  2  8  1  0  0  0  0
  2 13  1  0  0  0  0
  3 11  1  0  0  0  0
  3 16  2  0  0  0  0
  4 14  1  1  0  0  0
  5 12  1  0  0  0  0
  6  2  1  0  0  0  0
  7 16  1  0  0  0  0
  8  1  1  6  0  0  0
  8  3  1  0  0  0  0
  9  4  1  0  0  0  0
  9 25  1  1  0  0  0
 10  1  2  0  0  0  0
 11 17  1  6  0  0  0
 11 15  1  0  0  0  0
 12 17  2  0  0  0  0
 13  7  2  0  0  0  0
 15 20  1  0  0  0  0
 15 14  1  1  0  0  0
 15  4  1  0  0  0  0
 16  9  1  0  0  0  0
 18 24  1  1  0  0  0
 19 18  1  0  0  0  0
 20 23  1  6  0  0  0
 20 22  1  0  0  0  0
 21 19  1  0  0  0  0
 22 18  1  0  0  0  0
 23 21  1  0  0  0  0
 25 26  1  0  0  0  0
 26 27  1  0  0  0  0
 29 27  1  6  0  0  0
 29 33  1  0  0  0  0
 30 28  1  6  0  0  0
 30 29  1  0  0  0  0
 30 34  1  0  0  0  0
 31 32  1  0  0  0  0
 33 32  2  0  0  0  0
 34 31  1  0  0  0  0
M  END
>  <MODEL>
1

>  <REMARK>
 VINA RESULT:      -8.9      0.000      0.000
  Name = 
  5 active torsions:
  status: ('A' for Active; 'I' for Inactive)
    1  A    between atoms: C_3  and  C_13
    2  A    between atoms: C_3  and  C_17
    3  A    between atoms: C_12  and  C_28
    4  A    between atoms: C_17  and  C_29
    5  A    between atoms: C_18  and  C_29
                            x       y       z     vdW  Elec       q    Type
                         _______ _______ _______ _____ _____    ______ ____

>  <TORSDO>
F 5

$$$$
=
 OpenBabel10252414543D

 34 39  0  0  1  0  0  0  0  0999 V2000
  190.5210  176.3980  136.6900 C   0  0  0  0  0  0  0  0  0  0  0  0
  188.2130  176.9880  135.9680 N   0  0  0  0  0  0  0  0  0  0  0  0
  188.7760  176.8640  138.3980 C   0  0  0  0  0  0  0  0  0  0  0  0
  188.3020  177.8140  141.1630 N   0  0  2  0  0  0  0  0  0  0  0  0
  192.9600  176.4590  137.4990 C   0  0  0  0  0  1  0  0  0  0  0  0
  188.2670  176.5160  134.5940 C   0  0  0  0  0  1  0  0  0  0  0  0
  186.7930  178.0300  137.5940 C   0  0  0  0  0  3  0  0  0  0  0  0
  189.0440  176.3410  136.9980 C   0  0  2  0  0  3  0  0  0  0  0  0
  187.2480  177.7780  140.1310 C   0  0  2  0  0  3  0  0  0  0  0  0
  190.9310  176.3370  135.4980 O   0  0  0  0  0  0  0  0  0  0  0  0
  189.7150  176.4150  139.4860 C   0  0  2  0  0  3  0  0  0  0  0  0
  191.5000  176.4230  137.7940 C   0  0  0  0  0  0  0  0  0  0  0  0
  187.0620  177.7580  136.3240 C   0  0  0  0  0  3  0  0  0  0  0  0
  189.4460  178.6460  140.7180 C   0  0  0  0  0  2  0  0  0  0  0  0
  189.6000  177.1890  140.8140 C   0  0  1  0  0  0  0  0  0  0  0  0
  187.6760  177.5720  138.6860 C   0  0  0  0  0  0  0  0  0  0  0  0
  191.1100  176.4610  139.0340 N   0  0  0  0  0  0  0  0  0  0  0  0
  189.5180  177.8240  144.1370 C   0  0  1  0  0  3  0  0  0  0  0  0
  190.4590  178.8060  143.7310 O   0  0  0  0  0  0  0  0  0  0  0  0
  190.3800  176.6520  142.0330 C   0  0  2  0  0  3  0  0  0  0  0  0
  191.7120  178.1930  143.5450 C   0  0  0  0  0  2  0  0  0  0  0  0
  189.5720  176.5090  143.3330 C   0  0  0  0  0  2  0  0  0  0  0  0
  191.7120  177.3880  142.2460 C   0  0  0  0  0  2  0  0  0  0  0  0
  189.6170  177.5490  145.6280 C   0  0  0  0  0  1  0  0  0  0  0  0
  186.2870  178.9470  140.3410 C   0  0  0  0  0  2  0  0  0  0  0  0
  186.0660  179.1810  141.8220 C   0  0  0  0  0  2  0  0  0  0  0  0
  184.6260  178.8540  142.1890 C   0  0  0  0  0  2  0  0  0  0  0  0
  182.3450  179.0760  144.1940 F   0  0  0  0  0  0  0  0  0  0  0  0
  184.5180  178.2700  143.5950 C   0  0  2  0  0  3  0  0  0  0  0  0
  183.6840  179.1610  144.5310 C   0  0  2  0  0  3  0  0  0  0  0  0
  185.3390  178.9090  146.3650 C   0  0  0  0  0  2  0  0  0  0  0  0
  186.2420  178.1760  145.4100 C   0  0  0  0  0  3  0  0  0  0  0  0
  185.8860  177.9250  144.1420 C   0  0  0  0  0  3  0  0  0  0  0  0
  183.8720  178.7360  145.9830 C   0  0  0  0  0  2  0  0  0  0  0  0
  1 12  1  0  0  0  0
  2 13  1  0  0  0  0
  2  8  1  0  0  0  0
  3 16  2  0  0  0  0
  4 14  1  6  0  0  0
  5 12  1  0  0  0  0
  6  2  1  0  0  0  0
  7 16  1  0  0  0  0
  8  1  1  6  0  0  0
  8  3  1  0  0  0  0
  9 25  1  6  0  0  0
  9  4  1  0  0  0  0
 10  1  2  0  0  0  0
 11  3  1  6  0  0  0
 11 15  1  0  0  0  0
 12 17  2  0  0  0  0
 13  7  2  0  0  0  0
 15 14  1  6  0  0  0
 15  4  1  0  0  0  0
 15 20  1  0  0  0  0
 16  9  1  0  0  0  0
 17 11  1  0  0  0  0
 18 24  1  1  0  0  0
 19 18  1  0  0  0  0
 20 23  1  1  0  0  0
 20 22  1  0  0  0  0
 21 19  1  0  0  0  0
 22 18  1  0  0  0  0
 23 21  1  0  0  0  0
 25 26  1  0  0  0  0
 26 27  1  0  0  0  0
 29 27  1  6  0  0  0
 29 33  1  0  0  0  0
 29 30  1  0  0  0  0
 30 28  1  6  0  0  0
 30 34  1  0  0  0  0
 32 31  1  0  0  0  0
 33 32  2  0  0  0  0
 34 31  1  0  0  0  0
M  END
>  <MODEL>
2

>  <REMARK>
 VINA RESULT:      -8.8      2.085      4.686
  Name = 
  5 active torsions:
  status: ('A' for Active; 'I' for Inactive)
    1  A    between atoms: C_3  and  C_13
    2  A    between atoms: C_3  and  C_17
    3  A    between atoms: C_12  and  C_28
    4  A    between atoms: C_17  and  C_29
    5  A    between atoms: C_18  and  C_29
                            x       y       z     vdW  Elec       q    Type
                         _______ _______ _______ _____ _____    ______ ____

>  <TORSDO>
F 5

$$$$
=
 OpenBabel10252414543D

 34 39  0  0  1  0  0  0  0  0999 V2000
  187.7000  177.6130  136.8100 C   0  0  0  0  0  0  0  0  0  0  0  0
  186.7540  178.2580  139.0200 N   0  0  0  0  0  0  0  0  0  0  0  0
  188.9000  176.9850  138.8940 C   0  0  0  0  0  0  0  0  0  0  0  0
  191.5530  176.3660  140.0550 N   0  0  2  0  0  0  0  0  0  0  0  0
  189.0570  177.4980  134.6290 C   0  0  0  0  0  1  0  0  0  0  0  0
  185.3870  178.5480  138.6170 C   0  0  0  0  0  1  0  0  0  0  0  0
  188.2380  178.1960  140.9020 C   0  0  0  0  0  3  0  0  0  0  0  0
  187.5440  177.2660  138.2710 C   0  0  2  0  0  3  0  0  0  0  0  0
  190.3850  176.7500  140.8710 C   0  0  2  0  0  3  0  0  0  0  0  0
  186.7730  178.2000  136.1870 O   0  0  0  0  0  0  0  0  0  0  0  0
  189.8590  176.1440  138.0940 C   0  0  2  0  0  3  0  0  0  0  0  0
  188.9040  177.1750  136.0760 C   0  0  0  0  0  0  0  0  0  0  0  0
  187.1090  178.6270  140.3550 C   0  0  0  0  0  3  0  0  0  0  0  0
  191.8650  177.4150  139.0550 C   0  0  0  0  0  2  0  0  0  0  0  0
  191.3110  176.1310  138.6110 C   0  0  1  0  0  0  0  0  0  0  0  0
  189.1810  177.3410  140.1540 C   0  0  0  0  0  0  0  0  0  0  0  0
  189.8660  176.5480  136.6830 N   0  0  0  0  0  0  0  0  0  0  0  0
  193.5660  176.3290  136.0960 C   0  0  1  0  0  3  0  0  0  0  0  0
  192.4140  175.9580  135.3540 O   0  0  0  0  0  0  0  0  0  0  0  0
  192.2970  175.1330  137.9680 C   0  0  2  0  0  3  0  0  0  0  0  0
  192.2020  174.5750  135.4960 C   0  0  0  0  0  2  0  0  0  0  0  0
  193.6420  175.7240  137.5120 C   0  0  0  0  0  2  0  0  0  0  0  0
  191.6340  174.2730  136.8820 C   0  0  0  0  0  2  0  0  0  0  0  0
  194.8390  176.0430  135.3180 C   0  0  0  0  0  1  0  0  0  0  0  0
  190.8520  177.5550  142.0830 C   0  0  0  0  0  2  0  0  0  0  0  0
  190.4370  176.8580  143.3640 C   0  0  0  0  0  2  0  0  0  0  0  0
  189.8980  177.8770  144.3570 C   0  0  0  0  0  2  0  0  0  0  0  0
  186.9070  177.4810  143.9530 F   0  0  0  0  0  0  0  0  0  0  0  0
  188.8710  177.2580  145.3020 C   0  0  2  0  0  3  0  0  0  0  0  0
  187.4800  177.8940  145.1430 C   0  0  2  0  0  3  0  0  0  0  0  0
  187.1800  178.0310  147.6040 C   0  0  0  0  0  2  0  0  0  0  0  0
  188.6020  177.5670  147.7740 C   0  0  0  0  0  3  0  0  0  0  0  0
  189.3820  177.2580  146.7270 C   0  0  0  0  0  3  0  0  0  0  0  0
  186.5760  177.5030  146.3070 C   0  0  0  0  0  2  0  0  0  0  0  0
  2 13  1  0  0  0  0
  3 16  2  0  0  0  0
  4 14  1  6  0  0  0
  4  9  1  0  0  0  0
  5 12  1  0  0  0  0
  6  2  1  0  0  0  0
  8  1  1  6  0  0  0
  8  3  1  0  0  0  0
  8  2  1  0  0  0  0
  9 25  1  1  0  0  0
 10  1  2  0  0  0  0
 11 17  1  6  0  0  0
 11 15  1  0  0  0  0
 11  3  1  0  0  0  0
 12 17  2  0  0  0  0
 12  1  1  0  0  0  0
 13  7  2  0  0  0  0
 15 14  1  6  0  0  0
 15  4  1  0  0  0  0
 16  9  1  0  0  0  0
 16  7  1  0  0  0  0
 18 24  1  6  0  0  0
 18 22  1  0  0  0  0
 19 21  1  0  0  0  0
 19 18  1  0  0  0  0
 20 23  1  6  0  0  0
 20 15  1  0  0  0  0
 21 23  1  0  0  0  0
 22 20  1  0  0  0  0
 25 26  1  0  0  0  0
 26 27  1  0  0  0  0
 29 27  1  6  0  0  0
 29 33  1  0  0  0  0
 30 28  1  6  0  0  0
 30 29  1  0  0  0  0
 30 34  1  0  0  0  0
 31 32  1  0  0  0  0
 33 32  2  0  0  0  0
 34 31  1  0  0  0  0
M  END
>  <MODEL>
3

>  <REMARK>
 VINA RESULT:      -8.4      2.055      5.700
  Name = 
  5 active torsions:
  status: ('A' for Active; 'I' for Inactive)
    1  A    between atoms: C_3  and  C_13
    2  A    between atoms: C_3  and  C_17
    3  A    between atoms: C_12  and  C_28
    4  A    between atoms: C_17  and  C_29
    5  A    between atoms: C_18  and  C_29
                            x       y       z     vdW  Elec       q    Type
                         _______ _______ _______ _____ _____    ______ ____

>  <TORSDO>
F 5

$$$$
=
 OpenBabel10252414543D

 34 39  0  0  1  0  0  0  0  0999 V2000
  186.5940  176.6950  137.1340 C   0  0  0  0  0  0  0  0  0  0  0  0
  188.2090  177.7540  138.7050 N   0  0  0  0  0  0  0  0  0  0  0  0
  185.7630  178.2200  138.9130 C   0  0  0  0  0  0  0  0  0  0  0  0
  183.4450  178.8810  140.6330 N   0  0  2  0  0  0  0  0  0  0  0  0
  184.8450  175.1700  136.0260 C   0  0  0  0  0  1  0  0  0  0  0  0
  189.4360  177.5550  137.9510 C   0  0  0  0  0  1  0  0  0  0  0  0
  187.3190  178.6660  140.7350 C   0  0  0  0  0  3  0  0  0  0  0  0
  186.9260  177.8910  137.9930 C   0  0  2  0  0  3  0  0  0  0  0  0
  184.8220  179.3230  140.9300 C   0  0  2  0  0  3  0  0  0  0  0  0
  187.5080  176.0480  136.5530 O   0  0  0  0  0  0  0  0  0  0  0  0
  184.3840  178.1780  138.3120 C   0  0  2  0  0  3  0  0  0  0  0  0
  185.1830  176.3380  136.8890 C   0  0  0  0  0  0  0  0  0  0  0  0
  188.3620  178.2240  140.0460 C   0  0  0  0  0  3  0  0  0  0  0  0
  183.3760  177.4040  140.5360 C   0  0  0  0  0  2  0  0  0  0  0  0
  183.2230  178.2190  139.3250 C   0  0  1  0  0  0  0  0  0  0  0  0
  185.9590  178.6700  140.1600 C   0  0  0  0  0  0  0  0  0  0  0  0
  184.2170  177.0000  137.4530 N   0  0  0  0  0  0  0  0  0  0  0  0
  181.4220  180.8520  138.1960 C   0  0  1  0  0  3  0  0  0  0  0  0
  181.1030  180.9210  139.5770 O   0  0  0  0  0  0  0  0  0  0  0  0
  181.7910  178.3880  138.7770 C   0  0  2  0  0  3  0  0  0  0  0  0
  180.1230  179.9550  139.8710 C   0  0  0  0  0  2  0  0  0  0  0  0
  181.6250  179.4230  137.6520 C   0  0  0  0  0  2  0  0  0  0  0  0
  180.7530  178.5620  139.8960 C   0  0  0  0  0  2  0  0  0  0  0  0
  180.4080  181.6100  137.3570 C   0  0  0  0  0  1  0  0  0  0  0  0
  185.0300  179.3640  142.4420 C   0  0  0  0  0  2  0  0  0  0  0  0
  185.2650  177.9640  142.9750 C   0  0  0  0  0  2  0  0  0  0  0  0
  185.4670  178.0100  144.4830 C   0  0  0  0  0  2  0  0  0  0  0  0
  186.8420  177.9230  147.1970 F   0  0  0  0  0  0  0  0  0  0  0  0
  186.7000  177.2210  144.9130 C   0  0  2  0  0  3  0  0  0  0  0  0
  187.5150  177.9600  145.9880 C   0  0  2  0  0  3  0  0  0  0  0  0
  189.6500  177.4390  144.8330 C   0  0  0  0  0  2  0  0  0  0  0  0
  188.8580  176.8590  143.6920 C   0  0  0  0  0  3  0  0  0  0  0  0
  187.5180  176.8000  143.7110 C   0  0  0  0  0  3  0  0  0  0  0  0
  188.8910  177.3230  146.1510 C   0  0  0  0  0  2  0  0  0  0  0  0
  2 13  1  0  0  0  0
  3 16  2  0  0  0  0
  4 14  1  1  0  0  0
  4  9  1  0  0  0  0
  5 12  1  0  0  0  0
  6  2  1  0  0  0  0
  8  1  1  1  0  0  0
  8  2  1  0  0  0  0
  8  3  1  0  0  0  0
  9 25  1  1  0  0  0
 10  1  2  0  0  0  0
 11 17  1  1  0  0  0
 11  3  1  0  0  0  0
 11 15  1  0  0  0  0
 12  1  1  0  0  0  0
 12 17  2  0  0  0  0
 13  7  2  0  0  0  0
 15 14  1  1  0  0  0
 15  4  1  0  0  0  0
 16  7  1  0  0  0  0
 16  9  1  0  0  0  0
 18 24  1  6  0  0  0
 18 19  1  0  0  0  0
 19 21  1  0  0  0  0
 20 22  1  6  0  0  0
 20 15  1  0  0  0  0
 20 23  1  0  0  0  0
 21 23  1  0  0  0  0
 22 18  1  0  0  0  0
 25 26  1  0  0  0  0
 26 27  1  0  0  0  0
 29 27  1  6  0  0  0
 29 30  1  0  0  0  0
 30 34  1  0  0  0  0
 30 28  1  1  0  0  0
 31 34  1  0  0  0  0
 32 33  2  0  0  0  0
 32 31  1  0  0  0  0
 33 29  1  0  0  0  0
M  END
>  <MODEL>
4

>  <REMARK>
 VINA RESULT:      -8.4      2.459      4.227
  Name = 
  5 active torsions:
  status: ('A' for Active; 'I' for Inactive)
    1  A    between atoms: C_3  and  C_13
    2  A    between atoms: C_3  and  C_17
    3  A    between atoms: C_12  and  C_28
    4  A    between atoms: C_17  and  C_29
    5  A    between atoms: C_18  and  C_29
                            x       y       z     vdW  Elec       q    Type
                         _______ _______ _______ _____ _____    ______ ____

>  <TORSDO>
F 5

$$$$
=
 OpenBabel10252414543D

 34 39  0  0  1  0  0  0  0  0999 V2000
  186.4720  176.6800  136.9770 C   0  0  0  0  0  0  0  0  0  0  0  0
  188.1720  177.7000  138.4830 N   0  0  0  0  0  0  0  0  0  0  0  0
  185.7440  178.1870  138.8150 C   0  0  0  0  0  0  0  0  0  0  0  0
  183.5190  178.8460  140.6550 N   0  0  2  0  0  0  0  0  0  0  0  0
  184.6560  175.1890  135.9340 C   0  0  0  0  0  1  0  0  0  0  0  0
  189.3590  177.5010  137.6680 C   0  0  0  0  0  1  0  0  0  0  0  0
  187.3900  178.5910  140.5670 C   0  0  0  0  0  3  0  0  0  0  0  0
  186.8580  177.8600  137.8360 C   0  0  2  0  0  3  0  0  0  0  0  0
  184.9120  179.2700  140.8910 C   0  0  2  0  0  3  0  0  0  0  0  0
  187.3500  176.0330  136.3430 O   0  0  0  0  0  0  0  0  0  0  0  0
  184.3370  178.1680  138.2810 C   0  0  2  0  0  3  0  0  0  0  0  0
  185.0470  176.3410  136.7950 C   0  0  0  0  0  0  0  0  0  0  0  0
  188.3950  178.1490  139.8220 C   0  0  0  0  0  3  0  0  0  0  0  0
  183.4300  177.3700  140.5410 C   0  0  0  0  0  2  0  0  0  0  0  0
  183.2270  178.2050  139.3500 C   0  0  1  0  0  0  0  0  0  0  0  0
  186.0050  178.6160  140.0570 C   0  0  0  0  0  0  0  0  0  0  0  0
  184.1160  177.0030  137.4150 N   0  0  0  0  0  0  0  0  0  0  0  0
  181.4500  180.8380  138.1850 C   0  0  1  0  0  3  0  0  0  0  0  0
  181.2130  180.9890  139.5760 O   0  0  0  0  0  0  0  0  0  0  0  0
  181.7720  178.3960  138.8740 C   0  0  2  0  0  3  0  0  0  0  0  0
  180.2210  180.0740  139.9750 C   0  0  0  0  0  2  0  0  0  0  0  0
  181.5750  179.3780  137.7070 C   0  0  0  0  0  2  0  0  0  0  0  0
  180.8060  178.6640  140.0380 C   0  0  0  0  0  2  0  0  0  0  0  0
  180.4150  181.5880  137.3650 C   0  0  0  0  0  1  0  0  0  0  0  0
  185.1940  179.2860  142.3920 C   0  0  0  0  0  2  0  0  0  0  0  0
  183.9250  178.9820  143.1650 C   0  0  0  0  0  2  0  0  0  0  0  0
  184.2600  178.1900  144.4210 C   0  0  0  0  0  2  0  0  0  0  0  0
  186.9140  176.9790  143.5490 F   0  0  0  0  0  0  0  0  0  0  0  0
  185.6690  178.4930  144.9230 C   0  0  2  0  0  3  0  0  0  0  0  0
  186.5840  177.2580  144.8640 C   0  0  2  0  0  3  0  0  0  0  0  0
  187.4840  177.7260  147.1300 C   0  0  0  0  0  2  0  0  0  0  0  0
  186.4770  178.8370  147.2690 C   0  0  0  0  0  3  0  0  0  0  0  0
  185.6260  179.1550  146.2830 C   0  0  0  0  0  3  0  0  0  0  0  0
  187.8570  177.4960  145.6690 C   0  0  0  0  0  2  0  0  0  0  0  0
  2 13  1  0  0  0  0
  3 16  2  0  0  0  0
  4 14  1  1  0  0  0
  4  9  1  0  0  0  0
  5 12  1  0  0  0  0
  6  2  1  0  0  0  0
  8  1  1  1  0  0  0
  8  2  1  0  0  0  0
  8  3  1  0  0  0  0
  9 25  1  1  0  0  0
 10  1  2  0  0  0  0
 11 17  1  1  0  0  0
 11  3  1  0  0  0  0
 11 15  1  0  0  0  0
 12  1  1  0  0  0  0
 12 17  2  0  0  0  0
 13  7  2  0  0  0  0
 15 14  1  1  0  0  0
 15  4  1  0  0  0  0
 16  7  1  0  0  0  0
 16  9  1  0  0  0  0
 18 24  1  6  0  0  0
 18 19  1  0  0  0  0
 19 21  1  0  0  0  0
 20 22  1  6  0  0  0
 20 15  1  0  0  0  0
 20 23  1  0  0  0  0
 21 23  1  0  0  0  0
 22 18  1  0  0  0  0
 25 26  1  0  0  0  0
 26 27  1  0  0  0  0
 29 27  1  1  0  0  0
 29 33  1  0  0  0  0
 30 28  1  6  0  0  0
 30 29  1  0  0  0  0
 30 34  1  0  0  0  0
 31 32  1  0  0  0  0
 33 32  2  0  0  0  0
 34 31  1  0  0  0  0
M  END
>  <MODEL>
5

>  <REMARK>
 VINA RESULT:      -8.4      2.409      4.176
  Name = 
  5 active torsions:
  status: ('A' for Active; 'I' for Inactive)
    1  A    between atoms: C_3  and  C_13
    2  A    between atoms: C_3  and  C_17
    3  A    between atoms: C_12  and  C_28
    4  A    between atoms: C_17  and  C_29
    5  A    between atoms: C_18  and  C_29
                            x       y       z     vdW  Elec       q    Type
                         _______ _______ _______ _____ _____    ______ ____

>  <TORSDO>
F 5

$$$$
=
 OpenBabel10252414543D

 34 39  0  0  1  0  0  0  0  0999 V2000
  186.7810  177.8540  138.0290 C   0  0  0  0  0  0  0  0  0  0  0  0
  188.2850  177.9730  140.0090 N   0  0  0  0  0  0  0  0  0  0  0  0
  185.8770  178.6070  140.2190 C   0  0  0  0  0  0  0  0  0  0  0  0
  183.4380  178.7830  141.8900 N   0  0  2  0  0  0  0  0  0  0  0  0
  185.0530  177.1390  136.2640 C   0  0  0  0  0  1  0  0  0  0  0  0
  189.5710  177.9530  139.3300 C   0  0  0  0  0  1  0  0  0  0  0  0
  187.2440  178.0760  142.1660 C   0  0  0  0  0  3  0  0  0  0  0  0
  187.1080  178.5440  139.3320 C   0  0  2  0  0  3  0  0  0  0  0  0
  184.8020  178.8940  142.4400 C   0  0  2  0  0  3  0  0  0  0  0  0
  187.7000  177.3950  137.2970 O   0  0  0  0  0  0  0  0  0  0  0  0
  184.5770  178.9820  139.5600 C   0  0  2  0  0  3  0  0  0  0  0  0
  185.3830  177.8020  137.5580 C   0  0  0  0  0  0  0  0  0  0  0  0
  188.3210  177.8310  141.4310 C   0  0  0  0  0  3  0  0  0  0  0  0
  183.2610  177.4940  141.1780 C   0  0  0  0  0  2  0  0  0  0  0  0
  183.3150  178.7450  140.4120 C   0  0  1  0  0  0  0  0  0  0  0  0
  185.9640  178.4800  141.5500 C   0  0  0  0  0  0  0  0  0  0  0  0
  184.4150  178.2870  138.2770 N   0  0  0  0  0  0  0  0  0  0  0  0
  180.8630  177.4980  138.4430 C   0  0  1  0  0  3  0  0  0  0  0  0
  181.7020  178.0640  137.4470 O   0  0  0  0  0  0  0  0  0  0  0  0
  181.9740  179.2960  139.8850 C   0  0  2  0  0  3  0  0  0  0  0  0
  181.4860  179.4530  137.4000 C   0  0  0  0  0  2  0  0  0  0  0  0
  180.8300  178.2740  139.7750 C   0  0  0  0  0  2  0  0  0  0  0  0
  182.1460  180.1260  138.6040 C   0  0  0  0  0  2  0  0  0  0  0  0
  179.4560  177.2720  137.9150 C   0  0  0  0  0  1  0  0  0  0  0  0
  184.8380  178.2880  143.8420 C   0  0  0  0  0  2  0  0  0  0  0  0
  185.8370  179.0310  144.7070 C   0  0  0  0  0  2  0  0  0  0  0  0
  185.8020  178.4820  146.1260 C   0  0  0  0  0  2  0  0  0  0  0  0
  187.2120  177.8840  148.7580 F   0  0  0  0  0  0  0  0  0  0  0  0
  186.9760  177.5450  146.4000 C   0  0  2  0  0  3  0  0  0  0  0  0
  187.8650  178.0500  147.5490 C   0  0  2  0  0  3  0  0  0  0  0  0
  189.9320  177.5450  146.2690 C   0  0  0  0  0  2  0  0  0  0  0  0
  189.0760  177.2060  145.0780 C   0  0  0  0  0  3  0  0  0  0  0  0
  187.7370  177.2480  145.1260 C   0  0  0  0  0  3  0  0  0  0  0  0
  189.1870  177.2910  147.5760 C   0  0  0  0  0  2  0  0  0  0  0  0
  2 13  1  0  0  0  0
  3 16  2  0  0  0  0
  4 14  1  1  0  0  0
  4  9  1  0  0  0  0
  5 12  1  0  0  0  0
  6  2  1  0  0  0  0
  8  1  1  6  0  0  0
  8  2  1  0  0  0  0
  8  3  1  0  0  0  0
  9 25  1  1  0  0  0
 10  1  2  0  0  0  0
 11 17  1  6  0  0  0
 11  3  1  0  0  0  0
 11 15  1  0  0  0  0
 12  1  1  0  0  0  0
 12 17  2  0  0  0  0
 13  7  2  0  0  0  0
 15 14  1  6  0  0  0
 15  4  1  0  0  0  0
 16  7  1  0  0  0  0
 16  9  1  0  0  0  0
 18 24  1  6  0  0  0
 18 22  1  0  0  0  0
 19 18  1  0  0  0  0
 20 23  1  6  0  0  0
 20 15  1  0  0  0  0
 21 19  1  0  0  0  0
 21 23  1  0  0  0  0
 22 20  1  0  0  0  0
 25 26  1  0  0  0  0
 26 27  1  0  0  0  0
 29 27  1  6  0  0  0
 29 30  1  0  0  0  0
 30 34  1  0  0  0  0
 30 28  1  1  0  0  0
 31 34  1  0  0  0  0
 32 33  2  0  0  0  0
 32 31  1  0  0  0  0
 33 29  1  0  0  0  0
M  END
>  <MODEL>
6

>  <REMARK>
 VINA RESULT:      -8.4      2.390      4.041
  Name = 
  5 active torsions:
  status: ('A' for Active; 'I' for Inactive)
    1  A    between atoms: C_3  and  C_13
    2  A    between atoms: C_3  and  C_17
    3  A    between atoms: C_12  and  C_28
    4  A    between atoms: C_17  and  C_29
    5  A    between atoms: C_18  and  C_29
                            x       y       z     vdW  Elec       q    Type
                         _______ _______ _______ _____ _____    ______ ____

>  <TORSDO>
F 5

$$$$
=
 OpenBabel10252414543D

 34 39  0  0  1  0  0  0  0  0999 V2000
  190.0330  177.1270  146.5790 C   0  0  0  0  0  0  0  0  0  0  0  0
  187.7450  177.7260  147.3580 N   0  0  0  0  0  0  0  0  0  0  0  0
  188.3540  177.9580  144.9460 C   0  0  0  0  0  0  0  0  0  0  0  0
  187.5220  177.9020  142.1040 N   0  0  2  0  0  0  0  0  0  0  0  0
  192.0880  175.9320  145.6000 C   0  0  0  0  0  1  0  0  0  0  0  0
  188.0050  177.8490  148.7830 C   0  0  0  0  0  1  0  0  0  0  0  0
  186.0340  177.8930  145.6880 C   0  0  0  0  0  3  0  0  0  0  0  0
  188.8200  178.0060  146.3900 C   0  0  2  0  0  3  0  0  0  0  0  0
  186.6210  178.3070  143.2000 C   0  0  2  0  0  3  0  0  0  0  0  0
  190.3800  176.7520  147.7330 O   0  0  0  0  0  0  0  0  0  0  0  0
  189.4170  178.0270  143.8820 C   0  0  2  0  0  3  0  0  0  0  0  0
  190.8790  176.7840  145.4190 C   0  0  0  0  0  0  0  0  0  0  0  0
  186.3720  177.7540  146.9630 C   0  0  0  0  0  3  0  0  0  0  0  0
  188.0380  176.5300  142.3260 C   0  0  0  0  0  2  0  0  0  0  0  0
  188.9440  177.6770  142.4570 C   0  0  1  0  0  0  0  0  0  0  0  0
  187.0540  178.0000  144.6260 C   0  0  0  0  0  0  0  0  0  0  0  0
  190.5620  177.1740  144.2210 N   0  0  0  0  0  0  0  0  0  0  0  0
  188.5750  178.1690  139.1300 C   0  0  1  0  0  3  0  0  0  0  0  0
  188.6660  176.7530  139.1510 O   0  0  0  0  0  0  0  0  0  0  0  0
  189.9230  177.9260  141.2900 C   0  0  2  0  0  3  0  0  0  0  0  0
  190.0170  176.3820  139.2800 C   0  0  0  0  0  2  0  0  0  0  0  0
  189.4270  178.8860  140.1960 C   0  0  0  0  0  2  0  0  0  0  0  0
  190.4900  176.6200  140.7130 C   0  0  0  0  0  2  0  0  0  0  0  0
  188.8690  178.7200  137.7450 C   0  0  0  0  0  1  0  0  0  0  0  0
  185.1930  177.8780  142.8710 C   0  0  0  0  0  2  0  0  0  0  0  0
  184.3950  179.0640  142.3650 C   0  0  0  0  0  2  0  0  0  0  0  0
  183.0500  178.5940  141.8300 C   0  0  0  0  0  2  0  0  0  0  0  0
  181.8170  176.4840  140.0140 F   0  0  0  0  0  0  0  0  0  0  0  0
  183.0430  178.5190  140.3050 C   0  0  2  0  0  3  0  0  0  0  0  0
  183.0530  177.0670  139.7960 C   0  0  2  0  0  3  0  0  0  0  0  0
  184.7770  177.6000  138.0900 C   0  0  0  0  0  2  0  0  0  0  0  0
  184.8990  178.9770  138.6860 C   0  0  0  0  0  3  0  0  0  0  0  0
  184.1420  179.3780  139.7180 C   0  0  0  0  0  3  0  0  0  0  0  0
  183.3810  177.0240  138.3070 C   0  0  0  0  0  2  0  0  0  0  0  0
  1 10  2  0  0  0  0
  2  6  1  0  0  0  0
  4 14  1  1  0  0  0
  4 15  1  0  0  0  0
  4  9  1  0  0  0  0
  7 13  2  0  0  0  0
  8  3  1  6  0  0  0
  8  1  1  0  0  0  0
  8  2  1  0  0  0  0
  9 25  1  6  0  0  0
  9 16  1  0  0  0  0
 11 17  1  1  0  0  0
 11  3  1  0  0  0  0
 12  5  1  0  0  0  0
 12  1  1  0  0  0  0
 13  2  1  0  0  0  0
 15 14  1  1  0  0  0
 15 11  1  0  0  0  0
 16  3  2  0  0  0  0
 16  7  1  0  0  0  0
 17 12  2  0  0  0  0
 18 24  1  6  0  0  0
 18 19  1  0  0  0  0
 18 22  1  0  0  0  0
 19 21  1  0  0  0  0
 20 22  1  6  0  0  0
 20 15  1  0  0  0  0
 21 23  1  0  0  0  0
 23 20  1  0  0  0  0
 26 25  1  0  0  0  0
 27 26  1  0  0  0  0
 29 27  1  1  0  0  0
 30 28  1  6  0  0  0
 30 29  1  0  0  0  0
 31 34  1  0  0  0  0
 31 32  1  0  0  0  0
 32 33  2  0  0  0  0
 33 29  1  0  0  0  0
 34 30  1  0  0  0  0
M  END
>  <MODEL>
7

>  <REMARK>
 VINA RESULT:      -8.4      2.553      7.665
  Name = 
  5 active torsions:
  status: ('A' for Active; 'I' for Inactive)
    1  A    between atoms: C_3  and  C_13
    2  A    between atoms: C_3  and  C_17
    3  A    between atoms: C_12  and  C_28
    4  A    between atoms: C_17  and  C_29
    5  A    between atoms: C_18  and  C_29
                            x       y       z     vdW  Elec       q    Type
                         _______ _______ _______ _____ _____    ______ ____

>  <TORSDO>
F 5

$$$$
=
 OpenBabel10252414543D

 34 39  0  0  1  0  0  0  0  0999 V2000
  180.0370  178.8510  140.9360 C   0  0  0  0  0  0  0  0  0  0  0  0
  181.1600  178.7770  143.1570 N   0  0  0  0  0  0  0  0  0  0  0  0
  182.4660  178.3360  141.0730 C   0  0  0  0  0  0  0  0  0  0  0  0
  185.0430  178.4650  139.6210 N   0  0  2  0  0  0  0  0  0  0  0  0
  179.1450  179.5490  138.6280 C   0  0  0  0  0  1  0  0  0  0  0  0
  179.9880  178.6520  144.0090 C   0  0  0  0  0  1  0  0  0  0  0  0
  183.5530  178.9160  143.1760 C   0  0  0  0  0  3  0  0  0  0  0  0
  181.1270  178.2420  141.7850 C   0  0  2  0  0  3  0  0  0  0  0  0
  184.9490  178.2990  141.0840 C   0  0  2  0  0  3  0  0  0  0  0  0
  178.9340  179.1850  141.4500 O   0  0  0  0  0  0  0  0  0  0  0  0
  182.4830  178.0050  139.6050 C   0  0  2  0  0  3  0  0  0  0  0  0
  180.2230  178.9660  139.4760 C   0  0  0  0  0  0  0  0  0  0  0  0
  182.4000  179.0250  143.8230 C   0  0  0  0  0  3  0  0  0  0  0  0
  184.3550  179.7040  139.1870 C   0  0  0  0  0  2  0  0  0  0  0  0
  183.7740  178.3970  138.8580 C   0  0  1  0  0  0  0  0  0  0  0  0
  183.6030  178.5590  141.7440 C   0  0  0  0  0  0  0  0  0  0  0  0
  181.3380  178.6090  138.9120 N   0  0  0  0  0  0  0  0  0  0  0  0
  183.0520  175.5140  137.2410 C   0  0  1  0  0  3  0  0  0  0  0  0
  184.3610  175.2080  137.6980 O   0  0  0  0  0  0  0  0  0  0  0  0
  183.9450  177.9050  137.4050 C   0  0  2  0  0  3  0  0  0  0  0  0
  185.2990  175.8320  136.8550 C   0  0  0  0  0  2  0  0  0  0  0  0
  182.8270  176.9940  136.8730 C   0  0  0  0  0  2  0  0  0  0  0  0
  185.3460  177.3320  137.1440 C   0  0  0  0  0  2  0  0  0  0  0  0
  182.6420  174.6040  136.0960 C   0  0  0  0  0  1  0  0  0  0  0  0
  186.1240  179.0080  141.7550 C   0  0  0  0  0  2  0  0  0  0  0  0
  187.2240  178.0130  142.0690 C   0  0  0  0  0  2  0  0  0  0  0  0
  186.8950  177.2640  143.3520 C   0  0  0  0  0  2  0  0  0  0  0  0
  189.7740  177.1940  144.3400 F   0  0  0  0  0  0  0  0  0  0  0  0
  187.5110  177.9370  144.5750 C   0  0  2  0  0  3  0  0  0  0  0  0
  188.6680  177.1160  145.1680 C   0  0  2  0  0  3  0  0  0  0  0  0
  187.8310  177.4680  147.4790 C   0  0  0  0  0  2  0  0  0  0  0  0
  186.6070  178.1290  146.9030 C   0  0  0  0  0  3  0  0  0  0  0  0
  186.4440  178.3030  145.5840 C   0  0  0  0  0  3  0  0  0  0  0  0
  189.0340  177.6310  146.5560 C   0  0  0  0  0  2  0  0  0  0  0  0
  1 10  2  0  0  0  0
  2 13  1  0  0  0  0
  2  6  1  0  0  0  0
  3 16  2  0  0  0  0
  3  8  1  0  0  0  0
  4 14  1  1  0  0  0
  4  9  1  0  0  0  0
  5 12  1  0  0  0  0
  7 13  2  0  0  0  0
  8  1  1  6  0  0  0
  8  2  1  0  0  0  0
  9 16  1  0  0  0  0
  9 25  1  1  0  0  0
 11 17  1  6  0  0  0
 11  3  1  0  0  0  0
 12  1  1  0  0  0  0
 15 14  1  6  0  0  0
 15 11  1  0  0  0  0
 15  4  1  0  0  0  0
 16  7  1  0  0  0  0
 17 12  2  0  0  0  0
 18 24  1  6  0  0  0
 18 19  1  0  0  0  0
 20 22  1  1  0  0  0
 20 15  1  0  0  0  0
 21 23  1  0  0  0  0
 21 19  1  0  0  0  0
 22 18  1  0  0  0  0
 23 20  1  0  0  0  0
 25 26  1  0  0  0  0
 26 27  1  0  0  0  0
 29 27  1  6  0  0  0
 29 30  1  0  0  0  0
 29 33  1  0  0  0  0
 30 28  1  6  0  0  0
 30 34  1  0  0  0  0
 32 31  1  0  0  0  0
 33 32  2  0  0  0  0
 34 31  1  0  0  0  0
M  END
>  <MODEL>
8

>  <REMARK>
 VINA RESULT:      -8.3      2.909      6.602
  Name = 
  5 active torsions:
  status: ('A' for Active; 'I' for Inactive)
    1  A    between atoms: C_3  and  C_13
    2  A    between atoms: C_3  and  C_17
    3  A    between atoms: C_12  and  C_28
    4  A    between atoms: C_17  and  C_29
    5  A    between atoms: C_18  and  C_29
                            x       y       z     vdW  Elec       q    Type
                         _______ _______ _______ _____ _____    ______ ____

>  <TORSDO>
F 5

$$$$
=
 OpenBabel10252414543D

 34 39  0  0  1  0  0  0  0  0999 V2000
  181.5680  176.8380  137.1000 C   0  0  0  0  0  0  0  0  0  0  0  0
  180.8020  177.1350  139.4500 N   0  0  0  0  0  0  0  0  0  0  0  0
  183.2320  177.2910  138.8900 C   0  0  0  0  0  0  0  0  0  0  0  0
  185.8990  178.4420  139.4690 N   0  0  2  0  0  0  0  0  0  0  0  0
  182.3600  177.2080  134.6820 C   0  0  0  0  0  1  0  0  0  0  0  0
  179.4780  176.5450  139.3430 C   0  0  0  0  0  1  0  0  0  0  0  0
  182.3300  178.1810  140.9720 C   0  0  0  0  0  3  0  0  0  0  0  0
  181.8850  176.6690  138.5660 C   0  0  2  0  0  3  0  0  0  0  0  0
  184.8780  178.2090  140.5090 C   0  0  2  0  0  3  0  0  0  0  0  0
  180.3860  176.7070  136.6800 O   0  0  0  0  0  0  0  0  0  0  0  0
  184.3540  177.0360  137.9190 C   0  0  2  0  0  3  0  0  0  0  0  0
  182.6620  177.0590  136.1340 C   0  0  0  0  0  0  0  0  0  0  0  0
  181.0900  177.8200  140.6710 C   0  0  0  0  0  3  0  0  0  0  0  0
  185.3740  179.3350  138.4070 C   0  0  0  0  0  2  0  0  0  0  0  0
  185.6050  177.9150  138.1140 C   0  0  1  0  0  0  0  0  0  0  0  0
  183.4560  177.9130  140.0550 C   0  0  0  0  0  0  0  0  0  0  0  0
  183.8940  177.1740  136.5320 N   0  0  0  0  0  0  0  0  0  0  0  0
  188.8830  177.5440  138.8650 C   0  0  1  0  0  3  0  0  0  0  0  0
  188.8590  178.9370  138.5930 O   0  0  0  0  0  0  0  0  0  0  0  0
  186.8650  177.5700  137.2930 C   0  0  2  0  0  3  0  0  0  0  0  0
  188.8610  179.1330  137.2000 C   0  0  0  0  0  2  0  0  0  0  0  0
  187.9130  176.7030  138.0110 C   0  0  0  0  0  2  0  0  0  0  0  0
  187.4830  178.8070  136.6240 C   0  0  0  0  0  2  0  0  0  0  0  0
  190.2950  176.9910  138.7790 C   0  0  0  0  0  1  0  0  0  0  0  0
  184.9820  179.2950  141.5780 C   0  0  0  0  0  2  0  0  0  0  0  0
  185.9300  178.8560  142.6770 C   0  0  0  0  0  2  0  0  0  0  0  0
  185.1460  178.5410  143.9430 C   0  0  0  0  0  2  0  0  0  0  0  0
  185.0400  178.4790  146.9840 F   0  0  0  0  0  0  0  0  0  0  0  0
  185.9620  177.6980  144.9180 C   0  0  2  0  0  3  0  0  0  0  0  0
  186.2110  178.4280  146.2490 C   0  0  2  0  0  3  0  0  0  0  0  0
  188.5960  177.7360  146.2680 C   0  0  0  0  0  2  0  0  0  0  0  0
  188.4090  177.1600  144.8890 C   0  0  0  0  0  3  0  0  0  0  0  0
  187.2240  177.1820  144.2610 C   0  0  0  0  0  3  0  0  0  0  0  0
  187.2910  177.7170  147.0570 C   0  0  0  0  0  2  0  0  0  0  0  0
  2 13  1  0  0  0  0
  3 16  2  0  0  0  0
  4 14  1  6  0  0  0
  4  9  1  0  0  0  0
  5 12  1  0  0  0  0
  6  2  1  0  0  0  0
  8  1  1  6  0  0  0
  8  3  1  0  0  0  0
  8  2  1  0  0  0  0
  9 25  1  1  0  0  0
 10  1  2  0  0  0  0
 11 17  1  6  0  0  0
 11 15  1  0  0  0  0
 11  3  1  0  0  0  0
 12 17  2  0  0  0  0
 12  1  1  0  0  0  0
 13  7  2  0  0  0  0
 15 14  1  6  0  0  0
 15  4  1  0  0  0  0
 16  9  1  0  0  0  0
 16  7  1  0  0  0  0
 18 24  1  6  0  0  0
 19 18  1  0  0  0  0
 20 23  1  1  0  0  0
 20 22  1  0  0  0  0
 20 15  1  0  0  0  0
 21 19  1  0  0  0  0
 22 18  1  0  0  0  0
 23 21  1  0  0  0  0
 25 26  1  0  0  0  0
 26 27  1  0  0  0  0
 29 27  1  6  0  0  0
 29 30  1  0  0  0  0
 30 28  1  1  0  0  0
 30 34  1  0  0  0  0
 31 34  1  0  0  0  0
 32 31  1  0  0  0  0
 33 32  2  0  0  0  0
 33 29  1  0  0  0  0
M  END
>  <MODEL>
9

>  <REMARK>
 VINA RESULT:      -8.3      2.747      6.064
  Name = 
  5 active torsions:
  status: ('A' for Active; 'I' for Inactive)
    1  A    between atoms: C_3  and  C_13
    2  A    between atoms: C_3  and  C_17
    3  A    between atoms: C_12  and  C_28
    4  A    between atoms: C_17  and  C_29
    5  A    between atoms: C_18  and  C_29
                            x       y       z     vdW  Elec       q    Type
                         _______ _______ _______ _____ _____    ______ ____

>  <TORSDO>
F 5

$$$$
