=
 OpenBabel10262420553D

 28 32  0  0  1  0  0  0  0  0999 V2000
  184.5320  178.5350  143.1840 N   0  0  0  0  0  0  0  0  0  0  0  0
  189.2770  177.6990  141.0850 C   0  0  0  0  0  2  0  0  0  0  0  0
  187.3800  177.8090  147.0400 C   0  0  0  0  0  2  0  0  0  0  0  0
  190.7030  177.5860  143.1570 C   0  0  0  0  0  0  0  0  0  0  0  0
  188.2520  177.8750  143.4030 C   0  0  1  0  0  3  0  0  0  0  0  0
  191.7650  177.6630  140.8960 C   0  0  1  0  0  3  0  0  0  0  0  0
  189.3560  177.2570  142.5460 C   0  0  1  0  0  3  0  0  0  0  0  0
  189.7820  177.6990  145.3690 C   0  0  0  0  0  3  0  0  0  0  0  0
  191.8010  177.6980  142.4020 C   0  0  0  0  0  3  0  0  0  0  0  0
  185.9830  178.2470  145.0960 C   0  0  0  0  0  0  0  0  0  0  0  0
  186.8630  177.5030  142.8980 C   0  0  0  0  0  2  0  0  0  0  0  0
  190.8140  177.7570  144.5780 N   0  0  0  0  0  0  0  0  0  0  0  0
  183.5610  178.8870  145.3890 C   0  0  0  0  0  2  0  0  0  0  0  0
  187.2900  177.9050  145.7160 C   0  0  0  0  0  0  0  0  0  0  0  0
  184.9140  178.7450  145.9140 N   0  0  0  0  0  2  0  0  0  0  0  0
  192.9430  176.8710  140.3660 C   0  0  0  0  0  1  0  0  0  0  0  0
  190.4580  177.0980  140.3370 C   0  0  0  0  0  2  0  0  0  0  0  0
  188.4050  177.3750  144.8440 C   0  0  1  0  0  3  0  0  0  0  0  0
  183.6310  179.3880  143.9560 C   0  0  0  0  0  2  0  0  0  0  0  0
  185.7970  178.1300  143.7610 C   0  0  0  0  0  0  0  0  0  0  0  0
  184.0830  178.1260  141.8550 C   0  0  1  0  0  3  0  0  0  0  0  0
  182.5490  178.1110  141.7470 C   0  0  0  0  0  2  0  0  0  0  0  0
  182.4390  179.0310  139.3780 C   0  0  1  0  0  3  0  0  0  0  0  0
  184.9710  179.0360  140.5290 S   0  0  0  0  0  0  0  0  0  0  0  0
  180.6120  179.2270  140.9140 O   0  0  0  0  0  1  0  0  0  0  0  0
  182.0040  179.2090  140.8370 C   0  0  1  0  0  3  0  0  0  0  0  0
  182.3530  180.3610  138.6550 C   0  0  0  0  0  1  0  0  0  0  0  0
  183.8460  178.4470  139.2210 C   0  0  0  0  0  2  0  0  0  0  0  0
  1 20  1  0  0  0  0
  1 19  1  0  0  0  0
  4 12  1  0  0  0  0
  5 11  1  6  0  0  0
  5 18  1  0  0  0  0
  6 16  1  1  0  0  0
  6  9  1  0  0  0  0
  7  2  1  6  0  0  0
  7  4  1  0  0  0  0
  7  5  1  0  0  0  0
  9  4  2  0  0  0  0
 10 14  1  0  0  0  0
 10 15  1  0  0  0  0
 11 20  1  0  0  0  0
 12  8  2  0  0  0  0
 13 15  1  0  0  0  0
 14  3  2  0  0  0  0
 17  6  1  0  0  0  0
 17  2  1  0  0  0  0
 18  8  1  1  0  0  0
 18 14  1  0  0  0  0
 19 13  1  0  0  0  0
 20 10  2  0  0  0  0
 21 22  1  1  0  0  0
 21  1  1  0  0  0  0
 23 27  1  1  0  0  0
 23 26  1  0  0  0  0
 24 21  1  0  0  0  0
 26 25  1  6  0  0  0
 26 22  1  0  0  0  0
 28 23  1  0  0  0  0
 28 24  1  0  0  0  0
M  END
>  <MODEL>
1

>  <REMARK>
 VINA RESULT:      -9.5      0.000      0.000
  Name = 
  1 active torsions:
  status: ('A' for Active; 'I' for Inactive)
    1  A    between atoms: N_1  and  C_2
                            x       y       z     vdW  Elec       q    Type
                         _______ _______ _______ _____ _____    ______ ____

>  <TORSDO>
F 1

$$$$
=
 OpenBabel10262420553D

 28 32  0  0  1  0  0  0  0  0999 V2000
  190.0510  177.2510  143.4330 N   0  0  0  0  0  0  0  0  0  0  0  0
  184.9790  178.5060  142.8770 C   0  0  0  0  0  2  0  0  0  0  0  0
  188.5070  177.8290  147.9920 C   0  0  0  0  0  2  0  0  0  0  0  0
  184.2270  178.5360  145.2800 C   0  0  0  0  0  0  0  0  0  0  0  0
  186.6150  178.0940  144.7760 C   0  0  1  0  0  3  0  0  0  0  0  0
  182.5520  178.6930  143.4310 C   0  0  1  0  0  3  0  0  0  0  0  0
  185.3600  178.8370  144.3190 C   0  0  1  0  0  3  0  0  0  0  0  0
  185.7390  178.2010  147.1120 C   0  0  0  0  0  3  0  0  0  0  0  0
  182.9520  178.5430  144.8760 C   0  0  0  0  0  3  0  0  0  0  0  0
  189.2430  177.4680  145.7000 C   0  0  0  0  0  0  0  0  0  0  0  0
  187.8220  178.4280  143.9070 C   0  0  0  0  0  2  0  0  0  0  0  0
  184.5200  178.2610  146.6570 N   0  0  0  0  0  0  0  0  0  0  0  0
  191.5910  176.6760  145.2290 C   0  0  0  0  0  2  0  0  0  0  0  0
  188.2010  177.8320  146.6960 C   0  0  0  0  0  0  0  0  0  0  0  0
  190.4630  176.8510  146.1370 N   0  0  0  0  0  2  0  0  0  0  0  0
  181.3350  179.5870  143.3190 C   0  0  0  0  0  1  0  0  0  0  0  0
  183.6800  179.2270  142.5460 C   0  0  0  0  0  2  0  0  0  0  0  0
  186.9250  178.4890  146.2240 C   0  0  1  0  0  3  0  0  0  0  0  0
  191.0700  176.2920  143.8540 C   0  0  0  0  0  2  0  0  0  0  0  0
  189.0420  177.6790  144.3790 C   0  0  0  0  0  0  0  0  0  0  0  0
  190.1250  177.7370  142.0570 C   0  0  1  0  0  3  0  0  0  0  0  0
  191.5770  177.9660  141.6070 C   0  0  0  0  0  2  0  0  0  0  0  0
  191.2610  177.1030  139.2350 C   0  0  1  0  0  3  0  0  0  0  0  0
  189.0840  176.7310  140.9250 S   0  0  0  0  0  0  0  0  0  0  0  0
  193.4010  177.1410  140.3080 O   0  0  0  0  0  1  0  0  0  0  0  0
  192.0390  176.9670  140.5480 C   0  0  1  0  0  3  0  0  0  0  0  0
  191.3530  175.8090  138.4510 C   0  0  0  0  0  1  0  0  0  0  0  0
  189.7910  177.4890  139.4260 C   0  0  0  0  0  2  0  0  0  0  0  0
  1 19  1  0  0  0  0
  1 20  1  0  0  0  0
  4 12  1  0  0  0  0
  5 11  1  6  0  0  0
  5 18  1  0  0  0  0
  6 16  1  1  0  0  0
  6  9  1  0  0  0  0
  7  2  1  6  0  0  0
  7  5  1  0  0  0  0
  7  4  1  0  0  0  0
  9  4  2  0  0  0  0
 10 15  1  0  0  0  0
 10 14  1  0  0  0  0
 11 20  1  0  0  0  0
 12  8  2  0  0  0  0
 13 15  1  0  0  0  0
 14  3  2  0  0  0  0
 17  2  1  0  0  0  0
 17  6  1  0  0  0  0
 18 14  1  0  0  0  0
 18  8  1  1  0  0  0
 19 13  1  0  0  0  0
 20 10  2  0  0  0  0
 21 22  1  6  0  0  0
 21  1  1  0  0  0  0
 23 27  1  1  0  0  0
 23 28  1  0  0  0  0
 23 26  1  0  0  0  0
 24 21  1  0  0  0  0
 26 25  1  6  0  0  0
 26 22  1  0  0  0  0
 28 24  1  0  0  0  0
M  END
>  <MODEL>
2

>  <REMARK>
 VINA RESULT:      -9.3      3.142      7.105
  Name = 
  1 active torsions:
  status: ('A' for Active; 'I' for Inactive)
    1  A    between atoms: N_1  and  C_2
                            x       y       z     vdW  Elec       q    Type
                         _______ _______ _______ _____ _____    ______ ____

>  <TORSDO>
F 1

$$$$
=
 OpenBabel10262420553D

 28 32  0  0  1  0  0  0  0  0999 V2000
  189.8960  177.2170  139.0810 N   0  0  0  0  0  0  0  0  0  0  0  0
  191.5630  176.2390  143.9680 C   0  0  0  0  0  2  0  0  0  0  0  0
  186.1440  178.5310  141.8570 C   0  0  0  0  0  2  0  0  0  0  0  0
  189.6590  177.1800  145.3210 C   0  0  0  0  0  0  0  0  0  0  0  0
  189.5030  177.2120  142.8450 C   0  0  1  0  0  3  0  0  0  0  0  0
  191.7730  176.4620  146.4450 C   0  0  1  0  0  3  0  0  0  0  0  0
  190.0520  176.4510  144.0510 C   0  0  1  0  0  3  0  0  0  0  0  0
  187.6720  178.0670  144.3120 C   0  0  0  0  0  3  0  0  0  0  0  0
  190.4160  177.1180  146.4210 C   0  0  0  0  0  3  0  0  0  0  0  0
  188.0670  177.9380  140.4870 C   0  0  0  0  0  0  0  0  0  0  0  0
  189.7800  176.4820  141.5370 C   0  0  0  0  0  2  0  0  0  0  0  0
  188.4380  177.9330  145.3560 N   0  0  0  0  0  0  0  0  0  0  0  0
  188.0120  178.3100  137.9930 C   0  0  0  0  0  2  0  0  0  0  0  0
  187.3890  178.0610  141.8040 C   0  0  0  0  0  0  0  0  0  0  0  0
  187.5040  178.5790  139.3320 N   0  0  0  0  0  2  0  0  0  0  0  0
  191.9540  175.6890  147.7350 C   0  0  0  0  0  1  0  0  0  0  0  0
  192.0220  175.5480  145.2440 C   0  0  0  0  0  2  0  0  0  0  0  0
  187.9870  177.3740  143.0100 C   0  0  1  0  0  3  0  0  0  0  0  0
  189.5260  178.1820  138.0490 C   0  0  0  0  0  2  0  0  0  0  0  0
  189.2300  177.2590  140.3660 C   0  0  0  0  0  0  0  0  0  0  0  0
  190.9290  176.2420  138.7380 C   0  0  1  0  0  3  0  0  0  0  0  0
  190.6110  175.5080  137.4250 C   0  0  0  0  0  2  0  0  0  0  0  0
  193.0040  175.4510  136.5650 C   0  0  1  0  0  3  0  0  0  0  0  0
  192.6130  176.9640  138.8650 S   0  0  0  0  0  0  0  0  0  0  0  0
  191.1140  175.2980  135.1030 O   0  0  0  0  0  1  0  0  0  0  0  0
  191.5590  175.8800  136.2880 C   0  0  1  0  0  3  0  0  0  0  0  0
  193.9530  176.2820  135.7250 C   0  0  0  0  0  1  0  0  0  0  0  0
  193.4030  175.5430  138.0410 C   0  0  0  0  0  2  0  0  0  0  0  0
  1 20  1  0  0  0  0
  2 17  1  0  0  0  0
  4 12  1  0  0  0  0
  4  9  2  0  0  0  0
  5 11  1  6  0  0  0
  5 18  1  0  0  0  0
  5  7  1  0  0  0  0
  6 16  1  1  0  0  0
  7  2  1  6  0  0  0
  7  4  1  0  0  0  0
  8 12  2  0  0  0  0
  9  6  1  0  0  0  0
 10 14  1  0  0  0  0
 13 19  1  0  0  0  0
 13 15  1  0  0  0  0
 14  3  2  0  0  0  0
 14 18  1  0  0  0  0
 15 10  1  0  0  0  0
 17  6  1  0  0  0  0
 18  8  1  1  0  0  0
 19  1  1  0  0  0  0
 20 10  2  0  0  0  0
 20 11  1  0  0  0  0
 21 22  1  6  0  0  0
 21 24  1  0  0  0  0
 21  1  1  0  0  0  0
 23 27  1  6  0  0  0
 23 28  1  0  0  0  0
 26 25  1  6  0  0  0
 26 23  1  0  0  0  0
 26 22  1  0  0  0  0
 28 24  1  0  0  0  0
M  END
>  <MODEL>
3

>  <REMARK>
 VINA RESULT:      -9.3      3.940      7.121
  Name = 
  1 active torsions:
  status: ('A' for Active; 'I' for Inactive)
    1  A    between atoms: N_1  and  C_2
                            x       y       z     vdW  Elec       q    Type
                         _______ _______ _______ _____ _____    ______ ____

>  <TORSDO>
F 1

$$$$
=
 OpenBabel10262420553D

 28 32  0  0  1  0  0  0  0  0999 V2000
  185.2220  178.4280  139.5980 N   0  0  0  0  0  0  0  0  0  0  0  0
  186.4180  177.9800  144.6950 C   0  0  0  0  0  2  0  0  0  0  0  0
  190.0380  177.8760  139.6010 C   0  0  0  0  0  2  0  0  0  0  0  0
  188.8770  177.4530  144.5650 C   0  0  0  0  0  0  0  0  0  0  0  0
  187.6340  177.9010  142.4660 C   0  0  1  0  0  3  0  0  0  0  0  0
  187.6610  177.2760  146.7420 C   0  0  1  0  0  3  0  0  0  0  0  0
  187.7300  178.2340  143.9550 C   0  0  1  0  0  3  0  0  0  0  0  0
  190.0820  177.4120  142.4920 C   0  0  0  0  0  3  0  0  0  0  0  0
  188.8610  177.0860  145.8510 C   0  0  0  0  0  3  0  0  0  0  0  0
  187.6130  178.0740  139.6170 C   0  0  0  0  0  0  0  0  0  0  0  0
  186.5590  178.7250  141.7670 C   0  0  0  0  0  2  0  0  0  0  0  0
  190.0160  177.1200  143.7590 N   0  0  0  0  0  0  0  0  0  0  0  0
  186.3320  178.1760  137.4460 C   0  0  0  0  0  2  0  0  0  0  0  0
  188.9180  177.9410  140.3160 C   0  0  0  0  0  0  0  0  0  0  0  0
  187.5360  177.8490  138.2010 N   0  0  0  0  0  2  0  0  0  0  0  0
  188.1020  177.7190  148.1210 C   0  0  0  0  0  1  0  0  0  0  0  0
  186.6390  178.2630  146.1750 C   0  0  0  0  0  2  0  0  0  0  0  0
  188.9860  178.1890  141.8050 C   0  0  1  0  0  3  0  0  0  0  0  0
  185.1090  177.8190  138.2750 C   0  0  0  0  0  2  0  0  0  0  0  0
  186.4850  178.3720  140.3030 C   0  0  0  0  0  0  0  0  0  0  0  0
  184.0290  179.0810  140.1320 C   0  0  1  0  0  3  0  0  0  0  0  0
  183.3650  180.0000  139.0930 C   0  0  0  0  0  2  0  0  0  0  0  0
  180.9680  179.4260  139.7220 C   0  0  1  0  0  3  0  0  0  0  0  0
  182.9160  177.8820  140.9690 S   0  0  0  0  0  0  0  0  0  0  0  0
  181.5560  180.2750  137.5620 O   0  0  0  0  0  1  0  0  0  0  0  0
  182.0170  179.4750  138.6060 C   0  0  1  0  0  3  0  0  0  0  0  0
  179.8800  178.4360  139.3570 C   0  0  0  0  0  1  0  0  0  0  0  0
  181.5460  179.0770  141.0970 C   0  0  0  0  0  2  0  0  0  0  0  0
  1 21  1  0  0  0  0
  1 20  1  0  0  0  0
  2 17  1  0  0  0  0
  3 14  2  0  0  0  0
  4  9  2  0  0  0  0
  5 11  1  6  0  0  0
  5  7  1  0  0  0  0
  6 16  1  1  0  0  0
  7  4  1  0  0  0  0
  7  2  1  1  0  0  0
  8 12  2  0  0  0  0
  9  6  1  0  0  0  0
 10 20  2  0  0  0  0
 10 14  1  0  0  0  0
 12  4  1  0  0  0  0
 13 15  1  0  0  0  0
 13 19  1  0  0  0  0
 14 18  1  0  0  0  0
 15 10  1  0  0  0  0
 17  6  1  0  0  0  0
 18  5  1  0  0  0  0
 18  8  1  1  0  0  0
 19  1  1  0  0  0  0
 20 11  1  0  0  0  0
 21 22  1  6  0  0  0
 21 24  1  0  0  0  0
 23 27  1  6  0  0  0
 23 28  1  0  0  0  0
 24 28  1  0  0  0  0
 26 25  1  6  0  0  0
 26 22  1  0  0  0  0
 26 23  1  0  0  0  0
M  END
>  <MODEL>
4

>  <REMARK>
 VINA RESULT:      -9.1      2.108      4.827
  Name = 
  1 active torsions:
  status: ('A' for Active; 'I' for Inactive)
    1  A    between atoms: N_1  and  C_2
                            x       y       z     vdW  Elec       q    Type
                         _______ _______ _______ _____ _____    ______ ____

>  <TORSDO>
F 1

$$$$
=
 OpenBabel10262420553D

 28 32  0  0  1  0  0  0  0  0999 V2000
  186.5140  178.4090  141.6790 N   0  0  0  0  0  0  0  0  0  0  0  0
  190.4370  176.9190  144.8430 C   0  0  0  0  0  2  0  0  0  0  0  0
  184.5040  178.4390  146.0910 C   0  0  0  0  0  2  0  0  0  0  0  0
  189.3660  177.2090  147.1030 C   0  0  0  0  0  0  0  0  0  0  0  0
  188.0160  177.6530  145.0700 C   0  0  1  0  0  3  0  0  0  0  0  0
  191.8120  176.7320  146.9180 C   0  0  1  0  0  3  0  0  0  0  0  0
  189.1490  176.8110  145.6570 C   0  0  1  0  0  3  0  0  0  0  0  0
  187.0710  177.8530  147.3730 C   0  0  0  0  0  3  0  0  0  0  0  0
  190.5670  177.1020  147.6810 C   0  0  0  0  0  3  0  0  0  0  0  0
  185.5530  178.4920  143.8960 C   0  0  0  0  0  0  0  0  0  0  0  0
  187.6790  177.2380  143.6430 C   0  0  0  0  0  2  0  0  0  0  0  0
  188.2590  177.6880  147.8800 N   0  0  0  0  0  0  0  0  0  0  0  0
  184.2530  179.2860  141.8850 C   0  0  0  0  0  2  0  0  0  0  0  0
  185.5980  178.2400  145.3600 C   0  0  0  0  0  0  0  0  0  0  0  0
  184.4440  179.2060  143.3290 N   0  0  0  0  0  2  0  0  0  0  0  0
  192.6680  175.7920  147.7410 C   0  0  0  0  0  1  0  0  0  0  0  0
  191.5200  176.1150  145.5490 C   0  0  0  0  0  2  0  0  0  0  0  0
  186.7670  177.4810  145.9430 C   0  0  1  0  0  3  0  0  0  0  0  0
  185.6040  179.4510  141.2100 C   0  0  0  0  0  2  0  0  0  0  0  0
  186.5620  178.0870  143.0910 C   0  0  0  0  0  0  0  0  0  0  0  0
  187.3270  177.7330  140.6700 C   0  0  1  0  0  3  0  0  0  0  0  0
  186.5510  177.5170  139.3600 C   0  0  0  0  0  2  0  0  0  0  0  0
  188.5060  178.0090  137.8090 C   0  0  1  0  0  3  0  0  0  0  0  0
  188.9840  178.5090  140.5020 S   0  0  0  0  0  0  0  0  0  0  0  0
  186.2270  178.2390  137.1090 O   0  0  0  0  0  1  0  0  0  0  0  0
  187.0720  178.3740  138.2100 C   0  0  1  0  0  3  0  0  0  0  0  0
  189.1480  179.1790  137.0900 C   0  0  0  0  0  1  0  0  0  0  0  0
  189.3860  177.5800  138.9870 C   0  0  0  0  0  2  0  0  0  0  0  0
  1 20  1  0  0  0  0
  2 17  1  0  0  0  0
  4  9  2  0  0  0  0
  4 12  1  0  0  0  0
  5 11  1  6  0  0  0
  5  7  1  0  0  0  0
  5 18  1  0  0  0  0
  6  9  1  0  0  0  0
  6 16  1  1  0  0  0
  7  2  1  6  0  0  0
  7  4  1  0  0  0  0
  8 12  2  0  0  0  0
 10 14  1  0  0  0  0
 13 15  1  0  0  0  0
 14 18  1  0  0  0  0
 14  3  2  0  0  0  0
 15 10  1  0  0  0  0
 17  6  1  0  0  0  0
 18  8  1  1  0  0  0
 19  1  1  0  0  0  0
 19 13  1  0  0  0  0
 20 11  1  0  0  0  0
 20 10  2  0  0  0  0
 21 22  1  6  0  0  0
 21  1  1  0  0  0  0
 23 27  1  1  0  0  0
 23 26  1  0  0  0  0
 23 28  1  0  0  0  0
 24 21  1  0  0  0  0
 26 25  1  6  0  0  0
 26 22  1  0  0  0  0
 28 24  1  0  0  0  0
M  END
>  <MODEL>
5

>  <REMARK>
 VINA RESULT:      -9.0      2.630      4.383
  Name = 
  1 active torsions:
  status: ('A' for Active; 'I' for Inactive)
    1  A    between atoms: N_1  and  C_2
                            x       y       z     vdW  Elec       q    Type
                         _______ _______ _______ _____ _____    ______ ____

>  <TORSDO>
F 1

$$$$
=
 OpenBabel10262420553D

 28 32  0  0  1  0  0  0  0  0999 V2000
  189.2740  177.3230  141.6450 N   0  0  0  0  0  0  0  0  0  0  0  0
  184.4630  178.7250  140.0590 C   0  0  0  0  0  2  0  0  0  0  0  0
  186.8210  177.8940  145.7880 C   0  0  0  0  0  2  0  0  0  0  0  0
  183.2250  178.7490  142.2510 C   0  0  0  0  0  0  0  0  0  0  0  0
  185.6540  178.2470  142.2520 C   0  0  1  0  0  3  0  0  0  0  0  0
  181.9800  178.9730  140.0950 C   0  0  1  0  0  3  0  0  0  0  0  0
  184.5410  179.0290  141.5540 C   0  0  1  0  0  3  0  0  0  0  0  0
  184.3090  178.3520  144.3530 C   0  0  0  0  0  3  0  0  0  0  0  0
  182.0640  178.7950  141.5890 C   0  0  0  0  0  3  0  0  0  0  0  0
  188.0120  177.5380  143.6960 C   0  0  0  0  0  0  0  0  0  0  0  0
  187.0240  178.5570  141.6610 C   0  0  0  0  0  2  0  0  0  0  0  0
  183.2160  178.4510  143.6550 N   0  0  0  0  0  0  0  0  0  0  0  0
  190.3870  176.6860  143.7150 C   0  0  0  0  0  2  0  0  0  0  0  0
  186.7940  177.9190  144.4580 C   0  0  0  0  0  0  0  0  0  0  0  0
  189.0980  176.8820  144.3680 N   0  0  0  0  0  2  0  0  0  0  0  0
  180.8360  179.9010  139.7450 C   0  0  0  0  0  1  0  0  0  0  0  0
  183.2810  179.4850  139.4750 C   0  0  0  0  0  2  0  0  0  0  0  0
  185.6620  178.6170  143.7390 C   0  0  1  0  0  3  0  0  0  0  0  0
  190.1570  176.3320  142.2540 C   0  0  0  0  0  2  0  0  0  0  0  0
  188.0990  177.7690  142.3660 C   0  0  0  0  0  0  0  0  0  0  0  0
  189.6470  177.8220  140.3230 C   0  0  1  0  0  3  0  0  0  0  0  0
  191.0840  177.4270  139.9460 C   0  0  0  0  0  2  0  0  0  0  0  0
  190.5950  176.9540  137.4950 C   0  0  1  0  0  3  0  0  0  0  0  0
  188.3570  177.4500  139.0690 S   0  0  0  0  0  0  0  0  0  0  0  0
  192.4610  175.9830  138.6390 O   0  0  0  0  0  1  0  0  0  0  0  0
  191.1440  176.4030  138.8160 C   0  0  1  0  0  3  0  0  0  0  0  0
  190.1770  175.8050  136.5980 C   0  0  0  0  0  1  0  0  0  0  0  0
  189.4250  177.9260  137.6710 C   0  0  0  0  0  2  0  0  0  0  0  0
  1 19  1  0  0  0  0
  1 20  1  0  0  0  0
  4 12  1  0  0  0  0
  5 11  1  6  0  0  0
  5 18  1  0  0  0  0
  6 16  1  1  0  0  0
  6  9  1  0  0  0  0
  7  2  1  6  0  0  0
  7  4  1  0  0  0  0
  7  5  1  0  0  0  0
  9  4  2  0  0  0  0
 10 15  1  0  0  0  0
 10 14  1  0  0  0  0
 11 20  1  0  0  0  0
 12  8  2  0  0  0  0
 13 15  1  0  0  0  0
 14  3  2  0  0  0  0
 17  2  1  0  0  0  0
 17  6  1  0  0  0  0
 18  8  1  1  0  0  0
 18 14  1  0  0  0  0
 19 13  1  0  0  0  0
 20 10  2  0  0  0  0
 21 22  1  6  0  0  0
 21  1  1  0  0  0  0
 23 27  1  6  0  0  0
 23 28  1  0  0  0  0
 23 26  1  0  0  0  0
 24 21  1  0  0  0  0
 26 25  1  6  0  0  0
 26 22  1  0  0  0  0
 28 24  1  0  0  0  0
M  END
>  <MODEL>
6

>  <REMARK>
 VINA RESULT:      -9.0      2.974      7.020
  Name = 
  1 active torsions:
  status: ('A' for Active; 'I' for Inactive)
    1  A    between atoms: N_1  and  C_2
                            x       y       z     vdW  Elec       q    Type
                         _______ _______ _______ _____ _____    ______ ____

>  <TORSDO>
F 1

$$$$
=
 OpenBabel10262420553D

 28 32  0  0  1  0  0  0  0  0999 V2000
  189.5840  177.3660  142.7720 N   0  0  0  0  0  0  0  0  0  0  0  0
  184.4980  178.6450  142.4360 C   0  0  0  0  0  2  0  0  0  0  0  0
  188.2140  177.8450  147.3980 C   0  0  0  0  0  2  0  0  0  0  0  0
  183.8370  178.6220  144.8660 C   0  0  0  0  0  0  0  0  0  0  0  0
  186.2030  178.1870  144.2620 C   0  0  1  0  0  3  0  0  0  0  0  0
  182.0950  178.8250  143.0860 C   0  0  1  0  0  3  0  0  0  0  0  0
  184.9340  178.9430  143.8700 C   0  0  1  0  0  3  0  0  0  0  0  0
  185.4160  178.2430  146.6310 C   0  0  0  0  0  3  0  0  0  0  0  0
  182.5480  178.6410  144.5110 C   0  0  0  0  0  3  0  0  0  0  0  0
  188.8620  177.5350  145.0730 C   0  0  0  0  0  0  0  0  0  0  0  0
  187.3770  178.5380  143.3560 C   0  0  0  0  0  2  0  0  0  0  0  0
  184.1810  178.3160  146.2250 N   0  0  0  0  0  0  0  0  0  0  0  0
  191.1880  176.7480  144.4960 C   0  0  0  0  0  2  0  0  0  0  0  0
  187.8600  177.8780  146.1150 C   0  0  0  0  0  0  0  0  0  0  0  0
  190.0960  176.9050  145.4490 N   0  0  0  0  0  2  0  0  0  0  0  0
  180.8760  179.7240  143.0390 C   0  0  0  0  0  1  0  0  0  0  0  0
  183.1890  179.3760  142.1700 C   0  0  0  0  0  2  0  0  0  0  0  0
  186.5680  178.5480  145.7070 C   0  0  1  0  0  3  0  0  0  0  0  0
  190.6150  176.3960  143.1330 C   0  0  0  0  0  2  0  0  0  0  0  0
  188.6130  177.7750  143.7650 C   0  0  0  0  0  0  0  0  0  0  0  0
  189.6070  177.8830  141.4060 C   0  0  1  0  0  3  0  0  0  0  0  0
  190.7240  177.2390  140.5680 C   0  0  0  0  0  2  0  0  0  0  0  0
  189.3780  177.0680  138.4160 C   0  0  1  0  0  3  0  0  0  0  0  0
  187.9330  177.8770  140.6490 S   0  0  0  0  0  0  0  0  0  0  0  0
  191.2590  175.6550  138.8650 O   0  0  0  0  0  1  0  0  0  0  0  0
  190.1930  176.3160  139.4740 C   0  0  1  0  0  3  0  0  0  0  0  0
  188.4550  176.1020  137.7010 C   0  0  0  0  0  1  0  0  0  0  0  0
  188.5670  178.2380  138.9790 C   0  0  0  0  0  2  0  0  0  0  0  0
  1 19  1  0  0  0  0
  1 20  1  0  0  0  0
  4 12  1  0  0  0  0
  5 11  1  6  0  0  0
  5 18  1  0  0  0  0
  6 16  1  1  0  0  0
  6  9  1  0  0  0  0
  7  2  1  6  0  0  0
  7  5  1  0  0  0  0
  7  4  1  0  0  0  0
  9  4  2  0  0  0  0
 10 15  1  0  0  0  0
 10 14  1  0  0  0  0
 11 20  1  0  0  0  0
 12  8  2  0  0  0  0
 13 15  1  0  0  0  0
 14  3  2  0  0  0  0
 17  2  1  0  0  0  0
 17  6  1  0  0  0  0
 18 14  1  0  0  0  0
 18  8  1  1  0  0  0
 19 13  1  0  0  0  0
 20 10  2  0  0  0  0
 21 22  1  6  0  0  0
 21  1  1  0  0  0  0
 23 27  1  1  0  0  0
 23 28  1  0  0  0  0
 23 26  1  0  0  0  0
 24 21  1  0  0  0  0
 26 25  1  6  0  0  0
 26 22  1  0  0  0  0
 28 24  1  0  0  0  0
M  END
>  <MODEL>
7

>  <REMARK>
 VINA RESULT:      -8.9      2.755      6.656
  Name = 
  1 active torsions:
  status: ('A' for Active; 'I' for Inactive)
    1  A    between atoms: N_1  and  C_2
                            x       y       z     vdW  Elec       q    Type
                         _______ _______ _______ _____ _____    ______ ____

>  <TORSDO>
F 1

$$$$
=
 OpenBabel10262420553D

 28 32  0  0  1  0  0  0  0  0999 V2000
  185.0160  178.6170  139.8830 N   0  0  1  0  0  0  0  0  0  0  0  0
  187.6210  177.8720  144.3860 C   0  0  0  0  0  2  0  0  0  0  0  0
  181.6190  179.2310  143.2870 C   0  0  0  0  0  2  0  0  0  0  0  0
  185.8420  178.4550  146.0700 C   0  0  0  0  0  0  0  0  0  0  0  0
  185.2680  178.4940  143.6570 C   0  0  1  0  0  3  0  0  0  0  0  0
  188.2040  178.0950  146.8030 C   0  0  1  0  0  3  0  0  0  0  0  0
  186.1320  177.8210  144.7240 C   0  0  1  0  0  3  0  0  0  0  0  0
  183.5940  179.0020  145.4380 C   0  0  0  0  0  3  0  0  0  0  0  0
  186.7730  178.5090  147.0280 C   0  0  0  0  0  3  0  0  0  0  0  0
  183.3550  178.9950  141.5980 C   0  0  0  0  0  0  0  0  0  0  0  0
  185.4390  177.8400  142.2910 C   0  0  0  0  0  2  0  0  0  0  0  0
  184.5360  178.9870  146.3360 N   0  0  0  0  0  0  0  0  0  0  0  0
  182.8210  179.3860  139.1640 C   0  0  0  0  0  2  0  0  0  0  0  0
  182.8980  178.9810  143.0120 C   0  0  0  0  0  0  0  0  0  0  0  0
  182.5070  179.5460  140.5790 N   0  0  0  0  0  0  0  0  0  0  0  0
  188.7260  177.3470  148.0120 C   0  0  0  0  0  1  0  0  0  0  0  0
  188.3970  177.2530  145.5400 C   0  0  0  0  0  2  0  0  0  0  0  0
  183.7960  178.3910  144.0740 C   0  0  1  0  0  3  0  0  0  0  0  0
  184.3220  179.5180  138.9660 C   0  0  0  0  0  2  0  0  0  0  0  0
  184.5790  178.5260  141.2600 C   0  0  1  0  0  3  0  0  0  0  0  0
  186.1240  177.8370  139.3350 C   0  0  1  0  0  3  0  0  0  0  0  0
  185.9770  177.6160  137.8210 C   0  0  0  0  0  2  0  0  0  0  0  0
  188.4450  177.8920  137.2690 C   0  0  1  0  0  3  0  0  0  0  0  0
  187.7510  178.4830  139.8970 S   0  0  0  0  0  0  0  0  0  0  0  0
  186.7220  178.2530  135.6460 O   0  0  0  0  0  1  0  0  0  0  0  0
  187.0160  178.3780  137.0020 C   0  0  1  0  0  3  0  0  0  0  0  0
  189.4320  178.9780  136.8890 C   0  0  0  0  0  1  0  0  0  0  0  0
  188.6870  177.4560  138.7170 C   0  0  0  0  0  2  0  0  0  0  0  0
  1 19  1  6  0  0  0
  1 20  1  0  0  0  0
  2 17  1  0  0  0  0
  4 12  1  0  0  0  0
  4  9  2  0  0  0  0
  5 11  1  6  0  0  0
  5 18  1  0  0  0  0
  5  7  1  0  0  0  0
  6  9  1  0  0  0  0
  6 16  1  1  0  0  0
  7  2  1  6  0  0  0
  7  4  1  0  0  0  0
  8 12  2  0  0  0  0
 10 14  1  0  0  0  0
 13 15  1  0  0  0  0
 14  3  2  0  0  0  0
 14 18  1  0  0  0  0
 15 10  2  0  0  0  0
 17  6  1  0  0  0  0
 18  8  1  1  0  0  0
 19 13  1  0  0  0  0
 20 10  1  0  0  0  0
 20 11  1  6  0  0  0
 21 22  1  6  0  0  0
 21  1  1  0  0  0  0
 21 24  1  0  0  0  0
 23 27  1  1  0  0  0
 23 28  1  0  0  0  0
 26 25  1  6  0  0  0
 26 23  1  0  0  0  0
 26 22  1  0  0  0  0
 28 24  1  0  0  0  0
M  END
>  <MODEL>
8

>  <REMARK>
 VINA RESULT:      -8.8      2.893      5.587
  Name = 
  1 active torsions:
  status: ('A' for Active; 'I' for Inactive)
    1  A    between atoms: N_1  and  C_2
                            x       y       z     vdW  Elec       q    Type
                         _______ _______ _______ _____ _____    ______ ____

>  <TORSDO>
F 1

$$$$
=
 OpenBabel10262420553D

 28 32  0  0  1  0  0  0  0  0999 V2000
  187.7580  177.7100  144.0410 N   0  0  0  0  0  0  0  0  0  0  0  0
  189.1050  177.4240  138.9690 C   0  0  0  0  0  2  0  0  0  0  0  0
  183.7210  179.0370  141.7060 C   0  0  0  0  0  2  0  0  0  0  0  0
  186.8920  177.8840  137.8590 C   0  0  0  0  0  0  0  0  0  0  0  0
  187.0310  177.9580  140.3350 C   0  0  1  0  0  3  0  0  0  0  0  0
  188.8480  177.1170  136.5050 C   0  0  1  0  0  3  0  0  0  0  0  0
  187.7940  178.2060  139.0340 C   0  0  1  0  0  3  0  0  0  0  0  0
  184.9150  178.4390  139.0990 C   0  0  0  0  0  3  0  0  0  0  0  0
  187.3920  177.4560  136.6950 C   0  0  0  0  0  3  0  0  0  0  0  0
  185.7330  178.2940  142.8550 C   0  0  0  0  0  0  0  0  0  0  0  0
  187.8480  178.3530  141.5590 C   0  0  0  0  0  2  0  0  0  0  0  0
  185.4740  178.0630  137.9850 N   0  0  0  0  0  0  0  0  0  0  0  0
  185.7420  178.0400  145.3650 C   0  0  0  0  0  2  0  0  0  0  0  0
  184.9830  178.6230  141.6150 C   0  0  0  0  0  0  0  0  0  0  0  0
  185.0290  178.1480  144.0980 N   0  0  0  0  0  2  0  0  0  0  0  0
  189.3240  177.6050  135.1530 C   0  0  0  0  0  1  0  0  0  0  0  0
  189.7460  177.6740  137.6110 C   0  0  0  0  0  2  0  0  0  0  0  0
  185.7380  178.7820  140.3160 C   0  0  1  0  0  3  0  0  0  0  0  0
  186.9870  177.1910  145.1680 C   0  0  0  0  0  2  0  0  0  0  0  0
  187.0710  178.0940  142.8250 C   0  0  0  0  0  0  0  0  0  0  0  0
  189.2030  177.8230  144.2210 C   0  0  1  0  0  3  0  0  0  0  0  0
  189.5750  178.1760  145.6710 C   0  0  0  0  0  2  0  0  0  0  0  0
  191.6280  176.6790  145.7930 C   0  0  1  0  0  3  0  0  0  0  0  0
  190.0920  176.3890  143.4930 S   0  0  0  0  0  0  0  0  0  0  0  0
  190.4300  177.3710  147.7470 O   0  0  0  0  0  1  0  0  0  0  0  0
  190.2670  177.0310  146.4050 C   0  0  1  0  0  3  0  0  0  0  0  0
  192.0060  175.2610  146.1730 C   0  0  0  0  0  1  0  0  0  0  0  0
  191.6780  176.8370  144.2700 C   0  0  0  0  0  2  0  0  0  0  0  0
  1 19  1  0  0  0  0
  4 12  1  0  0  0  0
  4  7  1  0  0  0  0
  5 11  1  1  0  0  0
  6 16  1  6  0  0  0
  6  9  1  0  0  0  0
  6 17  1  0  0  0  0
  7  2  1  1  0  0  0
  7  5  1  0  0  0  0
  9  4  2  0  0  0  0
 10 15  1  0  0  0  0
 11 20  1  0  0  0  0
 12  8  2  0  0  0  0
 14  3  2  0  0  0  0
 14 10  1  0  0  0  0
 15 13  1  0  0  0  0
 17  2  1  0  0  0  0
 18  8  1  6  0  0  0
 18  5  1  0  0  0  0
 18 14  1  0  0  0  0
 19 13  1  0  0  0  0
 20 10  2  0  0  0  0
 20  1  1  0  0  0  0
 21  1  1  1  0  0  0
 21 22  1  0  0  0  0
 22 26  1  0  0  0  0
 23 27  1  6  0  0  0
 23 26  1  0  0  0  0
 24 21  1  0  0  0  0
 24 28  1  0  0  0  0
 26 25  1  1  0  0  0
 28 23  1  0  0  0  0
M  END
>  <MODEL>
9

>  <REMARK>
 VINA RESULT:      -8.7      3.608      6.733
  Name = 
  1 active torsions:
  status: ('A' for Active; 'I' for Inactive)
    1  A    between atoms: N_1  and  C_2
                            x       y       z     vdW  Elec       q    Type
                         _______ _______ _______ _____ _____    ______ ____

>  <TORSDO>
F 1

$$$$
