=
 OpenBabel10262421253D

 32 37  0  0  1  0  0  0  0  0999 V2000
  189.1640  173.3030  135.6750 C   0  0  0  0  0  0  0  0  0  0  0  0
  190.9060  175.3100  138.2810 C   0  0  0  0  0  2  0  0  0  0  0  0
  186.9330  178.1090  138.7710 C   0  0  0  0  0  2  0  0  0  0  0  0
  188.7870  176.9680  144.3110 C   0  0  0  0  0  2  0  0  0  0  0  0
  187.2690  176.8210  144.4500 C   0  0  0  0  0  2  0  0  0  0  0  0
  189.1310  177.7940  137.5310 C   0  0  0  0  0  0  0  0  0  0  0  0
  189.8440  178.1600  139.9330 C   0  0  0  0  0  2  0  0  0  0  0  0
  189.9700  173.5120  136.7830 C   0  0  0  0  0  3  0  0  0  0  0  0
  191.2640  176.7940  138.3070 C   0  0  0  0  0  2  0  0  0  0  0  0
  189.2150  176.7410  142.8570 C   0  0  0  0  0  2  0  0  0  0  0  0
  188.5110  177.6620  140.4480 C   0  0  1  0  0  3  0  0  0  0  0  0
  188.3610  177.5470  141.9240 C   0  0  0  0  0  0  0  0  0  0  0  0
  186.5120  178.4800  141.0640 N   0  0  0  0  0  0  0  0  0  0  0  0
  188.6210  174.7640  135.0540 S   0  0  0  0  0  0  0  0  0  0  0  0
  189.3970  175.7100  136.2070 C   0  0  0  0  0  0  0  0  0  0  0  0
  188.8420  172.0270  135.1380 N   0  0  0  0  0  1  0  0  0  0  0  0
  190.0370  177.6270  138.5360 C   0  0  0  0  0  0  0  0  0  0  0  0
  189.3980  177.2060  136.1760 C   0  0  0  0  0  2  0  0  0  0  0  0
  190.1190  174.8750  137.0750 C   0  0  0  0  0  0  0  0  0  0  0  0
  186.5440  177.8650  143.5920 C   0  0  0  0  0  2  0  0  0  0  0  0
  187.1310  177.9220  142.2120 C   0  0  0  0  0  0  0  0  0  0  0  0
  187.8580  178.6020  137.6600 C   0  0  0  0  0  2  0  0  0  0  0  0
  187.4630  178.5920  140.0340 N   0  0  2  0  0  0  0  0  0  0  0  0
  185.3110  179.3080  141.1150 C   0  0  0  0  0  2  0  0  0  0  0  0
  183.7450  177.5170  140.5610 C   0  0  0  0  0  3  0  0  0  0  0  0
  182.6720  176.9350  139.7490 C   0  0  0  0  0  0  0  0  0  0  0  0
  183.7140  179.4590  139.0900 C   0  0  0  0  0  0  0  0  0  0  0  0
  182.8700  178.7480  138.0730 C   0  0  0  0  0  2  0  0  0  0  0  0
  182.1790  177.6320  138.6420 O   0  0  0  0  0  0  0  0  0  0  0  0
  182.1670  175.8280  140.0720 O   0  0  0  0  0  0  0  0  0  0  0  0
  184.0230  180.6650  138.9050 O   0  0  0  0  0  0  0  0  0  0  0  0
  184.2310  178.7230  140.2630 C   0  0  0  0  0  0  0  0  0  0  0  0
  1  8  2  0  0  0  0
  2  9  1  0  0  0  0
  4  5  1  0  0  0  0
  6 22  1  0  0  0  0
  6 17  2  0  0  0  0
  8 19  1  0  0  0  0
  9 17  1  0  0  0  0
 10  4  1  0  0  0  0
 11  7  1  1  0  0  0
 11 12  1  0  0  0  0
 12 21  2  0  0  0  0
 12 10  1  0  0  0  0
 13 24  1  0  0  0  0
 13 21  1  0  0  0  0
 14  1  1  0  0  0  0
 14 15  1  0  0  0  0
 15 19  2  0  0  0  0
 16  1  1  0  0  0  0
 17  7  1  0  0  0  0
 18 15  1  0  0  0  0
 18  6  1  0  0  0  0
 19  2  1  0  0  0  0
 20  5  1  0  0  0  0
 21 20  1  0  0  0  0
 22  3  1  0  0  0  0
 23  3  1  6  0  0  0
 23 11  1  0  0  0  0
 23 13  1  0  0  0  0
 26 30  2  0  0  0  0
 26 25  1  0  0  0  0
 27 32  1  0  0  0  0
 28 29  1  0  0  0  0
 28 27  1  0  0  0  0
 29 26  1  0  0  0  0
 31 27  2  0  0  0  0
 32 25  2  0  0  0  0
 32 24  1  0  0  0  0
M  END
>  <MODEL>
1

>  <REMARK>
 VINA RESULT:      -8.4      0.000      0.000
  Name = 
  2 active torsions:
  status: ('A' for Active; 'I' for Inactive)
    1  A    between atoms: N_16  and  C_27
    2  A    between atoms: C_27  and  C_32
                            x       y       z     vdW  Elec       q    Type
                         _______ _______ _______ _____ _____    ______ ____

>  <TORSDO>
F 2

$$$$
=
 OpenBabel10262421253D

 32 37  0  0  1  0  0  0  0  0999 V2000
  187.7610  173.1610  135.5350 C   0  0  0  0  0  0  0  0  0  0  0  0
  190.5230  174.4420  137.6780 C   0  0  0  0  0  2  0  0  0  0  0  0
  187.7330  178.2290  138.9980 C   0  0  0  0  0  2  0  0  0  0  0  0
  190.3060  176.3050  144.0090 C   0  0  0  0  0  2  0  0  0  0  0  0
  188.8770  176.5910  144.4780 C   0  0  0  0  0  2  0  0  0  0  0  0
  189.4290  177.3670  137.3100 C   0  0  0  0  0  0  0  0  0  0  0  0
  190.7100  177.3820  139.4940 C   0  0  0  0  0  2  0  0  0  0  0  0
  188.8080  173.0710  136.4380 C   0  0  0  0  0  3  0  0  0  0  0  0
  191.2930  175.7580  137.6100 C   0  0  0  0  0  2  0  0  0  0  0  0
  190.3320  176.0450  142.4990 C   0  0  0  0  0  2  0  0  0  0  0  0
  189.4310  177.2580  140.2930 C   0  0  1  0  0  3  0  0  0  0  0  0
  189.5710  177.1110  141.7670 C   0  0  0  0  0  0  0  0  0  0  0  0
  187.9350  178.5780  141.3240 N   0  0  0  0  0  0  0  0  0  0  0  0
  187.5470  174.7480  135.0340 S   0  0  0  0  0  0  0  0  0  0  0  0
  188.7900  175.3690  135.9800 C   0  0  0  0  0  0  0  0  0  0  0  0
  186.9750  172.0620  135.0950 N   0  0  0  0  0  1  0  0  0  0  0  0
  190.4390  176.8940  138.0940 C   0  0  0  0  0  0  0  0  0  0  0  0
  189.2200  176.8010  135.9350 C   0  0  0  0  0  2  0  0  0  0  0  0
  189.4050  174.3160  136.6780 C   0  0  0  0  0  0  0  0  0  0  0  0
  188.3220  177.8430  143.7900 C   0  0  0  0  0  2  0  0  0  0  0  0
  188.5940  177.8050  142.3130 C   0  0  0  0  0  0  0  0  0  0  0  0
  188.5040  178.4970  137.7060 C   0  0  0  0  0  2  0  0  0  0  0  0
  188.6350  178.4700  140.1100 N   0  0  2  0  0  0  0  0  0  0  0  0
  187.0650  179.7120  141.6290 C   0  0  0  0  0  2  0  0  0  0  0  0
  185.2330  178.9910  143.0740 C   0  0  0  0  0  3  0  0  0  0  0  0
  183.8500  178.5610  143.3020 C   0  0  0  0  0  0  0  0  0  0  0  0
  184.7450  179.0740  140.6890 C   0  0  0  0  0  0  0  0  0  0  0  0
  183.4550  178.3280  140.8680 C   0  0  0  0  0  2  0  0  0  0  0  0
  182.9840  178.3950  142.2160 O   0  0  0  0  0  0  0  0  0  0  0  0
  183.4310  178.3800  144.4750 O   0  0  0  0  0  0  0  0  0  0  0  0
  185.0650  179.4930  139.5460 O   0  0  0  0  0  0  0  0  0  0  0  0
  185.6570  179.2530  141.8380 C   0  0  0  0  0  0  0  0  0  0  0  0
  1  8  2  0  0  0  0
  4  5  1  0  0  0  0
  6 22  1  0  0  0  0
  6 17  2  0  0  0  0
  8 19  1  0  0  0  0
  9  2  1  0  0  0  0
  9 17  1  0  0  0  0
 10  4  1  0  0  0  0
 11  7  1  6  0  0  0
 11 12  1  0  0  0  0
 12 21  2  0  0  0  0
 12 10  1  0  0  0  0
 13 24  1  0  0  0  0
 13 21  1  0  0  0  0
 14  1  1  0  0  0  0
 14 15  1  0  0  0  0
 15 19  2  0  0  0  0
 16  1  1  0  0  0  0
 17  7  1  0  0  0  0
 18 15  1  0  0  0  0
 18  6  1  0  0  0  0
 19  2  1  0  0  0  0
 20  5  1  0  0  0  0
 21 20  1  0  0  0  0
 22  3  1  0  0  0  0
 23  3  1  6  0  0  0
 23 11  1  0  0  0  0
 23 13  1  0  0  0  0
 24 32  1  0  0  0  0
 25 26  1  0  0  0  0
 26 30  2  0  0  0  0
 27 28  1  0  0  0  0
 27 32  1  0  0  0  0
 28 29  1  0  0  0  0
 29 26  1  0  0  0  0
 31 27  2  0  0  0  0
 32 25  2  0  0  0  0
M  END
>  <MODEL>
2

>  <REMARK>
 VINA RESULT:      -7.8      1.628      1.999
  Name = 
  2 active torsions:
  status: ('A' for Active; 'I' for Inactive)
    1  A    between atoms: N_16  and  C_27
    2  A    between atoms: C_27  and  C_32
                            x       y       z     vdW  Elec       q    Type
                         _______ _______ _______ _____ _____    ______ ____

>  <TORSDO>
F 2

$$$$
=
 OpenBabel10262421253D

 32 37  0  0  1  0  0  0  0  0999 V2000
  180.4310  175.2420  139.9130 C   0  0  0  0  0  0  0  0  0  0  0  0
  182.4430  175.6470  136.8080 C   0  0  0  0  0  2  0  0  0  0  0  0
  185.7320  178.2710  139.2900 C   0  0  0  0  0  2  0  0  0  0  0  0
  188.8880  174.5350  135.8960 C   0  0  0  0  0  2  0  0  0  0  0  0
  189.6580  174.4870  137.2180 C   0  0  0  0  0  2  0  0  0  0  0  0
  183.5890  178.3540  137.9240 C   0  0  0  0  0  0  0  0  0  0  0  0
  185.3160  177.5030  136.2800 C   0  0  0  0  0  2  0  0  0  0  0  0
  181.0190  174.8400  138.7240 C   0  0  0  0  0  3  0  0  0  0  0  0
  182.8420  176.9110  136.0490 C   0  0  0  0  0  2  0  0  0  0  0  0
  187.4360  174.9640  136.1370 C   0  0  0  0  0  2  0  0  0  0  0  0
  186.1720  176.9530  137.4000 C   0  0  1  0  0  3  0  0  0  0  0  0
  187.3850  176.1870  137.0050 C   0  0  0  0  0  0  0  0  0  0  0  0
  187.9060  177.5820  138.6810 N   0  0  0  0  0  0  0  0  0  0  0  0
  180.7250  176.8690  140.1970 S   0  0  0  0  0  0  0  0  0  0  0  0
  181.6340  177.0990  138.8030 C   0  0  0  0  0  0  0  0  0  0  0  0
  179.6820  174.3940  140.7730 N   0  0  0  0  0  1  0  0  0  0  0  0
  183.9080  177.6580  136.7960 C   0  0  0  0  0  0  0  0  0  0  0  0
  182.1590  178.4330  138.3750 C   0  0  0  0  0  2  0  0  0  0  0  0
  181.6850  175.8930  138.0840 C   0  0  0  0  0  0  0  0  0  0  0  0
  189.6940  175.8720  137.8750 C   0  0  0  0  0  2  0  0  0  0  0  0
  188.3310  176.5020  137.8660 C   0  0  0  0  0  0  0  0  0  0  0  0
  184.5870  179.1290  138.7550 C   0  0  0  0  0  2  0  0  0  0  0  0
  186.6750  178.0650  138.2050 N   0  0  2  0  0  0  0  0  0  0  0  0
  188.8160  178.4040  139.4740 C   0  0  0  0  0  2  0  0  0  0  0  0
  188.1840  177.4170  141.6170 C   0  0  0  0  0  3  0  0  0  0  0  0
  188.4980  176.7280  142.8730 C   0  0  0  0  0  0  0  0  0  0  0  0
  190.5620  177.3960  141.0890 C   0  0  0  0  0  0  0  0  0  0  0  0
  190.9300  177.0020  142.4900 C   0  0  0  0  0  2  0  0  0  0  0  0
  189.8250  176.4170  143.1850 O   0  0  0  0  0  0  0  0  0  0  0  0
  187.5700  176.3810  143.6490 O   0  0  0  0  0  0  0  0  0  0  0  0
  191.4650  177.5030  140.2190 O   0  0  0  0  0  0  0  0  0  0  0  0
  189.1590  177.7210  140.7590 C   0  0  0  0  0  0  0  0  0  0  0  0
  1 14  1  0  0  0  0
  1 16  1  0  0  0  0
  2 19  1  0  0  0  0
  4 10  1  0  0  0  0
  4  5  1  0  0  0  0
  5 20  1  0  0  0  0
  6 18  1  0  0  0  0
  6 22  1  0  0  0  0
  7 17  1  0  0  0  0
  8  1  2  0  0  0  0
  9 17  1  0  0  0  0
  9  2  1  0  0  0  0
 10 12  1  0  0  0  0
 11  7  1  6  0  0  0
 11 23  1  0  0  0  0
 12 11  1  0  0  0  0
 12 21  2  0  0  0  0
 13 24  1  0  0  0  0
 15 14  1  0  0  0  0
 17  6  2  0  0  0  0
 18 15  1  0  0  0  0
 19  8  1  0  0  0  0
 19 15  2  0  0  0  0
 21 20  1  0  0  0  0
 21 13  1  0  0  0  0
 22  3  1  0  0  0  0
 23 13  1  0  0  0  0
 23  3  1  1  0  0  0
 24 32  1  0  0  0  0
 25 26  1  0  0  0  0
 26 29  1  0  0  0  0
 26 30  2  0  0  0  0
 27 28  1  0  0  0  0
 28 29  1  0  0  0  0
 31 27  2  0  0  0  0
 32 27  1  0  0  0  0
 32 25  2  0  0  0  0
M  END
>  <MODEL>
3

>  <REMARK>
 VINA RESULT:      -7.1      3.655      7.122
  Name = 
  2 active torsions:
  status: ('A' for Active; 'I' for Inactive)
    1  A    between atoms: N_16  and  C_27
    2  A    between atoms: C_27  and  C_32
                            x       y       z     vdW  Elec       q    Type
                         _______ _______ _______ _____ _____    ______ ____

>  <TORSDO>
F 2

$$$$
=
 OpenBabel10262421253D

 32 37  0  0  1  0  0  0  0  0999 V2000
  180.0300  178.1830  142.8130 C   0  0  0  0  0  0  0  0  0  0  0  0
  180.3310  177.0870  139.2690 C   0  0  0  0  0  2  0  0  0  0  0  0
  184.7880  179.0720  139.0410 C   0  0  0  0  0  2  0  0  0  0  0  0
  185.2560  173.7660  136.3830 C   0  0  0  0  0  2  0  0  0  0  0  0
  186.5480  173.8240  137.2020 C   0  0  0  0  0  2  0  0  0  0  0  0
  182.2980  179.4760  138.7150 C   0  0  0  0  0  0  0  0  0  0  0  0
  182.8530  177.7130  136.9830 C   0  0  0  0  0  2  0  0  0  0  0  0
  179.8970  177.3150  141.7410 C   0  0  0  0  0  3  0  0  0  0  0  0
  180.5160  177.9080  137.9950 C   0  0  0  0  0  2  0  0  0  0  0  0
  184.1930  174.6860  136.9950 C   0  0  0  0  0  2  0  0  0  0  0  0
  184.0400  177.2340  137.7910 C   0  0  1  0  0  3  0  0  0  0  0  0
  184.7680  176.0440  137.2740 C   0  0  0  0  0  0  0  0  0  0  0  0
  186.2530  177.5880  137.9350 N   0  0  0  0  0  0  0  0  0  0  0  0
  180.6870  179.6430  142.3130 S   0  0  0  0  0  0  0  0  0  0  0  0
  180.8340  179.1930  140.7010 C   0  0  0  0  0  0  0  0  0  0  0  0
  179.6610  177.8780  144.1520 N   0  0  0  0  0  1  0  0  0  0  0  0
  181.9160  178.4420  137.9120 C   0  0  0  0  0  0  0  0  0  0  0  0
  181.2990  180.1250  139.6270 C   0  0  0  0  0  2  0  0  0  0  0  0
  180.3340  177.8900  140.5410 C   0  0  0  0  0  0  0  0  0  0  0  0
  187.1230  175.2460  137.2070 C   0  0  0  0  0  2  0  0  0  0  0  0
  186.0490  176.2540  137.4980 C   0  0  0  0  0  0  0  0  0  0  0  0
  183.6850  180.0800  138.7190 C   0  0  0  0  0  2  0  0  0  0  0  0
  185.0420  178.2960  137.8400 N   0  0  2  0  0  0  0  0  0  0  0  0
  187.5530  178.2530  137.9240 C   0  0  0  0  0  2  0  0  0  0  0  0
  187.8360  178.1060  140.3460 C   0  0  0  0  0  3  0  0  0  0  0  0
  188.5890  177.7270  141.5460 C   0  0  0  0  0  0  0  0  0  0  0  0
  189.6890  177.2770  139.0000 C   0  0  0  0  0  0  0  0  0  0  0  0
  190.5950  177.1950  140.1940 C   0  0  0  0  0  2  0  0  0  0  0  0
  189.8580  177.1550  141.4190 O   0  0  0  0  0  0  0  0  0  0  0  0
  188.0770  177.8800  142.6850 O   0  0  0  0  0  0  0  0  0  0  0  0
  190.1050  176.8850  137.8790 O   0  0  0  0  0  0  0  0  0  0  0  0
  188.3460  177.8790  139.1350 C   0  0  0  0  0  0  0  0  0  0  0  0
  1 16  1  0  0  0  0
  2 19  1  0  0  0  0
  4 10  1  0  0  0  0
  4  5  1  0  0  0  0
  5 20  1  0  0  0  0
  6 22  1  0  0  0  0
  6 18  1  0  0  0  0
  7 17  1  0  0  0  0
  8  1  2  0  0  0  0
  9  2  1  0  0  0  0
 10 12  1  0  0  0  0
 11  7  1  6  0  0  0
 11 23  1  0  0  0  0
 12 21  2  0  0  0  0
 12 11  1  0  0  0  0
 14  1  1  0  0  0  0
 15 14  1  0  0  0  0
 17  9  1  0  0  0  0
 17  6  2  0  0  0  0
 18 15  1  0  0  0  0
 19 15  2  0  0  0  0
 19  8  1  0  0  0  0
 20 21  1  0  0  0  0
 21 13  1  0  0  0  0
 22  3  1  0  0  0  0
 23 13  1  0  0  0  0
 23  3  1  1  0  0  0
 24 13  1  0  0  0  0
 24 32  1  0  0  0  0
 25 26  1  0  0  0  0
 26 30  2  0  0  0  0
 27 32  1  0  0  0  0
 27 28  1  0  0  0  0
 28 29  1  0  0  0  0
 29 26  1  0  0  0  0
 31 27  2  0  0  0  0
 32 25  2  0  0  0  0
M  END
>  <MODEL>
4

>  <REMARK>
 VINA RESULT:      -6.9      3.957      8.131
  Name = 
  2 active torsions:
  status: ('A' for Active; 'I' for Inactive)
    1  A    between atoms: N_16  and  C_27
    2  A    between atoms: C_27  and  C_32
                            x       y       z     vdW  Elec       q    Type
                         _______ _______ _______ _____ _____    ______ ____

>  <TORSDO>
F 2

$$$$
=
 OpenBabel10262421253D

 32 37  0  0  1  0  0  0  0  0999 V2000
  182.7960  173.1820  136.9930 C   0  0  0  0  0  0  0  0  0  0  0  0
  185.4010  174.9130  134.9730 C   0  0  0  0  0  2  0  0  0  0  0  0
  186.5570  177.6670  138.8380 C   0  0  0  0  0  2  0  0  0  0  0  0
  191.7460  175.9730  136.4620 C   0  0  0  0  0  2  0  0  0  0  0  0
  192.0200  175.8200  137.9610 C   0  0  0  0  0  2  0  0  0  0  0  0
  185.0790  177.4670  136.7790 C   0  0  0  0  0  0  0  0  0  0  0  0
  187.4220  177.5890  135.8260 C   0  0  0  0  0  2  0  0  0  0  0  0
  183.8340  173.2770  136.0790 C   0  0  0  0  0  3  0  0  0  0  0  0
  185.5370  176.3850  134.5940 C   0  0  0  0  0  2  0  0  0  0  0  0
  190.2410  175.8900  136.1830 C   0  0  0  0  0  2  0  0  0  0  0  0
  188.0160  177.0480  137.1090 C   0  0  1  0  0  3  0  0  0  0  0  0
  189.4810  176.7880  137.1140 C   0  0  0  0  0  0  0  0  0  0  0  0
  188.9060  177.8100  139.0250 N   0  0  0  0  0  0  0  0  0  0  0  0
  182.3800  174.7000  137.5730 S   0  0  0  0  0  0  0  0  0  0  0  0
  183.5360  175.5230  136.6740 C   0  0  0  0  0  0  0  0  0  0  0  0
  182.1720  171.9670  137.3850 N   0  0  0  0  0  1  0  0  0  0  0  0
  185.9670  177.1970  135.7800 C   0  0  0  0  0  0  0  0  0  0  0  0
  183.6530  177.0150  136.6550 C   0  0  0  0  0  2  0  0  0  0  0  0
  184.2420  174.6030  135.8820 C   0  0  0  0  0  0  0  0  0  0  0  0
  191.3460  176.9470  138.7520 C   0  0  0  0  0  2  0  0  0  0  0  0
  189.9250  177.1380  138.3030 C   0  0  0  0  0  0  0  0  0  0  0  0
  185.4130  178.2640  138.0200 C   0  0  0  0  0  2  0  0  0  0  0  0
  187.8020  178.0190  138.1790 N   0  0  2  0  0  0  0  0  0  0  0  0
  189.1580  178.6350  140.2030 C   0  0  0  0  0  2  0  0  0  0  0  0
  190.1110  177.0740  141.8230 C   0  0  0  0  0  3  0  0  0  0  0  0
  190.0470  176.2780  143.0530 C   0  0  0  0  0  0  0  0  0  0  0  0
  187.8270  177.8040  142.2550 C   0  0  0  0  0  0  0  0  0  0  0  0
  187.6310  176.7560  143.3120 C   0  0  0  0  0  2  0  0  0  0  0  0
  188.8770  176.2710  143.8190 O   0  0  0  0  0  0  0  0  0  0  0  0
  191.0570  175.6350  143.4400 O   0  0  0  0  0  0  0  0  0  0  0  0
  186.9070  178.6310  142.0250 O   0  0  0  0  0  0  0  0  0  0  0  0
  189.0660  177.8130  141.4500 C   0  0  0  0  0  0  0  0  0  0  0  0
  1 16  1  0  0  0  0
  1 14  1  0  0  0  0
  2 19  1  0  0  0  0
  4  5  1  0  0  0  0
  5 20  1  0  0  0  0
  6 22  1  0  0  0  0
  8  1  2  0  0  0  0
  9  2  1  0  0  0  0
  9 17  1  0  0  0  0
 10  4  1  0  0  0  0
 10 12  1  0  0  0  0
 11  7  1  6  0  0  0
 11 12  1  0  0  0  0
 11 23  1  0  0  0  0
 12 21  2  0  0  0  0
 13 24  1  0  0  0  0
 15 14  1  0  0  0  0
 17  7  1  0  0  0  0
 17  6  2  0  0  0  0
 18 15  1  0  0  0  0
 18  6  1  0  0  0  0
 19  8  1  0  0  0  0
 19 15  2  0  0  0  0
 21 20  1  0  0  0  0
 21 13  1  0  0  0  0
 22  3  1  0  0  0  0
 23  3  1  1  0  0  0
 23 13  1  0  0  0  0
 24 32  1  0  0  0  0
 25 26  1  0  0  0  0
 26 30  2  0  0  0  0
 26 29  1  0  0  0  0
 27 28  1  0  0  0  0
 28 29  1  0  0  0  0
 31 27  2  0  0  0  0
 32 25  2  0  0  0  0
 32 27  1  0  0  0  0
M  END
>  <MODEL>
5

>  <REMARK>
 VINA RESULT:      -6.6      3.712      6.030
  Name = 
  2 active torsions:
  status: ('A' for Active; 'I' for Inactive)
    1  A    between atoms: N_16  and  C_27
    2  A    between atoms: C_27  and  C_32
                            x       y       z     vdW  Elec       q    Type
                         _______ _______ _______ _____ _____    ______ ____

>  <TORSDO>
F 2

$$$$
=
 OpenBabel10262421253D

 32 37  0  0  1  0  0  0  0  0999 V2000
  180.6940  174.6190  138.7180 C   0  0  0  0  0  0  0  0  0  0  0  0
  183.1140  175.6580  136.0870 C   0  0  0  0  0  2  0  0  0  0  0  0
  185.6340  178.1940  139.4150 C   0  0  0  0  0  2  0  0  0  0  0  0
  189.7070  175.3060  136.1750 C   0  0  0  0  0  2  0  0  0  0  0  0
  190.2570  175.1400  137.5950 C   0  0  0  0  0  2  0  0  0  0  0  0
  183.7400  178.2710  137.7190 C   0  0  0  0  0  0  0  0  0  0  0  0
  185.7950  177.8340  136.3060 C   0  0  0  0  0  2  0  0  0  0  0  0
  181.5080  174.4500  137.6090 C   0  0  0  0  0  3  0  0  0  0  0  0
  183.4770  177.0500  135.5760 C   0  0  0  0  0  2  0  0  0  0  0  0
  188.1950  175.5550  136.2130 C   0  0  0  0  0  2  0  0  0  0  0  0
  186.5210  177.2120  137.4790 C   0  0  1  0  0  3  0  0  0  0  0  0
  187.8620  176.6290  137.2070 C   0  0  0  0  0  0  0  0  0  0  0  0
  187.9430  177.8100  139.1110 N   0  0  0  0  0  0  0  0  0  0  0  0
  180.7460  176.2080  139.2530 S   0  0  0  0  0  0  0  0  0  0  0  0
  181.8320  176.7220  138.0790 C   0  0  0  0  0  0  0  0  0  0  0  0
  179.9230  173.5880  139.3200 N   0  0  0  0  0  1  0  0  0  0  0  0
  184.3150  177.7790  136.5850 C   0  0  0  0  0  0  0  0  0  0  0  0
  182.2580  178.1480  137.9220 C   0  0  0  0  0  2  0  0  0  0  0  0
  182.1380  175.6440  137.2330 C   0  0  0  0  0  0  0  0  0  0  0  0
  190.0250  176.4120  138.4170 C   0  0  0  0  0  2  0  0  0  0  0  0
  188.6160  176.9050  138.2520 C   0  0  0  0  0  0  0  0  0  0  0  0
  184.4950  179.0090  138.8030 C   0  0  0  0  0  2  0  0  0  0  0  0
  186.7540  178.2380  138.4930 N   0  0  2  0  0  0  0  0  0  0  0  0
  188.6120  178.5920  140.1480 C   0  0  0  0  0  2  0  0  0  0  0  0
  187.2350  178.2540  142.1370 C   0  0  0  0  0  3  0  0  0  0  0  0
  186.9740  177.6570  143.4510 C   0  0  0  0  0  0  0  0  0  0  0  0
  189.3920  177.1240  142.1250 C   0  0  0  0  0  0  0  0  0  0  0  0
  189.2880  176.7840  143.5830 C   0  0  0  0  0  2  0  0  0  0  0  0
  187.9360  176.8340  144.0460 O   0  0  0  0  0  0  0  0  0  0  0  0
  185.8710  177.8520  144.0230 O   0  0  0  0  0  0  0  0  0  0  0  0
  190.3820  176.7150  141.4630 O   0  0  0  0  0  0  0  0  0  0  0  0
  188.3740  177.9900  141.4960 C   0  0  0  0  0  0  0  0  0  0  0  0
  1 14  1  0  0  0  0
  1 16  1  0  0  0  0
  2 19  1  0  0  0  0
  4 10  1  0  0  0  0
  4  5  1  0  0  0  0
  5 20  1  0  0  0  0
  6 18  1  0  0  0  0
  6 22  1  0  0  0  0
  7 17  1  0  0  0  0
  8  1  2  0  0  0  0
  9  2  1  0  0  0  0
  9 17  1  0  0  0  0
 10 12  1  0  0  0  0
 11  7  1  6  0  0  0
 11 23  1  0  0  0  0
 12 11  1  0  0  0  0
 12 21  2  0  0  0  0
 13 24  1  0  0  0  0
 15 14  1  0  0  0  0
 17  6  2  0  0  0  0
 18 15  1  0  0  0  0
 19  8  1  0  0  0  0
 19 15  2  0  0  0  0
 21 20  1  0  0  0  0
 21 13  1  0  0  0  0
 22  3  1  0  0  0  0
 23 13  1  0  0  0  0
 23  3  1  1  0  0  0
 24 32  1  0  0  0  0
 25 26  1  0  0  0  0
 26 30  2  0  0  0  0
 26 29  1  0  0  0  0
 27 28  1  0  0  0  0
 28 29  1  0  0  0  0
 31 27  2  0  0  0  0
 32 27  1  0  0  0  0
 32 25  2  0  0  0  0
M  END
>  <MODEL>
6

>  <REMARK>
 VINA RESULT:      -6.4      3.495      6.624
  Name = 
  2 active torsions:
  status: ('A' for Active; 'I' for Inactive)
    1  A    between atoms: N_16  and  C_27
    2  A    between atoms: C_27  and  C_32
                            x       y       z     vdW  Elec       q    Type
                         _______ _______ _______ _____ _____    ______ ____

>  <TORSDO>
F 2

$$$$
=
 OpenBabel10262421253D

 32 37  0  0  1  0  0  0  0  0999 V2000
  184.2070  172.8840  137.0010 C   0  0  0  0  0  0  0  0  0  0  0  0
  187.4700  174.6760  136.9950 C   0  0  0  0  0  2  0  0  0  0  0  0
  185.5420  178.1830  139.7960 C   0  0  0  0  0  2  0  0  0  0  0  0
  190.8950  177.0240  142.1290 C   0  0  0  0  0  2  0  0  0  0  0  0
  190.0280  177.1680  143.3830 C   0  0  0  0  0  2  0  0  0  0  0  0
  185.9560  177.4000  137.4120 C   0  0  0  0  0  0  0  0  0  0  0  0
  188.2850  177.7590  138.3400 C   0  0  0  0  0  2  0  0  0  0  0  0
  185.5860  173.0020  137.0640 C   0  0  0  0  0  3  0  0  0  0  0  0
  187.8300  176.0670  136.4800 C   0  0  0  0  0  2  0  0  0  0  0  0
  190.0300  176.6430  140.9220 C   0  0  0  0  0  2  0  0  0  0  0  0
  187.7980  177.5440  139.7560 C   0  0  1  0  0  3  0  0  0  0  0  0
  188.8310  177.5400  140.8280 C   0  0  0  0  0  0  0  0  0  0  0  0
  187.0690  178.7500  141.5050 N   0  0  0  0  0  0  0  0  0  0  0  0
  183.4960  174.3840  136.7560 S   0  0  0  0  0  0  0  0  0  0  0  0
  184.9470  175.2320  136.7390 C   0  0  0  0  0  0  0  0  0  0  0  0
  183.4920  171.6620  137.1270 N   0  0  0  0  0  1  0  0  0  0  0  0
  187.2910  177.1240  137.4000 C   0  0  0  0  0  0  0  0  0  0  0  0
  185.0380  176.6990  136.4540 C   0  0  0  0  0  2  0  0  0  0  0  0
  186.0090  174.3280  136.8970 C   0  0  0  0  0  0  0  0  0  0  0  0
  188.9880  178.2790  143.1980 C   0  0  0  0  0  2  0  0  0  0  0  0
  188.3020  178.1510  141.8680 C   0  0  0  0  0  0  0  0  0  0  0  0
  185.3100  178.4350  138.3070 C   0  0  0  0  0  2  0  0  0  0  0  0
  186.8870  178.6280  140.1160 N   0  0  2  0  0  0  0  0  0  0  0  0
  186.4090  179.7870  142.2940 C   0  0  0  0  0  2  0  0  0  0  0  0
  184.0320  179.2370  142.1870 C   0  0  0  0  0  3  0  0  0  0  0  0
  182.7940  178.7050  142.7660 C   0  0  0  0  0  0  0  0  0  0  0  0
  185.1400  178.7870  144.3090 C   0  0  0  0  0  0  0  0  0  0  0  0
  183.8330  178.5580  145.0100 C   0  0  0  0  0  2  0  0  0  0  0  0
  182.7820  178.2530  144.0890 O   0  0  0  0  0  0  0  0  0  0  0  0
  181.7550  178.6200  142.0620 O   0  0  0  0  0  0  0  0  0  0  0  0
  186.2180  178.6270  144.9400 O   0  0  0  0  0  0  0  0  0  0  0  0
  185.1520  179.2610  142.9090 C   0  0  0  0  0  0  0  0  0  0  0  0
  1  8  2  0  0  0  0
  1 16  1  0  0  0  0
  4  5  1  0  0  0  0
  6 22  1  0  0  0  0
  9  2  1  0  0  0  0
  9 17  1  0  0  0  0
 10  4  1  0  0  0  0
 11  7  1  6  0  0  0
 11 23  1  0  0  0  0
 11 12  1  0  0  0  0
 12 10  1  0  0  0  0
 12 21  2  0  0  0  0
 13 21  1  0  0  0  0
 13 24  1  0  0  0  0
 14  1  1  0  0  0  0
 15 14  1  0  0  0  0
 15 19  2  0  0  0  0
 17  6  2  0  0  0  0
 17  7  1  0  0  0  0
 18 15  1  0  0  0  0
 18  6  1  0  0  0  0
 19  2  1  0  0  0  0
 19  8  1  0  0  0  0
 20  5  1  0  0  0  0
 21 20  1  0  0  0  0
 22  3  1  0  0  0  0
 23  3  1  1  0  0  0
 23 13  1  0  0  0  0
 24 32  1  0  0  0  0
 25 26  1  0  0  0  0
 25 32  2  0  0  0  0
 26 29  1  0  0  0  0
 27 31  2  0  0  0  0
 27 28  1  0  0  0  0
 29 28  1  0  0  0  0
 30 26  2  0  0  0  0
 32 27  1  0  0  0  0
M  END
>  <MODEL>
7

>  <REMARK>
 VINA RESULT:      -6.4      2.986      3.783
  Name = 
  2 active torsions:
  status: ('A' for Active; 'I' for Inactive)
    1  A    between atoms: N_16  and  C_27
    2  A    between atoms: C_27  and  C_32
                            x       y       z     vdW  Elec       q    Type
                         _______ _______ _______ _____ _____    ______ ____

>  <TORSDO>
F 2

$$$$
=
 OpenBabel10262421253D

 32 37  0  0  1  0  0  0  0  0999 V2000
  179.8270  178.2380  142.5720 C   0  0  0  0  0  0  0  0  0  0  0  0
  179.8630  176.2120  139.4500 C   0  0  0  0  0  2  0  0  0  0  0  0
  184.0070  178.4050  138.0810 C   0  0  0  0  0  2  0  0  0  0  0  0
  184.7920  172.6200  136.9200 C   0  0  0  0  0  2  0  0  0  0  0  0
  186.1510  173.0110  137.5060 C   0  0  0  0  0  2  0  0  0  0  0  0
  181.4670  178.4970  138.0050 C   0  0  0  0  0  0  0  0  0  0  0  0
  182.0280  176.3670  136.7550 C   0  0  0  0  0  2  0  0  0  0  0  0
  179.6790  177.0940  141.8040 C   0  0  0  0  0  3  0  0  0  0  0  0
  179.8100  176.6510  137.9890 C   0  0  0  0  0  2  0  0  0  0  0  0
  183.7040  173.5860  137.4010 C   0  0  0  0  0  2  0  0  0  0  0  0
  183.3440  176.2340  137.4910 C   0  0  1  0  0  3  0  0  0  0  0  0
  184.1440  175.0090  137.2200 C   0  0  0  0  0  0  0  0  0  0  0  0
  185.5040  176.7910  137.2280 N   0  0  0  0  0  0  0  0  0  0  0  0
  180.2520  179.5450  141.6110 S   0  0  0  0  0  0  0  0  0  0  0  0
  180.2720  178.6710  140.1760 C   0  0  0  0  0  0  0  0  0  0  0  0
  179.6460  178.2960  143.9810 N   0  0  0  0  0  1  0  0  0  0  0  0
  181.1210  177.2510  137.5730 C   0  0  0  0  0  0  0  0  0  0  0  0
  180.5050  179.2950  138.8360 C   0  0  0  0  0  2  0  0  0  0  0  0
  179.9120  177.3400  140.4440 C   0  0  0  0  0  0  0  0  0  0  0  0
  186.5540  174.4170  137.0480 C   0  0  0  0  0  2  0  0  0  0  0  0
  185.4090  175.3770  137.2000 C   0  0  0  0  0  0  0  0  0  0  0  0
  182.7660  179.1880  137.6540 C   0  0  0  0  0  2  0  0  0  0  0  0
  184.2160  177.3440  137.1120 N   0  0  2  0  0  0  0  0  0  0  0  0
  186.7090  177.5290  136.8580 C   0  0  0  0  0  2  0  0  0  0  0  0
  187.2200  178.1700  139.1590 C   0  0  0  0  0  3  0  0  0  0  0  0
  188.1170  178.2530  140.3160 C   0  0  0  0  0  0  0  0  0  0  0  0
  189.0340  177.1310  137.9100 C   0  0  0  0  0  0  0  0  0  0  0  0
  190.0460  177.5050  138.9540 C   0  0  0  0  0  2  0  0  0  0  0  0
  189.4310  177.7840  140.2140 O   0  0  0  0  0  0  0  0  0  0  0  0
  187.6940  178.7070  141.4100 O   0  0  0  0  0  0  0  0  0  0  0  0
  189.3940  176.4470  136.9160 O   0  0  0  0  0  0  0  0  0  0  0  0
  187.6460  177.6230  138.0200 C   0  0  0  0  0  0  0  0  0  0  0  0
  1 16  1  0  0  0  0
  2 19  1  0  0  0  0
  4 10  1  0  0  0  0
  4  5  1  0  0  0  0
  6 18  1  0  0  0  0
  7 17  1  0  0  0  0
  8  1  2  0  0  0  0
  9  2  1  0  0  0  0
 11  7  1  6  0  0  0
 12 10  1  0  0  0  0
 12 11  1  0  0  0  0
 14  1  1  0  0  0  0
 15 19  2  0  0  0  0
 15 14  1  0  0  0  0
 17  9  1  0  0  0  0
 17  6  2  0  0  0  0
 18 15  1  0  0  0  0
 19  8  1  0  0  0  0
 20 21  1  0  0  0  0
 20  5  1  0  0  0  0
 21 12  2  0  0  0  0
 21 13  1  0  0  0  0
 22  6  1  0  0  0  0
 22  3  1  0  0  0  0
 23 13  1  0  0  0  0
 23 11  1  0  0  0  0
 23  3  1  1  0  0  0
 24 13  1  0  0  0  0
 24 32  1  0  0  0  0
 25 26  1  0  0  0  0
 26 30  2  0  0  0  0
 27 32  1  0  0  0  0
 27 28  1  0  0  0  0
 28 29  1  0  0  0  0
 29 26  1  0  0  0  0
 31 27  2  0  0  0  0
 32 25  2  0  0  0  0
M  END
>  <MODEL>
8

>  <REMARK>
 VINA RESULT:      -6.2      4.071      8.338
  Name = 
  2 active torsions:
  status: ('A' for Active; 'I' for Inactive)
    1  A    between atoms: N_16  and  C_27
    2  A    between atoms: C_27  and  C_32
                            x       y       z     vdW  Elec       q    Type
                         _______ _______ _______ _____ _____    ______ ____

>  <TORSDO>
F 2

$$$$
=
 OpenBabel10262421253D

 32 37  0  0  1  0  0  0  0  0999 V2000
  185.3470  178.4610  143.1990 C   0  0  0  0  0  0  0  0  0  0  0  0
  182.1430  178.3620  141.3060 C   0  0  0  0  0  2  0  0  0  0  0  0
  184.4570  176.3420  137.5080 C   0  0  0  0  0  2  0  0  0  0  0  0
  179.3920  173.2760  138.1180 C   0  0  0  0  0  2  0  0  0  0  0  0
  180.4020  172.1620  137.8280 C   0  0  0  0  0  2  0  0  0  0  0  0
  183.7510  178.5230  138.6090 C   0  0  0  0  0  0  0  0  0  0  0  0
  181.5550  177.4020  138.0340 C   0  0  0  0  0  2  0  0  0  0  0  0
  183.9870  178.2610  143.0220 C   0  0  0  0  0  3  0  0  0  0  0  0
  181.7540  179.0320  139.9900 C   0  0  0  0  0  2  0  0  0  0  0  0
  180.1020  174.5030  138.7010 C   0  0  0  0  0  2  0  0  0  0  0  0
  182.1990  176.0330  138.0600 C   0  0  1  0  0  3  0  0  0  0  0  0
  181.3000  174.8630  137.8720 C   0  0  0  0  0  0  0  0  0  0  0  0
  183.1530  174.5740  136.6450 N   0  0  0  0  0  0  0  0  0  0  0  0
  186.0550  179.0030  141.7770 S   0  0  0  0  0  0  0  0  0  0  0  0
  184.6300  178.9800  140.8870 C   0  0  0  0  0  0  0  0  0  0  0  0
  186.0460  178.2380  144.4160 N   0  0  0  0  0  1  0  0  0  0  0  0
  182.4190  178.3440  138.8340 C   0  0  0  0  0  0  0  0  0  0  0  0
  184.5360  179.4660  139.4740 C   0  0  0  0  0  2  0  0  0  0  0  0
  183.5750  178.5720  141.7190 C   0  0  0  0  0  0  0  0  0  0  0  0
  181.4360  172.6250  136.7950 C   0  0  0  0  0  2  0  0  0  0  0  0
  181.9590  173.9900  137.1390 C   0  0  0  0  0  0  0  0  0  0  0  0
  184.5180  177.8690  137.4810 C   0  0  0  0  0  2  0  0  0  0  0  0
  183.1690  175.9420  136.9720 N   0  0  2  0  0  0  0  0  0  0  0  0
  183.9210  174.0260  135.5300 C   0  0  0  0  0  2  0  0  0  0  0  0
  186.2810  174.5380  135.1630 C   0  0  0  0  0  3  0  0  0  0  0  0
  187.7010  174.4480  135.5190 C   0  0  0  0  0  0  0  0  0  0  0  0
  185.7840  173.0770  137.0470 C   0  0  0  0  0  0  0  0  0  0  0  0
  187.2290  172.7090  137.2190 C   0  0  0  0  0  2  0  0  0  0  0  0
  188.0980  173.6690  136.6100 O   0  0  0  0  0  0  0  0  0  0  0  0
  188.5570  175.1020  134.8680 O   0  0  0  0  0  0  0  0  0  0  0  0
  184.9310  172.6280  137.8560 O   0  0  0  0  0  0  0  0  0  0  0  0
  185.3660  173.9040  135.8960 C   0  0  0  0  0  0  0  0  0  0  0  0
  1 16  1  0  0  0  0
  2 19  1  0  0  0  0
  4 10  1  0  0  0  0
  5  4  1  0  0  0  0
  6 17  2  0  0  0  0
  6 18  1  0  0  0  0
  7 17  1  0  0  0  0
  8  1  2  0  0  0  0
  9  2  1  0  0  0  0
 11  7  1  6  0  0  0
 12 11  1  0  0  0  0
 12 10  1  0  0  0  0
 13 23  1  0  0  0  0
 13 21  1  0  0  0  0
 14  1  1  0  0  0  0
 15 19  2  0  0  0  0
 15 14  1  0  0  0  0
 17  9  1  0  0  0  0
 18 15  1  0  0  0  0
 19  8  1  0  0  0  0
 20 21  1  0  0  0  0
 20  5  1  0  0  0  0
 21 12  2  0  0  0  0
 22  3  1  0  0  0  0
 22  6  1  0  0  0  0
 23  3  1  1  0  0  0
 23 11  1  0  0  0  0
 24 32  1  0  0  0  0
 24 13  1  0  0  0  0
 25 26  1  0  0  0  0
 25 32  2  0  0  0  0
 26 29  1  0  0  0  0
 27 28  1  0  0  0  0
 27 31  2  0  0  0  0
 29 28  1  0  0  0  0
 30 26  2  0  0  0  0
 32 27  1  0  0  0  0
M  END
>  <MODEL>
9

>  <REMARK>
 VINA RESULT:      -5.9      4.101      8.236
  Name = 
  2 active torsions:
  status: ('A' for Active; 'I' for Inactive)
    1  A    between atoms: N_16  and  C_27
    2  A    between atoms: C_27  and  C_32
                            x       y       z     vdW  Elec       q    Type
                         _______ _______ _______ _____ _____    ______ ____

>  <TORSDO>
F 2

$$$$
