=
 OpenBabel10262423393D

 34 38  0  0  1  0  0  0  0  0999 V2000
  183.9040  176.4630  136.8780 C   0  0  2  0  0  0  0  0  0  0  0  0
  180.7420  179.5770  137.8290 O   0  0  0  0  0  0  0  0  0  0  0  0
  182.0230  177.8010  136.1260 O   0  0  0  0  0  0  0  0  0  0  0  0
  182.8670  174.6520  138.3300 C   0  0  0  0  0  2  0  0  0  0  0  0
  181.9950  174.3730  137.2780 O   0  0  0  0  0  0  0  0  0  0  0  0
  182.5180  176.4750  136.1880 C   0  0  2  0  0  3  0  0  0  0  0  0
  184.1560  175.2190  137.7580 C   0  0  0  0  0  2  0  0  0  0  0  0
  181.4650  175.6100  136.9020 C   0  0  0  0  0  2  0  0  0  0  0  0
  181.8630  179.1830  138.1180 C   0  0  0  0  0  0  0  0  0  0  0  0
  182.3890  179.3850  139.5260 C   0  0  2  0  0  3  0  0  0  0  0  0
  183.9150  179.1870  139.6090 C   0  0  0  0  0  2  0  0  0  0  0  0
  182.7490  178.5770  137.0550 C   0  0  1  0  0  3  0  0  0  0  0  0
  184.3340  177.9510  138.8590 C   0  0  0  0  0  3  0  0  0  0  0  0
  183.7870  177.7060  137.6590 C   0  0  0  0  0  0  0  0  0  0  0  0
  186.1720  177.5640  136.2470 C   0  0  1  0  0  3  0  0  0  0  0  0
  187.0760  174.4820  137.5940 O   0  0  0  0  0  1  0  0  0  0  0  0
  190.5240  175.9360  138.5650 C   0  0  0  0  0  1  0  0  0  0  0  0
  185.5460  175.3400  135.2100 C   0  0  0  0  0  0  0  0  0  0  0  0
  185.0250  176.6310  135.8200 C   0  0  1  0  0  3  0  0  0  0  0  0
  189.9130  176.3510  137.2390 C   0  0  1  0  0  0  0  0  0  0  0  0
  188.7740  177.7130  137.5120 S   0  0  2  0  0  0  0  0  0  0  0  0
  190.9170  176.7230  136.3580 F   0  0  0  0  0  0  0  0  0  0  0  0
  187.2620  176.8040  137.0710 C   0  0  2  0  0  3  0  0  0  0  0  0
  184.7900  174.6040  134.5940 O   0  0  0  0  0  0  0  0  0  0  0  0
  187.2490  173.6950  134.9370 F   0  0  0  0  0  0  0  0  0  0  0  0
  189.0770  178.6500  136.3470 O   0  0  0  0  0  0  0  0  0  0  0  0
  189.1050  175.2240  136.6650 C   0  0  0  0  0  0  0  0  0  0  0  0
  187.6040  175.3620  136.6430 C   0  0  1  0  0  0  0  0  0  0  0  0
  189.6520  174.2010  136.2700 O   0  0  0  0  0  0  0  0  0  0  0  0
  187.0210  175.0280  135.2610 C   0  0  2  0  0  3  0  0  0  0  0  0
  186.7140  178.2350  134.9910 C   0  0  0  0  0  1  0  0  0  0  0  0
  181.6820  178.5110  140.5200 C   0  0  0  0  0  0  0  0  0  0  0  0
  181.1720  177.2830  140.1130 O   0  0  0  0  0  0  0  0  0  0  0  0
  181.5160  178.8940  141.7090 O   0  0  0  0  0  1  0  0  0  0  0  0
  1 14  1  0  0  0  0
  1  7  1  1  0  0  0
  2  9  2  0  0  0  0
  3  6  1  0  0  0  0
  5  4  1  0  0  0  0
  6  1  1  0  0  0  0
  6  8  1  1  0  0  0
  7  4  1  0  0  0  0
  8  5  1  0  0  0  0
  9 10  1  0  0  0  0
 10 11  1  0  0  0  0
 10 32  1  1  0  0  0
 12  3  1  6  0  0  0
 12 14  1  0  0  0  0
 12  9  1  0  0  0  0
 13 11  1  0  0  0  0
 14 13  2  0  0  0  0
 15 31  1  6  0  0  0
 15 23  1  0  0  0  0
 18 30  1  0  0  0  0
 19 18  1  1  0  0  0
 19 15  1  0  0  0  0
 19  1  1  0  0  0  0
 20 21  1  0  0  0  0
 20 17  1  1  0  0  0
 21 26  2  6  0  0  0
 22 20  1  0  0  0  0
 23 21  1  0  0  0  0
 24 18  2  0  0  0  0
 25 30  1  0  0  0  0
 27 20  1  0  0  0  0
 28 27  1  0  0  0  0
 28 23  1  0  0  0  0
 28 16  1  0  0  0  0
 29 27  2  0  0  0  0
 30 28  1  0  0  0  0
 32 34  1  0  0  0  0
 33 32  2  0  0  0  0
M  END
>  <MODEL>
1

>  <REMARK>
 VINA RESULT:      -4.9      0.000      0.000
  Name = 
  2 active torsions:
  status: ('A' for Active; 'I' for Inactive)
    1  A    between atoms: C_1  and  C_9
    2  A    between atoms: C_3  and  C_25
                            x       y       z     vdW  Elec       q    Type
                         _______ _______ _______ _____ _____    ______ ____

>  <TORSDO>
F 2

$$$$
=
 OpenBabel10262423393D

 34 38  0  0  1  0  0  0  0  0999 V2000
  183.0780  177.2030  137.4130 C   0  0  2  0  0  0  0  0  0  0  0  0
  179.7800  175.2150  135.0120 O   0  0  0  0  0  0  0  0  0  0  0  0
  181.6350  177.2280  135.4610 O   0  0  0  0  0  0  0  0  0  0  0  0
  184.8190  175.4210  136.9050 C   0  0  0  0  0  2  0  0  0  0  0  0
  185.0510  176.0610  135.6870 O   0  0  0  0  0  0  0  0  0  0  0  0
  182.9870  177.3210  135.8720 C   0  0  2  0  0  3  0  0  0  0  0  0
  184.3310  176.4500  137.9120 C   0  0  0  0  0  2  0  0  0  0  0  0
  183.7860  176.2420  135.1220 C   0  0  0  0  0  2  0  0  0  0  0  0
  180.2370  175.3580  136.1360 C   0  0  0  0  0  0  0  0  0  0  0  0
  180.0610  174.2570  137.1640 C   0  0  2  0  0  3  0  0  0  0  0  0
  180.3470  174.7480  138.5960 C   0  0  0  0  0  2  0  0  0  0  0  0
  180.8990  176.6590  136.5230 C   0  0  1  0  0  3  0  0  0  0  0  0
  181.6100  175.5680  138.6360 C   0  0  0  0  0  3  0  0  0  0  0  0
  181.8270  176.4680  137.6650 C   0  0  0  0  0  0  0  0  0  0  0  0
  181.6040  178.9390  138.6640 C   0  0  1  0  0  3  0  0  0  0  0  0
  183.2260  177.2150  141.2180 O   0  0  0  0  0  1  0  0  0  0  0  0
  180.3350  178.0960  143.6280 C   0  0  0  0  0  1  0  0  0  0  0  0
  184.1130  178.9710  139.0070 C   0  0  0  0  0  0  0  0  0  0  0  0
  182.9800  178.6080  138.0600 C   0  0  1  0  0  3  0  0  0  0  0  0
  180.7910  179.1470  142.6320 C   0  0  1  0  0  0  0  0  0  0  0  0
  179.9740  178.8640  141.0570 S   0  0  2  0  0  0  0  0  0  0  0  0
  180.4920  180.4110  143.1170 F   0  0  0  0  0  0  0  0  0  0  0  0
  181.4710  178.4130  140.1300 C   0  0  2  0  0  3  0  0  0  0  0  0
  185.2640  179.0120  138.5990 O   0  0  0  0  0  0  0  0  0  0  0  0
  184.9540  179.3870  141.1980 F   0  0  0  0  0  0  0  0  0  0  0  0
  179.5920  180.2730  140.6130 O   0  0  0  0  0  0  0  0  0  0  0  0
  182.2650  179.0190  142.3800 C   0  0  0  0  0  0  0  0  0  0  0  0
  182.7160  178.5050  141.0370 C   0  0  1  0  0  0  0  0  0  0  0  0
  183.0750  179.2800  143.2620 O   0  0  0  0  0  0  0  0  0  0  0  0
  183.8020  179.3990  140.4200 C   0  0  2  0  0  3  0  0  0  0  0  0
  181.3920  180.4430  138.5340 C   0  0  0  0  0  1  0  0  0  0  0  0
  180.8880  173.0480  136.8380 C   0  0  0  0  0  0  0  0  0  0  0  0
  182.0680  173.1970  136.1180 O   0  0  0  0  0  0  0  0  0  0  0  0
  180.5050  171.8960  137.1800 O   0  0  0  0  0  1  0  0  0  0  0  0
  1 14  1  0  0  0  0
  1  7  1  1  0  0  0
  1 19  1  0  0  0  0
  2  9  2  0  0  0  0
  3  6  1  0  0  0  0
  4  7  1  0  0  0  0
  5  4  1  0  0  0  0
  6  8  1  6  0  0  0
  6  1  1  0  0  0  0
  8  5  1  0  0  0  0
  9 12  1  0  0  0  0
  9 10  1  0  0  0  0
 10 32  1  6  0  0  0
 10 11  1  0  0  0  0
 11 13  1  0  0  0  0
 12  3  1  6  0  0  0
 12 14  1  0  0  0  0
 14 13  2  0  0  0  0
 15 31  1  1  0  0  0
 15 23  1  0  0  0  0
 18 30  1  0  0  0  0
 19 15  1  0  0  0  0
 19 18  1  1  0  0  0
 20 22  1  0  0  0  0
 20 17  1  1  0  0  0
 21 26  2  6  0  0  0
 21 20  1  0  0  0  0
 23 28  1  0  0  0  0
 23 21  1  0  0  0  0
 24 18  2  0  0  0  0
 27 20  1  0  0  0  0
 27 29  2  0  0  0  0
 28 16  1  0  0  0  0
 28 27  1  0  0  0  0
 30 28  1  0  0  0  0
 30 25  1  0  0  0  0
 32 34  1  0  0  0  0
 33 32  2  0  0  0  0
M  END
>  <MODEL>
2

>  <REMARK>
 VINA RESULT:      -4.9      3.673      6.827
  Name = 
  2 active torsions:
  status: ('A' for Active; 'I' for Inactive)
    1  A    between atoms: C_1  and  C_9
    2  A    between atoms: C_3  and  C_25
                            x       y       z     vdW  Elec       q    Type
                         _______ _______ _______ _____ _____    ______ ____

>  <TORSDO>
F 2

$$$$
=
 OpenBabel10262423393D

 34 38  0  0  1  0  0  0  0  0999 V2000
  184.2720  175.9350  136.5830 C   0  0  2  0  0  0  0  0  0  0  0  0
  180.6070  178.6020  136.8220 O   0  0  0  0  0  0  0  0  0  0  0  0
  182.3830  176.9670  135.4560 O   0  0  0  0  0  0  0  0  0  0  0  0
  183.2550  174.0490  137.9500 C   0  0  0  0  0  2  0  0  0  0  0  0
  182.6190  173.6110  136.7880 O   0  0  0  0  0  0  0  0  0  0  0  0
  183.0330  175.7270  135.6760 C   0  0  2  0  0  3  0  0  0  0  0  0
  184.5350  174.7720  137.5630 C   0  0  0  0  0  2  0  0  0  0  0  0
  182.0000  174.7470  136.2590 C   0  0  0  0  0  2  0  0  0  0  0  0
  181.7040  178.3820  137.3110 C   0  0  0  0  0  0  0  0  0  0  0  0
  181.9530  178.7060  138.7720 C   0  0  2  0  0  3  0  0  0  0  0  0
  183.4560  178.7290  139.1140 C   0  0  0  0  0  2  0  0  0  0  0  0
  182.8310  177.8700  136.4450 C   0  0  1  0  0  3  0  0  0  0  0  0
  184.1570  177.5390  138.5160 C   0  0  0  0  0  3  0  0  0  0  0  0
  183.8590  177.1770  137.2590 C   0  0  0  0  0  0  0  0  0  0  0  0
  186.4430  177.3270  136.2620 C   0  0  1  0  0  3  0  0  0  0  0  0
  187.5150  174.4640  137.9290 O   0  0  0  0  0  1  0  0  0  0  0  0
  190.5160  176.4380  139.3560 C   0  0  0  0  0  1  0  0  0  0  0  0
  186.3110  174.9980  135.2780 C   0  0  0  0  0  0  0  0  0  0  0  0
  185.5220  176.2230  135.7130 C   0  0  1  0  0  3  0  0  0  0  0  0
  190.0890  176.7080  137.9240 C   0  0  1  0  0  0  0  0  0  0  0  0
  188.7460  177.9010  137.9230 S   0  0  2  0  0  0  0  0  0  0  0  0
  191.1690  177.1880  137.1980 F   0  0  0  0  0  0  0  0  0  0  0  0
  187.4690  176.7660  137.2990 C   0  0  2  0  0  3  0  0  0  0  0  0
  185.7780  174.1370  134.5940 O   0  0  0  0  0  0  0  0  0  0  0  0
  188.2430  173.6070  135.3900 F   0  0  0  0  0  0  0  0  0  0  0  0
  189.1120  178.8260  136.7660 O   0  0  0  0  0  0  0  0  0  0  0  0
  189.5520  175.4550  137.2980 C   0  0  0  0  0  0  0  0  0  0  0  0
  188.0730  175.3730  137.0230 C   0  0  1  0  0  0  0  0  0  0  0  0
  190.2930  174.5070  137.0620 O   0  0  0  0  0  0  0  0  0  0  0  0
  187.7850  174.9050  135.5890 C   0  0  2  0  0  3  0  0  0  0  0  0
  187.0940  178.0210  135.0720 C   0  0  0  0  0  1  0  0  0  0  0  0
  181.2120  177.7760  139.6870 C   0  0  0  0  0  0  0  0  0  0  0  0
  180.8880  178.1930  140.9740 O   0  0  0  0  0  1  0  0  0  0  0  0
  180.9120  176.6100  139.3130 O   0  0  0  0  0  0  0  0  0  0  0  0
  1 14  1  0  0  0  0
  1  7  1  1  0  0  0
  2  9  2  0  0  0  0
  3  6  1  0  0  0  0
  5  4  1  0  0  0  0
  6  8  1  1  0  0  0
  6  1  1  0  0  0  0
  7  4  1  0  0  0  0
  8  5  1  0  0  0  0
  9 10  1  0  0  0  0
 10 11  1  0  0  0  0
 10 32  1  1  0  0  0
 12  3  1  6  0  0  0
 12 14  1  0  0  0  0
 12  9  1  0  0  0  0
 13 11  1  0  0  0  0
 14 13  2  0  0  0  0
 15 31  1  6  0  0  0
 15 23  1  0  0  0  0
 18 30  1  0  0  0  0
 19 18  1  1  0  0  0
 19 15  1  0  0  0  0
 19  1  1  0  0  0  0
 20 17  1  1  0  0  0
 21 26  2  6  0  0  0
 21 20  1  0  0  0  0
 22 20  1  0  0  0  0
 23 21  1  0  0  0  0
 24 18  2  0  0  0  0
 25 30  1  0  0  0  0
 27 20  1  0  0  0  0
 28 27  1  0  0  0  0
 28 23  1  0  0  0  0
 28 16  1  0  0  0  0
 29 27  2  0  0  0  0
 30 28  1  0  0  0  0
 32 33  1  0  0  0  0
 34 32  2  0  0  0  0
M  END
>  <MODEL>
3

>  <REMARK>
 VINA RESULT:      -4.7      0.884      1.055
  Name = 
  2 active torsions:
  status: ('A' for Active; 'I' for Inactive)
    1  A    between atoms: C_1  and  C_9
    2  A    between atoms: C_3  and  C_25
                            x       y       z     vdW  Elec       q    Type
                         _______ _______ _______ _____ _____    ______ ____

>  <TORSDO>
F 2

$$$$
=
 OpenBabel10262423393D

 34 38  0  0  1  0  0  0  0  0999 V2000
  186.0550  177.7820  137.6860 C   0  0  2  0  0  0  0  0  0  0  0  0
  188.8830  176.0220  134.6030 O   0  0  0  0  0  0  0  0  0  0  0  0
  187.3510  178.0820  135.6530 O   0  0  0  0  0  0  0  0  0  0  0  0
  187.7740  177.8200  139.5580 C   0  0  0  0  0  2  0  0  0  0  0  0
  188.2560  179.0180  139.0280 O   0  0  0  0  0  0  0  0  0  0  0  0
  187.0980  178.6420  136.9300 C   0  0  2  0  0  3  0  0  0  0  0  0
  186.3010  177.6890  139.2070 C   0  0  0  0  0  2  0  0  0  0  0  0
  188.4430  178.7670  137.6670 C   0  0  0  0  0  2  0  0  0  0  0  0
  188.0000  175.7530  135.4030 C   0  0  0  0  0  0  0  0  0  0  0  0
  187.9730  174.3860  136.0600 C   0  0  2  0  0  3  0  0  0  0  0  0
  186.6150  174.0880  136.7230 C   0  0  0  0  0  2  0  0  0  0  0  0
  186.8930  176.7460  135.6700 C   0  0  1  0  0  3  0  0  0  0  0  0
  186.1370  175.2740  137.5190 C   0  0  0  0  0  3  0  0  0  0  0  0
  186.2620  176.5000  136.9890 C   0  0  0  0  0  0  0  0  0  0  0  0
  183.6360  177.2110  136.9270 C   0  0  1  0  0  3  0  0  0  0  0  0
  183.4920  177.0390  140.4020 O   0  0  0  0  0  1  0  0  0  0  0  0
  180.5110  174.5930  140.1420 C   0  0  0  0  0  1  0  0  0  0  0  0
  184.0180  179.1990  138.4480 C   0  0  0  0  0  0  0  0  0  0  0  0
  184.6240  178.2980  137.3840 C   0  0  1  0  0  3  0  0  0  0  0  0
  180.5840  175.7490  139.1620 C   0  0  1  0  0  0  0  0  0  0  0  0
  181.6420  175.2920  137.7840 S   0  0  2  0  0  0  0  0  0  0  0  0
  179.3090  176.0630  138.7150 F   0  0  0  0  0  0  0  0  0  0  0  0
  182.9650  176.4890  138.1400 C   0  0  2  0  0  3  0  0  0  0  0  0
  184.5610  180.2550  138.7390 O   0  0  0  0  0  0  0  0  0  0  0  0
  182.4540  179.6060  140.2000 F   0  0  0  0  0  0  0  0  0  0  0  0
  180.8810  175.8270  136.5760 O   0  0  0  0  0  0  0  0  0  0  0  0
  181.2180  176.9430  139.8130 C   0  0  0  0  0  0  0  0  0  0  0  0
  182.6000  177.3460  139.3690 C   0  0  1  0  0  0  0  0  0  0  0  0
  180.6440  177.5410  140.7160 O   0  0  0  0  0  0  0  0  0  0  0  0
  182.6820  178.8480  139.0560 C   0  0  2  0  0  3  0  0  0  0  0  0
  182.6380  177.8630  135.9770 C   0  0  0  0  0  1  0  0  0  0  0  0
  189.0960  174.2140  137.0400 C   0  0  0  0  0  0  0  0  0  0  0  0
  189.5930  175.3230  137.7170 O   0  0  0  0  0  1  0  0  0  0  0  0
  189.6160  173.0810  137.2290 O   0  0  0  0  0  0  0  0  0  0  0  0
  1  7  1  1  0  0  0
  2  9  2  0  0  0  0
  3 12  1  0  0  0  0
  3  6  1  0  0  0  0
  5  4  1  0  0  0  0
  6  8  1  1  0  0  0
  6  1  1  0  0  0  0
  7  4  1  0  0  0  0
  8  5  1  0  0  0  0
  9 10  1  0  0  0  0
 10 11  1  0  0  0  0
 10 32  1  1  0  0  0
 11 13  1  0  0  0  0
 12  9  1  1  0  0  0
 12 14  1  0  0  0  0
 14 13  2  0  0  0  0
 14  1  1  0  0  0  0
 15 31  1  6  0  0  0
 15 19  1  0  0  0  0
 15 23  1  0  0  0  0
 18 24  2  0  0  0  0
 18 30  1  0  0  0  0
 19  1  1  0  0  0  0
 19 18  1  1  0  0  0
 20 27  1  0  0  0  0
 20 17  1  1  0  0  0
 21 26  2  6  0  0  0
 21 23  1  0  0  0  0
 21 20  1  0  0  0  0
 22 20  1  0  0  0  0
 23 28  1  0  0  0  0
 27 29  2  0  0  0  0
 28 27  1  0  0  0  0
 28 16  1  0  0  0  0
 30 28  1  0  0  0  0
 30 25  1  0  0  0  0
 32 34  2  0  0  0  0
 32 33  1  0  0  0  0
M  END
>  <MODEL>
4

>  <REMARK>
 VINA RESULT:      -4.6      3.190      7.270
  Name = 
  2 active torsions:
  status: ('A' for Active; 'I' for Inactive)
    1  A    between atoms: C_1  and  C_9
    2  A    between atoms: C_3  and  C_25
                            x       y       z     vdW  Elec       q    Type
                         _______ _______ _______ _____ _____    ______ ____

>  <TORSDO>
F 2

$$$$
=
 OpenBabel10262423393D

 34 38  0  0  1  0  0  0  0  0999 V2000
  189.5680  175.6630  136.2320 C   0  0  2  0  0  0  0  0  0  0  0  0
  188.1690  179.8670  137.2190 O   0  0  0  0  0  0  0  0  0  0  0  0
  188.7710  177.8190  135.4470 O   0  0  0  0  0  0  0  0  0  0  0  0
  187.5060  174.5210  137.1840 C   0  0  0  0  0  2  0  0  0  0  0  0
  186.8550  174.7980  135.9810 O   0  0  0  0  0  0  0  0  0  0  0  0
  188.5420  176.4240  135.3560 C   0  0  2  0  0  3  0  0  0  0  0  0
  188.9970  174.4020  136.9150 C   0  0  0  0  0  2  0  0  0  0  0  0
  187.0780  176.1570  135.7480 C   0  0  0  0  0  2  0  0  0  0  0  0
  188.8720  178.9430  137.5990 C   0  0  0  0  0  0  0  0  0  0  0  0
  189.1150  178.7470  139.0840 C   0  0  2  0  0  3  0  0  0  0  0  0
  190.3010  177.8020  139.3580 C   0  0  0  0  0  2  0  0  0  0  0  0
  189.5620  178.0520  136.5930 C   0  0  1  0  0  3  0  0  0  0  0  0
  190.2250  176.5820  138.4790 C   0  0  0  0  0  3  0  0  0  0  0  0
  189.8980  176.7350  137.1870 C   0  0  0  0  0  0  0  0  0  0  0  0
  192.1050  176.0620  135.8340 C   0  0  1  0  0  3  0  0  0  0  0  0
  192.0070  173.2880  137.9370 O   0  0  0  0  0  1  0  0  0  0  0  0
  195.5430  174.1620  139.2290 C   0  0  0  0  0  1  0  0  0  0  0  0
  191.0840  173.8380  135.1790 C   0  0  0  0  0  0  0  0  0  0  0  0
  190.8280  175.3210  135.3970 C   0  0  1  0  0  3  0  0  0  0  0  0
  195.2450  174.3570  137.7530 C   0  0  1  0  0  0  0  0  0  0  0  0
  194.4610  175.9570  137.5150 S   0  0  2  0  0  0  0  0  0  0  0  0
  196.4210  174.2770  137.0240 F   0  0  0  0  0  0  0  0  0  0  0  0
  192.8430  175.3130  136.9900 C   0  0  2  0  0  3  0  0  0  0  0  0
  190.2580  173.1540  134.5940 O   0  0  0  0  0  0  0  0  0  0  0  0
  192.3360  171.8510  135.5840 F   0  0  0  0  0  0  0  0  0  0  0  0
  195.1480  176.4900  136.2620 O   0  0  0  0  0  0  0  0  0  0  0  0
  194.2650  173.3240  137.2810 C   0  0  0  0  0  0  0  0  0  0  0  0
  192.8650  173.7710  136.9440 C   0  0  1  0  0  0  0  0  0  0  0  0
  194.5830  172.1430  137.2180 O   0  0  0  0  0  0  0  0  0  0  0  0
  192.4110  173.2400  135.5750 C   0  0  2  0  0  3  0  0  0  0  0  0
  192.9660  176.2700  134.5940 C   0  0  0  0  0  1  0  0  0  0  0  0
  187.8820  178.2780  139.7980 C   0  0  0  0  0  0  0  0  0  0  0  0
  187.9720  177.8560  141.1200 O   0  0  0  0  0  1  0  0  0  0  0  0
  186.7730  178.2290  139.2000 O   0  0  0  0  0  0  0  0  0  0  0  0
  1  7  1  1  0  0  0
  1 14  1  0  0  0  0
  2  9  2  0  0  0  0
  5  4  1  0  0  0  0
  6  3  1  0  0  0  0
  6  8  1  1  0  0  0
  6  1  1  0  0  0  0
  7  4  1  0  0  0  0
  8  5  1  0  0  0  0
  9 10  1  0  0  0  0
 10 11  1  0  0  0  0
 10 32  1  6  0  0  0
 12  3  1  6  0  0  0
 12 14  1  0  0  0  0
 12  9  1  0  0  0  0
 13 11  1  0  0  0  0
 14 13  2  0  0  0  0
 15 31  1  6  0  0  0
 15 23  1  0  0  0  0
 18 30  1  0  0  0  0
 19 18  1  1  0  0  0
 19 15  1  0  0  0  0
 19  1  1  0  0  0  0
 20 17  1  1  0  0  0
 21 26  2  6  0  0  0
 21 20  1  0  0  0  0
 22 20  1  0  0  0  0
 23 21  1  0  0  0  0
 24 18  2  0  0  0  0
 27 20  1  0  0  0  0
 28 23  1  0  0  0  0
 28 27  1  0  0  0  0
 28 16  1  0  0  0  0
 29 27  2  0  0  0  0
 30 25  1  0  0  0  0
 30 28  1  0  0  0  0
 32 33  1  0  0  0  0
 34 32  2  0  0  0  0
M  END
>  <MODEL>
5

>  <REMARK>
 VINA RESULT:      -4.5      4.122      6.008
  Name = 
  2 active torsions:
  status: ('A' for Active; 'I' for Inactive)
    1  A    between atoms: C_1  and  C_9
    2  A    between atoms: C_3  and  C_25
                            x       y       z     vdW  Elec       q    Type
                         _______ _______ _______ _____ _____    ______ ____

>  <TORSDO>
F 2

$$$$
=
 OpenBabel10262423393D

 34 38  0  0  1  0  0  0  0  0999 V2000
  182.5490  176.4720  137.4070 C   0  0  2  0  0  0  0  0  0  0  0  0
  181.3050  180.4180  139.2710 O   0  0  0  0  0  0  0  0  0  0  0  0
  181.2250  178.5030  137.2660 O   0  0  0  0  0  0  0  0  0  0  0  0
  181.3440  175.0340  139.1220 C   0  0  0  0  0  2  0  0  0  0  0  0
  180.1700  175.2320  138.3940 O   0  0  0  0  0  0  0  0  0  0  0  0
  181.1480  177.0910  137.1810 C   0  0  2  0  0  3  0  0  0  0  0  0
  182.5280  175.1320  138.1740 C   0  0  0  0  0  2  0  0  0  0  0  0
  180.0920  176.6130  138.1930 C   0  0  0  0  0  2  0  0  0  0  0  0
  182.2080  179.5980  139.2000 C   0  0  0  0  0  0  0  0  0  0  0  0
  183.1520  179.4190  140.3740 C   0  0  2  0  0  3  0  0  0  0  0  0
  184.4270  178.6480  139.9800 C   0  0  0  0  0  2  0  0  0  0  0  0
  182.4330  178.8300  137.9190 C   0  0  1  0  0  3  0  0  0  0  0  0
  184.0850  177.4420  139.1460 C   0  0  0  0  0  3  0  0  0  0  0  0
  183.1660  177.5660  138.1770 C   0  0  0  0  0  0  0  0  0  0  0  0
  184.7700  176.7400  136.0840 C   0  0  1  0  0  3  0  0  0  0  0  0
  184.8230  173.4280  137.1590 O   0  0  0  0  0  1  0  0  0  0  0  0
  188.6850  173.4520  136.9900 C   0  0  0  0  0  1  0  0  0  0  0  0
  183.0910  174.9950  135.3420 C   0  0  0  0  0  0  0  0  0  0  0  0
  183.2890  176.3250  136.0520 C   0  0  1  0  0  3  0  0  0  0  0  0
  187.9100  174.1800  135.9060 C   0  0  1  0  0  0  0  0  0  0  0  0
  187.4900  175.8280  136.4840 S   0  0  2  0  0  0  0  0  0  0  0  0
  188.6740  174.2470  134.7510 F   0  0  0  0  0  0  0  0  0  0  0  0
  185.6920  175.5670  136.5510 C   0  0  2  0  0  3  0  0  0  0  0  0
  181.9710  174.6410  135.0050 O   0  0  0  0  0  0  0  0  0  0  0  0
  183.9040  172.8820  134.5970 F   0  0  0  0  0  0  0  0  0  0  0  0
  187.7610  176.6980  135.2610 O   0  0  0  0  0  0  0  0  0  0  0  0
  186.6130  173.4760  135.6340 C   0  0  0  0  0  0  0  0  0  0  0  0
  185.3350  174.1450  136.0720 C   0  0  1  0  0  0  0  0  0  0  0  0
  186.6000  172.3670  135.1140 O   0  0  0  0  0  0  0  0  0  0  0  0
  184.2910  174.1720  134.9440 C   0  0  2  0  0  3  0  0  0  0  0  0
  185.1270  177.2860  134.7070 C   0  0  0  0  0  1  0  0  0  0  0  0
  182.4740  178.7680  141.5440 C   0  0  0  0  0  0  0  0  0  0  0  0
  181.3700  177.9510  141.3300 O   0  0  0  0  0  0  0  0  0  0  0  0
  182.8750  178.9830  142.7200 O   0  0  0  0  0  1  0  0  0  0  0  0
  1  7  1  1  0  0  0
  1 14  1  0  0  0  0
  5  4  1  0  0  0  0
  6  3  1  0  0  0  0
  6  1  1  0  0  0  0
  6  8  1  1  0  0  0
  7  4  1  0  0  0  0
  8  5  1  0  0  0  0
  9  2  2  0  0  0  0
  9 10  1  0  0  0  0
 10 32  1  1  0  0  0
 11 10  1  0  0  0  0
 12  3  1  1  0  0  0
 12 14  1  0  0  0  0
 12  9  1  0  0  0  0
 13 11  1  0  0  0  0
 14 13  2  0  0  0  0
 15 31  1  6  0  0  0
 15 23  1  0  0  0  0
 19 18  1  1  0  0  0
 19 15  1  0  0  0  0
 19  1  1  0  0  0  0
 20 21  1  0  0  0  0
 20 17  1  1  0  0  0
 21 26  2  6  0  0  0
 21 23  1  0  0  0  0
 22 20  1  0  0  0  0
 24 18  2  0  0  0  0
 25 30  1  0  0  0  0
 27 20  1  0  0  0  0
 27 28  1  0  0  0  0
 28 23  1  0  0  0  0
 28 16  1  0  0  0  0
 29 27  2  0  0  0  0
 30 18  1  0  0  0  0
 30 28  1  0  0  0  0
 32 34  1  0  0  0  0
 33 32  2  0  0  0  0
M  END
>  <MODEL>
6

>  <REMARK>
 VINA RESULT:      -4.2      1.881      2.261
  Name = 
  2 active torsions:
  status: ('A' for Active; 'I' for Inactive)
    1  A    between atoms: C_1  and  C_9
    2  A    between atoms: C_3  and  C_25
                            x       y       z     vdW  Elec       q    Type
                         _______ _______ _______ _____ _____    ______ ____

>  <TORSDO>
F 2

$$$$
=
 OpenBabel10262423393D

 34 38  0  0  1  0  0  0  0  0999 V2000
  185.8890  176.1990  136.2880 C   0  0  2  0  0  0  0  0  0  0  0  0
  181.6860  177.4950  135.1670 O   0  0  0  0  0  0  0  0  0  0  0  0
  184.3600  177.0330  134.5950 O   0  0  0  0  0  0  0  0  0  0  0  0
  185.2970  173.7390  136.5340 C   0  0  0  0  0  2  0  0  0  0  0  0
  185.4180  173.6190  135.1490 O   0  0  0  0  0  0  0  0  0  0  0  0
  185.3200  176.0250  134.8580 C   0  0  2  0  0  3  0  0  0  0  0  0
  186.1980  174.8680  137.0060 C   0  0  0  0  0  2  0  0  0  0  0  0
  184.6500  174.6600  134.6220 C   0  0  0  0  0  2  0  0  0  0  0  0
  182.4820  177.4080  136.0900 C   0  0  0  0  0  0  0  0  0  0  0  0
  181.9720  177.2120  137.5050 C   0  0  2  0  0  3  0  0  0  0  0  0
  183.0570  177.5060  138.5580 C   0  0  0  0  0  2  0  0  0  0  0  0
  183.9600  177.5820  135.8330 C   0  0  1  0  0  3  0  0  0  0  0  0
  184.3630  176.8620  138.1730 C   0  0  0  0  0  3  0  0  0  0  0  0
  184.7670  176.9350  136.8960 C   0  0  0  0  0  0  0  0  0  0  0  0
  187.3870  177.9060  137.5500 C   0  0  1  0  0  3  0  0  0  0  0  0
  188.9130  174.8350  138.1560 O   0  0  0  0  0  1  0  0  0  0  0  0
  190.4300  176.2490  141.4180 C   0  0  0  0  0  1  0  0  0  0  0  0
  188.4120  176.4650  135.7370 C   0  0  0  0  0  0  0  0  0  0  0  0
  187.1380  177.1160  136.2530 C   0  0  1  0  0  3  0  0  0  0  0  0
  190.3630  177.1540  140.2000 C   0  0  1  0  0  0  0  0  0  0  0  0
  188.7360  177.9110  140.1140 S   0  0  2  0  0  0  0  0  0  0  0  0
  191.3500  178.1240  140.2860 F   0  0  0  0  0  0  0  0  0  0  0  0
  188.2040  177.0730  138.5900 C   0  0  2  0  0  3  0  0  0  0  0  0
  188.4540  176.0170  134.6010 O   0  0  0  0  0  0  0  0  0  0  0  0
  190.6000  175.5880  136.0840 F   0  0  0  0  0  0  0  0  0  0  0  0
  189.0520  179.3540  139.7320 O   0  0  0  0  0  0  0  0  0  0  0  0
  190.5300  176.3480  138.9460 C   0  0  0  0  0  0  0  0  0  0  0  0
  189.3310  176.1660  138.0520 C   0  0  1  0  0  0  0  0  0  0  0  0
  191.6010  175.8140  138.6830 O   0  0  0  0  0  0  0  0  0  0  0  0
  189.6600  176.4820  136.5850 C   0  0  2  0  0  3  0  0  0  0  0  0
  188.0500  179.2250  137.1690 C   0  0  0  0  0  1  0  0  0  0  0  0
  181.3880  175.8450  137.7060 C   0  0  0  0  0  0  0  0  0  0  0  0
  181.6970  174.8280  136.8090 O   0  0  0  0  0  0  0  0  0  0  0  0
  180.5930  175.6190  138.6580 O   0  0  0  0  0  1  0  0  0  0  0  0
  1 14  1  0  0  0  0
  1  7  1  1  0  0  0
  2  9  2  0  0  0  0
  3  6  1  0  0  0  0
  4  7  1  0  0  0  0
  5  4  1  0  0  0  0
  6  8  1  1  0  0  0
  6  1  1  0  0  0  0
  8  5  1  0  0  0  0
  9 10  1  0  0  0  0
 10 32  1  6  0  0  0
 10 11  1  0  0  0  0
 12  3  1  6  0  0  0
 12  9  1  0  0  0  0
 12 14  1  0  0  0  0
 13 11  1  0  0  0  0
 14 13  2  0  0  0  0
 15 31  1  6  0  0  0
 15 23  1  0  0  0  0
 18 30  1  0  0  0  0
 19 18  1  1  0  0  0
 19  1  1  0  0  0  0
 19 15  1  0  0  0  0
 20 22  1  0  0  0  0
 20 17  1  1  0  0  0
 21 26  2  6  0  0  0
 21 20  1  0  0  0  0
 23 21  1  0  0  0  0
 24 18  2  0  0  0  0
 25 30  1  0  0  0  0
 27 20  1  0  0  0  0
 28 16  1  0  0  0  0
 28 23  1  0  0  0  0
 28 27  1  0  0  0  0
 29 27  2  0  0  0  0
 30 28  1  0  0  0  0
 32 34  1  0  0  0  0
 33 32  2  0  0  0  0
M  END
>  <MODEL>
7

>  <REMARK>
 VINA RESULT:      -4.2      1.998      3.070
  Name = 
  2 active torsions:
  status: ('A' for Active; 'I' for Inactive)
    1  A    between atoms: C_1  and  C_9
    2  A    between atoms: C_3  and  C_25
                            x       y       z     vdW  Elec       q    Type
                         _______ _______ _______ _____ _____    ______ ____

>  <TORSDO>
F 2

$$$$
=
 OpenBabel10262423393D

 34 38  0  0  1  0  0  0  0  0999 V2000
  188.1960  176.1880  136.5190 C   0  0  2  0  0  0  0  0  0  0  0  0
  192.4320  176.3190  134.8940 O   0  0  0  0  0  0  0  0  0  0  0  0
  189.8020  177.1950  135.0000 O   0  0  0  0  0  0  0  0  0  0  0  0
  188.8150  177.0990  138.8090 C   0  0  0  0  0  2  0  0  0  0  0  0
  188.7740  178.3810  138.2590 O   0  0  0  0  0  0  0  0  0  0  0  0
  188.8470  177.4950  136.0030 C   0  0  2  0  0  3  0  0  0  0  0  0
  187.8700  176.2020  138.0270 C   0  0  0  0  0  2  0  0  0  0  0  0
  189.5520  178.3080  137.1010 C   0  0  0  0  0  2  0  0  0  0  0  0
  191.5870  175.5950  135.3980 C   0  0  0  0  0  0  0  0  0  0  0  0
  192.0200  174.4130  136.2460 C   0  0  2  0  0  3  0  0  0  0  0  0
  190.8730  173.4110  136.4730 C   0  0  0  0  0  2  0  0  0  0  0  0
  190.1230  175.8240  135.1070 C   0  0  1  0  0  3  0  0  0  0  0  0
  189.6020  174.1280  136.8430 C   0  0  0  0  0  3  0  0  0  0  0  0
  189.2690  175.2400  136.1710 C   0  0  0  0  0  0  0  0  0  0  0  0
  186.0780  174.7080  136.2410 C   0  0  1  0  0  3  0  0  0  0  0  0
  184.9320  177.5040  137.9710 O   0  0  0  0  0  1  0  0  0  0  0  0
  182.0580  175.3890  139.4560 C   0  0  0  0  0  1  0  0  0  0  0  0
  186.0830  177.0510  135.2820 C   0  0  0  0  0  0  0  0  0  0  0  0
  186.9350  175.8560  135.6810 C   0  0  1  0  0  3  0  0  0  0  0  0
  182.4560  175.1530  138.0100 C   0  0  1  0  0  0  0  0  0  0  0  0
  183.8480  174.0190  137.9570 S   0  0  2  0  0  0  0  0  0  0  0  0
  181.3780  174.6360  137.3080 F   0  0  0  0  0  0  0  0  0  0  0  0
  185.0580  175.2130  137.3120 C   0  0  2  0  0  3  0  0  0  0  0  0
  186.5600  177.9410  134.5940 O   0  0  0  0  0  0  0  0  0  0  0  0
  184.0980  178.3570  135.4640 F   0  0  0  0  0  0  0  0  0  0  0  0
  183.4890  173.0920  136.8000 O   0  0  0  0  0  0  0  0  0  0  0  0
  182.9220  176.4340  137.3840 C   0  0  0  0  0  0  0  0  0  0  0  0
  184.3880  176.5820  137.0700 C   0  0  1  0  0  0  0  0  0  0  0  0
  182.1360  177.3520  137.1800 O   0  0  0  0  0  0  0  0  0  0  0  0
  184.6160  177.0780  135.6340 C   0  0  2  0  0  3  0  0  0  0  0  0
  185.4230  174.0000  135.0610 C   0  0  0  0  0  1  0  0  0  0  0  0
  192.6160  174.8500  137.5520 C   0  0  0  0  0  0  0  0  0  0  0  0
  191.9940  175.8520  138.2890 O   0  0  0  0  0  1  0  0  0  0  0  0
  193.6920  174.3420  137.9690 O   0  0  0  0  0  0  0  0  0  0  0  0
  1  7  1  1  0  0  0
  2  9  2  0  0  0  0
  3  6  1  0  0  0  0
  5  4  1  0  0  0  0
  6  1  1  0  0  0  0
  6  8  1  1  0  0  0
  7  4  1  0  0  0  0
  8  5  1  0  0  0  0
  9 10  1  0  0  0  0
 10 11  1  0  0  0  0
 10 32  1  1  0  0  0
 11 13  1  0  0  0  0
 12  3  1  1  0  0  0
 12  9  1  0  0  0  0
 12 14  1  0  0  0  0
 14  1  1  0  0  0  0
 14 13  2  0  0  0  0
 15 31  1  6  0  0  0
 15 23  1  0  0  0  0
 18 30  1  0  0  0  0
 19 18  1  1  0  0  0
 19 15  1  0  0  0  0
 19  1  1  0  0  0  0
 20 17  1  1  0  0  0
 21 26  2  6  0  0  0
 21 20  1  0  0  0  0
 22 20  1  0  0  0  0
 23 21  1  0  0  0  0
 24 18  2  0  0  0  0
 25 30  1  0  0  0  0
 27 20  1  0  0  0  0
 28 23  1  0  0  0  0
 28 27  1  0  0  0  0
 28 16  1  0  0  0  0
 29 27  2  0  0  0  0
 30 28  1  0  0  0  0
 32 34  2  0  0  0  0
 32 33  1  0  0  0  0
M  END
>  <MODEL>
8

>  <REMARK>
 VINA RESULT:      -4.0      2.889      7.596
  Name = 
  2 active torsions:
  status: ('A' for Active; 'I' for Inactive)
    1  A    between atoms: C_1  and  C_9
    2  A    between atoms: C_3  and  C_25
                            x       y       z     vdW  Elec       q    Type
                         _______ _______ _______ _____ _____    ______ ____

>  <TORSDO>
F 2

$$$$
=
 OpenBabel10262423393D

 34 38  0  0  1  0  0  0  0  0999 V2000
  184.5620  176.4520  136.7190 C   0  0  2  0  0  0  0  0  0  0  0  0
  180.2310  175.6260  135.6410 O   0  0  0  0  0  0  0  0  0  0  0  0
  182.7030  176.8040  135.1960 O   0  0  0  0  0  0  0  0  0  0  0  0
  185.3600  174.0890  136.2260 C   0  0  0  0  0  2  0  0  0  0  0  0
  185.4240  174.4420  134.8780 O   0  0  0  0  0  0  0  0  0  0  0  0
  184.0640  176.4150  135.2530 C   0  0  2  0  0  3  0  0  0  0  0  0
  185.5720  175.3380  137.0670 C   0  0  0  0  0  2  0  0  0  0  0  0
  184.1890  175.0300  134.5940 C   0  0  0  0  0  2  0  0  0  0  0  0
  181.0200  175.7130  136.5690 C   0  0  0  0  0  0  0  0  0  0  0  0
  180.7940  174.8940  137.8260 C   0  0  2  0  0  3  0  0  0  0  0  0
  181.6410  175.4010  139.0090 C   0  0  0  0  0  2  0  0  0  0  0  0
  182.1680  176.6930  136.4980 C   0  0  1  0  0  3  0  0  0  0  0  0
  183.0580  175.6680  138.5760 C   0  0  0  0  0  3  0  0  0  0  0  0
  183.2690  176.2930  137.4080 C   0  0  0  0  0  0  0  0  0  0  0  0
  185.0330  178.2580  138.5270 C   0  0  1  0  0  3  0  0  0  0  0  0
  187.9760  176.4000  138.4030 O   0  0  0  0  0  1  0  0  0  0  0  0
  188.7570  177.4240  142.0480 C   0  0  0  0  0  1  0  0  0  0  0  0
  186.5290  178.1300  136.4870 C   0  0  0  0  0  0  0  0  0  0  0  0
  185.1430  177.8510  137.0470 C   0  0  1  0  0  3  0  0  0  0  0  0
  188.1420  178.4590  141.1230 C   0  0  1  0  0  0  0  0  0  0  0  0
  186.3580  178.2500  141.1030 S   0  0  2  0  0  0  0  0  0  0  0  0
  188.4800  179.7320  141.5570 F   0  0  0  0  0  0  0  0  0  0  0  0
  186.2360  177.7200  139.3670 C   0  0  2  0  0  3  0  0  0  0  0  0
  186.7180  178.1050  135.2800 O   0  0  0  0  0  0  0  0  0  0  0  0
  188.8710  178.4610  136.7730 F   0  0  0  0  0  0  0  0  0  0  0  0
  185.8460  179.6860  141.1590 O   0  0  0  0  0  0  0  0  0  0  0  0
  188.6160  178.2430  139.7160 C   0  0  0  0  0  0  0  0  0  0  0  0
  187.6290  177.7220  138.7040 C   0  0  1  0  0  0  0  0  0  0  0  0
  189.7870  178.4410  139.4130 O   0  0  0  0  0  0  0  0  0  0  0  0
  187.6400  178.5560  137.4140 C   0  0  2  0  0  3  0  0  0  0  0  0
  184.8810  179.7740  138.5800 C   0  0  0  0  0  1  0  0  0  0  0  0
  181.0260  173.4300  137.5910 C   0  0  0  0  0  0  0  0  0  0  0  0
  182.0010  173.0260  136.6870 O   0  0  0  0  0  0  0  0  0  0  0  0
  180.3210  172.5650  138.1790 O   0  0  0  0  0  1  0  0  0  0  0  0
  1 19  1  0  0  0  0
  1  7  1  1  0  0  0
  1 14  1  0  0  0  0
  2  9  2  0  0  0  0
  3  6  1  0  0  0  0
  4  7  1  0  0  0  0
  5  4  1  0  0  0  0
  6  8  1  1  0  0  0
  6  1  1  0  0  0  0
  8  5  1  0  0  0  0
  9 10  1  0  0  0  0
 10 32  1  6  0  0  0
 10 11  1  0  0  0  0
 12  3  1  6  0  0  0
 12  9  1  0  0  0  0
 12 14  1  0  0  0  0
 13 11  1  0  0  0  0
 14 13  2  0  0  0  0
 15 31  1  6  0  0  0
 15 23  1  0  0  0  0
 16 28  1  0  0  0  0
 18 30  1  0  0  0  0
 19 18  1  1  0  0  0
 19 15  1  0  0  0  0
 20 22  1  0  0  0  0
 20 17  1  1  0  0  0
 21 20  1  0  0  0  0
 21 26  2  6  0  0  0
 23 21  1  0  0  0  0
 24 18  2  0  0  0  0
 25 30  1  0  0  0  0
 27 20  1  0  0  0  0
 28 23  1  0  0  0  0
 28 27  1  0  0  0  0
 29 27  2  0  0  0  0
 30 28  1  0  0  0  0
 32 34  1  0  0  0  0
 33 32  2  0  0  0  0
M  END
>  <MODEL>
9

>  <REMARK>
 VINA RESULT:      -4.0      2.645      4.095
  Name = 
  2 active torsions:
  status: ('A' for Active; 'I' for Inactive)
    1  A    between atoms: C_1  and  C_9
    2  A    between atoms: C_3  and  C_25
                            x       y       z     vdW  Elec       q    Type
                         _______ _______ _______ _____ _____    ______ ____

>  <TORSDO>
F 2

$$$$
