=
 OpenBabel10262419123D

 34 37  0  0  1  0  0  0  0  0999 V2000
  184.3050  178.6780  145.0250 C   0  0  0  0  0  0  0  0  0  0  0  0
  186.6630  177.9750  144.8170 C   0  0  0  0  0  0  0  0  0  0  0  0
  185.1690  178.0700  142.8210 C   0  0  0  0  0  0  0  0  0  0  0  0
  185.9480  179.1520  146.8510 C   0  0  0  0  0  2  0  0  0  0  0  0
  186.8700  178.3060  146.1600 O   0  0  0  0  0  0  0  0  0  0  0  0
  187.3870  177.0480  142.7600 O   0  0  0  0  0  0  0  0  0  0  0  0
  185.3610  178.2610  144.2000 C   0  0  0  0  0  0  0  0  0  0  0  0
  184.5000  178.7820  146.5110 C   0  0  0  0  0  2  0  0  0  0  0  0
  183.8990  178.3230  142.2600 C   0  0  0  0  0  0  0  0  0  0  0  0
  183.0400  178.8830  144.4710 C   0  0  0  0  0  3  0  0  0  0  0  0
  187.6080  177.3630  144.1080 C   0  0  0  0  0  3  0  0  0  0  0  0
  186.3510  177.6560  141.9720 C   0  0  2  0  0  3  0  0  0  0  0  0
  182.8400  178.7090  143.0990 C   0  0  0  0  0  3  0  0  0  0  0  0
  182.8820  176.8210  140.6020 C   0  0  0  0  0  1  0  0  0  0  0  0
  183.6510  178.1270  140.7880 C   0  0  1  0  0  3  0  0  0  0  0  0
  182.9510  179.3460  140.1270 C   0  0  1  0  0  3  0  0  0  0  0  0
  183.6080  179.7360  138.7800 C   0  0  1  0  0  3  0  0  0  0  0  0
  184.1230  181.0330  138.8250 O   0  0  0  0  0  1  0  0  0  0  0  0
  184.7300  178.7950  138.3840 C   0  0  0  0  0  1  0  0  0  0  0  0
  180.8450  179.1680  138.2690 S   0  0  0  0  0  1  0  0  0  0  0  0
  180.7150  180.0240  140.7770 O   0  0  0  0  0  1  0  0  0  0  0  0
  181.4300  179.1170  139.9950 C   0  0  2  0  0  3  0  0  0  0  0  0
  186.8630  178.7780  141.3100 O   0  0  0  0  0  0  0  0  0  0  0  0
  187.5970  178.2650  140.2360 C   0  0  0  0  0  2  0  0  0  0  0  0
  189.0760  178.5140  140.4530 C   0  0  0  0  0  2  0  0  0  0  0  0
  189.8360  177.2150  140.2980 C   0  0  0  0  0  2  0  0  0  0  0  0
  191.1380  177.2780  141.0700 C   0  0  0  0  0  2  0  0  0  0  0  0
  190.2370  175.1700  142.9260 O   0  0  0  0  0  1  0  0  0  0  0  0
  190.8500  177.3920  142.4910 N   0  0  0  0  0  0  0  0  0  0  0  0
  191.2430  176.1210  143.1250 C   0  0  1  0  0  3  0  0  0  0  0  0
  190.8540  177.5070  145.2090 C   0  0  0  0  0  2  0  0  0  0  0  0
  191.3420  178.7620  144.4770 C   0  0  0  0  0  2  0  0  0  0  0  0
  191.6790  178.4810  143.0080 C   0  0  0  0  0  2  0  0  0  0  0  0
  191.5130  176.2560  144.6360 C   0  0  0  0  0  2  0  0  0  0  0  0
  1  8  1  0  0  0  0
  2  5  1  0  0  0  0
  3  7  1  0  0  0  0
  5  4  1  0  0  0  0
  6 11  1  0  0  0  0
  7  2  1  0  0  0  0
  7  1  2  0  0  0  0
  8  4  1  0  0  0  0
  9  3  2  0  0  0  0
  9 13  1  0  0  0  0
 10  1  1  0  0  0  0
 11  2  2  0  0  0  0
 12 23  1  1  0  0  0
 12  6  1  0  0  0  0
 12  3  1  0  0  0  0
 13 10  2  0  0  0  0
 15 14  1  1  0  0  0
 15  9  1  0  0  0  0
 16 17  1  6  0  0  0
 16 15  1  0  0  0  0
 17 19  1  1  0  0  0
 17 18  1  0  0  0  0
 22 20  1  6  0  0  0
 22 16  1  0  0  0  0
 22 21  1  0  0  0  0
 24 25  1  0  0  0  0
 24 23  1  0  0  0  0
 26 25  1  0  0  0  0
 26 27  1  0  0  0  0
 27 29  1  0  0  0  0
 29 33  1  0  0  0  0
 29 30  1  0  0  0  0
 30 28  1  1  0  0  0
 30 34  1  0  0  0  0
 32 31  1  0  0  0  0
 33 32  1  0  0  0  0
 34 31  1  0  0  0  0
M  END
>  <MODEL>
1

>  <REMARK>
 VINA RESULT:      -7.4      0.000      0.000
  Name = 
  10 active torsions:
  status: ('A' for Active; 'I' for Inactive)
    1  A    between atoms: C_3  and  N_13
    2  A    between atoms: C_3  and  C_17
    3  A    between atoms: O_5  and  C_18
    4  A    between atoms: O_5  and  C_31
    5  A    between atoms: C_7  and  C_23
    6  A    between atoms: C_17  and  C_29
    7  A    between atoms: C_18  and  C_29
    8  A    between atoms: C_21  and  C_28
    9  A    between atoms: C_23  and  C_27
   10  A    between atoms: C_23  and  C_28
                            x       y       z     vdW  Elec       q    Type
                         _______ _______ _______ _____ _____    ______ ____

>  <TORSDO>
F 10

$$$$
=
 OpenBabel10262419123D

 34 37  0  0  1  0  0  0  0  0999 V2000
  185.4370  178.4430  144.6700 C   0  0  0  0  0  0  0  0  0  0  0  0
  185.1210  178.8570  142.2550 C   0  0  0  0  0  0  0  0  0  0  0  0
  187.3790  178.3470  143.1890 C   0  0  0  0  0  0  0  0  0  0  0  0
  183.1580  178.3490  143.6410 C   0  0  0  0  0  2  0  0  0  0  0  0
  183.7370  178.8920  142.4520 O   0  0  0  0  0  0  0  0  0  0  0  0
  187.0440  179.1190  140.8950 O   0  0  0  0  0  0  0  0  0  0  0  0
  185.9990  178.5260  143.3860 C   0  0  0  0  0  0  0  0  0  0  0  0
  183.9770  178.7350  144.8780 C   0  0  0  0  0  2  0  0  0  0  0  0
  188.2020  178.0600  144.2980 C   0  0  0  0  0  0  0  0  0  0  0  0
  186.2640  178.2030  145.7680 C   0  0  0  0  0  3  0  0  0  0  0  0
  185.6550  179.1680  141.0770 C   0  0  0  0  0  3  0  0  0  0  0  0
  187.9260  178.4090  141.7790 C   0  0  2  0  0  3  0  0  0  0  0  0
  187.6360  178.0110  145.5830 C   0  0  0  0  0  3  0  0  0  0  0  0
  190.3940  179.1140  144.6470 C   0  0  0  0  0  1  0  0  0  0  0  0
  189.6860  177.8650  144.1290 C   0  0  1  0  0  3  0  0  0  0  0  0
  190.2000  176.5550  144.7860 C   0  0  1  0  0  3  0  0  0  0  0  0
  191.1430  175.7620  143.8480 C   0  0  1  0  0  3  0  0  0  0  0  0
  190.4240  174.8890  143.0290 O   0  0  0  0  0  1  0  0  0  0  0  0
  191.9760  176.6660  142.9590 C   0  0  0  0  0  1  0  0  0  0  0  0
  192.1860  175.6740  146.5750 S   0  0  0  0  0  1  0  0  0  0  0  0
  189.8770  176.8350  147.1740 O   0  0  0  0  0  1  0  0  0  0  0  0
  190.8400  176.8320  146.1640 C   0  0  2  0  0  3  0  0  0  0  0  0
  188.1240  177.1090  141.3000 O   0  0  0  0  0  0  0  0  0  0  0  0
  188.6860  177.2690  140.0300 C   0  0  0  0  0  2  0  0  0  0  0  0
  190.1350  177.7010  140.1550 C   0  0  0  0  0  2  0  0  0  0  0  0
  191.0160  176.7430  139.3850 C   0  0  0  0  0  2  0  0  0  0  0  0
  190.8510  176.9660  137.8960 C   0  0  0  0  0  2  0  0  0  0  0  0
  193.7090  176.6660  137.2340 O   0  0  0  0  0  1  0  0  0  0  0  0
  191.4990  175.8830  137.1710 N   0  0  0  0  0  0  0  0  0  0  0  0
  192.8400  175.7020  137.7550 C   0  0  1  0  0  3  0  0  0  0  0  0
  192.7420  173.6200  136.3160 C   0  0  0  0  0  2  0  0  0  0  0  0
  191.2320  173.5150  136.5540 C   0  0  0  0  0  2  0  0  0  0  0  0
  190.6960  174.6810  137.3930 C   0  0  0  0  0  2  0  0  0  0  0  0
  193.4300  174.3030  137.4950 C   0  0  0  0  0  2  0  0  0  0  0  0
  1  8  1  0  0  0  0
  1 10  1  0  0  0  0
  2  5  1  0  0  0  0
  2  7  1  0  0  0  0
  3  7  1  0  0  0  0
  3  9  2  0  0  0  0
  4  8  1  0  0  0  0
  5  4  1  0  0  0  0
  6 11  1  0  0  0  0
  6 12  1  0  0  0  0
  7  1  2  0  0  0  0
  9 13  1  0  0  0  0
 11  2  2  0  0  0  0
 12 23  1  6  0  0  0
 12  3  1  0  0  0  0
 13 10  2  0  0  0  0
 15  9  1  0  0  0  0
 15 14  1  1  0  0  0
 15 16  1  0  0  0  0
 16 17  1  6  0  0  0
 16 22  1  0  0  0  0
 17 19  1  6  0  0  0
 18 17  1  0  0  0  0
 22 20  1  1  0  0  0
 22 21  1  0  0  0  0
 24 25  1  0  0  0  0
 24 23  1  0  0  0  0
 26 25  1  0  0  0  0
 27 26  1  0  0  0  0
 29 33  1  0  0  0  0
 29 30  1  0  0  0  0
 29 27  1  0  0  0  0
 30 28  1  6  0  0  0
 31 32  1  0  0  0  0
 31 34  1  0  0  0  0
 32 33  1  0  0  0  0
 34 30  1  0  0  0  0
M  END
>  <MODEL>
2

>  <REMARK>
 VINA RESULT:      -7.1      3.731      6.719
  Name = 
  10 active torsions:
  status: ('A' for Active; 'I' for Inactive)
    1  A    between atoms: C_3  and  N_13
    2  A    between atoms: C_3  and  C_17
    3  A    between atoms: O_5  and  C_18
    4  A    between atoms: O_5  and  C_31
    5  A    between atoms: C_7  and  C_23
    6  A    between atoms: C_17  and  C_29
    7  A    between atoms: C_18  and  C_29
    8  A    between atoms: C_21  and  C_28
    9  A    between atoms: C_23  and  C_27
   10  A    between atoms: C_23  and  C_28
                            x       y       z     vdW  Elec       q    Type
                         _______ _______ _______ _____ _____    ______ ____

>  <TORSDO>
F 10

$$$$
=
 OpenBabel10262419123D

 34 37  0  0  1  0  0  0  0  0999 V2000
  185.2660  178.4210  144.5770 C   0  0  0  0  0  0  0  0  0  0  0  0
  184.9480  178.8850  142.1720 C   0  0  0  0  0  0  0  0  0  0  0  0
  187.2070  178.3550  143.0930 C   0  0  0  0  0  0  0  0  0  0  0  0
  182.9860  178.3490  143.5490 C   0  0  0  0  0  2  0  0  0  0  0  0
  183.5640  178.9160  142.3710 O   0  0  0  0  0  0  0  0  0  0  0  0
  186.8690  179.1740  140.8160 O   0  0  0  0  0  0  0  0  0  0  0  0
  185.8260  178.5310  143.2950 C   0  0  0  0  0  0  0  0  0  0  0  0
  183.8070  178.7090  144.7930 C   0  0  0  0  0  2  0  0  0  0  0  0
  188.0310  178.0450  144.1950 C   0  0  0  0  0  0  0  0  0  0  0  0
  186.0940  178.1590  145.6700 C   0  0  0  0  0  3  0  0  0  0  0  0
  185.4810  179.2200  141.0000 C   0  0  0  0  0  3  0  0  0  0  0  0
  187.7530  178.4460  141.6840 C   0  0  2  0  0  3  0  0  0  0  0  0
  187.4660  177.9700  145.4790 C   0  0  0  0  0  3  0  0  0  0  0  0
  190.2160  179.1420  144.4410 C   0  0  0  0  0  1  0  0  0  0  0  0
  189.5140  177.8530  144.0210 C   0  0  1  0  0  3  0  0  0  0  0  0
  190.0510  176.5980  144.7610 C   0  0  1  0  0  3  0  0  0  0  0  0
  190.9580  175.7290  143.8550 C   0  0  1  0  0  3  0  0  0  0  0  0
  190.2120  175.0630  142.8810 O   0  0  0  0  0  1  0  0  0  0  0  0
  192.0310  176.5410  143.1550 C   0  0  0  0  0  1  0  0  0  0  0  0
  192.0520  175.8120  146.5770 S   0  0  0  0  0  1  0  0  0  0  0  0
  189.8070  177.1200  147.1170 O   0  0  0  0  0  1  0  0  0  0  0  0
  190.7390  176.9800  146.0890 C   0  0  2  0  0  3  0  0  0  0  0  0
  187.9500  177.1560  141.1790 O   0  0  0  0  0  0  0  0  0  0  0  0
  188.6870  177.3330  140.0040 C   0  0  0  0  0  2  0  0  0  0  0  0
  190.0770  177.8390  140.3360 C   0  0  0  0  0  2  0  0  0  0  0  0
  191.1090  176.9660  139.6560 C   0  0  0  0  0  2  0  0  0  0  0  0
  190.4380  176.0540  138.6500 C   0  0  0  0  0  2  0  0  0  0  0  0
  189.8940  173.4460  137.3860 O   0  0  0  0  0  1  0  0  0  0  0  0
  191.3950  175.0590  138.1890 N   0  0  0  0  0  0  0  0  0  0  0  0
  190.8210  174.4160  136.9940 C   0  0  1  0  0  3  0  0  0  0  0  0
  193.1760  173.4940  136.8580 C   0  0  0  0  0  2  0  0  0  0  0  0
  193.7300  174.7920  137.4550 C   0  0  0  0  0  2  0  0  0  0  0  0
  192.6170  175.7780  137.8280 C   0  0  0  0  0  2  0  0  0  0  0  0
  191.8830  173.7590  136.0920 C   0  0  0  0  0  2  0  0  0  0  0  0
  1  8  1  0  0  0  0
  1 10  1  0  0  0  0
  2  5  1  0  0  0  0
  2  7  1  0  0  0  0
  3  7  1  0  0  0  0
  3  9  2  0  0  0  0
  4  8  1  0  0  0  0
  5  4  1  0  0  0  0
  6 11  1  0  0  0  0
  6 12  1  0  0  0  0
  7  1  2  0  0  0  0
  9 13  1  0  0  0  0
 11  2  2  0  0  0  0
 12 23  1  6  0  0  0
 12  3  1  0  0  0  0
 13 10  2  0  0  0  0
 15  9  1  0  0  0  0
 15 14  1  1  0  0  0
 15 16  1  0  0  0  0
 16 17  1  6  0  0  0
 16 22  1  0  0  0  0
 17 19  1  6  0  0  0
 18 17  1  0  0  0  0
 22 20  1  1  0  0  0
 22 21  1  0  0  0  0
 24 25  1  0  0  0  0
 24 23  1  0  0  0  0
 26 25  1  0  0  0  0
 27 26  1  0  0  0  0
 29 27  1  0  0  0  0
 30 28  1  1  0  0  0
 30 29  1  0  0  0  0
 31 32  1  0  0  0  0
 32 33  1  0  0  0  0
 33 29  1  0  0  0  0
 34 31  1  0  0  0  0
 34 30  1  0  0  0  0
M  END
>  <MODEL>
3

>  <REMARK>
 VINA RESULT:      -7.1      3.647      6.593
  Name = 
  10 active torsions:
  status: ('A' for Active; 'I' for Inactive)
    1  A    between atoms: C_3  and  N_13
    2  A    between atoms: C_3  and  C_17
    3  A    between atoms: O_5  and  C_18
    4  A    between atoms: O_5  and  C_31
    5  A    between atoms: C_7  and  C_23
    6  A    between atoms: C_17  and  C_29
    7  A    between atoms: C_18  and  C_29
    8  A    between atoms: C_21  and  C_28
    9  A    between atoms: C_23  and  C_27
   10  A    between atoms: C_23  and  C_28
                            x       y       z     vdW  Elec       q    Type
                         _______ _______ _______ _____ _____    ______ ____

>  <TORSDO>
F 10

$$$$
=
 OpenBabel10262419123D

 34 37  0  0  1  0  0  0  0  0999 V2000
  185.4750  178.4560  144.8410 C   0  0  0  0  0  0  0  0  0  0  0  0
  185.0950  178.8860  142.4390 C   0  0  0  0  0  0  0  0  0  0  0  0
  187.3740  178.3560  143.3070 C   0  0  0  0  0  0  0  0  0  0  0  0
  183.1670  178.3820  143.8760 C   0  0  0  0  0  2  0  0  0  0  0  0
  183.7170  178.9280  142.6750 O   0  0  0  0  0  0  0  0  0  0  0  0
  186.9800  179.1430  141.0270 O   0  0  0  0  0  0  0  0  0  0  0  0
  186.0010  178.5430  143.5430 C   0  0  0  0  0  0  0  0  0  0  0  0
  184.0230  178.7560  145.0910 C   0  0  0  0  0  2  0  0  0  0  0  0
  188.2260  178.0570  144.3900 C   0  0  0  0  0  0  0  0  0  0  0  0
  186.3300  178.2050  145.9150 C   0  0  0  0  0  3  0  0  0  0  0  0
  185.5970  179.2000  141.2480 C   0  0  0  0  0  3  0  0  0  0  0  0
  187.8820  178.4220  141.8830 C   0  0  2  0  0  3  0  0  0  0  0  0
  187.6950  178.0050  145.6910 C   0  0  0  0  0  3  0  0  0  0  0  0
  190.4320  179.1030  144.6680 C   0  0  0  0  0  1  0  0  0  0  0  0
  189.7030  177.8540  144.1790 C   0  0  1  0  0  3  0  0  0  0  0  0
  190.2300  176.5460  144.8300 C   0  0  1  0  0  3  0  0  0  0  0  0
  191.1480  175.7460  143.8730 C   0  0  1  0  0  3  0  0  0  0  0  0
  190.4150  174.8280  143.1180 O   0  0  0  0  0  1  0  0  0  0  0  0
  191.9130  176.6420  142.9160 C   0  0  0  0  0  1  0  0  0  0  0  0
  192.2250  175.6400  146.5960 S   0  0  0  0  0  1  0  0  0  0  0  0
  189.9600  176.8730  147.2190 O   0  0  0  0  0  1  0  0  0  0  0  0
  190.9030  176.8280  146.1910 C   0  0  2  0  0  3  0  0  0  0  0  0
  188.0580  177.1240  141.3910 O   0  0  0  0  0  0  0  0  0  0  0  0
  189.3180  177.1310  140.7840 C   0  0  0  0  0  2  0  0  0  0  0  0
  189.2670  177.9240  139.4930 C   0  0  0  0  0  2  0  0  0  0  0  0
  190.2010  177.3020  138.4800 C   0  0  0  0  0  2  0  0  0  0  0  0
  189.6010  177.3940  137.0920 C   0  0  0  0  0  2  0  0  0  0  0  0
  187.3600  179.2820  136.7630 O   0  0  0  0  0  1  0  0  0  0  0  0
  188.1740  177.1200  137.1650 N   0  0  0  0  0  0  0  0  0  0  0  0
  187.5040  178.0100  136.2020 C   0  0  1  0  0  3  0  0  0  0  0  0
  185.5590  176.4870  136.7640 C   0  0  0  0  0  2  0  0  0  0  0  0
  186.5220  175.3080  136.9430 C   0  0  0  0  0  2  0  0  0  0  0  0
  187.9870  175.7250  136.7660 C   0  0  0  0  0  2  0  0  0  0  0  0
  186.1180  177.4960  135.7650 C   0  0  0  0  0  2  0  0  0  0  0  0
  1  8  1  0  0  0  0
  1 10  1  0  0  0  0
  2  5  1  0  0  0  0
  2  7  1  0  0  0  0
  3  7  1  0  0  0  0
  3  9  2  0  0  0  0
  4  8  1  0  0  0  0
  5  4  1  0  0  0  0
  6 11  1  0  0  0  0
  6 12  1  0  0  0  0
  7  1  2  0  0  0  0
  9 13  1  0  0  0  0
 11  2  2  0  0  0  0
 12 23  1  6  0  0  0
 12  3  1  0  0  0  0
 13 10  2  0  0  0  0
 15  9  1  0  0  0  0
 15 14  1  1  0  0  0
 15 16  1  0  0  0  0
 16 17  1  6  0  0  0
 16 22  1  0  0  0  0
 17 19  1  6  0  0  0
 18 17  1  0  0  0  0
 22 20  1  1  0  0  0
 22 21  1  0  0  0  0
 24 23  1  0  0  0  0
 25 24  1  0  0  0  0
 26 25  1  0  0  0  0
 27 29  1  0  0  0  0
 27 26  1  0  0  0  0
 30 28  1  1  0  0  0
 30 29  1  0  0  0  0
 31 32  1  0  0  0  0
 33 32  1  0  0  0  0
 33 29  1  0  0  0  0
 34 30  1  0  0  0  0
 34 31  1  0  0  0  0
M  END
>  <MODEL>
4

>  <REMARK>
 VINA RESULT:      -6.9      3.422      7.015
  Name = 
  10 active torsions:
  status: ('A' for Active; 'I' for Inactive)
    1  A    between atoms: C_3  and  N_13
    2  A    between atoms: C_3  and  C_17
    3  A    between atoms: O_5  and  C_18
    4  A    between atoms: O_5  and  C_31
    5  A    between atoms: C_7  and  C_23
    6  A    between atoms: C_17  and  C_29
    7  A    between atoms: C_18  and  C_29
    8  A    between atoms: C_21  and  C_28
    9  A    between atoms: C_23  and  C_27
   10  A    between atoms: C_23  and  C_28
                            x       y       z     vdW  Elec       q    Type
                         _______ _______ _______ _____ _____    ______ ____

>  <TORSDO>
F 10

$$$$
=
 OpenBabel10262419123D

 34 37  0  0  1  0  0  0  0  0999 V2000
  184.3900  178.5990  145.0850 C   0  0  0  0  0  0  0  0  0  0  0  0
  186.7780  177.9960  144.8990 C   0  0  0  0  0  0  0  0  0  0  0  0
  185.3130  178.0870  142.8810 C   0  0  0  0  0  0  0  0  0  0  0  0
  185.9840  179.0880  146.9510 C   0  0  0  0  0  2  0  0  0  0  0  0
  186.9490  178.2970  146.2540 O   0  0  0  0  0  0  0  0  0  0  0  0
  187.5710  177.1550  142.8310 O   0  0  0  0  0  0  0  0  0  0  0  0
  185.4750  178.2470  144.2680 C   0  0  0  0  0  0  0  0  0  0  0  0
  184.5570  178.6690  146.5780 C   0  0  0  0  0  2  0  0  0  0  0  0
  184.0430  178.3040  142.3060 C   0  0  0  0  0  0  0  0  0  0  0  0
  183.1270  178.7690  144.5160 C   0  0  0  0  0  3  0  0  0  0  0  0
  187.7570  177.4420  144.1900 C   0  0  0  0  0  3  0  0  0  0  0  0
  186.5250  177.7440  142.0420 C   0  0  2  0  0  3  0  0  0  0  0  0
  182.9560  178.6250  143.1370 C   0  0  0  0  0  3  0  0  0  0  0  0
  183.0510  176.8450  140.5960 C   0  0  0  0  0  1  0  0  0  0  0  0
  183.8270  178.1390  140.8250 C   0  0  1  0  0  3  0  0  0  0  0  0
  183.1540  179.3770  140.1730 C   0  0  1  0  0  3  0  0  0  0  0  0
  183.7590  179.7090  138.7860 C   0  0  1  0  0  3  0  0  0  0  0  0
  184.1730  181.0410  138.7200 O   0  0  0  0  0  1  0  0  0  0  0  0
  184.9460  178.8280  138.4440 C   0  0  0  0  0  1  0  0  0  0  0  0
  180.9590  179.1830  138.4220 S   0  0  0  0  0  1  0  0  0  0  0  0
  180.9860  180.2150  140.8660 O   0  0  0  0  0  1  0  0  0  0  0  0
  181.6190  179.2200  140.1210 C   0  0  2  0  0  3  0  0  0  0  0  0
  187.0010  178.9030  141.4190 O   0  0  0  0  0  0  0  0  0  0  0  0
  188.2840  178.5740  140.9680 C   0  0  0  0  0  2  0  0  0  0  0  0
  188.2390  178.2150  139.4960 C   0  0  0  0  0  2  0  0  0  0  0  0
  189.6490  178.0460  138.9740 C   0  0  0  0  0  2  0  0  0  0  0  0
  189.6320  177.2760  137.6690 C   0  0  0  0  0  2  0  0  0  0  0  0
  187.6520  178.9270  136.2360 O   0  0  0  0  0  1  0  0  0  0  0  0
  188.2590  176.9400  137.3260 N   0  0  0  0  0  0  0  0  0  0  0  0
  187.9590  177.5780  136.0320 C   0  0  1  0  0  3  0  0  0  0  0  0
  185.9190  176.0890  136.2300 C   0  0  0  0  0  2  0  0  0  0  0  0
  186.7520  175.0280  136.9570 C   0  0  0  0  0  2  0  0  0  0  0  0
  188.1970  175.4850  137.1880 C   0  0  0  0  0  2  0  0  0  0  0  0
  186.7910  176.9070  135.2820 C   0  0  0  0  0  2  0  0  0  0  0  0
  1  8  1  0  0  0  0
  2  5  1  0  0  0  0
  3  7  1  0  0  0  0
  5  4  1  0  0  0  0
  6 11  1  0  0  0  0
  7  2  1  0  0  0  0
  7  1  2  0  0  0  0
  8  4  1  0  0  0  0
  9  3  2  0  0  0  0
  9 13  1  0  0  0  0
 10  1  1  0  0  0  0
 11  2  2  0  0  0  0
 12 23  1  1  0  0  0
 12  6  1  0  0  0  0
 12  3  1  0  0  0  0
 13 10  2  0  0  0  0
 15 14  1  1  0  0  0
 15  9  1  0  0  0  0
 16 17  1  6  0  0  0
 16 15  1  0  0  0  0
 17 19  1  1  0  0  0
 18 17  1  0  0  0  0
 22 20  1  6  0  0  0
 22 16  1  0  0  0  0
 22 21  1  0  0  0  0
 24 23  1  0  0  0  0
 25 24  1  0  0  0  0
 26 25  1  0  0  0  0
 27 26  1  0  0  0  0
 29 27  1  0  0  0  0
 30 28  1  1  0  0  0
 30 29  1  0  0  0  0
 31 32  1  0  0  0  0
 32 33  1  0  0  0  0
 33 29  1  0  0  0  0
 34 30  1  0  0  0  0
 34 31  1  0  0  0  0
M  END
>  <MODEL>
5

>  <REMARK>
 VINA RESULT:      -6.8      2.123      4.007
  Name = 
  10 active torsions:
  status: ('A' for Active; 'I' for Inactive)
    1  A    between atoms: C_3  and  N_13
    2  A    between atoms: C_3  and  C_17
    3  A    between atoms: O_5  and  C_18
    4  A    between atoms: O_5  and  C_31
    5  A    between atoms: C_7  and  C_23
    6  A    between atoms: C_17  and  C_29
    7  A    between atoms: C_18  and  C_29
    8  A    between atoms: C_21  and  C_28
    9  A    between atoms: C_23  and  C_27
   10  A    between atoms: C_23  and  C_28
                            x       y       z     vdW  Elec       q    Type
                         _______ _______ _______ _____ _____    ______ ____

>  <TORSDO>
F 10

$$$$
=
 OpenBabel10262419123D

 34 37  0  0  1  0  0  0  0  0999 V2000
  186.5850  176.8540  136.4190 C   0  0  0  0  0  0  0  0  0  0  0  0
  188.8460  177.1950  137.3530 C   0  0  0  0  0  0  0  0  0  0  0  0
  186.8260  178.0880  138.5150 C   0  0  0  0  0  0  0  0  0  0  0  0
  188.5200  175.4800  135.6260 C   0  0  0  0  0  2  0  0  0  0  0  0
  189.3710  176.3620  136.3600 O   0  0  0  0  0  0  0  0  0  0  0  0
  189.1010  178.6890  139.1750 O   0  0  0  0  0  0  0  0  0  0  0  0
  187.3910  177.3710  137.4450 C   0  0  0  0  0  0  0  0  0  0  0  0
  187.2130  176.1780  135.2330 C   0  0  0  0  0  2  0  0  0  0  0  0
  185.4280  178.2680  138.5620 C   0  0  0  0  0  0  0  0  0  0  0  0
  185.2080  177.0750  136.4490 C   0  0  0  0  0  3  0  0  0  0  0  0
  189.6440  177.8660  138.1790 C   0  0  0  0  0  3  0  0  0  0  0  0
  187.7360  178.5910  139.6150 C   0  0  2  0  0  3  0  0  0  0  0  0
  184.6330  177.7750  137.5130 C   0  0  0  0  0  3  0  0  0  0  0  0
  183.8110  180.0420  139.0870 C   0  0  0  0  0  1  0  0  0  0  0  0
  184.7850  179.0320  139.6890 C   0  0  1  0  0  3  0  0  0  0  0  0
  184.1250  178.1060  140.7470 C   0  0  1  0  0  3  0  0  0  0  0  0
  184.4970  178.5150  142.1940 C   0  0  1  0  0  3  0  0  0  0  0  0
  185.1630  177.4830  142.8560 O   0  0  0  0  0  1  0  0  0  0  0  0
  185.3740  179.7520  142.2420 C   0  0  0  0  0  1  0  0  0  0  0  0
  181.6390  178.6280  141.9580 S   0  0  0  0  0  1  0  0  0  0  0  0
  182.2150  176.7060  140.2220 O   0  0  0  0  0  1  0  0  0  0  0  0
  182.5990  178.0100  140.5360 C   0  0  2  0  0  3  0  0  0  0  0  0
  187.6580  177.7270  140.7130 O   0  0  0  0  0  0  0  0  0  0  0  0
  188.7360  178.0790  141.5320 C   0  0  0  0  0  2  0  0  0  0  0  0
  189.3640  176.8340  142.1270 C   0  0  0  0  0  2  0  0  0  0  0  0
  189.5580  177.0260  143.6140 C   0  0  0  0  0  2  0  0  0  0  0  0
  188.2600  177.4690  144.2560 C   0  0  0  0  0  2  0  0  0  0  0  0
  186.3760  178.6590  146.1880 O   0  0  0  0  0  1  0  0  0  0  0  0
  188.5170  177.8840  145.6270 N   0  0  0  0  0  0  0  0  0  0  0  0
  187.2920  177.6250  146.4030 C   0  0  1  0  0  3  0  0  0  0  0  0
  188.8800  178.1320  148.3110 C   0  0  0  0  0  2  0  0  0  0  0  0
  190.0380  177.5070  147.5260 C   0  0  0  0  0  2  0  0  0  0  0  0
  189.6080  177.0480  146.1280 C   0  0  0  0  0  2  0  0  0  0  0  0
  187.5510  177.4930  147.9170 C   0  0  0  0  0  2  0  0  0  0  0  0
  1 10  2  0  0  0  0
  1  7  1  0  0  0  0
  2  7  1  0  0  0  0
  2 11  2  0  0  0  0
  3  9  1  0  0  0  0
  3 12  1  0  0  0  0
  4  5  1  0  0  0  0
  5  2  1  0  0  0  0
  6 12  1  0  0  0  0
  7  3  2  0  0  0  0
  8  4  1  0  0  0  0
  8  1  1  0  0  0  0
  9 15  1  0  0  0  0
 10 13  1  0  0  0  0
 11  6  1  0  0  0  0
 12 23  1  1  0  0  0
 13  9  2  0  0  0  0
 15 14  1  6  0  0  0
 16 15  1  6  0  0  0
 16 17  1  0  0  0  0
 17 19  1  6  0  0  0
 17 18  1  0  0  0  0
 22 21  1  1  0  0  0
 22 16  1  0  0  0  0
 22 20  1  0  0  0  0
 23 24  1  0  0  0  0
 24 25  1  0  0  0  0
 25 26  1  0  0  0  0
 26 27  1  0  0  0  0
 27 29  1  0  0  0  0
 29 33  1  0  0  0  0
 29 30  1  0  0  0  0
 30 28  1  1  0  0  0
 30 34  1  0  0  0  0
 32 31  1  0  0  0  0
 33 32  1  0  0  0  0
 34 31  1  0  0  0  0
M  END
>  <MODEL>
6

>  <REMARK>
 VINA RESULT:      -6.6      2.664      5.696
  Name = 
  10 active torsions:
  status: ('A' for Active; 'I' for Inactive)
    1  A    between atoms: C_3  and  N_13
    2  A    between atoms: C_3  and  C_17
    3  A    between atoms: O_5  and  C_18
    4  A    between atoms: O_5  and  C_31
    5  A    between atoms: C_7  and  C_23
    6  A    between atoms: C_17  and  C_29
    7  A    between atoms: C_18  and  C_29
    8  A    between atoms: C_21  and  C_28
    9  A    between atoms: C_23  and  C_27
   10  A    between atoms: C_23  and  C_28
                            x       y       z     vdW  Elec       q    Type
                         _______ _______ _______ _____ _____    ______ ____

>  <TORSDO>
F 10

$$$$
=
 OpenBabel10262419123D

 34 37  0  0  1  0  0  0  0  0999 V2000
  187.0370  177.6080  137.9990 C   0  0  0  0  0  0  0  0  0  0  0  0
  187.9500  178.2330  140.2070 C   0  0  0  0  0  0  0  0  0  0  0  0
  185.5390  178.5850  139.6650 C   0  0  0  0  0  0  0  0  0  0  0  0
  189.2480  176.7240  138.7680 C   0  0  0  0  0  2  0  0  0  0  0  0
  189.1700  177.6450  139.8580 O   0  0  0  0  0  0  0  0  0  0  0  0
  186.5860  179.5010  141.6730 O   0  0  0  0  0  0  0  0  0  0  0  0
  186.8120  178.1270  139.2830 C   0  0  0  0  0  0  0  0  0  0  0  0
  188.4240  177.2160  137.5730 C   0  0  0  0  0  2  0  0  0  0  0  0
  184.4720  178.4990  138.7460 C   0  0  0  0  0  0  0  0  0  0  0  0
  185.9870  177.5670  137.0800 C   0  0  0  0  0  3  0  0  0  0  0  0
  187.8190  178.9270  141.3350 C   0  0  0  0  0  3  0  0  0  0  0  0
  185.3430  179.0990  141.0750 C   0  0  2  0  0  3  0  0  0  0  0  0
  184.7140  178.0070  137.4520 C   0  0  0  0  0  3  0  0  0  0  0  0
  182.9720  180.4440  138.6980 C   0  0  0  0  0  1  0  0  0  0  0  0
  183.0940  178.9810  139.1150 C   0  0  1  0  0  3  0  0  0  0  0  0
  181.9660  178.0850  138.5340 C   0  0  1  0  0  3  0  0  0  0  0  0
  181.1170  177.4200  139.6460 C   0  0  1  0  0  3  0  0  0  0  0  0
  181.4220  176.0630  139.7720 O   0  0  0  0  0  1  0  0  0  0  0  0
  181.3130  178.0770  141.0000 C   0  0  0  0  0  1  0  0  0  0  0  0
  179.3140  178.7480  137.8660 S   0  0  0  0  0  1  0  0  0  0  0  0
  181.3670  178.4490  136.2120 O   0  0  0  0  0  1  0  0  0  0  0  0
  181.1000  178.8600  137.5180 C   0  0  2  0  0  3  0  0  0  0  0  0
  184.7480  178.1020  141.8550 O   0  0  0  0  0  0  0  0  0  0  0  0
  184.4850  178.7100  143.0860 C   0  0  0  0  0  2  0  0  0  0  0  0
  185.0530  177.8670  144.2120 C   0  0  0  0  0  2  0  0  0  0  0  0
  185.9990  178.7050  145.0440 C   0  0  0  0  0  2  0  0  0  0  0  0
  186.5370  177.8890  146.2010 C   0  0  0  0  0  2  0  0  0  0  0  0
  188.3950  178.1830  148.4720 O   0  0  0  0  0  1  0  0  0  0  0  0
  187.9910  177.9190  146.1770 N   0  0  0  0  0  0  0  0  0  0  0  0
  188.4660  177.2740  147.4120 C   0  0  1  0  0  3  0  0  0  0  0  0
  190.6660  177.4250  146.1640 C   0  0  0  0  0  2  0  0  0  0  0  0
  189.9340  177.2270  144.8330 C   0  0  0  0  0  2  0  0  0  0  0  0
  188.4150  177.1380  145.0140 C   0  0  0  0  0  2  0  0  0  0  0  0
  189.9100  176.7450  147.3030 C   0  0  0  0  0  2  0  0  0  0  0  0
  1  7  1  0  0  0  0
  2 11  2  0  0  0  0
  3 12  1  0  0  0  0
  4  5  1  0  0  0  0
  5  2  1  0  0  0  0
  7  3  2  0  0  0  0
  7  2  1  0  0  0  0
  8  1  1  0  0  0  0
  8  4  1  0  0  0  0
  9 15  1  0  0  0  0
  9  3  1  0  0  0  0
 10 13  1  0  0  0  0
 10  1  2  0  0  0  0
 11  6  1  0  0  0  0
 12  6  1  0  0  0  0
 12 23  1  1  0  0  0
 13  9  2  0  0  0  0
 15 14  1  6  0  0  0
 16 22  1  6  0  0  0
 16 15  1  0  0  0  0
 16 17  1  0  0  0  0
 17 18  1  0  0  0  0
 17 19  1  1  0  0  0
 22 21  1  6  0  0  0
 22 20  1  0  0  0  0
 23 24  1  0  0  0  0
 24 25  1  0  0  0  0
 25 26  1  0  0  0  0
 26 27  1  0  0  0  0
 29 27  1  0  0  0  0
 29 30  1  0  0  0  0
 30 28  1  1  0  0  0
 31 34  1  0  0  0  0
 32 33  1  0  0  0  0
 32 31  1  0  0  0  0
 33 29  1  0  0  0  0
 34 30  1  0  0  0  0
M  END
>  <MODEL>
7

>  <REMARK>
 VINA RESULT:      -6.5      2.199      5.050
  Name = 
  10 active torsions:
  status: ('A' for Active; 'I' for Inactive)
    1  A    between atoms: C_3  and  N_13
    2  A    between atoms: C_3  and  C_17
    3  A    between atoms: O_5  and  C_18
    4  A    between atoms: O_5  and  C_31
    5  A    between atoms: C_7  and  C_23
    6  A    between atoms: C_17  and  C_29
    7  A    between atoms: C_18  and  C_29
    8  A    between atoms: C_21  and  C_28
    9  A    between atoms: C_23  and  C_27
   10  A    between atoms: C_23  and  C_28
                            x       y       z     vdW  Elec       q    Type
                         _______ _______ _______ _____ _____    ______ ____

>  <TORSDO>
F 10

$$$$
=
 OpenBabel10262419123D

 34 37  0  0  1  0  0  0  0  0999 V2000
  181.6970  178.4480  142.2120 C   0  0  0  0  0  0  0  0  0  0  0  0
  182.7920  178.7670  140.0210 C   0  0  0  0  0  0  0  0  0  0  0  0
  184.0880  178.9510  142.1460 C   0  0  0  0  0  0  0  0  0  0  0  0
  180.5900  177.6820  140.1030 C   0  0  0  0  0  2  0  0  0  0  0  0
  181.6080  178.3820  139.3840 O   0  0  0  0  0  0  0  0  0  0  0  0
  185.0080  179.6040  139.9790 O   0  0  0  0  0  0  0  0  0  0  0  0
  182.8710  178.7060  141.4870 C   0  0  0  0  0  0  0  0  0  0  0  0
  180.3850  178.2870  141.4960 C   0  0  0  0  0  2  0  0  0  0  0  0
  184.1280  178.9160  143.5560 C   0  0  0  0  0  0  0  0  0  0  0  0
  181.7340  178.4590  143.6070 C   0  0  0  0  0  3  0  0  0  0  0  0
  183.8260  179.2330  139.3250 C   0  0  0  0  0  3  0  0  0  0  0  0
  185.3310  179.1850  141.3150 C   0  0  2  0  0  3  0  0  0  0  0  0
  182.9410  178.6890  144.2740 C   0  0  0  0  0  3  0  0  0  0  0  0
  185.3010  180.5390  144.9800 C   0  0  0  0  0  1  0  0  0  0  0  0
  185.4110  179.1770  144.2990 C   0  0  1  0  0  3  0  0  0  0  0  0
  185.7810  178.0330  145.2820 C   0  0  1  0  0  3  0  0  0  0  0  0
  187.1040  177.3300  144.8880 C   0  0  1  0  0  3  0  0  0  0  0  0
  186.8760  176.2950  143.9790 O   0  0  0  0  0  1  0  0  0  0  0  0
  188.1110  178.2850  144.2750 C   0  0  0  0  0  1  0  0  0  0  0  0
  187.1860  177.8680  147.7150 S   0  0  0  0  0  1  0  0  0  0  0  0
  184.5820  178.2500  147.3790 O   0  0  0  0  0  1  0  0  0  0  0  0
  185.7920  178.5290  146.7440 C   0  0  2  0  0  3  0  0  0  0  0  0
  186.0870  178.0080  141.2680 O   0  0  0  0  0  0  0  0  0  0  0  0
  187.1600  178.2970  140.4200 C   0  0  0  0  0  2  0  0  0  0  0  0
  188.4700  177.9840  141.1160 C   0  0  0  0  0  2  0  0  0  0  0  0
  189.3590  177.1870  140.1880 C   0  0  0  0  0  2  0  0  0  0  0  0
  190.7570  177.0860  140.7640 C   0  0  0  0  0  2  0  0  0  0  0  0
  189.8210  175.2170  142.8440 O   0  0  0  0  0  1  0  0  0  0  0  0
  190.7010  177.2940  142.2030 N   0  0  0  0  0  0  0  0  0  0  0  0
  190.9800  175.9990  142.8470 C   0  0  1  0  0  3  0  0  0  0  0  0
  191.1190  177.5000  144.8820 C   0  0  0  0  0  2  0  0  0  0  0  0
  191.6840  178.6340  144.0190 C   0  0  0  0  0  2  0  0  0  0  0  0
  191.7550  178.2520  142.5360 C   0  0  0  0  0  2  0  0  0  0  0  0
  191.4850  176.1400  144.2960 C   0  0  0  0  0  2  0  0  0  0  0  0
  1 10  1  0  0  0  0
  2  7  1  0  0  0  0
  3  9  2  0  0  0  0
  4  8  1  0  0  0  0
  5  2  1  0  0  0  0
  5  4  1  0  0  0  0
  6 12  1  0  0  0  0
  7  3  1  0  0  0  0
  7  1  2  0  0  0  0
  8  1  1  0  0  0  0
  9 13  1  0  0  0  0
  9 15  1  0  0  0  0
 10 13  2  0  0  0  0
 11  6  1  0  0  0  0
 11  2  2  0  0  0  0
 12 23  1  6  0  0  0
 12  3  1  0  0  0  0
 15 14  1  1  0  0  0
 16 15  1  6  0  0  0
 16 22  1  0  0  0  0
 17 19  1  6  0  0  0
 17 16  1  0  0  0  0
 18 17  1  0  0  0  0
 22 21  1  1  0  0  0
 22 20  1  0  0  0  0
 24 25  1  0  0  0  0
 24 23  1  0  0  0  0
 26 27  1  0  0  0  0
 26 25  1  0  0  0  0
 27 29  1  0  0  0  0
 29 33  1  0  0  0  0
 29 30  1  0  0  0  0
 30 28  1  1  0  0  0
 30 34  1  0  0  0  0
 32 31  1  0  0  0  0
 33 32  1  0  0  0  0
 34 31  1  0  0  0  0
M  END
>  <MODEL>
8

>  <REMARK>
 VINA RESULT:      -6.5      2.311      4.984
  Name = 
  10 active torsions:
  status: ('A' for Active; 'I' for Inactive)
    1  A    between atoms: C_3  and  N_13
    2  A    between atoms: C_3  and  C_17
    3  A    between atoms: O_5  and  C_18
    4  A    between atoms: O_5  and  C_31
    5  A    between atoms: C_7  and  C_23
    6  A    between atoms: C_17  and  C_29
    7  A    between atoms: C_18  and  C_29
    8  A    between atoms: C_21  and  C_28
    9  A    between atoms: C_23  and  C_27
   10  A    between atoms: C_23  and  C_28
                            x       y       z     vdW  Elec       q    Type
                         _______ _______ _______ _____ _____    ______ ____

>  <TORSDO>
F 10

$$$$
=
 OpenBabel10262419123D

 34 37  0  0  1  0  0  0  0  0999 V2000
  184.3980  178.6830  145.1390 C   0  0  0  0  0  0  0  0  0  0  0  0
  186.6910  177.9090  144.6450 C   0  0  0  0  0  0  0  0  0  0  0  0
  185.0280  178.2540  142.8170 C   0  0  0  0  0  0  0  0  0  0  0  0
  186.2210  178.9150  146.8360 C   0  0  0  0  0  2  0  0  0  0  0  0
  187.0340  178.1020  145.9870 O   0  0  0  0  0  0  0  0  0  0  0  0
  187.1790  177.1540  142.4530 O   0  0  0  0  0  0  0  0  0  0  0  0
  185.3530  178.3040  144.1830 C   0  0  0  0  0  0  0  0  0  0  0  0
  184.7320  178.6360  146.6030 C   0  0  0  0  0  2  0  0  0  0  0  0
  183.7260  178.6090  142.4050 C   0  0  0  0  0  0  0  0  0  0  0  0
  183.1000  178.9900  144.7290 C   0  0  0  0  0  3  0  0  0  0  0  0
  187.5360  177.3300  143.7970 C   0  0  0  0  0  3  0  0  0  0  0  0
  186.1070  177.8760  141.8250 C   0  0  2  0  0  3  0  0  0  0  0  0
  182.7670  178.9560  143.3720 C   0  0  0  0  0  3  0  0  0  0  0  0
  183.6050  177.1560  140.4270 C   0  0  0  0  0  1  0  0  0  0  0  0
  183.3370  178.5650  140.9510 C   0  0  1  0  0  3  0  0  0  0  0  0
  181.8790  179.0400  140.7030 C   0  0  1  0  0  3  0  0  0  0  0  0
  181.7280  179.7780  139.3500 C   0  0  1  0  0  3  0  0  0  0  0  0
  180.8630  180.8690  139.4620 O   0  0  0  0  0  1  0  0  0  0  0  0
  183.0540  180.2800  138.8090 C   0  0  0  0  0  1  0  0  0  0  0  0
  180.1670  177.3320  139.2630 S   0  0  0  0  0  1  0  0  0  0  0  0
  179.8590  178.2010  141.7510 O   0  0  0  0  0  1  0  0  0  0  0  0
  180.8750  177.8760  140.8520 C   0  0  2  0  0  3  0  0  0  0  0  0
  186.6100  179.0350  141.2230 O   0  0  0  0  0  0  0  0  0  0  0  0
  187.5730  178.5850  140.3140 C   0  0  0  0  0  2  0  0  0  0  0  0
  186.9190  178.2510  138.9880 C   0  0  0  0  0  2  0  0  0  0  0  0
  187.9120  178.4620  137.8660 C   0  0  0  0  0  2  0  0  0  0  0  0
  189.3260  178.3920  138.4030 C   0  0  0  0  0  2  0  0  0  0  0  0
  190.7210  176.0150  139.4530 O   0  0  0  0  0  1  0  0  0  0  0  0
  190.0730  177.3850  137.6640 N   0  0  0  0  0  0  0  0  0  0  0  0
  189.8710  176.0960  138.3460 C   0  0  1  0  0  3  0  0  0  0  0  0
  190.9740  175.2600  136.2250 C   0  0  0  0  0  2  0  0  0  0  0  0
  190.3120  176.3880  135.4250 C   0  0  0  0  0  2  0  0  0  0  0  0
  189.4980  177.3300  136.3190 C   0  0  0  0  0  2  0  0  0  0  0  0
  190.1210  174.8810  137.4320 C   0  0  0  0  0  2  0  0  0  0  0  0
  1  8  1  0  0  0  0
  2  5  1  0  0  0  0
  3  7  1  0  0  0  0
  5  4  1  0  0  0  0
  6 11  1  0  0  0  0
  7  2  1  0  0  0  0
  7  1  2  0  0  0  0
  8  4  1  0  0  0  0
  9  3  2  0  0  0  0
  9 13  1  0  0  0  0
 10  1  1  0  0  0  0
 11  2  2  0  0  0  0
 12 23  1  1  0  0  0
 12  6  1  0  0  0  0
 12  3  1  0  0  0  0
 13 10  2  0  0  0  0
 15 14  1  1  0  0  0
 15  9  1  0  0  0  0
 16 17  1  6  0  0  0
 16 22  1  0  0  0  0
 16 15  1  0  0  0  0
 17 19  1  1  0  0  0
 17 18  1  0  0  0  0
 22 20  1  6  0  0  0
 22 21  1  0  0  0  0
 24 23  1  0  0  0  0
 25 24  1  0  0  0  0
 26 27  1  0  0  0  0
 26 25  1  0  0  0  0
 29 30  1  0  0  0  0
 29 27  1  0  0  0  0
 30 28  1  1  0  0  0
 31 34  1  0  0  0  0
 32 31  1  0  0  0  0
 32 33  1  0  0  0  0
 33 29  1  0  0  0  0
 34 30  1  0  0  0  0
M  END
>  <MODEL>
9

>  <REMARK>
 VINA RESULT:      -6.4      2.208      3.467
  Name = 
  10 active torsions:
  status: ('A' for Active; 'I' for Inactive)
    1  A    between atoms: C_3  and  N_13
    2  A    between atoms: C_3  and  C_17
    3  A    between atoms: O_5  and  C_18
    4  A    between atoms: O_5  and  C_31
    5  A    between atoms: C_7  and  C_23
    6  A    between atoms: C_17  and  C_29
    7  A    between atoms: C_18  and  C_29
    8  A    between atoms: C_21  and  C_28
    9  A    between atoms: C_23  and  C_27
   10  A    between atoms: C_23  and  C_28
                            x       y       z     vdW  Elec       q    Type
                         _______ _______ _______ _____ _____    ______ ____

>  <TORSDO>
F 10

$$$$
