=
 OpenBabel10262420593D

 28 30  0  0  1  0  0  0  0  0999 V2000
  190.7100  178.0870  142.8310 C   0  0  0  0  0  2  0  0  0  0  0  0
  191.7650  178.0930  143.9420 C   0  0  0  0  0  2  0  0  0  0  0  0
  191.3670  177.3170  145.2140 C   0  0  1  0  0  3  0  0  0  0  0  0
  189.0650  178.6100  145.1460 C   0  0  0  0  0  2  0  0  0  0  0  0
  188.2320  177.8620  144.0870 C   0  0  1  0  0  3  0  0  0  0  0  0
  190.1030  177.8180  145.9550 C   0  0  1  0  0  3  0  0  0  0  0  0
  188.8330  176.6030  143.3940 C   0  0  1  0  0  3  0  0  0  0  0  0
  188.8530  176.6920  141.9140 C   0  0  2  0  0  3  0  0  0  0  0  0
  190.1320  176.7490  142.6700 N   0  0  1  0  0  0  0  0  0  0  0  0
  189.0760  177.4280  148.0790 O   0  0  0  0  0  1  0  0  0  0  0  0
  189.4770  176.8010  146.8990 C   0  0  0  0  0  2  0  0  0  0  0  0
  192.2160  175.3950  145.9280 C   0  0  0  0  0  1  0  0  0  0  0  0
  191.3410  175.9360  144.9840 O   0  0  0  0  0  0  0  0  0  0  0  0
  186.7570  177.7160  144.4870 C   0  0  1  0  0  3  0  0  0  0  0  0
  185.9430  177.0060  146.4200 C   0  0  0  0  0  1  0  0  0  0  0  0
  186.5640  178.1010  145.8170 O   0  0  0  0  0  0  0  0  0  0  0  0
  185.8070  178.4500  143.5840 C   0  0  0  0  0  0  0  0  0  0  0  0
  185.5680  177.9380  142.3700 C   0  0  0  0  0  3  0  0  0  0  0  0
  184.6660  178.5880  141.3690 C   0  0  0  0  0  2  0  0  0  0  0  0
  185.3950  179.5040  140.6140 O   0  0  0  0  0  1  0  0  0  0  0  0
  185.1790  179.7390  144.0400 C   0  0  0  0  0  2  0  0  0  0  0  0
  183.6940  179.5500  144.2880 C   0  0  0  0  0  2  0  0  0  0  0  0
  183.4910  179.1420  145.6050 O   0  0  0  0  0  1  0  0  0  0  0  0
  188.4200  178.0270  141.2850 C   0  0  0  0  0  2  0  0  0  0  0  0
  188.1900  177.8480  139.9220 O   0  0  0  0  0  0  0  0  0  0  0  0
  189.3600  178.2890  139.3060 C   0  0  0  0  0  3  0  0  0  0  0  0
  189.0820  178.5530  137.8400 C   0  0  0  0  0  2  0  0  0  0  0  0
  189.7820  177.2780  138.2590 C   0  0  0  0  0  2  0  0  0  0  0  0
  1  2  1  0  0  0  0
  2  3  1  0  0  0  0
  3 13  1  6  0  0  0
  3  6  1  0  0  0  0
  4  6  1  0  0  0  0
  5 14  1  1  0  0  0
  5  4  1  0  0  0  0
  6 11  1  6  0  0  0
  7  5  1  0  0  0  0
  8  9  1  0  0  0  0
  8  7  1  0  0  0  0
  9  1  1  0  0  0  0
  9  7  1  0  0  0  0
 11 10  1  0  0  0  0
 13 12  1  0  0  0  0
 14 16  1  0  0  0  0
 16 15  1  0  0  0  0
 17 21  1  0  0  0  0
 17 14  1  0  0  0  0
 18 17  2  0  0  0  0
 19 18  1  0  0  0  0
 20 19  1  0  0  0  0
 21 22  1  0  0  0  0
 22 23  1  0  0  0  0
 24  8  1  0  0  0  0
 25 24  1  0  0  0  0
 26 25  1  0  0  0  0
 27 28  1  0  0  0  0
 27 26  1  0  0  0  0
 28 26  1  0  0  0  0
M  END
>  <MODEL>
1

>  <REMARK>
 VINA RESULT:      -5.9      0.000      0.000
  Name = 
  11 active torsions:
  status: ('A' for Active; 'I' for Inactive)
    1  A    between atoms: C_3  and  O_28
    2  A    between atoms: C_5  and  O_21
    3  A    between atoms: C_9  and  C_13
    4  A    between atoms: C_9  and  C_14
    5  A    between atoms: C_10  and  C_13
    6  A    between atoms: C_11  and  C_22
    7  A    between atoms: C_12  and  C_15
    8  A    between atoms: C_13  and  O_24
    9  A    between atoms: C_14  and  C_18
   10  A    between atoms: C_16  and  C_20
   11  A    between atoms: C_16  and  O_21
                            x       y       z     vdW  Elec       q    Type
                         _______ _______ _______ _____ _____    ______ ____

>  <TORSDO>
F 11

$$$$
=
 OpenBabel10262420593D

 28 30  0  0  1  0  0  0  0  0999 V2000
  187.5170  178.5740  142.4050 C   0  0  0  0  0  2  0  0  0  0  0  0
  188.1520  179.0400  141.0900 C   0  0  0  0  0  2  0  0  0  0  0  0
  189.3260  178.1700  140.5970 C   0  0  1  0  0  3  0  0  0  0  0  0
  190.3250  178.3320  143.0360 C   0  0  0  0  0  2  0  0  0  0  0  0
  189.5270  177.2940  143.8500 C   0  0  1  0  0  3  0  0  0  0  0  0
  190.5500  178.0720  141.5390 C   0  0  1  0  0  3  0  0  0  0  0  0
  188.4560  176.4220  143.1320 C   0  0  1  0  0  3  0  0  0  0  0  0
  187.1090  176.5080  143.7480 C   0  0  2  0  0  3  0  0  0  0  0  0
  187.3460  177.1170  142.4120 N   0  0  1  0  0  0  0  0  0  0  0  0
  192.5450  177.2840  140.4810 O   0  0  0  0  0  1  0  0  0  0  0  0
  191.4640  176.8850  141.2680 C   0  0  0  0  0  2  0  0  0  0  0  0
  188.5660  177.0920  138.8110 C   0  0  0  0  0  1  0  0  0  0  0  0
  188.8830  176.9150  140.1590 O   0  0  0  0  0  0  0  0  0  0  0  0
  190.4040  176.5210  144.8460 C   0  0  1  0  0  3  0  0  0  0  0  0
  191.9480  175.0930  144.1550 C   0  0  0  0  0  1  0  0  0  0  0  0
  191.7250  176.4500  144.3920 O   0  0  0  0  0  0  0  0  0  0  0  0
  190.3580  177.0650  146.2460 C   0  0  0  0  0  0  0  0  0  0  0  0
  189.1770  177.4840  146.7210 C   0  0  0  0  0  3  0  0  0  0  0  0
  189.0060  178.0720  148.0860 C   0  0  0  0  0  2  0  0  0  0  0  0
  187.6570  178.3340  148.3120 O   0  0  0  0  0  1  0  0  0  0  0  0
  191.6200  177.1570  147.0590 C   0  0  0  0  0  2  0  0  0  0  0  0
  191.9550  175.8110  147.6760 C   0  0  0  0  0  2  0  0  0  0  0  0
  193.0780  175.9410  148.4900 O   0  0  0  0  0  1  0  0  0  0  0  0
  186.9240  177.5220  144.8900 C   0  0  0  0  0  2  0  0  0  0  0  0
  185.5960  177.5060  145.3160 O   0  0  0  0  0  0  0  0  0  0  0  0
  185.2000  178.8430  145.2820 C   0  0  0  0  0  3  0  0  0  0  0  0
  183.6870  178.9140  145.3220 C   0  0  0  0  0  2  0  0  0  0  0  0
  184.4180  179.0950  144.0090 C   0  0  0  0  0  2  0  0  0  0  0  0
  1  9  1  0  0  0  0
  2  1  1  0  0  0  0
  3 13  1  1  0  0  0
  3  2  1  0  0  0  0
  3  6  1  0  0  0  0
  4  5  1  0  0  0  0
  5 14  1  6  0  0  0
  6 11  1  1  0  0  0
  6  4  1  0  0  0  0
  7  8  1  0  0  0  0
  7  5  1  0  0  0  0
  8 24  1  0  0  0  0
  9  7  1  0  0  0  0
  9  8  1  0  0  0  0
 10 11  1  0  0  0  0
 12 13  1  0  0  0  0
 14 17  1  0  0  0  0
 15 16  1  0  0  0  0
 16 14  1  0  0  0  0
 17 18  2  0  0  0  0
 17 21  1  0  0  0  0
 18 19  1  0  0  0  0
 19 20  1  0  0  0  0
 21 22  1  0  0  0  0
 22 23  1  0  0  0  0
 24 25  1  0  0  0  0
 26 25  1  0  0  0  0
 26 27  1  0  0  0  0
 28 26  1  0  0  0  0
 28 27  1  0  0  0  0
M  END
>  <MODEL>
2

>  <REMARK>
 VINA RESULT:      -5.8      1.765      6.278
  Name = 
  11 active torsions:
  status: ('A' for Active; 'I' for Inactive)
    1  A    between atoms: C_3  and  O_28
    2  A    between atoms: C_5  and  O_21
    3  A    between atoms: C_9  and  C_13
    4  A    between atoms: C_9  and  C_14
    5  A    between atoms: C_10  and  C_13
    6  A    between atoms: C_11  and  C_22
    7  A    between atoms: C_12  and  C_15
    8  A    between atoms: C_13  and  O_24
    9  A    between atoms: C_14  and  C_18
   10  A    between atoms: C_16  and  C_20
   11  A    between atoms: C_16  and  O_21
                            x       y       z     vdW  Elec       q    Type
                         _______ _______ _______ _____ _____    ______ ____

>  <TORSDO>
F 11

$$$$
=
 OpenBabel10262420593D

 28 30  0  0  1  0  0  0  0  0999 V2000
  186.2260  179.0150  144.4620 C   0  0  0  0  0  2  0  0  0  0  0  0
  185.1490  179.7880  143.6920 C   0  0  0  0  0  2  0  0  0  0  0  0
  184.8430  179.2380  142.2840 C   0  0  1  0  0  3  0  0  0  0  0  0
  187.4480  179.2070  141.8530 C   0  0  0  0  0  2  0  0  0  0  0  0
  187.9420  177.9270  142.5540 C   0  0  1  0  0  3  0  0  0  0  0  0
  186.0230  179.2270  141.2820 C   0  0  1  0  0  3  0  0  0  0  0  0
  186.9080  176.9910  143.2470 C   0  0  1  0  0  3  0  0  0  0  0  0
  187.2070  176.7290  144.6760 C   0  0  2  0  0  3  0  0  0  0  0  0
  186.0350  177.5690  144.3130 N   0  0  1  0  0  0  0  0  0  0  0  0
  186.5640  178.7540  139.0010 O   0  0  0  0  0  1  0  0  0  0  0  0
  185.8390  178.2870  140.0980 C   0  0  0  0  0  2  0  0  0  0  0  0
  182.8460  178.3230  142.5990 C   0  0  0  0  0  1  0  0  0  0  0  0
  184.1820  178.0050  142.3490 O   0  0  0  0  0  0  0  0  0  0  0  0
  189.0200  177.1880  141.7500 C   0  0  1  0  0  3  0  0  0  0  0  0
  189.4990  176.7940  139.6240 C   0  0  0  0  0  1  0  0  0  0  0  0
  189.2530  177.8280  140.5280 O   0  0  0  0  0  0  0  0  0  0  0  0
  190.3100  176.9940  142.4950 C   0  0  0  0  0  0  0  0  0  0  0  0
  190.5000  175.8310  143.1330 C   0  0  0  0  0  3  0  0  0  0  0  0
  191.7270  175.5280  143.9340 C   0  0  0  0  0  2  0  0  0  0  0  0
  191.6050  176.0940  145.2010 O   0  0  0  0  0  1  0  0  0  0  0  0
  191.3290  178.0990  142.5370 C   0  0  0  0  0  2  0  0  0  0  0  0
  190.9940  179.0910  143.6370 C   0  0  0  0  0  2  0  0  0  0  0  0
  192.1400  179.3580  144.3840 O   0  0  0  0  0  1  0  0  0  0  0  0
  188.3800  177.5020  145.3000 C   0  0  0  0  0  2  0  0  0  0  0  0
  188.6050  177.0420  146.5970 O   0  0  0  0  0  0  0  0  0  0  0  0
  188.6260  178.1950  147.3810 C   0  0  0  0  0  3  0  0  0  0  0  0
  188.2990  177.8280  148.8140 C   0  0  0  0  0  2  0  0  0  0  0  0
  187.2360  178.4460  147.9310 C   0  0  0  0  0  2  0  0  0  0  0  0
  2  1  1  0  0  0  0
  3 13  1  1  0  0  0
  3  2  1  0  0  0  0
  4  5  1  0  0  0  0
  5 14  1  6  0  0  0
  5  7  1  0  0  0  0
  6 11  1  6  0  0  0
  6  4  1  0  0  0  0
  6  3  1  0  0  0  0
  7  9  1  0  0  0  0
  7  8  1  0  0  0  0
  8 24  1  0  0  0  0
  9  1  1  0  0  0  0
  9  8  1  0  0  0  0
 10 11  1  0  0  0  0
 13 12  1  0  0  0  0
 14 17  1  0  0  0  0
 15 16  1  0  0  0  0
 16 14  1  0  0  0  0
 17 21  1  0  0  0  0
 17 18  2  0  0  0  0
 18 19  1  0  0  0  0
 19 20  1  0  0  0  0
 21 22  1  0  0  0  0
 22 23  1  0  0  0  0
 24 25  1  0  0  0  0
 25 26  1  0  0  0  0
 26 28  1  0  0  0  0
 26 27  1  0  0  0  0
 28 27  1  0  0  0  0
M  END
>  <MODEL>
3

>  <REMARK>
 VINA RESULT:      -5.8      1.883      6.967
  Name = 
  11 active torsions:
  status: ('A' for Active; 'I' for Inactive)
    1  A    between atoms: C_3  and  O_28
    2  A    between atoms: C_5  and  O_21
    3  A    between atoms: C_9  and  C_13
    4  A    between atoms: C_9  and  C_14
    5  A    between atoms: C_10  and  C_13
    6  A    between atoms: C_11  and  C_22
    7  A    between atoms: C_12  and  C_15
    8  A    between atoms: C_13  and  O_24
    9  A    between atoms: C_14  and  C_18
   10  A    between atoms: C_16  and  C_20
   11  A    between atoms: C_16  and  O_21
                            x       y       z     vdW  Elec       q    Type
                         _______ _______ _______ _____ _____    ______ ____

>  <TORSDO>
F 11

$$$$
=
 OpenBabel10262420593D

 28 30  0  0  1  0  0  0  0  0999 V2000
  191.2570  176.3540  144.0030 C   0  0  0  0  0  2  0  0  0  0  0  0
  191.4010  175.7960  142.5830 C   0  0  0  0  0  2  0  0  0  0  0  0
  190.5550  176.5210  141.5160 C   0  0  1  0  0  3  0  0  0  0  0  0
  188.4970  176.2930  143.1550 C   0  0  0  0  0  2  0  0  0  0  0  0
  188.6910  177.4280  144.1800 C   0  0  1  0  0  3  0  0  0  0  0  0
  189.0210  176.4990  141.7270 C   0  0  1  0  0  3  0  0  0  0  0  0
  189.8970  178.4010  144.0210 C   0  0  1  0  0  3  0  0  0  0  0  0
  190.7630  178.4770  145.2220 C   0  0  2  0  0  3  0  0  0  0  0  0
  191.2730  177.8210  143.9900 N   0  0  1  0  0  0  0  0  0  0  0  0
  188.4030  177.3660  139.5860 O   0  0  0  0  0  1  0  0  0  0  0  0
  188.2620  177.5720  140.9590 C   0  0  0  0  0  2  0  0  0  0  0  0
  192.1700  177.6180  140.4610 C   0  0  0  0  0  1  0  0  0  0  0  0
  191.0440  177.8090  141.2640 O   0  0  0  0  0  0  0  0  0  0  0  0
  187.3730  178.1170  144.5600 C   0  0  1  0  0  3  0  0  0  0  0  0
  185.7660  178.6020  143.1160 C   0  0  0  0  0  1  0  0  0  0  0  0
  186.3000  177.5520  143.8620 O   0  0  0  0  0  0  0  0  0  0  0  0
  187.0930  178.1250  146.0360 C   0  0  0  0  0  0  0  0  0  0  0  0
  187.7680  177.2640  146.8100 C   0  0  0  0  0  3  0  0  0  0  0  0
  187.5600  177.1530  148.2870 C   0  0  0  0  0  2  0  0  0  0  0  0
  188.3750  178.0740  148.9400 O   0  0  0  0  0  1  0  0  0  0  0  0
  186.0590  179.0590  146.6010 C   0  0  0  0  0  2  0  0  0  0  0  0
  184.7080  178.3720  146.6820 C   0  0  0  0  0  2  0  0  0  0  0  0
  183.7890  179.0620  145.8960 O   0  0  0  0  0  1  0  0  0  0  0  0
  190.4460  177.5120  146.3770 C   0  0  0  0  0  2  0  0  0  0  0  0
  191.5570  177.4040  147.2140 O   0  0  0  0  0  0  0  0  0  0  0  0
  191.5110  176.0950  147.6920 C   0  0  0  0  0  3  0  0  0  0  0  0
  192.8390  175.7560  148.3390 C   0  0  0  0  0  2  0  0  0  0  0  0
  192.5290  175.2580  146.9440 C   0  0  0  0  0  2  0  0  0  0  0  0
  2  1  1  0  0  0  0
  3 13  1  1  0  0  0
  3  6  1  0  0  0  0
  3  2  1  0  0  0  0
  4  5  1  0  0  0  0
  5 14  1  6  0  0  0
  6 11  1  1  0  0  0
  6  4  1  0  0  0  0
  7  5  1  0  0  0  0
  7  8  1  0  0  0  0
  8 24  1  0  0  0  0
  9  1  1  0  0  0  0
  9  7  1  0  0  0  0
  9  8  1  0  0  0  0
 10 11  1  0  0  0  0
 12 13  1  0  0  0  0
 14 17  1  0  0  0  0
 15 16  1  0  0  0  0
 16 14  1  0  0  0  0
 17 21  1  0  0  0  0
 17 18  2  0  0  0  0
 18 19  1  0  0  0  0
 19 20  1  0  0  0  0
 21 22  1  0  0  0  0
 23 22  1  0  0  0  0
 24 25  1  0  0  0  0
 25 26  1  0  0  0  0
 26 27  1  0  0  0  0
 28 26  1  0  0  0  0
 28 27  1  0  0  0  0
M  END
>  <MODEL>
4

>  <REMARK>
 VINA RESULT:      -5.8      1.782      5.498
  Name = 
  11 active torsions:
  status: ('A' for Active; 'I' for Inactive)
    1  A    between atoms: C_3  and  O_28
    2  A    between atoms: C_5  and  O_21
    3  A    between atoms: C_9  and  C_13
    4  A    between atoms: C_9  and  C_14
    5  A    between atoms: C_10  and  C_13
    6  A    between atoms: C_11  and  C_22
    7  A    between atoms: C_12  and  C_15
    8  A    between atoms: C_13  and  O_24
    9  A    between atoms: C_14  and  C_18
   10  A    between atoms: C_16  and  C_20
   11  A    between atoms: C_16  and  O_21
                            x       y       z     vdW  Elec       q    Type
                         _______ _______ _______ _____ _____    ______ ____

>  <TORSDO>
F 11

$$$$
=
 OpenBabel10262420593D

 28 30  0  0  1  0  0  0  0  0999 V2000
  186.6870  177.3930  143.0750 C   0  0  0  0  0  2  0  0  0  0  0  0
  187.1350  176.6830  144.3570 C   0  0  0  0  0  2  0  0  0  0  0  0
  188.6360  176.8220  144.6810 C   0  0  1  0  0  3  0  0  0  0  0  0
  189.1240  176.1280  142.1800 C   0  0  0  0  0  2  0  0  0  0  0  0
  188.8900  177.4170  141.3680 C   0  0  1  0  0  3  0  0  0  0  0  0
  189.6190  176.2540  143.6280 C   0  0  1  0  0  3  0  0  0  0  0  0
  188.5120  178.7290  142.1150 C   0  0  1  0  0  3  0  0  0  0  0  0
  187.2540  179.3480  141.6290 C   0  0  2  0  0  3  0  0  0  0  0  0
  187.2930  178.7250  142.9780 N   0  0  1  0  0  0  0  0  0  0  0  0
  191.9350  175.7470  143.9450 O   0  0  0  0  0  1  0  0  0  0  0  0
  191.0380  176.7960  143.7310 C   0  0  0  0  0  2  0  0  0  0  0  0
  188.9650  178.1060  146.4610 C   0  0  0  0  0  1  0  0  0  0  0  0
  188.9580  178.1300  145.0650 O   0  0  0  0  0  0  0  0  0  0  0  0
  189.9200  177.6050  140.2450 C   0  0  1  0  0  3  0  0  0  0  0  0
  192.1250  177.4060  140.2470 C   0  0  0  0  0  1  0  0  0  0  0  0
  190.9490  176.6640  140.3530 O   0  0  0  0  0  0  0  0  0  0  0  0
  189.3270  177.5790  138.8650 C   0  0  0  0  0  0  0  0  0  0  0  0
  189.1910  178.7440  138.2160 C   0  0  0  0  0  3  0  0  0  0  0  0
  188.5880  178.8560  136.8520 C   0  0  0  0  0  2  0  0  0  0  0  0
  187.2330  179.1570  136.9660 O   0  0  0  0  0  1  0  0  0  0  0  0
  188.8770  176.2770  138.2630 C   0  0  0  0  0  2  0  0  0  0  0  0
  189.9420  175.7230  137.3350 C   0  0  0  0  0  2  0  0  0  0  0  0
  190.5550  174.6250  137.9350 O   0  0  0  0  0  1  0  0  0  0  0  0
  186.4450  178.5630  140.5840 C   0  0  0  0  0  2  0  0  0  0  0  0
  185.3660  179.3360  140.1530 O   0  0  0  0  0  0  0  0  0  0  0  0
  184.3940  178.4070  139.7820 C   0  0  0  0  0  3  0  0  0  0  0  0
  183.0240  179.0370  139.9250 C   0  0  0  0  0  2  0  0  0  0  0  0
  183.5320  178.0840  140.9850 C   0  0  0  0  0  2  0  0  0  0  0  0
  1  2  1  0  0  0  0
  2  3  1  0  0  0  0
  3 13  1  6  0  0  0
  4  6  1  0  0  0  0
  5 14  1  1  0  0  0
  5  7  1  0  0  0  0
  5  4  1  0  0  0  0
  6 11  1  6  0  0  0
  6  3  1  0  0  0  0
  7  9  1  0  0  0  0
  8  7  1  0  0  0  0
  8  9  1  0  0  0  0
  9  1  1  0  0  0  0
 11 10  1  0  0  0  0
 13 12  1  0  0  0  0
 14 16  1  0  0  0  0
 15 16  1  0  0  0  0
 17 14  1  0  0  0  0
 18 17  2  0  0  0  0
 19 20  1  0  0  0  0
 19 18  1  0  0  0  0
 21 17  1  0  0  0  0
 22 23  1  0  0  0  0
 22 21  1  0  0  0  0
 24  8  1  0  0  0  0
 25 24  1  0  0  0  0
 26 27  1  0  0  0  0
 26 25  1  0  0  0  0
 26 28  1  0  0  0  0
 27 28  1  0  0  0  0
M  END
>  <MODEL>
5

>  <REMARK>
 VINA RESULT:      -5.5      2.164      5.574
  Name = 
  11 active torsions:
  status: ('A' for Active; 'I' for Inactive)
    1  A    between atoms: C_3  and  O_28
    2  A    between atoms: C_5  and  O_21
    3  A    between atoms: C_9  and  C_13
    4  A    between atoms: C_9  and  C_14
    5  A    between atoms: C_10  and  C_13
    6  A    between atoms: C_11  and  C_22
    7  A    between atoms: C_12  and  C_15
    8  A    between atoms: C_13  and  O_24
    9  A    between atoms: C_14  and  C_18
   10  A    between atoms: C_16  and  C_20
   11  A    between atoms: C_16  and  O_21
                            x       y       z     vdW  Elec       q    Type
                         _______ _______ _______ _____ _____    ______ ____

>  <TORSDO>
F 11

$$$$
=
 OpenBabel10262420593D

 28 30  0  0  1  0  0  0  0  0999 V2000
  186.0990  179.0870  144.7490 C   0  0  0  0  0  2  0  0  0  0  0  0
  184.9530  179.8790  144.1110 C   0  0  0  0  0  2  0  0  0  0  0  0
  184.4920  179.3540  142.7370 C   0  0  1  0  0  3  0  0  0  0  0  0
  187.0360  179.3120  142.0270 C   0  0  0  0  0  2  0  0  0  0  0  0
  187.5910  178.0170  142.6520 C   0  0  1  0  0  3  0  0  0  0  0  0
  185.5580  179.3510  141.6130 C   0  0  1  0  0  3  0  0  0  0  0  0
  186.6290  177.0780  143.4380 C   0  0  1  0  0  3  0  0  0  0  0  0
  187.0780  176.7910  144.8220 C   0  0  2  0  0  3  0  0  0  0  0  0
  185.8810  177.6450  144.6000 N   0  0  1  0  0  0  0  0  0  0  0  0
  185.7920  178.9440  139.2680 O   0  0  0  0  0  1  0  0  0  0  0  0
  185.2400  178.4300  140.4420 C   0  0  0  0  0  2  0  0  0  0  0  0
  182.5560  178.4420  143.3240 C   0  0  0  0  0  1  0  0  0  0  0  0
  183.8320  178.1240  142.8540 O   0  0  0  0  0  0  0  0  0  0  0  0
  188.5700  177.2840  141.7250 C   0  0  1  0  0  3  0  0  0  0  0  0
  188.7560  176.9740  139.5410 C   0  0  0  0  0  1  0  0  0  0  0  0
  188.7180  177.9710  140.5160 O   0  0  0  0  0  0  0  0  0  0  0  0
  189.9120  177.0180  142.3460 C   0  0  0  0  0  0  0  0  0  0  0  0
  190.0970  175.8480  142.9720 C   0  0  0  0  0  3  0  0  0  0  0  0
  191.3750  175.4770  143.6550 C   0  0  0  0  0  2  0  0  0  0  0  0
  191.4650  176.1520  144.8700 O   0  0  0  0  0  1  0  0  0  0  0  0
  190.9920  178.0630  142.2810 C   0  0  0  0  0  2  0  0  0  0  0  0
  192.2070  177.5300  141.5460 C   0  0  0  0  0  2  0  0  0  0  0  0
  191.9930  177.6150  140.1720 O   0  0  0  0  0  1  0  0  0  0  0  0
  188.3180  177.5470  145.3280 C   0  0  0  0  0  2  0  0  0  0  0  0
  188.6650  177.0780  146.5950 O   0  0  0  0  0  0  0  0  0  0  0  0
  188.7580  178.2260  147.3810 C   0  0  0  0  0  3  0  0  0  0  0  0
  188.5310  177.8550  148.8330 C   0  0  0  0  0  2  0  0  0  0  0  0
  187.4150  178.4910  148.0320 C   0  0  0  0  0  2  0  0  0  0  0  0
  2  1  1  0  0  0  0
  3 13  1  1  0  0  0
  3  2  1  0  0  0  0
  4  5  1  0  0  0  0
  5 14  1  6  0  0  0
  5  7  1  0  0  0  0
  6 11  1  6  0  0  0
  6  4  1  0  0  0  0
  6  3  1  0  0  0  0
  7  9  1  0  0  0  0
  7  8  1  0  0  0  0
  8 24  1  0  0  0  0
  9  1  1  0  0  0  0
  9  8  1  0  0  0  0
 10 11  1  0  0  0  0
 13 12  1  0  0  0  0
 14 17  1  0  0  0  0
 15 16  1  0  0  0  0
 16 14  1  0  0  0  0
 17 18  2  0  0  0  0
 18 19  1  0  0  0  0
 19 20  1  0  0  0  0
 21 17  1  0  0  0  0
 22 21  1  0  0  0  0
 23 22  1  0  0  0  0
 24 25  1  0  0  0  0
 25 26  1  0  0  0  0
 26 28  1  0  0  0  0
 26 27  1  0  0  0  0
 28 27  1  0  0  0  0
M  END
>  <MODEL>
6

>  <REMARK>
 VINA RESULT:      -5.3      1.935      7.096
  Name = 
  11 active torsions:
  status: ('A' for Active; 'I' for Inactive)
    1  A    between atoms: C_3  and  O_28
    2  A    between atoms: C_5  and  O_21
    3  A    between atoms: C_9  and  C_13
    4  A    between atoms: C_9  and  C_14
    5  A    between atoms: C_10  and  C_13
    6  A    between atoms: C_11  and  C_22
    7  A    between atoms: C_12  and  C_15
    8  A    between atoms: C_13  and  O_24
    9  A    between atoms: C_14  and  C_18
   10  A    between atoms: C_16  and  C_20
   11  A    between atoms: C_16  and  O_21
                            x       y       z     vdW  Elec       q    Type
                         _______ _______ _______ _____ _____    ______ ____

>  <TORSDO>
F 11

$$$$
=
 OpenBabel10262420593D

 28 30  0  0  1  0  0  0  0  0999 V2000
  188.3190  176.6890  142.8500 C   0  0  0  0  0  2  0  0  0  0  0  0
  189.6850  176.0450  143.1120 C   0  0  0  0  0  2  0  0  0  0  0  0
  190.8470  176.6400  142.2900 C   0  0  1  0  0  3  0  0  0  0  0  0
  189.3130  176.3960  140.1540 C   0  0  0  0  0  2  0  0  0  0  0  0
  188.3630  177.6080  140.2190 C   0  0  1  0  0  3  0  0  0  0  0  0
  190.7210  176.5350  140.7510 C   0  0  1  0  0  3  0  0  0  0  0  0
  188.5250  178.6420  141.3720 C   0  0  1  0  0  3  0  0  0  0  0  0
  187.2860  178.8550  142.1590 C   0  0  2  0  0  3  0  0  0  0  0  0
  188.4370  178.1490  142.7800 N   0  0  1  0  0  0  0  0  0  0  0  0
  192.1950  176.8480  138.8930 O   0  0  0  0  0  1  0  0  0  0  0  0
  191.6050  177.5030  139.9760 C   0  0  0  0  0  2  0  0  0  0  0  0
  191.6810  177.7780  144.0030 C   0  0  0  0  0  1  0  0  0  0  0  0
  191.1630  177.9360  142.7160 O   0  0  0  0  0  0  0  0  0  0  0  0
  188.1080  178.2360  138.8420 C   0  0  1  0  0  3  0  0  0  0  0  0
  189.0570  179.3790  137.1990 C   0  0  0  0  0  1  0  0  0  0  0  0
  189.3040  178.3670  138.1280 O   0  0  0  0  0  0  0  0  0  0  0  0
  187.0830  177.5060  138.0210 C   0  0  0  0  0  0  0  0  0  0  0  0
  187.3350  176.2340  137.6840 C   0  0  0  0  0  3  0  0  0  0  0  0
  186.4100  175.4100  136.8460 C   0  0  0  0  0  2  0  0  0  0  0  0
  186.8420  175.4280  135.5230 O   0  0  0  0  0  1  0  0  0  0  0  0
  185.8350  178.2140  137.5730 C   0  0  0  0  0  2  0  0  0  0  0  0
  184.8830  178.4050  138.7390 C   0  0  0  0  0  2  0  0  0  0  0  0
  184.8480  179.7530  139.0930 O   0  0  0  0  0  1  0  0  0  0  0  0
  186.0840  177.9530  141.8310 C   0  0  0  0  0  2  0  0  0  0  0  0
  184.9040  178.5890  142.2170 O   0  0  0  0  0  0  0  0  0  0  0  0
  184.7470  178.2530  143.5610 C   0  0  0  0  0  3  0  0  0  0  0  0
  183.3510  178.6350  144.0100 C   0  0  0  0  0  2  0  0  0  0  0  0
  184.5280  179.5170  144.3660 C   0  0  0  0  0  2  0  0  0  0  0  0
  1  2  1  0  0  0  0
  3 13  1  6  0  0  0
  3  2  1  0  0  0  0
  4  5  1  0  0  0  0
  4  6  1  0  0  0  0
  5 14  1  6  0  0  0
  5  7  1  0  0  0  0
  6 11  1  6  0  0  0
  6  3  1  0  0  0  0
  7  8  1  0  0  0  0
  7  9  1  0  0  0  0
  8  9  1  0  0  0  0
  9  1  1  0  0  0  0
 10 11  1  0  0  0  0
 13 12  1  0  0  0  0
 15 16  1  0  0  0  0
 16 14  1  0  0  0  0
 17 14  1  0  0  0  0
 18 17  2  0  0  0  0
 19 18  1  0  0  0  0
 20 19  1  0  0  0  0
 21 17  1  0  0  0  0
 21 22  1  0  0  0  0
 22 23  1  0  0  0  0
 24  8  1  0  0  0  0
 24 25  1  0  0  0  0
 25 26  1  0  0  0  0
 26 27  1  0  0  0  0
 26 28  1  0  0  0  0
 27 28  1  0  0  0  0
M  END
>  <MODEL>
7

>  <REMARK>
 VINA RESULT:      -5.2      2.404      5.833
  Name = 
  11 active torsions:
  status: ('A' for Active; 'I' for Inactive)
    1  A    between atoms: C_3  and  O_28
    2  A    between atoms: C_5  and  O_21
    3  A    between atoms: C_9  and  C_13
    4  A    between atoms: C_9  and  C_14
    5  A    between atoms: C_10  and  C_13
    6  A    between atoms: C_11  and  C_22
    7  A    between atoms: C_12  and  C_15
    8  A    between atoms: C_13  and  O_24
    9  A    between atoms: C_14  and  C_18
   10  A    between atoms: C_16  and  C_20
   11  A    between atoms: C_16  and  O_21
                            x       y       z     vdW  Elec       q    Type
                         _______ _______ _______ _____ _____    ______ ____

>  <TORSDO>
F 11

$$$$
=
 OpenBabel10262420593D

 28 30  0  0  1  0  0  0  0  0999 V2000
  188.0910  176.7460  142.8170 C   0  0  0  0  0  2  0  0  0  0  0  0
  189.4530  176.1040  143.1020 C   0  0  0  0  0  2  0  0  0  0  0  0
  190.6240  176.6880  142.2880 C   0  0  1  0  0  3  0  0  0  0  0  0
  189.1150  176.4200  140.1370 C   0  0  0  0  0  2  0  0  0  0  0  0
  188.1670  177.6340  140.1760 C   0  0  1  0  0  3  0  0  0  0  0  0
  190.5160  176.5650  140.7480 C   0  0  1  0  0  3  0  0  0  0  0  0
  188.3160  178.6810  141.3190 C   0  0  1  0  0  3  0  0  0  0  0  0
  187.0670  178.9040  142.0890 C   0  0  2  0  0  3  0  0  0  0  0  0
  188.2110  178.2050  142.7320 N   0  0  1  0  0  0  0  0  0  0  0  0
  192.0520  176.8440  138.9360 O   0  0  0  0  0  1  0  0  0  0  0  0
  191.4110  177.5230  139.9730 C   0  0  0  0  0  2  0  0  0  0  0  0
  191.6650  177.8280  143.8830 C   0  0  0  0  0  1  0  0  0  0  0  0
  190.9370  177.9890  142.7020 O   0  0  0  0  0  0  0  0  0  0  0  0
  187.9290  178.2460  138.7890 C   0  0  1  0  0  3  0  0  0  0  0  0
  189.0580  179.3290  137.2220 C   0  0  0  0  0  1  0  0  0  0  0  0
  189.0890  178.1790  138.0120 O   0  0  0  0  0  0  0  0  0  0  0  0
  186.7660  177.6450  138.0500 C   0  0  0  0  0  0  0  0  0  0  0  0
  185.5700  178.2370  138.1690 C   0  0  0  0  0  3  0  0  0  0  0  0
  184.3310  177.7210  137.5090 C   0  0  0  0  0  2  0  0  0  0  0  0
  183.2890  177.6950  138.4330 O   0  0  0  0  0  1  0  0  0  0  0  0
  186.9570  176.3970  137.2330 C   0  0  0  0  0  2  0  0  0  0  0  0
  187.0870  176.7380  135.7600 C   0  0  0  0  0  2  0  0  0  0  0  0
  187.9680  175.8450  135.1530 O   0  0  0  0  0  1  0  0  0  0  0  0
  185.8690  177.9990  141.7570 C   0  0  0  0  0  2  0  0  0  0  0  0
  185.0580  177.8680  142.8840 O   0  0  0  0  0  0  0  0  0  0  0  0
  184.9220  179.1660  143.3740 C   0  0  0  0  0  3  0  0  0  0  0  0
  184.7650  179.1160  144.8800 C   0  0  0  0  0  2  0  0  0  0  0  0
  183.5510  179.3200  143.9990 C   0  0  0  0  0  2  0  0  0  0  0  0
  1  2  1  0  0  0  0
  3 13  1  6  0  0  0
  3  2  1  0  0  0  0
  4  5  1  0  0  0  0
  4  6  1  0  0  0  0
  5 14  1  6  0  0  0
  5  7  1  0  0  0  0
  6 11  1  6  0  0  0
  6  3  1  0  0  0  0
  7  8  1  0  0  0  0
  7  9  1  0  0  0  0
  8  9  1  0  0  0  0
  9  1  1  0  0  0  0
 10 11  1  0  0  0  0
 13 12  1  0  0  0  0
 15 16  1  0  0  0  0
 16 14  1  0  0  0  0
 17 18  2  0  0  0  0
 17 14  1  0  0  0  0
 19 18  1  0  0  0  0
 19 20  1  0  0  0  0
 21 17  1  0  0  0  0
 22 21  1  0  0  0  0
 23 22  1  0  0  0  0
 24  8  1  0  0  0  0
 24 25  1  0  0  0  0
 25 26  1  0  0  0  0
 26 28  1  0  0  0  0
 26 27  1  0  0  0  0
 28 27  1  0  0  0  0
M  END
>  <MODEL>
8

>  <REMARK>
 VINA RESULT:      -5.0      2.436      6.179
  Name = 
  11 active torsions:
  status: ('A' for Active; 'I' for Inactive)
    1  A    between atoms: C_3  and  O_28
    2  A    between atoms: C_5  and  O_21
    3  A    between atoms: C_9  and  C_13
    4  A    between atoms: C_9  and  C_14
    5  A    between atoms: C_10  and  C_13
    6  A    between atoms: C_11  and  C_22
    7  A    between atoms: C_12  and  C_15
    8  A    between atoms: C_13  and  O_24
    9  A    between atoms: C_14  and  C_18
   10  A    between atoms: C_16  and  C_20
   11  A    between atoms: C_16  and  O_21
                            x       y       z     vdW  Elec       q    Type
                         _______ _______ _______ _____ _____    ______ ____

>  <TORSDO>
F 11

$$$$
=
 OpenBabel10262420593D

 28 30  0  0  1  0  0  0  0  0999 V2000
  187.8210  177.1450  143.0250 C   0  0  0  0  0  2  0  0  0  0  0  0
  189.1160  176.6850  143.7030 C   0  0  0  0  0  2  0  0  0  0  0  0
  190.4100  177.1900  143.0320 C   0  0  1  0  0  3  0  0  0  0  0  0
  189.4000  176.3810  140.7310 C   0  0  0  0  0  2  0  0  0  0  0  0
  188.4180  177.4970  140.3250 C   0  0  1  0  0  3  0  0  0  0  0  0
  190.6340  176.7570  141.5630 C   0  0  1  0  0  3  0  0  0  0  0  0
  188.2820  178.7580  141.2290 C   0  0  1  0  0  3  0  0  0  0  0  0
  186.8920  179.0270  141.6710 C   0  0  2  0  0  3  0  0  0  0  0  0
  187.9010  178.5640  142.6600 N   0  0  1  0  0  0  0  0  0  0  0  0
  192.2430  176.8530  139.7960 O   0  0  0  0  0  1  0  0  0  0  0  0
  191.6340  177.6120  140.7970 C   0  0  0  0  0  2  0  0  0  0  0  0
  191.4460  178.6840  144.3050 C   0  0  0  0  0  1  0  0  0  0  0  0
  190.5780  178.5680  143.2180 O   0  0  0  0  0  0  0  0  0  0  0  0
  188.4540  177.8010  138.8210 C   0  0  1  0  0  3  0  0  0  0  0  0
  189.0470  179.3740  137.3790 C   0  0  0  0  0  1  0  0  0  0  0  0
  189.4820  178.7020  138.5220 O   0  0  0  0  0  0  0  0  0  0  0  0
  188.5590  176.5780  137.9550 C   0  0  0  0  0  0  0  0  0  0  0  0
  189.7820  176.1100  137.6710 C   0  0  0  0  0  3  0  0  0  0  0  0
  190.0210  174.9200  136.7970 C   0  0  0  0  0  2  0  0  0  0  0  0
  190.1730  173.7850  137.5900 O   0  0  0  0  0  1  0  0  0  0  0  0
  187.3150  175.9340  137.4070 C   0  0  0  0  0  2  0  0  0  0  0  0
  186.4060  176.9770  136.7830 C   0  0  0  0  0  2  0  0  0  0  0  0
  185.2930  176.3490  136.2270 O   0  0  0  0  0  1  0  0  0  0  0  0
  185.8260  177.9800  141.3050 C   0  0  0  0  0  2  0  0  0  0  0  0
  184.6430  178.6250  140.9460 O   0  0  0  0  0  0  0  0  0  0  0  0
  184.7760  178.8690  139.5800 C   0  0  0  0  0  3  0  0  0  0  0  0
  183.6170  179.7270  139.1130 C   0  0  0  0  0  2  0  0  0  0  0  0
  183.6090  178.2370  138.8480 C   0  0  0  0  0  2  0  0  0  0  0  0
  1  2  1  0  0  0  0
  3 13  1  6  0  0  0
  3  2  1  0  0  0  0
  4  6  1  0  0  0  0
  5 14  1  6  0  0  0
  5  4  1  0  0  0  0
  5  7  1  0  0  0  0
  6 11  1  6  0  0  0
  6  3  1  0  0  0  0
  7  8  1  0  0  0  0
  7  9  1  0  0  0  0
  8  9  1  0  0  0  0
  9  1  1  0  0  0  0
 10 11  1  0  0  0  0
 13 12  1  0  0  0  0
 15 16  1  0  0  0  0
 16 14  1  0  0  0  0
 17 14  1  0  0  0  0
 18 17  2  0  0  0  0
 19 20  1  0  0  0  0
 19 18  1  0  0  0  0
 21 17  1  0  0  0  0
 22 21  1  0  0  0  0
 23 22  1  0  0  0  0
 24  8  1  0  0  0  0
 25 24  1  0  0  0  0
 26 25  1  0  0  0  0
 27 26  1  0  0  0  0
 28 27  1  0  0  0  0
 28 26  1  0  0  0  0
M  END
>  <MODEL>
9

>  <REMARK>
 VINA RESULT:      -4.7      2.659      6.011
  Name = 
  11 active torsions:
  status: ('A' for Active; 'I' for Inactive)
    1  A    between atoms: C_3  and  O_28
    2  A    between atoms: C_5  and  O_21
    3  A    between atoms: C_9  and  C_13
    4  A    between atoms: C_9  and  C_14
    5  A    between atoms: C_10  and  C_13
    6  A    between atoms: C_11  and  C_22
    7  A    between atoms: C_12  and  C_15
    8  A    between atoms: C_13  and  O_24
    9  A    between atoms: C_14  and  C_18
   10  A    between atoms: C_16  and  C_20
   11  A    between atoms: C_16  and  O_21
                            x       y       z     vdW  Elec       q    Type
                         _______ _______ _______ _____ _____    ______ ____

>  <TORSDO>
F 11

$$$$
