=
 OpenBabel10262419563D

 25 28  0  0  1  0  0  0  0  0999 V2000
  187.2640  178.1800  145.6110 C   0  0  0  0  0  0  0  0  0  0  0  0
  188.5640  177.6990  145.4180 C   0  0  0  0  0  0  0  0  0  0  0  0
  187.3360  177.7380  147.9800 C   0  0  0  0  0  3  0  0  0  0  0  0
  186.3210  178.8170  144.6510 C   0  0  2  0  0  3  0  0  0  0  0  0
  189.9190  176.5640  143.7400 N   0  0  0  0  0  0  0  0  0  0  0  0
  183.5710  178.7230  143.7990 C   0  0  0  0  0  3  0  0  0  0  0  0
  188.6360  177.2360  147.8220 C   0  0  0  0  0  3  0  0  0  0  0  0
  185.1530  179.0570  145.5710 C   0  0  0  0  0  0  0  0  0  0  0  0
  183.8110  179.2390  145.0120 C   0  0  0  0  0  3  0  0  0  0  0  0
  190.6610  176.5970  146.4690 C   0  0  2  0  0  3  0  0  0  0  0  0
  191.2960  176.5930  147.7130 O   0  0  0  0  0  1  0  0  0  0  0  0
  189.1610  177.7760  144.0410 C   0  0  0  0  0  2  0  0  0  0  0  0
  184.6190  177.9510  143.0770 C   0  0  0  0  0  3  0  0  0  0  0  0
  186.6830  178.2210  146.8540 C   0  0  0  0  0  0  0  0  0  0  0  0
  185.3600  178.7290  146.8080 N   0  0  0  0  0  0  0  0  0  0  0  0
  191.5630  177.2990  145.4630 C   0  0  0  0  0  2  0  0  0  0  0  0
  185.8930  177.9370  143.5040 C   0  0  0  0  0  3  0  0  0  0  0  0
  191.3390  176.7710  144.0440 C   0  0  0  0  0  2  0  0  0  0  0  0
  189.2810  177.2270  146.5620 C   0  0  0  0  0  0  0  0  0  0  0  0
  189.7630  176.2100  142.3260 C   0  0  0  0  0  2  0  0  0  0  0  0
  188.6630  177.7410  140.6770 C   0  0  0  0  0  1  0  0  0  0  0  0
  189.9700  177.3860  141.3640 C   0  0  2  0  0  3  0  0  0  0  0  0
  191.0010  177.0370  140.3450 C   0  0  0  0  0  0  0  0  0  0  0  0
  192.1200  177.6100  140.3700 O   0  0  0  0  0  1  0  0  0  0  0  0
  190.7370  176.0830  139.3700 O   0  0  0  0  0  0  0  0  0  0  0  0
  1 14  1  0  0  0  0
  2  1  2  0  0  0  0
  2 19  1  0  0  0  0
  4 17  1  6  0  0  0
  4  8  1  0  0  0  0
  4  1  1  0  0  0  0
  5 12  1  0  0  0  0
  5 18  1  0  0  0  0
  6  9  2  0  0  0  0
  7  3  1  0  0  0  0
  8 15  2  0  0  0  0
  9  8  1  0  0  0  0
 10 19  1  0  0  0  0
 10 11  1  1  0  0  0
 12  2  1  0  0  0  0
 13 17  2  0  0  0  0
 13  6  1  0  0  0  0
 14  3  2  0  0  0  0
 15 14  1  0  0  0  0
 16 10  1  0  0  0  0
 18 16  1  0  0  0  0
 19  7  2  0  0  0  0
 20  5  1  0  0  0  0
 22 21  1  6  0  0  0
 22 20  1  0  0  0  0
 23 24  1  0  0  0  0
 23 22  1  0  0  0  0
 25 23  2  0  0  0  0
M  END
>  <MODEL>
1

>  <REMARK>
 VINA RESULT:     -10.2      0.000      0.000
  Name = 
  3 active torsions:
  status: ('A' for Active; 'I' for Inactive)
    1  A    between atoms: C_2  and  C_25
    2  A    between atoms: N_6  and  C_15
    3  A    between atoms: C_15  and  C_25
                            x       y       z     vdW  Elec       q    Type
                         _______ _______ _______ _____ _____    ______ ____

>  <TORSDO>
F 3

$$$$
=
 OpenBabel10262419563D

 25 28  0  0  1  0  0  0  0  0999 V2000
  187.4140  177.6530  145.3200 C   0  0  0  0  0  0  0  0  0  0  0  0
  186.6200  178.0350  144.2330 C   0  0  0  0  0  0  0  0  0  0  0  0
  185.8120  178.4850  146.9190 C   0  0  0  0  0  3  0  0  0  0  0  0
  188.7020  176.9070  145.3570 C   0  0  2  0  0  3  0  0  0  0  0  0
  186.8300  178.8050  141.9300 N   0  0  0  0  0  0  0  0  0  0  0  0
  191.3120  176.9820  146.5720 C   0  0  0  0  0  3  0  0  0  0  0  0
  184.9970  178.8930  145.8540 C   0  0  0  0  0  3  0  0  0  0  0  0
  188.9310  176.8790  146.8450 C   0  0  0  0  0  0  0  0  0  0  0  0
  190.2830  176.6670  147.3700 C   0  0  0  0  0  3  0  0  0  0  0  0
  184.4550  179.2010  143.4140 C   0  0  2  0  0  3  0  0  0  0  0  0
  183.1550  179.3850  143.8880 O   0  0  0  0  0  1  0  0  0  0  0  0
  187.0930  177.6990  142.8460 C   0  0  0  0  0  2  0  0  0  0  0  0
  191.0820  177.5720  145.2250 C   0  0  0  0  0  3  0  0  0  0  0  0
  187.0090  177.8490  146.6170 C   0  0  0  0  0  0  0  0  0  0  0  0
  187.9780  177.4010  147.5510 N   0  0  0  0  0  0  0  0  0  0  0  0
  184.4040  178.2980  142.1890 C   0  0  0  0  0  2  0  0  0  0  0  0
  189.8560  177.5990  144.6770 C   0  0  0  0  0  3  0  0  0  0  0  0
  185.5600  178.5880  141.2290 C   0  0  0  0  0  2  0  0  0  0  0  0
  185.3630  178.6590  144.5060 C   0  0  0  0  0  0  0  0  0  0  0  0
  187.9200  178.9230  140.9560 C   0  0  0  0  0  2  0  0  0  0  0  0
  189.8920  177.3820  140.8650 C   0  0  0  0  0  1  0  0  0  0  0  0
  188.4450  177.5760  140.4470 C   0  0  2  0  0  3  0  0  0  0  0  0
  188.3340  177.5120  138.9610 C   0  0  0  0  0  0  0  0  0  0  0  0
  188.8420  176.5440  138.3390 O   0  0  0  0  0  1  0  0  0  0  0  0
  187.6710  178.5120  138.2590 O   0  0  0  0  0  0  0  0  0  0  0  0
  1  4  1  0  0  0  0
  1 14  1  0  0  0  0
  2 19  1  0  0  0  0
  2  1  2  0  0  0  0
  4 17  1  6  0  0  0
  4  8  1  0  0  0  0
  5 12  1  0  0  0  0
  6  9  2  0  0  0  0
  7  3  1  0  0  0  0
  8  9  1  0  0  0  0
  8 15  2  0  0  0  0
 10 11  1  1  0  0  0
 10 19  1  0  0  0  0
 12  2  1  0  0  0  0
 13  6  1  0  0  0  0
 14  3  2  0  0  0  0
 14 15  1  0  0  0  0
 16 10  1  0  0  0  0
 17 13  2  0  0  0  0
 18  5  1  0  0  0  0
 18 16  1  0  0  0  0
 19  7  2  0  0  0  0
 20  5  1  0  0  0  0
 22 21  1  6  0  0  0
 22 20  1  0  0  0  0
 23 22  1  0  0  0  0
 24 23  1  0  0  0  0
 25 23  2  0  0  0  0
M  END
>  <MODEL>
2

>  <REMARK>
 VINA RESULT:      -9.9      2.519      4.953
  Name = 
  3 active torsions:
  status: ('A' for Active; 'I' for Inactive)
    1  A    between atoms: C_2  and  C_25
    2  A    between atoms: N_6  and  C_15
    3  A    between atoms: C_15  and  C_25
                            x       y       z     vdW  Elec       q    Type
                         _______ _______ _______ _____ _____    ______ ____

>  <TORSDO>
F 3

$$$$
=
 OpenBabel10262419563D

 25 28  0  0  1  0  0  0  0  0999 V2000
  186.7590  177.9240  143.2330 C   0  0  0  0  0  0  0  0  0  0  0  0
  187.6390  177.7580  142.1580 C   0  0  0  0  0  0  0  0  0  0  0  0
  185.1870  179.1700  141.8930 C   0  0  0  0  0  3  0  0  0  0  0  0
  186.8190  177.3850  144.6190 C   0  0  2  0  0  3  0  0  0  0  0  0
  190.0230  177.5560  141.6940 N   0  0  0  0  0  0  0  0  0  0  0  0
  186.5030  178.1940  147.3660 C   0  0  0  0  0  3  0  0  0  0  0  0
  186.0520  179.0340  140.7970 C   0  0  0  0  0  3  0  0  0  0  0  0
  185.5510  177.9800  145.1740 C   0  0  0  0  0  0  0  0  0  0  0  0
  185.3900  178.1290  146.6230 C   0  0  0  0  0  3  0  0  0  0  0  0
  188.1780  178.2820  139.6780 C   0  0  2  0  0  3  0  0  0  0  0  0
  187.4570  178.5150  138.5050 O   0  0  0  0  0  1  0  0  0  0  0  0
  188.8830  176.9410  142.3680 C   0  0  0  0  0  2  0  0  0  0  0  0
  187.8480  178.1680  146.7290 C   0  0  0  0  0  3  0  0  0  0  0  0
  185.5630  178.5850  143.0960 C   0  0  0  0  0  0  0  0  0  0  0  0
  184.8440  178.6470  144.3160 N   0  0  0  0  0  0  0  0  0  0  0  0
  188.9250  176.9620  139.5370 C   0  0  0  0  0  2  0  0  0  0  0  0
  188.0000  177.8530  145.4310 C   0  0  0  0  0  3  0  0  0  0  0  0
  190.2090  176.9530  140.3700 C   0  0  0  0  0  2  0  0  0  0  0  0
  187.2670  178.3150  140.8950 C   0  0  0  0  0  0  0  0  0  0  0  0
  191.2390  177.3770  142.4940 C   0  0  0  0  0  2  0  0  0  0  0  0
  191.7810  179.1090  144.2200 C   0  0  0  0  0  1  0  0  0  0  0  0
  191.0810  177.7860  143.9630 C   0  0  2  0  0  3  0  0  0  0  0  0
  191.6470  176.7310  144.8520 C   0  0  0  0  0  0  0  0  0  0  0  0
  191.9290  175.6010  144.3760 O   0  0  0  0  0  0  0  0  0  0  0  0
  191.8680  176.9860  146.2000 O   0  0  0  0  0  1  0  0  0  0  0  0
  1  4  1  0  0  0  0
  2 12  1  0  0  0  0
  2  1  2  0  0  0  0
  3 14  2  0  0  0  0
  4  8  1  0  0  0  0
  4 17  1  1  0  0  0
  5 12  1  0  0  0  0
  5 20  1  0  0  0  0
  7 19  2  0  0  0  0
  7  3  1  0  0  0  0
  8  9  1  0  0  0  0
  9  6  2  0  0  0  0
 10 11  1  6  0  0  0
 10 19  1  0  0  0  0
 13  6  1  0  0  0  0
 14  1  1  0  0  0  0
 14 15  1  0  0  0  0
 15  8  2  0  0  0  0
 16 10  1  0  0  0  0
 16 18  1  0  0  0  0
 17 13  2  0  0  0  0
 18  5  1  0  0  0  0
 19  2  1  0  0  0  0
 20 22  1  0  0  0  0
 22 21  1  6  0  0  0
 22 23  1  0  0  0  0
 23 25  1  0  0  0  0
 24 23  2  0  0  0  0
M  END
>  <MODEL>
3

>  <REMARK>
 VINA RESULT:      -9.6      1.870      4.871
  Name = 
  3 active torsions:
  status: ('A' for Active; 'I' for Inactive)
    1  A    between atoms: C_2  and  C_25
    2  A    between atoms: N_6  and  C_15
    3  A    between atoms: C_15  and  C_25
                            x       y       z     vdW  Elec       q    Type
                         _______ _______ _______ _____ _____    ______ ____

>  <TORSDO>
F 3

$$$$
=
 OpenBabel10262419563D

 25 28  0  0  1  0  0  0  0  0999 V2000
  187.2400  178.2010  144.9980 C   0  0  0  0  0  0  0  0  0  0  0  0
  188.5080  177.8780  144.5030 C   0  0  0  0  0  0  0  0  0  0  0  0
  187.7900  177.4320  147.2160 C   0  0  0  0  0  3  0  0  0  0  0  0
  186.0910  178.8770  144.3340 C   0  0  2  0  0  3  0  0  0  0  0  0
  189.5920  177.1300  142.4520 N   0  0  0  0  0  0  0  0  0  0  0  0
  183.2420  178.6460  143.9810 C   0  0  0  0  0  3  0  0  0  0  0  0
  189.0670  177.0840  146.7510 C   0  0  0  0  0  3  0  0  0  0  0  0
  185.1060  178.8710  145.4730 C   0  0  0  0  0  0  0  0  0  0  0  0
  183.6730  179.0030  145.1980 C   0  0  0  0  0  3  0  0  0  0  0  0
  190.8350  176.8400  144.9750 C   0  0  2  0  0  3  0  0  0  0  0  0
  191.6940  176.7180  146.0700 O   0  0  0  0  0  1  0  0  0  0  0  0
  188.8260  178.2080  143.0710 C   0  0  0  0  0  2  0  0  0  0  0  0
  184.1820  178.0890  142.9710 C   0  0  0  0  0  3  0  0  0  0  0  0
  186.9040  178.0080  146.3150 C   0  0  0  0  0  0  0  0  0  0  0  0
  185.5660  178.3900  146.5860 N   0  0  0  0  0  0  0  0  0  0  0  0
  191.4810  177.7620  143.9490 C   0  0  0  0  0  2  0  0  0  0  0  0
  185.5120  178.1340  143.1560 C   0  0  0  0  0  3  0  0  0  0  0  0
  191.0270  177.4250  142.5270 C   0  0  0  0  0  2  0  0  0  0  0  0
  189.4590  177.3170  145.4110 C   0  0  0  0  0  0  0  0  0  0  0  0
  189.1930  176.9690  141.0500 C   0  0  0  0  0  2  0  0  0  0  0  0
  187.2270  178.2530  140.1800 C   0  0  0  0  0  1  0  0  0  0  0  0
  188.7310  178.2690  140.3820 C   0  0  2  0  0  3  0  0  0  0  0  0
  189.4180  178.4420  139.0700 C   0  0  0  0  0  0  0  0  0  0  0  0
  189.0560  179.3620  138.2930 O   0  0  0  0  0  0  0  0  0  0  0  0
  190.4570  177.5960  138.7000 O   0  0  0  0  0  1  0  0  0  0  0  0
  1 14  1  0  0  0  0
  2  1  2  0  0  0  0
  2 19  1  0  0  0  0
  4 17  1  6  0  0  0
  4  1  1  0  0  0  0
  4  8  1  0  0  0  0
  5 18  1  0  0  0  0
  5 12  1  0  0  0  0
  6  9  2  0  0  0  0
  7  3  1  0  0  0  0
  8 15  2  0  0  0  0
  9  8  1  0  0  0  0
 10 19  1  0  0  0  0
 10 11  1  1  0  0  0
 12  2  1  0  0  0  0
 13 17  2  0  0  0  0
 13  6  1  0  0  0  0
 14 15  1  0  0  0  0
 14  3  2  0  0  0  0
 16 10  1  0  0  0  0
 18 16  1  0  0  0  0
 19  7  2  0  0  0  0
 20  5  1  0  0  0  0
 22 21  1  6  0  0  0
 22 20  1  0  0  0  0
 23 22  1  0  0  0  0
 24 23  2  0  0  0  0
 25 23  1  0  0  0  0
M  END
>  <MODEL>
4

>  <REMARK>
 VINA RESULT:      -9.4      1.268      1.475
  Name = 
  3 active torsions:
  status: ('A' for Active; 'I' for Inactive)
    1  A    between atoms: C_2  and  C_25
    2  A    between atoms: N_6  and  C_15
    3  A    between atoms: C_15  and  C_25
                            x       y       z     vdW  Elec       q    Type
                         _______ _______ _______ _____ _____    ______ ____

>  <TORSDO>
F 3

$$$$
=
 OpenBabel10262419563D

 25 28  0  0  1  0  0  0  0  0999 V2000
  187.0410  177.8810  143.2190 C   0  0  0  0  0  0  0  0  0  0  0  0
  188.3920  177.6390  142.9470 C   0  0  0  0  0  0  0  0  0  0  0  0
  186.6120  178.6300  140.9680 C   0  0  0  0  0  3  0  0  0  0  0  0
  186.2460  177.6230  144.4510 C   0  0  2  0  0  3  0  0  0  0  0  0
  190.5680  177.6780  144.0450 N   0  0  0  0  0  0  0  0  0  0  0  0
  184.3330  178.8800  146.2000 C   0  0  0  0  0  3  0  0  0  0  0  0
  187.9630  178.4110  140.6630 C   0  0  0  0  0  3  0  0  0  0  0  0
  184.9050  178.1330  143.9930 C   0  0  0  0  0  0  0  0  0  0  0  0
  183.8980  178.5270  144.9830 C   0  0  0  0  0  3  0  0  0  0  0  0
  190.3280  177.7580  141.2280 C   0  0  2  0  0  3  0  0  0  0  0  0
  190.4670  177.6680  139.8420 O   0  0  0  0  0  1  0  0  0  0  0  0
  189.2490  177.0510  144.0340 C   0  0  0  0  0  2  0  0  0  0  0  0
  185.7880  178.9180  146.5090 C   0  0  0  0  0  3  0  0  0  0  0  0
  186.1780  178.3360  142.2540 C   0  0  0  0  0  0  0  0  0  0  0  0
  184.8660  178.5270  142.7580 N   0  0  0  0  0  0  0  0  0  0  0  0
  191.0000  176.5500  141.8660 C   0  0  0  0  0  2  0  0  0  0  0  0
  186.6940  178.3910  145.6680 C   0  0  0  0  0  3  0  0  0  0  0  0
  191.5160  176.8690  143.2710 C   0  0  0  0  0  2  0  0  0  0  0  0
  188.8660  177.8940  141.6230 C   0  0  0  0  0  0  0  0  0  0  0  0
  191.0480  177.8180  145.4230 C   0  0  0  0  0  2  0  0  0  0  0  0
  189.7050  177.1260  147.4210 C   0  0  0  0  0  1  0  0  0  0  0  0
  190.6580  176.6510  146.3380 C   0  0  2  0  0  3  0  0  0  0  0  0
  191.8770  176.0580  146.9590 C   0  0  0  0  0  0  0  0  0  0  0  0
  192.4530  175.0890  146.4000 O   0  0  0  0  0  0  0  0  0  0  0  0
  192.3840  176.5690  148.1480 O   0  0  0  0  0  1  0  0  0  0  0  0
  1  4  1  0  0  0  0
  2  1  1  0  0  0  0
  2 12  1  0  0  0  0
  3 14  1  0  0  0  0
  4 17  1  1  0  0  0
  5 20  1  0  0  0  0
  6 13  1  0  0  0  0
  7  3  2  0  0  0  0
  7 19  1  0  0  0  0
  8  4  1  0  0  0  0
  8  9  1  0  0  0  0
  9  6  2  0  0  0  0
 10 11  1  6  0  0  0
 10 19  1  0  0  0  0
 10 16  1  0  0  0  0
 12  5  1  0  0  0  0
 14 15  1  0  0  0  0
 14  1  2  0  0  0  0
 15  8  2  0  0  0  0
 16 18  1  0  0  0  0
 17 13  2  0  0  0  0
 18  5  1  0  0  0  0
 19  2  2  0  0  0  0
 20 22  1  0  0  0  0
 22 23  1  0  0  0  0
 22 21  1  1  0  0  0
 23 25  1  0  0  0  0
 24 23  2  0  0  0  0
M  END
>  <MODEL>
5

>  <REMARK>
 VINA RESULT:      -9.4      1.444      4.793
  Name = 
  3 active torsions:
  status: ('A' for Active; 'I' for Inactive)
    1  A    between atoms: C_2  and  C_25
    2  A    between atoms: N_6  and  C_15
    3  A    between atoms: C_15  and  C_25
                            x       y       z     vdW  Elec       q    Type
                         _______ _______ _______ _____ _____    ______ ____

>  <TORSDO>
F 3

$$$$
=
 OpenBabel10262419563D

 25 28  0  0  1  0  0  0  0  0999 V2000
  188.7190  177.2840  143.9110 C   0  0  0  0  0  0  0  0  0  0  0  0
  187.7470  177.6550  144.8470 C   0  0  0  0  0  0  0  0  0  0  0  0
  190.4560  177.2110  145.5820 C   0  0  0  0  0  3  0  0  0  0  0  0
  188.5880  176.9660  142.4620 C   0  0  2  0  0  3  0  0  0  0  0  0
  185.6980  178.9640  145.0130 N   0  0  0  0  0  0  0  0  0  0  0  0
  189.8100  177.5290  139.9150 C   0  0  0  0  0  3  0  0  0  0  0  0
  189.5110  177.5940  146.5450 C   0  0  0  0  0  3  0  0  0  0  0  0
  190.0290  176.6650  142.1420 C   0  0  0  0  0  0  0  0  0  0  0  0
  190.5000  176.7480  140.7570 C   0  0  0  0  0  3  0  0  0  0  0  0
  187.2110  178.2830  147.3030 C   0  0  2  0  0  3  0  0  0  0  0  0
  187.7030  177.9590  148.5690 O   0  0  0  0  0  1  0  0  0  0  0  0
  186.3250  177.8040  144.3840 C   0  0  0  0  0  2  0  0  0  0  0  0
  188.6420  178.3190  140.3900 C   0  0  0  0  0  3  0  0  0  0  0  0
  190.0210  177.0460  144.2730 C   0  0  0  0  0  0  0  0  0  0  0  0
  190.8300  176.7030  143.1600 N   0  0  0  0  0  0  0  0  0  0  0  0
  185.8050  177.7150  147.1670 C   0  0  0  0  0  2  0  0  0  0  0  0
  188.1040  178.1080  141.6030 C   0  0  0  0  0  3  0  0  0  0  0  0
  184.9530  178.5480  146.2060 C   0  0  0  0  0  2  0  0  0  0  0  0
  188.1500  177.7970  146.2110 C   0  0  0  0  0  0  0  0  0  0  0  0
  184.7900  179.6210  144.0680 C   0  0  0  0  0  2  0  0  0  0  0  0
  184.5440  178.9720  141.6610 C   0  0  0  0  0  1  0  0  0  0  0  0
  184.1150  178.6580  143.0840 C   0  0  2  0  0  3  0  0  0  0  0  0
  182.6320  178.7640  143.2020 C   0  0  0  0  0  0  0  0  0  0  0  0
  182.0860  178.6350  144.3280 O   0  0  0  0  0  1  0  0  0  0  0  0
  181.8490  179.0050  142.0790 O   0  0  0  0  0  0  0  0  0  0  0  0
  1 14  2  0  0  0  0
  1  2  1  0  0  0  0
  2 19  2  0  0  0  0
  3  7  2  0  0  0  0
  4 17  1  6  0  0  0
  4  1  1  0  0  0  0
  5 18  1  0  0  0  0
  6 13  1  0  0  0  0
  6  9  2  0  0  0  0
  8  4  1  0  0  0  0
  8 15  2  0  0  0  0
  9  8  1  0  0  0  0
 10 11  1  1  0  0  0
 12  2  1  0  0  0  0
 12  5  1  0  0  0  0
 13 17  2  0  0  0  0
 14  3  1  0  0  0  0
 15 14  1  0  0  0  0
 16 10  1  0  0  0  0
 18 16  1  0  0  0  0
 19  7  1  0  0  0  0
 19 10  1  0  0  0  0
 20  5  1  0  0  0  0
 22 21  1  6  0  0  0
 22 23  1  0  0  0  0
 22 20  1  0  0  0  0
 23 24  1  0  0  0  0
 25 23  2  0  0  0  0
M  END
>  <MODEL>
6

>  <REMARK>
 VINA RESULT:      -9.3      3.079      5.813
  Name = 
  3 active torsions:
  status: ('A' for Active; 'I' for Inactive)
    1  A    between atoms: C_2  and  C_25
    2  A    between atoms: N_6  and  C_15
    3  A    between atoms: C_15  and  C_25
                            x       y       z     vdW  Elec       q    Type
                         _______ _______ _______ _____ _____    ______ ____

>  <TORSDO>
F 3

$$$$
=
 OpenBabel10262419563D

 25 28  0  0  1  0  0  0  0  0999 V2000
  187.7630  178.0900  143.3290 C   0  0  0  0  0  0  0  0  0  0  0  0
  187.5700  177.9990  144.7120 C   0  0  0  0  0  0  0  0  0  0  0  0
  185.4030  178.3530  142.9100 C   0  0  0  0  0  3  0  0  0  0  0  0
  189.0200  178.1190  142.5320 C   0  0  2  0  0  3  0  0  0  0  0  0
  188.5320  176.9260  146.6780 N   0  0  0  0  0  0  0  0  0  0  0  0
  190.2280  176.9550  140.1910 C   0  0  0  0  0  3  0  0  0  0  0  0
  185.1710  178.2530  144.2890 C   0  0  0  0  0  3  0  0  0  0  0  0
  188.4350  178.2290  141.1490 C   0  0  0  0  0  0  0  0  0  0  0  0
  189.2340  177.8300  139.9870 C   0  0  0  0  0  3  0  0  0  0  0  0
  185.8870  177.9250  146.6810 C   0  0  2  0  0  3  0  0  0  0  0  0
  184.6260  178.4550  146.9650 O   0  0  0  0  0  1  0  0  0  0  0  0
  188.7780  177.8780  145.5990 C   0  0  0  0  0  2  0  0  0  0  0  0
  190.4720  176.3780  141.5410 C   0  0  0  0  0  3  0  0  0  0  0  0
  186.7160  178.2870  142.4630 C   0  0  0  0  0  0  0  0  0  0  0  0
  187.1430  178.3300  141.1120 N   0  0  0  0  0  0  0  0  0  0  0  0
  186.9070  178.5700  147.6090 C   0  0  0  0  0  2  0  0  0  0  0  0
  189.8630  176.8730  142.6310 C   0  0  0  0  0  3  0  0  0  0  0  0
  188.0870  177.6340  147.8830 C   0  0  0  0  0  2  0  0  0  0  0  0
  186.2340  178.1000  145.2120 C   0  0  0  0  0  0  0  0  0  0  0  0
  189.7540  176.1690  146.9720 C   0  0  0  0  0  2  0  0  0  0  0  0
  191.6810  176.5280  145.4130 C   0  0  0  0  0  1  0  0  0  0  0  0
  191.0460  176.9570  146.7240 C   0  0  2  0  0  3  0  0  0  0  0  0
  192.0010  176.7370  147.8470 C   0  0  0  0  0  0  0  0  0  0  0  0
  192.0560  177.5670  148.7910 O   0  0  0  0  0  1  0  0  0  0  0  0
  192.8310  175.6220  147.8610 O   0  0  0  0  0  0  0  0  0  0  0  0
  1  2  1  0  0  0  0
  2 19  2  0  0  0  0
  2 12  1  0  0  0  0
  3  7  2  0  0  0  0
  4 17  1  6  0  0  0
  4  1  1  0  0  0  0
  5 20  1  0  0  0  0
  5 18  1  0  0  0  0
  6 13  1  0  0  0  0
  7 19  1  0  0  0  0
  8  4  1  0  0  0  0
  9  6  2  0  0  0  0
  9  8  1  0  0  0  0
 10 11  1  6  0  0  0
 10 16  1  0  0  0  0
 12  5  1  0  0  0  0
 13 17  2  0  0  0  0
 14  3  1  0  0  0  0
 14  1  2  0  0  0  0
 15  8  2  0  0  0  0
 15 14  1  0  0  0  0
 16 18  1  0  0  0  0
 19 10  1  0  0  0  0
 22 21  1  6  0  0  0
 22 20  1  0  0  0  0
 22 23  1  0  0  0  0
 23 25  2  0  0  0  0
 23 24  1  0  0  0  0
M  END
>  <MODEL>
7

>  <REMARK>
 VINA RESULT:      -8.6      2.740      5.573
  Name = 
  3 active torsions:
  status: ('A' for Active; 'I' for Inactive)
    1  A    between atoms: C_2  and  C_25
    2  A    between atoms: N_6  and  C_15
    3  A    between atoms: C_15  and  C_25
                            x       y       z     vdW  Elec       q    Type
                         _______ _______ _______ _____ _____    ______ ____

>  <TORSDO>
F 3

$$$$
=
 OpenBabel10262419563D

 25 28  0  0  1  0  0  0  0  0999 V2000
  186.9760  178.1310  143.5490 C   0  0  0  0  0  0  0  0  0  0  0  0
  188.2190  177.7720  143.0160 C   0  0  0  0  0  0  0  0  0  0  0  0
  187.5510  177.2930  145.7360 C   0  0  0  0  0  3  0  0  0  0  0  0
  185.8380  178.8630  142.9290 C   0  0  2  0  0  3  0  0  0  0  0  0
  189.2250  177.0310  140.9240 N   0  0  0  0  0  0  0  0  0  0  0  0
  182.9740  178.7450  142.6420 C   0  0  0  0  0  3  0  0  0  0  0  0
  188.8020  176.9080  145.2330 C   0  0  0  0  0  3  0  0  0  0  0  0
  184.8810  178.8680  144.0920 C   0  0  0  0  0  0  0  0  0  0  0  0
  183.4480  179.0580  143.8550 C   0  0  0  0  0  3  0  0  0  0  0  0
  190.5170  176.6400  143.4080 C   0  0  2  0  0  3  0  0  0  0  0  0
  191.3970  176.4620  144.4780 O   0  0  0  0  0  1  0  0  0  0  0  0
  188.5150  178.1220  141.5850 C   0  0  0  0  0  2  0  0  0  0  0  0
  183.8690  178.1760  141.5980 C   0  0  0  0  0  3  0  0  0  0  0  0
  186.6660  177.9210  144.8700 C   0  0  0  0  0  0  0  0  0  0  0  0
  185.3500  178.3460  145.1820 N   0  0  0  0  0  0  0  0  0  0  0  0
  191.1720  177.5600  142.3870 C   0  0  0  0  0  2  0  0  0  0  0  0
  185.2040  178.1680  141.7510 C   0  0  0  0  0  3  0  0  0  0  0  0
  190.6720  177.2710  140.9690 C   0  0  0  0  0  2  0  0  0  0  0  0
  189.1710  177.1570  143.8890 C   0  0  0  0  0  0  0  0  0  0  0  0
  188.7870  176.9160  139.5290 C   0  0  0  0  0  2  0  0  0  0  0  0
  186.7900  177.9310  138.4100 C   0  0  0  0  0  1  0  0  0  0  0  0
  188.1780  178.2030  138.9610 C   0  0  2  0  0  3  0  0  0  0  0  0
  189.0530  178.7510  137.8850 C   0  0  0  0  0  0  0  0  0  0  0  0
  189.8020  177.9770  137.2360 O   0  0  0  0  0  0  0  0  0  0  0  0
  189.0470  180.1100  137.5930 O   0  0  0  0  0  1  0  0  0  0  0  0
  1 14  1  0  0  0  0
  2  1  2  0  0  0  0
  2 19  1  0  0  0  0
  4 17  1  6  0  0  0
  4  1  1  0  0  0  0
  4  8  1  0  0  0  0
  5 18  1  0  0  0  0
  5 12  1  0  0  0  0
  6  9  2  0  0  0  0
  7  3  1  0  0  0  0
  8 15  2  0  0  0  0
  9  8  1  0  0  0  0
 10 19  1  0  0  0  0
 10 11  1  1  0  0  0
 12  2  1  0  0  0  0
 13 17  2  0  0  0  0
 13  6  1  0  0  0  0
 14 15  1  0  0  0  0
 14  3  2  0  0  0  0
 16 10  1  0  0  0  0
 18 16  1  0  0  0  0
 19  7  2  0  0  0  0
 20  5  1  0  0  0  0
 22 21  1  6  0  0  0
 22 20  1  0  0  0  0
 23 22  1  0  0  0  0
 24 23  2  0  0  0  0
 25 23  1  0  0  0  0
M  END
>  <MODEL>
8

>  <REMARK>
 VINA RESULT:      -8.6      1.973      2.715
  Name = 
  3 active torsions:
  status: ('A' for Active; 'I' for Inactive)
    1  A    between atoms: C_2  and  C_25
    2  A    between atoms: N_6  and  C_15
    3  A    between atoms: C_15  and  C_25
                            x       y       z     vdW  Elec       q    Type
                         _______ _______ _______ _____ _____    ______ ____

>  <TORSDO>
F 3

$$$$
=
 OpenBabel10262419563D

 25 28  0  0  1  0  0  0  0  0999 V2000
  186.8520  177.8610  143.9200 C   0  0  0  0  0  0  0  0  0  0  0  0
  186.5970  178.0950  142.5640 C   0  0  0  0  0  0  0  0  0  0  0  0
  184.7530  178.8380  144.5940 C   0  0  0  0  0  3  0  0  0  0  0  0
  187.9850  177.1530  144.5780 C   0  0  2  0  0  3  0  0  0  0  0  0
  187.7720  178.5960  140.4890 N   0  0  0  0  0  0  0  0  0  0  0  0
  189.8490  177.4290  146.7570 C   0  0  0  0  0  3  0  0  0  0  0  0
  184.4700  179.1000  143.2460 C   0  0  0  0  0  3  0  0  0  0  0  0
  187.5700  177.3050  146.0180 C   0  0  0  0  0  0  0  0  0  0  0  0
  188.5720  177.1870  147.0810 C   0  0  0  0  0  3  0  0  0  0  0  0
  185.0080  179.1080  140.7860 C   0  0  2  0  0  3  0  0  0  0  0  0
  183.6340  179.3170  140.6470 O   0  0  0  0  0  1  0  0  0  0  0  0
  187.5970  177.6100  141.5520 C   0  0  0  0  0  2  0  0  0  0  0  0
  190.2200  177.8520  145.3790 C   0  0  0  0  0  3  0  0  0  0  0  0
  185.9480  178.1980  144.8960 C   0  0  0  0  0  0  0  0  0  0  0  0
  186.4240  177.8850  146.1950 N   0  0  0  0  0  0  0  0  0  0  0  0
  185.4480  178.0670  139.7650 C   0  0  0  0  0  2  0  0  0  0  0  0
  189.3370  177.7870  144.3680 C   0  0  0  0  0  3  0  0  0  0  0  0
  186.9070  178.2690  139.3500 C   0  0  0  0  0  2  0  0  0  0  0  0
  185.3600  178.7180  142.2120 C   0  0  0  0  0  0  0  0  0  0  0  0
  189.1730  178.6230  140.0530 C   0  0  0  0  0  2  0  0  0  0  0  0
  191.1350  177.4280  141.0500 C   0  0  0  0  0  1  0  0  0  0  0  0
  189.8920  177.2760  140.1910 C   0  0  2  0  0  3  0  0  0  0  0  0
  190.2660  176.7560  138.8450 C   0  0  0  0  0  0  0  0  0  0  0  0
  190.0030  177.4350  137.8190 O   0  0  0  0  0  0  0  0  0  0  0  0
  190.9040  175.5280  138.7130 O   0  0  0  0  0  1  0  0  0  0  0  0
  1  4  1  0  0  0  0
  1 14  1  0  0  0  0
  2  1  2  0  0  0  0
  3 14  2  0  0  0  0
  4 17  1  1  0  0  0
  4  8  1  0  0  0  0
  5 12  1  0  0  0  0
  6  9  2  0  0  0  0
  7  3  1  0  0  0  0
  8 15  2  0  0  0  0
  8  9  1  0  0  0  0
 10 11  1  1  0  0  0
 10 19  1  0  0  0  0
 12  2  1  0  0  0  0
 13  6  1  0  0  0  0
 14 15  1  0  0  0  0
 16 10  1  0  0  0  0
 17 13  2  0  0  0  0
 18 16  1  0  0  0  0
 18  5  1  0  0  0  0
 19  2  1  0  0  0  0
 19  7  2  0  0  0  0
 20 22  1  0  0  0  0
 20  5  1  0  0  0  0
 22 21  1  1  0  0  0
 23 22  1  0  0  0  0
 24 23  2  0  0  0  0
 25 23  1  0  0  0  0
M  END
>  <MODEL>
9

>  <REMARK>
 VINA RESULT:      -8.5      2.404      5.009
  Name = 
  3 active torsions:
  status: ('A' for Active; 'I' for Inactive)
    1  A    between atoms: C_2  and  C_25
    2  A    between atoms: N_6  and  C_15
    3  A    between atoms: C_15  and  C_25
                            x       y       z     vdW  Elec       q    Type
                         _______ _______ _______ _____ _____    ______ ____

>  <TORSDO>
F 3

$$$$
