=
 OpenBabel10262422473D

 37 42  0  0  1  0  0  0  0  0999 V2000
  188.4200  176.9330  144.6700 C   0  0  0  0  0  2  0  0  0  0  0  0
  186.5730  178.1870  140.6440 C   0  0  1  0  0  3  0  0  0  0  0  0
  191.3780  176.6030  139.3200 C   0  0  2  0  0  3  0  0  0  0  0  0
  188.2680  178.0280  137.6160 C   0  0  1  0  0  3  0  0  0  0  0  0
  186.7400  177.9120  143.0810 C   0  0  2  0  0  3  0  0  0  0  0  0
  187.0340  178.8860  139.5270 O   0  0  0  0  0  0  0  0  0  0  0  0
  187.3380  178.6520  141.8810 C   0  0  1  0  0  3  0  0  0  0  0  0
  186.9930  177.9560  138.4800 C   0  0  1  0  0  3  0  0  0  0  0  0
  185.3600  178.2560  143.1920 O   0  0  0  0  0  0  0  0  0  0  0  0
  192.0060  176.3700  137.6270 S   0  0  0  0  0  0  0  0  0  0  0  0
  188.8230  178.3760  141.6920 C   0  0  0  0  0  2  0  0  0  0  0  0
  190.0960  176.4660  142.7790 C   0  0  0  0  0  2  0  0  0  0  0  0
  184.1450  178.1070  139.6510 C   0  0  0  0  0  2  0  0  0  0  0  0
  184.5440  178.3130  142.0490 C   0  0  0  0  0  3  0  0  0  0  0  0
  189.0660  176.8750  141.7380 C   0  0  2  0  0  3  0  0  0  0  0  0
  190.5110  177.1300  136.9380 C   0  0  0  0  0  2  0  0  0  0  0  0
  188.8480  179.4430  137.5530 C   0  0  0  0  0  1  0  0  0  0  0  0
  185.0720  178.3200  140.8140 C   0  0  0  0  0  0  0  0  0  0  0  0
  189.1570  176.1980  140.3720 C   0  0  0  0  0  2  0  0  0  0  0  0
  187.4990  178.1260  144.3870 C   0  0  0  0  0  2  0  0  0  0  0  0
  185.7370  178.1930  137.6270 C   0  0  2  0  0  3  0  0  0  0  0  0
  189.8380  177.1530  144.1310 C   0  0  0  0  0  2  0  0  0  0  0  0
  189.3310  176.9230  137.8910 C   0  0  1  0  0  0  0  0  0  0  0  0
  189.9100  177.0240  139.3240 C   0  0  2  0  0  3  0  0  0  0  0  0
  184.5730  178.8600  138.3870 C   0  0  0  0  0  2  0  0  0  0  0  0
  184.9600  177.0320  135.5540 C   0  0  0  0  0  3  0  0  0  0  0  0
  185.3010  176.9520  136.9090 C   0  0  0  0  0  0  0  0  0  0  0  0
  185.2190  175.7190  137.5730 C   0  0  0  0  0  3  0  0  0  0  0  0
  184.7280  173.2710  137.5890 C   0  0  0  0  0  1  0  0  0  0  0  0
  184.4730  174.6600  135.5280 C   0  0  0  0  0  3  0  0  0  0  0  0
  184.8080  174.5750  136.8830 C   0  0  0  0  0  0  0  0  0  0  0  0
  184.5480  175.8890  134.8650 C   0  0  0  0  0  3  0  0  0  0  0  0
  188.7350  175.5250  137.6240 C   0  0  0  0  0  2  0  0  0  0  0  0
  188.5420  175.2240  136.1430 C   0  0  0  0  0  1  0  0  0  0  0  0
  192.2030  177.4240  140.1210 O   0  0  0  0  0  0  0  0  0  0  0  0
  193.4680  177.5250  139.5190 C   0  0  0  0  0  2  0  0  0  0  0  0
  194.3930  176.7890  140.2570 O   0  0  0  0  0  1  0  0  0  0  0  0
  2  6  1  6  0  0  0
  2 18  1  0  0  0  0
  2  7  1  0  0  0  0
  3 24  1  0  0  0  0
  3 35  1  6  0  0  0
  4 17  1  1  0  0  0
  4 23  1  0  0  0  0
  4  8  1  0  0  0  0
  5  9  1  0  0  0  0
  5 20  1  1  0  0  0
  7 11  1  6  0  0  0
  7  5  1  0  0  0  0
  8  6  1  1  0  0  0
 10  3  1  0  0  0  0
 11 15  1  0  0  0  0
 12 22  1  0  0  0  0
 13 18  1  0  0  0  0
 14  9  1  0  0  0  0
 15 19  1  6  0  0  0
 15 12  1  0  0  0  0
 16 10  1  0  0  0  0
 16 23  1  0  0  0  0
 18 14  2  0  0  0  0
 20  1  1  0  0  0  0
 21 27  1  1  0  0  0
 21 25  1  0  0  0  0
 21  8  1  0  0  0  0
 22  1  1  0  0  0  0
 23 33  1  6  0  0  0
 23 24  1  0  0  0  0
 24 19  1  1  0  0  0
 25 13  1  0  0  0  0
 26 27  1  0  0  0  0
 27 28  2  0  0  0  0
 30 31  2  0  0  0  0
 31 28  1  0  0  0  0
 31 29  1  0  0  0  0
 32 30  1  0  0  0  0
 32 26  2  0  0  0  0
 34 33  1  0  0  0  0
 36 35  1  0  0  0  0
 36 37  1  0  0  0  0
M  END
>  <MODEL>
1

>  <REMARK>
 VINA RESULT:      -6.6      0.000      0.000
  Name = 
  4 active torsions:
  status: ('A' for Active; 'I' for Inactive)
    1  A    between atoms: O_1  and  C_5
    2  A    between atoms: O_1  and  C_12
    3  A    between atoms: C_6  and  C_31
    4  A    between atoms: C_11  and  C_33
                            x       y       z     vdW  Elec       q    Type
                         _______ _______ _______ _____ _____    ______ ____

>  <TORSDO>
F 4

$$$$
=
 OpenBabel10262422473D

 37 42  0  0  1  0  0  0  0  0999 V2000
  189.9010  177.0030  143.1060 C   0  0  0  0  0  2  0  0  0  0  0  0
  186.6260  178.1900  140.0960 C   0  0  1  0  0  3  0  0  0  0  0  0
  190.4350  176.3070  137.0480 C   0  0  2  0  0  3  0  0  0  0  0  0
  186.9490  177.8220  136.6580 C   0  0  1  0  0  3  0  0  0  0  0  0
  187.7540  178.0040  142.2730 C   0  0  2  0  0  3  0  0  0  0  0  0
  186.6190  178.8190  138.8500 O   0  0  0  0  0  0  0  0  0  0  0  0
  187.8390  178.6640  140.8940 C   0  0  1  0  0  3  0  0  0  0  0  0
  186.1290  177.8510  137.9640 C   0  0  1  0  0  3  0  0  0  0  0  0
  186.5480  178.4230  142.9090 O   0  0  0  0  0  0  0  0  0  0  0  0
  190.3180  175.9750  135.2610 S   0  0  0  0  0  0  0  0  0  0  0  0
  189.1120  178.3030  140.1400 C   0  0  0  0  0  2  0  0  0  0  0  0
  190.6560  176.3750  140.7320 C   0  0  0  0  0  2  0  0  0  0  0  0
  184.0030  178.1970  140.1690 C   0  0  0  0  0  2  0  0  0  0  0  0
  185.3430  178.4770  142.1890 C   0  0  0  0  0  3  0  0  0  0  0  0
  189.3060  176.7950  140.1710 C   0  0  2  0  0  3  0  0  0  0  0  0
  188.6970  176.7840  135.1890 C   0  0  0  0  0  2  0  0  0  0  0  0
  187.4980  179.2020  136.2860 C   0  0  0  0  0  1  0  0  0  0  0  0
  185.3270  178.4070  140.8480 C   0  0  0  0  0  0  0  0  0  0  0  0
  188.8160  176.0600  138.9250 C   0  0  0  0  0  2  0  0  0  0  0  0
  188.9820  178.2300  143.1500 C   0  0  0  0  0  2  0  0  0  0  0  0
  184.6440  178.1200  137.6750 C   0  0  2  0  0  3  0  0  0  0  0  0
  190.9870  177.1270  142.0320 C   0  0  0  0  0  2  0  0  0  0  0  0
  187.9970  176.6760  136.5460 C   0  0  1  0  0  0  0  0  0  0  0  0
  189.1080  176.8030  137.6170 C   0  0  2  0  0  3  0  0  0  0  0  0
  183.9070  178.8750  138.7990 C   0  0  0  0  0  2  0  0  0  0  0  0
  184.1080  175.7000  138.0010 C   0  0  0  0  0  3  0  0  0  0  0  0
  183.9170  176.8750  137.2650 C   0  0  0  0  0  0  0  0  0  0  0  0
  183.0600  176.8650  136.1530 C   0  0  0  0  0  3  0  0  0  0  0  0
  181.4850  175.6890  134.6140 C   0  0  0  0  0  1  0  0  0  0  0  0
  182.5870  174.5220  136.5290 C   0  0  0  0  0  3  0  0  0  0  0  0
  182.3950  175.6920  135.7880 C   0  0  0  0  0  0  0  0  0  0  0  0
  183.4440  174.5260  137.6340 C   0  0  0  0  0  3  0  0  0  0  0  0
  187.3000  175.3010  136.6210 C   0  0  0  0  0  2  0  0  0  0  0  0
  186.5420  174.9380  135.3510 C   0  0  0  0  0  1  0  0  0  0  0  0
  191.5390  177.1150  137.4020 O   0  0  0  0  0  0  0  0  0  0  0  0
  192.6720  176.2980  137.5530 C   0  0  0  0  0  2  0  0  0  0  0  0
  193.5150  176.8490  138.5150 O   0  0  0  0  0  1  0  0  0  0  0  0
  1 20  1  0  0  0  0
  2  6  1  6  0  0  0
  2 18  1  0  0  0  0
  2  7  1  0  0  0  0
  3 35  1  6  0  0  0
  3 24  1  0  0  0  0
  4 17  1  1  0  0  0
  4  8  1  0  0  0  0
  5  9  1  0  0  0  0
  5 20  1  1  0  0  0
  7 11  1  6  0  0  0
  7  5  1  0  0  0  0
  8  6  1  1  0  0  0
 10  3  1  0  0  0  0
 11 15  1  0  0  0  0
 12 22  1  0  0  0  0
 13 18  1  0  0  0  0
 14  9  1  0  0  0  0
 15 19  1  6  0  0  0
 15 12  1  0  0  0  0
 16 10  1  0  0  0  0
 16 23  1  0  0  0  0
 18 14  2  0  0  0  0
 21 27  1  1  0  0  0
 21  8  1  0  0  0  0
 21 25  1  0  0  0  0
 22  1  1  0  0  0  0
 23 33  1  1  0  0  0
 23  4  1  0  0  0  0
 23 24  1  0  0  0  0
 24 19  1  1  0  0  0
 25 13  1  0  0  0  0
 27 26  2  0  0  0  0
 28 27  1  0  0  0  0
 29 31  1  0  0  0  0
 30 32  2  0  0  0  0
 31 28  2  0  0  0  0
 31 30  1  0  0  0  0
 32 26  1  0  0  0  0
 34 33  1  0  0  0  0
 35 36  1  0  0  0  0
 36 37  1  0  0  0  0
M  END
>  <MODEL>
2

>  <REMARK>
 VINA RESULT:      -5.7      1.584      2.097
  Name = 
  4 active torsions:
  status: ('A' for Active; 'I' for Inactive)
    1  A    between atoms: O_1  and  C_5
    2  A    between atoms: O_1  and  C_12
    3  A    between atoms: C_6  and  C_31
    4  A    between atoms: C_11  and  C_33
                            x       y       z     vdW  Elec       q    Type
                         _______ _______ _______ _____ _____    ______ ____

>  <TORSDO>
F 4

$$$$
=
 OpenBabel10262422473D

 37 42  0  0  1  0  0  0  0  0999 V2000
  186.8930  173.5770  136.8470 C   0  0  0  0  0  2  0  0  0  0  0  0
  184.2680  177.2330  137.8170 C   0  0  1  0  0  3  0  0  0  0  0  0
  180.8010  173.3420  137.3920 C   0  0  2  0  0  3  0  0  0  0  0  0
  180.8090  177.0980  138.0930 C   0  0  1  0  0  3  0  0  0  0  0  0
  186.3100  175.9870  137.2480 C   0  0  2  0  0  3  0  0  0  0  0  0
  183.0420  177.7120  137.3540 O   0  0  0  0  0  0  0  0  0  0  0  0
  184.9420  176.4190  136.7140 C   0  0  1  0  0  3  0  0  0  0  0  0
  182.1940  177.6620  138.4680 C   0  0  1  0  0  3  0  0  0  0  0  0
  187.0770  177.1520  137.5440 O   0  0  0  0  0  0  0  0  0  0  0  0
  179.0310  173.4270  137.8110 S   0  0  0  0  0  0  0  0  0  0  0  0
  184.0510  175.2430  136.3370 C   0  0  0  0  0  2  0  0  0  0  0  0
  184.4410  172.8370  137.0520 C   0  0  0  0  0  2  0  0  0  0  0  0
  184.6180  179.3910  139.2680 C   0  0  0  0  0  2  0  0  0  0  0  0
  186.4890  178.2460  138.2020 C   0  0  0  0  0  3  0  0  0  0  0  0
  184.0340  174.2380  137.4790 C   0  0  2  0  0  3  0  0  0  0  0  0
  179.1440  175.2210  138.0450 C   0  0  0  0  0  2  0  0  0  0  0  0
  180.4060  177.4520  136.6590 C   0  0  0  0  0  1  0  0  0  0  0  0
  185.1570  178.3510  138.3270 C   0  0  0  0  0  0  0  0  0  0  0  0
  182.8330  174.3540  138.4160 C   0  0  0  0  0  2  0  0  0  0  0  0
  187.0560  175.0150  136.3390 C   0  0  0  0  0  2  0  0  0  0  0  0
  182.0690  179.0640  139.0850 C   0  0  2  0  0  3  0  0  0  0  0  0
  185.7130  172.8570  136.1860 C   0  0  0  0  0  2  0  0  0  0  0  0
  180.5650  175.6060  138.4650 C   0  0  1  0  0  0  0  0  0  0  0  0
  181.5160  174.6570  137.6940 C   0  0  2  0  0  3  0  0  0  0  0  0
  183.2780  179.9820  138.8190 C   0  0  0  0  0  2  0  0  0  0  0  0
  180.3750  179.1430  140.9220 C   0  0  0  0  0  3  0  0  0  0  0  0
  181.7150  179.0080  140.5400 C   0  0  0  0  0  0  0  0  0  0  0  0
  182.7010  178.8350  141.5230 C   0  0  0  0  0  3  0  0  0  0  0  0
  183.3950  178.6000  143.9100 C   0  0  0  0  0  1  0  0  0  0  0  0
  181.0070  178.9210  143.2490 C   0  0  0  0  0  3  0  0  0  0  0  0
  182.3470  178.7890  142.8740 C   0  0  0  0  0  0  0  0  0  0  0  0
  180.0210  179.0990  142.2730 C   0  0  0  0  0  3  0  0  0  0  0  0
  180.6890  175.4040  139.9910 C   0  0  0  0  0  2  0  0  0  0  0  0
  179.4040  175.7190  140.7460 C   0  0  0  0  0  1  0  0  0  0  0  0
  181.0510  172.8490  136.0920 O   0  0  0  0  0  0  0  0  0  0  0  0
  180.7280  171.4820  136.0530 C   0  0  0  0  0  2  0  0  0  0  0  0
  181.8840  170.7400  135.8180 O   0  0  0  0  0  1  0  0  0  0  0  0
  2  6  1  6  0  0  0
  2 18  1  0  0  0  0
  3 35  1  6  0  0  0
  3 24  1  0  0  0  0
  3 10  1  0  0  0  0
  4 17  1  6  0  0  0
  4 23  1  0  0  0  0
  4  8  1  0  0  0  0
  5 20  1  6  0  0  0
  5  9  1  0  0  0  0
  7 11  1  1  0  0  0
  7  5  1  0  0  0  0
  7  2  1  0  0  0  0
  8  6  1  6  0  0  0
  8 21  1  0  0  0  0
  9 14  1  0  0  0  0
 10 16  1  0  0  0  0
 12 15  1  0  0  0  0
 14 18  2  0  0  0  0
 15 11  1  6  0  0  0
 15 19  1  0  0  0  0
 16 23  1  0  0  0  0
 18 13  1  0  0  0  0
 20  1  1  0  0  0  0
 21 27  1  1  0  0  0
 22  1  1  0  0  0  0
 22 12  1  0  0  0  0
 23 33  1  1  0  0  0
 24 19  1  1  0  0  0
 24 23  1  0  0  0  0
 25 21  1  0  0  0  0
 25 13  1  0  0  0  0
 26 32  1  0  0  0  0
 27 26  2  0  0  0  0
 27 28  1  0  0  0  0
 28 31  2  0  0  0  0
 31 30  1  0  0  0  0
 31 29  1  0  0  0  0
 32 30  2  0  0  0  0
 33 34  1  0  0  0  0
 36 35  1  0  0  0  0
 37 36  1  0  0  0  0
M  END
>  <MODEL>
3

>  <REMARK>
 VINA RESULT:      -5.7      4.345      8.401
  Name = 
  4 active torsions:
  status: ('A' for Active; 'I' for Inactive)
    1  A    between atoms: O_1  and  C_5
    2  A    between atoms: O_1  and  C_12
    3  A    between atoms: C_6  and  C_31
    4  A    between atoms: C_11  and  C_33
                            x       y       z     vdW  Elec       q    Type
                         _______ _______ _______ _____ _____    ______ ____

>  <TORSDO>
F 4

$$$$
=
 OpenBabel10262422473D

 37 42  0  0  1  0  0  0  0  0999 V2000
  184.8490  178.0280  144.2730 C   0  0  0  0  0  2  0  0  0  0  0  0
  185.5910  178.2140  139.7330 C   0  0  1  0  0  3  0  0  0  0  0  0
  190.4080  177.7840  141.7220 C   0  0  2  0  0  3  0  0  0  0  0  0
  188.7500  178.1070  138.2940 C   0  0  1  0  0  3  0  0  0  0  0  0
  184.3200  178.3150  141.8350 C   0  0  2  0  0  3  0  0  0  0  0  0
  186.5230  178.8560  138.9160 O   0  0  0  0  0  0  0  0  0  0  0  0
  185.4040  179.0210  141.0160 C   0  0  1  0  0  3  0  0  0  0  0  0
  187.2360  177.8180  138.3010 C   0  0  1  0  0  3  0  0  0  0  0  0
  183.1100  178.2970  141.0790 O   0  0  0  0  0  0  0  0  0  0  0  0
  191.9410  177.5030  140.7790 S   0  0  0  0  0  0  0  0  0  0  0  0
  186.7330  179.1210  141.7500 C   0  0  0  0  0  2  0  0  0  0  0  0
  187.3630  177.7720  143.8080 C   0  0  0  0  0  2  0  0  0  0  0  0
  184.2600  177.3710  137.6350 C   0  0  0  0  0  2  0  0  0  0  0  0
  183.1310  177.9880  139.7080 C   0  0  0  0  0  3  0  0  0  0  0  0
  187.1040  177.7560  142.3090 C   0  0  2  0  0  3  0  0  0  0  0  0
  191.0560  177.7480  139.2150 C   0  0  0  0  0  2  0  0  0  0  0  0
  189.0560  179.6040  138.1940 C   0  0  0  0  0  1  0  0  0  0  0  0
  184.2790  177.9700  139.0130 C   0  0  0  0  0  0  0  0  0  0  0  0
  188.0760  176.9530  141.4470 C   0  0  0  0  0  2  0  0  0  0  0  0
  184.1210  178.8900  143.2340 C   0  0  0  0  0  2  0  0  0  0  0  0
  186.7100  177.6040  136.8740 C   0  0  2  0  0  3  0  0  0  0  0  0
  186.2650  178.5380  144.5640 C   0  0  0  0  0  2  0  0  0  0  0  0
  189.5830  177.3660  139.3810 C   0  0  1  0  0  0  0  0  0  0  0  0
  189.1820  177.8020  140.8120 C   0  0  2  0  0  3  0  0  0  0  0  0
  185.2440  178.0360  136.6680 C   0  0  0  0  0  2  0  0  0  0  0  0
  187.7080  176.0170  135.2200 C   0  0  0  0  0  3  0  0  0  0  0  0
  186.9580  176.2090  136.3860 C   0  0  0  0  0  0  0  0  0  0  0  0
  186.4430  175.0970  137.0700 C   0  0  0  0  0  3  0  0  0  0  0  0
  186.1420  172.6310  137.3250 C   0  0  0  0  0  1  0  0  0  0  0  0
  187.4380  173.6200  135.4310 C   0  0  0  0  0  3  0  0  0  0  0  0
  186.6850  173.8060  136.5950 C   0  0  0  0  0  0  0  0  0  0  0  0
  187.9480  174.7250  134.7440 C   0  0  0  0  0  3  0  0  0  0  0  0
  189.4590  175.8370  139.2050 C   0  0  0  0  0  2  0  0  0  0  0  0
  190.1700  175.3130  137.9640 C   0  0  0  0  0  1  0  0  0  0  0  0
  190.4780  178.8890  142.5980 O   0  0  0  0  0  0  0  0  0  0  0  0
  191.1260  178.4940  143.7800 C   0  0  0  0  0  2  0  0  0  0  0  0
  190.7070  177.2130  144.1320 O   0  0  0  0  0  1  0  0  0  0  0  0
  1 22  1  0  0  0  0
  2  6  1  6  0  0  0
  2  7  1  0  0  0  0
  3 35  1  6  0  0  0
  4 17  1  1  0  0  0
  4  8  1  0  0  0  0
  4 23  1  0  0  0  0
  5 20  1  1  0  0  0
  7 11  1  1  0  0  0
  7  5  1  0  0  0  0
  8  6  1  6  0  0  0
  9  5  1  0  0  0  0
 10  3  1  0  0  0  0
 11 15  1  0  0  0  0
 12 22  1  0  0  0  0
 13 18  1  0  0  0  0
 14  9  1  0  0  0  0
 15 19  1  6  0  0  0
 15 12  1  0  0  0  0
 16 23  1  0  0  0  0
 16 10  1  0  0  0  0
 18 14  2  0  0  0  0
 18  2  1  0  0  0  0
 20  1  1  0  0  0  0
 21 27  1  1  0  0  0
 21  8  1  0  0  0  0
 23 33  1  6  0  0  0
 23 24  1  0  0  0  0
 24 19  1  1  0  0  0
 24  3  1  0  0  0  0
 25 21  1  0  0  0  0
 25 13  1  0  0  0  0
 26 27  1  0  0  0  0
 27 28  2  0  0  0  0
 30 31  2  0  0  0  0
 31 28  1  0  0  0  0
 31 29  1  0  0  0  0
 32 26  2  0  0  0  0
 32 30  1  0  0  0  0
 34 33  1  0  0  0  0
 35 36  1  0  0  0  0
 36 37  1  0  0  0  0
M  END
>  <MODEL>
4

>  <REMARK>
 VINA RESULT:      -5.2      1.828      2.658
  Name = 
  4 active torsions:
  status: ('A' for Active; 'I' for Inactive)
    1  A    between atoms: O_1  and  C_5
    2  A    between atoms: O_1  and  C_12
    3  A    between atoms: C_6  and  C_31
    4  A    between atoms: C_11  and  C_33
                            x       y       z     vdW  Elec       q    Type
                         _______ _______ _______ _____ _____    ______ ____

>  <TORSDO>
F 4

$$$$
=
 OpenBabel10262422473D

 37 42  0  0  1  0  0  0  0  0999 V2000
  187.0500  170.9160  135.5440 C   0  0  0  0  0  2  0  0  0  0  0  0
  186.6940  175.4600  136.1890 C   0  0  1  0  0  3  0  0  0  0  0  0
  181.7740  173.7780  136.7460 C   0  0  2  0  0  3  0  0  0  0  0  0
  183.6920  177.0810  136.8380 C   0  0  1  0  0  3  0  0  0  0  0  0
  187.7640  173.3220  135.6160 C   0  0  2  0  0  3  0  0  0  0  0  0
  185.7870  176.4410  135.7850 O   0  0  0  0  0  0  0  0  0  0  0  0
  186.7010  174.3270  135.1640 C   0  0  1  0  0  3  0  0  0  0  0  0
  185.2190  176.9160  136.9740 C   0  0  1  0  0  3  0  0  0  0  0  0
  189.0320  173.9750  135.6430 O   0  0  0  0  0  0  0  0  0  0  0  0
  180.3590  174.7650  137.3270 S   0  0  0  0  0  0  0  0  0  0  0  0
  185.3090  173.7190  135.0730 C   0  0  0  0  0  2  0  0  0  0  0  0
  184.6160  171.5090  136.1160 C   0  0  0  0  0  2  0  0  0  0  0  0
  188.2690  177.2790  137.2360 C   0  0  0  0  0  2  0  0  0  0  0  0
  189.1580  175.2690  136.1760 C   0  0  0  0  0  3  0  0  0  0  0  0
  185.0060  172.9590  136.3550 C   0  0  2  0  0  3  0  0  0  0  0  0
  181.3530  176.2800  137.2610 C   0  0  0  0  0  2  0  0  0  0  0  0
  183.2740  177.4610  135.4160 C   0  0  0  0  0  1  0  0  0  0  0  0
  188.0800  176.0310  136.4210 C   0  0  0  0  0  0  0  0  0  0  0  0
  184.1820  173.7360  137.3810 C   0  0  0  0  0  2  0  0  0  0  0  0
  187.7920  172.0330  134.8000 C   0  0  0  0  0  2  0  0  0  0  0  0
  185.8840  178.2430  137.3710 C   0  0  2  0  0  3  0  0  0  0  0  0
  185.5770  170.8200  135.1310 C   0  0  0  0  0  2  0  0  0  0  0  0
  182.8320  175.9450  137.4650 C   0  0  1  0  0  0  0  0  0  0  0  0
  183.0690  174.5860  136.7610 C   0  0  2  0  0  3  0  0  0  0  0  0
  187.3200  178.4150  136.8400 C   0  0  0  0  0  2  0  0  0  0  0  0
  184.6010  178.9910  139.3820 C   0  0  0  0  0  3  0  0  0  0  0  0
  185.7960  178.4970  138.8460 C   0  0  0  0  0  0  0  0  0  0  0  0
  186.8910  178.2610  139.6910 C   0  0  0  0  0  3  0  0  0  0  0  0
  187.9460  178.2500  141.9540 C   0  0  0  0  0  1  0  0  0  0  0  0
  185.5890  178.9970  141.5930 C   0  0  0  0  0  3  0  0  0  0  0  0
  186.7860  178.5080  141.0620 C   0  0  0  0  0  0  0  0  0  0  0  0
  184.4980  179.2400  140.7540 C   0  0  0  0  0  3  0  0  0  0  0  0
  183.0980  175.8430  138.9830 C   0  0  0  0  0  2  0  0  0  0  0  0
  182.0680  176.5830  139.8260 C   0  0  0  0  0  1  0  0  0  0  0  0
  181.5360  173.1140  135.5220 O   0  0  0  0  0  0  0  0  0  0  0  0
  180.5510  172.1320  135.7190 C   0  0  0  0  0  2  0  0  0  0  0  0
  181.0580  171.1270  136.5400 O   0  0  0  0  0  1  0  0  0  0  0  0
  2  6  1  6  0  0  0
  2 18  1  0  0  0  0
  3 35  1  6  0  0  0
  3 24  1  0  0  0  0
  3 10  1  0  0  0  0
  4 17  1  6  0  0  0
  4  8  1  0  0  0  0
  4 23  1  0  0  0  0
  5 20  1  6  0  0  0
  5  9  1  0  0  0  0
  7 11  1  1  0  0  0
  7  5  1  0  0  0  0
  7  2  1  0  0  0  0
  8  6  1  6  0  0  0
  8 21  1  0  0  0  0
  9 14  1  0  0  0  0
 12 15  1  0  0  0  0
 14 18  2  0  0  0  0
 15 11  1  6  0  0  0
 15 19  1  0  0  0  0
 16 10  1  0  0  0  0
 16 23  1  0  0  0  0
 18 13  1  0  0  0  0
 20  1  1  0  0  0  0
 21 27  1  1  0  0  0
 22  1  1  0  0  0  0
 22 12  1  0  0  0  0
 23 33  1  1  0  0  0
 24 19  1  1  0  0  0
 24 23  1  0  0  0  0
 25 13  1  0  0  0  0
 25 21  1  0  0  0  0
 26 32  1  0  0  0  0
 27 26  2  0  0  0  0
 27 28  1  0  0  0  0
 28 31  2  0  0  0  0
 31 30  1  0  0  0  0
 31 29  1  0  0  0  0
 32 30  2  0  0  0  0
 33 34  1  0  0  0  0
 35 36  1  0  0  0  0
 36 37  1  0  0  0  0
M  END
>  <MODEL>
5

>  <REMARK>
 VINA RESULT:      -5.1      3.799      8.206
  Name = 
  4 active torsions:
  status: ('A' for Active; 'I' for Inactive)
    1  A    between atoms: O_1  and  C_5
    2  A    between atoms: O_1  and  C_12
    3  A    between atoms: C_6  and  C_31
    4  A    between atoms: C_11  and  C_33
                            x       y       z     vdW  Elec       q    Type
                         _______ _______ _______ _____ _____    ______ ____

>  <TORSDO>
F 4

$$$$
=
 OpenBabel10262422473D

 37 42  0  0  1  0  0  0  0  0999 V2000
  185.2490  173.7760  135.1480 C   0  0  0  0  0  2  0  0  0  0  0  0
  186.5150  177.1320  138.0340 C   0  0  1  0  0  3  0  0  0  0  0  0
  181.2920  177.3590  138.1440 C   0  0  2  0  0  3  0  0  0  0  0  0
  184.2650  179.1820  139.7060 C   0  0  1  0  0  3  0  0  0  0  0  0
  186.7840  175.3540  136.3580 C   0  0  2  0  0  3  0  0  0  0  0  0
  186.0820  178.4370  138.2740 O   0  0  0  0  0  0  0  0  0  0  0  0
  186.2200  176.7600  136.5830 C   0  0  1  0  0  3  0  0  0  0  0  0
  185.5990  178.4190  139.5890 C   0  0  1  0  0  3  0  0  0  0  0  0
  188.1910  175.3810  136.5860 O   0  0  0  0  0  0  0  0  0  0  0  0
  180.2820  178.3610  139.2800 S   0  0  0  0  0  0  0  0  0  0  0  0
  184.7210  176.8460  136.3340 C   0  0  0  0  0  2  0  0  0  0  0  0
  183.1550  174.8520  136.1770 C   0  0  0  0  0  2  0  0  0  0  0  0
  188.5210  177.4420  139.6970 C   0  0  0  0  0  2  0  0  0  0  0  0
  188.7220  176.0770  137.6860 C   0  0  0  0  0  3  0  0  0  0  0  0
  184.0200  175.7200  137.0780 C   0  0  2  0  0  3  0  0  0  0  0  0
  181.7630  179.2090  139.8930 C   0  0  0  0  0  2  0  0  0  0  0  0
  184.1750  180.3490  138.7200 C   0  0  0  0  0  1  0  0  0  0  0  0
  187.9790  176.9480  138.3860 C   0  0  0  0  0  0  0  0  0  0  0  0
  183.4310  176.1150  138.4310 C   0  0  0  0  0  2  0  0  0  0  0  0
  186.4260  174.7480  135.0030 C   0  0  0  0  0  2  0  0  0  0  0  0
  186.6560  179.0100  140.5350 C   0  0  2  0  0  3  0  0  0  0  0  0
  183.8990  174.4540  134.8910 C   0  0  0  0  0  2  0  0  0  0  0  0
  182.9840  178.2970  139.7530 C   0  0  1  0  0  0  0  0  0  0  0  0
  182.7830  177.5030  138.4390 C   0  0  2  0  0  3  0  0  0  0  0  0
  188.1050  178.8790  140.0250 C   0  0  0  0  0  2  0  0  0  0  0  0
  187.3810  177.5100  142.3990 C   0  0  0  0  0  3  0  0  0  0  0  0
  186.5050  178.4990  141.9360 C   0  0  0  0  0  0  0  0  0  0  0  0
  185.4980  178.9850  142.7830 C   0  0  0  0  0  3  0  0  0  0  0  0
  184.3110  179.0130  144.9790 C   0  0  0  0  0  1  0  0  0  0  0  0
  186.2550  177.5060  144.5430 C   0  0  0  0  0  3  0  0  0  0  0  0
  185.3750  178.4910  144.0840 C   0  0  0  0  0  0  0  0  0  0  0  0
  187.2570  177.0150  143.7000 C   0  0  0  0  0  3  0  0  0  0  0  0
  183.0250  177.3560  140.9760 C   0  0  0  0  0  2  0  0  0  0  0  0
  182.2530  177.8910  142.1750 C   0  0  0  0  0  1  0  0  0  0  0  0
  180.9640  177.5450  136.7830 O   0  0  0  0  0  0  0  0  0  0  0  0
  181.5610  178.7320  136.3280 C   0  0  0  0  0  2  0  0  0  0  0  0
  181.9300  178.5840  134.9930 O   0  0  0  0  0  1  0  0  0  0  0  0
  2  6  1  6  0  0  0
  2 18  1  0  0  0  0
  3 35  1  6  0  0  0
  3 24  1  0  0  0  0
  3 10  1  0  0  0  0
  4 17  1  6  0  0  0
  4 23  1  0  0  0  0
  5 20  1  6  0  0  0
  5  7  1  0  0  0  0
  5  9  1  0  0  0  0
  7 11  1  1  0  0  0
  7  2  1  0  0  0  0
  8  6  1  6  0  0  0
  8  4  1  0  0  0  0
  8 21  1  0  0  0  0
  9 14  1  0  0  0  0
 10 16  1  0  0  0  0
 11 15  1  0  0  0  0
 13 25  1  0  0  0  0
 14 18  2  0  0  0  0
 15 12  1  6  0  0  0
 15 19  1  0  0  0  0
 18 13  1  0  0  0  0
 20  1  1  0  0  0  0
 21 27  1  1  0  0  0
 22  1  1  0  0  0  0
 22 12  1  0  0  0  0
 23 16  1  0  0  0  0
 23 33  1  1  0  0  0
 24 19  1  1  0  0  0
 24 23  1  0  0  0  0
 25 21  1  0  0  0  0
 26 32  1  0  0  0  0
 27 26  2  0  0  0  0
 27 28  1  0  0  0  0
 28 31  2  0  0  0  0
 31 30  1  0  0  0  0
 31 29  1  0  0  0  0
 32 30  2  0  0  0  0
 33 34  1  0  0  0  0
 36 35  1  0  0  0  0
 37 36  1  0  0  0  0
M  END
>  <MODEL>
6

>  <REMARK>
 VINA RESULT:      -4.5      3.155      8.003
  Name = 
  4 active torsions:
  status: ('A' for Active; 'I' for Inactive)
    1  A    between atoms: O_1  and  C_5
    2  A    between atoms: O_1  and  C_12
    3  A    between atoms: C_6  and  C_31
    4  A    between atoms: C_11  and  C_33
                            x       y       z     vdW  Elec       q    Type
                         _______ _______ _______ _____ _____    ______ ____

>  <TORSDO>
F 4

$$$$
=
 OpenBabel10262422473D

 37 42  0  0  1  0  0  0  0  0999 V2000
  181.0960  173.0570  137.0070 C   0  0  0  0  0  2  0  0  0  0  0  0
  184.1500  176.4860  137.3360 C   0  0  1  0  0  3  0  0  0  0  0  0
  180.6000  177.6820  140.9850 C   0  0  2  0  0  3  0  0  0  0  0  0
  183.8450  179.1250  139.5740 C   0  0  1  0  0  3  0  0  0  0  0  0
  183.0790  174.4770  136.4090 C   0  0  2  0  0  3  0  0  0  0  0  0
  184.0590  177.8690  137.5040 O   0  0  0  0  0  0  0  0  0  0  0  0
  182.8920  175.9790  136.6340 C   0  0  1  0  0  3  0  0  0  0  0  0
  184.6670  178.1200  138.7410 C   0  0  1  0  0  3  0  0  0  0  0  0
  184.2240  174.2750  135.5820 O   0  0  0  0  0  0  0  0  0  0  0  0
  180.7430  179.0000  142.2340 S   0  0  0  0  0  0  0  0  0  0  0  0
  181.6720  176.3050  137.4850 C   0  0  0  0  0  2  0  0  0  0  0  0
  180.4090  174.6300  138.9180 C   0  0  0  0  0  2  0  0  0  0  0  0
  186.7480  176.6470  137.0090 C   0  0  0  0  0  2  0  0  0  0  0  0
  185.4030  175.0050  135.8060 C   0  0  0  0  0  3  0  0  0  0  0  0
  181.6840  175.4390  138.7360 C   0  0  2  0  0  3  0  0  0  0  0  0
  182.2390  179.6370  141.4320 C   0  0  0  0  0  2  0  0  0  0  0  0
  183.1110  180.1420  138.6980 C   0  0  0  0  0  1  0  0  0  0  0  0
  185.4150  176.0860  136.6020 C   0  0  0  0  0  0  0  0  0  0  0  0
  182.2560  176.1180  139.9790 C   0  0  0  0  0  2  0  0  0  0  0  0
  181.8410  173.7670  135.8700 C   0  0  0  0  0  2  0  0  0  0  0  0
  186.0990  178.6310  138.5190 C   0  0  2  0  0  3  0  0  0  0  0  0
  179.9920  173.9300  137.6140 C   0  0  0  0  0  2  0  0  0  0  0  0
  182.9610  178.5050  140.6960 C   0  0  1  0  0  0  0  0  0  0  0  0
  181.8540  177.5890  140.1180 C   0  0  2  0  0  3  0  0  0  0  0  0
  186.7380  178.1680  137.1950 C   0  0  0  0  0  2  0  0  0  0  0  0
  186.5370  178.6920  140.9800 C   0  0  0  0  0  3  0  0  0  0  0  0
  186.9840  178.3530  139.6970 C   0  0  0  0  0  0  0  0  0  0  0  0
  188.2500  177.7720  139.5340 C   0  0  0  0  0  3  0  0  0  0  0  0
  190.3970  176.9050  140.4700 C   0  0  0  0  0  1  0  0  0  0  0  0
  188.6060  177.8630  141.9260 C   0  0  0  0  0  3  0  0  0  0  0  0
  189.0580  177.5250  140.6470 C   0  0  0  0  0  0  0  0  0  0  0  0
  187.3470  178.4470  142.0920 C   0  0  0  0  0  3  0  0  0  0  0  0
  183.8370  177.7490  141.7170 C   0  0  0  0  0  2  0  0  0  0  0  0
  183.9270  178.4460  143.0680 C   0  0  0  0  0  1  0  0  0  0  0  0
  179.4010  177.7370  140.2400 O   0  0  0  0  0  0  0  0  0  0  0  0
  179.3730  178.9360  139.5080 C   0  0  0  0  0  2  0  0  0  0  0  0
  179.1110  178.6550  138.1690 O   0  0  0  0  0  1  0  0  0  0  0  0
  1 22  1  0  0  0  0
  2 18  1  6  0  0  0
  2  6  1  0  0  0  0
  3 35  1  6  0  0  0
  3 10  1  0  0  0  0
  4 17  1  6  0  0  0
  4 23  1  0  0  0  0
  5 20  1  6  0  0  0
  5  7  1  0  0  0  0
  7  2  1  0  0  0  0
  7 11  1  1  0  0  0
  8  6  1  6  0  0  0
  8  4  1  0  0  0  0
  9 14  1  0  0  0  0
  9  5  1  0  0  0  0
 13 25  1  0  0  0  0
 14 18  2  0  0  0  0
 15 11  1  6  0  0  0
 15 12  1  0  0  0  0
 15 19  1  0  0  0  0
 16 10  1  0  0  0  0
 18 13  1  0  0  0  0
 20  1  1  0  0  0  0
 21  8  1  0  0  0  0
 21 27  1  1  0  0  0
 22 12  1  0  0  0  0
 23 16  1  0  0  0  0
 23 33  1  1  0  0  0
 24 19  1  1  0  0  0
 24 23  1  0  0  0  0
 24  3  1  0  0  0  0
 25 21  1  0  0  0  0
 26 32  1  0  0  0  0
 27 26  2  0  0  0  0
 28 27  1  0  0  0  0
 28 31  2  0  0  0  0
 29 31  1  0  0  0  0
 30 32  2  0  0  0  0
 31 30  1  0  0  0  0
 33 34  1  0  0  0  0
 36 35  1  0  0  0  0
 37 36  1  0  0  0  0
M  END
>  <MODEL>
7

>  <REMARK>
 VINA RESULT:      -4.4      3.712      8.393
  Name = 
  4 active torsions:
  status: ('A' for Active; 'I' for Inactive)
    1  A    between atoms: O_1  and  C_5
    2  A    between atoms: O_1  and  C_12
    3  A    between atoms: C_6  and  C_31
    4  A    between atoms: C_11  and  C_33
                            x       y       z     vdW  Elec       q    Type
                         _______ _______ _______ _____ _____    ______ ____

>  <TORSDO>
F 4

$$$$
=
 OpenBabel10262422473D

 37 42  0  0  1  0  0  0  0  0999 V2000
  184.7720  178.8930  143.1110 C   0  0  0  0  0  2  0  0  0  0  0  0
  181.5640  177.9470  139.9470 C   0  0  1  0  0  3  0  0  0  0  0  0
  186.0290  177.7260  137.2350 C   0  0  2  0  0  3  0  0  0  0  0  0
  182.2820  177.3180  136.6080 C   0  0  1  0  0  3  0  0  0  0  0  0
  182.4770  178.6200  142.1280 C   0  0  2  0  0  3  0  0  0  0  0  0
  181.3550  178.3210  138.6180 O   0  0  0  0  0  0  0  0  0  0  0  0
  182.3450  179.0470  140.6630 C   0  0  1  0  0  3  0  0  0  0  0  0
  181.4500  177.1270  137.8910 C   0  0  1  0  0  3  0  0  0  0  0  0
  181.1720  178.4930  142.6890 O   0  0  0  0  0  0  0  0  0  0  0  0
  186.2200  177.1400  135.5210 S   0  0  0  0  0  0  0  0  0  0  0  0
  183.6900  179.2420  139.9770 C   0  0  0  0  0  2  0  0  0  0  0  0
  185.9120  178.3880  140.8640 C   0  0  0  0  0  2  0  0  0  0  0  0
  179.2530  176.7070  140.0130 C   0  0  0  0  0  2  0  0  0  0  0  0
  180.1430  177.8650  141.9670 C   0  0  0  0  0  3  0  0  0  0  0  0
  184.5710  178.0300  140.2420 C   0  0  2  0  0  3  0  0  0  0  0  0
  184.4200  177.0550  135.3210 C   0  0  0  0  0  2  0  0  0  0  0  0
  182.1400  178.7270  136.0270 C   0  0  0  0  0  1  0  0  0  0  0  0
  180.2640  177.6150  140.6530 C   0  0  0  0  0  0  0  0  0  0  0  0
  184.5830  176.9900  139.1240 C   0  0  0  0  0  2  0  0  0  0  0  0
  183.3820  179.5230  142.9620 C   0  0  0  0  0  2  0  0  0  0  0  0
  180.0410  176.6090  137.5620 C   0  0  2  0  0  3  0  0  0  0  0  0
  185.7480  179.3760  142.0320 C   0  0  0  0  0  2  0  0  0  0  0  0
  183.7530  176.8100  136.6760 C   0  0  1  0  0  0  0  0  0  0  0  0
  184.5870  177.5970  137.7170 C   0  0  2  0  0  3  0  0  0  0  0  0
  178.9520  177.0640  138.5530 C   0  0  0  0  0  2  0  0  0  0  0  0
  180.5200  174.2860  138.3520 C   0  0  0  0  0  3  0  0  0  0  0  0
  180.0220  175.1260  137.3480 C   0  0  0  0  0  0  0  0  0  0  0  0
  179.5280  174.5680  136.1600 C   0  0  0  0  0  3  0  0  0  0  0  0
  178.9930  172.5960  134.7240 C   0  0  0  0  0  1  0  0  0  0  0  0
  180.0180  172.3480  136.9900 C   0  0  0  0  0  3  0  0  0  0  0  0
  179.5230  173.1820  135.9820 C   0  0  0  0  0  0  0  0  0  0  0  0
  180.5170  172.9000  138.1730 C   0  0  0  0  0  3  0  0  0  0  0  0
  183.7860  175.2940  136.9630 C   0  0  0  0  0  2  0  0  0  0  0  0
  183.3370  174.4460  135.7800 C   0  0  0  0  0  1  0  0  0  0  0  0
  186.5900  179.0030  137.4610 O   0  0  0  0  0  0  0  0  0  0  0  0
  187.9580  178.9620  137.1470 C   0  0  0  0  0  2  0  0  0  0  0  0
  188.7050  179.0380  138.3200 O   0  0  0  0  0  1  0  0  0  0  0  0
  2  6  1  6  0  0  0
  2 18  1  0  0  0  0
  2  7  1  0  0  0  0
  3 35  1  6  0  0  0
  3 24  1  0  0  0  0
  4 17  1  1  0  0  0
  4 23  1  0  0  0  0
  4  8  1  0  0  0  0
  5  9  1  0  0  0  0
  5 20  1  1  0  0  0
  7 11  1  6  0  0  0
  7  5  1  0  0  0  0
  8  6  1  6  0  0  0
 10  3  1  0  0  0  0
 11 15  1  0  0  0  0
 12 22  1  0  0  0  0
 13 18  1  0  0  0  0
 14  9  1  0  0  0  0
 15 19  1  6  0  0  0
 15 12  1  0  0  0  0
 16 10  1  0  0  0  0
 16 23  1  0  0  0  0
 18 14  2  0  0  0  0
 20  1  1  0  0  0  0
 21 27  1  1  0  0  0
 21  8  1  0  0  0  0
 21 25  1  0  0  0  0
 22  1  1  0  0  0  0
 23 33  1  1  0  0  0
 23 24  1  0  0  0  0
 24 19  1  1  0  0  0
 25 13  1  0  0  0  0
 27 26  2  0  0  0  0
 28 27  1  0  0  0  0
 29 31  1  0  0  0  0
 30 32  2  0  0  0  0
 31 28  2  0  0  0  0
 31 30  1  0  0  0  0
 32 26  1  0  0  0  0
 34 33  1  0  0  0  0
 36 35  1  0  0  0  0
 36 37  1  0  0  0  0
M  END
>  <MODEL>
8

>  <REMARK>
 VINA RESULT:      -4.2      3.496      5.538
  Name = 
  4 active torsions:
  status: ('A' for Active; 'I' for Inactive)
    1  A    between atoms: O_1  and  C_5
    2  A    between atoms: O_1  and  C_12
    3  A    between atoms: C_6  and  C_31
    4  A    between atoms: C_11  and  C_33
                            x       y       z     vdW  Elec       q    Type
                         _______ _______ _______ _____ _____    ______ ____

>  <TORSDO>
F 4

$$$$
=
 OpenBabel10262422473D

 37 42  0  0  1  0  0  0  0  0999 V2000
  186.5260  177.8850  145.2260 C   0  0  0  0  0  2  0  0  0  0  0  0
  182.9280  179.0040  142.5810 C   0  0  1  0  0  3  0  0  0  0  0  0
  186.6750  177.8910  139.1070 C   0  0  2  0  0  3  0  0  0  0  0  0
  183.0290  179.0360  139.1090 C   0  0  1  0  0  3  0  0  0  0  0  0
  184.2290  178.7200  144.6470 C   0  0  2  0  0  3  0  0  0  0  0  0
  182.7610  179.7550  141.4160 O   0  0  0  0  0  0  0  0  0  0  0  0
  184.1410  179.5250  143.3480 C   0  0  1  0  0  3  0  0  0  0  0  0
  182.3110  178.8360  140.4590 C   0  0  1  0  0  3  0  0  0  0  0  0
  183.0370  178.9320  145.4010 O   0  0  0  0  0  0  0  0  0  0  0  0
  186.4600  177.7350  137.3050 S   0  0  0  0  0  0  0  0  0  0  0  0
  185.3850  179.3910  142.4800 C   0  0  0  0  0  2  0  0  0  0  0  0
  187.1620  177.5970  142.7540 C   0  0  0  0  0  2  0  0  0  0  0  0
  180.3320  178.7080  142.8190 C   0  0  0  0  0  2  0  0  0  0  0  0
  181.7820  178.9250  144.7680 C   0  0  0  0  0  3  0  0  0  0  0  0
  185.7380  177.9190  142.3300 C   0  0  2  0  0  3  0  0  0  0  0  0
  184.7620  178.3600  137.4260 C   0  0  0  0  0  2  0  0  0  0  0  0
  183.4010  180.5000  138.8600 C   0  0  0  0  0  1  0  0  0  0  0  0
  181.6730  178.9940  143.4320 C   0  0  0  0  0  0  0  0  0  0  0  0
  185.2360  177.2680  141.0420 C   0  0  0  0  0  2  0  0  0  0  0  0
  185.4890  178.9900  145.4650 C   0  0  0  0  0  2  0  0  0  0  0  0
  180.7880  178.9640  140.2960 C   0  0  2  0  0  3  0  0  0  0  0  0
  187.5090  178.2420  144.1070 C   0  0  0  0  0  2  0  0  0  0  0  0
  184.1800  178.0330  138.8030 C   0  0  1  0  0  0  0  0  0  0  0  0
  185.3490  178.1720  139.8100 C   0  0  2  0  0  3  0  0  0  0  0  0
  180.0630  179.5100  141.5410 C   0  0  0  0  0  2  0  0  0  0  0  0
  179.5210  177.6960  138.5540 C   0  0  0  0  0  3  0  0  0  0  0  0
  180.1670  177.6950  139.7960 C   0  0  0  0  0  0  0  0  0  0  0  0
  180.2140  176.5150  140.5530 C   0  0  0  0  0  3  0  0  0  0  0  0
  179.6820  174.0960  140.8700 C   0  0  0  0  0  1  0  0  0  0  0  0
  178.9840  175.3500  138.8240 C   0  0  0  0  0  3  0  0  0  0  0  0
  179.6250  175.3440  140.0670 C   0  0  0  0  0  0  0  0  0  0  0  0
  178.9310  176.5250  138.0690 C   0  0  0  0  0  3  0  0  0  0  0  0
  183.6400  176.5880  138.7680 C   0  0  0  0  0  2  0  0  0  0  0  0
  182.8080  176.2850  137.5280 C   0  0  0  0  0  1  0  0  0  0  0  0
  187.7110  178.7760  139.4790 O   0  0  0  0  0  0  0  0  0  0  0  0
  188.8490  178.4960  138.7050 C   0  0  0  0  0  2  0  0  0  0  0  0
  189.0520  179.5270  137.7890 O   0  0  0  0  0  1  0  0  0  0  0  0
  1 20  1  0  0  0  0
  2  6  1  6  0  0  0
  2  7  1  0  0  0  0
  2 18  1  0  0  0  0
  3 35  1  6  0  0  0
  3 24  1  0  0  0  0
  4 17  1  1  0  0  0
  4  8  1  0  0  0  0
  5  9  1  0  0  0  0
  5 20  1  1  0  0  0
  7 11  1  6  0  0  0
  7  5  1  0  0  0  0
  8  6  1  1  0  0  0
 10 16  1  0  0  0  0
 10  3  1  0  0  0  0
 12 22  1  0  0  0  0
 13 18  1  0  0  0  0
 14  9  1  0  0  0  0
 15 19  1  6  0  0  0
 15 11  1  0  0  0  0
 15 12  1  0  0  0  0
 16 23  1  0  0  0  0
 18 14  2  0  0  0  0
 21 27  1  1  0  0  0
 21  8  1  0  0  0  0
 21 25  1  0  0  0  0
 22  1  1  0  0  0  0
 23 33  1  1  0  0  0
 23  4  1  0  0  0  0
 23 24  1  0  0  0  0
 24 19  1  1  0  0  0
 25 13  1  0  0  0  0
 26 27  1  0  0  0  0
 27 28  2  0  0  0  0
 30 31  2  0  0  0  0
 31 28  1  0  0  0  0
 31 29  1  0  0  0  0
 32 26  2  0  0  0  0
 32 30  1  0  0  0  0
 34 33  1  0  0  0  0
 36 35  1  0  0  0  0
 37 36  1  0  0  0  0
M  END
>  <MODEL>
9

>  <REMARK>
 VINA RESULT:      -3.9      3.224      4.978
  Name = 
  4 active torsions:
  status: ('A' for Active; 'I' for Inactive)
    1  A    between atoms: O_1  and  C_5
    2  A    between atoms: O_1  and  C_12
    3  A    between atoms: C_6  and  C_31
    4  A    between atoms: C_11  and  C_33
                            x       y       z     vdW  Elec       q    Type
                         _______ _______ _______ _____ _____    ______ ____

>  <TORSDO>
F 4

$$$$
