=
 OpenBabel10262419433D

 25 29  0  0  1  0  0  0  0  0999 V2000
  187.5730  177.5910  145.0280 C   0  0  0  0  0  0  0  0  0  0  0  0
  188.5770  176.9600  144.2940 C   0  0  0  0  0  0  0  0  0  0  0  0
  188.9870  177.7580  146.9650 C   0  0  0  0  0  3  0  0  0  0  0  0
  186.2820  177.9490  144.7260 C   0  0  0  0  0  0  0  0  0  0  0  0
  183.6860  178.9050  144.7490 C   0  0  0  0  0  3  0  0  0  0  0  0
  189.9760  177.1350  146.2580 N   0  0  0  0  0  0  0  0  0  0  0  0
  185.7780  178.5440  145.8650 C   0  0  0  0  0  0  0  0  0  0  0  0
  184.4740  179.0340  145.9080 C   0  0  0  0  0  3  0  0  0  0  0  0
  190.8930  176.0780  144.2240 C   0  0  0  0  0  0  0  0  0  0  0  0
  191.9460  175.7180  144.8150 O   0  0  0  0  0  0  0  0  0  0  0  0
  188.3480  176.4470  142.8950 C   0  0  0  0  0  2  0  0  0  0  0  0
  184.2080  178.2970  143.5870 C   0  0  0  0  0  3  0  0  0  0  0  0
  187.7700  177.9870  146.3320 C   0  0  2  0  0  3  0  0  0  0  0  0
  186.6790  178.5780  146.8730 N   0  0  0  0  0  0  0  0  0  0  0  0
  190.7390  175.8320  142.8230 N   0  0  0  0  0  2  0  0  0  0  0  0
  185.5260  177.8090  143.5640 C   0  0  0  0  0  3  0  0  0  0  0  0
  189.6390  176.4330  142.0670 C   0  0  2  0  0  3  0  0  0  0  0  0
  189.8040  176.7340  144.9570 C   0  0  0  0  0  0  0  0  0  0  0  0
  190.0010  177.8490  141.6370 C   0  0  0  0  0  2  0  0  0  0  0  0
  188.6320  178.4580  138.1250 N   0  0  0  0  0  0  0  0  0  0  0  0
  187.9290  178.7290  136.8380 C   0  0  0  0  0  2  0  0  0  0  0  0
  189.2540  178.3540  136.7740 C   0  0  0  0  0  2  0  0  0  0  0  0
  189.8910  177.9870  140.1910 N   0  0  0  0  0  2  0  0  0  0  0  0
  188.6750  178.3690  139.5440 C   0  0  0  0  0  0  0  0  0  0  0  0
  187.6430  178.6280  140.2180 O   0  0  0  0  0  0  0  0  0  0  0  0
  1 13  1  0  0  0  0
  2 18  2  0  0  0  0
  2  1  1  0  0  0  0
  4  1  2  0  0  0  0
  4  7  1  0  0  0  0
  5  8  2  0  0  0  0
  6  3  2  0  0  0  0
  7  8  1  0  0  0  0
  7 14  2  0  0  0  0
  9 10  2  0  0  0  0
  9 18  1  0  0  0  0
 11  2  1  0  0  0  0
 12  5  1  0  0  0  0
 13 14  1  0  0  0  0
 13  3  1  1  0  0  0
 15  9  1  0  0  0  0
 16 12  2  0  0  0  0
 16  4  1  0  0  0  0
 17 19  1  1  0  0  0
 17 15  1  0  0  0  0
 17 11  1  0  0  0  0
 18  6  1  0  0  0  0
 20 24  1  0  0  0  0
 21 20  1  0  0  0  0
 22 21  1  0  0  0  0
 22 20  1  0  0  0  0
 23 19  1  0  0  0  0
 24 23  1  0  0  0  0
 24 25  2  0  0  0  0
M  END
>  <MODEL>
1

>  <REMARK>
 VINA RESULT:      -9.7      0.000      0.000
  Name = 
  2 active torsions:
  status: ('A' for Active; 'I' for Inactive)
    1  A    between atoms: C_6  and  N_15
    2  A    between atoms: C_6  and  C_23
                            x       y       z     vdW  Elec       q    Type
                         _______ _______ _______ _____ _____    ______ ____

>  <TORSDO>
F 2

$$$$
=
 OpenBabel10262419433D

 25 29  0  0  1  0  0  0  0  0999 V2000
  187.3180  177.9800  145.8590 C   0  0  0  0  0  0  0  0  0  0  0  0
  188.5720  177.4020  145.6640 C   0  0  0  0  0  0  0  0  0  0  0  0
  187.8780  178.6190  148.1080 C   0  0  0  0  0  3  0  0  0  0  0  0
  186.2130  178.1050  145.0530 C   0  0  1  0  0  3  0  0  0  0  0  0
  183.7330  178.6750  143.9660 C   0  0  0  0  0  3  0  0  0  0  0  0
  189.1070  178.0490  147.9300 N   0  0  0  0  0  0  0  0  0  0  0  0
  185.2700  178.7760  145.8050 C   0  0  0  0  0  0  0  0  0  0  0  0
  184.0120  179.0760  145.2860 C   0  0  0  0  0  3  0  0  0  0  0  0
  190.8050  176.8580  146.5920 C   0  0  0  0  0  0  0  0  0  0  0  0
  191.5820  176.7390  147.5780 O   0  0  0  0  0  0  0  0  0  0  0  0
  188.9300  176.6700  144.3960 C   0  0  0  0  0  2  0  0  0  0  0  0
  184.7020  177.9900  143.2020 C   0  0  0  0  0  3  0  0  0  0  0  0
  186.9750  178.5800  147.0500 C   0  0  0  0  0  0  0  0  0  0  0  0
  185.7180  179.0800  147.0440 N   0  0  0  0  0  0  0  0  0  0  0  0
  191.2120  176.3980  145.3010 N   0  0  0  0  0  2  0  0  0  0  0  0
  185.9660  177.6960  143.7440 C   0  0  0  0  0  3  0  0  0  0  0  0
  190.4350  176.7230  144.1040 C   0  0  2  0  0  3  0  0  0  0  0  0
  189.4710  177.4490  146.7520 C   0  0  0  0  0  0  0  0  0  0  0  0
  190.8190  178.1020  143.5790 C   0  0  0  0  0  2  0  0  0  0  0  0
  189.9550  177.9240  139.8640 N   0  0  0  0  0  0  0  0  0  0  0  0
  189.7550  177.7220  138.4010 C   0  0  0  0  0  2  0  0  0  0  0  0
  189.0010  178.6970  139.0190 C   0  0  0  0  0  2  0  0  0  0  0  0
  190.2060  178.3430  142.2810 N   0  0  0  0  0  2  0  0  0  0  0  0
  190.5770  177.6180  141.1070 C   0  0  0  0  0  0  0  0  0  0  0  0
  191.4480  176.7090  141.1620 O   0  0  0  0  0  0  0  0  0  0  0  0
  1 13  1  0  0  0  0
  2  1  2  0  0  0  0
  2 18  1  0  0  0  0
  4 16  1  6  0  0  0
  4  7  1  0  0  0  0
  4  1  1  0  0  0  0
  5  8  2  0  0  0  0
  6  3  1  0  0  0  0
  7 14  2  0  0  0  0
  8  7  1  0  0  0  0
  9 18  1  0  0  0  0
  9 10  2  0  0  0  0
 11  2  1  0  0  0  0
 12 16  2  0  0  0  0
 12  5  1  0  0  0  0
 13  3  2  0  0  0  0
 14 13  1  0  0  0  0
 15  9  1  0  0  0  0
 17 19  1  1  0  0  0
 17 11  1  0  0  0  0
 17 15  1  0  0  0  0
 18  6  2  0  0  0  0
 20 24  1  0  0  0  0
 21 22  1  0  0  0  0
 21 20  1  0  0  0  0
 22 20  1  0  0  0  0
 23 19  1  0  0  0  0
 24 25  2  0  0  0  0
 24 23  1  0  0  0  0
M  END
>  <MODEL>
2

>  <REMARK>
 VINA RESULT:      -9.6      1.624      2.007
  Name = 
  2 active torsions:
  status: ('A' for Active; 'I' for Inactive)
    1  A    between atoms: C_6  and  N_15
    2  A    between atoms: C_6  and  C_23
                            x       y       z     vdW  Elec       q    Type
                         _______ _______ _______ _____ _____    ______ ____

>  <TORSDO>
F 2

$$$$
=
 OpenBabel10262419433D

 25 29  0  0  1  0  0  0  0  0999 V2000
  185.9220  178.1230  145.0230 C   0  0  0  0  0  0  0  0  0  0  0  0
  187.1880  177.5410  145.0900 C   0  0  0  0  0  0  0  0  0  0  0  0
  186.0290  178.8010  147.3270 C   0  0  0  0  0  3  0  0  0  0  0  0
  184.9990  178.2340  144.0130 C   0  0  0  0  0  0  0  0  0  0  0  0
  182.7850  178.7850  142.4470 C   0  0  0  0  0  3  0  0  0  0  0  0
  187.2660  178.2290  147.4060 N   0  0  0  0  0  0  0  0  0  0  0  0
  183.9280  178.9180  144.5520 C   0  0  0  0  0  0  0  0  0  0  0  0
  182.7990  179.2090  143.7890 C   0  0  0  0  0  2  0  0  0  0  0  0
  189.1920  177.0130  146.4520 C   0  0  0  0  0  0  0  0  0  0  0  0
  189.7570  176.9120  147.5730 O   0  0  0  0  0  0  0  0  0  0  0  0
  187.7870  176.7870  143.9310 C   0  0  0  0  0  2  0  0  0  0  0  0
  183.8840  178.0860  141.9030 C   0  0  0  0  0  3  0  0  0  0  0  0
  185.3530  178.7440  146.1130 C   0  0  0  0  0  0  0  0  0  0  0  0
  184.1240  179.2440  145.8500 N   0  0  0  0  0  0  0  0  0  0  0  0
  189.8440  176.5300  145.2750 N   0  0  0  0  0  2  0  0  0  0  0  0
  185.0140  177.8020  142.6880 C   0  0  0  0  0  3  0  0  0  0  0  0
  189.3200  176.8350  143.9410 C   0  0  2  0  0  3  0  0  0  0  0  0
  187.8540  177.6080  146.3340 C   0  0  0  0  0  0  0  0  0  0  0  0
  189.8050  178.2040  143.4800 C   0  0  0  0  0  2  0  0  0  0  0  0
  189.6230  177.8930  139.6790 N   0  0  0  0  0  0  0  0  0  0  0  0
  189.6760  177.6270  138.2120 C   0  0  0  0  0  2  0  0  0  0  0  0
  188.9100  178.6910  138.6400 C   0  0  0  0  0  2  0  0  0  0  0  0
  189.4630  178.4210  142.0810 N   0  0  0  0  0  2  0  0  0  0  0  0
  189.9780  177.6060  141.0260 C   0  0  0  0  0  0  0  0  0  0  0  0
  190.7410  176.6360  141.2780 O   0  0  0  0  0  0  0  0  0  0  0  0
  1  2  2  0  0  0  0
  1 13  1  0  0  0  0
  2 18  1  0  0  0  0
  3  6  1  0  0  0  0
  4  7  1  0  0  0  0
  4  1  1  0  0  0  0
  5  8  1  0  0  0  0
  7 14  2  0  0  0  0
  8  7  1  0  0  0  0
  9 10  2  0  0  0  0
 11 17  1  0  0  0  0
 11  2  1  0  0  0  0
 12  5  2  0  0  0  0
 12 16  1  0  0  0  0
 13  3  2  0  0  0  0
 14 13  1  0  0  0  0
 15  9  1  0  0  0  0
 16  4  2  0  0  0  0
 17 19  1  1  0  0  0
 17 15  1  0  0  0  0
 18  9  1  0  0  0  0
 18  6  2  0  0  0  0
 20 24  1  0  0  0  0
 21 22  1  0  0  0  0
 21 20  1  0  0  0  0
 22 20  1  0  0  0  0
 23 19  1  0  0  0  0
 24 25  2  0  0  0  0
 24 23  1  0  0  0  0
M  END
>  <MODEL>
3

>  <REMARK>
 VINA RESULT:      -9.6      1.628      2.425
  Name = 
  2 active torsions:
  status: ('A' for Active; 'I' for Inactive)
    1  A    between atoms: C_6  and  N_15
    2  A    between atoms: C_6  and  C_23
                            x       y       z     vdW  Elec       q    Type
                         _______ _______ _______ _____ _____    ______ ____

>  <TORSDO>
F 2

$$$$
=
 OpenBabel10262419433D

 25 29  0  0  1  0  0  0  0  0999 V2000
  188.3650  177.6720  144.1350 C   0  0  0  0  0  0  0  0  0  0  0  0
  188.3340  178.0310  142.7870 C   0  0  0  0  0  0  0  0  0  0  0  0
  185.9690  177.7730  144.2960 C   0  0  0  0  0  3  0  0  0  0  0  0
  189.3920  177.3900  145.0010 C   0  0  1  0  0  3  0  0  0  0  0  0
  190.9590  176.7260  147.1830 C   0  0  0  0  0  3  0  0  0  0  0  0
  185.9260  178.1320  142.9790 N   0  0  0  0  0  0  0  0  0  0  0  0
  188.7980  177.1020  146.2130 C   0  0  0  0  0  0  0  0  0  0  0  0
  189.5590  176.7650  147.3300 C   0  0  0  0  0  3  0  0  0  0  0  0
  186.9780  178.6410  140.8040 C   0  0  0  0  0  0  0  0  0  0  0  0
  185.8850  179.0090  140.2960 O   0  0  0  0  0  0  0  0  0  0  0  0
  189.5910  178.2590  141.9880 C   0  0  0  0  0  2  0  0  0  0  0  0
  191.5600  177.0210  145.9410 C   0  0  0  0  0  3  0  0  0  0  0  0
  187.2110  177.5410  144.8750 C   0  0  0  0  0  0  0  0  0  0  0  0
  187.4490  177.1890  146.1600 N   0  0  0  0  0  0  0  0  0  0  0  0
  188.1610  178.6020  140.0030 N   0  0  0  0  0  2  0  0  0  0  0  0
  190.7740  177.3590  144.8250 C   0  0  0  0  0  3  0  0  0  0  0  0
  189.3870  177.9700  140.4960 C   0  0  2  0  0  3  0  0  0  0  0  0
  187.0610  178.2660  142.2210 C   0  0  0  0  0  0  0  0  0  0  0  0
  189.3420  176.4650  140.2550 C   0  0  0  0  0  2  0  0  0  0  0  0
  191.8480  175.4340  137.5650 N   0  0  0  0  0  0  0  0  0  0  0  0
  192.6860  175.0630  136.3880 C   0  0  0  0  0  2  0  0  0  0  0  0
  193.2510  174.9360  137.6400 C   0  0  0  0  0  2  0  0  0  0  0  0
  190.5530  176.0200  139.5790 N   0  0  0  0  0  2  0  0  0  0  0  0
  190.6420  175.9010  138.1570 C   0  0  0  0  0  0  0  0  0  0  0  0
  189.6640  176.2080  137.4250 O   0  0  0  0  0  0  0  0  0  0  0  0
  1 13  2  0  0  0  0
  1  4  1  0  0  0  0
  2  1  1  0  0  0  0
  3 13  1  0  0  0  0
  4 16  1  6  0  0  0
  4  7  1  0  0  0  0
  5  8  2  0  0  0  0
  6  3  2  0  0  0  0
  7  8  1  0  0  0  0
  9 18  1  0  0  0  0
 10  9  2  0  0  0  0
 11  2  1  0  0  0  0
 12  5  1  0  0  0  0
 13 14  1  0  0  0  0
 14  7  2  0  0  0  0
 15 17  1  0  0  0  0
 15  9  1  0  0  0  0
 16 12  2  0  0  0  0
 17 19  1  1  0  0  0
 17 11  1  0  0  0  0
 18  2  2  0  0  0  0
 18  6  1  0  0  0  0
 20 22  1  0  0  0  0
 20 24  1  0  0  0  0
 21 20  1  0  0  0  0
 21 22  1  0  0  0  0
 23 19  1  0  0  0  0
 24 23  1  0  0  0  0
 25 24  2  0  0  0  0
M  END
>  <MODEL>
4

>  <REMARK>
 VINA RESULT:      -8.3      2.512      4.640
  Name = 
  2 active torsions:
  status: ('A' for Active; 'I' for Inactive)
    1  A    between atoms: C_6  and  N_15
    2  A    between atoms: C_6  and  C_23
                            x       y       z     vdW  Elec       q    Type
                         _______ _______ _______ _____ _____    ______ ____

>  <TORSDO>
F 2

$$$$
=
 OpenBabel10262419433D

 25 29  0  0  1  0  0  0  0  0999 V2000
  187.1110  177.9260  142.8150 C   0  0  0  0  0  0  0  0  0  0  0  0
  186.3020  177.8900  143.9520 C   0  0  0  0  0  0  0  0  0  0  0  0
  185.6790  179.5390  141.7550 C   0  0  0  0  0  3  0  0  0  0  0  0
  188.2660  177.2680  142.4710 C   0  0  0  0  0  0  0  0  0  0  0  0
  190.5340  176.3050  141.2140 C   0  0  0  0  0  3  0  0  0  0  0  0
  184.8760  179.5070  142.8600 N   0  0  0  0  0  0  0  0  0  0  0  0
  188.5980  177.7200  141.2110 C   0  0  0  0  0  0  0  0  0  0  0  0
  189.7330  177.2540  140.5510 C   0  0  0  0  0  2  0  0  0  0  0  0
  184.2750  178.7120  145.1190 C   0  0  0  0  0  0  0  0  0  0  0  0
  183.1650  179.3080  145.0960 O   0  0  0  0  0  0  0  0  0  0  0  0
  186.5710  176.9490  145.0980 C   0  0  0  0  0  2  0  0  0  0  0  0
  190.1890  175.8470  142.5030 C   0  0  0  0  0  3  0  0  0  0  0  0
  186.8120  178.7340  141.7410 C   0  0  0  0  0  0  0  0  0  0  0  0
  187.7130  178.6280  140.7370 N   0  0  0  0  0  0  0  0  0  0  0  0
  184.6860  178.0080  146.2940 N   0  0  0  0  0  2  0  0  0  0  0  0
  189.0400  176.3300  143.1530 C   0  0  0  0  0  3  0  0  0  0  0  0
  186.0540  177.5030  146.4320 C   0  0  2  0  0  3  0  0  0  0  0  0
  185.1540  178.7130  143.9430 C   0  0  0  0  0  0  0  0  0  0  0  0
  186.9790  178.6040  146.9370 C   0  0  0  0  0  2  0  0  0  0  0  0
  190.3790  176.8790  147.1340 N   0  0  0  0  0  0  0  0  0  0  0  0
  191.6290  176.0930  147.3430 C   0  0  0  0  0  2  0  0  0  0  0  0
  191.6810  177.1480  146.4570 C   0  0  0  0  0  2  0  0  0  0  0  0
  188.3710  178.2450  146.7090 N   0  0  0  0  0  2  0  0  0  0  0  0
  189.0070  177.1570  147.3840 C   0  0  0  0  0  0  0  0  0  0  0  0
  188.3630  176.4420  148.1970 O   0  0  0  0  0  0  0  0  0  0  0  0
  1  2  2  0  0  0  0
  2 11  1  0  0  0  0
  3  6  1  0  0  0  0
  4  1  1  0  0  0  0
  4 16  2  0  0  0  0
  5 12  2  0  0  0  0
  6 18  2  0  0  0  0
  7  4  1  0  0  0  0
  8  7  1  0  0  0  0
  8  5  1  0  0  0  0
  9 15  1  0  0  0  0
 10  9  2  0  0  0  0
 11 17  1  0  0  0  0
 12 16  1  0  0  0  0
 13  3  2  0  0  0  0
 13  1  1  0  0  0  0
 14  7  2  0  0  0  0
 14 13  1  0  0  0  0
 15 17  1  0  0  0  0
 17 19  1  6  0  0  0
 18  2  1  0  0  0  0
 18  9  1  0  0  0  0
 20 21  1  0  0  0  0
 20 24  1  0  0  0  0
 22 20  1  0  0  0  0
 22 21  1  0  0  0  0
 23 19  1  0  0  0  0
 23 24  1  0  0  0  0
 24 25  2  0  0  0  0
M  END
>  <MODEL>
5

>  <REMARK>
 VINA RESULT:      -8.1      2.571      6.860
  Name = 
  2 active torsions:
  status: ('A' for Active; 'I' for Inactive)
    1  A    between atoms: C_6  and  N_15
    2  A    between atoms: C_6  and  C_23
                            x       y       z     vdW  Elec       q    Type
                         _______ _______ _______ _____ _____    ______ ____

>  <TORSDO>
F 2

$$$$
=
 OpenBabel10262419433D

 25 29  0  0  1  0  0  0  0  0999 V2000
  189.4530  177.5860  143.9720 C   0  0  0  0  0  0  0  0  0  0  0  0
  189.7200  177.3050  142.6320 C   0  0  0  0  0  0  0  0  0  0  0  0
  191.7320  178.2430  144.3670 C   0  0  0  0  0  3  0  0  0  0  0  0
  188.3150  177.4980  144.7350 C   0  0  0  0  0  0  0  0  0  0  0  0
  186.4260  177.5540  146.7570 C   0  0  0  0  0  3  0  0  0  0  0  0
  192.0060  177.9640  143.0580 N   0  0  0  0  0  0  0  0  0  0  0  0
  188.6740  177.9160  146.0000 C   0  0  0  0  0  0  0  0  0  0  0  0
  187.7460  177.9540  147.0400 C   0  0  0  0  0  3  0  0  0  0  0  0
  191.3750  177.2260  140.7880 C   0  0  0  0  0  0  0  0  0  0  0  0
  192.5690  177.2410  140.3880 O   0  0  0  0  0  0  0  0  0  0  0  0
  188.6790  176.7190  141.7130 C   0  0  0  0  0  2  0  0  0  0  0  0
  186.0660  177.1280  145.4600 C   0  0  0  0  0  3  0  0  0  0  0  0
  190.4320  178.0500  144.8230 C   0  0  2  0  0  3  0  0  0  0  0  0
  189.9790  178.2620  146.0800 N   0  0  0  0  0  0  0  0  0  0  0  0
  190.3180  176.9170  139.8750 N   0  0  0  0  0  2  0  0  0  0  0  0
  187.0170  177.0970  144.4250 C   0  0  0  0  0  3  0  0  0  0  0  0
  188.9160  177.1110  140.2490 C   0  0  2  0  0  3  0  0  0  0  0  0
  191.0470  177.5050  142.1920 C   0  0  0  0  0  0  0  0  0  0  0  0
  188.5010  178.5600  140.0210 C   0  0  0  0  0  2  0  0  0  0  0  0
  184.7010  178.8890  139.8510 N   0  0  0  0  0  0  0  0  0  0  0  0
  183.2220  179.0380  139.9740 C   0  0  0  0  0  2  0  0  0  0  0  0
  183.7360  178.7910  138.7180 C   0  0  0  0  0  2  0  0  0  0  0  0
  187.1310  178.6280  139.5310 N   0  0  0  0  0  2  0  0  0  0  0  0
  186.0160  178.8620  140.3930 C   0  0  0  0  0  0  0  0  0  0  0  0
  186.1860  179.0470  141.6280 O   0  0  0  0  0  0  0  0  0  0  0  0
  1  4  2  0  0  0  0
  1 13  1  0  0  0  0
  2  1  1  0  0  0  0
  4  7  1  0  0  0  0
  5  8  2  0  0  0  0
  6  3  2  0  0  0  0
  7 14  2  0  0  0  0
  7  8  1  0  0  0  0
  9 18  1  0  0  0  0
 10  9  2  0  0  0  0
 11  2  1  0  0  0  0
 12  5  1  0  0  0  0
 13  3  1  1  0  0  0
 13 14  1  0  0  0  0
 15 17  1  0  0  0  0
 15  9  1  0  0  0  0
 16  4  1  0  0  0  0
 16 12  2  0  0  0  0
 17 19  1  1  0  0  0
 17 11  1  0  0  0  0
 18  2  2  0  0  0  0
 18  6  1  0  0  0  0
 20 21  1  0  0  0  0
 20 24  1  0  0  0  0
 22 20  1  0  0  0  0
 22 21  1  0  0  0  0
 23 19  1  0  0  0  0
 23 24  1  0  0  0  0
 24 25  2  0  0  0  0
M  END
>  <MODEL>
6

>  <REMARK>
 VINA RESULT:      -8.0      2.249      3.367
  Name = 
  2 active torsions:
  status: ('A' for Active; 'I' for Inactive)
    1  A    between atoms: C_6  and  N_15
    2  A    between atoms: C_6  and  C_23
                            x       y       z     vdW  Elec       q    Type
                         _______ _______ _______ _____ _____    ______ ____

>  <TORSDO>
F 2

$$$$
=
 OpenBabel10262419433D

 25 29  0  0  1  0  0  0  0  0999 V2000
  187.4890  177.8280  142.9480 C   0  0  0  0  0  0  0  0  0  0  0  0
  186.2870  178.4510  143.2840 C   0  0  0  0  0  0  0  0  0  0  0  0
  187.7050  176.8870  145.1490 C   0  0  0  0  0  3  0  0  0  0  0  0
  188.2330  177.7980  141.7940 C   0  0  0  0  0  0  0  0  0  0  0  0
  190.1350  177.3440  139.8370 C   0  0  0  0  0  3  0  0  0  0  0  0
  186.5330  177.4980  145.4920 N   0  0  0  0  0  0  0  0  0  0  0  0
  189.3310  177.0110  142.0720 C   0  0  0  0  0  0  0  0  0  0  0  0
  190.3070  176.7640  141.1080 C   0  0  0  0  0  2  0  0  0  0  0  0
  184.5590  178.8990  145.0040 C   0  0  0  0  0  0  0  0  0  0  0  0
  184.1840  178.8910  146.2070 O   0  0  0  0  0  0  0  0  0  0  0  0
  185.5600  179.3620  142.3280 C   0  0  0  0  0  2  0  0  0  0  0  0
  189.0090  178.1480  139.5590 C   0  0  0  0  0  3  0  0  0  0  0  0
  188.1830  177.0590  143.8550 C   0  0  0  0  0  0  0  0  0  0  0  0
  189.3230  176.5420  143.3410 N   0  0  0  0  0  0  0  0  0  0  0  0
  183.7590  179.5450  144.0100 N   0  0  0  0  0  2  0  0  0  0  0  0
  188.0350  178.3850  140.5450 C   0  0  0  0  0  3  0  0  0  0  0  0
  184.0470  179.3780  142.5840 C   0  0  2  0  0  3  0  0  0  0  0  0
  185.8220  178.2660  144.6050 C   0  0  0  0  0  0  0  0  0  0  0  0
  183.4130  178.0950  142.0600 C   0  0  0  0  0  2  0  0  0  0  0  0
  183.3900  177.0360  138.3920 N   0  0  0  0  0  0  0  0  0  0  0  0
  183.2040  176.5570  136.9910 C   0  0  0  0  0  2  0  0  0  0  0  0
  184.4300  177.0940  137.3250 C   0  0  0  0  0  2  0  0  0  0  0  0
  183.8070  177.8590  140.6780 N   0  0  0  0  0  2  0  0  0  0  0  0
  182.9300  177.2620  139.7190 C   0  0  0  0  0  0  0  0  0  0  0  0
  181.7560  176.9370  140.0380 O   0  0  0  0  0  0  0  0  0  0  0  0
  1  2  2  0  0  0  0
  1 13  1  0  0  0  0
  2 18  1  0  0  0  0
  3  6  1  0  0  0  0
  4  7  1  0  0  0  0
  4  1  1  0  0  0  0
  5  8  1  0  0  0  0
  7 14  2  0  0  0  0
  8  7  1  0  0  0  0
  9 10  2  0  0  0  0
 11 17  1  0  0  0  0
 11  2  1  0  0  0  0
 12  5  2  0  0  0  0
 12 16  1  0  0  0  0
 13  3  2  0  0  0  0
 14 13  1  0  0  0  0
 15  9  1  0  0  0  0
 16  4  2  0  0  0  0
 17 19  1  1  0  0  0
 17 15  1  0  0  0  0
 18  9  1  0  0  0  0
 18  6  2  0  0  0  0
 20 24  1  0  0  0  0
 21 22  1  0  0  0  0
 21 20  1  0  0  0  0
 22 20  1  0  0  0  0
 23 19  1  0  0  0  0
 24 25  2  0  0  0  0
 24 23  1  0  0  0  0
M  END
>  <MODEL>
7

>  <REMARK>
 VINA RESULT:      -7.6      3.183      5.599
  Name = 
  2 active torsions:
  status: ('A' for Active; 'I' for Inactive)
    1  A    between atoms: C_6  and  N_15
    2  A    between atoms: C_6  and  C_23
                            x       y       z     vdW  Elec       q    Type
                         _______ _______ _______ _____ _____    ______ ____

>  <TORSDO>
F 2

$$$$
=
 OpenBabel10262419433D

 25 29  0  0  1  0  0  0  0  0999 V2000
  188.8920  177.7620  141.7490 C   0  0  0  0  0  0  0  0  0  0  0  0
  189.2390  177.8550  140.4010 C   0  0  0  0  0  0  0  0  0  0  0  0
  186.6560  178.5260  141.3040 C   0  0  0  0  0  3  0  0  0  0  0  0
  189.5910  177.3850  142.8690 C   0  0  1  0  0  3  0  0  0  0  0  0
  190.4170  176.7530  145.4330 C   0  0  0  0  0  3  0  0  0  0  0  0
  186.9870  178.6280  139.9820 N   0  0  0  0  0  0  0  0  0  0  0  0
  188.7090  177.5000  143.9230 C   0  0  0  0  0  0  0  0  0  0  0  0
  189.0950  177.1900  145.2260 C   0  0  0  0  0  3  0  0  0  0  0  0
  188.5540  178.4180  138.0860 C   0  0  0  0  0  0  0  0  0  0  0  0
  187.7480  178.9610  137.2850 O   0  0  0  0  0  0  0  0  0  0  0  0
  190.6390  177.5850  139.9130 C   0  0  0  0  0  2  0  0  0  0  0  0
  191.3140  176.6370  144.3500 C   0  0  0  0  0  3  0  0  0  0  0  0
  187.6290  178.0850  142.1940 C   0  0  0  0  0  0  0  0  0  0  0  0
  187.4890  177.9320  143.5310 N   0  0  0  0  0  0  0  0  0  0  0  0
  189.8050  177.9140  137.6110 N   0  0  0  0  0  2  0  0  0  0  0  0
  190.9050  176.9540  143.0420 C   0  0  0  0  0  3  0  0  0  0  0  0
  190.6580  177.0830  138.4630 C   0  0  2  0  0  3  0  0  0  0  0  0
  188.2370  178.3090  139.5150 C   0  0  0  0  0  0  0  0  0  0  0  0
  190.2090  175.6280  138.4060 C   0  0  0  0  0  2  0  0  0  0  0  0
  192.1640  173.0310  136.4020 N   0  0  0  0  0  0  0  0  0  0  0  0
  192.7620  171.9790  135.5310 C   0  0  0  0  0  2  0  0  0  0  0  0
  193.5810  172.5720  136.4690 C   0  0  0  0  0  2  0  0  0  0  0  0
  191.2790  174.7830  137.8940 N   0  0  0  0  0  2  0  0  0  0  0  0
  191.0790  173.8440  136.8350 C   0  0  0  0  0  0  0  0  0  0  0  0
  189.9540  173.7310  136.2810 O   0  0  0  0  0  0  0  0  0  0  0  0
  1 13  2  0  0  0  0
  1  4  1  0  0  0  0
  2  1  1  0  0  0  0
  3 13  1  0  0  0  0
  4 16  1  6  0  0  0
  4  7  1  0  0  0  0
  6  3  2  0  0  0  0
  7  8  1  0  0  0  0
  8  5  2  0  0  0  0
  9 18  1  0  0  0  0
 10  9  2  0  0  0  0
 11  2  1  0  0  0  0
 12  5  1  0  0  0  0
 13 14  1  0  0  0  0
 14  7  2  0  0  0  0
 15  9  1  0  0  0  0
 15 17  1  0  0  0  0
 16 12  2  0  0  0  0
 17 19  1  1  0  0  0
 17 11  1  0  0  0  0
 18  6  1  0  0  0  0
 18  2  2  0  0  0  0
 20 22  1  0  0  0  0
 20 24  1  0  0  0  0
 21 20  1  0  0  0  0
 21 22  1  0  0  0  0
 23 19  1  0  0  0  0
 24 23  1  0  0  0  0
 25 24  2  0  0  0  0
M  END
>  <MODEL>
8

>  <REMARK>
 VINA RESULT:      -7.5      3.511      5.810
  Name = 
  2 active torsions:
  status: ('A' for Active; 'I' for Inactive)
    1  A    between atoms: C_6  and  N_15
    2  A    between atoms: C_6  and  C_23
                            x       y       z     vdW  Elec       q    Type
                         _______ _______ _______ _____ _____    ______ ____

>  <TORSDO>
F 2

$$$$
=
 OpenBabel10262419433D

 25 29  0  0  1  0  0  0  0  0999 V2000
  189.7560  177.5590  144.6100 C   0  0  0  0  0  0  0  0  0  0  0  0
  189.5090  177.3340  143.2560 C   0  0  0  0  0  0  0  0  0  0  0  0
  192.0570  178.1070  144.1770 C   0  0  0  0  0  3  0  0  0  0  0  0
  188.9650  177.4760  145.7290 C   0  0  1  0  0  3  0  0  0  0  0  0
  187.9330  177.5020  148.2960 C   0  0  0  0  0  3  0  0  0  0  0  0
  191.8280  177.8830  142.8490 N   0  0  0  0  0  0  0  0  0  0  0  0
  189.7750  177.8160  146.7930 C   0  0  0  0  0  0  0  0  0  0  0  0
  189.2860  177.8370  148.0970 C   0  0  0  0  0  3  0  0  0  0  0  0
  190.3850  177.2850  140.9370 C   0  0  0  0  0  0  0  0  0  0  0  0
  191.3560  177.2750  140.1340 O   0  0  0  0  0  0  0  0  0  0  0  0
  188.1780  176.8360  142.7550 C   0  0  0  0  0  2  0  0  0  0  0  0
  187.1090  177.1560  147.2040 C   0  0  0  0  0  3  0  0  0  0  0  0
  190.9990  177.9410  145.0650 C   0  0  0  0  0  0  0  0  0  0  0  0
  191.0390  178.1070  146.4070 N   0  0  0  0  0  0  0  0  0  0  0  0
  189.0570  177.0630  140.4570 N   0  0  0  0  0  2  0  0  0  0  0  0
  187.6220  177.1410  145.8950 C   0  0  0  0  0  3  0  0  0  0  0  0
  187.8940  177.2920  141.3180 C   0  0  2  0  0  3  0  0  0  0  0  0
  190.5980  177.5050  142.3730 C   0  0  0  0  0  0  0  0  0  0  0  0
  187.5040  178.7650  141.3030 C   0  0  0  0  0  2  0  0  0  0  0  0
  184.0970  179.0530  143.0030 N   0  0  0  0  0  0  0  0  0  0  0  0
  182.6940  179.0980  143.5040 C   0  0  0  0  0  2  0  0  0  0  0  0
  183.6840  179.5730  144.3380 C   0  0  0  0  0  2  0  0  0  0  0  0
  186.4530  179.0250  142.2770 N   0  0  0  0  0  2  0  0  0  0  0  0
  185.0750  178.7490  142.0150 C   0  0  0  0  0  0  0  0  0  0  0  0
  184.7200  178.2390  140.9200 O   0  0  0  0  0  0  0  0  0  0  0  0
  1 13  2  0  0  0  0
  1  4  1  0  0  0  0
  2  1  1  0  0  0  0
  3 13  1  0  0  0  0
  4 16  1  6  0  0  0
  4  7  1  0  0  0  0
  6  3  2  0  0  0  0
  7  8  1  0  0  0  0
  8  5  2  0  0  0  0
  9 18  1  0  0  0  0
 10  9  2  0  0  0  0
 11  2  1  0  0  0  0
 12  5  1  0  0  0  0
 13 14  1  0  0  0  0
 14  7  2  0  0  0  0
 15  9  1  0  0  0  0
 15 17  1  0  0  0  0
 16 12  2  0  0  0  0
 17 19  1  1  0  0  0
 17 11  1  0  0  0  0
 18  6  1  0  0  0  0
 18  2  2  0  0  0  0
 19 23  1  0  0  0  0
 20 21  1  0  0  0  0
 20 22  1  0  0  0  0
 21 22  1  0  0  0  0
 24 23  1  0  0  0  0
 24 20  1  0  0  0  0
 25 24  2  0  0  0  0
M  END
>  <MODEL>
9

>  <REMARK>
 VINA RESULT:      -7.4      2.415      4.522
  Name = 
  2 active torsions:
  status: ('A' for Active; 'I' for Inactive)
    1  A    between atoms: C_6  and  N_15
    2  A    between atoms: C_6  and  C_23
                            x       y       z     vdW  Elec       q    Type
                         _______ _______ _______ _____ _____    ______ ____

>  <TORSDO>
F 2

$$$$
