=
 OpenBabel10262419493D

 25 28  0  0  1  0  0  0  0  0999 V2000
  187.3070  177.7880  145.7440 C   0  0  0  0  0  0  0  0  0  0  0  0
  188.6520  177.3680  145.5160 C   0  0  2  0  0  3  0  0  0  0  0  0
  187.7520  178.1350  148.1100 C   0  0  0  0  0  3  0  0  0  0  0  0
  186.1610  178.0660  144.8640 C   0  0  0  0  0  0  0  0  0  0  0  0
  183.7600  178.8610  143.6820 C   0  0  0  0  0  3  0  0  0  0  0  0
  189.0890  177.7960  147.9000 C   0  0  0  0  0  3  0  0  0  0  0  0
  185.0960  178.4850  145.6450 C   0  0  0  0  0  0  0  0  0  0  0  0
  183.8850  178.8830  145.0770 C   0  0  0  0  0  3  0  0  0  0  0  0
  191.3430  176.7100  145.2790 C   0  0  0  0  0  3  0  0  0  0  0  0
  190.8540  177.1130  146.4730 N   0  0  0  0  0  0  0  0  0  0  0  0
  189.1880  176.8790  144.2950 C   0  0  0  0  0  0  0  0  0  0  0  0
  184.8440  178.4670  142.8810 C   0  0  0  0  0  3  0  0  0  0  0  0
  186.8810  178.1220  147.0290 C   0  0  0  0  0  0  0  0  0  0  0  0
  185.4470  178.5390  147.0890 C   0  0  0  0  0  3  0  0  0  0  0  0
  190.5130  176.5840  144.2160 N   0  0  0  0  0  0  0  0  0  0  0  0
  186.0560  178.0820  143.4710 C   0  0  0  0  0  3  0  0  0  0  0  0
  189.5430  177.4270  146.6260 C   0  0  0  0  0  0  0  0  0  0  0  0
  188.3550  176.5090  143.1150 C   0  0  0  0  0  2  0  0  0  0  0  0
  189.0970  176.7810  141.8110 C   0  0  0  0  0  2  0  0  0  0  0  0
  188.8340  178.1920  141.2990 C   0  0  0  0  0  2  0  0  0  0  0  0
  188.1870  178.1760  139.9450 C   0  0  0  0  0  0  0  0  0  0  0  0
  187.0330  178.5550  139.8250 O   0  0  0  0  0  0  0  0  0  0  0  0
  188.9360  177.7130  138.7340 C   0  0  1  0  0  3  0  0  0  0  0  0
  188.3180  176.5910  138.1860 O   0  0  0  0  0  1  0  0  0  0  0  0
  189.0340  178.8110  137.6910 C   0  0  0  0  0  1  0  0  0  0  0  0
  1 13  1  0  0  0  0
  2 11  1  1  0  0  0
  2  1  1  0  0  0  0
  2 17  1  0  0  0  0
  4  7  1  0  0  0  0
  4  1  2  0  0  0  0
  5  8  2  0  0  0  0
  6  3  1  0  0  0  0
  7 14  2  0  0  0  0
  8  7  1  0  0  0  0
  9 10  2  0  0  0  0
 10 17  1  0  0  0  0
 12 16  2  0  0  0  0
 12  5  1  0  0  0  0
 13 14  1  0  0  0  0
 13  3  2  0  0  0  0
 15 11  2  0  0  0  0
 15  9  1  0  0  0  0
 16  4  1  0  0  0  0
 17  6  2  0  0  0  0
 18 11  1  0  0  0  0
 19 18  1  0  0  0  0
 20 19  1  0  0  0  0
 21 20  1  0  0  0  0
 22 21  2  0  0  0  0
 23 25  1  6  0  0  0
 23 21  1  0  0  0  0
 24 23  1  0  0  0  0
M  END
>  <MODEL>
1

>  <REMARK>
 VINA RESULT:     -10.5      0.000      0.000
  Name = 
  5 active torsions:
  status: ('A' for Active; 'I' for Inactive)
    1  A    between atoms: C_2  and  C_21
    2  A    between atoms: C_6  and  C_15
    3  A    between atoms: C_6  and  C_23
    4  A    between atoms: C_15  and  C_21
    5  A    between atoms: C_16  and  C_23
                            x       y       z     vdW  Elec       q    Type
                         _______ _______ _______ _____ _____    ______ ____

>  <TORSDO>
F 5

$$$$
=
 OpenBabel10262419493D

 25 28  0  0  1  0  0  0  0  0999 V2000
  187.5650  177.7180  145.8910 C   0  0  0  0  0  0  0  0  0  0  0  0
  188.9340  177.3140  145.8880 C   0  0  2  0  0  3  0  0  0  0  0  0
  187.6380  178.1610  148.2810 C   0  0  0  0  0  3  0  0  0  0  0  0
  186.5650  177.9420  144.8360 C   0  0  0  0  0  0  0  0  0  0  0  0
  184.3640  178.6490  143.2700 C   0  0  0  0  0  3  0  0  0  0  0  0
  188.9950  177.8380  148.2930 C   0  0  0  0  0  3  0  0  0  0  0  0
  185.3870  178.3710  145.4280 C   0  0  0  0  0  0  0  0  0  0  0  0
  184.2730  178.7250  144.6660 C   0  0  0  0  0  3  0  0  0  0  0  0
  191.6370  176.6950  146.0910 C   0  0  0  0  0  3  0  0  0  0  0  0
  190.9660  177.1340  147.1800 N   0  0  0  0  0  0  0  0  0  0  0  0
  189.6570  176.7880  144.7850 C   0  0  0  0  0  0  0  0  0  0  0  0
  185.5630  178.2440  142.6610 C   0  0  0  0  0  3  0  0  0  0  0  0
  186.9430  178.0920  147.0810 C   0  0  0  0  0  0  0  0  0  0  0  0
  185.5130  178.4850  146.9050 C   0  0  0  0  0  3  0  0  0  0  0  0
  190.9820  176.5150  144.9200 N   0  0  0  0  0  0  0  0  0  0  0  0
  186.6750  177.9040  143.4430 C   0  0  0  0  0  3  0  0  0  0  0  0
  189.6440  177.4300  147.1190 C   0  0  0  0  0  0  0  0  0  0  0  0
  189.0200  176.3600  143.5070 C   0  0  0  0  0  2  0  0  0  0  0  0
  190.0700  176.0200  142.4540 C   0  0  0  0  0  2  0  0  0  0  0  0
  190.3750  177.2150  141.5590 C   0  0  0  0  0  2  0  0  0  0  0  0
  189.9720  176.9570  140.1370 C   0  0  0  0  0  0  0  0  0  0  0  0
  190.5880  176.1370  139.4750 O   0  0  0  0  0  0  0  0  0  0  0  0
  188.8160  177.6790  139.5170 C   0  0  1  0  0  3  0  0  0  0  0  0
  188.3160  178.6340  140.4010 O   0  0  0  0  0  1  0  0  0  0  0  0
  189.2130  178.3400  138.2100 C   0  0  0  0  0  1  0  0  0  0  0  0
  1 13  1  0  0  0  0
  2 11  1  1  0  0  0
  2  1  1  0  0  0  0
  2 17  1  0  0  0  0
  3  6  1  0  0  0  0
  4  7  1  0  0  0  0
  4  1  2  0  0  0  0
  5  8  2  0  0  0  0
  7 14  2  0  0  0  0
  8  7  1  0  0  0  0
  9 10  2  0  0  0  0
 11 15  2  0  0  0  0
 12  5  1  0  0  0  0
 12 16  2  0  0  0  0
 13  3  2  0  0  0  0
 14 13  1  0  0  0  0
 15  9  1  0  0  0  0
 16  4  1  0  0  0  0
 17 10  1  0  0  0  0
 17  6  2  0  0  0  0
 18 11  1  0  0  0  0
 19 18  1  0  0  0  0
 20 19  1  0  0  0  0
 21 20  1  0  0  0  0
 22 21  2  0  0  0  0
 23 25  1  6  0  0  0
 23 21  1  0  0  0  0
 23 24  1  0  0  0  0
M  END
>  <MODEL>
2

>  <REMARK>
 VINA RESULT:     -10.3      0.971      1.343
  Name = 
  5 active torsions:
  status: ('A' for Active; 'I' for Inactive)
    1  A    between atoms: C_2  and  C_21
    2  A    between atoms: C_6  and  C_15
    3  A    between atoms: C_6  and  C_23
    4  A    between atoms: C_15  and  C_21
    5  A    between atoms: C_16  and  C_23
                            x       y       z     vdW  Elec       q    Type
                         _______ _______ _______ _____ _____    ______ ____

>  <TORSDO>
F 5

$$$$
=
 OpenBabel10262419493D

 25 28  0  0  1  0  0  0  0  0999 V2000
  185.7400  178.4600  144.2510 C   0  0  0  0  0  0  0  0  0  0  0  0
  185.5040  178.6120  142.8510 C   0  0  0  0  0  0  0  0  0  0  0  0
  183.3960  178.8730  144.7510 C   0  0  0  0  0  3  0  0  0  0  0  0
  186.9020  178.0460  145.0510 C   0  0  0  0  0  0  0  0  0  0  0  0
  188.7040  177.2010  147.0100 C   0  0  0  0  0  3  0  0  0  0  0  0
  183.1260  178.9570  143.3850 C   0  0  0  0  0  3  0  0  0  0  0  0
  186.5400  178.0460  146.3890 C   0  0  0  0  0  0  0  0  0  0  0  0
  187.4250  177.6330  147.3860 C   0  0  0  0  0  3  0  0  0  0  0  0
  184.7940  178.8180  140.1710 C   0  0  0  0  0  3  0  0  0  0  0  0
  183.8400  178.9010  141.1260 N   0  0  0  0  0  0  0  0  0  0  0  0
  186.4840  178.5940  141.8230 C   0  0  1  0  0  3  0  0  0  0  0  0
  189.0690  177.1690  145.6540 C   0  0  0  0  0  3  0  0  0  0  0  0
  184.7000  178.6300  145.1630 C   0  0  0  0  0  0  0  0  0  0  0  0
  185.1190  178.4370  146.5830 C   0  0  0  0  0  3  0  0  0  0  0  0
  186.0950  178.6810  140.5240 N   0  0  0  0  0  0  0  0  0  0  0  0
  188.1620  177.5770  144.6670 C   0  0  0  0  0  3  0  0  0  0  0  0
  184.1550  178.8190  142.4420 C   0  0  0  0  0  0  0  0  0  0  0  0
  187.9520  178.6460  142.0790 C   0  0  0  0  0  2  0  0  0  0  0  0
  188.7380  178.0960  140.8930 C   0  0  0  0  0  2  0  0  0  0  0  0
  189.6050  176.9100  141.2960 C   0  0  0  0  0  2  0  0  0  0  0  0
  191.0580  177.2800  141.3480 C   0  0  0  0  0  0  0  0  0  0  0  0
  191.6580  177.5140  140.3100 O   0  0  0  0  0  0  0  0  0  0  0  0
  191.7850  177.3810  142.6530 C   0  0  1  0  0  3  0  0  0  0  0  0
  191.3860  178.5280  143.3380 O   0  0  0  0  0  1  0  0  0  0  0  0
  191.5480  176.1550  143.5150 C   0  0  0  0  0  1  0  0  0  0  0  0
  1  4  1  0  0  0  0
  1 13  1  0  0  0  0
  2  1  2  0  0  0  0
  3 13  1  0  0  0  0
  4  7  1  0  0  0  0
  5  8  1  0  0  0  0
  6  3  2  0  0  0  0
  7 14  1  0  0  0  0
  7  8  2  0  0  0  0
  9 15  2  0  0  0  0
  9 10  1  0  0  0  0
 10 17  2  0  0  0  0
 11 18  1  1  0  0  0
 11  2  1  0  0  0  0
 12  5  2  0  0  0  0
 13 14  2  0  0  0  0
 15 11  1  0  0  0  0
 16  4  2  0  0  0  0
 16 12  1  0  0  0  0
 17  2  1  0  0  0  0
 17  6  1  0  0  0  0
 19 20  1  0  0  0  0
 19 18  1  0  0  0  0
 20 21  1  0  0  0  0
 21 23  1  0  0  0  0
 22 21  2  0  0  0  0
 23 24  1  0  0  0  0
 23 25  1  1  0  0  0
M  END
>  <MODEL>
3

>  <REMARK>
 VINA RESULT:      -9.9      2.688      5.008
  Name = 
  5 active torsions:
  status: ('A' for Active; 'I' for Inactive)
    1  A    between atoms: C_2  and  C_21
    2  A    between atoms: C_6  and  C_15
    3  A    between atoms: C_6  and  C_23
    4  A    between atoms: C_15  and  C_21
    5  A    between atoms: C_16  and  C_23
                            x       y       z     vdW  Elec       q    Type
                         _______ _______ _______ _____ _____    ______ ____

>  <TORSDO>
F 5

$$$$
=
 OpenBabel10262419493D

 25 28  0  0  1  0  0  0  0  0999 V2000
  187.7550  177.8290  145.4850 C   0  0  0  0  0  0  0  0  0  0  0  0
  186.7680  177.9980  144.4680 C   0  0  0  0  0  0  0  0  0  0  0  0
  186.1480  178.3920  147.2220 C   0  0  0  0  0  3  0  0  0  0  0  0
  189.1420  177.3400  145.4900 C   0  0  0  0  0  0  0  0  0  0  0  0
  191.6930  176.3770  146.0950 C   0  0  0  0  0  3  0  0  0  0  0  0
  185.1490  178.4940  146.2540 C   0  0  0  0  0  3  0  0  0  0  0  0
  189.6140  177.3610  146.7940 C   0  0  0  0  0  0  0  0  0  0  0  0
  190.8860  176.8900  147.1190 C   0  0  0  0  0  3  0  0  0  0  0  0
  184.6620  178.2530  142.6710 C   0  0  0  0  0  3  0  0  0  0  0  0
  184.4340  178.3960  143.9970 N   0  0  0  0  0  0  0  0  0  0  0  0
  186.9790  177.9190  143.0650 C   0  0  1  0  0  3  0  0  0  0  0  0
  191.2120  176.3240  144.7760 C   0  0  0  0  0  3  0  0  0  0  0  0
  187.4370  178.0640  146.8220 C   0  0  0  0  0  0  0  0  0  0  0  0
  188.5840  177.8420  147.7530 C   0  0  0  0  0  3  0  0  0  0  0  0
  185.9200  178.0330  142.2210 N   0  0  0  0  0  0  0  0  0  0  0  0
  189.9270  176.7910  144.4720 C   0  0  0  0  0  3  0  0  0  0  0  0
  185.4420  178.2920  144.8980 C   0  0  0  0  0  0  0  0  0  0  0  0
  188.3290  177.8760  142.4330 C   0  0  0  0  0  2  0  0  0  0  0  0
  188.3410  178.6320  141.1090 C   0  0  0  0  0  2  0  0  0  0  0  0
  188.5840  177.6970  139.9310 C   0  0  0  0  0  2  0  0  0  0  0  0
  187.8500  178.1530  138.7040 C   0  0  0  0  0  0  0  0  0  0  0  0
  186.6430  178.3280  138.7530 O   0  0  0  0  0  0  0  0  0  0  0  0
  188.5750  178.4090  137.4190 C   0  0  1  0  0  3  0  0  0  0  0  0
  189.0080  179.7340  137.3670 O   0  0  0  0  0  1  0  0  0  0  0  0
  189.7570  177.4720  137.2530 C   0  0  0  0  0  1  0  0  0  0  0  0
  1  4  1  0  0  0  0
  1 13  1  0  0  0  0
  2 17  1  0  0  0  0
  2  1  2  0  0  0  0
  4  7  1  0  0  0  0
  5  8  1  0  0  0  0
  6  3  2  0  0  0  0
  7  8  2  0  0  0  0
  7 14  1  0  0  0  0
  9 10  1  0  0  0  0
 10 17  2  0  0  0  0
 11 18  1  6  0  0  0
 11  2  1  0  0  0  0
 12  5  2  0  0  0  0
 13  3  1  0  0  0  0
 13 14  2  0  0  0  0
 15  9  2  0  0  0  0
 15 11  1  0  0  0  0
 16 12  1  0  0  0  0
 16  4  2  0  0  0  0
 17  6  1  0  0  0  0
 19 18  1  0  0  0  0
 20 19  1  0  0  0  0
 21 22  2  0  0  0  0
 21 20  1  0  0  0  0
 23 25  1  1  0  0  0
 23 21  1  0  0  0  0
 24 23  1  0  0  0  0
M  END
>  <MODEL>
4

>  <REMARK>
 VINA RESULT:      -9.5      1.958      4.270
  Name = 
  5 active torsions:
  status: ('A' for Active; 'I' for Inactive)
    1  A    between atoms: C_2  and  C_21
    2  A    between atoms: C_6  and  C_15
    3  A    between atoms: C_6  and  C_23
    4  A    between atoms: C_15  and  C_21
    5  A    between atoms: C_16  and  C_23
                            x       y       z     vdW  Elec       q    Type
                         _______ _______ _______ _____ _____    ______ ____

>  <TORSDO>
F 5

$$$$
=
 OpenBabel10262419493D

 25 28  0  0  1  0  0  0  0  0999 V2000
  185.9320  178.4260  144.5720 C   0  0  0  0  0  0  0  0  0  0  0  0
  185.6930  178.5190  143.1680 C   0  0  0  0  0  0  0  0  0  0  0  0
  183.6200  178.9970  145.0640 C   0  0  0  0  0  3  0  0  0  0  0  0
  187.0770  177.9890  145.3850 C   0  0  0  0  0  0  0  0  0  0  0  0
  188.8450  177.1450  147.3750 C   0  0  0  0  0  3  0  0  0  0  0  0
  183.3430  179.0250  143.6980 C   0  0  0  0  0  3  0  0  0  0  0  0
  186.7270  178.0780  146.7240 C   0  0  0  0  0  0  0  0  0  0  0  0
  187.5950  177.6670  147.7350 C   0  0  0  0  0  3  0  0  0  0  0  0
  184.9720  178.6280  140.4840 C   0  0  0  0  0  3  0  0  0  0  0  0
  184.0320  178.8130  141.4400 N   0  0  0  0  0  0  0  0  0  0  0  0
  186.6610  178.3940  142.1360 C   0  0  1  0  0  3  0  0  0  0  0  0
  189.1960  177.0220  146.0200 C   0  0  0  0  0  3  0  0  0  0  0  0
  184.9110  178.7020  145.4800 C   0  0  0  0  0  0  0  0  0  0  0  0
  185.3310  178.5580  146.9060 C   0  0  0  0  0  3  0  0  0  0  0  0
  186.2650  178.4360  140.8360 N   0  0  0  0  0  0  0  0  0  0  0  0
  188.3040  177.4300  145.0190 C   0  0  0  0  0  3  0  0  0  0  0  0
  184.3540  178.7820  142.7570 C   0  0  0  0  0  0  0  0  0  0  0  0
  188.1320  178.3760  142.3800 C   0  0  0  0  0  2  0  0  0  0  0  0
  188.7790  177.1430  141.7560 C   0  0  0  0  0  2  0  0  0  0  0  0
  190.0430  177.5010  140.9870 C   0  0  0  0  0  2  0  0  0  0  0  0
  190.0010  176.9780  139.5810 C   0  0  0  0  0  0  0  0  0  0  0  0
  190.6500  175.9860  139.2880 O   0  0  0  0  0  0  0  0  0  0  0  0
  189.1670  177.6440  138.5320 C   0  0  1  0  0  3  0  0  0  0  0  0
  189.0460  179.0050  138.8060 O   0  0  0  0  0  1  0  0  0  0  0  0
  189.7550  177.4450  137.1470 C   0  0  0  0  0  1  0  0  0  0  0  0
  1  4  1  0  0  0  0
  1 13  1  0  0  0  0
  2  1  2  0  0  0  0
  3 13  1  0  0  0  0
  4  7  1  0  0  0  0
  5  8  1  0  0  0  0
  6  3  2  0  0  0  0
  7 14  1  0  0  0  0
  7  8  2  0  0  0  0
  9 15  2  0  0  0  0
  9 10  1  0  0  0  0
 10 17  2  0  0  0  0
 11 18  1  6  0  0  0
 11  2  1  0  0  0  0
 12  5  2  0  0  0  0
 13 14  2  0  0  0  0
 15 11  1  0  0  0  0
 16  4  2  0  0  0  0
 16 12  1  0  0  0  0
 17  2  1  0  0  0  0
 17  6  1  0  0  0  0
 19 18  1  0  0  0  0
 20 19  1  0  0  0  0
 21 20  1  0  0  0  0
 22 21  2  0  0  0  0
 23 25  1  6  0  0  0
 23 24  1  0  0  0  0
 23 21  1  0  0  0  0
M  END
>  <MODEL>
5

>  <REMARK>
 VINA RESULT:      -9.4      2.200      4.411
  Name = 
  5 active torsions:
  status: ('A' for Active; 'I' for Inactive)
    1  A    between atoms: C_2  and  C_21
    2  A    between atoms: C_6  and  C_15
    3  A    between atoms: C_6  and  C_23
    4  A    between atoms: C_15  and  C_21
    5  A    between atoms: C_16  and  C_23
                            x       y       z     vdW  Elec       q    Type
                         _______ _______ _______ _____ _____    ______ ____

>  <TORSDO>
F 5

$$$$
=
 OpenBabel10262419493D

 25 28  0  0  1  0  0  0  0  0999 V2000
  187.5010  177.8040  145.2040 C   0  0  0  0  0  0  0  0  0  0  0  0
  186.1380  178.1920  145.0350 C   0  0  2  0  0  3  0  0  0  0  0  0
  187.3980  178.2570  147.5910 C   0  0  0  0  0  3  0  0  0  0  0  0
  188.5090  177.2040  144.3160 C   0  0  0  0  0  0  0  0  0  0  0  0
  190.7160  175.9580  143.1440 C   0  0  0  0  0  3  0  0  0  0  0  0
  186.0460  178.5730  147.4650 C   0  0  0  0  0  3  0  0  0  0  0  0
  189.6750  177.0080  145.0390 C   0  0  0  0  0  0  0  0  0  0  0  0
  190.7920  176.3910  144.4740 C   0  0  0  0  0  3  0  0  0  0  0  0
  183.4420  178.8660  144.9620 C   0  0  0  0  0  3  0  0  0  0  0  0
  184.0960  178.8450  146.1450 N   0  0  0  0  0  0  0  0  0  0  0  0
  185.4330  178.2880  143.8060 C   0  0  0  0  0  0  0  0  0  0  0  0
  189.5280  176.1250  142.4120 C   0  0  0  0  0  3  0  0  0  0  0  0
  188.1060  177.8800  146.4570 C   0  0  0  0  0  0  0  0  0  0  0  0
  189.5330  177.4380  146.4560 C   0  0  0  0  0  3  0  0  0  0  0  0
  184.1110  178.6040  143.8140 N   0  0  0  0  0  0  0  0  0  0  0  0
  188.4140  176.7360  143.0020 C   0  0  0  0  0  3  0  0  0  0  0  0
  185.4140  178.5350  146.2140 C   0  0  0  0  0  0  0  0  0  0  0  0
  186.0890  178.2190  142.4690 C   0  0  0  0  0  2  0  0  0  0  0  0
  185.4220  179.1670  141.4780 C   0  0  0  0  0  2  0  0  0  0  0  0
  184.4410  178.4340  140.5720 C   0  0  0  0  0  2  0  0  0  0  0  0
  183.9140  179.3290  139.4900 C   0  0  0  0  0  0  0  0  0  0  0  0
  184.5930  180.2650  139.0980 O   0  0  0  0  0  0  0  0  0  0  0  0
  182.5710  179.0890  138.8720 C   0  0  1  0  0  3  0  0  0  0  0  0
  181.9930  180.3000  138.4920 O   0  0  0  0  0  1  0  0  0  0  0  0
  182.6710  178.1650  137.6730 C   0  0  0  0  0  1  0  0  0  0  0  0
  1 13  1  0  0  0  0
  2 11  1  6  0  0  0
  2  1  1  0  0  0  0
  2 17  1  0  0  0  0
  4  7  1  0  0  0  0
  4  1  2  0  0  0  0
  5  8  2  0  0  0  0
  6  3  1  0  0  0  0
  7 14  2  0  0  0  0
  8  7  1  0  0  0  0
  9 10  2  0  0  0  0
 10 17  1  0  0  0  0
 11 15  2  0  0  0  0
 12 16  2  0  0  0  0
 12  5  1  0  0  0  0
 13  3  2  0  0  0  0
 14 13  1  0  0  0  0
 15  9  1  0  0  0  0
 16  4  1  0  0  0  0
 17  6  2  0  0  0  0
 18 11  1  0  0  0  0
 19 18  1  0  0  0  0
 20 19  1  0  0  0  0
 21 20  1  0  0  0  0
 22 21  2  0  0  0  0
 23 25  1  6  0  0  0
 23 21  1  0  0  0  0
 24 23  1  0  0  0  0
M  END
>  <MODEL>
6

>  <REMARK>
 VINA RESULT:      -9.1      2.975      4.999
  Name = 
  5 active torsions:
  status: ('A' for Active; 'I' for Inactive)
    1  A    between atoms: C_2  and  C_21
    2  A    between atoms: C_6  and  C_15
    3  A    between atoms: C_6  and  C_23
    4  A    between atoms: C_15  and  C_21
    5  A    between atoms: C_16  and  C_23
                            x       y       z     vdW  Elec       q    Type
                         _______ _______ _______ _____ _____    ______ ____

>  <TORSDO>
F 5

$$$$
=
 OpenBabel10262419493D

 25 28  0  0  1  0  0  0  0  0999 V2000
  188.5680  177.5000  145.4240 C   0  0  0  0  0  0  0  0  0  0  0  0
  189.4610  177.3850  144.3160 C   0  0  0  0  0  0  0  0  0  0  0  0
  190.3830  177.1290  147.0010 C   0  0  0  0  0  3  0  0  0  0  0  0
  187.1510  177.8690  145.5590 C   0  0  0  0  0  0  0  0  0  0  0  0
  184.5980  178.6280  146.3970 C   0  0  0  0  0  3  0  0  0  0  0  0
  191.2860  177.0820  145.9400 C   0  0  0  0  0  3  0  0  0  0  0  0
  186.8150  177.8470  146.9030 C   0  0  0  0  0  0  0  0  0  0  0  0
  185.5440  178.2170  147.3450 C   0  0  0  0  0  3  0  0  0  0  0  0
  191.3940  177.2550  142.3220 C   0  0  0  0  0  3  0  0  0  0  0  0
  191.7630  177.1730  143.6200 N   0  0  0  0  0  0  0  0  0  0  0  0
  189.1060  177.4030  142.9410 C   0  0  1  0  0  3  0  0  0  0  0  0
  184.9390  178.6820  145.0360 C   0  0  0  0  0  3  0  0  0  0  0  0
  189.0360  177.3330  146.7270 C   0  0  0  0  0  0  0  0  0  0  0  0
  187.9720  177.4840  147.7640 C   0  0  0  0  0  3  0  0  0  0  0  0
  190.0830  177.3540  141.9960 N   0  0  0  0  0  0  0  0  0  0  0  0
  186.2250  178.3170  144.6130 C   0  0  0  0  0  3  0  0  0  0  0  0
  190.8440  177.2170  144.6160 C   0  0  0  0  0  0  0  0  0  0  0  0
  187.7030  177.3110  142.4470 C   0  0  0  0  0  2  0  0  0  0  0  0
  187.4850  178.2130  141.2370 C   0  0  0  0  0  2  0  0  0  0  0  0
  186.1890  179.0050  141.3530 C   0  0  0  0  0  2  0  0  0  0  0  0
  185.3440  178.8650  140.1200 C   0  0  0  0  0  0  0  0  0  0  0  0
  185.8770  178.6230  139.0490 O   0  0  0  0  0  0  0  0  0  0  0  0
  183.8550  179.0050  140.1830 C   0  0  1  0  0  3  0  0  0  0  0  0
  183.3960  179.7450  139.0940 O   0  0  0  0  0  1  0  0  0  0  0  0
  183.1720  177.6510  140.2120 C   0  0  0  0  0  1  0  0  0  0  0  0
  1  4  1  0  0  0  0
  1 13  1  0  0  0  0
  2 17  1  0  0  0  0
  2  1  2  0  0  0  0
  4  7  1  0  0  0  0
  5  8  1  0  0  0  0
  6  3  2  0  0  0  0
  7  8  2  0  0  0  0
  7 14  1  0  0  0  0
  9 10  1  0  0  0  0
 10 17  2  0  0  0  0
 11 18  1  6  0  0  0
 11  2  1  0  0  0  0
 12  5  2  0  0  0  0
 13  3  1  0  0  0  0
 13 14  2  0  0  0  0
 15  9  2  0  0  0  0
 15 11  1  0  0  0  0
 16 12  1  0  0  0  0
 16  4  2  0  0  0  0
 17  6  1  0  0  0  0
 19 20  1  0  0  0  0
 19 18  1  0  0  0  0
 21 23  1  0  0  0  0
 21 20  1  0  0  0  0
 22 21  2  0  0  0  0
 23 25  1  6  0  0  0
 24 23  1  0  0  0  0
M  END
>  <MODEL>
7

>  <REMARK>
 VINA RESULT:      -9.1      1.704      3.017
  Name = 
  5 active torsions:
  status: ('A' for Active; 'I' for Inactive)
    1  A    between atoms: C_2  and  C_21
    2  A    between atoms: C_6  and  C_15
    3  A    between atoms: C_6  and  C_23
    4  A    between atoms: C_15  and  C_21
    5  A    between atoms: C_16  and  C_23
                            x       y       z     vdW  Elec       q    Type
                         _______ _______ _______ _____ _____    ______ ____

>  <TORSDO>
F 5

$$$$
=
 OpenBabel10262419493D

 25 28  0  0  1  0  0  0  0  0999 V2000
  185.9550  178.6040  142.7430 C   0  0  0  0  0  0  0  0  0  0  0  0
  186.8590  178.4290  141.6520 C   0  0  0  0  0  0  0  0  0  0  0  0
  184.1340  179.1480  141.2260 C   0  0  0  0  0  3  0  0  0  0  0  0
  186.0490  178.3740  144.1930 C   0  0  0  0  0  0  0  0  0  0  0  0
  185.6280  177.9860  146.9250 C   0  0  0  0  0  3  0  0  0  0  0  0
  184.9780  178.9150  140.1400 C   0  0  0  0  0  3  0  0  0  0  0  0
  184.8290  178.6880  144.7700 C   0  0  2  0  0  3  0  0  0  0  0  0
  184.5960  178.5070  146.1340 C   0  0  0  0  0  3  0  0  0  0  0  0
  188.4050  178.0170  139.3780 C   0  0  0  0  0  3  0  0  0  0  0  0
  187.0950  178.3290  139.2510 N   0  0  0  0  0  0  0  0  0  0  0  0
  188.2510  178.1640  141.7430 C   0  0  0  0  0  0  0  0  0  0  0  0
  186.8580  177.6360  146.3440 C   0  0  0  0  0  3  0  0  0  0  0  0
  184.6370  178.9920  142.5110 C   0  0  0  0  0  0  0  0  0  0  0  0
  183.8300  179.1290  143.7600 C   0  0  0  0  0  3  0  0  0  0  0  0
  188.9690  177.9510  140.6080 N   0  0  0  0  0  0  0  0  0  0  0  0
  187.0670  177.8150  144.9700 C   0  0  0  0  0  3  0  0  0  0  0  0
  186.3170  178.5520  140.3390 C   0  0  0  0  0  0  0  0  0  0  0  0
  189.0300  178.2570  143.0100 C   0  0  0  0  0  2  0  0  0  0  0  0
  190.2920  177.4030  142.9460 C   0  0  0  0  0  2  0  0  0  0  0  0
  191.2900  177.7930  144.0290 C   0  0  0  0  0  2  0  0  0  0  0  0
  191.5970  176.6390  144.9370 C   0  0  0  0  0  0  0  0  0  0  0  0
  191.9310  175.5670  144.4590 O   0  0  0  0  0  0  0  0  0  0  0  0
  191.5150  176.7820  146.4260 C   0  0  1  0  0  3  0  0  0  0  0  0
  190.1820  176.8400  146.8300 O   0  0  0  0  0  1  0  0  0  0  0  0
  192.2200  175.6400  147.1320 C   0  0  0  0  0  1  0  0  0  0  0  0
  1  4  2  0  0  0  0
  2 11  1  0  0  0  0
  2  1  1  0  0  0  0
  3 13  1  0  0  0  0
  4  7  1  0  0  0  0
  4 16  1  0  0  0  0
  6 17  1  0  0  0  0
  6  3  2  0  0  0  0
  7 14  1  6  0  0  0
  7  8  1  0  0  0  0
  8  5  2  0  0  0  0
  9 15  1  0  0  0  0
 10  9  2  0  0  0  0
 10 17  1  0  0  0  0
 11 18  1  0  0  0  0
 12  5  1  0  0  0  0
 13  1  1  0  0  0  0
 13 14  2  0  0  0  0
 15 11  2  0  0  0  0
 16 12  2  0  0  0  0
 17  2  2  0  0  0  0
 19 18  1  0  0  0  0
 19 20  1  0  0  0  0
 20 21  1  0  0  0  0
 21 23  1  0  0  0  0
 22 21  2  0  0  0  0
 23 24  1  0  0  0  0
 23 25  1  1  0  0  0
M  END
>  <MODEL>
8

>  <REMARK>
 VINA RESULT:      -9.0      2.918      5.682
  Name = 
  5 active torsions:
  status: ('A' for Active; 'I' for Inactive)
    1  A    between atoms: C_2  and  C_21
    2  A    between atoms: C_6  and  C_15
    3  A    between atoms: C_6  and  C_23
    4  A    between atoms: C_15  and  C_21
    5  A    between atoms: C_16  and  C_23
                            x       y       z     vdW  Elec       q    Type
                         _______ _______ _______ _____ _____    ______ ____

>  <TORSDO>
F 5

$$$$
=
 OpenBabel10262419493D

 25 28  0  0  1  0  0  0  0  0999 V2000
  188.4180  177.5440  145.3600 C   0  0  0  0  0  0  0  0  0  0  0  0
  189.4610  177.4570  144.3900 C   0  0  0  0  0  0  0  0  0  0  0  0
  189.9740  177.0540  147.1640 C   0  0  0  0  0  3  0  0  0  0  0  0
  187.0030  177.9440  145.3050 C   0  0  0  0  0  0  0  0  0  0  0  0
  184.3700  178.7300  145.8000 C   0  0  0  0  0  3  0  0  0  0  0  0
  191.0220  177.0330  146.2450 C   0  0  0  0  0  3  0  0  0  0  0  0
  186.4730  177.8690  146.5840 C   0  0  0  0  0  0  0  0  0  0  0  0
  185.1590  178.2520  146.8540 C   0  0  0  0  0  3  0  0  0  0  0  0
  191.6620  177.3690  142.6930 C   0  0  0  0  0  3  0  0  0  0  0  0
  191.8350  177.2170  144.0260 N   0  0  0  0  0  0  0  0  0  0  0  0
  189.3120  177.5470  142.9800 C   0  0  1  0  0  3  0  0  0  0  0  0
  184.9080  178.8380  144.5070 C   0  0  0  0  0  3  0  0  0  0  0  0
  188.6870  177.3050  146.7070 C   0  0  0  0  0  0  0  0  0  0  0  0
  187.4850  177.4370  147.5840 C   0  0  0  0  0  3  0  0  0  0  0  0
  190.4150  177.5170  142.1860 N   0  0  0  0  0  0  0  0  0  0  0  0
  186.2340  178.4590  144.2580 C   0  0  0  0  0  3  0  0  0  0  0  0
  190.7810  177.2400  144.8790 C   0  0  0  0  0  0  0  0  0  0  0  0
  187.9940  177.5160  142.2840 C   0  0  0  0  0  2  0  0  0  0  0  0
  187.8770  178.6520  141.2730 C   0  0  0  0  0  2  0  0  0  0  0  0
  187.0890  178.2280  140.0400 C   0  0  0  0  0  2  0  0  0  0  0  0
  187.9410  178.2530  138.8050 C   0  0  0  0  0  0  0  0  0  0  0  0
  188.9080  178.9980  138.7540 O   0  0  0  0  0  0  0  0  0  0  0  0
  187.6350  177.3710  137.6350 C   0  0  1  0  0  3  0  0  0  0  0  0
  187.3400  178.1450  136.5130 O   0  0  0  0  0  1  0  0  0  0  0  0
  188.7900  176.4350  137.3290 C   0  0  0  0  0  1  0  0  0  0  0  0
  1 13  1  0  0  0  0
  2 17  1  0  0  0  0
  2  1  2  0  0  0  0
  4  1  1  0  0  0  0
  4  7  1  0  0  0  0
  5  8  1  0  0  0  0
  6  3  2  0  0  0  0
  7  8  2  0  0  0  0
  7 14  1  0  0  0  0
  9 10  1  0  0  0  0
 10 17  2  0  0  0  0
 11 18  1  6  0  0  0
 11  2  1  0  0  0  0
 12  5  2  0  0  0  0
 13  3  1  0  0  0  0
 13 14  2  0  0  0  0
 15  9  2  0  0  0  0
 15 11  1  0  0  0  0
 16 12  1  0  0  0  0
 16  4  2  0  0  0  0
 17  6  1  0  0  0  0
 19 18  1  0  0  0  0
 20 19  1  0  0  0  0
 21 20  1  0  0  0  0
 22 21  2  0  0  0  0
 23 25  1  6  0  0  0
 23 21  1  0  0  0  0
 24 23  1  0  0  0  0
M  END
>  <MODEL>
9

>  <REMARK>
 VINA RESULT:      -9.0      1.380      2.037
  Name = 
  5 active torsions:
  status: ('A' for Active; 'I' for Inactive)
    1  A    between atoms: C_2  and  C_21
    2  A    between atoms: C_6  and  C_15
    3  A    between atoms: C_6  and  C_23
    4  A    between atoms: C_15  and  C_21
    5  A    between atoms: C_16  and  C_23
                            x       y       z     vdW  Elec       q    Type
                         _______ _______ _______ _____ _____    ______ ____

>  <TORSDO>
F 5

$$$$
