=
 OpenBabel10262420433D

 28 32  0  0  1  0  0  0  0  0999 V2000
  183.9250  178.3650  142.2630 C   0  0  0  0  0  0  0  0  0  0  0  0
  185.5470  178.5970  146.9610 C   0  0  0  0  0  1  0  0  0  0  0  0
  187.2270  177.6770  143.7050 C   0  0  0  0  0  0  0  0  0  0  0  0
  184.6990  178.4890  144.5770 C   0  0  0  0  0  0  0  0  0  0  0  0
  186.1980  177.8260  142.8240 N   0  0  0  0  0  0  0  0  0  0  0  0
  182.3980  179.0340  144.0330 C   0  0  0  0  0  3  0  0  0  0  0  0
  185.7430  178.3370  145.5060 C   0  0  0  0  0  0  0  0  0  0  0  0
  183.4180  178.8940  144.9750 C   0  0  0  0  0  3  0  0  0  0  0  0
  187.0010  177.9280  145.0650 C   0  0  0  0  0  3  0  0  0  0  0  0
  182.6490  178.7690  142.6850 C   0  0  0  0  0  3  0  0  0  0  0  0
  184.9550  178.2220  143.2120 C   0  0  0  0  0  0  0  0  0  0  0  0
  188.9160  175.9580  143.4890 C   0  0  0  0  0  3  0  0  0  0  0  0
  190.7690  178.2040  142.5650 C   0  0  0  0  0  3  0  0  0  0  0  0
  191.3600  176.0480  143.6570 C   0  0  0  0  0  0  0  0  0  0  0  0
  188.5570  177.2220  143.2240 C   0  0  0  0  0  0  0  0  0  0  0  0
  188.8360  179.0590  141.5840 O   0  0  0  0  0  1  0  0  0  0  0  0
  191.6260  177.3240  143.3830 C   0  0  0  0  0  3  0  0  0  0  0  0
  189.4340  178.1510  142.4490 C   0  0  0  0  0  0  0  0  0  0  0  0
  192.2180  175.3470  144.4350 F   0  0  0  0  0  0  0  0  0  0  0  0
  190.1980  175.3410  143.0430 C   0  0  0  0  0  2  0  0  0  0  0  0
  184.1830  178.0750  140.8110 C   0  0  2  0  0  3  0  0  0  0  0  0
  184.9780  179.2100  140.1500 C   0  0  0  0  0  2  0  0  0  0  0  0
  183.0150  178.0120  138.5560 C   0  0  1  0  0  3  0  0  0  0  0  0
  184.1160  180.0360  139.4100 O   0  0  0  0  0  0  0  0  0  0  0  0
  182.4710  176.4730  140.3050 O   0  0  0  0  0  1  0  0  0  0  0  0
  182.8720  177.7860  140.0640 C   0  0  1  0  0  3  0  0  0  0  0  0
  182.2560  179.2560  138.1390 C   0  0  0  0  0  2  0  0  0  0  0  0
  183.7670  179.3200  138.2470 C   0  0  2  0  0  3  0  0  0  0  0  0
  1 10  2  0  0  0  0
  1 11  1  0  0  0  0
  3  9  1  0  0  0  0
  4  8  1  0  0  0  0
  4  7  1  0  0  0  0
  5 11  1  0  0  0  0
  5  3  2  0  0  0  0
  6  8  2  0  0  0  0
  7  2  1  0  0  0  0
  9  7  2  0  0  0  0
 10  6  1  0  0  0  0
 11  4  2  0  0  0  0
 13 17  1  0  0  0  0
 14 19  1  0  0  0  0
 15 12  2  0  0  0  0
 15  3  1  0  0  0  0
 16 18  1  0  0  0  0
 17 14  2  0  0  0  0
 18 13  2  0  0  0  0
 18 15  1  0  0  0  0
 20 12  1  0  0  0  0
 20 14  1  0  0  0  0
 21  1  1  1  0  0  0
 22 21  1  0  0  0  0
 23 27  1  6  0  0  0
 23 26  1  0  0  0  0
 24 22  1  0  0  0  0
 26 25  1  6  0  0  0
 26 21  1  0  0  0  0
 28 27  1  6  0  0  0
 28 23  1  0  0  0  0
 28 24  1  0  0  0  0
M  END
>  <MODEL>
1

>  <REMARK>
 VINA RESULT:      -9.9      0.000      0.000
  Name = 
  2 active torsions:
  status: ('A' for Active; 'I' for Inactive)
    1  A    between atoms: C_1  and  C_2
    2  A    between atoms: C_10  and  C_13
                            x       y       z     vdW  Elec       q    Type
                         _______ _______ _______ _____ _____    ______ ____

>  <TORSDO>
F 2

$$$$
=
 OpenBabel10262420433D

 28 32  0  0  1  0  0  0  0  0999 V2000
  186.9600  177.6670  143.7300 C   0  0  0  0  0  0  0  0  0  0  0  0
  182.3860  179.3730  144.6900 C   0  0  0  0  0  1  0  0  0  0  0  0
  184.0380  178.0740  141.5500 C   0  0  0  0  0  0  0  0  0  0  0  0
  184.7200  178.5050  144.2260 C   0  0  0  0  0  0  0  0  0  0  0  0
  185.2890  177.7870  142.0080 N   0  0  0  0  0  0  0  0  0  0  0  0
  186.3950  178.3970  145.9790 C   0  0  0  0  0  3  0  0  0  0  0  0
  183.4250  178.8140  143.7770 C   0  0  0  0  0  0  0  0  0  0  0  0
  185.1010  178.7080  145.5600 C   0  0  0  0  0  3  0  0  0  0  0  0
  183.0910  178.6000  142.4400 C   0  0  0  0  0  3  0  0  0  0  0  0
  187.3210  177.8810  145.0690 C   0  0  0  0  0  3  0  0  0  0  0  0
  185.6560  177.9820  143.3040 C   0  0  0  0  0  0  0  0  0  0  0  0
  182.7650  176.9430  139.8310 C   0  0  0  0  0  3  0  0  0  0  0  0
  184.7410  178.1870  137.8600 C   0  0  0  0  0  3  0  0  0  0  0  0
  183.4070  176.1010  137.6210 C   0  0  0  0  0  0  0  0  0  0  0  0
  183.7020  177.8580  140.1190 C   0  0  0  0  0  0  0  0  0  0  0  0
  184.7000  179.9880  139.3380 O   0  0  0  0  0  1  0  0  0  0  0  0
  184.4760  176.8380  137.3240 C   0  0  0  0  0  3  0  0  0  0  0  0
  184.3770  178.6660  139.0590 C   0  0  0  0  0  0  0  0  0  0  0  0
  183.2840  174.8670  137.0760 F   0  0  0  0  0  0  0  0  0  0  0  0
  182.2900  176.6390  138.4510 C   0  0  0  0  0  2  0  0  0  0  0  0
  187.9660  177.1190  142.7560 C   0  0  2  0  0  3  0  0  0  0  0  0
  188.6840  175.8890  143.3310 C   0  0  0  0  0  2  0  0  0  0  0  0
  190.2620  177.6040  141.7820 C   0  0  1  0  0  3  0  0  0  0  0  0
  189.9540  176.2520  143.8100 O   0  0  0  0  0  0  0  0  0  0  0  0
  188.3770  179.0090  141.3380 O   0  0  0  0  0  1  0  0  0  0  0  0
  188.9590  178.2060  142.3170 C   0  0  1  0  0  3  0  0  0  0  0  0
  191.3910  177.8400  142.7640 C   0  0  0  0  0  2  0  0  0  0  0  0
  190.7700  176.4600  142.6790 C   0  0  2  0  0  3  0  0  0  0  0  0
  1 10  1  0  0  0  0
  3  5  2  0  0  0  0
  3  9  1  0  0  0  0
  4  8  2  0  0  0  0
  5 11  1  0  0  0  0
  7  4  1  0  0  0  0
  7  2  1  0  0  0  0
  8  6  1  0  0  0  0
  9  7  2  0  0  0  0
 10  6  2  0  0  0  0
 11  1  2  0  0  0  0
 11  4  1  0  0  0  0
 12 15  2  0  0  0  0
 13 18  2  0  0  0  0
 14 20  1  0  0  0  0
 15  3  1  0  0  0  0
 17 14  2  0  0  0  0
 17 13  1  0  0  0  0
 18 16  1  0  0  0  0
 18 15  1  0  0  0  0
 19 14  1  0  0  0  0
 20 12  1  0  0  0  0
 21 22  1  0  0  0  0
 21  1  1  1  0  0  0
 22 24  1  0  0  0  0
 23 26  1  0  0  0  0
 23 28  1  0  0  0  0
 23 27  1  1  0  0  0
 26 25  1  6  0  0  0
 26 21  1  0  0  0  0
 28 27  1  1  0  0  0
 28 24  1  0  0  0  0
M  END
>  <MODEL>
2

>  <REMARK>
 VINA RESULT:      -9.6      2.525      6.527
  Name = 
  2 active torsions:
  status: ('A' for Active; 'I' for Inactive)
    1  A    between atoms: C_1  and  C_2
    2  A    between atoms: C_10  and  C_13
                            x       y       z     vdW  Elec       q    Type
                         _______ _______ _______ _____ _____    ______ ____

>  <TORSDO>
F 2

$$$$
=
 OpenBabel10262420433D

 28 32  0  0  1  0  0  0  0  0999 V2000
  188.2990  177.2180  144.0920 C   0  0  0  0  0  0  0  0  0  0  0  0
  184.9760  178.9140  147.3840 C   0  0  0  0  0  1  0  0  0  0  0  0
  184.8590  178.4110  143.6410 C   0  0  0  0  0  0  0  0  0  0  0  0
  186.6830  178.0440  145.7270 C   0  0  0  0  0  0  0  0  0  0  0  0
  186.1080  177.9230  143.4010 N   0  0  0  0  0  0  0  0  0  0  0  0
  188.8910  177.3420  146.4460 C   0  0  0  0  0  3  0  0  0  0  0  0
  185.4020  178.5550  146.0010 C   0  0  0  0  0  0  0  0  0  0  0  0
  187.6250  177.8460  146.7460 C   0  0  0  0  0  3  0  0  0  0  0  0
  184.4980  178.7390  144.9550 C   0  0  0  0  0  3  0  0  0  0  0  0
  189.2270  177.0300  145.1270 C   0  0  0  0  0  3  0  0  0  0  0  0
  187.0210  177.7280  144.3910 C   0  0  0  0  0  0  0  0  0  0  0  0
  182.6010  178.6170  142.7960 C   0  0  0  0  0  3  0  0  0  0  0  0
  183.8540  178.3740  140.0200 C   0  0  0  0  0  3  0  0  0  0  0  0
  181.5490  177.7820  140.7470 C   0  0  0  0  0  0  0  0  0  0  0  0
  183.9120  178.6200  142.5160 C   0  0  0  0  0  0  0  0  0  0  0  0
  185.6080  179.5710  140.9780 O   0  0  0  0  0  1  0  0  0  0  0  0
  182.5870  177.6220  139.9270 C   0  0  0  0  0  3  0  0  0  0  0  0
  184.4280  178.8540  141.1330 C   0  0  0  0  0  0  0  0  0  0  0  0
  180.4440  177.0190  140.5690 F   0  0  0  0  0  0  0  0  0  0  0  0
  181.5290  178.8510  141.7870 C   0  0  0  0  0  2  0  0  0  0  0  0
  188.6720  176.8880  142.6740 C   0  0  2  0  0  3  0  0  0  0  0  0
  189.4910  175.5910  142.6010 C   0  0  0  0  0  2  0  0  0  0  0  0
  190.2450  177.6050  140.8120 C   0  0  1  0  0  3  0  0  0  0  0  0
  190.8560  175.8890  142.4600 O   0  0  0  0  0  0  0  0  0  0  0  0
  188.4810  179.0210  141.5930 O   0  0  0  0  0  1  0  0  0  0  0  0
  189.4050  178.0630  142.0080 C   0  0  1  0  0  3  0  0  0  0  0  0
  191.7200  177.6810  141.1480 C   0  0  0  0  0  2  0  0  0  0  0  0
  191.0410  176.3270  141.1330 C   0  0  2  0  0  3  0  0  0  0  0  0
  1 11  2  0  0  0  0
  1 10  1  0  0  0  0
  3  9  1  0  0  0  0
  4  7  1  0  0  0  0
  4  8  2  0  0  0  0
  5  3  2  0  0  0  0
  5 11  1  0  0  0  0
  6  8  1  0  0  0  0
  7  2  1  0  0  0  0
  9  7  2  0  0  0  0
 10  6  2  0  0  0  0
 11  4  1  0  0  0  0
 13 18  2  0  0  0  0
 14 20  1  0  0  0  0
 15 12  2  0  0  0  0
 15  3  1  0  0  0  0
 16 18  1  0  0  0  0
 17 13  1  0  0  0  0
 17 14  2  0  0  0  0
 18 15  1  0  0  0  0
 19 14  1  0  0  0  0
 20 12  1  0  0  0  0
 21  1  1  1  0  0  0
 22 21  1  0  0  0  0
 23 28  1  0  0  0  0
 23 27  1  1  0  0  0
 23 26  1  0  0  0  0
 24 22  1  0  0  0  0
 26 25  1  6  0  0  0
 26 21  1  0  0  0  0
 28 27  1  1  0  0  0
 28 24  1  0  0  0  0
M  END
>  <MODEL>
3

>  <REMARK>
 VINA RESULT:      -9.0      2.781      6.659
  Name = 
  2 active torsions:
  status: ('A' for Active; 'I' for Inactive)
    1  A    between atoms: C_1  and  C_2
    2  A    between atoms: C_10  and  C_13
                            x       y       z     vdW  Elec       q    Type
                         _______ _______ _______ _____ _____    ______ ____

>  <TORSDO>
F 2

$$$$
=
 OpenBabel10262420433D

 28 32  0  0  1  0  0  0  0  0999 V2000
  189.0810  177.4680  139.5740 C   0  0  0  0  0  0  0  0  0  0  0  0
  189.6850  177.5140  144.5130 C   0  0  0  0  0  1  0  0  0  0  0  0
  186.7700  178.3840  142.2720 C   0  0  0  0  0  0  0  0  0  0  0  0
  189.3990  177.4800  141.9960 C   0  0  0  0  0  0  0  0  0  0  0  0
  187.3020  178.1460  141.0400 N   0  0  0  0  0  0  0  0  0  0  0  0
  191.2110  176.7960  140.5340 C   0  0  0  0  0  3  0  0  0  0  0  0
  188.8760  177.7230  143.2770 C   0  0  0  0  0  0  0  0  0  0  0  0
  190.7140  177.0260  141.8170 C   0  0  0  0  0  3  0  0  0  0  0  0
  187.5640  178.1780  143.4090 C   0  0  0  0  0  3  0  0  0  0  0  0
  190.4000  177.0170  139.4180 C   0  0  0  0  0  3  0  0  0  0  0  0
  188.5770  177.7030  140.8680 C   0  0  0  0  0  0  0  0  0  0  0  0
  184.9180  179.1520  143.6270 C   0  0  0  0  0  3  0  0  0  0  0  0
  183.2310  178.8550  141.0980 C   0  0  0  0  0  3  0  0  0  0  0  0
  182.5080  178.7350  143.4760 C   0  0  0  0  0  0  0  0  0  0  0  0
  185.3770  178.8860  142.3960 C   0  0  0  0  0  0  0  0  0  0  0  0
  185.1730  179.5540  140.0170 O   0  0  0  0  0  1  0  0  0  0  0  0
  182.3460  178.4130  142.1930 C   0  0  0  0  0  3  0  0  0  0  0  0
  184.5460  179.1070  141.1740 C   0  0  0  0  0  0  0  0  0  0  0  0
  181.6360  178.2530  144.3930 F   0  0  0  0  0  0  0  0  0  0  0  0
  183.5610  179.6970  143.9150 C   0  0  0  0  0  2  0  0  0  0  0  0
  188.2180  177.7110  138.3680 C   0  0  2  0  0  3  0  0  0  0  0  0
  187.6550  176.3950  137.8130 C   0  0  0  0  0  2  0  0  0  0  0  0
  188.3680  178.3110  135.9030 C   0  0  1  0  0  3  0  0  0  0  0  0
  188.3970  175.9850  136.6930 O   0  0  0  0  0  0  0  0  0  0  0  0
  188.9880  179.8570  137.6220 O   0  0  0  0  0  1  0  0  0  0  0  0
  188.9810  178.5020  137.2940 C   0  0  1  0  0  3  0  0  0  0  0  0
  189.2780  177.4610  135.0410 C   0  0  0  0  0  2  0  0  0  0  0  0
  188.0290  176.8340  135.6290 C   0  0  2  0  0  3  0  0  0  0  0  0
  1 11  1  0  0  0  0
  3 15  1  0  0  0  0
  3  9  1  0  0  0  0
  4  7  1  0  0  0  0
  5  3  2  0  0  0  0
  6  8  2  0  0  0  0
  7  9  2  0  0  0  0
  7  2  1  0  0  0  0
  8  4  1  0  0  0  0
 10  1  2  0  0  0  0
 10  6  1  0  0  0  0
 11  5  1  0  0  0  0
 11  4  2  0  0  0  0
 12 20  1  0  0  0  0
 13 18  2  0  0  0  0
 13 17  1  0  0  0  0
 14 20  1  0  0  0  0
 14 19  1  0  0  0  0
 15 12  2  0  0  0  0
 16 18  1  0  0  0  0
 17 14  2  0  0  0  0
 18 15  1  0  0  0  0
 21  1  1  1  0  0  0
 22 21  1  0  0  0  0
 23 27  1  6  0  0  0
 23 26  1  0  0  0  0
 24 22  1  0  0  0  0
 26 25  1  1  0  0  0
 26 21  1  0  0  0  0
 28 27  1  6  0  0  0
 28 23  1  0  0  0  0
 28 24  1  0  0  0  0
M  END
>  <MODEL>
4

>  <REMARK>
 VINA RESULT:      -8.7      3.721      6.518
  Name = 
  2 active torsions:
  status: ('A' for Active; 'I' for Inactive)
    1  A    between atoms: C_1  and  C_2
    2  A    between atoms: C_10  and  C_13
                            x       y       z     vdW  Elec       q    Type
                         _______ _______ _______ _____ _____    ______ ____

>  <TORSDO>
F 2

$$$$
=
 OpenBabel10262420433D

 28 32  0  0  1  0  0  0  0  0999 V2000
  189.9950  177.7800  141.7090 C   0  0  0  0  0  0  0  0  0  0  0  0
  187.8390  177.4600  137.2360 C   0  0  0  0  0  1  0  0  0  0  0  0
  186.5820  178.5710  140.6210 C   0  0  0  0  0  0  0  0  0  0  0  0
  188.9590  177.6180  139.5030 C   0  0  0  0  0  0  0  0  0  0  0  0
  187.6950  178.3980  141.3870 N   0  0  0  0  0  0  0  0  0  0  0  0
  191.2810  176.9830  139.8060 C   0  0  0  0  0  3  0  0  0  0  0  0
  187.8220  177.7810  138.6920 C   0  0  0  0  0  0  0  0  0  0  0  0
  190.1690  177.1410  138.9790 C   0  0  0  0  0  3  0  0  0  0  0  0
  186.6380  178.2540  139.2570 C   0  0  0  0  0  3  0  0  0  0  0  0
  191.1950  177.3000  141.1640 C   0  0  0  0  0  3  0  0  0  0  0  0
  188.8710  177.9390  140.8770 C   0  0  0  0  0  0  0  0  0  0  0  0
  185.3030  179.2200  142.5700 C   0  0  0  0  0  3  0  0  0  0  0  0
  182.8670  179.1290  140.7290 C   0  0  0  0  0  3  0  0  0  0  0  0
  182.9690  178.8100  143.1940 C   0  0  0  0  0  0  0  0  0  0  0  0
  185.3210  179.0580  141.2390 C   0  0  0  0  0  0  0  0  0  0  0  0
  184.3600  179.9200  139.1240 O   0  0  0  0  0  1  0  0  0  0  0  0
  182.3830  178.5960  142.0170 C   0  0  0  0  0  3  0  0  0  0  0  0
  184.1390  179.3770  140.3840 C   0  0  0  0  0  0  0  0  0  0  0  0
  182.4370  178.2520  144.3080 F   0  0  0  0  0  0  0  0  0  0  0  0
  184.1310  179.7350  143.3340 C   0  0  0  0  0  2  0  0  0  0  0  0
  189.9090  178.1100  143.1730 C   0  0  2  0  0  3  0  0  0  0  0  0
  191.0960  178.9760  143.6180 C   0  0  0  0  0  2  0  0  0  0  0  0
  190.2220  177.0680  145.4690 C   0  0  1  0  0  3  0  0  0  0  0  0
  192.0540  178.1840  144.2700 O   0  0  0  0  0  0  0  0  0  0  0  0
  188.4670  176.3780  143.9960 O   0  0  0  0  0  1  0  0  0  0  0  0
  189.7840  176.8340  144.0200 C   0  0  1  0  0  3  0  0  0  0  0  0
  191.5430  176.3750  145.7360 C   0  0  0  0  0  2  0  0  0  0  0  0
  191.5300  177.8780  145.5430 C   0  0  2  0  0  3  0  0  0  0  0  0
  2  7  1  0  0  0  0
  3 15  1  0  0  0  0
  3  5  2  0  0  0  0
  4 11  1  0  0  0  0
  6 10  2  0  0  0  0
  7  9  2  0  0  0  0
  7  4  1  0  0  0  0
  8  4  2  0  0  0  0
  8  6  1  0  0  0  0
  9  3  1  0  0  0  0
 10  1  1  0  0  0  0
 11  5  1  0  0  0  0
 11  1  2  0  0  0  0
 12 20  1  0  0  0  0
 13 17  1  0  0  0  0
 14 20  1  0  0  0  0
 14 19  1  0  0  0  0
 15 12  2  0  0  0  0
 16 18  1  0  0  0  0
 17 14  2  0  0  0  0
 18 13  2  0  0  0  0
 18 15  1  0  0  0  0
 21  1  1  6  0  0  0
 21 22  1  0  0  0  0
 21 26  1  0  0  0  0
 22 24  1  0  0  0  0
 23 28  1  0  0  0  0
 23 27  1  6  0  0  0
 24 28  1  0  0  0  0
 26 25  1  1  0  0  0
 26 23  1  0  0  0  0
 28 27  1  1  0  0  0
M  END
>  <MODEL>
5

>  <REMARK>
 VINA RESULT:      -8.6      2.977      7.849
  Name = 
  2 active torsions:
  status: ('A' for Active; 'I' for Inactive)
    1  A    between atoms: C_1  and  C_2
    2  A    between atoms: C_10  and  C_13
                            x       y       z     vdW  Elec       q    Type
                         _______ _______ _______ _____ _____    ______ ____

>  <TORSDO>
F 2

$$$$
=
 OpenBabel10262420433D

 28 32  0  0  1  0  0  0  0  0999 V2000
  183.1500  178.5110  141.6190 C   0  0  0  0  0  0  0  0  0  0  0  0
  184.7190  178.6710  146.3380 C   0  0  0  0  0  1  0  0  0  0  0  0
  186.5210  178.2560  143.0430 C   0  0  0  0  0  0  0  0  0  0  0  0
  183.8970  178.5960  143.9430 C   0  0  0  0  0  0  0  0  0  0  0  0
  185.4800  178.3010  142.1650 N   0  0  0  0  0  0  0  0  0  0  0  0
  181.5380  178.8050  143.4150 C   0  0  0  0  0  3  0  0  0  0  0  0
  184.9520  178.5470  144.8700 C   0  0  0  0  0  0  0  0  0  0  0  0
  182.5680  178.7640  144.3560 C   0  0  0  0  0  3  0  0  0  0  0  0
  186.2600  178.3740  144.4150 C   0  0  0  0  0  3  0  0  0  0  0  0
  181.8260  178.6780  142.0550 C   0  0  0  0  0  3  0  0  0  0  0  0
  184.1900  178.4680  142.5660 C   0  0  0  0  0  0  0  0  0  0  0  0
  188.1370  178.2640  141.2420 C   0  0  0  0  0  3  0  0  0  0  0  0
  189.9830  176.8000  143.1880 C   0  0  0  0  0  3  0  0  0  0  0  0
  189.9770  176.7370  140.7010 C   0  0  0  0  0  0  0  0  0  0  0  0
  187.9060  178.0520  142.5460 C   0  0  0  0  0  0  0  0  0  0  0  0
  188.9590  178.1510  144.7880 O   0  0  0  0  0  1  0  0  0  0  0  0
  190.2490  176.1760  141.8780 C   0  0  0  0  0  3  0  0  0  0  0  0
  188.9920  177.6530  143.4910 C   0  0  0  0  0  0  0  0  0  0  0  0
  190.2530  176.0550  139.5640 F   0  0  0  0  0  0  0  0  0  0  0  0
  189.4760  178.1390  140.5990 C   0  0  0  0  0  2  0  0  0  0  0  0
  183.4500  178.3660  140.1530 C   0  0  2  0  0  3  0  0  0  0  0  0
  183.4560  179.7310  139.4500 C   0  0  0  0  0  2  0  0  0  0  0  0
  182.3920  177.6070  137.9720 C   0  0  1  0  0  3  0  0  0  0  0  0
  182.2460  179.9280  138.7660 O   0  0  0  0  0  0  0  0  0  0  0  0
  182.8720  176.0740  139.7450 O   0  0  0  0  0  1  0  0  0  0  0  0
  182.4750  177.3850  139.4850 C   0  0  1  0  0  3  0  0  0  0  0  0
  181.0560  178.2190  137.6050 C   0  0  0  0  0  2  0  0  0  0  0  0
  182.2870  179.1030  137.6220 C   0  0  2  0  0  3  0  0  0  0  0  0
  1 10  2  0  0  0  0
  1 11  1  0  0  0  0
  3  9  1  0  0  0  0
  4  8  1  0  0  0  0
  4  7  1  0  0  0  0
  5 11  1  0  0  0  0
  5  3  2  0  0  0  0
  6  8  2  0  0  0  0
  7  2  1  0  0  0  0
  9  7  2  0  0  0  0
 10  6  1  0  0  0  0
 11  4  2  0  0  0  0
 12 15  2  0  0  0  0
 13 18  2  0  0  0  0
 14 17  2  0  0  0  0
 15  3  1  0  0  0  0
 15 18  1  0  0  0  0
 17 13  1  0  0  0  0
 18 16  1  0  0  0  0
 19 14  1  0  0  0  0
 20 14  1  0  0  0  0
 20 12  1  0  0  0  0
 21  1  1  1  0  0  0
 22 21  1  0  0  0  0
 23 27  1  1  0  0  0
 23 26  1  0  0  0  0
 24 22  1  0  0  0  0
 26 25  1  6  0  0  0
 26 21  1  0  0  0  0
 28 27  1  1  0  0  0
 28 23  1  0  0  0  0
 28 24  1  0  0  0  0
M  END
>  <MODEL>
6

>  <REMARK>
 VINA RESULT:      -8.4      1.672      2.028
  Name = 
  2 active torsions:
  status: ('A' for Active; 'I' for Inactive)
    1  A    between atoms: C_1  and  C_2
    2  A    between atoms: C_10  and  C_13
                            x       y       z     vdW  Elec       q    Type
                         _______ _______ _______ _____ _____    ______ ____

>  <TORSDO>
F 2

$$$$
=
 OpenBabel10262420433D

 28 32  0  0  1  0  0  0  0  0999 V2000
  187.4980  178.3530  140.8180 C   0  0  0  0  0  0  0  0  0  0  0  0
  184.3200  178.3270  144.6460 C   0  0  0  0  0  1  0  0  0  0  0  0
  188.0710  177.9350  144.4180 C   0  0  0  0  0  0  0  0  0  0  0  0
  185.9190  178.3470  142.6820 C   0  0  0  0  0  0  0  0  0  0  0  0
  188.2670  178.0430  143.0740 N   0  0  0  0  0  0  0  0  0  0  0  0
  185.1210  178.6580  140.4110 C   0  0  0  0  0  3  0  0  0  0  0  0
  185.6900  178.2340  144.0640 C   0  0  0  0  0  0  0  0  0  0  0  0
  184.8660  178.5530  141.7800 C   0  0  0  0  0  3  0  0  0  0  0  0
  186.7670  178.0250  144.9250 C   0  0  0  0  0  3  0  0  0  0  0  0
  186.4290  178.5570  139.9330 C   0  0  0  0  0  3  0  0  0  0  0  0
  187.2440  178.2460  142.1990 C   0  0  0  0  0  0  0  0  0  0  0  0
  190.4220  177.4750  144.7580 C   0  0  0  0  0  3  0  0  0  0  0  0
  189.6650  176.9100  147.6630 C   0  0  0  0  0  3  0  0  0  0  0  0
  191.5800  176.0170  146.3510 C   0  0  0  0  0  0  0  0  0  0  0  0
  189.2250  177.6940  145.3210 C   0  0  0  0  0  0  0  0  0  0  0  0
  188.1240  178.6270  147.3360 O   0  0  0  0  0  1  0  0  0  0  0  0
  190.6990  175.9070  147.3430 C   0  0  0  0  0  3  0  0  0  0  0  0
  189.0400  177.7280  146.8030 C   0  0  0  0  0  0  0  0  0  0  0  0
  192.4730  175.0180  146.1470 F   0  0  0  0  0  0  0  0  0  0  0  0
  191.6800  177.2560  145.5260 C   0  0  0  0  0  2  0  0  0  0  0  0
  188.9020  178.2380  140.2930 C   0  0  2  0  0  3  0  0  0  0  0  0
  189.0550  178.9650  138.9500 C   0  0  0  0  0  2  0  0  0  0  0  0
  190.4910  176.5780  139.2090 C   0  0  1  0  0  3  0  0  0  0  0  0
  189.0200  178.0410  137.8930 O   0  0  0  0  0  0  0  0  0  0  0  0
  189.7180  176.3050  141.4570 O   0  0  0  0  0  1  0  0  0  0  0  0
  189.3370  176.7670  140.1980 C   0  0  1  0  0  3  0  0  0  0  0  0
  190.0010  175.8700  137.9620 C   0  0  0  0  0  2  0  0  0  0  0  0
  190.2560  177.3630  137.9050 C   0  0  2  0  0  3  0  0  0  0  0  0
  1 11  1  0  0  0  0
  3  9  1  0  0  0  0
  3 15  1  0  0  0  0
  4  7  1  0  0  0  0
  5  3  2  0  0  0  0
  6  8  2  0  0  0  0
  7  2  1  0  0  0  0
  7  9  2  0  0  0  0
  8  4  1  0  0  0  0
 10  6  1  0  0  0  0
 10  1  2  0  0  0  0
 11  4  2  0  0  0  0
 11  5  1  0  0  0  0
 12 15  2  0  0  0  0
 12 20  1  0  0  0  0
 14 17  2  0  0  0  0
 15 18  1  0  0  0  0
 17 13  1  0  0  0  0
 18 16  1  0  0  0  0
 18 13  2  0  0  0  0
 19 14  1  0  0  0  0
 20 14  1  0  0  0  0
 21  1  1  6  0  0  0
 22 21  1  0  0  0  0
 23 27  1  6  0  0  0
 23 26  1  0  0  0  0
 24 28  1  0  0  0  0
 24 22  1  0  0  0  0
 26 21  1  0  0  0  0
 26 25  1  1  0  0  0
 28 27  1  6  0  0  0
 28 23  1  0  0  0  0
M  END
>  <MODEL>
7

>  <REMARK>
 VINA RESULT:      -8.4      2.832      4.527
  Name = 
  2 active torsions:
  status: ('A' for Active; 'I' for Inactive)
    1  A    between atoms: C_1  and  C_2
    2  A    between atoms: C_10  and  C_13
                            x       y       z     vdW  Elec       q    Type
                         _______ _______ _______ _____ _____    ______ ____

>  <TORSDO>
F 2

$$$$
=
 OpenBabel10262420433D

 28 32  0  0  1  0  0  0  0  0999 V2000
  186.1890  178.2140  139.9500 C   0  0  0  0  0  0  0  0  0  0  0  0
  182.8380  179.3780  143.4390 C   0  0  0  0  0  1  0  0  0  0  0  0
  186.3250  177.9320  143.6050 C   0  0  0  0  0  0  0  0  0  0  0  0
  184.5300  178.7960  141.6450 C   0  0  0  0  0  0  0  0  0  0  0  0
  186.6510  177.8760  142.2830 N   0  0  0  0  0  0  0  0  0  0  0  0
  184.0400  179.1420  139.2940 C   0  0  0  0  0  3  0  0  0  0  0  0
  184.1670  178.8590  143.0020 C   0  0  0  0  0  0  0  0  0  0  0  0
  183.6560  179.2200  140.6340 C   0  0  0  0  0  3  0  0  0  0  0  0
  185.0650  178.4230  143.9750 C   0  0  0  0  0  3  0  0  0  0  0  0
  185.2980  178.6420  138.9530 C   0  0  0  0  0  3  0  0  0  0  0  0
  185.8040  178.2900  141.3020 C   0  0  0  0  0  0  0  0  0  0  0  0
  186.9480  177.5960  145.9190 C   0  0  0  0  0  3  0  0  0  0  0  0
  189.7340  176.9490  144.8440 C   0  0  0  0  0  3  0  0  0  0  0  0
  189.0940  177.8400  147.0770 C   0  0  0  0  0  0  0  0  0  0  0  0
  187.2850  177.4460  144.6300 C   0  0  0  0  0  0  0  0  0  0  0  0
  188.5590  176.0030  143.0680 O   0  0  0  0  0  1  0  0  0  0  0  0
  189.9780  177.7000  146.0910 C   0  0  0  0  0  3  0  0  0  0  0  0
  188.5610  176.7910  144.2130 C   0  0  0  0  0  0  0  0  0  0  0  0
  189.4300  178.5690  148.1680 F   0  0  0  0  0  0  0  0  0  0  0  0
  187.7830  177.1270  147.0610 C   0  0  0  0  0  2  0  0  0  0  0  0
  187.5380  177.6690  139.5730 C   0  0  2  0  0  3  0  0  0  0  0  0
  188.6530  178.6760  139.8890 C   0  0  0  0  0  2  0  0  0  0  0  0
  188.9920  177.1830  137.5470 C   0  0  1  0  0  3  0  0  0  0  0  0
  189.0490  179.3430  138.7180 O   0  0  0  0  0  0  0  0  0  0  0  0
  186.9680  175.9790  137.9680 O   0  0  0  0  0  1  0  0  0  0  0  0
  187.5650  177.2320  138.1000 C   0  0  1  0  0  3  0  0  0  0  0  0
  189.2160  178.3200  136.5710 C   0  0  0  0  0  2  0  0  0  0  0  0
  189.8050  178.4230  137.9640 C   0  0  2  0  0  3  0  0  0  0  0  0
  1 11  1  0  0  0  0
  3  9  1  0  0  0  0
  3 15  1  0  0  0  0
  4  7  1  0  0  0  0
  5  3  2  0  0  0  0
  6  8  2  0  0  0  0
  7  2  1  0  0  0  0
  7  9  2  0  0  0  0
  8  4  1  0  0  0  0
 10  6  1  0  0  0  0
 10  1  2  0  0  0  0
 11  4  2  0  0  0  0
 11  5  1  0  0  0  0
 12 20  1  0  0  0  0
 13 17  1  0  0  0  0
 14 19  1  0  0  0  0
 15 12  2  0  0  0  0
 16 18  1  0  0  0  0
 17 14  2  0  0  0  0
 18 15  1  0  0  0  0
 18 13  2  0  0  0  0
 20 14  1  0  0  0  0
 21 22  1  0  0  0  0
 21  1  1  6  0  0  0
 23 27  1  6  0  0  0
 23 28  1  0  0  0  0
 23 26  1  0  0  0  0
 24 22  1  0  0  0  0
 26 25  1  1  0  0  0
 26 21  1  0  0  0  0
 28 27  1  6  0  0  0
 28 24  1  0  0  0  0
M  END
>  <MODEL>
8

>  <REMARK>
 VINA RESULT:      -8.3      2.869      4.159
  Name = 
  2 active torsions:
  status: ('A' for Active; 'I' for Inactive)
    1  A    between atoms: C_1  and  C_2
    2  A    between atoms: C_10  and  C_13
                            x       y       z     vdW  Elec       q    Type
                         _______ _______ _______ _____ _____    ______ ____

>  <TORSDO>
F 2

$$$$
=
 OpenBabel10262420433D

 28 32  0  0  1  0  0  0  0  0999 V2000
  187.8620  177.9050  143.1760 C   0  0  0  0  0  0  0  0  0  0  0  0
  183.2100  178.8110  141.6630 C   0  0  0  0  0  1  0  0  0  0  0  0
  186.4480  178.2270  139.8060 C   0  0  0  0  0  0  0  0  0  0  0  0
  185.5700  178.3470  142.4570 C   0  0  0  0  0  0  0  0  0  0  0  0
  187.3180  178.0490  140.8400 N   0  0  0  0  0  0  0  0  0  0  0  0
  186.0990  178.2100  144.8210 C   0  0  0  0  0  3  0  0  0  0  0  0
  184.6540  178.5400  141.4080 C   0  0  0  0  0  0  0  0  0  0  0  0
  185.1680  178.4010  143.7990 C   0  0  0  0  0  3  0  0  0  0  0  0
  185.0990  178.4820  140.0880 C   0  0  0  0  0  3  0  0  0  0  0  0
  187.4380  177.9650  144.5130 C   0  0  0  0  0  3  0  0  0  0  0  0
  186.9260  178.0980  142.1430 C   0  0  0  0  0  0  0  0  0  0  0  0
  186.0450  177.9250  137.4400 C   0  0  0  0  0  3  0  0  0  0  0  0
  189.0850  177.8020  137.1620 C   0  0  0  0  0  3  0  0  0  0  0  0
  187.3450  176.7900  135.7000 C   0  0  0  0  0  0  0  0  0  0  0  0
  186.9390  178.1810  138.4050 C   0  0  0  0  0  0  0  0  0  0  0  0
  189.0580  179.3790  138.8770 O   0  0  0  0  0  1  0  0  0  0  0  0
  188.5800  176.8040  136.1990 C   0  0  0  0  0  3  0  0  0  0  0  0
  188.3790  178.4450  138.1040 C   0  0  0  0  0  0  0  0  0  0  0  0
  186.9940  175.8100  134.8330 F   0  0  0  0  0  0  0  0  0  0  0  0
  186.3720  177.8840  135.9860 C   0  0  0  0  0  2  0  0  0  0  0  0
  189.3070  177.6480  142.8530 C   0  0  2  0  0  3  0  0  0  0  0  0
  189.5400  176.1790  142.4710 C   0  0  0  0  0  2  0  0  0  0  0  0
  191.5770  177.3820  143.9640 C   0  0  1  0  0  3  0  0  0  0  0  0
  190.0810  175.4760  143.5600 O   0  0  0  0  0  0  0  0  0  0  0  0
  190.4030  179.4670  143.9690 O   0  0  0  0  0  1  0  0  0  0  0  0
  190.2180  178.0860  144.0110 C   0  0  1  0  0  3  0  0  0  0  0  0
  191.6810  176.3680  145.0850 C   0  0  0  0  0  2  0  0  0  0  0  0
  191.4280  175.8780  143.6740 C   0  0  2  0  0  3  0  0  0  0  0  0
  1 10  1  0  0  0  0
  3  9  1  0  0  0  0
  3  5  2  0  0  0  0
  4  8  2  0  0  0  0
  5 11  1  0  0  0  0
  7  2  1  0  0  0  0
  7  4  1  0  0  0  0
  8  6  1  0  0  0  0
  9  7  2  0  0  0  0
 10  6  2  0  0  0  0
 11  4  1  0  0  0  0
 11  1  2  0  0  0  0
 12 15  2  0  0  0  0
 13 18  2  0  0  0  0
 14 20  1  0  0  0  0
 14 17  2  0  0  0  0
 15  3  1  0  0  0  0
 17 13  1  0  0  0  0
 18 15  1  0  0  0  0
 18 16  1  0  0  0  0
 19 14  1  0  0  0  0
 20 12  1  0  0  0  0
 21  1  1  1  0  0  0
 21 26  1  0  0  0  0
 22 21  1  0  0  0  0
 22 24  1  0  0  0  0
 23 26  1  0  0  0  0
 23 27  1  1  0  0  0
 24 28  1  0  0  0  0
 26 25  1  6  0  0  0
 28 23  1  0  0  0  0
 28 27  1  1  0  0  0
M  END
>  <MODEL>
9

>  <REMARK>
 VINA RESULT:      -8.1      3.331      6.774
  Name = 
  2 active torsions:
  status: ('A' for Active; 'I' for Inactive)
    1  A    between atoms: C_1  and  C_2
    2  A    between atoms: C_10  and  C_13
                            x       y       z     vdW  Elec       q    Type
                         _______ _______ _______ _____ _____    ______ ____

>  <TORSDO>
F 2

$$$$
