=
 OpenBabel10262421073D

 32 37  0  0  1  0  0  0  0  0999 V2000
  189.6490  177.3110  143.2760 C   0  0  0  0  0  0  0  0  0  0  0  0
  187.7970  177.6320  144.8290 C   0  0  0  0  0  0  0  0  0  0  0  0
  191.0880  176.9400  143.0030 C   0  0  0  0  0  2  0  0  0  0  0  0
  189.1570  177.3540  144.6010 C   0  0  0  0  0  0  0  0  0  0  0  0
  187.2590  177.6400  146.1340 C   0  0  0  0  0  0  0  0  0  0  0  0
  183.4870  179.2720  143.1990 C   0  0  0  0  0  2  0  0  0  0  0  0
  186.9470  177.8690  143.7330 C   0  0  0  0  0  0  0  0  0  0  0  0
  183.6790  178.4380  145.5210 C   0  0  0  0  0  3  0  0  0  0  0  0
  185.1030  178.1580  145.2740 C   0  0  0  0  0  0  0  0  0  0  0  0
  190.0950  177.2310  145.7820 C   0  0  1  0  0  3  0  0  0  0  0  0
  185.9370  177.9030  146.3170 N   0  0  0  0  0  0  0  0  0  0  0  0
  189.3850  176.5920  146.9730 C   0  0  0  0  0  2  0  0  0  0  0  0
  191.3590  176.4610  145.4350 C   0  0  0  0  0  2  0  0  0  0  0  0
  187.4470  177.8180  142.4700 N   0  0  0  0  0  0  0  0  0  0  0  0
  188.7540  177.5400  142.2060 C   0  0  0  0  0  0  0  0  0  0  0  0
  185.5920  178.1470  143.9540 C   0  0  0  0  0  0  0  0  0  0  0  0
  188.1260  177.3890  147.3400 C   0  0  1  0  0  3  0  0  0  0  0  0
  191.9980  177.1070  144.2170 C   0  0  0  0  0  2  0  0  0  0  0  0
  182.9060  178.9160  144.5420 C   0  0  0  0  0  3  0  0  0  0  0  0
  184.6280  178.3240  142.8100 C   0  0  0  0  0  2  0  0  0  0  0  0
  189.2530  178.2810  138.6000 C   0  0  0  0  0  0  0  0  0  0  0  0
  188.9490  179.1390  137.7310 O   0  0  0  0  0  0  0  0  0  0  0  0
  189.1890  177.4690  140.8340 N   0  0  0  0  0  0  0  0  0  0  0  0
  189.9830  177.2290  138.2580 O   0  0  0  0  0  0  0  0  0  0  0  0
  189.9190  176.4250  140.4350 N   0  0  0  0  0  0  0  0  0  0  0  0
  188.8300  178.4260  139.9250 C   0  0  0  0  0  0  0  0  0  0  0  0
  188.1420  179.4290  140.2680 O   0  0  0  0  0  0  0  0  0  0  0  0
  190.3240  176.3010  139.1450 C   0  0  0  0  0  0  0  0  0  0  0  0
  191.9940  175.2630  137.6750 C   0  0  0  0  0  1  0  0  0  0  0  0
  191.0910  175.2000  138.7680 O   0  0  0  0  0  0  0  0  0  0  0  0
  188.4880  178.7080  148.0090 C   0  0  0  0  0  2  0  0  0  0  0  0
  189.4810  178.5010  148.9660 O   0  0  0  0  0  1  0  0  0  0  0  0
  1  4  1  0  0  0  0
  2  5  1  0  0  0  0
  3  1  1  0  0  0  0
  3 18  1  0  0  0  0
  4  2  2  0  0  0  0
  4 10  1  0  0  0  0
  5 11  2  0  0  0  0
  5 17  1  0  0  0  0
  6 19  1  0  0  0  0
  7 16  1  0  0  0  0
  7  2  1  0  0  0  0
  9  8  1  0  0  0  0
  9 11  1  0  0  0  0
 10 13  1  6  0  0  0
 10 12  1  0  0  0  0
 12 17  1  0  0  0  0
 14  7  2  0  0  0  0
 15 14  1  0  0  0  0
 15  1  2  0  0  0  0
 16  9  2  0  0  0  0
 17 31  1  6  0  0  0
 18 13  1  0  0  0  0
 19  8  2  0  0  0  0
 20  6  1  0  0  0  0
 20 16  1  0  0  0  0
 21 26  1  0  0  0  0
 22 21  2  0  0  0  0
 23 15  1  0  0  0  0
 24 21  1  0  0  0  0
 24 28  1  0  0  0  0
 25 23  1  0  0  0  0
 26 27  2  0  0  0  0
 26 23  1  0  0  0  0
 28 25  2  0  0  0  0
 29 30  1  0  0  0  0
 30 28  1  0  0  0  0
 31 32  1  0  0  0  0
M  END
>  <MODEL>
1

>  <REMARK>
 VINA RESULT:     -10.7      0.000      0.000
  Name = 
  3 active torsions:
  status: ('A' for Active; 'I' for Inactive)
    1  A    between atoms: C_13  and  C_29
    2  A    between atoms: O_15  and  C_26
    3  A    between atoms: N_16  and  C_27
                            x       y       z     vdW  Elec       q    Type
                         _______ _______ _______ _____ _____    ______ ____

>  <TORSDO>
F 3

$$$$
=
 OpenBabel10262421073D

 32 37  0  0  1  0  0  0  0  0999 V2000
  185.7130  178.3340  144.2190 C   0  0  0  0  0  0  0  0  0  0  0  0
  188.1210  177.9570  144.2550 C   0  0  0  0  0  0  0  0  0  0  0  0
  184.4150  178.6180  144.9390 C   0  0  0  0  0  2  0  0  0  0  0  0
  186.9120  178.1500  144.9460 C   0  0  0  0  0  0  0  0  0  0  0  0
  189.3460  177.8140  144.9430 C   0  0  0  0  0  0  0  0  0  0  0  0
  190.5000  176.9190  140.1090 C   0  0  0  0  0  2  0  0  0  0  0  0
  188.1180  177.9440  142.8480 C   0  0  0  0  0  0  0  0  0  0  0  0
  191.7850  177.4080  142.1660 C   0  0  0  0  0  3  0  0  0  0  0  0
  190.5130  177.6000  142.8830 C   0  0  0  0  0  0  0  0  0  0  0  0
  186.8960  178.0320  146.4540 C   0  0  1  0  0  3  0  0  0  0  0  0
  190.4980  177.6390  144.2410 N   0  0  0  0  0  0  0  0  0  0  0  0
  188.1980  178.5580  147.0530 C   0  0  0  0  0  2  0  0  0  0  0  0
  185.6980  178.7360  147.0730 C   0  0  0  0  0  2  0  0  0  0  0  0
  186.9510  178.1260  142.1750 N   0  0  0  0  0  0  0  0  0  0  0  0
  185.7610  178.3290  142.8060 C   0  0  0  0  0  0  0  0  0  0  0  0
  189.3200  177.7520  142.1540 C   0  0  0  0  0  0  0  0  0  0  0  0
  189.4020  177.8250  146.4480 C   0  0  1  0  0  3  0  0  0  0  0  0
  184.4350  178.2110  146.4100 C   0  0  0  0  0  2  0  0  0  0  0  0
  191.7880  177.1340  140.8590 C   0  0  0  0  0  3  0  0  0  0  0  0
  189.3780  177.8140  140.6490 C   0  0  0  0  0  2  0  0  0  0  0  0
  183.4790  179.1760  140.0010 C   0  0  0  0  0  0  0  0  0  0  0  0
  183.5100  179.5320  138.7940 O   0  0  0  0  0  0  0  0  0  0  0  0
  184.5790  178.5510  142.0140 N   0  0  0  0  0  0  0  0  0  0  0  0
  182.3130  179.0210  140.6110 O   0  0  0  0  0  0  0  0  0  0  0  0
  183.3780  178.4170  142.5830 N   0  0  0  0  0  0  0  0  0  0  0  0
  184.6640  178.9400  140.7050 C   0  0  0  0  0  0  0  0  0  0  0  0
  185.7830  179.0740  140.1340 O   0  0  0  0  0  0  0  0  0  0  0  0
  182.2380  178.6470  141.8830 C   0  0  0  0  0  0  0  0  0  0  0  0
  180.8370  178.7350  143.8970 C   0  0  0  0  0  1  0  0  0  0  0  0
  181.0030  178.4900  142.5090 O   0  0  0  0  0  0  0  0  0  0  0  0
  189.5010  176.4020  146.9780 C   0  0  0  0  0  2  0  0  0  0  0  0
  190.8070  176.1360  147.3920 O   0  0  0  0  0  1  0  0  0  0  0  0
  1  3  1  0  0  0  0
  1  4  1  0  0  0  0
  2  5  1  0  0  0  0
  2  4  2  0  0  0  0
  3 18  1  0  0  0  0
  4 10  1  0  0  0  0
  5 17  1  0  0  0  0
  6 20  1  0  0  0  0
  6 19  1  0  0  0  0
  7  2  1  0  0  0  0
  8  9  1  0  0  0  0
  9 11  1  0  0  0  0
 10 12  1  1  0  0  0
 10 13  1  0  0  0  0
 11  5  2  0  0  0  0
 14 15  1  0  0  0  0
 14  7  2  0  0  0  0
 15  1  2  0  0  0  0
 16  7  1  0  0  0  0
 16  9  2  0  0  0  0
 17 31  1  1  0  0  0
 17 12  1  0  0  0  0
 18 13  1  0  0  0  0
 19  8  2  0  0  0  0
 20 16  1  0  0  0  0
 21 24  1  0  0  0  0
 21 26  1  0  0  0  0
 22 21  2  0  0  0  0
 23 25  1  0  0  0  0
 23 15  1  0  0  0  0
 24 28  1  0  0  0  0
 26 23  1  0  0  0  0
 27 26  2  0  0  0  0
 28 30  1  0  0  0  0
 28 25  2  0  0  0  0
 30 29  1  0  0  0  0
 31 32  1  0  0  0  0
M  END
>  <MODEL>
2

>  <REMARK>
 VINA RESULT:      -9.8      2.596      6.098
  Name = 
  3 active torsions:
  status: ('A' for Active; 'I' for Inactive)
    1  A    between atoms: C_13  and  C_29
    2  A    between atoms: O_15  and  C_26
    3  A    between atoms: N_16  and  C_27
                            x       y       z     vdW  Elec       q    Type
                         _______ _______ _______ _____ _____    ______ ____

>  <TORSDO>
F 3

$$$$
=
 OpenBabel10262421073D

 32 37  0  0  1  0  0  0  0  0999 V2000
  187.3390  177.8740  144.1170 C   0  0  0  0  0  0  0  0  0  0  0  0
  189.6170  177.4870  143.3380 C   0  0  0  0  0  0  0  0  0  0  0  0
  186.3500  178.0820  145.2410 C   0  0  0  0  0  2  0  0  0  0  0  0
  188.6990  177.6070  144.3970 C   0  0  0  0  0  0  0  0  0  0  0  0
  190.9900  177.2650  143.5780 C   0  0  0  0  0  0  0  0  0  0  0  0
  190.5080  176.9060  138.5640 C   0  0  0  0  0  2  0  0  0  0  0  0
  189.1640  177.6290  142.0130 C   0  0  0  0  0  0  0  0  0  0  0  0
  192.3990  177.1590  140.1390 C   0  0  0  0  0  3  0  0  0  0  0  0
  191.4310  177.2760  141.2410 C   0  0  0  0  0  0  0  0  0  0  0  0
  189.1600  177.3220  145.8100 C   0  0  1  0  0  3  0  0  0  0  0  0
  191.8500  177.1640  142.5290 N   0  0  0  0  0  0  0  0  0  0  0  0
  190.6040  177.7750  146.0100 C   0  0  0  0  0  2  0  0  0  0  0  0
  188.2500  177.9580  146.8500 C   0  0  0  0  0  2  0  0  0  0  0  0
  187.8520  177.8890  141.7740 N   0  0  0  0  0  0  0  0  0  0  0  0
  186.9340  178.0250  142.7710 C   0  0  0  0  0  0  0  0  0  0  0  0
  190.0730  177.5110  140.9540 C   0  0  0  0  0  0  0  0  0  0  0  0
  191.5240  177.1090  144.9780 C   0  0  1  0  0  3  0  0  0  0  0  0
  186.8230  177.5140  146.5770 C   0  0  0  0  0  2  0  0  0  0  0  0
  191.9740  177.0320  138.8790 C   0  0  0  0  0  3  0  0  0  0  0  0
  189.6520  177.7390  139.5250 C   0  0  0  0  0  2  0  0  0  0  0  0
  183.8920  179.0390  140.8970 C   0  0  0  0  0  0  0  0  0  0  0  0
  183.5290  179.3860  139.7430 O   0  0  0  0  0  0  0  0  0  0  0  0
  185.5700  178.3370  142.4280 N   0  0  0  0  0  0  0  0  0  0  0  0
  183.0000  178.9810  141.8770 O   0  0  0  0  0  0  0  0  0  0  0  0
  184.6340  178.3030  143.3790 N   0  0  0  0  0  0  0  0  0  0  0  0
  185.2250  178.7120  141.1580 C   0  0  0  0  0  0  0  0  0  0  0  0
  186.0840  178.7530  140.2320 O   0  0  0  0  0  0  0  0  0  0  0  0
  183.3430  178.6210  143.1080 C   0  0  0  0  0  0  0  0  0  0  0  0
  181.0030  178.6540  143.8520 C   0  0  0  0  0  1  0  0  0  0  0  0
  182.3920  178.5670  144.1260 O   0  0  0  0  0  0  0  0  0  0  0  0
  191.7310  175.6350  145.2980 C   0  0  0  0  0  2  0  0  0  0  0  0
  192.2600  175.4950  146.5810 O   0  0  0  0  0  1  0  0  0  0  0  0
  1  4  1  0  0  0  0
  1  3  1  0  0  0  0
  2  5  1  0  0  0  0
  2  4  2  0  0  0  0
  3 18  1  0  0  0  0
  4 10  1  0  0  0  0
  5 17  1  0  0  0  0
  6 19  1  0  0  0  0
  6 20  1  0  0  0  0
  7  2  1  0  0  0  0
  8  9  1  0  0  0  0
  9 11  1  0  0  0  0
 10 12  1  6  0  0  0
 10 13  1  0  0  0  0
 11  5  2  0  0  0  0
 14  7  2  0  0  0  0
 14 15  1  0  0  0  0
 15  1  2  0  0  0  0
 16  9  2  0  0  0  0
 16  7  1  0  0  0  0
 17 31  1  1  0  0  0
 17 12  1  0  0  0  0
 18 13  1  0  0  0  0
 19  8  2  0  0  0  0
 20 16  1  0  0  0  0
 21 26  1  0  0  0  0
 21 24  1  0  0  0  0
 22 21  2  0  0  0  0
 23 15  1  0  0  0  0
 23 25  1  0  0  0  0
 24 28  1  0  0  0  0
 26 23  1  0  0  0  0
 27 26  2  0  0  0  0
 28 25  2  0  0  0  0
 28 30  1  0  0  0  0
 29 30  1  0  0  0  0
 31 32  1  0  0  0  0
M  END
>  <MODEL>
3

>  <REMARK>
 VINA RESULT:      -9.7      2.418      6.201
  Name = 
  3 active torsions:
  status: ('A' for Active; 'I' for Inactive)
    1  A    between atoms: C_13  and  C_29
    2  A    between atoms: O_15  and  C_26
    3  A    between atoms: N_16  and  C_27
                            x       y       z     vdW  Elec       q    Type
                         _______ _______ _______ _____ _____    ______ ____

>  <TORSDO>
F 3

$$$$
=
 OpenBabel10262421073D

 32 37  0  0  1  0  0  0  0  0999 V2000
  187.3210  178.2140  142.1530 C   0  0  0  0  0  0  0  0  0  0  0  0
  187.8500  177.9880  144.5220 C   0  0  0  0  0  0  0  0  0  0  0  0
  186.3830  178.6450  141.0490 C   0  0  0  0  0  2  0  0  0  0  0  0
  186.9360  178.3270  143.5090 C   0  0  0  0  0  0  0  0  0  0  0  0
  187.5180  178.1290  145.8870 C   0  0  0  0  0  0  0  0  0  0  0  0
  192.0100  175.8210  145.9090 C   0  0  0  0  0  2  0  0  0  0  0  0
  189.1340  177.5330  144.1700 C   0  0  0  0  0  0  0  0  0  0  0  0
  190.6240  176.9930  147.5890 C   0  0  0  0  0  3  0  0  0  0  0  0
  189.6690  177.3380  146.5220 C   0  0  0  0  0  0  0  0  0  0  0  0
  185.5160  178.6880  143.8850 C   0  0  1  0  0  3  0  0  0  0  0  0
  188.4320  177.8000  146.8410 N   0  0  0  0  0  0  0  0  0  0  0  0
  185.4810  179.4390  145.2130 C   0  0  0  0  0  2  0  0  0  0  0  0
  184.8190  179.4900  142.7970 C   0  0  0  0  0  2  0  0  0  0  0  0
  189.4780  177.4370  142.8580 N   0  0  0  0  0  0  0  0  0  0  0  0
  188.6280  177.7690  141.8480 C   0  0  0  0  0  0  0  0  0  0  0  0
  190.0490  177.1930  145.1750 C   0  0  0  0  0  0  0  0  0  0  0  0
  186.1590  178.6150  146.3150 C   0  0  1  0  0  3  0  0  0  0  0  0
  184.9230  178.7220  141.4900 C   0  0  0  0  0  2  0  0  0  0  0  0
  191.7430  176.3240  147.3020 C   0  0  0  0  0  3  0  0  0  0  0  0
  191.4620  176.7830  144.8480 C   0  0  0  0  0  2  0  0  0  0  0  0
  190.5100  176.7770  138.8030 C   0  0  0  0  0  0  0  0  0  0  0  0
  191.4160  175.9850  138.4330 O   0  0  0  0  0  0  0  0  0  0  0  0
  189.0890  177.6710  140.4860 N   0  0  0  0  0  0  0  0  0  0  0  0
  189.9560  177.5990  137.9230 O   0  0  0  0  0  0  0  0  0  0  0  0
  188.5700  178.4840  139.5630 N   0  0  0  0  0  0  0  0  0  0  0  0
  190.0800  176.7960  140.1330 C   0  0  0  0  0  0  0  0  0  0  0  0
  190.5910  176.0110  140.9800 O   0  0  0  0  0  0  0  0  0  0  0  0
  188.9980  178.4490  138.2750 C   0  0  0  0  0  0  0  0  0  0  0  0
  187.4070  178.8720  136.4520 C   0  0  0  0  0  1  0  0  0  0  0  0
  188.4270  179.3080  137.3370 O   0  0  0  0  0  0  0  0  0  0  0  0
  185.2900  177.4360  146.7320 C   0  0  0  0  0  2  0  0  0  0  0  0
  184.1060  177.8960  147.3090 O   0  0  0  0  0  1  0  0  0  0  0  0
  1  4  1  0  0  0  0
  2  5  1  0  0  0  0
  3 18  1  0  0  0  0
  3  1  1  0  0  0  0
  4 10  1  0  0  0  0
  4  2  2  0  0  0  0
  5 17  1  0  0  0  0
  5 11  2  0  0  0  0
  6 19  1  0  0  0  0
  7  2  1  0  0  0  0
  7 16  1  0  0  0  0
  9 11  1  0  0  0  0
  9  8  1  0  0  0  0
 10 13  1  6  0  0  0
 10 12  1  0  0  0  0
 12 17  1  0  0  0  0
 14  7  2  0  0  0  0
 15  1  2  0  0  0  0
 15 14  1  0  0  0  0
 16  9  2  0  0  0  0
 17 31  1  6  0  0  0
 18 13  1  0  0  0  0
 19  8  2  0  0  0  0
 20 16  1  0  0  0  0
 20  6  1  0  0  0  0
 21 26  1  0  0  0  0
 22 21  2  0  0  0  0
 23 15  1  0  0  0  0
 24 28  1  0  0  0  0
 24 21  1  0  0  0  0
 25 23  1  0  0  0  0
 26 23  1  0  0  0  0
 26 27  2  0  0  0  0
 28 25  2  0  0  0  0
 29 30  1  0  0  0  0
 30 28  1  0  0  0  0
 31 32  1  0  0  0  0
M  END
>  <MODEL>
4

>  <REMARK>
 VINA RESULT:      -9.5      1.754      4.811
  Name = 
  3 active torsions:
  status: ('A' for Active; 'I' for Inactive)
    1  A    between atoms: C_13  and  C_29
    2  A    between atoms: O_15  and  C_26
    3  A    between atoms: N_16  and  C_27
                            x       y       z     vdW  Elec       q    Type
                         _______ _______ _______ _____ _____    ______ ____

>  <TORSDO>
F 3

$$$$
=
 OpenBabel10262421073D

 32 37  0  0  1  0  0  0  0  0999 V2000
  188.9330  177.7290  143.0060 C   0  0  0  0  0  0  0  0  0  0  0  0
  186.8890  178.0000  144.3080 C   0  0  0  0  0  0  0  0  0  0  0  0
  190.4130  177.4350  142.9270 C   0  0  0  0  0  2  0  0  0  0  0  0
  188.2800  177.7960  144.2580 C   0  0  0  0  0  0  0  0  0  0  0  0
  186.1950  178.0290  145.5370 C   0  0  0  0  0  0  0  0  0  0  0  0
  182.7290  179.3070  142.0930 C   0  0  0  0  0  2  0  0  0  0  0  0
  186.1690  178.1400  143.1070 C   0  0  0  0  0  0  0  0  0  0  0  0
  182.6790  178.5820  144.4580 C   0  0  0  0  0  3  0  0  0  0  0  0
  184.1360  178.3790  144.3990 C   0  0  0  0  0  0  0  0  0  0  0  0
  189.0700  177.7780  145.5490 C   0  0  1  0  0  3  0  0  0  0  0  0
  184.8470  178.2180  145.5450 N   0  0  0  0  0  0  0  0  0  0  0  0
  188.2560  177.1470  146.6740 C   0  0  0  0  0  2  0  0  0  0  0  0
  190.4080  177.0730  145.3940 C   0  0  0  0  0  2  0  0  0  0  0  0
  186.8230  178.0680  141.9180 N   0  0  0  0  0  0  0  0  0  0  0  0
  188.1650  177.8590  141.8260 C   0  0  0  0  0  0  0  0  0  0  0  0
  184.7840  178.3440  143.1500 C   0  0  0  0  0  0  0  0  0  0  0  0
  186.9200  177.8800  146.8480 C   0  0  1  0  0  3  0  0  0  0  0  0
  191.1560  177.7070  144.2330 C   0  0  0  0  0  2  0  0  0  0  0  0
  182.0080  178.9720  143.3720 C   0  0  0  0  0  3  0  0  0  0  0  0
  183.9590  178.4150  141.8900 C   0  0  0  0  0  2  0  0  0  0  0  0
  188.7320  178.0140  138.1590 C   0  0  0  0  0  0  0  0  0  0  0  0
  188.1610  178.3830  137.1000 O   0  0  0  0  0  0  0  0  0  0  0  0
  188.7700  177.7590  140.5220 N   0  0  0  0  0  0  0  0  0  0  0  0
  189.9400  177.4700  138.0990 O   0  0  0  0  0  0  0  0  0  0  0  0
  189.9810  177.2110  140.4060 N   0  0  0  0  0  0  0  0  0  0  0  0
  188.1070  178.1720  139.3990 C   0  0  0  0  0  0  0  0  0  0  0  0
  186.9600  178.6980  139.4720 O   0  0  0  0  0  0  0  0  0  0  0  0
  190.5760  177.0680  139.1940 C   0  0  0  0  0  0  0  0  0  0  0  0
  192.2020  175.6280  138.0490 C   0  0  0  0  0  1  0  0  0  0  0  0
  191.8440  176.4970  139.1130 O   0  0  0  0  0  0  0  0  0  0  0  0
  187.1220  179.2440  147.4920 C   0  0  0  0  0  2  0  0  0  0  0  0
  185.8870  179.8270  147.7750 O   0  0  0  0  0  1  0  0  0  0  0  0
  1  4  1  0  0  0  0
  2  5  1  0  0  0  0
  3  1  1  0  0  0  0
  3 18  1  0  0  0  0
  4  2  2  0  0  0  0
  4 10  1  0  0  0  0
  5 11  2  0  0  0  0
  5 17  1  0  0  0  0
  6 19  1  0  0  0  0
  7 16  1  0  0  0  0
  7  2  1  0  0  0  0
  9  8  1  0  0  0  0
  9 11  1  0  0  0  0
 10 13  1  6  0  0  0
 10 12  1  0  0  0  0
 12 17  1  0  0  0  0
 14  7  2  0  0  0  0
 15 14  1  0  0  0  0
 15  1  2  0  0  0  0
 16  9  2  0  0  0  0
 17 31  1  6  0  0  0
 18 13  1  0  0  0  0
 19  8  2  0  0  0  0
 20  6  1  0  0  0  0
 20 16  1  0  0  0  0
 21 26  1  0  0  0  0
 22 21  2  0  0  0  0
 23 15  1  0  0  0  0
 24 21  1  0  0  0  0
 24 28  1  0  0  0  0
 25 23  1  0  0  0  0
 26 27  2  0  0  0  0
 26 23  1  0  0  0  0
 28 25  2  0  0  0  0
 29 30  1  0  0  0  0
 30 28  1  0  0  0  0
 31 32  1  0  0  0  0
M  END
>  <MODEL>
5

>  <REMARK>
 VINA RESULT:      -9.3      1.213      1.324
  Name = 
  3 active torsions:
  status: ('A' for Active; 'I' for Inactive)
    1  A    between atoms: C_13  and  C_29
    2  A    between atoms: O_15  and  C_26
    3  A    between atoms: N_16  and  C_27
                            x       y       z     vdW  Elec       q    Type
                         _______ _______ _______ _____ _____    ______ ____

>  <TORSDO>
F 3

$$$$
=
 OpenBabel10262421073D

 32 37  0  0  1  0  0  0  0  0999 V2000
  186.7570  178.2740  140.0010 C   0  0  0  0  0  0  0  0  0  0  0  0
  187.6470  177.8890  142.2380 C   0  0  0  0  0  0  0  0  0  0  0  0
  186.9190  178.2530  138.4990 C   0  0  0  0  0  2  0  0  0  0  0  0
  187.8380  177.9320  140.8460 C   0  0  0  0  0  0  0  0  0  0  0  0
  188.6900  177.5090  143.1110 C   0  0  0  0  0  0  0  0  0  0  0  0
  184.9580  179.0000  146.1700 C   0  0  0  0  0  2  0  0  0  0  0  0
  186.3820  178.1960  142.7710 C   0  0  0  0  0  0  0  0  0  0  0  0
  187.0620  177.7290  146.4470 C   0  0  0  0  0  3  0  0  0  0  0  0
  187.2570  177.7850  144.9890 C   0  0  0  0  0  0  0  0  0  0  0  0
  189.2290  177.7320  140.2840 C   0  0  1  0  0  3  0  0  0  0  0  0
  188.4650  177.4700  144.4520 N   0  0  0  0  0  0  0  0  0  0  0  0
  190.0120  176.7250  141.1220 C   0  0  0  0  0  2  0  0  0  0  0  0
  189.2050  177.3110  138.8230 C   0  0  0  0  0  2  0  0  0  0  0  0
  185.3600  178.5200  141.9350 N   0  0  0  0  0  0  0  0  0  0  0  0
  185.5000  178.5590  140.5810 C   0  0  0  0  0  0  0  0  0  0  0  0
  186.1850  178.1570  144.1570 C   0  0  0  0  0  0  0  0  0  0  0  0
  190.0610  177.1680  142.5900 C   0  0  1  0  0  3  0  0  0  0  0  0
  188.3750  178.3180  138.0450 C   0  0  0  0  0  2  0  0  0  0  0  0
  185.9670  178.2540  147.0020 C   0  0  0  0  0  3  0  0  0  0  0  0
  184.8270  178.3950  144.7670 C   0  0  0  0  0  2  0  0  0  0  0  0
  182.4970  178.2640  138.4150 C   0  0  0  0  0  0  0  0  0  0  0  0
  181.7500  177.3910  137.8990 O   0  0  0  0  0  0  0  0  0  0  0  0
  184.3530  178.8760  139.7690 N   0  0  0  0  0  0  0  0  0  0  0  0
  182.2590  179.5490  138.1920 O   0  0  0  0  0  0  0  0  0  0  0  0
  184.0740  180.1550  139.5050 N   0  0  0  0  0  0  0  0  0  0  0  0
  183.5730  177.8920  139.2260 C   0  0  0  0  0  0  0  0  0  0  0  0
  183.8060  176.6720  139.4570 O   0  0  0  0  0  0  0  0  0  0  0  0
  183.0230  180.4990  138.7180 C   0  0  0  0  0  0  0  0  0  0  0  0
  181.4970  182.2800  137.9910 C   0  0  0  0  0  1  0  0  0  0  0  0
  182.7590  181.8450  138.4710 O   0  0  0  0  0  0  0  0  0  0  0  0
  191.0000  178.3510  142.7750 C   0  0  0  0  0  2  0  0  0  0  0  0
  191.7170  178.2110  143.9630 O   0  0  0  0  0  1  0  0  0  0  0  0
  1 15  2  0  0  0  0
  1  4  1  0  0  0  0
  2  7  1  0  0  0  0
  2  5  1  0  0  0  0
  3  1  1  0  0  0  0
  4  2  2  0  0  0  0
  5 11  2  0  0  0  0
  6 19  1  0  0  0  0
  7 16  1  0  0  0  0
  8 19  2  0  0  0  0
  9  8  1  0  0  0  0
 10 13  1  6  0  0  0
 10  4  1  0  0  0  0
 10 12  1  0  0  0  0
 11  9  1  0  0  0  0
 12 17  1  0  0  0  0
 14  7  2  0  0  0  0
 15 14  1  0  0  0  0
 16 20  1  0  0  0  0
 16  9  2  0  0  0  0
 17 31  1  6  0  0  0
 17  5  1  0  0  0  0
 18  3  1  0  0  0  0
 18 13  1  0  0  0  0
 20  6  1  0  0  0  0
 21 26  1  0  0  0  0
 22 21  2  0  0  0  0
 23 15  1  0  0  0  0
 24 21  1  0  0  0  0
 24 28  1  0  0  0  0
 25 23  1  0  0  0  0
 26 27  2  0  0  0  0
 26 23  1  0  0  0  0
 28 25  2  0  0  0  0
 29 30  1  0  0  0  0
 30 28  1  0  0  0  0
 31 32  1  0  0  0  0
M  END
>  <MODEL>
6

>  <REMARK>
 VINA RESULT:      -9.3      3.410      5.788
  Name = 
  3 active torsions:
  status: ('A' for Active; 'I' for Inactive)
    1  A    between atoms: C_13  and  C_29
    2  A    between atoms: O_15  and  C_26
    3  A    between atoms: N_16  and  C_27
                            x       y       z     vdW  Elec       q    Type
                         _______ _______ _______ _____ _____    ______ ____

>  <TORSDO>
F 3

$$$$
=
 OpenBabel10262421073D

 32 37  0  0  1  0  0  0  0  0999 V2000
  189.0260  177.7640  143.3830 C   0  0  0  0  0  0  0  0  0  0  0  0
  186.9580  178.0420  144.6440 C   0  0  0  0  0  0  0  0  0  0  0  0
  190.5120  177.4910  143.3350 C   0  0  0  0  0  2  0  0  0  0  0  0
  188.3520  177.8580  144.6220 C   0  0  0  0  0  0  0  0  0  0  0  0
  186.2430  178.0950  145.8600 C   0  0  0  0  0  0  0  0  0  0  0  0
  182.8160  179.2240  142.3260 C   0  0  0  0  0  2  0  0  0  0  0  0
  186.2560  178.1380  143.4280 C   0  0  0  0  0  0  0  0  0  0  0  0
  182.7390  178.5650  144.7100 C   0  0  0  0  0  3  0  0  0  0  0  0
  184.1990  178.3820  144.6800 C   0  0  0  0  0  0  0  0  0  0  0  0
  189.1220  177.8890  145.9240 C   0  0  1  0  0  3  0  0  0  0  0  0
  184.8940  178.2650  145.8410 N   0  0  0  0  0  0  0  0  0  0  0  0
  188.2990  177.2770  147.0550 C   0  0  0  0  0  2  0  0  0  0  0  0
  190.4720  177.1980  145.8110 C   0  0  0  0  0  2  0  0  0  0  0  0
  186.9300  178.0410  142.2510 N   0  0  0  0  0  0  0  0  0  0  0  0
  188.2770  177.8500  142.1870 C   0  0  0  0  0  0  0  0  0  0  0  0
  184.8670  178.3210  143.4430 C   0  0  0  0  0  0  0  0  0  0  0  0
  186.9490  177.9940  147.1860 C   0  0  1  0  0  3  0  0  0  0  0  0
  191.2300  177.8110  144.6440 C   0  0  0  0  0  2  0  0  0  0  0  0
  182.0790  178.9140  143.6020 C   0  0  0  0  0  3  0  0  0  0  0  0
  184.0620  178.3450  142.1690 C   0  0  0  0  0  2  0  0  0  0  0  0
  190.4090  176.6810  139.3800 C   0  0  0  0  0  0  0  0  0  0  0  0
  191.2420  175.7800  139.0990 O   0  0  0  0  0  0  0  0  0  0  0  0
  188.9030  177.7230  140.8960 N   0  0  0  0  0  0  0  0  0  0  0  0
  190.0960  177.5940  138.4710 O   0  0  0  0  0  0  0  0  0  0  0  0
  188.6300  178.6220  139.9480 N   0  0  0  0  0  0  0  0  0  0  0  0
  189.8060  176.7270  140.6400 C   0  0  0  0  0  0  0  0  0  0  0  0
  190.0860  175.8580  141.5130 O   0  0  0  0  0  0  0  0  0  0  0  0
  189.2220  178.5600  138.7280 C   0  0  0  0  0  0  0  0  0  0  0  0
  188.0340  179.2170  136.6820 C   0  0  0  0  0  1  0  0  0  0  0  0
  188.9060  179.5130  137.7610 O   0  0  0  0  0  0  0  0  0  0  0  0
  187.1210  179.3790  147.7940 C   0  0  0  0  0  2  0  0  0  0  0  0
  185.9030  180.0580  147.7880 O   0  0  0  0  0  1  0  0  0  0  0  0
  1  4  1  0  0  0  0
  2  5  1  0  0  0  0
  3  1  1  0  0  0  0
  3 18  1  0  0  0  0
  4  2  2  0  0  0  0
  4 10  1  0  0  0  0
  5 17  1  0  0  0  0
  6 19  1  0  0  0  0
  7 16  1  0  0  0  0
  7  2  1  0  0  0  0
  9  8  1  0  0  0  0
  9 11  1  0  0  0  0
 10 13  1  6  0  0  0
 10 12  1  0  0  0  0
 11  5  2  0  0  0  0
 12 17  1  0  0  0  0
 14  7  2  0  0  0  0
 15 14  1  0  0  0  0
 15  1  2  0  0  0  0
 16  9  2  0  0  0  0
 17 31  1  6  0  0  0
 18 13  1  0  0  0  0
 19  8  2  0  0  0  0
 20  6  1  0  0  0  0
 20 16  1  0  0  0  0
 21 26  1  0  0  0  0
 22 21  2  0  0  0  0
 23 15  1  0  0  0  0
 24 28  1  0  0  0  0
 24 21  1  0  0  0  0
 25 23  1  0  0  0  0
 26 23  1  0  0  0  0
 26 27  2  0  0  0  0
 28 25  2  0  0  0  0
 29 30  1  0  0  0  0
 30 28  1  0  0  0  0
 32 31  1  0  0  0  0
M  END
>  <MODEL>
7

>  <REMARK>
 VINA RESULT:      -9.3      1.328      2.211
  Name = 
  3 active torsions:
  status: ('A' for Active; 'I' for Inactive)
    1  A    between atoms: C_13  and  C_29
    2  A    between atoms: O_15  and  C_26
    3  A    between atoms: N_16  and  C_27
                            x       y       z     vdW  Elec       q    Type
                         _______ _______ _______ _____ _____    ______ ____

>  <TORSDO>
F 3

$$$$
=
 OpenBabel10262421073D

 32 37  0  0  1  0  0  0  0  0999 V2000
  182.8520  178.4620  139.7570 C   0  0  0  0  0  0  0  0  0  0  0  0
  182.8950  178.6990  142.1830 C   0  0  0  0  0  0  0  0  0  0  0  0
  182.1270  178.5810  138.4360 C   0  0  0  0  0  2  0  0  0  0  0  0
  182.1850  178.7470  140.9710 C   0  0  0  0  0  0  0  0  0  0  0  0
  182.2760  179.0200  143.4110 C   0  0  0  0  0  0  0  0  0  0  0  0
  186.8590  177.3390  144.7070 C   0  0  0  0  0  2  0  0  0  0  0  0
  184.2610  178.3600  142.1700 C   0  0  0  0  0  0  0  0  0  0  0  0
  185.0520  178.5860  145.8470 C   0  0  0  0  0  3  0  0  0  0  0  0
  184.3120  178.6250  144.5750 C   0  0  0  0  0  0  0  0  0  0  0  0
  180.6900  178.9810  141.0000 C   0  0  1  0  0  3  0  0  0  0  0  0
  182.9980  178.9720  144.5630 N   0  0  0  0  0  0  0  0  0  0  0  0
  180.3120  179.9300  142.1330 C   0  0  0  0  0  2  0  0  0  0  0  0
  180.1630  179.4960  139.6700 C   0  0  0  0  0  2  0  0  0  0  0  0
  184.8770  178.0940  140.9880 N   0  0  0  0  0  0  0  0  0  0  0  0
  184.2280  178.1420  139.7910 C   0  0  0  0  0  0  0  0  0  0  0  0
  184.9750  178.3100  143.3740 C   0  0  0  0  0  0  0  0  0  0  0  0
  180.8190  179.3920  143.4770 C   0  0  1  0  0  3  0  0  0  0  0  0
  180.6070  178.5430  138.5730 C   0  0  0  0  0  2  0  0  0  0  0  0
  186.2630  178.0270  145.9060 C   0  0  0  0  0  3  0  0  0  0  0  0
  186.4560  178.0340  143.4010 C   0  0  0  0  0  2  0  0  0  0  0  0
  185.4910  176.5600  136.6770 C   0  0  0  0  0  0  0  0  0  0  0  0
  185.2860  175.5600  135.9400 O   0  0  0  0  0  0  0  0  0  0  0  0
  184.9690  177.8810  138.5840 N   0  0  0  0  0  0  0  0  0  0  0  0
  186.4540  177.4170  136.3690 O   0  0  0  0  0  0  0  0  0  0  0  0
  185.9570  178.7090  138.2330 N   0  0  0  0  0  0  0  0  0  0  0  0
  184.7110  176.7780  137.8170 C   0  0  0  0  0  0  0  0  0  0  0  0
  183.7830  175.9750  138.1170 O   0  0  0  0  0  0  0  0  0  0  0  0
  186.7020  178.4840  137.1210 C   0  0  0  0  0  0  0  0  0  0  0  0
  189.0560  179.1740  137.2150 C   0  0  0  0  0  1  0  0  0  0  0  0
  187.7200  179.3740  136.7840 O   0  0  0  0  0  0  0  0  0  0  0  0
  179.9940  178.1970  143.9360 C   0  0  0  0  0  2  0  0  0  0  0  0
  178.9320  178.6270  144.7310 O   0  0  0  0  0  1  0  0  0  0  0  0
  1 15  2  0  0  0  0
  1  4  1  0  0  0  0
  2  5  1  0  0  0  0
  3 18  1  0  0  0  0
  3  1  1  0  0  0  0
  4 10  1  0  0  0  0
  4  2  2  0  0  0  0
  5 17  1  0  0  0  0
  5 11  2  0  0  0  0
  6 19  1  0  0  0  0
  7  2  1  0  0  0  0
  7 16  1  0  0  0  0
  8 19  2  0  0  0  0
  9  8  1  0  0  0  0
 10 13  1  6  0  0  0
 10 12  1  0  0  0  0
 11  9  1  0  0  0  0
 12 17  1  0  0  0  0
 14  7  2  0  0  0  0
 15 14  1  0  0  0  0
 16 20  1  0  0  0  0
 16  9  2  0  0  0  0
 17 31  1  6  0  0  0
 18 13  1  0  0  0  0
 20  6  1  0  0  0  0
 21 26  1  0  0  0  0
 22 21  2  0  0  0  0
 23 15  1  0  0  0  0
 24 21  1  0  0  0  0
 24 28  1  0  0  0  0
 25 23  1  0  0  0  0
 26 27  2  0  0  0  0
 26 23  1  0  0  0  0
 28 25  2  0  0  0  0
 30 28  1  0  0  0  0
 30 29  1  0  0  0  0
 31 32  1  0  0  0  0
M  END
>  <MODEL>
8

>  <REMARK>
 VINA RESULT:      -9.2      3.779      6.842
  Name = 
  3 active torsions:
  status: ('A' for Active; 'I' for Inactive)
    1  A    between atoms: C_13  and  C_29
    2  A    between atoms: O_15  and  C_26
    3  A    between atoms: N_16  and  C_27
                            x       y       z     vdW  Elec       q    Type
                         _______ _______ _______ _____ _____    ______ ____

>  <TORSDO>
F 3

$$$$
=
 OpenBabel10262421073D

 32 37  0  0  1  0  0  0  0  0999 V2000
  189.5350  177.5090  143.0850 C   0  0  0  0  0  0  0  0  0  0  0  0
  187.8270  178.0300  141.4260 C   0  0  0  0  0  0  0  0  0  0  0  0
  190.9720  177.2090  143.4450 C   0  0  0  0  0  2  0  0  0  0  0  0
  189.1530  177.6810  141.7350 C   0  0  0  0  0  0  0  0  0  0  0  0
  187.4170  178.2530  140.0930 C   0  0  0  0  0  0  0  0  0  0  0  0
  183.1470  178.4650  142.7810 C   0  0  0  0  0  2  0  0  0  0  0  0
  186.8960  178.1960  142.4680 C   0  0  0  0  0  0  0  0  0  0  0  0
  183.8230  179.1170  140.4920 C   0  0  0  0  0  3  0  0  0  0  0  0
  185.2070  178.7420  140.8230 C   0  0  0  0  0  0  0  0  0  0  0  0
  190.1170  177.3720  140.6100 C   0  0  1  0  0  3  0  0  0  0  0  0
  186.1280  178.5990  139.8330 N   0  0  0  0  0  0  0  0  0  0  0  0
  189.8330  178.2530  139.3960 C   0  0  0  0  0  2  0  0  0  0  0  0
  191.5690  177.5080  141.0430 C   0  0  0  0  0  2  0  0  0  0  0  0
  187.2920  178.0280  143.7580 N   0  0  0  0  0  0  0  0  0  0  0  0
  188.5700  177.7030  144.1000 C   0  0  0  0  0  0  0  0  0  0  0  0
  185.5730  178.5430  142.1670 C   0  0  0  0  0  0  0  0  0  0  0  0
  188.3760  178.0910  138.9430 C   0  0  1  0  0  3  0  0  0  0  0  0
  191.7850  176.6520  142.2790 C   0  0  0  0  0  2  0  0  0  0  0  0
  182.8620  179.0340  141.4160 C   0  0  0  0  0  3  0  0  0  0  0  0
  184.5630  178.8150  143.2530 C   0  0  0  0  0  2  0  0  0  0  0  0
  188.3800  177.6940  147.8090 C   0  0  0  0  0  0  0  0  0  0  0  0
  187.5550  177.8750  148.7430 O   0  0  0  0  0  0  0  0  0  0  0  0
  188.9100  177.5810  145.4940 N   0  0  0  0  0  0  0  0  0  0  0  0
  189.6430  177.4070  148.0940 O   0  0  0  0  0  0  0  0  0  0  0  0
  190.1700  177.3020  145.8350 N   0  0  0  0  0  0  0  0  0  0  0  0
  187.9780  177.7900  146.4740 C   0  0  0  0  0  0  0  0  0  0  0  0
  186.7760  178.0520  146.1870 O   0  0  0  0  0  0  0  0  0  0  0  0
  190.5430  177.2090  147.1370 C   0  0  0  0  0  0  0  0  0  0  0  0
  192.3920  175.6020  147.2960 C   0  0  0  0  0  1  0  0  0  0  0  0
  191.8670  176.9100  147.4540 O   0  0  0  0  0  0  0  0  0  0  0  0
  188.1590  176.7440  138.2670 C   0  0  0  0  0  2  0  0  0  0  0  0
  187.4150  176.9120  137.0990 O   0  0  0  0  0  1  0  0  0  0  0  0
  1  3  1  0  0  0  0
  1 15  1  0  0  0  0
  2  4  1  0  0  0  0
  2  7  1  0  0  0  0
  4  1  2  0  0  0  0
  5  2  2  0  0  0  0
  6 20  1  0  0  0  0
  7 14  1  0  0  0  0
  8  9  1  0  0  0  0
  8 19  2  0  0  0  0
  9 16  1  0  0  0  0
 10 12  1  6  0  0  0
 10 13  1  0  0  0  0
 10  4  1  0  0  0  0
 11  5  1  0  0  0  0
 11  9  2  0  0  0  0
 13 18  1  0  0  0  0
 14 15  2  0  0  0  0
 15 23  1  0  0  0  0
 16  7  2  0  0  0  0
 16 20  1  0  0  0  0
 17 31  1  1  0  0  0
 17 12  1  0  0  0  0
 17  5  1  0  0  0  0
 18  3  1  0  0  0  0
 19  6  1  0  0  0  0
 21 24  1  0  0  0  0
 21 22  2  0  0  0  0
 23 25  1  0  0  0  0
 23 26  1  0  0  0  0
 25 28  2  0  0  0  0
 26 21  1  0  0  0  0
 27 26  2  0  0  0  0
 28 30  1  0  0  0  0
 28 24  1  0  0  0  0
 29 30  1  0  0  0  0
 32 31  1  0  0  0  0
M  END
>  <MODEL>
9

>  <REMARK>
 VINA RESULT:      -9.2      2.171      6.313
  Name = 
  3 active torsions:
  status: ('A' for Active; 'I' for Inactive)
    1  A    between atoms: C_13  and  C_29
    2  A    between atoms: O_15  and  C_26
    3  A    between atoms: N_16  and  C_27
                            x       y       z     vdW  Elec       q    Type
                         _______ _______ _______ _____ _____    ______ ____

>  <TORSDO>
F 3

$$$$
