=
 OpenBabel10262419323D

 31 35  0  0  1  0  0  0  0  0999 V2000
  184.3470  178.6960  144.9250 C   0  0  0  0  0  0  0  0  0  0  0  0
  187.9950  177.5360  144.7310 C   0  0  0  0  0  0  0  0  0  0  0  0
  188.4840  177.4840  146.0020 C   0  0  1  0  0  3  0  0  0  0  0  0
  188.2900  178.0520  148.3790 C   0  0  0  0  0  0  0  0  0  0  0  0
  186.5980  177.9390  144.3710 C   0  0  0  0  0  0  0  0  0  0  0  0
  183.9840  178.6250  143.5800 C   0  0  0  0  0  3  0  0  0  0  0  0
  187.7040  177.9050  147.1880 C   0  0  0  0  0  3  0  0  0  0  0  0
  188.4720  177.1740  142.3350 C   0  0  0  0  0  0  0  0  0  0  0  0
  183.4430  179.0940  145.8520 F   0  0  0  0  0  0  0  0  0  0  0  0
  190.7930  176.8810  145.1310 C   0  0  0  0  0  3  0  0  0  0  0  0
  187.5540  178.4590  149.4400 F   0  0  0  0  0  0  0  0  0  0  0  0
  187.1340  177.4730  142.0430 O   0  0  0  0  0  0  0  0  0  0  0  0
  188.9170  177.1970  143.6040 C   0  0  0  0  0  0  0  0  0  0  0  0
  185.6430  178.3530  145.3160 C   0  0  0  0  0  3  0  0  0  0  0  0
  189.7450  177.8630  148.5330 C   0  0  0  0  0  3  0  0  0  0  0  0
  186.2170  177.8740  143.0170 C   0  0  2  0  0  3  0  0  0  0  0  0
  184.9180  178.2150  142.6280 C   0  0  0  0  0  3  0  0  0  0  0  0
  190.3530  176.9950  143.8830 C   0  0  0  0  0  3  0  0  0  0  0  0
  189.8370  176.8450  146.2820 C   0  0  1  0  0  3  0  0  0  0  0  0
  190.4790  177.3420  147.5460 C   0  0  0  0  0  3  0  0  0  0  0  0
  188.7970  178.6020  139.8360 O   0  0  0  0  0  0  0  0  0  0  0  0
  189.5090  177.5820  140.0400 C   0  0  0  0  0  0  0  0  0  0  0  0
  189.3740  176.8500  141.2670 N   0  0  0  0  0  2  0  0  0  0  0  0
  192.2400  176.2360  137.0010 C   0  0  0  0  0  0  0  0  0  0  0  0
  190.0040  176.7400  137.7640 C   0  0  0  0  0  3  0  0  0  0  0  0
  192.5140  177.4390  140.5590 C   0  0  0  0  0  1  0  0  0  0  0  0
  193.1010  175.7990  136.0040 O   0  0  0  0  0  1  0  0  0  0  0  0
  190.8680  176.2990  136.7600 C   0  0  0  0  0  3  0  0  0  0  0  0
  191.8900  177.0550  139.2590 C   0  0  0  0  0  0  0  0  0  0  0  0
  190.4910  177.1250  139.0240 C   0  0  0  0  0  0  0  0  0  0  0  0
  192.7460  176.6130  138.2450 C   0  0  0  0  0  3  0  0  0  0  0  0
  1 14  2  0  0  0  0
  1  9  1  0  0  0  0
  2  3  1  0  0  0  0
  3 19  1  0  0  0  0
  3  7  1  1  0  0  0
  4 15  1  0  0  0  0
  4 11  1  0  0  0  0
  5  2  2  0  0  0  0
  5 14  1  0  0  0  0
  6  1  1  0  0  0  0
  7  4  2  0  0  0  0
  8 13  2  0  0  0  0
 12  8  1  0  0  0  0
 12 16  1  0  0  0  0
 13 18  1  0  0  0  0
 13  2  1  0  0  0  0
 16 17  1  6  0  0  0
 16  5  1  0  0  0  0
 17  6  2  0  0  0  0
 18 10  2  0  0  0  0
 19 10  1  6  0  0  0
 19 20  1  0  0  0  0
 20 15  2  0  0  0  0
 21 22  2  0  0  0  0
 22 23  1  0  0  0  0
 23  8  1  0  0  0  0
 24 31  1  0  0  0  0
 25 30  2  0  0  0  0
 27 24  1  0  0  0  0
 28 24  2  0  0  0  0
 28 25  1  0  0  0  0
 29 26  1  0  0  0  0
 30 29  1  0  0  0  0
 30 22  1  0  0  0  0
 31 29  2  0  0  0  0
M  END
>  <MODEL>
1

>  <REMARK>
 VINA RESULT:     -11.7      0.000      0.000
  Name = 
  2 active torsions:
  status: ('A' for Active; 'I' for Inactive)
    1  A    between atoms: C_9  and  C_22
    2  A    between atoms: C_15  and  N_23
                            x       y       z     vdW  Elec       q    Type
                         _______ _______ _______ _____ _____    ______ ____

>  <TORSDO>
F 2

$$$$
=
 OpenBabel10262419323D

 31 35  0  0  1  0  0  0  0  0999 V2000
  191.6710  177.2710  141.3390 C   0  0  0  0  0  0  0  0  0  0  0  0
  188.8140  177.4760  143.8850 C   0  0  0  0  0  0  0  0  0  0  0  0
  189.3550  177.3540  145.1300 C   0  0  1  0  0  3  0  0  0  0  0  0
  191.2420  176.7630  146.5790 C   0  0  0  0  0  0  0  0  0  0  0  0
  189.5970  177.4550  142.6090 C   0  0  0  0  0  0  0  0  0  0  0  0
  190.9720  177.4830  140.1510 C   0  0  0  0  0  3  0  0  0  0  0  0
  190.7940  177.0990  145.3660 C   0  0  0  0  0  3  0  0  0  0  0  0
  186.7470  177.7980  142.5700 C   0  0  0  0  0  0  0  0  0  0  0  0
  193.0120  177.0800  141.3120 F   0  0  0  0  0  0  0  0  0  0  0  0
  187.0420  177.3870  146.1810 C   0  0  0  0  0  3  0  0  0  0  0  0
  192.5610  176.5150  146.7580 F   0  0  0  0  0  0  0  0  0  0  0  0
  187.5220  177.8580  141.4040 O   0  0  0  0  0  0  0  0  0  0  0  0
  187.3290  177.6140  143.7700 C   0  0  0  0  0  0  0  0  0  0  0  0
  190.9890  177.2600  142.5570 C   0  0  0  0  0  3  0  0  0  0  0  0
  190.3060  176.5720  147.7030 C   0  0  0  0  0  3  0  0  0  0  0  0
  188.9050  177.6660  141.4010 C   0  0  2  0  0  3  0  0  0  0  0  0
  189.5910  177.6800  140.1830 C   0  0  0  0  0  3  0  0  0  0  0  0
  186.4930  177.4360  144.9730 C   0  0  0  0  0  3  0  0  0  0  0  0
  188.5090  177.6200  146.3670 C   0  0  1  0  0  3  0  0  0  0  0  0
  189.0230  176.9280  147.5990 C   0  0  0  0  0  3  0  0  0  0  0  0
  185.2630  179.6590  140.9200 O   0  0  0  0  0  0  0  0  0  0  0  0
  184.6180  178.8590  141.6500 C   0  0  0  0  0  0  0  0  0  0  0  0
  185.3200  177.9240  142.4800 N   0  0  0  0  0  2  0  0  0  0  0  0
  180.3180  178.8890  141.5340 C   0  0  0  0  0  0  0  0  0  0  0  0
  182.4640  178.8460  140.4270 C   0  0  0  0  0  3  0  0  0  0  0  0
  182.9630  178.9330  144.2140 C   0  0  0  0  0  1  0  0  0  0  0  0
  178.9310  178.8980  141.4710 O   0  0  0  0  0  1  0  0  0  0  0  0
  181.0700  178.8560  140.3610 C   0  0  0  0  0  3  0  0  0  0  0  0
  182.3570  178.9050  142.8510 C   0  0  0  0  0  0  0  0  0  0  0  0
  183.1330  178.8700  141.6620 C   0  0  0  0  0  0  0  0  0  0  0  0
  180.9610  178.9140  142.7720 C   0  0  0  0  0  3  0  0  0  0  0  0
  1 14  2  0  0  0  0
  2  3  1  0  0  0  0
  3  7  1  6  0  0  0
  3 19  1  0  0  0  0
  4 11  1  0  0  0  0
  4 15  1  0  0  0  0
  5  2  2  0  0  0  0
  6 17  2  0  0  0  0
  6  1  1  0  0  0  0
  7  4  2  0  0  0  0
  8 13  2  0  0  0  0
  9  1  1  0  0  0  0
 12  8  1  0  0  0  0
 13  2  1  0  0  0  0
 13 18  1  0  0  0  0
 14  5  1  0  0  0  0
 16 17  1  6  0  0  0
 16 12  1  0  0  0  0
 16  5  1  0  0  0  0
 18 10  2  0  0  0  0
 19 10  1  6  0  0  0
 19 20  1  0  0  0  0
 20 15  2  0  0  0  0
 21 22  2  0  0  0  0
 22 30  1  0  0  0  0
 22 23  1  0  0  0  0
 23  8  1  0  0  0  0
 24 31  1  0  0  0  0
 25 30  2  0  0  0  0
 27 24  1  0  0  0  0
 28 25  1  0  0  0  0
 28 24  2  0  0  0  0
 29 26  1  0  0  0  0
 30 29  1  0  0  0  0
 31 29  2  0  0  0  0
M  END
>  <MODEL>
2

>  <REMARK>
 VINA RESULT:     -11.4      3.212      7.060
  Name = 
  2 active torsions:
  status: ('A' for Active; 'I' for Inactive)
    1  A    between atoms: C_9  and  C_22
    2  A    between atoms: C_15  and  N_23
                            x       y       z     vdW  Elec       q    Type
                         _______ _______ _______ _____ _____    ______ ____

>  <TORSDO>
F 2

$$$$
=
 OpenBabel10262419323D

 31 35  0  0  1  0  0  0  0  0999 V2000
  185.0710  178.7720  145.3840 C   0  0  0  0  0  0  0  0  0  0  0  0
  188.5000  177.3670  144.4030 C   0  0  0  0  0  0  0  0  0  0  0  0
  189.2210  177.1950  145.5450 C   0  0  1  0  0  3  0  0  0  0  0  0
  189.5460  177.6140  147.9390 C   0  0  0  0  0  0  0  0  0  0  0  0
  187.0980  177.8930  144.3510 C   0  0  0  0  0  0  0  0  0  0  0  0
  184.4460  178.8180  144.1380 C   0  0  0  0  0  3  0  0  0  0  0  0
  188.7280  177.5900  146.8830 C   0  0  0  0  0  3  0  0  0  0  0  0
  188.4650  177.1330  141.9440 C   0  0  0  0  0  0  0  0  0  0  0  0
  184.4030  179.1700  146.4930 F   0  0  0  0  0  0  0  0  0  0  0  0
  191.2560  176.4860  144.1980 C   0  0  0  0  0  3  0  0  0  0  0  0
  189.0690  178.0010  149.1450 F   0  0  0  0  0  0  0  0  0  0  0  0
  187.1260  177.5470  141.9430 O   0  0  0  0  0  0  0  0  0  0  0  0
  189.1510  177.0390  143.0970 C   0  0  0  0  0  0  0  0  0  0  0  0
  186.3840  178.3100  145.4890 C   0  0  0  0  0  3  0  0  0  0  0  0
  190.9820  177.3100  147.7870 C   0  0  0  0  0  3  0  0  0  0  0  0
  186.4540  177.9470  143.1000 C   0  0  2  0  0  3  0  0  0  0  0  0
  185.1380  178.4060  142.9980 C   0  0  0  0  0  3  0  0  0  0  0  0
  190.5910  176.7150  143.0720 C   0  0  0  0  0  3  0  0  0  0  0  0
  190.5440  176.4420  145.5140 C   0  0  1  0  0  3  0  0  0  0  0  0
  191.4620  176.8050  146.6480 C   0  0  0  0  0  3  0  0  0  0  0  0
  188.7290  178.8570  139.6310 O   0  0  0  0  0  0  0  0  0  0  0  0
  189.2220  177.6980  139.5740 C   0  0  0  0  0  0  0  0  0  0  0  0
  189.1100  176.8180  140.7010 N   0  0  0  0  0  2  0  0  0  0  0  0
  191.3700  176.3080  136.1170 C   0  0  0  0  0  0  0  0  0  0  0  0
  191.2280  176.7290  138.4910 C   0  0  0  0  0  3  0  0  0  0  0  0
  187.9680  177.7750  136.7920 C   0  0  0  0  0  1  0  0  0  0  0  0
  192.0830  175.8520  135.0160 O   0  0  0  0  0  1  0  0  0  0  0  0
  191.9470  176.2720  137.3860 C   0  0  0  0  0  3  0  0  0  0  0  0
  189.3450  177.2630  137.0540 C   0  0  0  0  0  0  0  0  0  0  0  0
  189.9220  177.2300  138.3510 C   0  0  0  0  0  0  0  0  0  0  0  0
  190.0760  176.8010  135.9550 C   0  0  0  0  0  3  0  0  0  0  0  0
  1 14  2  0  0  0  0
  1  9  1  0  0  0  0
  2  3  1  0  0  0  0
  3  7  1  1  0  0  0
  4 11  1  0  0  0  0
  5  2  2  0  0  0  0
  5 14  1  0  0  0  0
  6  1  1  0  0  0  0
  7  4  2  0  0  0  0
  8 13  2  0  0  0  0
 12  8  1  0  0  0  0
 12 16  1  0  0  0  0
 13  2  1  0  0  0  0
 15  4  1  0  0  0  0
 16 17  1  6  0  0  0
 16  5  1  0  0  0  0
 17  6  2  0  0  0  0
 18 13  1  0  0  0  0
 18 10  2  0  0  0  0
 19 10  1  6  0  0  0
 19  3  1  0  0  0  0
 19 20  1  0  0  0  0
 20 15  2  0  0  0  0
 22 21  2  0  0  0  0
 22 23  1  0  0  0  0
 23  8  1  0  0  0  0
 24 28  1  0  0  0  0
 26 29  1  0  0  0  0
 27 24  1  0  0  0  0
 28 25  2  0  0  0  0
 29 30  2  0  0  0  0
 30 25  1  0  0  0  0
 30 22  1  0  0  0  0
 31 24  2  0  0  0  0
 31 29  1  0  0  0  0
M  END
>  <MODEL>
3

>  <REMARK>
 VINA RESULT:     -11.1      0.956      1.671
  Name = 
  2 active torsions:
  status: ('A' for Active; 'I' for Inactive)
    1  A    between atoms: C_9  and  C_22
    2  A    between atoms: C_15  and  N_23
                            x       y       z     vdW  Elec       q    Type
                         _______ _______ _______ _____ _____    ______ ____

>  <TORSDO>
F 2

$$$$
=
 OpenBabel10262419323D

 31 35  0  0  1  0  0  0  0  0999 V2000
  183.4510  178.8670  138.8230 C   0  0  0  0  0  0  0  0  0  0  0  0
  187.1980  178.2930  139.3890 C   0  0  0  0  0  0  0  0  0  0  0  0
  187.7940  178.1960  138.1680 C   0  0  1  0  0  3  0  0  0  0  0  0
  187.6300  177.9040  135.7390 C   0  0  0  0  0  0  0  0  0  0  0  0
  185.7350  178.5260  139.6080 C   0  0  0  0  0  0  0  0  0  0  0  0
  183.0130  179.0160  140.1380 C   0  0  0  0  0  3  0  0  0  0  0  0
  187.0410  178.2270  136.8940 C   0  0  0  0  0  3  0  0  0  0  0  0
  187.5250  178.2750  141.8380 C   0  0  0  0  0  0  0  0  0  0  0  0
  182.5690  178.9590  137.7990 F   0  0  0  0  0  0  0  0  0  0  0  0
  190.0290  177.6740  139.2570 C   0  0  0  0  0  3  0  0  0  0  0  0
  186.9080  177.9210  134.5940 F   0  0  0  0  0  0  0  0  0  0  0  0
  186.1670  178.5780  142.0020 O   0  0  0  0  0  0  0  0  0  0  0  0
  188.0500  178.1300  140.6070 C   0  0  0  0  0  0  0  0  0  0  0  0
  184.8020  178.6270  138.5610 C   0  0  0  0  0  2  0  0  0  0  0  0
  189.0310  177.4430  135.7100 C   0  0  0  0  0  3  0  0  0  0  0  0
  185.2770  178.6760  140.9300 C   0  0  0  0  0  0  0  0  0  0  0  0
  183.9250  178.9200  141.1910 C   0  0  0  0  0  3  0  0  0  0  0  0
  189.4520  177.6960  140.4530 C   0  0  0  0  0  3  0  0  0  0  0  0
  189.3120  178.1900  138.0490 C   0  0  1  0  0  3  0  0  0  0  0  0
  189.8080  177.5320  136.7920 C   0  0  0  0  0  3  0  0  0  0  0  0
  187.9630  175.8350  143.3340 O   0  0  0  0  0  0  0  0  0  0  0  0
  188.5530  176.8830  143.7120 C   0  0  0  0  0  0  0  0  0  0  0  0
  188.3590  178.1100  142.9940 N   0  0  0  0  0  2  0  0  0  0  0  0
  191.2680  176.7950  147.0470 C   0  0  0  0  0  0  0  0  0  0  0  0
  190.8060  176.5550  144.6880 C   0  0  0  0  0  3  0  0  0  0  0  0
  187.6000  177.4840  146.5490 C   0  0  0  0  0  1  0  0  0  0  0  0
  192.1640  176.7610  148.1070 O   0  0  0  0  0  1  0  0  0  0  0  0
  191.7080  176.5200  145.7520 C   0  0  0  0  0  3  0  0  0  0  0  0
  189.0140  177.1440  146.2170 C   0  0  0  0  0  0  0  0  0  0  0  0
  189.4510  176.8660  144.8940 C   0  0  0  0  0  0  0  0  0  0  0  0
  189.9280  177.1060  147.2750 C   0  0  0  0  0  3  0  0  0  0  0  0
  1  6  2  0  0  0  0
  2  5  2  0  0  0  0
  2 13  1  0  0  0  0
  3  7  1  6  0  0  0
  3  2  1  0  0  0  0
  4  7  2  0  0  0  0
  5 16  1  0  0  0  0
  6 17  1  0  0  0  0
  8 12  1  0  0  0  0
  8 23  1  0  0  0  0
  9  1  1  0  0  0  0
 10 18  2  0  0  0  0
 11  4  1  0  0  0  0
 13  8  2  0  0  0  0
 14  1  1  0  0  0  0
 14  5  1  0  0  0  0
 15  4  1  0  0  0  0
 15 20  2  0  0  0  0
 16 17  2  0  0  0  0
 16 12  1  0  0  0  0
 18 13  1  0  0  0  0
 19 20  1  6  0  0  0
 19  3  1  0  0  0  0
 19 10  1  0  0  0  0
 21 22  2  0  0  0  0
 22 30  1  0  0  0  0
 23 22  1  0  0  0  0
 24 31  1  0  0  0  0
 24 27  1  0  0  0  0
 25 30  2  0  0  0  0
 25 28  1  0  0  0  0
 28 24  2  0  0  0  0
 29 26  1  0  0  0  0
 29 31  2  0  0  0  0
 30 29  1  0  0  0  0
M  END
>  <MODEL>
4

>  <REMARK>
 VINA RESULT:     -10.7      3.644      7.736
  Name = 
  2 active torsions:
  status: ('A' for Active; 'I' for Inactive)
    1  A    between atoms: C_9  and  C_22
    2  A    between atoms: C_15  and  N_23
                            x       y       z     vdW  Elec       q    Type
                         _______ _______ _______ _____ _____    ______ ____

>  <TORSDO>
F 2

$$$$
=
 OpenBabel10262419323D

 31 35  0  0  1  0  0  0  0  0999 V2000
  190.2300  177.1290  147.3290 C   0  0  0  0  0  0  0  0  0  0  0  0
  188.0560  177.6580  144.2170 C   0  0  0  0  0  0  0  0  0  0  0  0
  186.8510  178.1410  144.6280 C   0  0  1  0  0  3  0  0  0  0  0  0
  185.2340  178.5780  146.4190 C   0  0  0  0  0  0  0  0  0  0  0  0
  189.1970  177.3230  145.1290 C   0  0  0  0  0  0  0  0  0  0  0  0
  191.4240  176.7130  146.7410 C   0  0  0  0  0  3  0  0  0  0  0  0
  186.4920  178.3190  146.0530 C   0  0  0  0  0  3  0  0  0  0  0  0
  189.4490  176.9910  142.2890 C   0  0  0  0  0  0  0  0  0  0  0  0
  190.1410  177.2420  148.6760 F   0  0  0  0  0  0  0  0  0  0  0  0
  185.9650  178.0640  142.2490 C   0  0  0  0  0  3  0  0  0  0  0  0
  184.9340  178.7130  147.7320 F   0  0  0  0  0  0  0  0  0  0  0  0
  190.5210  176.7700  143.1640 O   0  0  0  0  0  0  0  0  0  0  0  0
  188.2590  177.4110  142.7560 C   0  0  0  0  0  0  0  0  0  0  0  0
  189.1280  177.4350  146.5290 C   0  0  0  0  0  3  0  0  0  0  0  0
  184.1530  178.6300  145.4160 C   0  0  0  0  0  3  0  0  0  0  0  0
  190.4080  176.9000  144.5500 C   0  0  2  0  0  3  0  0  0  0  0  0
  191.5120  176.5980  145.3530 C   0  0  0  0  0  3  0  0  0  0  0  0
  187.1080  177.5260  141.8390 C   0  0  0  0  0  3  0  0  0  0  0  0
  185.8440  178.6660  143.6130 C   0  0  1  0  0  3  0  0  0  0  0  0
  184.4260  178.6270  144.1080 C   0  0  0  0  0  3  0  0  0  0  0  0
  191.7370  177.7190  140.6690 O   0  0  0  0  0  0  0  0  0  0  0  0
  190.7710  177.1310  140.1120 C   0  0  0  0  0  0  0  0  0  0  0  0
  189.6210  176.7560  140.8830 N   0  0  0  0  0  2  0  0  0  0  0  0
  190.9790  176.1220  135.9360 C   0  0  0  0  0  0  0  0  0  0  0  0
  191.6780  175.8050  138.2260 C   0  0  0  0  0  3  0  0  0  0  0  0
  189.0550  178.5790  138.0430 C   0  0  0  0  0  1  0  0  0  0  0  0
  191.0640  175.7780  134.5940 O   0  0  0  0  0  1  0  0  0  0  0  0
  191.7650  175.4580  136.8770 C   0  0  0  0  0  3  0  0  0  0  0  0
  190.0120  177.4890  137.6930 C   0  0  0  0  0  0  0  0  0  0  0  0
  190.8070  176.8190  138.6600 C   0  0  0  0  0  0  0  0  0  0  0  0
  190.1080  177.1320  136.3440 C   0  0  0  0  0  3  0  0  0  0  0  0
  1  9  1  0  0  0  0
  2  3  1  0  0  0  0
  2  5  2  0  0  0  0
  3  7  1  1  0  0  0
  4 11  1  0  0  0  0
  5 14  1  0  0  0  0
  6  1  1  0  0  0  0
  7  4  2  0  0  0  0
  8 13  2  0  0  0  0
  8 12  1  0  0  0  0
 12 16  1  0  0  0  0
 13  2  1  0  0  0  0
 14  1  2  0  0  0  0
 15  4  1  0  0  0  0
 16  5  1  0  0  0  0
 16 17  1  1  0  0  0
 17  6  2  0  0  0  0
 18 10  2  0  0  0  0
 18 13  1  0  0  0  0
 19 10  1  6  0  0  0
 19 20  1  0  0  0  0
 19  3  1  0  0  0  0
 20 15  2  0  0  0  0
 22 21  2  0  0  0  0
 22 23  1  0  0  0  0
 23  8  1  0  0  0  0
 24 31  2  0  0  0  0
 24 28  1  0  0  0  0
 25 30  1  0  0  0  0
 27 24  1  0  0  0  0
 28 25  2  0  0  0  0
 29 26  1  0  0  0  0
 29 30  2  0  0  0  0
 30 22  1  0  0  0  0
 31 29  1  0  0  0  0
M  END
>  <MODEL>
5

>  <REMARK>
 VINA RESULT:     -10.6      1.538      4.178
  Name = 
  2 active torsions:
  status: ('A' for Active; 'I' for Inactive)
    1  A    between atoms: C_9  and  C_22
    2  A    between atoms: C_15  and  N_23
                            x       y       z     vdW  Elec       q    Type
                         _______ _______ _______ _____ _____    ______ ____

>  <TORSDO>
F 2

$$$$
=
 OpenBabel10262419323D

 31 35  0  0  1  0  0  0  0  0999 V2000
  190.3550  176.9400  142.0430 C   0  0  0  0  0  0  0  0  0  0  0  0
  187.0030  178.2630  143.3480 C   0  0  0  0  0  0  0  0  0  0  0  0
  187.0310  178.1970  144.7080 C   0  0  1  0  0  3  0  0  0  0  0  0
  188.0530  177.3670  146.7770 C   0  0  0  0  0  0  0  0  0  0  0  0
  188.1280  177.8450  142.4510 C   0  0  0  0  0  0  0  0  0  0  0  0
  190.1950  177.1420  140.6720 C   0  0  0  0  0  3  0  0  0  0  0  0
  188.1610  177.6180  145.4690 C   0  0  0  0  0  3  0  0  0  0  0  0
  185.6960  178.9030  141.3520 C   0  0  0  0  0  0  0  0  0  0  0  0
  191.5060  176.4070  142.5200 F   0  0  0  0  0  0  0  0  0  0  0  0
  184.6190  178.9860  144.8340 C   0  0  0  0  0  3  0  0  0  0  0  0
  189.0970  176.8170  147.4400 F   0  0  0  0  0  0  0  0  0  0  0  0
  186.8000  178.5820  140.5500 O   0  0  0  0  0  0  0  0  0  0  0  0
  185.7570  178.7610  142.6880 C   0  0  0  0  0  0  0  0  0  0  0  0
  189.3310  177.2920  142.9240 C   0  0  0  0  0  3  0  0  0  0  0  0
  186.7800  177.5980  147.4860 C   0  0  0  0  0  3  0  0  0  0  0  0
  187.9800  178.0410  141.0650 C   0  0  2  0  0  3  0  0  0  0  0  0
  189.0080  177.6910  140.1840 C   0  0  0  0  0  3  0  0  0  0  0  0
  184.5510  178.9900  143.5070 C   0  0  0  0  0  3  0  0  0  0  0  0
  185.9350  178.8580  145.5340 C   0  0  1  0  0  3  0  0  0  0  0  0
  185.7740  178.2530  146.9000 C   0  0  0  0  0  3  0  0  0  0  0  0
  183.4310  177.3100  140.5040 O   0  0  0  0  0  0  0  0  0  0  0  0
  183.3850  178.5580  140.3300 C   0  0  0  0  0  0  0  0  0  0  0  0
  184.4890  179.3780  140.7380 N   0  0  0  0  0  2  0  0  0  0  0  0
  180.0190  180.4090  138.3940 C   0  0  0  0  0  0  0  0  0  0  0  0
  182.2680  179.5290  138.3440 C   0  0  0  0  0  3  0  0  0  0  0  0
  180.8160  179.1730  141.8600 C   0  0  0  0  0  1  0  0  0  0  0  0
  178.9460  181.0060  137.7460 O   0  0  0  0  0  1  0  0  0  0  0  0
  181.1910  180.1300  137.6910 C   0  0  0  0  0  3  0  0  0  0  0  0
  180.9990  179.4850  140.4130 C   0  0  0  0  0  0  0  0  0  0  0  0
  182.1970  179.1950  139.7070 C   0  0  0  0  0  0  0  0  0  0  0  0
  179.9260  180.0870  139.7480 C   0  0  0  0  0  3  0  0  0  0  0  0
  1  9  1  0  0  0  0
  1 14  2  0  0  0  0
  2  3  1  0  0  0  0
  3  7  1  1  0  0  0
  3 19  1  0  0  0  0
  4 11  1  0  0  0  0
  4 15  1  0  0  0  0
  5 14  1  0  0  0  0
  5  2  2  0  0  0  0
  6  1  1  0  0  0  0
  7  4  2  0  0  0  0
  8 13  2  0  0  0  0
 12 16  1  0  0  0  0
 12  8  1  0  0  0  0
 13  2  1  0  0  0  0
 13 18  1  0  0  0  0
 16 17  1  6  0  0  0
 16  5  1  0  0  0  0
 17  6  2  0  0  0  0
 18 10  2  0  0  0  0
 19 10  1  6  0  0  0
 19 20  1  0  0  0  0
 20 15  2  0  0  0  0
 22 21  2  0  0  0  0
 22 23  1  0  0  0  0
 23  8  1  0  0  0  0
 24 31  1  0  0  0  0
 25 30  2  0  0  0  0
 27 24  1  0  0  0  0
 28 25  1  0  0  0  0
 28 24  2  0  0  0  0
 29 26  1  0  0  0  0
 30 22  1  0  0  0  0
 30 29  1  0  0  0  0
 31 29  2  0  0  0  0
M  END
>  <MODEL>
6

>  <REMARK>
 VINA RESULT:     -10.5      3.809      7.224
  Name = 
  2 active torsions:
  status: ('A' for Active; 'I' for Inactive)
    1  A    between atoms: C_9  and  C_22
    2  A    between atoms: C_15  and  N_23
                            x       y       z     vdW  Elec       q    Type
                         _______ _______ _______ _____ _____    ______ ____

>  <TORSDO>
F 2

$$$$
=
 OpenBabel10262419323D

 31 35  0  0  1  0  0  0  0  0999 V2000
  185.8090  178.1070  146.6630 C   0  0  0  0  0  0  0  0  0  0  0  0
  185.8390  178.4430  142.8450 C   0  0  0  0  0  0  0  0  0  0  0  0
  184.5710  178.7400  142.4430 C   0  0  1  0  0  3  0  0  0  0  0  0
  182.1700  178.8830  142.9150 C   0  0  0  0  0  0  0  0  0  0  0  0
  186.2550  178.2370  144.2690 C   0  0  0  0  0  0  0  0  0  0  0  0
  187.1620  177.8820  146.9120 C   0  0  0  0  0  3  0  0  0  0  0  0
  183.4220  178.8140  143.3730 C   0  0  0  0  0  3  0  0  0  0  0  0
  188.1730  178.0460  142.1420 C   0  0  0  0  0  0  0  0  0  0  0  0
  184.9290  178.1570  147.6920 F   0  0  0  0  0  0  0  0  0  0  0  0
  185.2770  178.6270  140.0050 C   0  0  0  0  0  3  0  0  0  0  0  0
  181.1390  178.9280  143.7920 F   0  0  0  0  0  0  0  0  0  0  0  0
  188.5410  177.9440  143.4900 O   0  0  0  0  0  0  0  0  0  0  0  0
  186.8930  178.2800  141.7980 C   0  0  0  0  0  0  0  0  0  0  0  0
  185.3610  178.2860  145.3530 C   0  0  0  0  0  3  0  0  0  0  0  0
  181.8920  178.8220  141.4670 C   0  0  0  0  0  3  0  0  0  0  0  0
  187.6180  178.0060  144.5360 C   0  0  2  0  0  3  0  0  0  0  0  0
  188.0650  177.8310  145.8490 C   0  0  0  0  0  3  0  0  0  0  0  0
  186.5010  178.2680  140.3750 C   0  0  0  0  0  3  0  0  0  0  0  0
  184.2970  179.1570  141.0050 C   0  0  1  0  0  3  0  0  0  0  0  0
  182.8800  178.9050  140.5720 C   0  0  0  0  0  3  0  0  0  0  0  0
  190.1400  175.9290  141.9390 O   0  0  0  0  0  0  0  0  0  0  0  0
  190.1300  176.8250  141.0520 C   0  0  0  0  0  0  0  0  0  0  0  0
  189.1700  177.8880  141.1210 N   0  0  0  0  0  2  0  0  0  0  0  0
  193.0560  176.7730  137.9000 C   0  0  0  0  0  0  0  0  0  0  0  0
  192.4470  177.0860  140.2160 C   0  0  0  0  0  3  0  0  0  0  0  0
  189.3510  176.1620  138.1760 C   0  0  0  0  0  1  0  0  0  0  0  0
  194.0190  176.7630  136.9000 O   0  0  0  0  0  1  0  0  0  0  0  0
  193.4160  177.0770  139.2120 C   0  0  0  0  0  3  0  0  0  0  0  0
  190.7470  176.4870  138.5900 C   0  0  0  0  0  0  0  0  0  0  0  0
  191.1030  176.7940  139.9300 C   0  0  0  0  0  0  0  0  0  0  0  0
  191.7270  176.4800  137.5930 C   0  0  0  0  0  3  0  0  0  0  0  0
  1  6  1  0  0  0  0
  1  9  1  0  0  0  0
  2  5  2  0  0  0  0
  3  2  1  0  0  0  0
  3  7  1  1  0  0  0
  4  7  2  0  0  0  0
  4 11  1  0  0  0  0
  5 16  1  0  0  0  0
  5 14  1  0  0  0  0
  8 12  1  0  0  0  0
 10 18  2  0  0  0  0
 12 16  1  0  0  0  0
 13  8  2  0  0  0  0
 13  2  1  0  0  0  0
 14  1  2  0  0  0  0
 15  4  1  0  0  0  0
 16 17  1  6  0  0  0
 17  6  2  0  0  0  0
 18 13  1  0  0  0  0
 19 10  1  6  0  0  0
 19  3  1  0  0  0  0
 20 19  1  0  0  0  0
 20 15  2  0  0  0  0
 22 23  1  0  0  0  0
 22 21  2  0  0  0  0
 23  8  1  0  0  0  0
 24 28  1  0  0  0  0
 26 29  1  0  0  0  0
 27 24  1  0  0  0  0
 28 25  2  0  0  0  0
 29 30  2  0  0  0  0
 30 25  1  0  0  0  0
 30 22  1  0  0  0  0
 31 24  2  0  0  0  0
 31 29  1  0  0  0  0
M  END
>  <MODEL>
7

>  <REMARK>
 VINA RESULT:     -10.2      1.763      4.846
  Name = 
  2 active torsions:
  status: ('A' for Active; 'I' for Inactive)
    1  A    between atoms: C_9  and  C_22
    2  A    between atoms: C_15  and  N_23
                            x       y       z     vdW  Elec       q    Type
                         _______ _______ _______ _____ _____    ______ ____

>  <TORSDO>
F 2

$$$$
=
 OpenBabel10262419323D

 31 35  0  0  1  0  0  0  0  0999 V2000
  186.6530  178.0410  146.9800 C   0  0  0  0  0  0  0  0  0  0  0  0
  187.3760  177.9120  143.2180 C   0  0  0  0  0  0  0  0  0  0  0  0
  188.6600  177.4860  143.0550 C   0  0  1  0  0  3  0  0  0  0  0  0
  190.8840  177.0320  143.9830 C   0  0  0  0  0  0  0  0  0  0  0  0
  186.6990  178.0910  144.5430 C   0  0  0  0  0  0  0  0  0  0  0  0
  185.3090  178.4130  146.9710 C   0  0  0  0  0  3  0  0  0  0  0  0
  189.5780  177.2270  144.1870 C   0  0  0  0  0  3  0  0  0  0  0  0
  185.2930  178.6220  142.0960 C   0  0  0  0  0  0  0  0  0  0  0  0
  187.2910  177.8320  148.1570 F   0  0  0  0  0  0  0  0  0  0  0  0
  188.4890  177.8100  140.5410 C   0  0  0  0  0  3  0  0  0  0  0  0
  191.7000  176.8180  145.0420 F   0  0  0  0  0  0  0  0  0  0  0  0
  184.6670  178.6960  143.3480 O   0  0  0  0  0  0  0  0  0  0  0  0
  186.5840  178.2540  141.9980 C   0  0  0  0  0  0  0  0  0  0  0  0
  187.3400  177.8780  145.7760 C   0  0  0  0  0  3  0  0  0  0  0  0
  191.4590  177.1360  142.6280 C   0  0  0  0  0  3  0  0  0  0  0  0
  185.3430  178.4690  144.5490 C   0  0  2  0  0  3  0  0  0  0  0  0
  184.6560  178.6280  145.7560 C   0  0  0  0  0  3  0  0  0  0  0  0
  187.2600  178.2930  140.6860 C   0  0  0  0  0  3  0  0  0  0  0  0
  189.1790  177.1150  141.6730 C   0  0  1  0  0  3  0  0  0  0  0  0
  190.6740  177.2190  141.5510 C   0  0  0  0  0  3  0  0  0  0  0  0
  183.0760  177.1420  140.9630 O   0  0  0  0  0  0  0  0  0  0  0  0
  183.4550  178.1930  140.3790 C   0  0  0  0  0  0  0  0  0  0  0  0
  184.5510  178.9510  140.9130 N   0  0  0  0  0  2  0  0  0  0  0  0
  181.4580  179.6700  136.8690 C   0  0  0  0  0  0  0  0  0  0  0  0
  182.1000  179.8890  139.1870 C   0  0  0  0  0  3  0  0  0  0  0  0
  183.4800  176.6220  137.7620 C   0  0  0  0  0  1  0  0  0  0  0  0
  180.8060  180.1690  135.7490 O   0  0  0  0  0  1  0  0  0  0  0  0
  181.4430  180.3910  138.0620 C   0  0  0  0  0  3  0  0  0  0  0  0
  182.7890  177.9350  137.9210 C   0  0  0  0  0  0  0  0  0  0  0  0
  182.7820  178.6610  139.1420 C   0  0  0  0  0  0  0  0  0  0  0  0
  182.1280  178.4490  136.8010 C   0  0  0  0  0  3  0  0  0  0  0  0
  1  9  1  0  0  0  0
  2  5  2  0  0  0  0
  3  2  1  0  0  0  0
  3  7  1  1  0  0  0
  4  7  2  0  0  0  0
  4 11  1  0  0  0  0
  5 16  1  0  0  0  0
  5 14  1  0  0  0  0
  6  1  1  0  0  0  0
  8 12  1  0  0  0  0
 10 18  2  0  0  0  0
 12 16  1  0  0  0  0
 13  8  2  0  0  0  0
 13  2  1  0  0  0  0
 14  1  2  0  0  0  0
 15  4  1  0  0  0  0
 16 17  1  1  0  0  0
 17  6  2  0  0  0  0
 18 13  1  0  0  0  0
 19 10  1  6  0  0  0
 19  3  1  0  0  0  0
 20 19  1  0  0  0  0
 20 15  2  0  0  0  0
 22 23  1  0  0  0  0
 22 21  2  0  0  0  0
 23  8  1  0  0  0  0
 24 28  1  0  0  0  0
 26 29  1  0  0  0  0
 27 24  1  0  0  0  0
 28 25  2  0  0  0  0
 29 30  2  0  0  0  0
 30 25  1  0  0  0  0
 30 22  1  0  0  0  0
 31 24  2  0  0  0  0
 31 29  1  0  0  0  0
M  END
>  <MODEL>
8

>  <REMARK>
 VINA RESULT:     -10.1      3.741      6.387
  Name = 
  2 active torsions:
  status: ('A' for Active; 'I' for Inactive)
    1  A    between atoms: C_9  and  C_22
    2  A    between atoms: C_15  and  N_23
                            x       y       z     vdW  Elec       q    Type
                         _______ _______ _______ _____ _____    ______ ____

>  <TORSDO>
F 2

$$$$
=
 OpenBabel10262419323D

 31 35  0  0  1  0  0  0  0  0999 V2000
  188.9420  177.2650  147.3320 C   0  0  0  0  0  0  0  0  0  0  0  0
  187.6990  177.7410  143.7380 C   0  0  0  0  0  0  0  0  0  0  0  0
  186.4450  178.2700  143.7980 C   0  0  1  0  0  3  0  0  0  0  0  0
  184.4240  178.8100  145.0760 C   0  0  0  0  0  0  0  0  0  0  0  0
  188.5420  177.4090  144.9310 C   0  0  0  0  0  0  0  0  0  0  0  0
  190.2350  176.7980  147.0980 C   0  0  0  0  0  3  0  0  0  0  0  0
  185.7240  178.5060  145.0690 C   0  0  0  0  0  3  0  0  0  0  0  0
  189.5330  176.9720  142.2730 C   0  0  0  0  0  0  0  0  0  0  0  0
  188.5000  177.4260  148.6030 F   0  0  0  0  0  0  0  0  0  0  0  0
  186.2260  178.1330  141.2700 C   0  0  0  0  0  3  0  0  0  0  0  0
  183.7880  178.9990  146.2560 F   0  0  0  0  0  0  0  0  0  0  0  0
  190.3240  176.7540  143.4090 O   0  0  0  0  0  0  0  0  0  0  0  0
  188.2770  177.4390  142.3930 C   0  0  0  0  0  0  0  0  0  0  0  0
  188.1050  177.5710  146.2580 C   0  0  0  0  0  3  0  0  0  0  0  0
  183.6530  178.8550  143.8180 C   0  0  0  0  0  3  0  0  0  0  0  0
  189.8490  176.9350  144.7100 C   0  0  2  0  0  3  0  0  0  0  0  0
  190.6870  176.6320  145.7870 C   0  0  0  0  0  3  0  0  0  0  0  0
  187.4180  177.5520  141.1970 C   0  0  0  0  0  3  0  0  0  0  0  0
  185.7660  178.7850  142.5360 C   0  0  1  0  0  3  0  0  0  0  0  0
  184.2660  178.8000  142.6330 C   0  0  0  0  0  3  0  0  0  0  0  0
  192.0580  177.8840  141.1860 O   0  0  0  0  0  0  0  0  0  0  0  0
  191.3250  177.1540  140.4660 C   0  0  0  0  0  0  0  0  0  0  0  0
  190.0670  176.6840  140.9720 N   0  0  0  0  0  2  0  0  0  0  0  0
  192.6860  176.0200  136.5460 C   0  0  0  0  0  0  0  0  0  0  0  0
  193.0890  176.4050  138.8960 C   0  0  0  0  0  3  0  0  0  0  0  0
  189.4260  177.1220  138.0760 C   0  0  0  0  0  1  0  0  0  0  0  0
  193.1490  175.6500  135.2910 O   0  0  0  0  0  1  0  0  0  0  0  0
  193.5560  176.0340  137.6350 C   0  0  0  0  0  3  0  0  0  0  0  0
  190.8690  176.7540  137.9790 C   0  0  0  0  0  0  0  0  0  0  0  0
  191.7460  176.7700  139.0950 C   0  0  0  0  0  0  0  0  0  0  0  0
  191.3490  176.3790  136.7200 C   0  0  0  0  0  3  0  0  0  0  0  0
  1  9  1  0  0  0  0
  2  3  1  0  0  0  0
  2  5  2  0  0  0  0
  3  7  1  1  0  0  0
  4 11  1  0  0  0  0
  5 14  1  0  0  0  0
  6  1  1  0  0  0  0
  7  4  2  0  0  0  0
  8 13  2  0  0  0  0
  8 12  1  0  0  0  0
 12 16  1  0  0  0  0
 13  2  1  0  0  0  0
 14  1  2  0  0  0  0
 15  4  1  0  0  0  0
 16  5  1  0  0  0  0
 16 17  1  1  0  0  0
 17  6  2  0  0  0  0
 18 10  2  0  0  0  0
 18 13  1  0  0  0  0
 19 10  1  6  0  0  0
 19 20  1  0  0  0  0
 19  3  1  0  0  0  0
 20 15  2  0  0  0  0
 22 23  1  0  0  0  0
 22 21  2  0  0  0  0
 23  8  1  0  0  0  0
 24 31  2  0  0  0  0
 24 28  1  0  0  0  0
 25 30  1  0  0  0  0
 27 24  1  0  0  0  0
 28 25  2  0  0  0  0
 29 26  1  0  0  0  0
 29 30  2  0  0  0  0
 30 22  1  0  0  0  0
 31 29  1  0  0  0  0
M  END
>  <MODEL>
9

>  <REMARK>
 VINA RESULT:     -10.0      1.290      4.233
  Name = 
  2 active torsions:
  status: ('A' for Active; 'I' for Inactive)
    1  A    between atoms: C_9  and  C_22
    2  A    between atoms: C_15  and  N_23
                            x       y       z     vdW  Elec       q    Type
                         _______ _______ _______ _____ _____    ______ ____

>  <TORSDO>
F 2

$$$$
