=
 OpenBabel10262423213D

 34 38  0  0  1  0  0  0  0  0999 V2000
  184.3720  178.6420  141.8300 C   0  0  0  0  0  0  0  0  0  0  0  0
  185.3870  178.0530  138.3390 C   0  0  0  0  0  3  0  0  0  0  0  0
  183.4220  178.7710  139.2440 N   0  0  0  0  0  2  0  0  0  0  0  0
  183.9660  178.7180  144.2460 C   0  0  0  0  0  0  0  0  0  0  0  0
  184.8310  178.5710  143.1600 C   0  0  0  0  0  3  0  0  0  0  0  0
  182.1210  179.0540  142.7040 C   0  0  0  0  0  0  0  0  0  0  0  0
  180.7280  179.3040  142.5370 N   0  0  0  0  0  1  0  0  0  0  0  0
  182.6170  178.9640  144.0050 C   0  0  0  0  0  3  0  0  0  0  0  0
  182.5560  179.0020  140.2600 C   0  0  0  0  0  0  0  0  0  0  0  0
  182.9930  178.8950  141.5950 C   0  0  0  0  0  0  0  0  0  0  0  0
  181.3620  179.2870  139.9790 O   0  0  0  0  0  0  0  0  0  0  0  0
  186.7190  177.3850  138.3210 C   0  0  0  0  0  2  0  0  0  0  0  0
  187.8020  178.2540  138.8510 C   0  0  0  0  0  0  0  0  0  0  0  0
  187.7490  178.7010  140.1040 C   0  0  0  0  0  3  0  0  0  0  0  0
  184.7320  178.4720  139.4270 C   0  0  0  0  0  0  0  0  0  0  0  0
  186.5990  178.5970  141.0190 C   0  0  0  0  0  3  0  0  0  0  0  0
  185.2760  178.5100  140.7440 C   0  0  0  0  0  0  0  0  0  0  0  0
  189.0120  178.4780  138.0330 C   0  0  0  0  0  0  0  0  0  0  0  0
  189.1380  179.5460  137.3770 O   0  0  0  0  0  0  0  0  0  0  0  0
  190.1050  177.4650  137.9670 C   0  0  0  0  0  1  0  0  0  0  0  0
  184.4040  178.6590  145.5800 O   0  0  0  0  0  0  0  0  0  0  0  0
  187.3790  178.1520  147.7850 C   0  0  0  0  0  3  0  0  0  0  0  0
  186.6210  177.8550  145.1040 C   0  0  0  0  0  3  0  0  0  0  0  0
  190.5210  176.8660  146.3110 C   0  0  0  0  0  0  0  0  0  0  0  0
  189.6000  177.3420  147.2500 C   0  0  0  0  0  3  0  0  0  0  0  0
  188.3010  177.6740  146.8520 C   0  0  0  0  0  0  0  0  0  0  0  0
  188.8410  177.0460  144.5650 C   0  0  0  0  0  3  0  0  0  0  0  0
  187.9190  177.5240  145.5000 C   0  0  0  0  0  0  0  0  0  0  0  0
  190.1380  176.7180  144.9690 C   0  0  0  0  0  3  0  0  0  0  0  0
  185.6910  178.3290  146.0370 C   0  0  0  0  0  0  0  0  0  0  0  0
  186.0830  178.4800  147.3780 C   0  0  0  0  0  3  0  0  0  0  0  0
  191.9000  176.5120  146.7520 C   0  0  2  0  0  3  0  0  0  0  0  0
  192.1020  175.1470  146.6490 F   0  0  0  0  0  0  0  0  0  0  0  0
  192.1000  176.9190  148.0720 O   0  0  0  0  0  1  0  0  0  0  0  0
  1  5  1  0  0  0  0
  2 15  2  0  0  0  0
  3 15  1  0  0  0  0
  3  9  1  0  0  0  0
  4 21  1  0  0  0  0
  5  4  2  0  0  0  0
  6  8  2  0  0  0  0
  7  6  1  0  0  0  0
  8  4  1  0  0  0  0
  9 10  1  0  0  0  0
 10  1  2  0  0  0  0
 10  6  1  0  0  0  0
 11  9  2  0  0  0  0
 12  2  1  0  0  0  0
 12 13  1  0  0  0  0
 13 14  2  0  0  0  0
 14 16  1  0  0  0  0
 15 17  1  0  0  0  0
 17 16  2  0  0  0  0
 17  1  1  0  0  0  0
 18 13  1  0  0  0  0
 19 18  2  0  0  0  0
 20 18  1  0  0  0  0
 21 30  1  0  0  0  0
 23 28  2  0  0  0  0
 23 30  1  0  0  0  0
 24 32  1  0  0  0  0
 24 25  2  0  0  0  0
 26 25  1  0  0  0  0
 26 22  2  0  0  0  0
 27 29  2  0  0  0  0
 27 28  1  0  0  0  0
 28 26  1  0  0  0  0
 29 24  1  0  0  0  0
 30 31  2  0  0  0  0
 31 22  1  0  0  0  0
 32 33  1  1  0  0  0
 32 34  1  0  0  0  0
M  END
>  <MODEL>
1

>  <REMARK>
 VINA RESULT:     -11.5      0.000      0.000
  Name = 
  4 active torsions:
  status: ('A' for Active; 'I' for Inactive)
    1  A    between atoms: C_3  and  C_25
    2  A    between atoms: C_7  and  C_11
    3  A    between atoms: C_8  and  O_18
    4  A    between atoms: O_18  and  C_30
                            x       y       z     vdW  Elec       q    Type
                         _______ _______ _______ _____ _____    ______ ____

>  <TORSDO>
F 4

$$$$
=
 OpenBabel10262423213D

 34 38  0  0  1  0  0  0  0  0999 V2000
  183.0540  178.5780  141.5410 C   0  0  0  0  0  0  0  0  0  0  0  0
  183.2010  177.7700  137.9500 C   0  0  0  0  0  3  0  0  0  0  0  0
  181.4870  178.4840  139.2730 N   0  0  0  0  0  2  0  0  0  0  0  0
  183.2560  178.8160  143.9720 C   0  0  0  0  0  0  0  0  0  0  0  0
  183.8310  178.6190  142.7140 C   0  0  0  0  0  3  0  0  0  0  0  0
  181.0720  178.9740  142.9240 C   0  0  0  0  0  0  0  0  0  0  0  0
  179.6690  179.1630  143.0970 N   0  0  0  0  0  1  0  0  0  0  0  0
  181.8780  178.9960  144.0620 C   0  0  0  0  0  3  0  0  0  0  0  0
  180.8890  178.7580  140.4570 C   0  0  0  0  0  0  0  0  0  0  0  0
  181.6490  178.7650  141.6440 C   0  0  0  0  0  0  0  0  0  0  0  0
  179.6500  178.9810  140.4680 O   0  0  0  0  0  0  0  0  0  0  0  0
  184.5190  177.1490  137.6400 C   0  0  0  0  0  2  0  0  0  0  0  0
  185.6540  178.0910  137.8270 C   0  0  0  0  0  0  0  0  0  0  0  0
  185.8900  178.6270  139.0220 C   0  0  0  0  0  3  0  0  0  0  0  0
  182.8150  178.2450  139.1400 C   0  0  0  0  0  0  0  0  0  0  0  0
  185.0100  178.5500  140.2020 C   0  0  0  0  0  3  0  0  0  0  0  0
  183.6660  178.3970  140.2730 C   0  0  0  0  0  0  0  0  0  0  0  0
  186.6090  178.2960  136.7190 C   0  0  0  0  0  0  0  0  0  0  0  0
  187.4990  179.1830  136.8120 O   0  0  0  0  0  0  0  0  0  0  0  0
  186.5550  177.4660  135.4810 C   0  0  0  0  0  1  0  0  0  0  0  0
  184.0140  178.8690  145.1550 O   0  0  0  0  0  0  0  0  0  0  0  0
  187.3870  177.3800  144.5460 C   0  0  0  0  0  3  0  0  0  0  0  0
  185.9040  178.5600  146.6100 C   0  0  0  0  0  3  0  0  0  0  0  0
  189.8240  177.2310  147.3280 C   0  0  0  0  0  0  0  0  0  0  0  0
  189.2600  177.0850  146.0560 C   0  0  0  0  0  3  0  0  0  0  0  0
  187.9550  177.5250  145.8130 C   0  0  0  0  0  0  0  0  0  0  0  0
  187.7750  178.2660  148.1220 C   0  0  0  0  0  3  0  0  0  0  0  0
  187.2070  178.1200  146.8540 C   0  0  0  0  0  0  0  0  0  0  0  0
  189.0790  177.8230  148.3590 C   0  0  0  0  0  3  0  0  0  0  0  0
  185.3320  178.4210  145.3390 C   0  0  0  0  0  0  0  0  0  0  0  0
  186.0820  177.8220  144.3130 C   0  0  0  0  0  3  0  0  0  0  0  0
  191.2190  176.7620  147.5690 C   0  0  2  0  0  3  0  0  0  0  0  0
  191.8140  177.5160  148.5630 F   0  0  0  0  0  0  0  0  0  0  0  0
  191.9660  176.8580  146.3940 O   0  0  0  0  0  1  0  0  0  0  0  0
  1 10  2  0  0  0  0
  1  5  1  0  0  0  0
  2 15  2  0  0  0  0
  3  9  1  0  0  0  0
  4  8  1  0  0  0  0
  4 21  1  0  0  0  0
  5  4  2  0  0  0  0
  6  7  1  0  0  0  0
  6  8  2  0  0  0  0
  9 11  2  0  0  0  0
  9 10  1  0  0  0  0
 10  6  1  0  0  0  0
 12 13  1  0  0  0  0
 12  2  1  0  0  0  0
 13 14  2  0  0  0  0
 14 16  1  0  0  0  0
 15  3  1  0  0  0  0
 15 17  1  0  0  0  0
 16 17  2  0  0  0  0
 17  1  1  0  0  0  0
 18 19  2  0  0  0  0
 18 13  1  0  0  0  0
 20 18  1  0  0  0  0
 21 30  1  0  0  0  0
 22 26  1  0  0  0  0
 23 28  1  0  0  0  0
 24 32  1  0  0  0  0
 24 29  1  0  0  0  0
 25 24  2  0  0  0  0
 26 25  1  0  0  0  0
 26 28  2  0  0  0  0
 27 29  2  0  0  0  0
 28 27  1  0  0  0  0
 30 23  2  0  0  0  0
 31 22  2  0  0  0  0
 31 30  1  0  0  0  0
 32 34  1  6  0  0  0
 32 33  1  0  0  0  0
M  END
>  <MODEL>
2

>  <REMARK>
 VINA RESULT:     -11.4      1.516      2.124
  Name = 
  4 active torsions:
  status: ('A' for Active; 'I' for Inactive)
    1  A    between atoms: C_3  and  C_25
    2  A    between atoms: C_7  and  C_11
    3  A    between atoms: C_8  and  O_18
    4  A    between atoms: O_18  and  C_30
                            x       y       z     vdW  Elec       q    Type
                         _______ _______ _______ _____ _____    ______ ____

>  <TORSDO>
F 4

$$$$
=
 OpenBabel10262423213D

 34 38  0  0  1  0  0  0  0  0999 V2000
  186.9960  178.1410  144.1470 C   0  0  0  0  0  0  0  0  0  0  0  0
  188.8140  177.6250  147.3090 C   0  0  0  0  0  3  0  0  0  0  0  0
  186.5960  177.9050  146.8660 N   0  0  0  0  0  2  0  0  0  0  0  0
  186.1400  178.6830  141.9150 C   0  0  0  0  0  0  0  0  0  0  0  0
  187.1790  178.2780  142.7580 C   0  0  0  0  0  3  0  0  0  0  0  0
  184.6590  178.8010  143.8350 C   0  0  0  0  0  0  0  0  0  0  0  0
  183.3490  179.0820  144.3240 N   0  0  0  0  0  1  0  0  0  0  0  0
  184.8870  178.9360  142.4650 C   0  0  0  0  0  3  0  0  0  0  0  0
  185.5360  178.2220  146.0850 C   0  0  0  0  0  0  0  0  0  0  0  0
  185.7120  178.4000  144.6980 C   0  0  0  0  0  0  0  0  0  0  0  0
  184.4100  178.3720  146.6290 O   0  0  0  0  0  0  0  0  0  0  0  0
  190.2800  177.7110  147.0520 C   0  0  0  0  0  2  0  0  0  0  0  0
  190.7750  176.6080  146.1880 C   0  0  0  0  0  0  0  0  0  0  0  0
  190.3000  176.4600  144.9540 C   0  0  0  0  0  3  0  0  0  0  0  0
  187.8480  177.7040  146.3870 C   0  0  0  0  0  0  0  0  0  0  0  0
  189.1470  177.1700  144.3710 C   0  0  0  0  0  3  0  0  0  0  0  0
  188.0630  177.7070  144.9780 C   0  0  0  0  0  0  0  0  0  0  0  0
  191.9120  175.7860  146.6510 C   0  0  0  0  0  0  0  0  0  0  0  0
  192.4310  174.9390  145.8760 O   0  0  0  0  0  0  0  0  0  0  0  0
  192.4750  175.9380  148.0230 C   0  0  0  0  0  1  0  0  0  0  0  0
  186.2980  178.8190  140.5260 O   0  0  0  0  0  0  0  0  0  0  0  0
  188.2010  177.3910  137.6430 C   0  0  0  0  0  3  0  0  0  0  0  0
  188.5870  178.1050  140.3250 C   0  0  0  0  0  3  0  0  0  0  0  0
  191.7640  176.5000  138.0950 C   0  0  0  0  0  0  0  0  0  0  0  0
  190.5130  176.6800  137.4960 C   0  0  0  0  0  3  0  0  0  0  0  0
  189.4520  177.2130  138.2350 C   0  0  0  0  0  0  0  0  0  0  0  0
  190.8990  177.3930  140.1820 C   0  0  0  0  0  3  0  0  0  0  0  0
  189.6470  177.5720  139.5870 C   0  0  0  0  0  0  0  0  0  0  0  0
  191.9550  176.8590  139.4370 C   0  0  0  0  0  3  0  0  0  0  0  0
  187.3310  178.2910  139.7330 C   0  0  0  0  0  0  0  0  0  0  0  0
  187.1470  177.9250  138.3890 C   0  0  0  0  0  3  0  0  0  0  0  0
  192.8870  175.9360  137.2910 C   0  0  2  0  0  3  0  0  0  0  0  0
  193.3590  174.7750  137.8740 F   0  0  0  0  0  0  0  0  0  0  0  0
  193.9210  176.8680  137.1930 O   0  0  0  0  0  1  0  0  0  0  0  0
  1 10  1  0  0  0  0
  1 17  1  0  0  0  0
  4  8  2  0  0  0  0
  4  5  1  0  0  0  0
  5  1  2  0  0  0  0
  6  7  1  0  0  0  0
  6 10  2  0  0  0  0
  8  6  1  0  0  0  0
  9 11  2  0  0  0  0
  9  3  1  0  0  0  0
 10  9  1  0  0  0  0
 12  2  1  0  0  0  0
 13 18  1  0  0  0  0
 13 12  1  0  0  0  0
 14 13  2  0  0  0  0
 15  3  1  0  0  0  0
 15  2  2  0  0  0  0
 16 14  1  0  0  0  0
 16 17  2  0  0  0  0
 17 15  1  0  0  0  0
 18 20  1  0  0  0  0
 19 18  2  0  0  0  0
 21  4  1  0  0  0  0
 22 26  2  0  0  0  0
 22 31  1  0  0  0  0
 24 29  1  0  0  0  0
 25 24  2  0  0  0  0
 25 26  1  0  0  0  0
 26 28  1  0  0  0  0
 28 27  1  0  0  0  0
 28 23  2  0  0  0  0
 29 27  2  0  0  0  0
 30 23  1  0  0  0  0
 30 21  1  0  0  0  0
 31 30  2  0  0  0  0
 32 34  1  1  0  0  0
 32 33  1  0  0  0  0
 32 24  1  0  0  0  0
M  END
>  <MODEL>
3

>  <REMARK>
 VINA RESULT:     -11.3      2.711      7.358
  Name = 
  4 active torsions:
  status: ('A' for Active; 'I' for Inactive)
    1  A    between atoms: C_3  and  C_25
    2  A    between atoms: C_7  and  C_11
    3  A    between atoms: C_8  and  O_18
    4  A    between atoms: O_18  and  C_30
                            x       y       z     vdW  Elec       q    Type
                         _______ _______ _______ _____ _____    ______ ____

>  <TORSDO>
F 4

$$$$
=
 OpenBabel10262423213D

 34 38  0  0  1  0  0  0  0  0999 V2000
  188.3580  177.8280  145.0710 C   0  0  0  0  0  0  0  0  0  0  0  0
  191.5690  177.3140  143.3410 C   0  0  0  0  0  3  0  0  0  0  0  0
  190.9500  176.9950  145.5120 N   0  0  0  0  0  2  0  0  0  0  0  0
  186.1630  178.4860  145.9420 C   0  0  0  0  0  0  0  0  0  0  0  0
  187.0330  178.2630  144.8720 C   0  0  0  0  0  3  0  0  0  0  0  0
  187.9150  177.8080  147.4800 C   0  0  0  0  0  0  0  0  0  0  0  0
  188.3050  177.5920  148.8340 N   0  0  0  0  0  1  0  0  0  0  0  0
  186.6140  178.2500  147.2380 C   0  0  0  0  0  3  0  0  0  0  0  0
  190.1230  177.1180  146.5780 C   0  0  0  0  0  0  0  0  0  0  0  0
  188.8080  177.5890  146.3980 C   0  0  0  0  0  0  0  0  0  0  0  0
  190.5670  176.8250  147.7200 O   0  0  0  0  0  0  0  0  0  0  0  0
  191.4810  177.8780  141.9650 C   0  0  0  0  0  2  0  0  0  0  0  0
  190.5090  177.1480  141.1090 C   0  0  0  0  0  0  0  0  0  0  0  0
  189.2240  177.0910  141.4520 C   0  0  0  0  0  3  0  0  0  0  0  0
  190.5760  177.2670  144.2370 C   0  0  0  0  0  0  0  0  0  0  0  0
  188.6460  177.5190  142.7390 C   0  0  0  0  0  3  0  0  0  0  0  0
  189.2150  177.5890  143.9650 C   0  0  0  0  0  0  0  0  0  0  0  0
  190.9510  176.6320  139.7970 C   0  0  0  0  0  0  0  0  0  0  0  0
  190.1610  175.9480  139.0920 O   0  0  0  0  0  0  0  0  0  0  0  0
  192.3190  176.9090  139.2720 C   0  0  0  0  0  1  0  0  0  0  0  0
  184.8360  178.9120  145.7660 O   0  0  0  0  0  0  0  0  0  0  0  0
  182.0210  179.0000  143.3090 C   0  0  0  0  0  3  0  0  0  0  0  0
  184.8210  178.9230  143.3600 C   0  0  0  0  0  3  0  0  0  0  0  0
  182.7830  178.9820  139.6880 C   0  0  0  0  0  0  0  0  0  0  0  0
  182.0620  179.0030  140.8860 C   0  0  0  0  0  3  0  0  0  0  0  0
  182.7360  178.9820  142.1110 C   0  0  0  0  0  0  0  0  0  0  0  0
  184.8650  178.9240  140.9380 C   0  0  0  0  0  3  0  0  0  0  0  0
  184.1480  178.9430  142.1370 C   0  0  0  0  0  0  0  0  0  0  0  0
  184.1850  178.9440  139.7160 C   0  0  0  0  0  3  0  0  0  0  0  0
  184.1070  178.9470  144.5650 C   0  0  0  0  0  0  0  0  0  0  0  0
  182.7030  178.9800  144.5290 C   0  0  0  0  0  3  0  0  0  0  0  0
  182.0490  179.0100  138.3900 C   0  0  2  0  0  3  0  0  0  0  0  0
  182.7600  178.3290  137.4210 F   0  0  0  0  0  0  0  0  0  0  0  0
  181.8450  180.3300  137.9840 O   0  0  0  0  0  1  0  0  0  0  0  0
  1 10  1  0  0  0  0
  2 15  2  0  0  0  0
  3  9  1  0  0  0  0
  4  8  2  0  0  0  0
  5  1  2  0  0  0  0
  5  4  1  0  0  0  0
  6  7  1  0  0  0  0
  8  6  1  0  0  0  0
  9 11  2  0  0  0  0
 10  9  1  0  0  0  0
 10  6  2  0  0  0  0
 12  2  1  0  0  0  0
 13 14  2  0  0  0  0
 13 12  1  0  0  0  0
 14 16  1  0  0  0  0
 15  3  1  0  0  0  0
 16 17  2  0  0  0  0
 17 15  1  0  0  0  0
 17  1  1  0  0  0  0
 18 13  1  0  0  0  0
 19 18  2  0  0  0  0
 20 18  1  0  0  0  0
 21  4  1  0  0  0  0
 22 31  1  0  0  0  0
 23 30  1  0  0  0  0
 24 29  1  0  0  0  0
 24 25  2  0  0  0  0
 25 26  1  0  0  0  0
 26 28  1  0  0  0  0
 26 22  2  0  0  0  0
 27 28  1  0  0  0  0
 28 23  2  0  0  0  0
 29 27  2  0  0  0  0
 30 21  1  0  0  0  0
 31 30  2  0  0  0  0
 32 33  1  6  0  0  0
 32 24  1  0  0  0  0
 34 32  1  0  0  0  0
M  END
>  <MODEL>
4

>  <REMARK>
 VINA RESULT:     -11.1      3.711      7.540
  Name = 
  4 active torsions:
  status: ('A' for Active; 'I' for Inactive)
    1  A    between atoms: C_3  and  C_25
    2  A    between atoms: C_7  and  C_11
    3  A    between atoms: C_8  and  O_18
    4  A    between atoms: O_18  and  C_30
                            x       y       z     vdW  Elec       q    Type
                         _______ _______ _______ _____ _____    ______ ____

>  <TORSDO>
F 4

$$$$
=
 OpenBabel10262423213D

 34 38  0  0  1  0  0  0  0  0999 V2000
  185.0160  178.5890  142.8960 C   0  0  0  0  0  0  0  0  0  0  0  0
  185.1840  178.7280  146.5730 C   0  0  0  0  0  3  0  0  0  0  0  0
  183.4130  178.6270  145.1410 N   0  0  0  0  0  2  0  0  0  0  0  0
  185.2620  178.7280  140.4610 C   0  0  0  0  0  0  0  0  0  0  0  0
  185.8150  178.5830  141.7360 C   0  0  0  0  0  3  0  0  0  0  0  0
  183.0530  178.8610  141.4590 C   0  0  0  0  0  0  0  0  0  0  0  0
  181.6490  179.0050  141.2510 N   0  0  0  0  0  1  0  0  0  0  0  0
  183.8820  178.8610  140.3370 C   0  0  0  0  0  3  0  0  0  0  0  0
  182.8200  178.6900  143.9250 C   0  0  0  0  0  0  0  0  0  0  0  0
  183.6080  178.7240  142.7580 C   0  0  0  0  0  0  0  0  0  0  0  0
  181.5620  178.7400  143.8710 O   0  0  0  0  0  0  0  0  0  0  0  0
  186.5890  178.9940  146.9910 C   0  0  0  0  0  2  0  0  0  0  0  0
  187.5090  177.8780  146.6480 C   0  0  0  0  0  0  0  0  0  0  0  0
  187.6770  177.5150  145.3780 C   0  0  0  0  0  3  0  0  0  0  0  0
  184.7560  178.5540  145.3180 C   0  0  0  0  0  0  0  0  0  0  0  0
  186.8800  177.9750  144.2270 C   0  0  0  0  0  3  0  0  0  0  0  0
  185.6010  178.4180  144.1790 C   0  0  0  0  0  0  0  0  0  0  0  0
  188.3560  177.2910  147.7060 C   0  0  0  0  0  0  0  0  0  0  0  0
  187.9310  177.2320  148.8900 O   0  0  0  0  0  0  0  0  0  0  0  0
  189.7150  176.7530  147.4070 C   0  0  0  0  0  1  0  0  0  0  0  0
  186.0390  178.7160  139.2900 O   0  0  0  0  0  0  0  0  0  0  0  0
  189.5810  177.7520  139.9940 C   0  0  0  0  0  3  0  0  0  0  0  0
  187.7270  177.7250  137.8930 C   0  0  0  0  0  3  0  0  0  0  0  0
  191.6170  176.2580  137.2890 C   0  0  0  0  0  0  0  0  0  0  0  0
  191.2470  176.7580  138.5410 C   0  0  0  0  0  3  0  0  0  0  0  0
  189.9530  177.2490  138.7470 C   0  0  0  0  0  0  0  0  0  0  0  0
  189.3920  176.7330  136.4370 C   0  0  0  0  0  3  0  0  0  0  0  0
  189.0190  177.2350  137.6870 C   0  0  0  0  0  0  0  0  0  0  0  0
  190.6870  176.2440  136.2390 C   0  0  0  0  0  3  0  0  0  0  0  0
  187.3470  178.2250  139.1440 C   0  0  0  0  0  0  0  0  0  0  0  0
  188.2860  178.2400  140.1890 C   0  0  0  0  0  3  0  0  0  0  0  0
  192.9980  175.7330  137.0880 C   0  0  2  0  0  3  0  0  0  0  0  0
  193.2500  174.6960  137.9680 F   0  0  0  0  0  0  0  0  0  0  0  0
  193.9310  176.7530  137.2820 O   0  0  0  0  0  1  0  0  0  0  0  0
  1 17  1  0  0  0  0
  2 12  1  0  0  0  0
  3 15  1  0  0  0  0
  4  5  1  0  0  0  0
  5  1  2  0  0  0  0
  6 10  2  0  0  0  0
  7  6  1  0  0  0  0
  8  4  2  0  0  0  0
  8  6  1  0  0  0  0
  9  3  1  0  0  0  0
 10  1  1  0  0  0  0
 10  9  1  0  0  0  0
 11  9  2  0  0  0  0
 13 12  1  0  0  0  0
 13 18  1  0  0  0  0
 14 13  2  0  0  0  0
 15  2  2  0  0  0  0
 16 14  1  0  0  0  0
 17 16  2  0  0  0  0
 17 15  1  0  0  0  0
 18 19  2  0  0  0  0
 20 18  1  0  0  0  0
 21  4  1  0  0  0  0
 22 31  1  0  0  0  0
 23 30  1  0  0  0  0
 24 25  2  0  0  0  0
 25 26  1  0  0  0  0
 26 22  2  0  0  0  0
 27 28  1  0  0  0  0
 28 23  2  0  0  0  0
 28 26  1  0  0  0  0
 29 27  2  0  0  0  0
 29 24  1  0  0  0  0
 30 21  1  0  0  0  0
 30 31  2  0  0  0  0
 32 34  1  1  0  0  0
 32 24  1  0  0  0  0
 32 33  1  0  0  0  0
M  END
>  <MODEL>
5

>  <REMARK>
 VINA RESULT:     -11.0      2.513      7.114
  Name = 
  4 active torsions:
  status: ('A' for Active; 'I' for Inactive)
    1  A    between atoms: C_3  and  C_25
    2  A    between atoms: C_7  and  C_11
    3  A    between atoms: C_8  and  O_18
    4  A    between atoms: O_18  and  C_30
                            x       y       z     vdW  Elec       q    Type
                         _______ _______ _______ _____ _____    ______ ____

>  <TORSDO>
F 4

$$$$
=
 OpenBabel10262423213D

 34 38  0  0  1  0  0  0  0  0999 V2000
  188.4950  177.6110  144.7010 C   0  0  0  0  0  0  0  0  0  0  0  0
  191.6820  177.1160  142.9220 C   0  0  0  0  0  3  0  0  0  0  0  0
  191.1030  176.8120  145.1060 N   0  0  0  0  0  2  0  0  0  0  0  0
  186.3070  178.2530  145.6020 C   0  0  0  0  0  0  0  0  0  0  0  0
  187.1620  178.0290  144.5200 C   0  0  0  0  0  3  0  0  0  0  0  0
  188.0930  177.6100  147.1170 C   0  0  0  0  0  0  0  0  0  0  0  0
  188.5080  177.4120  148.4670 N   0  0  0  0  0  1  0  0  0  0  0  0
  186.7830  178.0350  146.8930 C   0  0  0  0  0  3  0  0  0  0  0  0
  190.2930  176.9360  146.1850 C   0  0  0  0  0  0  0  0  0  0  0  0
  188.9690  177.3900  146.0220 C   0  0  0  0  0  0  0  0  0  0  0  0
  190.7590  176.6600  147.3220 O   0  0  0  0  0  0  0  0  0  0  0  0
  191.5640  177.6650  141.5420 C   0  0  0  0  0  2  0  0  0  0  0  0
  190.5870  176.9150  140.7100 C   0  0  0  0  0  0  0  0  0  0  0  0
  189.3090  176.8480  141.0760 C   0  0  0  0  0  3  0  0  0  0  0  0
  190.7050  177.0670  143.8350 C   0  0  0  0  0  0  0  0  0  0  0  0
  188.7470  177.2820  142.3670 C   0  0  0  0  0  3  0  0  0  0  0  0
  189.3360  177.3710  143.5830 C   0  0  0  0  0  0  0  0  0  0  0  0
  191.0120  176.3920  139.3960 C   0  0  0  0  0  0  0  0  0  0  0  0
  190.2490  175.6280  138.7470 O   0  0  0  0  0  0  0  0  0  0  0  0
  192.3330  176.7530  138.8040 C   0  0  0  0  0  1  0  0  0  0  0  0
  184.9720  178.6610  145.4450 O   0  0  0  0  0  0  0  0  0  0  0  0
  183.9510  178.2610  141.8720 C   0  0  0  0  0  3  0  0  0  0  0  0
  182.8600  179.0030  144.3440 C   0  0  0  0  0  3  0  0  0  0  0  0
  180.4580  178.9980  140.8980 C   0  0  0  0  0  0  0  0  0  0  0  0
  181.8030  178.6270  140.8110 C   0  0  0  0  0  3  0  0  0  0  0  0
  182.6070  178.6280  141.9550 C   0  0  0  0  0  0  0  0  0  0  0  0
  180.7120  179.3700  143.2850 C   0  0  0  0  0  3  0  0  0  0  0  0
  182.0570  179.0020  143.2010 C   0  0  0  0  0  0  0  0  0  0  0  0
  179.9140  179.3680  142.1370 C   0  0  0  0  0  3  0  0  0  0  0  0
  184.2080  178.6300  144.2660 C   0  0  0  0  0  0  0  0  0  0  0  0
  184.7470  178.2650  143.0210 C   0  0  0  0  0  3  0  0  0  0  0  0
  179.6120  178.9850  139.6700 C   0  0  2  0  0  3  0  0  0  0  0  0
  179.4950  177.6970  139.1810 F   0  0  0  0  0  0  0  0  0  0  0  0
  180.1740  179.8100  138.6940 O   0  0  0  0  0  1  0  0  0  0  0  0
  1 10  1  0  0  0  0
  2 15  2  0  0  0  0
  3  9  1  0  0  0  0
  4  8  2  0  0  0  0
  5  1  2  0  0  0  0
  5  4  1  0  0  0  0
  6  7  1  0  0  0  0
  8  6  1  0  0  0  0
  9 11  2  0  0  0  0
 10  9  1  0  0  0  0
 10  6  2  0  0  0  0
 12  2  1  0  0  0  0
 13 14  2  0  0  0  0
 13 12  1  0  0  0  0
 14 16  1  0  0  0  0
 15  3  1  0  0  0  0
 16 17  2  0  0  0  0
 17 15  1  0  0  0  0
 17  1  1  0  0  0  0
 18 13  1  0  0  0  0
 19 18  2  0  0  0  0
 20 18  1  0  0  0  0
 21  4  1  0  0  0  0
 22 26  2  0  0  0  0
 22 31  1  0  0  0  0
 24 29  1  0  0  0  0
 25 24  2  0  0  0  0
 25 26  1  0  0  0  0
 26 28  1  0  0  0  0
 28 27  1  0  0  0  0
 28 23  2  0  0  0  0
 29 27  2  0  0  0  0
 30 23  1  0  0  0  0
 30 21  1  0  0  0  0
 31 30  2  0  0  0  0
 32 34  1  6  0  0  0
 32 24  1  0  0  0  0
 33 32  1  0  0  0  0
M  END
>  <MODEL>
6

>  <REMARK>
 VINA RESULT:     -10.9      3.957      7.963
  Name = 
  4 active torsions:
  status: ('A' for Active; 'I' for Inactive)
    1  A    between atoms: C_3  and  C_25
    2  A    between atoms: C_7  and  C_11
    3  A    between atoms: C_8  and  O_18
    4  A    between atoms: O_18  and  C_30
                            x       y       z     vdW  Elec       q    Type
                         _______ _______ _______ _____ _____    ______ ____

>  <TORSDO>
F 4

$$$$
=
 OpenBabel10262423213D

 34 38  0  0  1  0  0  0  0  0999 V2000
  184.5720  178.7220  142.7520 C   0  0  0  0  0  0  0  0  0  0  0  0
  184.9630  178.7520  146.4140 C   0  0  0  0  0  3  0  0  0  0  0  0
  183.1150  178.5880  145.0900 N   0  0  0  0  0  2  0  0  0  0  0  0
  184.6550  178.9550  140.3130 C   0  0  0  0  0  0  0  0  0  0  0  0
  185.2940  178.8030  141.5460 C   0  0  0  0  0  3  0  0  0  0  0  0
  182.5080  178.9190  141.4480 C   0  0  0  0  0  0  0  0  0  0  0  0
  181.0890  178.9830  141.3310 N   0  0  0  0  0  1  0  0  0  0  0  0
  183.2640  179.0070  140.2780 C   0  0  0  0  0  3  0  0  0  0  0  0
  182.4430  178.6540  143.9160 C   0  0  0  0  0  0  0  0  0  0  0  0
  183.1520  178.7740  142.7040 C   0  0  0  0  0  0  0  0  0  0  0  0
  181.1840  178.6280  143.9410 O   0  0  0  0  0  0  0  0  0  0  0  0
  186.3730  179.0910  146.7550 C   0  0  0  0  0  2  0  0  0  0  0  0
  187.3350  178.0450  146.3160 C   0  0  0  0  0  0  0  0  0  0  0  0
  187.4430  177.7340  145.0260 C   0  0  0  0  0  3  0  0  0  0  0  0
  184.4670  178.5920  145.1820 C   0  0  0  0  0  0  0  0  0  0  0  0
  186.5490  178.1810  143.9430 C   0  0  0  0  0  3  0  0  0  0  0  0
  185.2460  178.5460  143.9890 C   0  0  0  0  0  0  0  0  0  0  0  0
  188.2800  177.4780  147.2990 C   0  0  0  0  0  0  0  0  0  0  0  0
  189.1460  176.6420  146.9270 O   0  0  0  0  0  0  0  0  0  0  0  0
  188.2430  177.8780  148.7350 C   0  0  0  0  0  1  0  0  0  0  0  0
  185.3550  179.0290  139.0970 O   0  0  0  0  0  0  0  0  0  0  0  0
  187.4510  176.5720  137.2170 C   0  0  0  0  0  3  0  0  0  0  0  0
  187.6140  178.2740  139.4360 C   0  0  0  0  0  3  0  0  0  0  0  0
  190.9060  175.8990  138.3580 C   0  0  0  0  0  0  0  0  0  0  0  0
  189.7280  175.8400  137.6060 C   0  0  0  0  0  3  0  0  0  0  0  0
  188.6290  176.6290  137.9620 C   0  0  0  0  0  0  0  0  0  0  0  0
  189.8910  177.5440  139.8290 C   0  0  0  0  0  3  0  0  0  0  0  0
  188.7120  177.4870  139.0810 C   0  0  0  0  0  0  0  0  0  0  0  0
  190.9860  176.7520  139.4680 C   0  0  0  0  0  3  0  0  0  0  0  0
  186.4320  178.2250  138.6870 C   0  0  0  0  0  0  0  0  0  0  0  0
  186.3580  177.3630  137.5800 C   0  0  0  0  0  3  0  0  0  0  0  0
  192.0710  175.0560  137.9620 C   0  0  2  0  0  3  0  0  0  0  0  0
  192.8460  175.7170  137.0270 F   0  0  0  0  0  0  0  0  0  0  0  0
  191.6270  173.8430  137.4320 O   0  0  0  0  0  1  0  0  0  0  0  0
  1 17  1  0  0  0  0
  2 12  1  0  0  0  0
  3 15  1  0  0  0  0
  4  5  1  0  0  0  0
  5  1  2  0  0  0  0
  6 10  2  0  0  0  0
  7  6  1  0  0  0  0
  8  4  2  0  0  0  0
  8  6  1  0  0  0  0
  9 11  2  0  0  0  0
  9  3  1  0  0  0  0
 10  1  1  0  0  0  0
 10  9  1  0  0  0  0
 13 12  1  0  0  0  0
 13 18  1  0  0  0  0
 14 13  2  0  0  0  0
 15  2  2  0  0  0  0
 16 17  2  0  0  0  0
 16 14  1  0  0  0  0
 17 15  1  0  0  0  0
 18 20  1  0  0  0  0
 19 18  2  0  0  0  0
 21  4  1  0  0  0  0
 22 31  2  0  0  0  0
 22 26  1  0  0  0  0
 24 29  1  0  0  0  0
 25 26  1  0  0  0  0
 25 24  2  0  0  0  0
 26 28  2  0  0  0  0
 28 23  1  0  0  0  0
 28 27  1  0  0  0  0
 29 27  2  0  0  0  0
 30 21  1  0  0  0  0
 30 23  2  0  0  0  0
 31 30  1  0  0  0  0
 32 33  1  6  0  0  0
 32 24  1  0  0  0  0
 34 32  1  0  0  0  0
M  END
>  <MODEL>
7

>  <REMARK>
 VINA RESULT:     -10.8      2.606      6.983
  Name = 
  4 active torsions:
  status: ('A' for Active; 'I' for Inactive)
    1  A    between atoms: C_3  and  C_25
    2  A    between atoms: C_7  and  C_11
    3  A    between atoms: C_8  and  O_18
    4  A    between atoms: O_18  and  C_30
                            x       y       z     vdW  Elec       q    Type
                         _______ _______ _______ _____ _____    ______ ____

>  <TORSDO>
F 4

$$$$
=
 OpenBabel10262423213D

 34 38  0  0  1  0  0  0  0  0999 V2000
  187.3470  178.1190  140.6690 C   0  0  0  0  0  0  0  0  0  0  0  0
  189.4550  177.0320  137.8510 C   0  0  0  0  0  3  0  0  0  0  0  0
  187.4820  178.1710  137.9150 N   0  0  0  0  0  2  0  0  0  0  0  0
  186.0900  178.4920  142.7400 C   0  0  0  0  0  0  0  0  0  0  0  0
  187.2500  178.0910  142.0740 C   0  0  0  0  0  3  0  0  0  0  0  0
  185.0650  179.0060  140.6000 C   0  0  0  0  0  0  0  0  0  0  0  0
  183.9170  179.4840  139.9030 N   0  0  0  0  0  1  0  0  0  0  0  0
  185.0080  178.9510  141.9920 C   0  0  0  0  0  3  0  0  0  0  0  0
  186.3640  178.6470  138.5140 C   0  0  0  0  0  0  0  0  0  0  0  0
  186.2380  178.5900  139.9160 C   0  0  0  0  0  0  0  0  0  0  0  0
  185.4450  179.1140  137.7890 O   0  0  0  0  0  0  0  0  0  0  0  0
  190.5330  176.1380  138.3600 C   0  0  0  0  0  2  0  0  0  0  0  0
  191.4900  176.8450  139.2510 C   0  0  0  0  0  0  0  0  0  0  0  0
  191.0620  177.4110  140.3780 C   0  0  0  0  0  3  0  0  0  0  0  0
  188.5380  177.6620  138.5950 C   0  0  0  0  0  0  0  0  0  0  0  0
  189.6570  177.6000  140.7810 C   0  0  0  0  0  3  0  0  0  0  0  0
  188.5460  177.7250  140.0180 C   0  0  0  0  0  0  0  0  0  0  0  0
  192.9350  176.7710  138.9590 C   0  0  0  0  0  0  0  0  0  0  0  0
  193.7730  177.0920  139.8440 O   0  0  0  0  0  0  0  0  0  0  0  0
  193.4390  176.3130  137.6310 C   0  0  0  0  0  1  0  0  0  0  0  0
  185.9750  178.4810  144.1400 O   0  0  0  0  0  0  0  0  0  0  0  0
  187.7740  177.8080  147.3470 C   0  0  0  0  0  3  0  0  0  0  0  0
  188.1930  177.6600  144.5800 C   0  0  0  0  0  3  0  0  0  0  0  0
  191.2470  176.5370  147.2360 C   0  0  0  0  0  0  0  0  0  0  0  0
  190.0190  176.9840  147.7350 C   0  0  0  0  0  3  0  0  0  0  0  0
  189.0000  177.3590  146.8540 C   0  0  0  0  0  0  0  0  0  0  0  0
  190.4390  176.8360  144.9650 C   0  0  0  0  0  3  0  0  0  0  0  0
  189.2110  177.2840  145.4590 C   0  0  0  0  0  0  0  0  0  0  0  0
  191.4540  176.4630  145.8510 C   0  0  0  0  0  3  0  0  0  0  0  0
  186.9590  178.1050  145.0700 C   0  0  0  0  0  0  0  0  0  0  0  0
  186.7610  178.1810  146.4590 C   0  0  0  0  0  3  0  0  0  0  0  0
  192.3220  176.1340  148.1890 C   0  0  2  0  0  3  0  0  0  0  0  0
  192.8110  177.2420  148.8570 F   0  0  0  0  0  0  0  0  0  0  0  0
  193.3590  175.5030  147.5010 O   0  0  0  0  0  1  0  0  0  0  0  0
  1  5  1  0  0  0  0
  2 12  1  0  0  0  0
  2 15  2  0  0  0  0
  3  9  1  0  0  0  0
  3 15  1  0  0  0  0
  4 21  1  0  0  0  0
  5  4  2  0  0  0  0
  6  8  2  0  0  0  0
  7  6  1  0  0  0  0
  8  4  1  0  0  0  0
  9 10  1  0  0  0  0
 10  6  1  0  0  0  0
 10  1  2  0  0  0  0
 11  9  2  0  0  0  0
 12 13  1  0  0  0  0
 13 14  2  0  0  0  0
 14 16  1  0  0  0  0
 15 17  1  0  0  0  0
 17  1  1  0  0  0  0
 17 16  2  0  0  0  0
 18 13  1  0  0  0  0
 18 19  2  0  0  0  0
 20 18  1  0  0  0  0
 21 30  1  0  0  0  0
 23 30  2  0  0  0  0
 23 28  1  0  0  0  0
 24 25  1  0  0  0  0
 24 32  1  0  0  0  0
 26 22  1  0  0  0  0
 26 25  2  0  0  0  0
 27 28  2  0  0  0  0
 27 29  1  0  0  0  0
 28 26  1  0  0  0  0
 29 24  2  0  0  0  0
 30 31  1  0  0  0  0
 31 22  2  0  0  0  0
 32 34  1  6  0  0  0
 32 33  1  0  0  0  0
M  END
>  <MODEL>
8

>  <REMARK>
 VINA RESULT:     -10.6      2.071      3.158
  Name = 
  4 active torsions:
  status: ('A' for Active; 'I' for Inactive)
    1  A    between atoms: C_3  and  C_25
    2  A    between atoms: C_7  and  C_11
    3  A    between atoms: C_8  and  O_18
    4  A    between atoms: O_18  and  C_30
                            x       y       z     vdW  Elec       q    Type
                         _______ _______ _______ _____ _____    ______ ____

>  <TORSDO>
F 4

$$$$
=
 OpenBabel10262423213D

 34 38  0  0  1  0  0  0  0  0999 V2000
  186.1280  178.0340  144.2580 C   0  0  0  0  0  0  0  0  0  0  0  0
  182.5030  178.6910  144.2440 C   0  0  0  0  0  3  0  0  0  0  0  0
  184.0860  178.9670  145.8610 N   0  0  0  0  0  2  0  0  0  0  0  0
  188.4460  177.2820  143.9950 C   0  0  0  0  0  0  0  0  0  0  0  0
  187.1830  177.5480  143.4610 C   0  0  0  0  0  3  0  0  0  0  0  0
  187.6570  178.0180  146.1700 C   0  0  0  0  0  0  0  0  0  0  0  0
  187.9620  178.2390  147.5450 N   0  0  0  0  0  1  0  0  0  0  0  0
  188.6700  177.5260  145.3480 C   0  0  0  0  0  3  0  0  0  0  0  0
  185.3130  178.8030  146.4110 C   0  0  0  0  0  0  0  0  0  0  0  0
  186.3680  178.2810  145.6360 C   0  0  0  0  0  0  0  0  0  0  0  0
  185.4740  179.1050  147.6230 O   0  0  0  0  0  0  0  0  0  0  0  0
  181.9080  178.1350  142.9970 C   0  0  0  0  0  2  0  0  0  0  0  0
  182.3870  178.8320  141.7740 C   0  0  0  0  0  0  0  0  0  0  0  0
  183.6830  178.8340  141.4690 C   0  0  0  0  0  3  0  0  0  0  0  0
  183.8020  178.6910  144.5640 C   0  0  0  0  0  0  0  0  0  0  0  0
  184.7830  178.3740  142.3340 C   0  0  0  0  0  3  0  0  0  0  0  0
  184.8590  178.3160  143.6850 C   0  0  0  0  0  0  0  0  0  0  0  0
  181.3980  179.3750  140.8210 C   0  0  0  0  0  0  0  0  0  0  0  0
  181.6270  179.3280  139.5830 O   0  0  0  0  0  0  0  0  0  0  0  0
  180.1160  179.9780  141.2880 C   0  0  0  0  0  1  0  0  0  0  0  0
  189.5150  176.8050  143.2180 O   0  0  0  0  0  0  0  0  0  0  0  0
  191.0320  176.8780  139.8030 C   0  0  0  0  0  3  0  0  0  0  0  0
  188.5740  177.3340  141.0680 C   0  0  0  0  0  3  0  0  0  0  0  0
  188.9240  177.8170  136.9100 C   0  0  0  0  0  0  0  0  0  0  0  0
  190.0360  177.4260  137.6630 C   0  0  0  0  0  3  0  0  0  0  0  0
  189.9240  177.2650  139.0470 C   0  0  0  0  0  0  0  0  0  0  0  0
  187.5750  177.8840  138.9290 C   0  0  0  0  0  3  0  0  0  0  0  0
  188.6840  177.4950  139.6850 C   0  0  0  0  0  0  0  0  0  0  0  0
  187.6940  178.0430  137.5450 C   0  0  0  0  0  3  0  0  0  0  0  0
  189.6810  176.9400  141.8290 C   0  0  0  0  0  0  0  0  0  0  0  0
  190.9100  176.7190  141.1860 C   0  0  0  0  0  3  0  0  0  0  0  0
  189.0580  177.9780  135.4330 C   0  0  2  0  0  3  0  0  0  0  0  0
  187.8190  177.8940  134.8260 F   0  0  0  0  0  0  0  0  0  0  0  0
  189.9030  176.9930  134.9190 O   0  0  0  0  0  1  0  0  0  0  0  0
  1 10  1  0  0  0  0
  2 15  2  0  0  0  0
  3  9  1  0  0  0  0
  4  8  2  0  0  0  0
  5  4  1  0  0  0  0
  5  1  2  0  0  0  0
  6  7  1  0  0  0  0
  8  6  1  0  0  0  0
  9 11  2  0  0  0  0
 10  6  2  0  0  0  0
 10  9  1  0  0  0  0
 12  2  1  0  0  0  0
 13 12  1  0  0  0  0
 14 13  2  0  0  0  0
 14 16  1  0  0  0  0
 15  3  1  0  0  0  0
 16 17  2  0  0  0  0
 17  1  1  0  0  0  0
 17 15  1  0  0  0  0
 18 20  1  0  0  0  0
 18 13  1  0  0  0  0
 19 18  2  0  0  0  0
 21  4  1  0  0  0  0
 22 31  1  0  0  0  0
 23 30  1  0  0  0  0
 24 29  1  0  0  0  0
 24 25  2  0  0  0  0
 25 26  1  0  0  0  0
 26 28  1  0  0  0  0
 26 22  2  0  0  0  0
 27 28  1  0  0  0  0
 28 23  2  0  0  0  0
 29 27  2  0  0  0  0
 30 21  1  0  0  0  0
 31 30  2  0  0  0  0
 32 33  1  6  0  0  0
 32 24  1  0  0  0  0
 34 32  1  0  0  0  0
M  END
>  <MODEL>
9

>  <REMARK>
 VINA RESULT:     -10.2      3.327      7.518
  Name = 
  4 active torsions:
  status: ('A' for Active; 'I' for Inactive)
    1  A    between atoms: C_3  and  C_25
    2  A    between atoms: C_7  and  C_11
    3  A    between atoms: C_8  and  O_18
    4  A    between atoms: O_18  and  C_30
                            x       y       z     vdW  Elec       q    Type
                         _______ _______ _______ _____ _____    ______ ____

>  <TORSDO>
F 4

$$$$
