=
 OpenBabel10262419243D

 31 34  0  0  1  0  0  0  0  0999 V2000
  184.5590  176.1910  137.3560 C   0  0  2  0  0  3  0  0  0  0  0  0
  183.0290  178.2000  139.6240 C   0  0  2  0  0  3  0  0  0  0  0  0
  182.3030  180.3120  138.8550 C   0  0  0  0  0  1  0  0  0  0  0  0
  181.8980  178.9240  139.0140 N   0  0  0  0  0  0  0  0  0  0  0  0
  183.0780  176.7120  139.2080 C   0  0  1  0  0  3  0  0  0  0  0  0
  181.8950  175.9190  139.7470 C   0  0  0  0  0  1  0  0  0  0  0  0
  183.1700  176.5210  137.7420 N   0  0  0  0  0  0  0  0  0  0  0  0
  181.5690  178.4270  137.6690 C   0  0  0  0  0  2  0  0  0  0  0  0
  182.7560  177.7270  136.9990 C   0  0  0  0  0  2  0  0  0  0  0  0
  184.3090  178.4090  143.2090 C   0  0  0  0  0  0  0  0  0  0  0  0
  181.9510  178.9570  143.1810 C   0  0  0  0  0  3  0  0  0  0  0  0
  185.8050  178.1930  144.0920 Cl  0  0  0  0  0  0  0  0  0  0  0  0
  184.2800  178.2120  141.8260 C   0  0  0  0  0  3  0  0  0  0  0  0
  181.9210  178.7600  141.7980 C   0  0  0  0  0  3  0  0  0  0  0  0
  183.0830  178.3820  141.1150 C   0  0  0  0  0  0  0  0  0  0  0  0
  183.1440  178.7800  143.8870 C   0  0  0  0  0  3  0  0  0  0  0  0
  185.2690  177.3170  136.5620 C   0  0  2  0  0  3  0  0  0  0  0  0
  186.9400  176.8820  134.7660 C   0  0  0  0  0  3  0  0  0  0  0  0
  185.6830  176.8110  135.2060 C   0  0  0  0  0  3  0  0  0  0  0  0
  186.1850  178.5850  138.3910 O   0  0  0  0  0  0  0  0  0  0  0  0
  187.9990  177.4800  135.5950 C   0  0  0  0  0  0  0  0  0  0  0  0
  189.3950  177.5100  135.0850 C   0  0  0  0  0  1  0  0  0  0  0  0
  186.4020  177.9990  137.2990 C   0  0  0  0  0  0  0  0  0  0  0  0
  187.7280  177.9960  136.7550 N   0  0  0  0  0  0  0  0  0  0  0  0
  184.6030  172.7350  137.6750 O   0  0  0  0  0  0  0  0  0  0  0  0
  184.6920  174.8140  136.6610 C   0  0  1  0  0  3  0  0  0  0  0  0
  183.3790  172.9580  137.1000 N   0  0  0  0  0  0  0  0  0  0  0  0
  185.5110  173.8060  137.4720 C   0  0  0  0  0  2  0  0  0  0  0  0
  183.3810  174.1120  136.5320 C   0  0  0  0  0  0  0  0  0  0  0  0
  180.9200  174.1150  136.3480 C   0  0  0  0  0  1  0  0  0  0  0  0
  182.2170  174.6340  135.7590 C   0  0  0  0  0  2  0  0  0  0  0  0
  1  7  1  6  0  0  0
  2 15  1  1  0  0  0
  3  4  1  0  0  0  0
  4  2  1  0  0  0  0
  5  2  1  0  0  0  0
  5  6  1  6  0  0  0
  7  5  1  0  0  0  0
  8  4  1  0  0  0  0
  9  8  1  0  0  0  0
  9  7  1  0  0  0  0
 10 16  1  0  0  0  0
 10 12  1  0  0  0  0
 11 16  2  0  0  0  0
 13 10  2  0  0  0  0
 14 11  1  0  0  0  0
 15 14  2  0  0  0  0
 15 13  1  0  0  0  0
 17 23  1  0  0  0  0
 17  1  1  1  0  0  0
 18 19  2  0  0  0  0
 18 21  1  0  0  0  0
 19 17  1  0  0  0  0
 21 24  2  0  0  0  0
 22 21  1  0  0  0  0
 23 20  2  0  0  0  0
 24 23  1  0  0  0  0
 26  1  1  1  0  0  0
 26 28  1  0  0  0  0
 27 25  1  0  0  0  0
 28 25  1  0  0  0  0
 29 26  1  0  0  0  0
 29 27  2  0  0  0  0
 31 30  1  0  0  0  0
 31 29  1  0  0  0  0
M  END
>  <MODEL>
1

>  <REMARK>
 VINA RESULT:      -6.3      0.000      0.000
  Name = 
  5 active torsions:
  status: ('A' for Active; 'I' for Inactive)
    1  A    between atoms: C_3  and  C_22
    2  A    between atoms: C_4  and  C_5
    3  A    between atoms: C_4  and  C_12
    4  A    between atoms: C_4  and  N_21
    5  A    between atoms: C_27  and  C_28
                            x       y       z     vdW  Elec       q    Type
                         _______ _______ _______ _____ _____    ______ ____

>  <TORSDO>
F 5

$$$$
=
 OpenBabel10262419243D

 31 34  0  0  1  0  0  0  0  0999 V2000
  181.2790  178.8430  137.7560 C   0  0  2  0  0  3  0  0  0  0  0  0
  181.9950  178.7290  141.0720 C   0  0  2  0  0  3  0  0  0  0  0  0
  180.4090  179.6890  142.5360 C   0  0  0  0  0  1  0  0  0  0  0  0
  180.7840  178.4530  141.8670 N   0  0  0  0  0  0  0  0  0  0  0  0
  182.0950  177.8400  139.8110 C   0  0  1  0  0  3  0  0  0  0  0  0
  182.2960  176.3700  140.1510 C   0  0  0  0  0  1  0  0  0  0  0  0
  180.9320  177.9810  138.9060 N   0  0  0  0  0  0  0  0  0  0  0  0
  179.6370  178.0630  141.0320 C   0  0  0  0  0  2  0  0  0  0  0  0
  179.7650  178.5700  139.5920 C   0  0  0  0  0  2  0  0  0  0  0  0
  184.3600  178.6210  144.0600 C   0  0  0  0  0  0  0  0  0  0  0  0
  185.6630  178.5550  142.0210 C   0  0  0  0  0  3  0  0  0  0  0  0
  184.2790  178.6210  145.8090 Cl  0  0  0  0  0  0  0  0  0  0  0  0
  183.1840  178.6830  143.3070 C   0  0  0  0  0  3  0  0  0  0  0  0
  184.4880  178.6170  141.2670 C   0  0  0  0  0  3  0  0  0  0  0  0
  183.2450  178.6870  141.9060 C   0  0  0  0  0  0  0  0  0  0  0  0
  185.6000  178.5580  143.4180 C   0  0  0  0  0  3  0  0  0  0  0  0
  180.2910  180.0170  137.5360 C   0  0  2  0  0  3  0  0  0  0  0  0
  180.0470  181.2130  135.3650 C   0  0  0  0  0  3  0  0  0  0  0  0
  179.9020  180.0990  136.0840 C   0  0  0  0  0  3  0  0  0  0  0  0
  180.9890  181.4720  139.3210 O   0  0  0  0  0  0  0  0  0  0  0  0
  180.5920  182.4390  135.9690 C   0  0  0  0  0  0  0  0  0  0  0  0
  180.7710  183.6500  135.1260 C   0  0  0  0  0  1  0  0  0  0  0  0
  180.7490  181.3480  138.0920 C   0  0  0  0  0  0  0  0  0  0  0  0
  180.9020  182.4820  137.2290 N   0  0  0  0  0  0  0  0  0  0  0  0
  182.9360  176.2200  136.2000 O   0  0  0  0  0  0  0  0  0  0  0  0
  181.5430  178.0510  136.4520 C   0  0  1  0  0  3  0  0  0  0  0  0
  181.6530  175.7440  136.2840 N   0  0  0  0  0  0  0  0  0  0  0  0
  183.0070  177.6340  136.2850 C   0  0  0  0  0  2  0  0  0  0  0  0
  180.8440  176.7320  136.4370 C   0  0  0  0  0  0  0  0  0  0  0  0
  179.0080  175.3740  137.3750 C   0  0  0  0  0  1  0  0  0  0  0  0
  179.3630  176.5600  136.5000 C   0  0  0  0  0  2  0  0  0  0  0  0
  1  7  1  1  0  0  0
  2  4  1  0  0  0  0
  2 15  1  1  0  0  0
  4  3  1  0  0  0  0
  5  6  1  1  0  0  0
  5  2  1  0  0  0  0
  7  9  1  0  0  0  0
  7  5  1  0  0  0  0
  8  4  1  0  0  0  0
  9  8  1  0  0  0  0
 10 12  1  0  0  0  0
 11 16  2  0  0  0  0
 13 10  2  0  0  0  0
 14 15  2  0  0  0  0
 14 11  1  0  0  0  0
 15 13  1  0  0  0  0
 16 10  1  0  0  0  0
 17  1  1  6  0  0  0
 17 23  1  0  0  0  0
 18 21  1  0  0  0  0
 18 19  2  0  0  0  0
 19 17  1  0  0  0  0
 21 24  2  0  0  0  0
 22 21  1  0  0  0  0
 23 20  2  0  0  0  0
 24 23  1  0  0  0  0
 25 27  1  0  0  0  0
 25 28  1  0  0  0  0
 26  1  1  1  0  0  0
 27 29  2  0  0  0  0
 28 26  1  0  0  0  0
 29 26  1  0  0  0  0
 29 31  1  0  0  0  0
 31 30  1  0  0  0  0
M  END
>  <MODEL>
2

>  <REMARK>
 VINA RESULT:      -5.6      3.080      4.810
  Name = 
  5 active torsions:
  status: ('A' for Active; 'I' for Inactive)
    1  A    between atoms: C_3  and  C_22
    2  A    between atoms: C_4  and  C_5
    3  A    between atoms: C_4  and  C_12
    4  A    between atoms: C_4  and  N_21
    5  A    between atoms: C_27  and  C_28
                            x       y       z     vdW  Elec       q    Type
                         _______ _______ _______ _____ _____    ______ ____

>  <TORSDO>
F 5

$$$$
=
 OpenBabel10262419243D

 31 34  0  0  1  0  0  0  0  0999 V2000
  185.6320  177.1920  137.7940 C   0  0  2  0  0  3  0  0  0  0  0  0
  183.7320  178.1010  140.4560 C   0  0  2  0  0  3  0  0  0  0  0  0
  184.7200  177.8890  142.5900 C   0  0  0  0  0  1  0  0  0  0  0  0
  184.5410  178.8000  141.4710 N   0  0  0  0  0  0  0  0  0  0  0  0
  184.0480  178.5680  139.0160 C   0  0  1  0  0  3  0  0  0  0  0  0
  183.6410  180.0140  138.7710 C   0  0  0  0  0  1  0  0  0  0  0  0
  185.4710  178.3890  138.6460 N   0  0  0  0  0  0  0  0  0  0  0  0
  185.8880  179.1380  140.9840 C   0  0  0  0  0  2  0  0  0  0  0  0
  186.3360  178.2330  139.8320 C   0  0  0  0  0  2  0  0  0  0  0  0
  180.3650  179.1440  141.9080 C   0  0  0  0  0  0  0  0  0  0  0  0
  180.0260  177.2930  140.3850 C   0  0  0  0  0  3  0  0  0  0  0  0
  179.7170  180.3310  143.0200 Cl  0  0  0  0  0  0  0  0  0  0  0  0
  181.7380  179.1030  141.6540 C   0  0  0  0  0  3  0  0  0  0  0  0
  181.3990  177.2510  140.1290 C   0  0  0  0  0  3  0  0  0  0  0  0
  182.2620  178.1520  140.7660 C   0  0  0  0  0  0  0  0  0  0  0  0
  179.5080  178.2380  141.2750 C   0  0  0  0  0  3  0  0  0  0  0  0
  186.9320  177.1970  136.9500 C   0  0  2  0  0  3  0  0  0  0  0  0
  188.9660  175.8950  137.5600 C   0  0  0  0  0  3  0  0  0  0  0  0
  187.6920  175.9160  137.1650 C   0  0  0  0  0  3  0  0  0  0  0  0
  187.3430  179.5660  136.8560 O   0  0  0  0  0  0  0  0  0  0  0  0
  189.7050  177.1450  137.7970 C   0  0  0  0  0  0  0  0  0  0  0  0
  191.1130  177.0810  138.2700 C   0  0  0  0  0  1  0  0  0  0  0  0
  187.8000  178.4250  137.1240 C   0  0  0  0  0  0  0  0  0  0  0  0
  189.1520  178.3000  137.5830 N   0  0  0  0  0  0  0  0  0  0  0  0
  184.3520  176.1900  134.7260 O   0  0  0  0  0  0  0  0  0  0  0  0
  184.3810  176.8750  136.9370 C   0  0  1  0  0  3  0  0  0  0  0  0
  184.1630  175.0730  135.4990 N   0  0  0  0  0  0  0  0  0  0  0  0
  184.4960  177.3740  135.4950 C   0  0  0  0  0  2  0  0  0  0  0  0
  184.1840  175.4080  136.7410 C   0  0  0  0  0  0  0  0  0  0  0  0
  184.9240  173.2790  137.7470 C   0  0  0  0  0  1  0  0  0  0  0  0
  183.9450  174.4330  137.8440 C   0  0  0  0  0  2  0  0  0  0  0  0
  1  7  1  6  0  0  0
  2 15  1  1  0  0  0
  2  4  1  0  0  0  0
  4  3  1  0  0  0  0
  5  6  1  1  0  0  0
  5  2  1  0  0  0  0
  7  5  1  0  0  0  0
  7  9  1  0  0  0  0
  8  4  1  0  0  0  0
  9  8  1  0  0  0  0
 10 12  1  0  0  0  0
 11 16  1  0  0  0  0
 13 10  1  0  0  0  0
 14 11  2  0  0  0  0
 14 15  1  0  0  0  0
 15 13  2  0  0  0  0
 16 10  2  0  0  0  0
 17 23  1  0  0  0  0
 17 19  1  0  0  0  0
 17  1  1  1  0  0  0
 18 21  1  0  0  0  0
 19 18  2  0  0  0  0
 20 23  2  0  0  0  0
 21 22  1  0  0  0  0
 23 24  1  0  0  0  0
 24 21  2  0  0  0  0
 25 28  1  0  0  0  0
 25 27  1  0  0  0  0
 26  1  1  1  0  0  0
 27 29  2  0  0  0  0
 28 26  1  0  0  0  0
 29 26  1  0  0  0  0
 29 31  1  0  0  0  0
 30 31  1  0  0  0  0
M  END
>  <MODEL>
3

>  <REMARK>
 VINA RESULT:      -5.5      2.396      3.460
  Name = 
  5 active torsions:
  status: ('A' for Active; 'I' for Inactive)
    1  A    between atoms: C_3  and  C_22
    2  A    between atoms: C_4  and  C_5
    3  A    between atoms: C_4  and  C_12
    4  A    between atoms: C_4  and  N_21
    5  A    between atoms: C_27  and  C_28
                            x       y       z     vdW  Elec       q    Type
                         _______ _______ _______ _____ _____    ______ ____

>  <TORSDO>
F 5

$$$$
=
 OpenBabel10262419243D

 31 34  0  0  1  0  0  0  0  0999 V2000
  189.0730  175.6250  137.6250 C   0  0  2  0  0  3  0  0  0  0  0  0
  188.8790  177.1270  140.6630 C   0  0  2  0  0  3  0  0  0  0  0  0
  190.5500  176.5650  142.2350 C   0  0  0  0  0  1  0  0  0  0  0  0
  190.2190  177.4890  141.1620 N   0  0  0  0  0  0  0  0  0  0  0  0
  188.6900  177.4620  139.1660 C   0  0  1  0  0  3  0  0  0  0  0  0
  188.7060  178.9610  138.9000 C   0  0  0  0  0  1  0  0  0  0  0  0
  189.6820  176.7970  138.2910 N   0  0  0  0  0  0  0  0  0  0  0  0
  191.2640  177.3350  140.1370 C   0  0  0  0  0  2  0  0  0  0  0  0
  190.8650  176.3380  139.0440 C   0  0  0  0  0  2  0  0  0  0  0  0
  186.6470  177.8900  143.6580 C   0  0  0  0  0  0  0  0  0  0  0  0
  185.8660  179.1590  141.7490 C   0  0  0  0  0  3  0  0  0  0  0  0
  186.5010  177.4450  145.3440 Cl  0  0  0  0  0  0  0  0  0  0  0  0
  187.6630  177.3370  142.8750 C   0  0  0  0  0  3  0  0  0  0  0  0
  186.8820  178.6060  140.9650 C   0  0  0  0  0  3  0  0  0  0  0  0
  187.7810  177.6890  141.5220 C   0  0  0  0  0  0  0  0  0  0  0  0
  185.7470  178.8010  143.0950 C   0  0  0  0  0  3  0  0  0  0  0  0
  189.9000  175.0890  136.4290 C   0  0  2  0  0  3  0  0  0  0  0  0
  191.9830  173.7480  136.6950 C   0  0  0  0  0  3  0  0  0  0  0  0
  190.6610  173.8560  136.8390 C   0  0  0  0  0  3  0  0  0  0  0  0
  190.2690  177.1460  135.2370 O   0  0  0  0  0  0  0  0  0  0  0  0
  192.7720  174.8430  136.1080 C   0  0  0  0  0  0  0  0  0  0  0  0
  194.2470  174.7000  135.9960 C   0  0  0  0  0  1  0  0  0  0  0  0
  190.7790  176.1170  135.7500 C   0  0  0  0  0  0  0  0  0  0  0  0
  192.1970  175.9220  135.6710 N   0  0  0  0  0  0  0  0  0  0  0  0
  186.7150  176.2200  135.1480 O   0  0  0  0  0  0  0  0  0  0  0  0
  187.5830  175.8330  137.2580 C   0  0  1  0  0  3  0  0  0  0  0  0
  186.5090  174.8950  135.4340 N   0  0  0  0  0  0  0  0  0  0  0  0
  187.3680  176.9160  136.1980 C   0  0  0  0  0  2  0  0  0  0  0  0
  186.9880  174.6330  136.5980 C   0  0  0  0  0  0  0  0  0  0  0  0
  185.4260  173.0020  137.5950 C   0  0  0  0  0  1  0  0  0  0  0  0
  186.8710  173.2900  137.2350 C   0  0  0  0  0  2  0  0  0  0  0  0
  1  7  1  6  0  0  0
  2  4  1  0  0  0  0
  2 15  1  1  0  0  0
  4  3  1  0  0  0  0
  5  6  1  1  0  0  0
  5  2  1  0  0  0  0
  7  9  1  0  0  0  0
  7  5  1  0  0  0  0
  8  4  1  0  0  0  0
  9  8  1  0  0  0  0
 10 12  1  0  0  0  0
 11 16  2  0  0  0  0
 13 10  2  0  0  0  0
 14 15  2  0  0  0  0
 14 11  1  0  0  0  0
 15 13  1  0  0  0  0
 16 10  1  0  0  0  0
 17 19  1  0  0  0  0
 17  1  1  1  0  0  0
 18 19  2  0  0  0  0
 20 23  2  0  0  0  0
 21 18  1  0  0  0  0
 22 21  1  0  0  0  0
 23 17  1  0  0  0  0
 24 23  1  0  0  0  0
 24 21  2  0  0  0  0
 25 27  1  0  0  0  0
 25 28  1  0  0  0  0
 26  1  1  6  0  0  0
 27 29  2  0  0  0  0
 28 26  1  0  0  0  0
 29 31  1  0  0  0  0
 29 26  1  0  0  0  0
 31 30  1  0  0  0  0
M  END
>  <MODEL>
4

>  <REMARK>
 VINA RESULT:      -5.3      3.671      5.664
  Name = 
  5 active torsions:
  status: ('A' for Active; 'I' for Inactive)
    1  A    between atoms: C_3  and  C_22
    2  A    between atoms: C_4  and  C_5
    3  A    between atoms: C_4  and  C_12
    4  A    between atoms: C_4  and  N_21
    5  A    between atoms: C_27  and  C_28
                            x       y       z     vdW  Elec       q    Type
                         _______ _______ _______ _____ _____    ______ ____

>  <TORSDO>
F 5

$$$$
=
 OpenBabel10262419243D

 31 34  0  0  1  0  0  0  0  0999 V2000
  188.0650  177.5020  141.4250 C   0  0  2  0  0  3  0  0  0  0  0  0
  188.3460  176.8710  138.1020 C   0  0  2  0  0  3  0  0  0  0  0  0
  187.7470  178.6200  136.6330 C   0  0  0  0  0  1  0  0  0  0  0  0
  188.8580  178.0510  137.3790 N   0  0  0  0  0  0  0  0  0  0  0  0
  189.1050  176.6060  139.4220 C   0  0  1  0  0  3  0  0  0  0  0  0
  190.5540  176.2020  139.1890 C   0  0  0  0  0  1  0  0  0  0  0  0
  189.0590  177.7510  140.3600 N   0  0  0  0  0  0  0  0  0  0  0  0
  189.3380  179.1040  138.2870 C   0  0  0  0  0  2  0  0  0  0  0  0
  188.7010  179.0100  139.6780 C   0  0  0  0  0  2  0  0  0  0  0  0
  187.0960  173.7090  136.3780 C   0  0  0  0  0  0  0  0  0  0  0  0
  189.3000  174.2480  135.5320 C   0  0  0  0  0  3  0  0  0  0  0  0
  185.6840  172.6750  136.3780 Cl  0  0  0  0  0  0  0  0  0  0  0  0
  187.1460  174.8230  137.2190 C   0  0  0  0  0  3  0  0  0  0  0  0
  189.3500  175.3630  136.3730 C   0  0  0  0  0  3  0  0  0  0  0  0
  188.2770  175.6520  137.2240 C   0  0  0  0  0  0  0  0  0  0  0  0
  188.1740  173.4200  135.5350 C   0  0  0  0  0  3  0  0  0  0  0  0
  187.0790  178.6770  141.6450 C   0  0  2  0  0  3  0  0  0  0  0  0
  185.5310  178.8190  143.5930 C   0  0  0  0  0  3  0  0  0  0  0  0
  186.7760  178.8280  143.1120 C   0  0  0  0  0  3  0  0  0  0  0  0
  185.9150  178.6270  139.5400 O   0  0  0  0  0  0  0  0  0  0  0  0
  184.3750  178.6690  142.6950 C   0  0  0  0  0  0  0  0  0  0  0  0
  183.0050  178.6280  143.2710 C   0  0  0  0  0  1  0  0  0  0  0  0
  185.8270  178.6260  140.7950 C   0  0  0  0  0  0  0  0  0  0  0  0
  184.5330  178.5900  141.4090 N   0  0  0  0  0  0  0  0  0  0  0  0
  190.2200  175.2900  143.0120 O   0  0  0  0  0  0  0  0  0  0  0  0
  188.6970  177.0130  142.7520 C   0  0  1  0  0  3  0  0  0  0  0  0
  190.9260  176.4650  143.0540 N   0  0  0  0  0  0  0  0  0  0  0  0
  188.8270  175.4900  142.8340 C   0  0  0  0  0  2  0  0  0  0  0  0
  190.1160  177.4520  142.9020 C   0  0  0  0  0  0  0  0  0  0  0  0
  191.6790  179.0370  143.9690 C   0  0  0  0  0  1  0  0  0  0  0  0
  190.5580  178.8760  142.9610 C   0  0  0  0  0  2  0  0  0  0  0  0
  1  7  1  6  0  0  0
  2 15  1  6  0  0  0
  2  5  1  0  0  0  0
  3  4  1  0  0  0  0
  4  2  1  0  0  0  0
  4  8  1  0  0  0  0
  5  6  1  6  0  0  0
  5  7  1  0  0  0  0
  8  9  1  0  0  0  0
  9  7  1  0  0  0  0
 10 13  1  0  0  0  0
 11 16  1  0  0  0  0
 11 14  2  0  0  0  0
 12 10  1  0  0  0  0
 13 15  2  0  0  0  0
 14 15  1  0  0  0  0
 16 10  2  0  0  0  0
 17  1  1  1  0  0  0
 17 19  1  0  0  0  0
 19 18  2  0  0  0  0
 20 23  2  0  0  0  0
 21 22  1  0  0  0  0
 21 18  1  0  0  0  0
 23 24  1  0  0  0  0
 23 17  1  0  0  0  0
 24 21  2  0  0  0  0
 25 27  1  0  0  0  0
 26  1  1  6  0  0  0
 26 28  1  0  0  0  0
 26 29  1  0  0  0  0
 28 25  1  0  0  0  0
 29 31  1  0  0  0  0
 29 27  2  0  0  0  0
 31 30  1  0  0  0  0
M  END
>  <MODEL>
5

>  <REMARK>
 VINA RESULT:      -5.0      4.185      8.296
  Name = 
  5 active torsions:
  status: ('A' for Active; 'I' for Inactive)
    1  A    between atoms: C_3  and  C_22
    2  A    between atoms: C_4  and  C_5
    3  A    between atoms: C_4  and  C_12
    4  A    between atoms: C_4  and  N_21
    5  A    between atoms: C_27  and  C_28
                            x       y       z     vdW  Elec       q    Type
                         _______ _______ _______ _____ _____    ______ ____

>  <TORSDO>
F 5

$$$$
=
 OpenBabel10262419243D

 31 34  0  0  1  0  0  0  0  0999 V2000
  181.6880  176.8890  139.2310 C   0  0  2  0  0  3  0  0  0  0  0  0
  184.1420  178.3290  141.0820 C   0  0  2  0  0  3  0  0  0  0  0  0
  186.1420  178.8790  139.9520 C   0  0  0  0  0  1  0  0  0  0  0  0
  184.8300  179.3880  140.3190 N   0  0  0  0  0  0  0  0  0  0  0  0
  182.6060  178.3770  140.9160 C   0  0  1  0  0  3  0  0  0  0  0  0
  181.9940  179.6270  141.5320 C   0  0  0  0  0  1  0  0  0  0  0  0
  182.1690  178.2600  139.5060 N   0  0  0  0  0  0  0  0  0  0  0  0
  184.1400  179.7160  139.0620 C   0  0  0  0  0  2  0  0  0  0  0  0
  183.2610  178.5660  138.5610 C   0  0  0  0  0  2  0  0  0  0  0  0
  186.2190  177.8700  144.2460 C   0  0  0  0  0  0  0  0  0  0  0  0
  184.0490  178.7570  144.8500 C   0  0  0  0  0  3  0  0  0  0  0  0
  187.8150  177.3200  144.7090 Cl  0  0  0  0  0  0  0  0  0  0  0  0
  185.8430  177.8650  142.9000 C   0  0  0  0  0  3  0  0  0  0  0  0
  183.6720  178.7520  143.5040 C   0  0  0  0  0  3  0  0  0  0  0  0
  184.5640  178.3010  142.5240 C   0  0  0  0  0  0  0  0  0  0  0  0
  185.3220  178.3150  145.2210 C   0  0  0  0  0  3  0  0  0  0  0  0
  182.0830  176.3580  137.8300 C   0  0  2  0  0  3  0  0  0  0  0  0
  180.4550  175.3450  136.2390 C   0  0  0  0  0  3  0  0  0  0  0  0
  180.8980  176.4140  136.9030 C   0  0  0  0  0  3  0  0  0  0  0  0
  183.8380  174.8340  138.4540 O   0  0  0  0  0  0  0  0  0  0  0  0
  181.1230  174.0410  136.3740 C   0  0  0  0  0  0  0  0  0  0  0  0
  180.5790  172.8650  135.6450 C   0  0  0  0  0  1  0  0  0  0  0  0
  182.7590  175.0040  137.8280 C   0  0  0  0  0  0  0  0  0  0  0  0
  182.1880  173.9070  137.1040 N   0  0  0  0  0  0  0  0  0  0  0  0
  179.1510  176.7430  141.5970 O   0  0  0  0  0  0  0  0  0  0  0  0
  180.1790  176.6970  139.5230 C   0  0  1  0  0  3  0  0  0  0  0  0
  178.9310  177.9610  141.0080 N   0  0  0  0  0  0  0  0  0  0  0  0
  179.9090  175.8640  140.7800 C   0  0  0  0  0  2  0  0  0  0  0  0
  179.4970  177.9830  139.8530 C   0  0  0  0  0  0  0  0  0  0  0  0
  179.1120  180.4170  139.7040 C   0  0  0  0  0  1  0  0  0  0  0  0
  179.3920  179.1460  138.9250 C   0  0  0  0  0  2  0  0  0  0  0  0
  1  7  1  6  0  0  0
  2 15  1  1  0  0  0
  3  4  1  0  0  0  0
  4  2  1  0  0  0  0
  5  2  1  0  0  0  0
  5  6  1  6  0  0  0
  7  5  1  0  0  0  0
  8  4  1  0  0  0  0
  9  8  1  0  0  0  0
  9  7  1  0  0  0  0
 10 12  1  0  0  0  0
 10 16  1  0  0  0  0
 11 16  2  0  0  0  0
 13 10  2  0  0  0  0
 14 11  1  0  0  0  0
 15 13  1  0  0  0  0
 15 14  2  0  0  0  0
 17  1  1  1  0  0  0
 18 21  1  0  0  0  0
 18 19  2  0  0  0  0
 19 17  1  0  0  0  0
 21 24  2  0  0  0  0
 22 21  1  0  0  0  0
 23 17  1  0  0  0  0
 23 20  2  0  0  0  0
 24 23  1  0  0  0  0
 26  1  1  1  0  0  0
 26 29  1  0  0  0  0
 26 28  1  0  0  0  0
 27 25  1  0  0  0  0
 28 25  1  0  0  0  0
 29 27  2  0  0  0  0
 31 30  1  0  0  0  0
 31 29  1  0  0  0  0
M  END
>  <MODEL>
6

>  <REMARK>
 VINA RESULT:      -4.8      2.756      5.059
  Name = 
  5 active torsions:
  status: ('A' for Active; 'I' for Inactive)
    1  A    between atoms: C_3  and  C_22
    2  A    between atoms: C_4  and  C_5
    3  A    between atoms: C_4  and  C_12
    4  A    between atoms: C_4  and  N_21
    5  A    between atoms: C_27  and  C_28
                            x       y       z     vdW  Elec       q    Type
                         _______ _______ _______ _____ _____    ______ ____

>  <TORSDO>
F 5

$$$$
=
 OpenBabel10262419243D

 31 34  0  0  1  0  0  0  0  0999 V2000
  182.1100  177.9310  140.5640 C   0  0  2  0  0  3  0  0  0  0  0  0
  181.0830  175.2600  138.7390 C   0  0  2  0  0  3  0  0  0  0  0  0
  179.6720  173.7090  139.8250 C   0  0  0  0  0  1  0  0  0  0  0  0
  179.6760  174.9270  139.0310 N   0  0  0  0  0  0  0  0  0  0  0  0
  181.3150  176.7800  138.5800 C   0  0  1  0  0  3  0  0  0  0  0  0
  180.6170  177.3500  137.3530 C   0  0  0  0  0  1  0  0  0  0  0  0
  180.9170  177.5580  139.7760 N   0  0  0  0  0  0  0  0  0  0  0  0
  179.0090  175.9590  139.8410 C   0  0  0  0  0  2  0  0  0  0  0  0
  180.0030  176.7980  140.6510 C   0  0  0  0  0  2  0  0  0  0  0  0
  183.4350  173.2940  136.4720 C   0  0  0  0  0  0  0  0  0  0  0  0
  181.2430  173.3800  135.4480 C   0  0  0  0  0  3  0  0  0  0  0  0
  185.1040  172.7670  136.4400 Cl  0  0  0  0  0  0  0  0  0  0  0  0
  182.9610  174.0450  137.5510 C   0  0  0  0  0  3  0  0  0  0  0  0
  180.7680  174.1310  136.5260 C   0  0  0  0  0  3  0  0  0  0  0  0
  181.6250  174.4720  137.5790 C   0  0  0  0  0  0  0  0  0  0  0  0
  182.5770  172.9620  135.4200 C   0  0  0  0  0  3  0  0  0  0  0  0
  181.8600  179.0880  141.5650 C   0  0  2  0  0  3  0  0  0  0  0  0
  181.2450  178.7260  143.9520 C   0  0  0  0  0  3  0  0  0  0  0  0
  182.1420  178.6260  142.9700 C   0  0  0  0  0  3  0  0  0  0  0  0
  180.1820  180.3150  140.3520 O   0  0  0  0  0  0  0  0  0  0  0  0
  179.9180  179.3140  143.7070 C   0  0  0  0  0  0  0  0  0  0  0  0
  178.9320  179.3760  144.8180 C   0  0  0  0  0  1  0  0  0  0  0  0
  180.5110  179.7630  141.4340 C   0  0  0  0  0  0  0  0  0  0  0  0
  179.6030  179.7920  142.5420 N   0  0  0  0  0  0  0  0  0  0  0  0
  184.2540  180.2190  139.0740 O   0  0  0  0  0  0  0  0  0  0  0  0
  183.3700  178.1720  139.6960 C   0  0  1  0  0  3  0  0  0  0  0  0
  185.0070  179.7540  140.1200 N   0  0  0  0  0  0  0  0  0  0  0  0
  183.2090  179.3310  138.7090 C   0  0  0  0  0  2  0  0  0  0  0  0
  184.5410  178.6190  140.5070 C   0  0  0  0  0  0  0  0  0  0  0  0
  185.7480  178.7250  142.6570 C   0  0  0  0  0  1  0  0  0  0  0  0
  185.1750  177.8130  141.5900 C   0  0  0  0  0  2  0  0  0  0  0  0
  1  7  1  6  0  0  0
  2 15  1  6  0  0  0
  2  4  1  0  0  0  0
  4  3  1  0  0  0  0
  4  8  1  0  0  0  0
  5  6  1  6  0  0  0
  5  2  1  0  0  0  0
  5  7  1  0  0  0  0
  7  9  1  0  0  0  0
  8  9  1  0  0  0  0
 10 13  1  0  0  0  0
 11 14  2  0  0  0  0
 12 10  1  0  0  0  0
 13 15  2  0  0  0  0
 14 15  1  0  0  0  0
 16 11  1  0  0  0  0
 16 10  2  0  0  0  0
 17  1  1  6  0  0  0
 17 19  1  0  0  0  0
 19 18  2  0  0  0  0
 20 23  2  0  0  0  0
 21 18  1  0  0  0  0
 21 22  1  0  0  0  0
 23 17  1  0  0  0  0
 23 24  1  0  0  0  0
 24 21  2  0  0  0  0
 25 27  1  0  0  0  0
 26 29  1  0  0  0  0
 26  1  1  1  0  0  0
 27 29  2  0  0  0  0
 28 25  1  0  0  0  0
 28 26  1  0  0  0  0
 29 31  1  0  0  0  0
 31 30  1  0  0  0  0
M  END
>  <MODEL>
7

>  <REMARK>
 VINA RESULT:      -4.7      3.660      7.561
  Name = 
  5 active torsions:
  status: ('A' for Active; 'I' for Inactive)
    1  A    between atoms: C_3  and  C_22
    2  A    between atoms: C_4  and  C_5
    3  A    between atoms: C_4  and  C_12
    4  A    between atoms: C_4  and  N_21
    5  A    between atoms: C_27  and  C_28
                            x       y       z     vdW  Elec       q    Type
                         _______ _______ _______ _____ _____    ______ ____

>  <TORSDO>
F 5

$$$$
=
 OpenBabel10262419243D

 31 34  0  0  1  0  0  0  0  0999 V2000
  189.4490  175.8260  137.3010 C   0  0  2  0  0  3  0  0  0  0  0  0
  186.1320  175.6430  136.6050 C   0  0  2  0  0  3  0  0  0  0  0  0
  184.8680  177.6130  136.9240 C   0  0  0  0  0  1  0  0  0  0  0  0
  185.6580  176.8770  135.9500 N   0  0  0  0  0  0  0  0  0  0  0  0
  187.4850  175.1520  136.0420 C   0  0  1  0  0  3  0  0  0  0  0  0
  187.3810  174.6940  134.5940 C   0  0  0  0  0  1  0  0  0  0  0  0
  188.5650  176.1580  136.1630 N   0  0  0  0  0  0  0  0  0  0  0  0
  186.7630  177.7630  135.5500 C   0  0  0  0  0  2  0  0  0  0  0  0
  188.0330  177.5190  136.3700 C   0  0  0  0  0  2  0  0  0  0  0  0
  182.9800  173.6430  135.8310 C   0  0  0  0  0  0  0  0  0  0  0  0
  184.3430  172.3920  137.3930 C   0  0  0  0  0  3  0  0  0  0  0  0
  181.5350  173.7810  134.8520 Cl  0  0  0  0  0  0  0  0  0  0  0  0
  183.9280  174.6700  135.8260 C   0  0  0  0  0  3  0  0  0  0  0  0
  185.2910  173.4190  137.3890 C   0  0  0  0  0  3  0  0  0  0  0  0
  185.0850  174.5640  136.6100 C   0  0  0  0  0  0  0  0  0  0  0  0
  183.1870  172.5040  136.6150 C   0  0  0  0  0  3  0  0  0  0  0  0
  189.9440  177.0670  138.0880 C   0  0  2  0  0  3  0  0  0  0  0  0
  191.9630  177.0470  139.5470 C   0  0  0  0  0  3  0  0  0  0  0  0
  191.4270  176.9680  138.3280 C   0  0  0  0  0  3  0  0  0  0  0  0
  187.9340  177.6070  139.2950 O   0  0  0  0  0  0  0  0  0  0  0  0
  191.1170  177.2500  140.7340 C   0  0  0  0  0  0  0  0  0  0  0  0
  191.7480  177.2970  142.0790 C   0  0  0  0  0  1  0  0  0  0  0  0
  189.1690  177.3700  139.3520 C   0  0  0  0  0  0  0  0  0  0  0  0
  189.8330  177.4040  140.6210 N   0  0  0  0  0  0  0  0  0  0  0  0
  190.4460  172.8850  135.7500 O   0  0  0  0  0  0  0  0  0  0  0  0
  190.6100  174.8750  136.9200 C   0  0  1  0  0  3  0  0  0  0  0  0
  190.8760  173.8400  134.8660 N   0  0  0  0  0  0  0  0  0  0  0  0
  190.2480  173.3940  137.0600 C   0  0  0  0  0  2  0  0  0  0  0  0
  190.9710  174.9690  135.4740 C   0  0  0  0  0  0  0  0  0  0  0  0
  192.9730  176.1150  134.5960 C   0  0  0  0  0  1  0  0  0  0  0  0
  191.4750  176.2050  134.8080 C   0  0  0  0  0  2  0  0  0  0  0  0
  1  7  1  6  0  0  0
  2 15  1  6  0  0  0
  4  2  1  0  0  0  0
  4  3  1  0  0  0  0
  5  6  1  6  0  0  0
  5  7  1  0  0  0  0
  5  2  1  0  0  0  0
  7  9  1  0  0  0  0
  8  4  1  0  0  0  0
  8  9  1  0  0  0  0
 10 16  1  0  0  0  0
 12 10  1  0  0  0  0
 13 10  2  0  0  0  0
 13 15  1  0  0  0  0
 14 11  1  0  0  0  0
 15 14  2  0  0  0  0
 16 11  2  0  0  0  0
 17  1  1  1  0  0  0
 17 19  1  0  0  0  0
 17 23  1  0  0  0  0
 18 21  1  0  0  0  0
 19 18  2  0  0  0  0
 20 23  2  0  0  0  0
 21 22  1  0  0  0  0
 23 24  1  0  0  0  0
 24 21  2  0  0  0  0
 25 28  1  0  0  0  0
 26 28  1  0  0  0  0
 26  1  1  6  0  0  0
 27 29  2  0  0  0  0
 27 25  1  0  0  0  0
 29 26  1  0  0  0  0
 30 31  1  0  0  0  0
 31 29  1  0  0  0  0
M  END
>  <MODEL>
8

>  <REMARK>
 VINA RESULT:      -4.6      4.194      6.959
  Name = 
  5 active torsions:
  status: ('A' for Active; 'I' for Inactive)
    1  A    between atoms: C_3  and  C_22
    2  A    between atoms: C_4  and  C_5
    3  A    between atoms: C_4  and  C_12
    4  A    between atoms: C_4  and  N_21
    5  A    between atoms: C_27  and  C_28
                            x       y       z     vdW  Elec       q    Type
                         _______ _______ _______ _____ _____    ______ ____

>  <TORSDO>
F 5

$$$$
=
 OpenBabel10262419243D

 31 34  0  0  1  0  0  0  0  0999 V2000
  184.3200  176.0390  137.3900 C   0  0  2  0  0  3  0  0  0  0  0  0
  181.6600  177.8530  138.4650 C   0  0  2  0  0  3  0  0  0  0  0  0
  180.8530  179.5240  137.0040 C   0  0  0  0  0  1  0  0  0  0  0  0
  180.7200  178.1210  137.3600 N   0  0  0  0  0  0  0  0  0  0  0  0
  182.1740  176.3950  138.4700 C   0  0  1  0  0  3  0  0  0  0  0  0
  181.0710  175.3910  138.7730 C   0  0  0  0  0  1  0  0  0  0  0  0
  182.8530  176.0140  137.2100 N   0  0  0  0  0  0  0  0  0  0  0  0
  181.0370  177.3480  136.1490 C   0  0  0  0  0  2  0  0  0  0  0  0
  182.5070  176.9210  136.0980 C   0  0  0  0  0  2  0  0  0  0  0  0
  181.4130  178.9750  142.1000 C   0  0  0  0  0  0  0  0  0  0  0  0
  179.1820  178.8110  141.1730 C   0  0  0  0  0  3  0  0  0  0  0  0
  182.4730  179.3380  143.4450 Cl  0  0  0  0  0  0  0  0  0  0  0  0
  181.9520  178.5670  140.8770 C   0  0  0  0  0  3  0  0  0  0  0  0
  179.7200  178.4010  139.9500 C   0  0  0  0  0  3  0  0  0  0  0  0
  181.1060  178.2720  139.7980 C   0  0  0  0  0  0  0  0  0  0  0  0
  180.0280  179.0960  142.2490 C   0  0  0  0  0  3  0  0  0  0  0  0
  184.9740  177.3880  136.9980 C   0  0  2  0  0  3  0  0  0  0  0  0
  187.1230  177.5570  135.7500 C   0  0  0  0  0  3  0  0  0  0  0  0
  185.8360  177.2090  135.7770 C   0  0  0  0  0  3  0  0  0  0  0  0
  185.0760  178.4320  139.1640 O   0  0  0  0  0  0  0  0  0  0  0  0
  187.7700  178.1550  136.9290 C   0  0  0  0  0  0  0  0  0  0  0  0
  189.2150  178.4980  136.8720 C   0  0  0  0  0  1  0  0  0  0  0  0
  185.6990  178.0960  138.1230 C   0  0  0  0  0  0  0  0  0  0  0  0
  187.0940  178.4020  138.0090 N   0  0  0  0  0  0  0  0  0  0  0  0
  186.4030  173.2930  137.8050 O   0  0  0  0  0  0  0  0  0  0  0  0
  185.0390  174.8310  136.7410 C   0  0  1  0  0  3  0  0  0  0  0  0
  185.1740  172.7050  137.6470 N   0  0  0  0  0  0  0  0  0  0  0  0
  186.4550  174.6100  137.2810 C   0  0  0  0  0  2  0  0  0  0  0  0
  184.3790  173.5330  137.0680 C   0  0  0  0  0  0  0  0  0  0  0  0
  182.9770  172.1440  135.5850 C   0  0  0  0  0  1  0  0  0  0  0  0
  182.9790  173.1800  136.6920 C   0  0  0  0  0  2  0  0  0  0  0  0
  1  7  1  6  0  0  0
  2  5  1  0  0  0  0
  2 15  1  1  0  0  0
  3  4  1  0  0  0  0
  4  2  1  0  0  0  0
  5  6  1  6  0  0  0
  7  5  1  0  0  0  0
  8  4  1  0  0  0  0
  9  8  1  0  0  0  0
  9  7  1  0  0  0  0
 10 16  1  0  0  0  0
 10 12  1  0  0  0  0
 11 16  2  0  0  0  0
 13 10  2  0  0  0  0
 14 11  1  0  0  0  0
 15 14  2  0  0  0  0
 15 13  1  0  0  0  0
 17  1  1  1  0  0  0
 17 23  1  0  0  0  0
 18 19  2  0  0  0  0
 18 21  1  0  0  0  0
 19 17  1  0  0  0  0
 21 24  2  0  0  0  0
 22 21  1  0  0  0  0
 23 20  2  0  0  0  0
 24 23  1  0  0  0  0
 26 29  1  0  0  0  0
 26 28  1  0  0  0  0
 26  1  1  1  0  0  0
 27 25  1  0  0  0  0
 28 25  1  0  0  0  0
 29 27  2  0  0  0  0
 30 31  1  0  0  0  0
 31 29  1  0  0  0  0
M  END
>  <MODEL>
9

>  <REMARK>
 VINA RESULT:      -4.6      1.705      2.030
  Name = 
  5 active torsions:
  status: ('A' for Active; 'I' for Inactive)
    1  A    between atoms: C_3  and  C_22
    2  A    between atoms: C_4  and  C_5
    3  A    between atoms: C_4  and  C_12
    4  A    between atoms: C_4  and  N_21
    5  A    between atoms: C_27  and  C_28
                            x       y       z     vdW  Elec       q    Type
                         _______ _______ _______ _____ _____    ______ ____

>  <TORSDO>
F 5

$$$$
