=
 OpenBabel10262419583D

 25 24  0  0  1  0  0  0  0  0999 V2000
  185.6770  178.5400  141.6120 C   0  0  1  0  0  3  0  0  0  0  0  0
  184.6590  179.9340  139.9450 O   0  0  0  0  0  0  0  0  0  0  0  0
  184.7150  178.7970  140.4910 C   0  0  0  0  0  0  0  0  0  0  0  0
  183.8600  177.7730  140.0840 O   0  0  0  0  0  0  0  0  0  0  0  0
  183.7640  177.3720  138.7260 C   0  0  0  0  0  1  0  0  0  0  0  0
  187.1480  178.7390  141.1960 C   0  0  1  0  0  3  0  0  0  0  0  0
  188.1420  178.2900  142.2720 C   0  0  0  0  0  2  0  0  0  0  0  0
  187.8960  176.8400  142.6390 C   0  0  0  0  0  1  0  0  0  0  0  0
  187.4480  178.2060  139.9190 O   0  0  0  0  0  0  0  0  0  0  0  0
  188.8030  178.4430  139.6270 C   0  0  0  0  0  2  0  0  0  0  0  0
  190.6230  176.7040  139.7300 C   0  0  0  0  0  1  0  0  0  0  0  0
  189.4170  177.2300  139.1160 N   0  0  0  0  0  0  0  0  0  0  0  0
  188.2660  175.9120  137.1850 C   0  0  0  0  0  3  0  0  0  0  0  0
  188.7990  176.5220  138.0790 C   0  0  0  0  0  0  0  0  0  0  0  0
  185.2920  179.3360  142.8620 C   0  0  0  0  0  2  0  0  0  0  0  0
  183.7230  178.7670  143.6000 S   0  0  0  0  0  0  0  0  0  0  0  0
  184.3900  178.8470  145.2860 C   0  0  0  0  0  2  0  0  0  0  0  0
  185.9060  178.7870  145.2420 C   0  0  0  0  0  2  0  0  0  0  0  0
  186.4150  177.6110  146.0570 C   0  0  0  0  0  2  0  0  0  0  0  0
  187.1780  178.1870  147.6030 S   0  0  0  0  0  0  0  0  0  0  0  0
  188.6280  177.1190  147.3780 C   0  0  0  0  0  2  0  0  0  0  0  0
  189.1800  177.3060  145.9820 C   0  0  0  0  0  2  0  0  0  0  0  0
  190.6570  176.9770  145.9780 C   0  0  0  0  0  2  0  0  0  0  0  0
  191.2940  177.5290  144.7190 C   0  0  0  0  0  2  0  0  0  0  0  0
  191.4490  176.4180  143.7040 C   0  0  0  0  0  1  0  0  0  0  0  0
  1 15  1  1  0  0  0
  2  3  2  0  0  0  0
  3  1  1  0  0  0  0
  4  3  1  0  0  0  0
  5  4  1  0  0  0  0
  6  1  1  0  0  0  0
  6  7  1  1  0  0  0
  7  8  1  0  0  0  0
  9  6  1  0  0  0  0
 10  9  1  0  0  0  0
 12 10  1  0  0  0  0
 12 11  1  0  0  0  0
 13 14  3  0  0  0  0
 14 12  1  0  0  0  0
 15 16  1  0  0  0  0
 16 17  1  0  0  0  0
 18 17  1  0  0  0  0
 18 19  1  0  0  0  0
 19 20  1  0  0  0  0
 21 20  1  0  0  0  0
 22 21  1  0  0  0  0
 23 22  1  0  0  0  0
 24 23  1  0  0  0  0
 25 24  1  0  0  0  0
M  END
>  <MODEL>
1

>  <REMARK>
 VINA RESULT:      -4.9      0.000      0.000
  Name = 
  18 active torsions:
  status: ('A' for Active; 'I' for Inactive)
    1  A    between atoms: C_1  and  C_3
    2  A    between atoms: C_1  and  C_18
    3  A    between atoms: C_1  and  C_24
    4  A    between atoms: C_2  and  C_7
    5  A    between atoms: C_2  and  C_25
    6  A    between atoms: C_3  and  S_16
    7  A    between atoms: O_4  and  C_18
    8  A    between atoms: O_4  and  C_19
    9  A    between atoms: S_6  and  C_15
   10  A    between atoms: S_6  and  C_21
   11  A    between atoms: N_10  and  C_11
   12  A    between atoms: N_10  and  C_19
   13  A    between atoms: O_13  and  C_24
   14  A    between atoms: C_15  and  C_20
   15  A    between atoms: S_16  and  C_23
   16  A    between atoms: C_17  and  C_18
   17  A    between atoms: C_20  and  C_23
   18  A    between atoms: C_21  and  C_25
                            x       y       z     vdW  Elec       q    Type
                         _______ _______ _______ _____ _____    ______ ____

>  <TORSDO>
F 18

$$$$
=
 OpenBabel10262419583D

 25 24  0  0  1  0  0  0  0  0999 V2000
  189.5820  177.4440  139.2610 C   0  0  1  0  0  3  0  0  0  0  0  0
  188.7950  175.6560  137.8680 O   0  0  0  0  0  0  0  0  0  0  0  0
  189.6140  176.6050  138.0190 C   0  0  0  0  0  0  0  0  0  0  0  0
  190.5820  176.8670  137.0500 O   0  0  0  0  0  0  0  0  0  0  0  0
  191.8270  176.1860  137.0300 C   0  0  0  0  0  1  0  0  0  0  0  0
  188.1690  177.9630  139.5970 C   0  0  1  0  0  3  0  0  0  0  0  0
  188.1200  178.7700  140.8990 C   0  0  0  0  0  2  0  0  0  0  0  0
  186.9400  178.3300  141.7420 C   0  0  0  0  0  1  0  0  0  0  0  0
  187.5450  178.6320  138.5160 O   0  0  0  0  0  0  0  0  0  0  0  0
  186.2050  178.2140  138.4280 C   0  0  0  0  0  2  0  0  0  0  0  0
  185.0460  176.3510  137.1910 C   0  0  0  0  0  1  0  0  0  0  0  0
  186.0100  177.4360  137.2170 N   0  0  0  0  0  0  0  0  0  0  0  0
  187.2880  178.0850  135.0420 C   0  0  0  0  0  3  0  0  0  0  0  0
  186.6960  177.7850  136.0490 C   0  0  0  0  0  0  0  0  0  0  0  0
  190.2500  176.7210  140.4320 C   0  0  0  0  0  2  0  0  0  0  0  0
  191.8820  177.4230  140.8510 S   0  0  0  0  0  0  0  0  0  0  0  0
  191.3870  177.7700  142.5620 C   0  0  0  0  0  2  0  0  0  0  0  0
  191.5450  176.5190  143.4070 C   0  0  0  0  0  2  0  0  0  0  0  0
  191.0490  176.7660  144.8210 C   0  0  0  0  0  2  0  0  0  0  0  0
  189.7420  178.0280  144.8290 S   0  0  0  0  0  0  0  0  0  0  0  0
  189.2960  177.6690  146.5510 C   0  0  0  0  0  2  0  0  0  0  0  0
  187.7900  177.6010  146.6780 C   0  0  0  0  0  2  0  0  0  0  0  0
  187.1700  177.5500  145.2990 C   0  0  0  0  0  2  0  0  0  0  0  0
  185.8250  178.2450  145.3240 C   0  0  0  0  0  2  0  0  0  0  0  0
  185.4000  178.4680  146.7590 C   0  0  0  0  0  1  0  0  0  0  0  0
  1  6  1  0  0  0  0
  1 15  1  1  0  0  0
  2  3  2  0  0  0  0
  3  1  1  0  0  0  0
  4  3  1  0  0  0  0
  5  4  1  0  0  0  0
  6  7  1  1  0  0  0
  7  8  1  0  0  0  0
  9  6  1  0  0  0  0
 10  9  1  0  0  0  0
 11 12  1  0  0  0  0
 12 10  1  0  0  0  0
 13 14  3  0  0  0  0
 14 12  1  0  0  0  0
 15 16  1  0  0  0  0
 16 17  1  0  0  0  0
 17 18  1  0  0  0  0
 18 19  1  0  0  0  0
 19 20  1  0  0  0  0
 20 21  1  0  0  0  0
 21 22  1  0  0  0  0
 23 24  1  0  0  0  0
 23 22  1  0  0  0  0
 24 25  1  0  0  0  0
M  END
>  <MODEL>
2

>  <REMARK>
 VINA RESULT:      -4.6      2.723      5.146
  Name = 
  18 active torsions:
  status: ('A' for Active; 'I' for Inactive)
    1  A    between atoms: C_1  and  C_3
    2  A    between atoms: C_1  and  C_18
    3  A    between atoms: C_1  and  C_24
    4  A    between atoms: C_2  and  C_7
    5  A    between atoms: C_2  and  C_25
    6  A    between atoms: C_3  and  S_16
    7  A    between atoms: O_4  and  C_18
    8  A    between atoms: O_4  and  C_19
    9  A    between atoms: S_6  and  C_15
   10  A    between atoms: S_6  and  C_21
   11  A    between atoms: N_10  and  C_11
   12  A    between atoms: N_10  and  C_19
   13  A    between atoms: O_13  and  C_24
   14  A    between atoms: C_15  and  C_20
   15  A    between atoms: S_16  and  C_23
   16  A    between atoms: C_17  and  C_18
   17  A    between atoms: C_20  and  C_23
   18  A    between atoms: C_21  and  C_25
                            x       y       z     vdW  Elec       q    Type
                         _______ _______ _______ _____ _____    ______ ____

>  <TORSDO>
F 18

$$$$
=
 OpenBabel10262419583D

 25 24  0  0  1  0  0  0  0  0999 V2000
  189.4650  177.6240  142.7860 C   0  0  1  0  0  3  0  0  0  0  0  0
  187.9670  175.7860  143.1590 O   0  0  0  0  0  0  0  0  0  0  0  0
  188.2080  177.0130  143.3310 C   0  0  0  0  0  0  0  0  0  0  0  0
  187.2960  177.8280  144.0020 O   0  0  0  0  0  0  0  0  0  0  0  0
  186.7210  177.4470  145.2420 C   0  0  0  0  0  1  0  0  0  0  0  0
  190.7160  177.2560  143.6100 C   0  0  1  0  0  3  0  0  0  0  0  0
  191.7340  178.3980  143.6960 C   0  0  0  0  0  2  0  0  0  0  0  0
  191.0470  179.6810  144.1180 C   0  0  0  0  0  1  0  0  0  0  0  0
  190.4100  176.7000  144.8760 O   0  0  0  0  0  0  0  0  0  0  0  0
  191.6090  176.3960  145.5460 C   0  0  0  0  0  2  0  0  0  0  0  0
  192.3690  175.8500  147.8850 C   0  0  0  0  0  1  0  0  0  0  0  0
  191.3950  176.4360  146.9820 N   0  0  0  0  0  0  0  0  0  0  0  0
  189.3280  177.6960  147.9470 C   0  0  0  0  0  3  0  0  0  0  0  0
  190.2850  177.1130  147.5000 C   0  0  0  0  0  0  0  0  0  0  0  0
  189.6190  177.3250  141.2930 C   0  0  0  0  0  2  0  0  0  0  0  0
  188.4230  178.2440  140.2660 S   0  0  0  0  0  0  0  0  0  0  0  0
  189.1830  177.6720  138.7210 C   0  0  0  0  0  2  0  0  0  0  0  0
  189.0610  178.7490  137.6590 C   0  0  0  0  0  2  0  0  0  0  0  0
  188.3900  178.1950  136.4140 C   0  0  0  0  0  2  0  0  0  0  0  0
  187.6380  176.5770  136.7590 S   0  0  0  0  0  0  0  0  0  0  0  0
  185.9610  177.2050  136.4670 C   0  0  0  0  0  2  0  0  0  0  0  0
  185.4650  177.9150  137.7090 C   0  0  0  0  0  2  0  0  0  0  0  0
  184.0510  177.4690  138.0110 C   0  0  0  0  0  2  0  0  0  0  0  0
  183.6730  177.9060  139.4110 C   0  0  0  0  0  2  0  0  0  0  0  0
  184.1100  179.3380  139.6270 C   0  0  0  0  0  1  0  0  0  0  0  0
  1 15  1  6  0  0  0
  1  3  1  0  0  0  0
  1  6  1  0  0  0  0
  2  3  2  0  0  0  0
  3  4  1  0  0  0  0
  4  5  1  0  0  0  0
  6  7  1  1  0  0  0
  6  9  1  0  0  0  0
  7  8  1  0  0  0  0
  9 10  1  0  0  0  0
 10 12  1  0  0  0  0
 12 14  1  0  0  0  0
 12 11  1  0  0  0  0
 14 13  3  0  0  0  0
 16 15  1  0  0  0  0
 17 16  1  0  0  0  0
 18 17  1  0  0  0  0
 19 20  1  0  0  0  0
 19 18  1  0  0  0  0
 21 20  1  0  0  0  0
 21 22  1  0  0  0  0
 22 23  1  0  0  0  0
 23 24  1  0  0  0  0
 24 25  1  0  0  0  0
M  END
>  <MODEL>
3

>  <REMARK>
 VINA RESULT:      -4.6      3.413      7.839
  Name = 
  18 active torsions:
  status: ('A' for Active; 'I' for Inactive)
    1  A    between atoms: C_1  and  C_3
    2  A    between atoms: C_1  and  C_18
    3  A    between atoms: C_1  and  C_24
    4  A    between atoms: C_2  and  C_7
    5  A    between atoms: C_2  and  C_25
    6  A    between atoms: C_3  and  S_16
    7  A    between atoms: O_4  and  C_18
    8  A    between atoms: O_4  and  C_19
    9  A    between atoms: S_6  and  C_15
   10  A    between atoms: S_6  and  C_21
   11  A    between atoms: N_10  and  C_11
   12  A    between atoms: N_10  and  C_19
   13  A    between atoms: O_13  and  C_24
   14  A    between atoms: C_15  and  C_20
   15  A    between atoms: S_16  and  C_23
   16  A    between atoms: C_17  and  C_18
   17  A    between atoms: C_20  and  C_23
   18  A    between atoms: C_21  and  C_25
                            x       y       z     vdW  Elec       q    Type
                         _______ _______ _______ _____ _____    ______ ____

>  <TORSDO>
F 18

$$$$
=
 OpenBabel10262419583D

 25 24  0  0  1  0  0  0  0  0999 V2000
  188.6860  177.1090  142.5360 C   0  0  1  0  0  3  0  0  0  0  0  0
  190.4850  176.1660  141.2580 O   0  0  0  0  0  0  0  0  0  0  0  0
  189.4790  176.9280  141.2760 C   0  0  0  0  0  0  0  0  0  0  0  0
  189.1080  177.6390  140.1350 O   0  0  0  0  0  0  0  0  0  0  0  0
  189.9210  177.6690  138.9730 C   0  0  0  0  0  1  0  0  0  0  0  0
  189.5760  177.2670  143.7860 C   0  0  1  0  0  3  0  0  0  0  0  0
  190.1010  178.6940  143.9730 C   0  0  0  0  0  2  0  0  0  0  0  0
  191.6150  178.7060  143.9110 C   0  0  0  0  0  1  0  0  0  0  0  0
  188.9880  176.7420  144.9630 O   0  0  0  0  0  0  0  0  0  0  0  0
  188.7570  177.7920  145.8700 C   0  0  0  0  0  2  0  0  0  0  0  0
  188.5450  177.7200  148.3790 C   0  0  0  0  0  1  0  0  0  0  0  0
  189.3040  177.4490  147.1710 N   0  0  0  0  0  0  0  0  0  0  0  0
  191.5900  176.2100  147.3280 C   0  0  0  0  0  3  0  0  0  0  0  0
  190.5320  176.7840  147.2550 C   0  0  0  0  0  0  0  0  0  0  0  0
  187.6590  178.2340  142.3840 C   0  0  0  0  0  2  0  0  0  0  0  0
  186.1340  177.9250  143.3390 S   0  0  0  0  0  0  0  0  0  0  0  0
  185.1680  179.0820  142.3280 C   0  0  0  0  0  2  0  0  0  0  0  0
  183.7350  178.5950  142.2170 C   0  0  0  0  0  2  0  0  0  0  0  0
  183.4730  178.0290  140.8320 C   0  0  0  0  0  2  0  0  0  0  0  0
  184.1310  179.1380  139.5520 S   0  0  0  0  0  0  0  0  0  0  0  0
  183.3270  178.2080  138.2190 C   0  0  0  0  0  2  0  0  0  0  0  0
  184.3800  177.5200  137.3770 C   0  0  0  0  0  2  0  0  0  0  0  0
  185.7540  177.9660  137.8280 C   0  0  0  0  0  2  0  0  0  0  0  0
  186.8100  177.2270  137.0320 C   0  0  0  0  0  2  0  0  0  0  0  0
  187.4600  178.1790  136.0520 C   0  0  0  0  0  1  0  0  0  0  0  0
  1 15  1  6  0  0  0
  1  6  1  0  0  0  0
  2  3  2  0  0  0  0
  3  1  1  0  0  0  0
  4  3  1  0  0  0  0
  5  4  1  0  0  0  0
  6  7  1  1  0  0  0
  6  9  1  0  0  0  0
  8  7  1  0  0  0  0
  9 10  1  0  0  0  0
 10 12  1  0  0  0  0
 12 14  1  0  0  0  0
 12 11  1  0  0  0  0
 14 13  3  0  0  0  0
 15 16  1  0  0  0  0
 17 16  1  0  0  0  0
 18 17  1  0  0  0  0
 19 18  1  0  0  0  0
 20 19  1  0  0  0  0
 21 20  1  0  0  0  0
 22 23  1  0  0  0  0
 22 21  1  0  0  0  0
 24 23  1  0  0  0  0
 25 24  1  0  0  0  0
M  END
>  <MODEL>
4

>  <REMARK>
 VINA RESULT:      -4.6      2.827      6.978
  Name = 
  18 active torsions:
  status: ('A' for Active; 'I' for Inactive)
    1  A    between atoms: C_1  and  C_3
    2  A    between atoms: C_1  and  C_18
    3  A    between atoms: C_1  and  C_24
    4  A    between atoms: C_2  and  C_7
    5  A    between atoms: C_2  and  C_25
    6  A    between atoms: C_3  and  S_16
    7  A    between atoms: O_4  and  C_18
    8  A    between atoms: O_4  and  C_19
    9  A    between atoms: S_6  and  C_15
   10  A    between atoms: S_6  and  C_21
   11  A    between atoms: N_10  and  C_11
   12  A    between atoms: N_10  and  C_19
   13  A    between atoms: O_13  and  C_24
   14  A    between atoms: C_15  and  C_20
   15  A    between atoms: S_16  and  C_23
   16  A    between atoms: C_17  and  C_18
   17  A    between atoms: C_20  and  C_23
   18  A    between atoms: C_21  and  C_25
                            x       y       z     vdW  Elec       q    Type
                         _______ _______ _______ _____ _____    ______ ____

>  <TORSDO>
F 18

$$$$
=
 OpenBabel10262419583D

 25 24  0  0  1  0  0  0  0  0999 V2000
  188.2380  178.1010  140.4590 C   0  0  1  0  0  3  0  0  0  0  0  0
  186.4440  178.4700  138.9080 O   0  0  0  0  0  0  0  0  0  0  0  0
  187.6680  178.2140  139.0760 C   0  0  0  0  0  0  0  0  0  0  0  0
  188.5040  177.9980  137.9800 O   0  0  0  0  0  0  0  0  0  0  0  0
  189.0420  179.0720  137.2240 C   0  0  0  0  0  1  0  0  0  0  0  0
  187.1500  178.0480  141.5510 C   0  0  1  0  0  3  0  0  0  0  0  0
  187.7270  177.9980  142.9700 C   0  0  0  0  0  2  0  0  0  0  0  0
  187.4690  176.6400  143.5920 C   0  0  0  0  0  1  0  0  0  0  0  0
  186.1540  179.0430  141.4000 O   0  0  0  0  0  0  0  0  0  0  0  0
  185.5600  179.2930  142.6510 C   0  0  0  0  0  2  0  0  0  0  0  0
  183.4000  178.8460  143.8680 C   0  0  0  0  0  1  0  0  0  0  0  0
  184.1870  178.8220  142.6470 N   0  0  0  0  0  0  0  0  0  0  0  0
  183.0830  178.0660  140.4110 C   0  0  0  0  0  3  0  0  0  0  0  0
  183.5940  178.4160  141.4470 C   0  0  0  0  0  0  0  0  0  0  0  0
  189.2380  176.9460  140.5500 C   0  0  0  0  0  2  0  0  0  0  0  0
  190.9520  177.4760  140.2140 S   0  0  0  0  0  0  0  0  0  0  0  0
  191.3790  177.4970  141.9780 C   0  0  0  0  0  2  0  0  0  0  0  0
  190.9190  176.2090  142.6340 C   0  0  0  0  0  2  0  0  0  0  0  0
  191.5850  176.0340  143.9880 C   0  0  0  0  0  2  0  0  0  0  0  0
  191.3800  177.5290  145.0000 S   0  0  0  0  0  0  0  0  0  0  0  0
  191.4110  176.5830  146.5470 C   0  0  0  0  0  2  0  0  0  0  0  0
  190.3050  177.0700  147.4580 C   0  0  0  0  0  2  0  0  0  0  0  0
  188.9690  176.8780  146.7740 C   0  0  0  0  0  2  0  0  0  0  0  0
  187.9550  177.8320  147.3690 C   0  0  0  0  0  2  0  0  0  0  0  0
  188.3610  178.1810  148.7840 C   0  0  0  0  0  1  0  0  0  0  0  0
  1 15  1  6  0  0  0
  1  6  1  0  0  0  0
  2  3  2  0  0  0  0
  3  1  1  0  0  0  0
  4  3  1  0  0  0  0
  5  4  1  0  0  0  0
  6  7  1  1  0  0  0
  7  8  1  0  0  0  0
  9  6  1  0  0  0  0
  9 10  1  0  0  0  0
 12 10  1  0  0  0  0
 12 11  1  0  0  0  0
 13 14  3  0  0  0  0
 14 12  1  0  0  0  0
 16 15  1  0  0  0  0
 16 17  1  0  0  0  0
 17 18  1  0  0  0  0
 18 19  1  0  0  0  0
 19 20  1  0  0  0  0
 20 21  1  0  0  0  0
 21 22  1  0  0  0  0
 23 24  1  0  0  0  0
 23 22  1  0  0  0  0
 24 25  1  0  0  0  0
M  END
>  <MODEL>
5

>  <REMARK>
 VINA RESULT:      -4.6      2.781      5.041
  Name = 
  18 active torsions:
  status: ('A' for Active; 'I' for Inactive)
    1  A    between atoms: C_1  and  C_3
    2  A    between atoms: C_1  and  C_18
    3  A    between atoms: C_1  and  C_24
    4  A    between atoms: C_2  and  C_7
    5  A    between atoms: C_2  and  C_25
    6  A    between atoms: C_3  and  S_16
    7  A    between atoms: O_4  and  C_18
    8  A    between atoms: O_4  and  C_19
    9  A    between atoms: S_6  and  C_15
   10  A    between atoms: S_6  and  C_21
   11  A    between atoms: N_10  and  C_11
   12  A    between atoms: N_10  and  C_19
   13  A    between atoms: O_13  and  C_24
   14  A    between atoms: C_15  and  C_20
   15  A    between atoms: S_16  and  C_23
   16  A    between atoms: C_17  and  C_18
   17  A    between atoms: C_20  and  C_23
   18  A    between atoms: C_21  and  C_25
                            x       y       z     vdW  Elec       q    Type
                         _______ _______ _______ _____ _____    ______ ____

>  <TORSDO>
F 18

$$$$
=
 OpenBabel10262419583D

 25 24  0  0  1  0  0  0  0  0999 V2000
  189.6380  176.8250  139.1170 C   0  0  1  0  0  3  0  0  0  0  0  0
  189.0220  179.1020  138.6760 O   0  0  0  0  0  0  0  0  0  0  0  0
  188.8200  177.8800  138.4330 C   0  0  0  0  0  0  0  0  0  0  0  0
  187.8120  177.4890  137.5510 O   0  0  0  0  0  0  0  0  0  0  0  0
  187.5270  178.2180  136.3680 C   0  0  0  0  0  1  0  0  0  0  0  0
  190.6310  176.1270  138.1650 C   0  0  1  0  0  3  0  0  0  0  0  0
  192.0870  176.2450  138.6270 C   0  0  0  0  0  2  0  0  0  0  0  0
  192.9930  176.4990  137.4380 C   0  0  0  0  0  1  0  0  0  0  0  0
  190.2640  174.7960  137.8480 O   0  0  0  0  0  0  0  0  0  0  0  0
  190.0200  174.7030  136.4660 C   0  0  0  0  0  2  0  0  0  0  0  0
  189.1970  172.5180  135.5210 C   0  0  0  0  0  1  0  0  0  0  0  0
  188.9390  173.7640  136.2190 N   0  0  0  0  0  0  0  0  0  0  0  0
  186.5600  174.2520  137.1610 C   0  0  0  0  0  3  0  0  0  0  0  0
  187.6620  174.0260  136.7250 C   0  0  0  0  0  0  0  0  0  0  0  0
  190.3020  177.3750  140.3800 C   0  0  0  0  0  2  0  0  0  0  0  0
  189.2330  177.2350  141.8530 S   0  0  0  0  0  0  0  0  0  0  0  0
  190.3040  175.9840  142.6150 C   0  0  0  0  0  2  0  0  0  0  0  0
  191.5330  176.6510  143.2050 C   0  0  0  0  0  2  0  0  0  0  0  0
  191.1430  177.5660  144.3520 C   0  0  0  0  0  2  0  0  0  0  0  0
  191.4620  176.7620  145.9500 S   0  0  0  0  0  0  0  0  0  0  0  0
  189.7640  177.0440  146.5220 C   0  0  0  0  0  2  0  0  0  0  0  0
  189.0390  177.9310  145.5330 C   0  0  0  0  0  2  0  0  0  0  0  0
  187.5850  177.5180  145.4590 C   0  0  0  0  0  2  0  0  0  0  0  0
  186.8930  177.8720  146.7590 C   0  0  0  0  0  2  0  0  0  0  0  0
  185.7750  178.8530  146.4850 C   0  0  0  0  0  1  0  0  0  0  0  0
  1 15  1  1  0  0  0
  3  2  2  0  0  0  0
  3  1  1  0  0  0  0
  4  3  1  0  0  0  0
  5  4  1  0  0  0  0
  6  7  1  1  0  0  0
  6  1  1  0  0  0  0
  8  7  1  0  0  0  0
  9  6  1  0  0  0  0
 10  9  1  0  0  0  0
 11 12  1  0  0  0  0
 12 10  1  0  0  0  0
 12 14  1  0  0  0  0
 14 13  3  0  0  0  0
 15 16  1  0  0  0  0
 16 17  1  0  0  0  0
 17 18  1  0  0  0  0
 18 19  1  0  0  0  0
 19 20  1  0  0  0  0
 20 21  1  0  0  0  0
 22 21  1  0  0  0  0
 23 22  1  0  0  0  0
 23 24  1  0  0  0  0
 25 24  1  0  0  0  0
M  END
>  <MODEL>
6

>  <REMARK>
 VINA RESULT:      -4.5      3.151      5.057
  Name = 
  18 active torsions:
  status: ('A' for Active; 'I' for Inactive)
    1  A    between atoms: C_1  and  C_3
    2  A    between atoms: C_1  and  C_18
    3  A    between atoms: C_1  and  C_24
    4  A    between atoms: C_2  and  C_7
    5  A    between atoms: C_2  and  C_25
    6  A    between atoms: C_3  and  S_16
    7  A    between atoms: O_4  and  C_18
    8  A    between atoms: O_4  and  C_19
    9  A    between atoms: S_6  and  C_15
   10  A    between atoms: S_6  and  C_21
   11  A    between atoms: N_10  and  C_11
   12  A    between atoms: N_10  and  C_19
   13  A    between atoms: O_13  and  C_24
   14  A    between atoms: C_15  and  C_20
   15  A    between atoms: S_16  and  C_23
   16  A    between atoms: C_17  and  C_18
   17  A    between atoms: C_20  and  C_23
   18  A    between atoms: C_21  and  C_25
                            x       y       z     vdW  Elec       q    Type
                         _______ _______ _______ _____ _____    ______ ____

>  <TORSDO>
F 18

$$$$
=
 OpenBabel10262419583D

 25 24  0  0  1  0  0  0  0  0999 V2000
  189.8170  177.2870  141.0290 C   0  0  1  0  0  3  0  0  0  0  0  0
  188.5810  178.8050  139.6400 O   0  0  0  0  0  0  0  0  0  0  0  0
  188.6510  178.1850  140.7380 C   0  0  0  0  0  0  0  0  0  0  0  0
  187.6650  178.3510  141.7100 O   0  0  0  0  0  0  0  0  0  0  0  0
  186.3470  178.7580  141.3800 C   0  0  0  0  0  1  0  0  0  0  0  0
  190.7590  177.1180  139.8200 C   0  0  1  0  0  3  0  0  0  0  0  0
  192.2130  177.4840  140.1370 C   0  0  0  0  0  2  0  0  0  0  0  0
  193.1470  176.8180  139.1460 C   0  0  0  0  0  1  0  0  0  0  0  0
  190.6380  175.8580  139.1850 O   0  0  0  0  0  0  0  0  0  0  0  0
  189.7350  175.9680  138.1120 C   0  0  0  0  0  2  0  0  0  0  0  0
  191.2710  174.1970  137.1900 C   0  0  0  0  0  1  0  0  0  0  0  0
  190.0470  174.9720  137.1010 N   0  0  0  0  0  0  0  0  0  0  0  0
  188.3330  174.4740  135.2030 C   0  0  0  0  0  3  0  0  0  0  0  0
  189.1270  174.7050  136.0820 C   0  0  0  0  0  0  0  0  0  0  0  0
  190.5450  177.7250  142.3020 C   0  0  0  0  0  2  0  0  0  0  0  0
  190.7570  176.3590  143.4930 S   0  0  0  0  0  0  0  0  0  0  0  0
  189.1900  176.7330  144.3290 C   0  0  0  0  0  2  0  0  0  0  0  0
  189.4660  177.3440  145.6900 C   0  0  0  0  0  2  0  0  0  0  0  0
  188.3970  176.9300  146.6860 C   0  0  0  0  0  2  0  0  0  0  0  0
  188.3150  178.1110  148.0640 S   0  0  0  0  0  0  0  0  0  0  0  0
  186.6710  178.6980  147.5680 C   0  0  0  0  0  2  0  0  0  0  0  0
  186.1530  177.8440  146.4310 C   0  0  0  0  0  2  0  0  0  0  0  0
  185.6290  178.7390  145.3290 C   0  0  0  0  0  2  0  0  0  0  0  0
  184.1160  178.7810  145.3900 C   0  0  0  0  0  2  0  0  0  0  0  0
  183.5800  179.4510  144.1440 C   0  0  0  0  0  1  0  0  0  0  0  0
  1 15  1  1  0  0  0
  2  3  2  0  0  0  0
  3  1  1  0  0  0  0
  3  4  1  0  0  0  0
  5  4  1  0  0  0  0
  6  7  1  1  0  0  0
  6  1  1  0  0  0  0
  8  7  1  0  0  0  0
  9  6  1  0  0  0  0
 10  9  1  0  0  0  0
 12 11  1  0  0  0  0
 12 10  1  0  0  0  0
 13 14  3  0  0  0  0
 14 12  1  0  0  0  0
 15 16  1  0  0  0  0
 16 17  1  0  0  0  0
 17 18  1  0  0  0  0
 18 19  1  0  0  0  0
 19 20  1  0  0  0  0
 21 20  1  0  0  0  0
 22 21  1  0  0  0  0
 23 24  1  0  0  0  0
 23 22  1  0  0  0  0
 25 24  1  0  0  0  0
M  END
>  <MODEL>
7

>  <REMARK>
 VINA RESULT:      -4.5      2.322      4.607
  Name = 
  18 active torsions:
  status: ('A' for Active; 'I' for Inactive)
    1  A    between atoms: C_1  and  C_3
    2  A    between atoms: C_1  and  C_18
    3  A    between atoms: C_1  and  C_24
    4  A    between atoms: C_2  and  C_7
    5  A    between atoms: C_2  and  C_25
    6  A    between atoms: C_3  and  S_16
    7  A    between atoms: O_4  and  C_18
    8  A    between atoms: O_4  and  C_19
    9  A    between atoms: S_6  and  C_15
   10  A    between atoms: S_6  and  C_21
   11  A    between atoms: N_10  and  C_11
   12  A    between atoms: N_10  and  C_19
   13  A    between atoms: O_13  and  C_24
   14  A    between atoms: C_15  and  C_20
   15  A    between atoms: S_16  and  C_23
   16  A    between atoms: C_17  and  C_18
   17  A    between atoms: C_20  and  C_23
   18  A    between atoms: C_21  and  C_25
                            x       y       z     vdW  Elec       q    Type
                         _______ _______ _______ _____ _____    ______ ____

>  <TORSDO>
F 18

$$$$
=
 OpenBabel10262419583D

 25 24  0  0  1  0  0  0  0  0999 V2000
  189.2840  177.0530  139.5110 C   0  0  1  0  0  3  0  0  0  0  0  0
  189.1360  179.2700  138.6020 O   0  0  0  0  0  0  0  0  0  0  0  0
  188.5220  178.2530  139.0320 C   0  0  0  0  0  0  0  0  0  0  0  0
  187.1290  178.2420  139.1000 O   0  0  0  0  0  0  0  0  0  0  0  0
  186.3220  178.1860  137.9340 C   0  0  0  0  0  1  0  0  0  0  0  0
  189.7360  176.1320  138.3590 C   0  0  1  0  0  3  0  0  0  0  0  0
  189.5440  176.7630  136.9760 C   0  0  0  0  0  2  0  0  0  0  0  0
  188.7760  175.8180  136.0730 C   0  0  0  0  0  1  0  0  0  0  0  0
  191.0360  175.6010  138.5430 O   0  0  0  0  0  0  0  0  0  0  0  0
  191.9140  176.2060  137.6250 C   0  0  0  0  0  2  0  0  0  0  0  0
  192.4760  174.8370  135.5860 C   0  0  0  0  0  1  0  0  0  0  0  0
  192.7220  175.1910  136.9730 N   0  0  0  0  0  0  0  0  0  0  0  0
  194.7150  174.1040  138.2520 C   0  0  0  0  0  3  0  0  0  0  0  0
  193.7920  174.6070  137.6590 C   0  0  0  0  0  0  0  0  0  0  0  0
  190.4300  177.4620  140.4380 C   0  0  0  0  0  2  0  0  0  0  0  0
  190.4150  176.5470  142.0170 S   0  0  0  0  0  0  0  0  0  0  0  0
  188.7100  177.0460  142.3870 C   0  0  0  0  0  2  0  0  0  0  0  0
  188.6550  177.7200  143.7450 C   0  0  0  0  0  2  0  0  0  0  0  0
  189.6220  177.0540  144.7090 C   0  0  0  0  0  2  0  0  0  0  0  0
  189.0070  177.1730  146.4150 S   0  0  0  0  0  0  0  0  0  0  0  0
  187.3570  177.6920  145.8700 C   0  0  0  0  0  2  0  0  0  0  0  0
  186.6110  178.3080  147.0340 C   0  0  0  0  0  2  0  0  0  0  0  0
  185.1430  178.4240  146.6850 C   0  0  0  0  0  2  0  0  0  0  0  0
  185.0010  178.9220  145.2620 C   0  0  0  0  0  2  0  0  0  0  0  0
  183.5360  178.9640  144.8870 C   0  0  0  0  0  1  0  0  0  0  0  0
  1 15  1  6  0  0  0
  2  3  2  0  0  0  0
  3  4  1  0  0  0  0
  3  1  1  0  0  0  0
  5  4  1  0  0  0  0
  6  7  1  6  0  0  0
  6  9  1  0  0  0  0
  6  1  1  0  0  0  0
  8  7  1  0  0  0  0
 10  9  1  0  0  0  0
 11 12  1  0  0  0  0
 12 10  1  0  0  0  0
 12 14  1  0  0  0  0
 14 13  3  0  0  0  0
 15 16  1  0  0  0  0
 16 17  1  0  0  0  0
 17 18  1  0  0  0  0
 18 19  1  0  0  0  0
 19 20  1  0  0  0  0
 21 20  1  0  0  0  0
 21 22  1  0  0  0  0
 23 22  1  0  0  0  0
 24 23  1  0  0  0  0
 25 24  1  0  0  0  0
M  END
>  <MODEL>
8

>  <REMARK>
 VINA RESULT:      -4.5      2.811      5.067
  Name = 
  18 active torsions:
  status: ('A' for Active; 'I' for Inactive)
    1  A    between atoms: C_1  and  C_3
    2  A    between atoms: C_1  and  C_18
    3  A    between atoms: C_1  and  C_24
    4  A    between atoms: C_2  and  C_7
    5  A    between atoms: C_2  and  C_25
    6  A    between atoms: C_3  and  S_16
    7  A    between atoms: O_4  and  C_18
    8  A    between atoms: O_4  and  C_19
    9  A    between atoms: S_6  and  C_15
   10  A    between atoms: S_6  and  C_21
   11  A    between atoms: N_10  and  C_11
   12  A    between atoms: N_10  and  C_19
   13  A    between atoms: O_13  and  C_24
   14  A    between atoms: C_15  and  C_20
   15  A    between atoms: S_16  and  C_23
   16  A    between atoms: C_17  and  C_18
   17  A    between atoms: C_20  and  C_23
   18  A    between atoms: C_21  and  C_25
                            x       y       z     vdW  Elec       q    Type
                         _______ _______ _______ _____ _____    ______ ____

>  <TORSDO>
F 18

$$$$
=
 OpenBabel10262419583D

 25 24  0  0  1  0  0  0  0  0999 V2000
  189.7230  177.1820  139.5080 C   0  0  1  0  0  3  0  0  0  0  0  0
  188.9690  179.2680  138.5900 O   0  0  0  0  0  0  0  0  0  0  0  0
  188.9830  178.4850  139.5810 C   0  0  0  0  0  0  0  0  0  0  0  0
  188.3400  178.8330  140.7690 O   0  0  0  0  0  0  0  0  0  0  0  0
  186.9830  178.5010  141.0120 C   0  0  0  0  0  1  0  0  0  0  0  0
  190.1710  176.8270  138.0760 C   0  0  1  0  0  3  0  0  0  0  0  0
  190.6830  175.3890  137.9470 C   0  0  0  0  0  2  0  0  0  0  0  0
  192.1880  175.3850  137.7670 C   0  0  0  0  0  1  0  0  0  0  0  0
  189.2090  177.1550  137.0890 O   0  0  0  0  0  0  0  0  0  0  0  0
  188.6990  175.9690  136.5310 C   0  0  0  0  0  2  0  0  0  0  0  0
  186.8000  174.4350  137.1530 C   0  0  0  0  0  1  0  0  0  0  0  0
  187.3250  175.7750  136.9590 N   0  0  0  0  0  0  0  0  0  0  0  0
  185.8390  177.8410  137.5200 C   0  0  0  0  0  3  0  0  0  0  0  0
  186.5270  176.8840  137.2600 C   0  0  0  0  0  0  0  0  0  0  0  0
  190.8670  177.1410  140.5230 C   0  0  0  0  0  2  0  0  0  0  0  0
  190.3510  176.4570  142.1350 S   0  0  0  0  0  0  0  0  0  0  0  0
  191.1440  177.8050  143.0560 C   0  0  0  0  0  2  0  0  0  0  0  0
  190.7340  177.7400  144.5160 C   0  0  0  0  0  2  0  0  0  0  0  0
  191.5370  176.6790  145.2470 C   0  0  0  0  0  2  0  0  0  0  0  0
  191.0800  176.6300  147.0050 S   0  0  0  0  0  0  0  0  0  0  0  0
  189.6400  177.7010  146.7440 C   0  0  0  0  0  2  0  0  0  0  0  0
  189.0440  178.0810  148.0820 C   0  0  0  0  0  2  0  0  0  0  0  0
  187.6100  177.6000  148.1470 C   0  0  0  0  0  2  0  0  0  0  0  0
  186.9790  177.7080  146.7750 C   0  0  0  0  0  2  0  0  0  0  0  0
  185.9400  178.8070  146.7820 C   0  0  0  0  0  1  0  0  0  0  0  0
  1  3  1  0  0  0  0
  1 15  1  1  0  0  0
  2  3  2  0  0  0  0
  3  4  1  0  0  0  0
  4  5  1  0  0  0  0
  6  7  1  1  0  0  0
  6  1  1  0  0  0  0
  8  7  1  0  0  0  0
  9  6  1  0  0  0  0
 10 12  1  0  0  0  0
 10  9  1  0  0  0  0
 12 11  1  0  0  0  0
 12 14  1  0  0  0  0
 14 13  3  0  0  0  0
 15 16  1  0  0  0  0
 16 17  1  0  0  0  0
 17 18  1  0  0  0  0
 18 19  1  0  0  0  0
 19 20  1  0  0  0  0
 21 20  1  0  0  0  0
 21 22  1  0  0  0  0
 22 23  1  0  0  0  0
 24 25  1  0  0  0  0
 24 23  1  0  0  0  0
M  END
>  <MODEL>
9

>  <REMARK>
 VINA RESULT:      -4.5      2.589      4.848
  Name = 
  18 active torsions:
  status: ('A' for Active; 'I' for Inactive)
    1  A    between atoms: C_1  and  C_3
    2  A    between atoms: C_1  and  C_18
    3  A    between atoms: C_1  and  C_24
    4  A    between atoms: C_2  and  C_7
    5  A    between atoms: C_2  and  C_25
    6  A    between atoms: C_3  and  S_16
    7  A    between atoms: O_4  and  C_18
    8  A    between atoms: O_4  and  C_19
    9  A    between atoms: S_6  and  C_15
   10  A    between atoms: S_6  and  C_21
   11  A    between atoms: N_10  and  C_11
   12  A    between atoms: N_10  and  C_19
   13  A    between atoms: O_13  and  C_24
   14  A    between atoms: C_15  and  C_20
   15  A    between atoms: S_16  and  C_23
   16  A    between atoms: C_17  and  C_18
   17  A    between atoms: C_20  and  C_23
   18  A    between atoms: C_21  and  C_25
                            x       y       z     vdW  Elec       q    Type
                         _______ _______ _______ _____ _____    ______ ____

>  <TORSDO>
F 18

$$$$
