=
 OpenBabel10262419103D

 34 41  0  0  1  0  0  0  0  0999 V2000
  190.2230  177.1640  145.8980 C   0  0  0  0  0  0  0  0  0  0  0  0
  187.8490  177.5050  146.2800 C   0  0  0  0  0  0  0  0  0  0  0  0
  188.7490  177.4170  144.0160 C   0  0  0  0  0  0  0  0  0  0  0  0
  187.2980  178.1470  142.1860 C   0  0  2  0  0  3  0  0  0  0  0  0
  189.3520  177.2430  148.0980 C   0  0  0  0  0  3  0  0  0  0  0  0
  188.0880  177.4340  147.6170 N   0  0  0  0  0  0  0  0  0  0  0  0
  186.4820  178.2980  144.3400 C   0  0  2  0  0  3  0  0  0  0  0  0
  188.9370  177.3610  145.3910 C   0  0  0  0  0  0  0  0  0  0  0  0
  185.7830  178.2150  142.0100 C   0  0  0  0  0  2  0  0  0  0  0  0
  190.4070  177.1100  147.2430 N   0  0  0  0  0  0  0  0  0  0  0  0
  189.8130  177.2380  143.1300 C   0  0  0  0  0  0  0  0  0  0  0  0
  191.2880  177.0040  144.9990 C   0  0  0  0  0  3  0  0  0  0  0  0
  186.4250  177.6820  145.7490 C   0  0  0  0  0  2  0  0  0  0  0  0
  188.1440  177.3370  141.2060 C   0  0  0  0  0  2  0  0  0  0  0  0
  189.5480  177.2600  141.6920 N   0  0  0  0  0  0  0  0  0  0  0  0
  185.2330  178.3260  143.4620 C   0  0  2  0  0  3  0  0  0  0  0  0
  187.3800  177.4710  143.4960 C   0  0  2  0  0  3  0  0  0  0  0  0
  191.0630  177.0410  143.6490 N   0  0  0  0  0  0  0  0  0  0  0  0
  191.3770  176.5070  138.4920 C   0  0  0  0  0  0  0  0  0  0  0  0
  192.6790  176.8750  138.8340 C   0  0  0  0  0  3  0  0  0  0  0  0
  190.6020  177.1460  140.7120 C   0  0  0  0  0  0  0  0  0  0  0  0
  192.9510  177.3730  140.1110 C   0  0  0  0  0  3  0  0  0  0  0  0
  190.3470  176.6380  139.4280 C   0  0  0  0  0  3  0  0  0  0  0  0
  191.9190  177.5050  141.0440 C   0  0  0  0  0  3  0  0  0  0  0  0
  191.0870  175.9710  137.1370 C   0  0  0  0  0  1  0  0  0  0  0  0
  184.4830  179.6400  143.6310 C   0  0  0  0  0  2  0  0  0  0  0  0
  183.1140  179.4340  144.2690 C   0  0  0  0  0  2  0  0  0  0  0  0
  182.2020  178.6020  143.3760 C   0  0  0  0  0  2  0  0  0  0  0  0
  180.1100  178.6740  144.2410 C   0  0  0  0  0  2  0  0  0  0  0  0
  179.4880  178.6790  142.9660 C   0  0  1  0  0  3  0  0  0  0  0  0
  180.3680  177.9680  141.1360 C   0  0  0  0  0  2  0  0  0  0  0  0
  180.9030  179.3300  141.5480 C   0  0  0  0  0  2  0  0  0  0  0  0
  180.9010  179.3440  143.0730 C   0  0  2  0  0  0  0  0  0  0  0  0
  179.6540  177.5010  142.2370 O   0  0  0  0  0  0  0  0  0  0  0  0
  1 10  2  0  0  0  0
  2  6  1  0  0  0  0
  3  8  1  0  0  0  0
  4 14  1  6  0  0  0
  4 17  1  0  0  0  0
  6  5  2  0  0  0  0
  7 13  1  1  0  0  0
  8  1  1  0  0  0  0
  8  2  2  0  0  0  0
  9  4  1  0  0  0  0
  9 16  1  0  0  0  0
 10  5  1  0  0  0  0
 11 18  1  0  0  0  0
 11  3  2  0  0  0  0
 12  1  1  0  0  0  0
 13  2  1  0  0  0  0
 14 15  1  0  0  0  0
 15 11  1  0  0  0  0
 16 26  1  6  0  0  0
 16  7  1  0  0  0  0
 17  3  1  1  0  0  0
 17  7  1  0  0  0  0
 18 12  2  0  0  0  0
 19 20  2  0  0  0  0
 19 23  1  0  0  0  0
 20 22  1  0  0  0  0
 21 24  1  0  0  0  0
 21 15  1  0  0  0  0
 22 24  2  0  0  0  0
 23 21  2  0  0  0  0
 25 19  1  0  0  0  0
 26 27  1  0  0  0  0
 28 27  1  0  0  0  0
 30 33  1  0  0  0  0
 30 29  1  1  0  0  0
 31 32  1  0  0  0  0
 31 34  1  0  0  0  0
 32 33  1  0  0  0  0
 33 28  1  6  0  0  0
 33 29  1  0  0  0  0
 34 30  1  0  0  0  0
M  END
>  <MODEL>
1

>  <REMARK>
 VINA RESULT:     -10.4      0.000      0.000
  Name = 
  5 active torsions:
  status: ('A' for Active; 'I' for Inactive)
    1  A    between atoms: C_3  and  C_13
    2  A    between atoms: C_3  and  C_17
    3  A    between atoms: C_12  and  N_28
    4  A    between atoms: C_13  and  C_33
    5  A    between atoms: C_17  and  C_29
                            x       y       z     vdW  Elec       q    Type
                         _______ _______ _______ _____ _____    ______ ____

>  <TORSDO>
F 5

$$$$
=
 OpenBabel10262419103D

 34 41  0  0  1  0  0  0  0  0999 V2000
  189.1160  177.1280  146.0770 C   0  0  0  0  0  0  0  0  0  0  0  0
  190.9360  177.0840  144.4700 C   0  0  0  0  0  0  0  0  0  0  0  0
  188.6660  177.6330  143.7700 C   0  0  0  0  0  0  0  0  0  0  0  0
  188.1930  177.6690  141.3700 C   0  0  2  0  0  3  0  0  0  0  0  0
  191.3190  176.5990  146.7610 C   0  0  0  0  0  3  0  0  0  0  0  0
  191.7790  176.7520  145.4840 N   0  0  0  0  0  0  0  0  0  0  0  0
  190.3190  177.0760  142.0450 C   0  0  2  0  0  3  0  0  0  0  0  0
  189.5700  177.2850  144.7660 C   0  0  0  0  0  0  0  0  0  0  0  0
  189.0560  177.8960  140.1320 C   0  0  0  0  0  2  0  0  0  0  0  0
  190.0000  176.7860  147.0510 N   0  0  0  0  0  0  0  0  0  0  0  0
  187.3210  177.8710  144.0610 C   0  0  0  0  0  0  0  0  0  0  0  0
  187.7590  177.3510  146.3550 C   0  0  0  0  0  3  0  0  0  0  0  0
  191.4650  177.2890  143.0480 C   0  0  0  0  0  2  0  0  0  0  0  0
  186.9850  178.5660  141.6320 C   0  0  0  0  0  2  0  0  0  0  0  0
  186.4260  178.2820  142.9810 N   0  0  0  0  0  0  0  0  0  0  0  0
  190.4890  177.4880  140.5840 C   0  0  2  0  0  3  0  0  0  0  0  0
  189.1790  177.9430  142.4330 C   0  0  2  0  0  3  0  0  0  0  0  0
  186.9010  177.7170  145.3530 N   0  0  0  0  0  0  0  0  0  0  0  0
  182.7410  178.6550  142.3180 C   0  0  0  0  0  0  0  0  0  0  0  0
  182.2650  178.9400  143.5990 C   0  0  0  0  0  3  0  0  0  0  0  0
  185.0110  178.4840  143.1880 C   0  0  0  0  0  0  0  0  0  0  0  0
  183.1540  179.0030  144.6760 C   0  0  0  0  0  3  0  0  0  0  0  0
  184.1060  178.4340  142.1150 C   0  0  0  0  0  3  0  0  0  0  0  0
  184.5180  178.7790  144.4700 C   0  0  0  0  0  3  0  0  0  0  0  0
  181.7990  178.5950  141.1720 C   0  0  0  0  0  1  0  0  0  0  0  0
  190.9810  176.3160  139.7460 C   0  0  0  0  0  2  0  0  0  0  0  0
  191.6470  176.7800  138.4560 C   0  0  0  0  0  2  0  0  0  0  0  0
  193.1150  176.3770  138.4110 C   0  0  0  0  0  2  0  0  0  0  0  0
  194.5540  174.6280  138.3440 C   0  0  0  0  0  2  0  0  0  0  0  0
  194.6910  174.6820  136.9320 C   0  0  1  0  0  3  0  0  0  0  0  0
  194.3060  176.4000  135.6970 C   0  0  0  0  0  2  0  0  0  0  0  0
  193.0290  175.7120  136.1510 C   0  0  0  0  0  2  0  0  0  0  0  0
  193.3210  175.1420  137.5350 C   0  0  2  0  0  0  0  0  0  0  0  0
  195.3240  175.8290  136.4560 O   0  0  0  0  0  0  0  0  0  0  0  0
  1 12  1  0  0  0  0
  1 10  2  0  0  0  0
  2  8  2  0  0  0  0
  2  6  1  0  0  0  0
  3 11  2  0  0  0  0
  3  8  1  0  0  0  0
  4  9  1  6  0  0  0
  4 14  1  0  0  0  0
  4 17  1  0  0  0  0
  5 10  1  0  0  0  0
  6  5  2  0  0  0  0
  7 17  1  0  0  0  0
  7 13  1  1  0  0  0
  8  1  1  0  0  0  0
  9 16  1  0  0  0  0
 11 18  1  0  0  0  0
 13  2  1  0  0  0  0
 14 15  1  0  0  0  0
 15 21  1  0  0  0  0
 15 11  1  0  0  0  0
 16 26  1  6  0  0  0
 16  7  1  0  0  0  0
 17  3  1  1  0  0  0
 18 12  2  0  0  0  0
 19 20  1  0  0  0  0
 20 22  2  0  0  0  0
 21 24  2  0  0  0  0
 23 19  2  0  0  0  0
 23 21  1  0  0  0  0
 24 22  1  0  0  0  0
 25 19  1  0  0  0  0
 27 26  1  0  0  0  0
 28 27  1  0  0  0  0
 30 33  1  0  0  0  0
 30 29  1  1  0  0  0
 31 32  1  0  0  0  0
 31 34  1  0  0  0  0
 32 33  1  0  0  0  0
 33 29  1  0  0  0  0
 33 28  1  1  0  0  0
 34 30  1  0  0  0  0
M  END
>  <MODEL>
2

>  <REMARK>
 VINA RESULT:     -10.3      3.306      8.743
  Name = 
  5 active torsions:
  status: ('A' for Active; 'I' for Inactive)
    1  A    between atoms: C_3  and  C_13
    2  A    between atoms: C_3  and  C_17
    3  A    between atoms: C_12  and  N_28
    4  A    between atoms: C_13  and  C_33
    5  A    between atoms: C_17  and  C_29
                            x       y       z     vdW  Elec       q    Type
                         _______ _______ _______ _____ _____    ______ ____

>  <TORSDO>
F 5

$$$$
=
 OpenBabel10262419103D

 34 41  0  0  1  0  0  0  0  0999 V2000
  189.0340  177.1360  146.1700 C   0  0  0  0  0  0  0  0  0  0  0  0
  190.8630  177.1280  144.5740 C   0  0  0  0  0  0  0  0  0  0  0  0
  188.5920  177.6680  143.8690 C   0  0  0  0  0  0  0  0  0  0  0  0
  188.1330  177.7320  141.4660 C   0  0  2  0  0  3  0  0  0  0  0  0
  191.2380  176.6160  146.8600 C   0  0  0  0  0  3  0  0  0  0  0  0
  191.7030  176.7890  145.5880 N   0  0  0  0  0  0  0  0  0  0  0  0
  190.2600  177.1480  142.1450 C   0  0  2  0  0  3  0  0  0  0  0  0
  189.4940  177.3140  144.8650 C   0  0  0  0  0  0  0  0  0  0  0  0
  189.0010  177.9840  140.2370 C   0  0  0  0  0  2  0  0  0  0  0  0
  189.9150  176.7880  147.1450 N   0  0  0  0  0  0  0  0  0  0  0  0
  187.2440  177.8910  144.1550 C   0  0  0  0  0  0  0  0  0  0  0  0
  187.6730  177.3430  146.4440 C   0  0  0  0  0  3  0  0  0  0  0  0
  191.3980  177.3570  143.1580 C   0  0  0  0  0  2  0  0  0  0  0  0
  186.9150  178.6160  141.7330 C   0  0  0  0  0  2  0  0  0  0  0  0
  186.3510  178.3090  143.0760 N   0  0  0  0  0  0  0  0  0  0  0  0
  190.4340  177.5810  140.6910 C   0  0  2  0  0  3  0  0  0  0  0  0
  189.1110  178.0010  142.5380 C   0  0  2  0  0  3  0  0  0  0  0  0
  186.8180  177.7160  145.4420 N   0  0  0  0  0  0  0  0  0  0  0  0
  182.6640  178.6340  142.4000 C   0  0  0  0  0  0  0  0  0  0  0  0
  182.1820  178.9240  143.6770 C   0  0  0  0  0  3  0  0  0  0  0  0
  184.9340  178.4970  143.2770 C   0  0  0  0  0  0  0  0  0  0  0  0
  183.0670  179.0060  144.7550 C   0  0  0  0  0  3  0  0  0  0  0  0
  184.0320  178.4270  142.2020 C   0  0  0  0  0  3  0  0  0  0  0  0
  184.4340  178.7960  144.5550 C   0  0  0  0  0  3  0  0  0  0  0  0
  181.7260  178.5530  141.2510 C   0  0  0  0  0  1  0  0  0  0  0  0
  190.9410  176.4250  139.8400 C   0  0  0  0  0  2  0  0  0  0  0  0
  190.9690  176.7800  138.3580 C   0  0  0  0  0  2  0  0  0  0  0  0
  190.2490  175.7310  137.5190 C   0  0  0  0  0  2  0  0  0  0  0  0
  188.3400  174.7520  136.7910 C   0  0  0  0  0  2  0  0  0  0  0  0
  188.0580  175.7880  135.8640 C   0  0  1  0  0  3  0  0  0  0  0  0
  189.4960  177.1550  135.0310 C   0  0  0  0  0  2  0  0  0  0  0  0
  189.1170  177.5080  136.4600 C   0  0  0  0  0  2  0  0  0  0  0  0
  188.8330  176.1860  137.1650 C   0  0  2  0  0  0  0  0  0  0  0  0
  188.9670  175.8850  134.8110 O   0  0  0  0  0  0  0  0  0  0  0  0
  1 12  1  0  0  0  0
  1 10  2  0  0  0  0
  2  8  2  0  0  0  0
  2  6  1  0  0  0  0
  3 11  2  0  0  0  0
  3  8  1  0  0  0  0
  4  9  1  6  0  0  0
  4 14  1  0  0  0  0
  4 17  1  0  0  0  0
  5 10  1  0  0  0  0
  6  5  2  0  0  0  0
  7 17  1  0  0  0  0
  7 13  1  1  0  0  0
  8  1  1  0  0  0  0
  9 16  1  0  0  0  0
 11 18  1  0  0  0  0
 13  2  1  0  0  0  0
 14 15  1  0  0  0  0
 15 21  1  0  0  0  0
 15 11  1  0  0  0  0
 16 26  1  6  0  0  0
 16  7  1  0  0  0  0
 17  3  1  1  0  0  0
 18 12  2  0  0  0  0
 19 20  1  0  0  0  0
 20 22  2  0  0  0  0
 21 24  2  0  0  0  0
 23 19  2  0  0  0  0
 23 21  1  0  0  0  0
 24 22  1  0  0  0  0
 25 19  1  0  0  0  0
 27 26  1  0  0  0  0
 28 27  1  0  0  0  0
 29 33  1  0  0  0  0
 30 29  1  1  0  0  0
 30 33  1  0  0  0  0
 31 32  1  0  0  0  0
 32 33  1  0  0  0  0
 33 28  1  6  0  0  0
 34 31  1  0  0  0  0
 34 30  1  0  0  0  0
M  END
>  <MODEL>
3

>  <REMARK>
 VINA RESULT:     -10.3      2.609      7.381
  Name = 
  5 active torsions:
  status: ('A' for Active; 'I' for Inactive)
    1  A    between atoms: C_3  and  C_13
    2  A    between atoms: C_3  and  C_17
    3  A    between atoms: C_12  and  N_28
    4  A    between atoms: C_13  and  C_33
    5  A    between atoms: C_17  and  C_29
                            x       y       z     vdW  Elec       q    Type
                         _______ _______ _______ _____ _____    ______ ____

>  <TORSDO>
F 5

$$$$
=
 OpenBabel10262419103D

 34 41  0  0  1  0  0  0  0  0999 V2000
  189.0080  177.1420  146.1880 C   0  0  0  0  0  0  0  0  0  0  0  0
  190.8550  177.1430  144.6120 C   0  0  0  0  0  0  0  0  0  0  0  0
  188.5910  177.6790  143.8830 C   0  0  0  0  0  0  0  0  0  0  0  0
  188.1580  177.7460  141.4750 C   0  0  2  0  0  3  0  0  0  0  0  0
  191.2050  176.6270  146.9010 C   0  0  0  0  0  3  0  0  0  0  0  0
  191.6850  176.8050  145.6350 N   0  0  0  0  0  0  0  0  0  0  0  0
  190.2790  177.1670  142.1770 C   0  0  2  0  0  3  0  0  0  0  0  0
  189.4820  177.3250  144.8880 C   0  0  0  0  0  0  0  0  0  0  0  0
  189.0400  178.0020  140.2560 C   0  0  0  0  0  2  0  0  0  0  0  0
  189.8790  176.7950  147.1720 N   0  0  0  0  0  0  0  0  0  0  0  0
  187.2390  177.8970  144.1540 C   0  0  0  0  0  0  0  0  0  0  0  0
  187.6440  177.3460  146.4470 C   0  0  0  0  0  3  0  0  0  0  0  0
  191.4060  177.3760  143.2030 C   0  0  0  0  0  2  0  0  0  0  0  0
  186.9360  178.6260  141.7300 C   0  0  0  0  0  2  0  0  0  0  0  0
  186.3570  178.3150  143.0660 N   0  0  0  0  0  0  0  0  0  0  0  0
  190.4690  177.6030  140.7260 C   0  0  2  0  0  3  0  0  0  0  0  0
  189.1230  178.0150  142.5590 C   0  0  2  0  0  3  0  0  0  0  0  0
  186.7980  177.7180  145.4360 N   0  0  0  0  0  0  0  0  0  0  0  0
  182.6780  178.6330  142.3490 C   0  0  0  0  0  0  0  0  0  0  0  0
  182.1790  178.9170  143.6210 C   0  0  0  0  0  3  0  0  0  0  0  0
  184.9370  178.4980  143.2520 C   0  0  0  0  0  0  0  0  0  0  0  0
  183.0520  178.9980  144.7100 C   0  0  0  0  0  3  0  0  0  0  0  0
  184.0480  178.4300  142.1660 C   0  0  0  0  0  3  0  0  0  0  0  0
  184.4220  178.7920  144.5250 C   0  0  0  0  0  3  0  0  0  0  0  0
  181.7530  178.5540  141.1890 C   0  0  0  0  0  1  0  0  0  0  0  0
  190.9880  176.4490  139.8780 C   0  0  0  0  0  2  0  0  0  0  0  0
  190.7670  176.6940  138.3900 C   0  0  0  0  0  2  0  0  0  0  0  0
  190.0340  175.5300  137.7360 C   0  0  0  0  0  2  0  0  0  0  0  0
  189.5210  177.4650  136.6760 C   0  0  0  0  0  2  0  0  0  0  0  0
  188.2970  176.9620  136.1630 C   0  0  1  0  0  3  0  0  0  0  0  0
  187.1790  175.3130  136.9720 C   0  0  0  0  0  2  0  0  0  0  0  0
  188.3940  174.8590  136.1800 C   0  0  0  0  0  2  0  0  0  0  0  0
  189.4580  175.9340  136.3790 C   0  0  2  0  0  0  0  0  0  0  0  0
  187.3330  176.6880  137.1320 O   0  0  0  0  0  0  0  0  0  0  0  0
  1 12  1  0  0  0  0
  1 10  2  0  0  0  0
  2  8  2  0  0  0  0
  2  6  1  0  0  0  0
  3 11  2  0  0  0  0
  3  8  1  0  0  0  0
  4  9  1  6  0  0  0
  4 14  1  0  0  0  0
  4 17  1  0  0  0  0
  5 10  1  0  0  0  0
  6  5  2  0  0  0  0
  7 17  1  0  0  0  0
  7 13  1  1  0  0  0
  8  1  1  0  0  0  0
  9 16  1  0  0  0  0
 11 18  1  0  0  0  0
 13  2  1  0  0  0  0
 14 15  1  0  0  0  0
 15 21  1  0  0  0  0
 15 11  1  0  0  0  0
 16 26  1  6  0  0  0
 16  7  1  0  0  0  0
 17  3  1  1  0  0  0
 18 12  2  0  0  0  0
 19 20  1  0  0  0  0
 20 22  2  0  0  0  0
 21 24  2  0  0  0  0
 23 19  2  0  0  0  0
 23 21  1  0  0  0  0
 24 22  1  0  0  0  0
 25 19  1  0  0  0  0
 27 26  1  0  0  0  0
 28 27  1  0  0  0  0
 30 33  1  0  0  0  0
 30 29  1  1  0  0  0
 30 34  1  0  0  0  0
 31 34  1  0  0  0  0
 32 33  1  0  0  0  0
 32 31  1  0  0  0  0
 33 29  1  0  0  0  0
 33 28  1  1  0  0  0
M  END
>  <MODEL>
4

>  <REMARK>
 VINA RESULT:     -10.2      2.280      7.207
  Name = 
  5 active torsions:
  status: ('A' for Active; 'I' for Inactive)
    1  A    between atoms: C_3  and  C_13
    2  A    between atoms: C_3  and  C_17
    3  A    between atoms: C_12  and  N_28
    4  A    between atoms: C_13  and  C_33
    5  A    between atoms: C_17  and  C_29
                            x       y       z     vdW  Elec       q    Type
                         _______ _______ _______ _____ _____    ______ ____

>  <TORSDO>
F 5

$$$$
=
 OpenBabel10262419103D

 34 41  0  0  1  0  0  0  0  0999 V2000
  186.8620  177.6900  138.0270 C   0  0  0  0  0  0  0  0  0  0  0  0
  186.6890  178.6160  140.2650 C   0  0  0  0  0  0  0  0  0  0  0  0
  188.7340  177.5150  139.5240 C   0  0  0  0  0  0  0  0  0  0  0  0
  190.4040  176.9550  141.2230 C   0  0  2  0  0  3  0  0  0  0  0  0
  184.8760  178.7620  138.7410 C   0  0  0  0  0  3  0  0  0  0  0  0
  185.4250  179.0170  139.9660 N   0  0  0  0  0  0  0  0  0  0  0  0
  188.4320  177.9290  141.9240 C   0  0  2  0  0  3  0  0  0  0  0  0
  187.4350  177.9410  139.2750 C   0  0  0  0  0  0  0  0  0  0  0  0
  190.7360  177.5270  142.5980 C   0  0  0  0  0  2  0  0  0  0  0  0
  185.5910  178.1050  137.7840 N   0  0  0  0  0  0  0  0  0  0  0  0
  189.4920  176.8800  138.5390 C   0  0  0  0  0  0  0  0  0  0  0  0
  187.6260  177.0340  137.0500 C   0  0  0  0  0  3  0  0  0  0  0  0
  187.3090  178.9380  141.6270 C   0  0  0  0  0  2  0  0  0  0  0  0
  191.4770  176.9080  140.1380 C   0  0  0  0  0  2  0  0  0  0  0  0
  190.8700  176.4980  138.8420 N   0  0  0  0  0  0  0  0  0  0  0  0
  189.4040  178.1760  143.0750 C   0  0  2  0  0  3  0  0  0  0  0  0
  189.3760  177.9170  140.7790 C   0  0  2  0  0  3  0  0  0  0  0  0
  188.9110  176.6510  137.3220 N   0  0  0  0  0  0  0  0  0  0  0  0
  193.5610  175.7180  136.3320 C   0  0  0  0  0  0  0  0  0  0  0  0
  193.2620  174.3910  136.0200 C   0  0  0  0  0  3  0  0  0  0  0  0
  191.6970  175.7820  137.8990 C   0  0  0  0  0  0  0  0  0  0  0  0
  192.1820  173.7550  136.6390 C   0  0  0  0  0  3  0  0  0  0  0  0
  192.7800  176.4090  137.2620 C   0  0  0  0  0  3  0  0  0  0  0  0
  191.4030  174.4480  137.5700 C   0  0  0  0  0  3  0  0  0  0  0  0
  194.7050  176.3960  135.6700 C   0  0  0  0  0  1  0  0  0  0  0  0
  188.9220  177.4910  144.3470 C   0  0  0  0  0  2  0  0  0  0  0  0
  187.5630  176.8270  144.1530 C   0  0  0  0  0  2  0  0  0  0  0  0
  186.6620  177.0380  145.3640 C   0  0  0  0  0  2  0  0  0  0  0  0
  186.8890  178.2440  147.2680 C   0  0  0  0  0  2  0  0  0  0  0  0
  185.7950  179.0940  146.9650 C   0  0  1  0  0  3  0  0  0  0  0  0
  184.1760  178.6290  145.6270 C   0  0  0  0  0  2  0  0  0  0  0  0
  185.4510  179.0050  144.8890 C   0  0  0  0  0  2  0  0  0  0  0  0
  186.6050  178.5140  145.7570 C   0  0  2  0  0  0  0  0  0  0  0  0
  184.5540  178.4590  146.9570 O   0  0  0  0  0  0  0  0  0  0  0  0
  1  8  1  0  0  0  0
  2 13  1  0  0  0  0
  4 14  1  6  0  0  0
  4  9  1  0  0  0  0
  5  6  2  0  0  0  0
  6  2  1  0  0  0  0
  7 13  1  6  0  0  0
  7 16  1  0  0  0  0
  8  3  1  0  0  0  0
  8  2  2  0  0  0  0
  9 16  1  0  0  0  0
 10  1  2  0  0  0  0
 10  5  1  0  0  0  0
 11 15  1  0  0  0  0
 11  3  2  0  0  0  0
 12 18  2  0  0  0  0
 12  1  1  0  0  0  0
 15 14  1  0  0  0  0
 16 26  1  1  0  0  0
 17  3  1  6  0  0  0
 17  4  1  0  0  0  0
 17  7  1  0  0  0  0
 18 11  1  0  0  0  0
 19 23  1  0  0  0  0
 20 19  2  0  0  0  0
 20 22  1  0  0  0  0
 21 15  1  0  0  0  0
 22 24  2  0  0  0  0
 23 21  2  0  0  0  0
 24 21  1  0  0  0  0
 25 19  1  0  0  0  0
 27 26  1  0  0  0  0
 27 28  1  0  0  0  0
 30 29  1  1  0  0  0
 31 34  1  0  0  0  0
 32 31  1  0  0  0  0
 32 33  1  0  0  0  0
 33 28  1  1  0  0  0
 33 30  1  0  0  0  0
 33 29  1  0  0  0  0
 34 30  1  0  0  0  0
M  END
>  <MODEL>
5

>  <REMARK>
 VINA RESULT:     -10.0      3.413      5.886
  Name = 
  5 active torsions:
  status: ('A' for Active; 'I' for Inactive)
    1  A    between atoms: C_3  and  C_13
    2  A    between atoms: C_3  and  C_17
    3  A    between atoms: C_12  and  N_28
    4  A    between atoms: C_13  and  C_33
    5  A    between atoms: C_17  and  C_29
                            x       y       z     vdW  Elec       q    Type
                         _______ _______ _______ _____ _____    ______ ____

>  <TORSDO>
F 5

$$$$
=
 OpenBabel10262419103D

 34 41  0  0  1  0  0  0  0  0999 V2000
  189.1450  177.1800  145.9660 C   0  0  0  0  0  0  0  0  0  0  0  0
  190.9220  177.1370  144.3130 C   0  0  0  0  0  0  0  0  0  0  0  0
  188.6330  177.6740  143.6700 C   0  0  0  0  0  0  0  0  0  0  0  0
  188.0980  177.6980  141.2830 C   0  0  2  0  0  3  0  0  0  0  0  0
  191.3670  176.6630  146.5950 C   0  0  0  0  0  3  0  0  0  0  0  0
  191.7930  176.8120  145.3060 N   0  0  0  0  0  0  0  0  0  0  0  0
  190.2430  177.1170  141.9050 C   0  0  2  0  0  3  0  0  0  0  0  0
  189.5640  177.3340  144.6440 C   0  0  0  0  0  0  0  0  0  0  0  0
  188.9280  177.9240  140.0220 C   0  0  0  0  0  2  0  0  0  0  0  0
  190.0550  176.8460  146.9180 N   0  0  0  0  0  0  0  0  0  0  0  0
  187.2950  177.9080  143.9950 C   0  0  0  0  0  0  0  0  0  0  0  0
  187.7940  177.3980  146.2790 C   0  0  0  0  0  3  0  0  0  0  0  0
  191.4140  177.3380  142.8780 C   0  0  0  0  0  2  0  0  0  0  0  0
  186.8930  178.5920  141.5720 C   0  0  0  0  0  2  0  0  0  0  0  0
  186.3700  178.3100  142.9370 N   0  0  0  0  0  0  0  0  0  0  0  0
  190.3730  177.5240  140.4380 C   0  0  2  0  0  3  0  0  0  0  0  0
  189.1100  177.9810  142.3190 C   0  0  2  0  0  3  0  0  0  0  0  0
  186.9090  177.7570  145.2980 N   0  0  0  0  0  0  0  0  0  0  0  0
  182.6700  178.6790  142.3660 C   0  0  0  0  0  0  0  0  0  0  0  0
  182.2240  178.9540  143.6600 C   0  0  0  0  0  3  0  0  0  0  0  0
  184.9600  178.5080  143.1800 C   0  0  0  0  0  0  0  0  0  0  0  0
  183.1390  179.0110  144.7150 C   0  0  0  0  0  3  0  0  0  0  0  0
  184.0300  178.4630  142.1280 C   0  0  0  0  0  3  0  0  0  0  0  0
  184.4980  178.7920  144.4750 C   0  0  0  0  0  3  0  0  0  0  0  0
  181.7000  178.6240  141.2420 C   0  0  0  0  0  1  0  0  0  0  0  0
  190.8480  176.3500  139.5920 C   0  0  0  0  0  2  0  0  0  0  0  0
  192.0050  176.7400  138.6790 C   0  0  0  0  0  2  0  0  0  0  0  0
  192.0650  175.8500  137.4440 C   0  0  0  0  0  2  0  0  0  0  0  0
  191.0610  173.8770  136.9580 C   0  0  0  0  0  2  0  0  0  0  0  0
  190.3560  174.4090  135.8480 C   0  0  1  0  0  3  0  0  0  0  0  0
  190.9050  176.1670  134.7360 C   0  0  0  0  0  2  0  0  0  0  0  0
  190.2620  176.5010  136.0720 C   0  0  0  0  0  2  0  0  0  0  0  0
  190.6680  175.3870  137.0300 C   0  0  2  0  0  0  0  0  0  0  0  0
  191.1660  174.7990  134.7810 O   0  0  0  0  0  0  0  0  0  0  0  0
  1 12  1  0  0  0  0
  1 10  2  0  0  0  0
  2  8  2  0  0  0  0
  2  6  1  0  0  0  0
  3 11  2  0  0  0  0
  3  8  1  0  0  0  0
  4  9  1  6  0  0  0
  4 14  1  0  0  0  0
  4 17  1  0  0  0  0
  5 10  1  0  0  0  0
  6  5  2  0  0  0  0
  7 17  1  0  0  0  0
  7 13  1  1  0  0  0
  8  1  1  0  0  0  0
  9 16  1  0  0  0  0
 11 18  1  0  0  0  0
 13  2  1  0  0  0  0
 14 15  1  0  0  0  0
 15 21  1  0  0  0  0
 15 11  1  0  0  0  0
 16 26  1  6  0  0  0
 16  7  1  0  0  0  0
 17  3  1  1  0  0  0
 18 12  2  0  0  0  0
 19 20  1  0  0  0  0
 20 22  2  0  0  0  0
 21 24  2  0  0  0  0
 23 19  2  0  0  0  0
 23 21  1  0  0  0  0
 24 22  1  0  0  0  0
 25 19  1  0  0  0  0
 27 26  1  0  0  0  0
 28 27  1  0  0  0  0
 29 33  1  0  0  0  0
 30 29  1  1  0  0  0
 30 33  1  0  0  0  0
 31 34  1  0  0  0  0
 31 32  1  0  0  0  0
 32 33  1  0  0  0  0
 33 28  1  6  0  0  0
 34 30  1  0  0  0  0
M  END
>  <MODEL>
6

>  <REMARK>
 VINA RESULT:     -10.0      2.766      7.983
  Name = 
  5 active torsions:
  status: ('A' for Active; 'I' for Inactive)
    1  A    between atoms: C_3  and  C_13
    2  A    between atoms: C_3  and  C_17
    3  A    between atoms: C_12  and  N_28
    4  A    between atoms: C_13  and  C_33
    5  A    between atoms: C_17  and  C_29
                            x       y       z     vdW  Elec       q    Type
                         _______ _______ _______ _____ _____    ______ ____

>  <TORSDO>
F 5

$$$$
=
 OpenBabel10262419103D

 34 41  0  0  1  0  0  0  0  0999 V2000
  187.9160  177.9720  140.4490 C   0  0  0  0  0  0  0  0  0  0  0  0
  185.6740  178.6840  139.8480 C   0  0  0  0  0  0  0  0  0  0  0  0
  186.3030  178.3780  142.1840 C   0  0  0  0  0  0  0  0  0  0  0  0
  184.5110  178.3440  143.8490 C   0  0  2  0  0  3  0  0  0  0  0  0
  187.3110  178.2730  138.1810 C   0  0  0  0  0  3  0  0  0  0  0  0
  186.0470  178.6440  138.5410 N   0  0  0  0  0  0  0  0  0  0  0  0
  183.9200  178.5570  141.6290 C   0  0  2  0  0  3  0  0  0  0  0  0
  186.6280  178.3470  140.8330 C   0  0  0  0  0  0  0  0  0  0  0  0
  183.1040  178.9330  143.8900 C   0  0  0  0  0  2  0  0  0  0  0  0
  188.2340  177.9410  139.1280 N   0  0  0  0  0  0  0  0  0  0  0  0
  187.2510  178.0830  143.1660 C   0  0  0  0  0  0  0  0  0  0  0  0
  188.8560  177.6590  141.4430 C   0  0  0  0  0  3  0  0  0  0  0  0
  184.2670  179.1360  140.2460 C   0  0  0  0  0  2  0  0  0  0  0  0
  185.5230  178.7130  144.9320 C   0  0  0  0  0  2  0  0  0  0  0  0
  186.8650  178.1790  144.5730 N   0  0  0  0  0  0  0  0  0  0  0  0
  182.7010  179.0690  142.3930 C   0  0  2  0  0  3  0  0  0  0  0  0
  184.9990  178.9180  142.5800 C   0  0  2  0  0  3  0  0  0  0  0  0
  188.5080  177.7240  142.7660 N   0  0  0  0  0  0  0  0  0  0  0  0
  189.9620  177.1110  146.4230 C   0  0  0  0  0  0  0  0  0  0  0  0
  189.4970  177.0930  147.7380 C   0  0  0  0  0  3  0  0  0  0  0  0
  187.7680  177.8290  145.6450 C   0  0  0  0  0  0  0  0  0  0  0  0
  188.1710  177.4370  148.0140 C   0  0  0  0  0  3  0  0  0  0  0  0
  189.1010  177.4720  145.3830 C   0  0  0  0  0  3  0  0  0  0  0  0
  187.3120  177.8000  146.9720 C   0  0  0  0  0  3  0  0  0  0  0  0
  191.3700  176.7390  146.1280 C   0  0  0  0  0  1  0  0  0  0  0  0
  181.4800  178.2050  142.1060 C   0  0  0  0  0  2  0  0  0  0  0  0
  180.6420  178.7690  140.9650 C   0  0  0  0  0  2  0  0  0  0  0  0
  180.7850  177.9310  139.7000 C   0  0  0  0  0  2  0  0  0  0  0  0
  182.1740  176.2070  139.2180 C   0  0  0  0  0  2  0  0  0  0  0  0
  181.1090  175.2960  138.9930 C   0  0  1  0  0  3  0  0  0  0  0  0
  179.0880  175.8280  138.4820 C   0  0  0  0  0  2  0  0  0  0  0  0
  179.3920  176.0450  139.9550 C   0  0  0  0  0  2  0  0  0  0  0  0
  180.8630  176.4410  140.0330 C   0  0  2  0  0  0  0  0  0  0  0  0
  180.3220  175.5910  137.8800 O   0  0  0  0  0  0  0  0  0  0  0  0
  1  8  2  0  0  0  0
  1 12  1  0  0  0  0
  2 13  1  0  0  0  0
  2  8  1  0  0  0  0
  3 11  2  0  0  0  0
  4  9  1  1  0  0  0
  4 14  1  0  0  0  0
  5  6  1  0  0  0  0
  5 10  2  0  0  0  0
  6  2  2  0  0  0  0
  7 13  1  6  0  0  0
  7 16  1  0  0  0  0
  7 17  1  0  0  0  0
  8  3  1  0  0  0  0
 10  1  1  0  0  0  0
 11 15  1  0  0  0  0
 12 18  2  0  0  0  0
 15 14  1  0  0  0  0
 15 21  1  0  0  0  0
 16 26  1  1  0  0  0
 16  9  1  0  0  0  0
 17  3  1  6  0  0  0
 17  4  1  0  0  0  0
 18 11  1  0  0  0  0
 19 20  1  0  0  0  0
 20 22  2  0  0  0  0
 21 24  2  0  0  0  0
 23 21  1  0  0  0  0
 23 19  2  0  0  0  0
 24 22  1  0  0  0  0
 25 19  1  0  0  0  0
 27 26  1  0  0  0  0
 28 27  1  0  0  0  0
 29 33  1  0  0  0  0
 30 29  1  6  0  0  0
 30 33  1  0  0  0  0
 31 32  1  0  0  0  0
 32 33  1  0  0  0  0
 33 28  1  6  0  0  0
 34 31  1  0  0  0  0
 34 30  1  0  0  0  0
M  END
>  <MODEL>
7

>  <REMARK>
 VINA RESULT:      -9.8      2.411      5.882
  Name = 
  5 active torsions:
  status: ('A' for Active; 'I' for Inactive)
    1  A    between atoms: C_3  and  C_13
    2  A    between atoms: C_3  and  C_17
    3  A    between atoms: C_12  and  N_28
    4  A    between atoms: C_13  and  C_33
    5  A    between atoms: C_17  and  C_29
                            x       y       z     vdW  Elec       q    Type
                         _______ _______ _______ _____ _____    ______ ____

>  <TORSDO>
F 5

$$$$
=
 OpenBabel10262419103D

 34 41  0  0  1  0  0  0  0  0999 V2000
  187.9350  177.9860  140.7250 C   0  0  0  0  0  0  0  0  0  0  0  0
  185.7150  178.6810  140.0310 C   0  0  0  0  0  0  0  0  0  0  0  0
  186.2580  178.4130  142.3930 C   0  0  0  0  0  0  0  0  0  0  0  0
  184.4060  178.3990  143.9920 C   0  0  2  0  0  3  0  0  0  0  0  0
  187.4130  178.2490  138.4320 C   0  0  0  0  0  3  0  0  0  0  0  0
  186.1360  178.6220  138.7400 N   0  0  0  0  0  0  0  0  0  0  0  0
  183.8960  178.5760  141.7480 C   0  0  2  0  0  3  0  0  0  0  0  0
  186.6330  178.3620  141.0560 C   0  0  0  0  0  0  0  0  0  0  0  0
  182.9970  178.9850  143.9720 C   0  0  0  0  0  2  0  0  0  0  0  0
  188.3010  177.9350  139.4170 N   0  0  0  0  0  0  0  0  0  0  0  0
  187.1700  178.1370  143.4130 C   0  0  0  0  0  0  0  0  0  0  0  0
  188.8390  177.6920  141.7580 C   0  0  0  0  0  3  0  0  0  0  0  0
  184.2920  179.1350  140.3700 C   0  0  0  0  0  2  0  0  0  0  0  0
  185.3770  178.7880  145.1050 C   0  0  0  0  0  2  0  0  0  0  0  0
  186.7330  178.2530  144.8030 N   0  0  0  0  0  0  0  0  0  0  0  0
  182.6490  179.0960  142.4590 C   0  0  2  0  0  3  0  0  0  0  0  0
  184.9390  178.9550  142.7330 C   0  0  2  0  0  3  0  0  0  0  0  0
  188.4420  177.7760  143.0650 N   0  0  0  0  0  0  0  0  0  0  0  0
  189.7430  177.1620  146.7800 C   0  0  0  0  0  0  0  0  0  0  0  0
  189.2470  177.2270  148.0820 C   0  0  0  0  0  3  0  0  0  0  0  0
  187.5960  177.9230  145.9130 C   0  0  0  0  0  0  0  0  0  0  0  0
  187.9290  177.6340  148.3080 C   0  0  0  0  0  3  0  0  0  0  0  0
  188.9200  177.5030  145.7020 C   0  0  0  0  0  3  0  0  0  0  0  0
  187.1090  177.9770  147.2290 C   0  0  0  0  0  3  0  0  0  0  0  0
  191.1410  176.7230  146.5380 C   0  0  0  0  0  1  0  0  0  0  0  0
  181.4420  178.2230  142.1410 C   0  0  0  0  0  2  0  0  0  0  0  0
  180.3030  179.0310  141.5300 C   0  0  0  0  0  2  0  0  0  0  0  0
  180.4560  179.1560  140.0190 C   0  0  0  0  0  2  0  0  0  0  0  0
  179.6200  181.2530  140.2170 C   0  0  0  0  0  2  0  0  0  0  0  0
  179.9890  181.6190  138.8970 C   0  0  1  0  0  3  0  0  0  0  0  0
  180.3530  180.2590  137.2700 C   0  0  0  0  0  2  0  0  0  0  0  0
  181.5100  180.3110  138.2540 C   0  0  0  0  0  2  0  0  0  0  0  0
  180.8920  180.5670  139.6250 C   0  0  2  0  0  0  0  0  0  0  0  0
  179.3050  180.9340  137.8940 O   0  0  0  0  0  0  0  0  0  0  0  0
  1  8  2  0  0  0  0
  1 12  1  0  0  0  0
  2 13  1  0  0  0  0
  2  8  1  0  0  0  0
  3 11  2  0  0  0  0
  4  9  1  1  0  0  0
  4 14  1  0  0  0  0
  5  6  1  0  0  0  0
  5 10  2  0  0  0  0
  6  2  2  0  0  0  0
  7 13  1  6  0  0  0
  7 16  1  0  0  0  0
  7 17  1  0  0  0  0
  8  3  1  0  0  0  0
 10  1  1  0  0  0  0
 11 15  1  0  0  0  0
 12 18  2  0  0  0  0
 15 14  1  0  0  0  0
 15 21  1  0  0  0  0
 16 26  1  1  0  0  0
 16  9  1  0  0  0  0
 17  3  1  6  0  0  0
 17  4  1  0  0  0  0
 18 11  1  0  0  0  0
 19 20  1  0  0  0  0
 20 22  2  0  0  0  0
 21 24  2  0  0  0  0
 23 21  1  0  0  0  0
 23 19  2  0  0  0  0
 24 22  1  0  0  0  0
 25 19  1  0  0  0  0
 27 26  1  0  0  0  0
 28 27  1  0  0  0  0
 30 33  1  0  0  0  0
 30 29  1  1  0  0  0
 31 34  1  0  0  0  0
 31 32  1  0  0  0  0
 32 33  1  0  0  0  0
 33 28  1  6  0  0  0
 33 29  1  0  0  0  0
 34 30  1  0  0  0  0
M  END
>  <MODEL>
8

>  <REMARK>
 VINA RESULT:      -9.8      2.496      5.909
  Name = 
  5 active torsions:
  status: ('A' for Active; 'I' for Inactive)
    1  A    between atoms: C_3  and  C_13
    2  A    between atoms: C_3  and  C_17
    3  A    between atoms: C_12  and  N_28
    4  A    between atoms: C_13  and  C_33
    5  A    between atoms: C_17  and  C_29
                            x       y       z     vdW  Elec       q    Type
                         _______ _______ _______ _____ _____    ______ ____

>  <TORSDO>
F 5

$$$$
=
 OpenBabel10262419103D

 34 41  0  0  1  0  0  0  0  0999 V2000
  186.0520  178.6240  140.6740 C   0  0  0  0  0  0  0  0  0  0  0  0
  187.5910  177.9070  142.4100 C   0  0  0  0  0  0  0  0  0  0  0  0
  185.2550  178.3780  142.9280 C   0  0  0  0  0  0  0  0  0  0  0  0
  184.6300  178.5680  145.2860 C   0  0  2  0  0  3  0  0  0  0  0  0
  188.3170  178.1640  140.1660 C   0  0  0  0  0  3  0  0  0  0  0  0
  188.5700  177.8420  141.4690 N   0  0  0  0  0  0  0  0  0  0  0  0
  186.8520  178.1980  144.7830 C   0  0  2  0  0  3  0  0  0  0  0  0
  186.2950  178.3010  142.0100 C   0  0  0  0  0  0  0  0  0  0  0  0
  185.2190  178.0070  146.5780 C   0  0  0  0  0  2  0  0  0  0  0  0
  187.0690  178.5500  139.7760 N   0  0  0  0  0  0  0  0  0  0  0  0
  183.9630  178.7290  142.5350 C   0  0  0  0  0  0  0  0  0  0  0  0
  184.7530  178.9950  140.2920 C   0  0  0  0  0  3  0  0  0  0  0  0
  187.8730  177.5110  143.8610 C   0  0  0  0  0  2  0  0  0  0  0  0
  183.1790  178.2640  144.9160 C   0  0  0  0  0  2  0  0  0  0  0  0
  182.8980  178.7470  143.5360 N   0  0  0  0  0  0  0  0  0  0  0  0
  186.7190  177.7660  146.2420 C   0  0  2  0  0  3  0  0  0  0  0  0
  185.4860  177.8920  144.2920 C   0  0  2  0  0  3  0  0  0  0  0  0
  183.7470  179.0360  141.2190 N   0  0  0  0  0  0  0  0  0  0  0  0
  179.9530  180.2280  141.7230 C   0  0  0  0  0  0  0  0  0  0  0  0
  178.9310  180.0130  142.6490 C   0  0  0  0  0  3  0  0  0  0  0  0
  181.5510  179.1610  143.2210 C   0  0  0  0  0  0  0  0  0  0  0  0
  179.2110  179.3780  143.8620 C   0  0  0  0  0  3  0  0  0  0  0  0
  181.2550  179.8090  142.0110 C   0  0  0  0  0  3  0  0  0  0  0  0
  180.5140  178.9570  144.1470 C   0  0  0  0  0  3  0  0  0  0  0  0
  179.6590  180.9090  140.4360 C   0  0  0  0  0  1  0  0  0  0  0  0
  187.5960  178.6270  147.1420 C   0  0  0  0  0  2  0  0  0  0  0  0
  188.5230  177.7830  148.0080 C   0  0  0  0  0  2  0  0  0  0  0  0
  189.3490  176.8190  147.1650 C   0  0  0  0  0  2  0  0  0  0  0  0
  190.5220  177.1000  145.2470 C   0  0  0  0  0  2  0  0  0  0  0  0
  191.7610  176.7650  145.8520 C   0  0  1  0  0  3  0  0  0  0  0  0
  192.0100  175.6070  147.6470 C   0  0  0  0  0  2  0  0  0  0  0  0
  191.5680  177.0340  147.9320 C   0  0  0  0  0  2  0  0  0  0  0  0
  190.6830  177.4470  146.7610 C   0  0  2  0  0  0  0  0  0  0  0  0
  191.8590  175.4400  146.2730 O   0  0  0  0  0  0  0  0  0  0  0  0
  1  8  1  0  0  0  0
  2 13  1  0  0  0  0
  4 14  1  6  0  0  0
  4  9  1  0  0  0  0
  5  6  1  0  0  0  0
  6  2  2  0  0  0  0
  7 13  1  6  0  0  0
  7 16  1  0  0  0  0
  8  2  1  0  0  0  0
  8  3  2  0  0  0  0
 10  5  2  0  0  0  0
 10  1  1  0  0  0  0
 11  3  1  0  0  0  0
 11 15  1  0  0  0  0
 12  1  2  0  0  0  0
 12 18  1  0  0  0  0
 15 14  1  0  0  0  0
 16  9  1  0  0  0  0
 16 26  1  1  0  0  0
 17  3  1  6  0  0  0
 17  7  1  0  0  0  0
 17  4  1  0  0  0  0
 18 11  2  0  0  0  0
 19 23  2  0  0  0  0
 19 20  1  0  0  0  0
 20 22  2  0  0  0  0
 21 15  1  0  0  0  0
 21 24  2  0  0  0  0
 22 24  1  0  0  0  0
 23 21  1  0  0  0  0
 25 19  1  0  0  0  0
 26 27  1  0  0  0  0
 28 27  1  0  0  0  0
 29 33  1  0  0  0  0
 30 29  1  6  0  0  0
 30 34  1  0  0  0  0
 30 33  1  0  0  0  0
 31 32  1  0  0  0  0
 33 28  1  1  0  0  0
 33 32  1  0  0  0  0
 34 31  1  0  0  0  0
M  END
>  <MODEL>
9

>  <REMARK>
 VINA RESULT:      -9.8      3.405      8.906
  Name = 
  5 active torsions:
  status: ('A' for Active; 'I' for Inactive)
    1  A    between atoms: C_3  and  C_13
    2  A    between atoms: C_3  and  C_17
    3  A    between atoms: C_12  and  N_28
    4  A    between atoms: C_13  and  C_33
    5  A    between atoms: C_17  and  C_29
                            x       y       z     vdW  Elec       q    Type
                         _______ _______ _______ _____ _____    ______ ____

>  <TORSDO>
F 5

$$$$
