=
 OpenBabel10252414503D

 34 38  0  0  1  0  0  0  0  0999 V2000
  189.6770  177.2500  137.6590 C   0  0  0  0  0  0  0  0  0  0  0  0
  191.0990  177.1860  139.5940 C   0  0  0  0  0  0  0  0  0  0  0  0
  188.9450  178.1550  139.9590 C   0  0  0  0  0  2  0  0  0  0  0  0
  191.2370  177.5600  141.3220 S   0  0  0  0  0  0  0  0  0  0  0  0
  190.6920  176.5910  136.9250 C   0  0  0  0  0  0  0  0  0  0  0  0
  192.0570  176.5290  138.8960 N   0  0  0  0  0  0  0  0  0  0  0  0
  191.8990  176.2160  137.5810 C   0  0  0  0  0  0  0  0  0  0  0  0
  189.4250  177.7910  141.3660 C   0  0  2  0  0  3  0  0  0  0  0  0
  189.9080  177.5300  139.0150 C   0  0  0  0  0  0  0  0  0  0  0  0
  187.6720  178.6790  137.6560 N   0  0  0  0  0  2  0  0  0  0  0  0
  187.3540  176.4330  136.8350 C   0  0  1  0  0  3  0  0  0  0  0  0
  186.3090  178.3310  137.7520 C   0  0  0  0  0  0  0  0  0  0  0  0
  185.9870  176.9940  137.2130 C   0  0  0  0  0  2  0  0  0  0  0  0
  188.3640  177.5940  136.9900 C   0  0  2  0  0  3  0  0  0  0  0  0
  185.4530  179.0960  138.2650 O   0  0  0  0  0  0  0  0  0  0  0  0
  187.6520  175.3560  137.6700 O   0  0  0  0  0  1  0  0  0  0  0  0
  194.2530  173.4480  136.4450 C   0  0  0  0  0  0  0  0  0  0  0  0
  195.1740  174.1750  135.6930 C   0  0  0  0  0  3  0  0  0  0  0  0
  193.0050  175.4870  136.9080 C   0  0  0  0  0  0  0  0  0  0  0  0
  195.0210  175.5540  135.5500 C   0  0  0  0  0  3  0  0  0  0  0  0
  193.1780  174.1010  137.0540 C   0  0  0  0  0  3  0  0  0  0  0  0
  193.9460  176.2060  136.1590 C   0  0  0  0  0  3  0  0  0  0  0  0
  194.4080  172.0780  136.5960 O   0  0  0  0  0  1  0  0  0  0  0  0
  190.1520  174.9130  135.1960 C   0  0  0  0  0  1  0  0  0  0  0  0
  190.5000  176.3610  135.4560 C   0  0  0  0  0  2  0  0  0  0  0  0
  188.8240  176.5980  141.7620 O   0  0  0  0  0  0  0  0  0  0  0  0
  189.5810  176.1520  142.8480 C   0  0  0  0  0  2  0  0  0  0  0  0
  190.6730  176.6650  145.7360 O   0  0  0  0  0  1  0  0  0  0  0  0
  188.8750  176.4800  144.1570 C   0  0  1  0  0  3  0  0  0  0  0  0
  189.7290  177.4130  145.0290 C   0  0  1  0  0  3  0  0  0  0  0  0
  187.6150  177.5520  146.4110 C   0  0  0  0  0  2  0  0  0  0  0  0
  186.7140  177.2800  145.1970 C   0  0  0  0  0  2  0  0  0  0  0  0
  187.4900  177.0700  143.8920 C   0  0  0  0  0  2  0  0  0  0  0  0
  188.9040  178.2610  146.0060 C   0  0  0  0  0  2  0  0  0  0  0  0
  1  9  1  0  0  0  0
  2  4  1  0  0  0  0
  3  8  1  0  0  0  0
  4  8  1  0  0  0  0
  5  7  1  0  0  0  0
  5  1  2  0  0  0  0
  6  2  1  0  0  0  0
  7  6  2  0  0  0  0
  8 26  1  6  0  0  0
  9  2  2  0  0  0  0
  9  3  1  0  0  0  0
 10 12  1  0  0  0  0
 11 14  1  0  0  0  0
 11 13  1  0  0  0  0
 11 16  1  1  0  0  0
 12 15  2  0  0  0  0
 13 12  1  0  0  0  0
 14 10  1  0  0  0  0
 14  1  1  1  0  0  0
 17 23  1  0  0  0  0
 17 21  1  0  0  0  0
 18 17  2  0  0  0  0
 19 21  2  0  0  0  0
 19  7  1  0  0  0  0
 20 18  1  0  0  0  0
 20 22  2  0  0  0  0
 22 19  1  0  0  0  0
 24 25  1  0  0  0  0
 25  5  1  0  0  0  0
 26 27  1  0  0  0  0
 29 27  1  6  0  0  0
 29 30  1  0  0  0  0
 30 28  1  1  0  0  0
 30 34  1  0  0  0  0
 32 31  1  0  0  0  0
 33 29  1  0  0  0  0
 33 32  1  0  0  0  0
 34 31  1  0  0  0  0
M  END
>  <MODEL>
1

>  <REMARK>
 VINA RESULT:      -8.0      0.000      0.000
  Name = 
  6 active torsions:
  status: ('A' for Active; 'I' for Inactive)
    1  A    between atoms: C_3  and  C_13
    2  A    between atoms: C_3  and  O_17
    3  A    between atoms: C_4  and  C_15
    4  A    between atoms: C_12  and  C_28
    5  A    between atoms: O_17  and  C_29
    6  A    between atoms: C_21  and  C_32
                            x       y       z     vdW  Elec       q    Type
                         _______ _______ _______ _____ _____    ______ ____

>  <TORSDO>
F 6

$$$$
=
 OpenBabel10252414503D

 34 38  0  0  1  0  0  0  0  0999 V2000
  188.9900  176.9090  138.6740 C   0  0  0  0  0  0  0  0  0  0  0  0
  190.6410  177.3040  140.3740 C   0  0  0  0  0  0  0  0  0  0  0  0
  188.4190  177.9720  140.9520 C   0  0  0  0  0  2  0  0  0  0  0  0
  190.9360  177.9080  142.0150 S   0  0  0  0  0  0  0  0  0  0  0  0
  189.9980  176.3260  137.8700 C   0  0  0  0  0  0  0  0  0  0  0  0
  191.5970  176.7190  139.6140 N   0  0  0  0  0  0  0  0  0  0  0  0
  191.3250  176.2230  138.3760 C   0  0  0  0  0  0  0  0  0  0  0  0
  189.1310  177.8640  142.3020 C   0  0  2  0  0  3  0  0  0  0  0  0
  189.3440  177.3880  139.9450 C   0  0  0  0  0  0  0  0  0  0  0  0
  187.2600  175.8860  137.2540 N   0  0  0  0  0  2  0  0  0  0  0  0
  187.1270  178.2820  137.4980 C   0  0  1  0  0  3  0  0  0  0  0  0
  186.5320  176.4290  136.1750 C   0  0  0  0  0  0  0  0  0  0  0  0
  186.3300  177.8900  136.2570 C   0  0  0  0  0  2  0  0  0  0  0  0
  187.5630  176.9620  138.1750 C   0  0  2  0  0  3  0  0  0  0  0  0
  186.1070  175.7230  135.2260 O   0  0  0  0  0  0  0  0  0  0  0  0
  188.2150  179.0650  137.1130 O   0  0  0  0  0  1  0  0  0  0  0  0
  194.4760  175.7390  136.2950 C   0  0  0  0  0  0  0  0  0  0  0  0
  194.4770  174.3550  136.1330 C   0  0  0  0  0  3  0  0  0  0  0  0
  192.4420  175.5930  137.6250 C   0  0  0  0  0  0  0  0  0  0  0  0
  193.4640  173.5860  136.7070 C   0  0  0  0  0  3  0  0  0  0  0  0
  193.4610  176.3550  137.0310 C   0  0  0  0  0  3  0  0  0  0  0  0
  192.4500  174.2030  137.4440 C   0  0  0  0  0  3  0  0  0  0  0  0
  195.4770  176.5050  135.7170 O   0  0  0  0  0  1  0  0  0  0  0  0
  190.1520  176.9090  135.4750 C   0  0  0  0  0  1  0  0  0  0  0  0
  189.6600  175.8870  136.4760 C   0  0  0  0  0  2  0  0  0  0  0  0
  188.7960  176.6520  142.9030 O   0  0  0  0  0  0  0  0  0  0  0  0
  187.7040  176.9410  143.7250 C   0  0  0  0  0  2  0  0  0  0  0  0
  186.2720  178.7670  145.8240 O   0  0  0  0  0  1  0  0  0  0  0  0
  188.1760  177.5290  145.0480 C   0  0  1  0  0  3  0  0  0  0  0  0
  187.0230  177.6130  146.0590 C   0  0  1  0  0  3  0  0  0  0  0  0
  188.8870  178.1790  147.6730 C   0  0  0  0  0  2  0  0  0  0  0  0
  189.9260  177.3870  146.8670 C   0  0  0  0  0  2  0  0  0  0  0  0
  189.3540  176.7300  145.6050 C   0  0  0  0  0  2  0  0  0  0  0  0
  187.4880  177.5870  147.5210 C   0  0  0  0  0  2  0  0  0  0  0  0
  1  9  1  0  0  0  0
  2  4  1  0  0  0  0
  3  8  1  0  0  0  0
  4  8  1  0  0  0  0
  5  7  1  0  0  0  0
  5  1  2  0  0  0  0
  6  2  1  0  0  0  0
  7  6  2  0  0  0  0
  8 26  1  6  0  0  0
  9  2  2  0  0  0  0
  9  3  1  0  0  0  0
 10 14  1  0  0  0  0
 11 16  1  6  0  0  0
 11 14  1  0  0  0  0
 12 13  1  0  0  0  0
 12 10  1  0  0  0  0
 13 11  1  0  0  0  0
 14  1  1  6  0  0  0
 15 12  2  0  0  0  0
 17 21  1  0  0  0  0
 18 17  2  0  0  0  0
 18 20  1  0  0  0  0
 19  7  1  0  0  0  0
 20 22  2  0  0  0  0
 21 19  2  0  0  0  0
 22 19  1  0  0  0  0
 23 17  1  0  0  0  0
 24 25  1  0  0  0  0
 25  5  1  0  0  0  0
 26 27  1  0  0  0  0
 29 27  1  6  0  0  0
 29 33  1  0  0  0  0
 29 30  1  0  0  0  0
 30 28  1  6  0  0  0
 30 34  1  0  0  0  0
 32 31  1  0  0  0  0
 33 32  1  0  0  0  0
 34 31  1  0  0  0  0
M  END
>  <MODEL>
2

>  <REMARK>
 VINA RESULT:      -7.9      1.739      2.374
  Name = 
  6 active torsions:
  status: ('A' for Active; 'I' for Inactive)
    1  A    between atoms: C_3  and  C_13
    2  A    between atoms: C_3  and  O_17
    3  A    between atoms: C_4  and  C_15
    4  A    between atoms: C_12  and  C_28
    5  A    between atoms: O_17  and  C_29
    6  A    between atoms: C_21  and  C_32
                            x       y       z     vdW  Elec       q    Type
                         _______ _______ _______ _____ _____    ______ ____

>  <TORSDO>
F 6

$$$$
=
 OpenBabel10252414503D

 34 38  0  0  1  0  0  0  0  0999 V2000
  188.5110  177.4360  138.2470 C   0  0  0  0  0  0  0  0  0  0  0  0
  189.9260  177.3420  140.1850 C   0  0  0  0  0  0  0  0  0  0  0  0
  187.8370  178.4550  140.5160 C   0  0  0  0  0  2  0  0  0  0  0  0
  190.0880  177.7590  141.9010 S   0  0  0  0  0  0  0  0  0  0  0  0
  189.4830  176.6920  137.5350 C   0  0  0  0  0  0  0  0  0  0  0  0
  190.8410  176.6050  139.5090 N   0  0  0  0  0  0  0  0  0  0  0  0
  190.6640  176.2620  138.2050 C   0  0  0  0  0  0  0  0  0  0  0  0
  188.2930  178.1050  141.9340 C   0  0  2  0  0  3  0  0  0  0  0  0
  188.7590  177.7430  139.5930 C   0  0  0  0  0  0  0  0  0  0  0  0
  186.4300  178.7450  138.3730 N   0  0  0  0  0  2  0  0  0  0  0  0
  186.2920  176.6850  137.1260 C   0  0  1  0  0  3  0  0  0  0  0  0
  185.0860  178.3230  138.3080 C   0  0  0  0  0  0  0  0  0  0  0  0
  184.8750  177.1010  137.5070 C   0  0  0  0  0  2  0  0  0  0  0  0
  187.2220  177.8400  137.5650 C   0  0  2  0  0  3  0  0  0  0  0  0
  184.1590  178.9370  138.8950 O   0  0  0  0  0  0  0  0  0  0  0  0
  186.6030  175.4830  137.7630 O   0  0  0  0  0  1  0  0  0  0  0  0
  193.9640  175.1830  136.6450 C   0  0  0  0  0  0  0  0  0  0  0  0
  193.6550  173.8870  136.2390 C   0  0  0  0  0  3  0  0  0  0  0  0
  191.7220  175.4450  137.5570 C   0  0  0  0  0  0  0  0  0  0  0  0
  192.3830  173.3670  136.4810 C   0  0  0  0  0  3  0  0  0  0  0  0
  193.0020  175.9600  137.2950 C   0  0  0  0  0  3  0  0  0  0  0  0
  191.4210  174.1440  137.1310 C   0  0  0  0  0  3  0  0  0  0  0  0
  195.2250  175.7050  136.3970 O   0  0  0  0  0  1  0  0  0  0  0  0
  189.8340  177.5730  135.2550 C   0  0  0  0  0  1  0  0  0  0  0  0
  189.2770  176.4300  136.0730 C   0  0  0  0  0  2  0  0  0  0  0  0
  187.6190  176.9640  142.3660 O   0  0  0  0  0  0  0  0  0  0  0  0
  187.7920  176.9420  143.7520 C   0  0  0  0  0  2  0  0  0  0  0  0
  187.0980  177.3180  146.7800 O   0  0  0  0  0  1  0  0  0  0  0  0
  186.5160  177.3900  144.4530 C   0  0  1  0  0  3  0  0  0  0  0  0
  186.8350  178.1920  145.7240 C   0  0  1  0  0  3  0  0  0  0  0  0
  184.3510  178.6700  145.6750 C   0  0  0  0  0  2  0  0  0  0  0  0
  184.2780  178.5250  144.1480 C   0  0  0  0  0  2  0  0  0  0  0  0
  185.6240  178.1820  143.4980 C   0  0  0  0  0  2  0  0  0  0  0  0
  185.7220  179.1680  146.1260 C   0  0  0  0  0  2  0  0  0  0  0  0
  1  9  1  0  0  0  0
  2  4  1  0  0  0  0
  3  8  1  0  0  0  0
  4  8  1  0  0  0  0
  5  7  1  0  0  0  0
  5  1  2  0  0  0  0
  6  2  1  0  0  0  0
  7  6  2  0  0  0  0
  8 26  1  6  0  0  0
  9  2  2  0  0  0  0
  9  3  1  0  0  0  0
 11 13  1  0  0  0  0
 11 14  1  0  0  0  0
 11 16  1  1  0  0  0
 12 10  1  0  0  0  0
 12 15  2  0  0  0  0
 13 12  1  0  0  0  0
 14  1  1  1  0  0  0
 14 10  1  0  0  0  0
 17 21  1  0  0  0  0
 18 20  1  0  0  0  0
 18 17  2  0  0  0  0
 19  7  1  0  0  0  0
 20 22  2  0  0  0  0
 21 19  2  0  0  0  0
 22 19  1  0  0  0  0
 23 17  1  0  0  0  0
 24 25  1  0  0  0  0
 25  5  1  0  0  0  0
 26 27  1  0  0  0  0
 29 27  1  6  0  0  0
 29 30  1  0  0  0  0
 30 34  1  0  0  0  0
 30 28  1  1  0  0  0
 31 34  1  0  0  0  0
 32 31  1  0  0  0  0
 33 32  1  0  0  0  0
 33 29  1  0  0  0  0
M  END
>  <MODEL>
3

>  <REMARK>
 VINA RESULT:      -7.7      1.643      2.166
  Name = 
  6 active torsions:
  status: ('A' for Active; 'I' for Inactive)
    1  A    between atoms: C_3  and  C_13
    2  A    between atoms: C_3  and  O_17
    3  A    between atoms: C_4  and  C_15
    4  A    between atoms: C_12  and  C_28
    5  A    between atoms: O_17  and  C_29
    6  A    between atoms: C_21  and  C_32
                            x       y       z     vdW  Elec       q    Type
                         _______ _______ _______ _____ _____    ______ ____

>  <TORSDO>
F 6

$$$$
=
 OpenBabel10252414503D

 34 38  0  0  1  0  0  0  0  0999 V2000
  184.7030  178.1710  138.4870 C   0  0  0  0  0  0  0  0  0  0  0  0
  186.7210  178.4440  139.7620 C   0  0  0  0  0  0  0  0  0  0  0  0
  184.7370  179.2380  140.8330 C   0  0  0  0  0  2  0  0  0  0  0  0
  187.4210  179.0080  141.2910 S   0  0  0  0  0  0  0  0  0  0  0  0
  185.4620  177.5380  137.4740 C   0  0  0  0  0  0  0  0  0  0  0  0
  187.4400  177.8120  138.8040 N   0  0  0  0  0  0  0  0  0  0  0  0
  186.8610  177.3490  137.6620 C   0  0  0  0  0  0  0  0  0  0  0  0
  185.7310  179.0700  141.9850 C   0  0  2  0  0  3  0  0  0  0  0  0
  185.3680  178.6120  139.6420 C   0  0  0  0  0  0  0  0  0  0  0  0
  182.7090  179.5550  138.8930 N   0  0  0  0  0  2  0  0  0  0  0  0
  182.3450  177.1710  138.9080 C   0  0  1  0  0  3  0  0  0  0  0  0
  181.5320  179.2630  139.6120 C   0  0  0  0  0  0  0  0  0  0  0  0
  181.1740  177.8300  139.6290 C   0  0  0  0  0  2  0  0  0  0  0  0
  183.2060  178.3170  138.3290 C   0  0  2  0  0  3  0  0  0  0  0  0
  180.8600  180.1520  140.1940 O   0  0  0  0  0  0  0  0  0  0  0  0
  183.0530  176.3810  139.8130 O   0  0  0  0  0  1  0  0  0  0  0  0
  188.9290  174.6940  135.8830 C   0  0  0  0  0  0  0  0  0  0  0  0
  189.4730  175.4370  134.8380 C   0  0  0  0  0  3  0  0  0  0  0  0
  187.7350  176.6620  136.6760 C   0  0  0  0  0  0  0  0  0  0  0  0
  189.1600  176.7910  134.7100 C   0  0  0  0  0  3  0  0  0  0  0  0
  188.0700  175.3040  136.8000 C   0  0  0  0  0  3  0  0  0  0  0  0
  188.3010  177.4000  135.6270 C   0  0  0  0  0  3  0  0  0  0  0  0
  189.2470  173.3510  136.0170 O   0  0  0  0  0  1  0  0  0  0  0  0
  184.4210  175.6720  136.2360 C   0  0  0  0  0  1  0  0  0  0  0  0
  184.7870  177.1390  136.1960 C   0  0  0  0  0  2  0  0  0  0  0  0
  185.4680  177.8730  142.6480 O   0  0  0  0  0  0  0  0  0  0  0  0
  185.1390  178.2450  143.9540 C   0  0  0  0  0  2  0  0  0  0  0  0
  185.6800  179.4550  146.7880 O   0  0  0  0  0  1  0  0  0  0  0  0
  186.3820  178.2540  144.8330 C   0  0  1  0  0  3  0  0  0  0  0  0
  186.0090  178.1810  146.3210 C   0  0  1  0  0  3  0  0  0  0  0  0
  188.4980  177.8360  146.6120 C   0  0  0  0  0  2  0  0  0  0  0  0
  188.6490  177.2030  145.2210 C   0  0  0  0  0  2  0  0  0  0  0  0
  187.3340  177.1260  144.4360 C   0  0  0  0  0  2  0  0  0  0  0  0
  187.1130  177.5780  147.1990 C   0  0  0  0  0  2  0  0  0  0  0  0
  1  9  1  0  0  0  0
  2  4  1  0  0  0  0
  3  8  1  0  0  0  0
  4  8  1  0  0  0  0
  5  7  1  0  0  0  0
  5  1  2  0  0  0  0
  6  2  1  0  0  0  0
  7  6  2  0  0  0  0
  8 26  1  6  0  0  0
  9  2  2  0  0  0  0
  9  3  1  0  0  0  0
 10 12  1  0  0  0  0
 11 13  1  0  0  0  0
 11 16  1  1  0  0  0
 12 13  1  0  0  0  0
 12 15  2  0  0  0  0
 14  1  1  1  0  0  0
 14 10  1  0  0  0  0
 14 11  1  0  0  0  0
 17 23  1  0  0  0  0
 17 21  1  0  0  0  0
 18 17  2  0  0  0  0
 19 21  2  0  0  0  0
 19  7  1  0  0  0  0
 20 18  1  0  0  0  0
 20 22  2  0  0  0  0
 22 19  1  0  0  0  0
 25 24  1  0  0  0  0
 25  5  1  0  0  0  0
 26 27  1  0  0  0  0
 29 27  1  6  0  0  0
 29 30  1  0  0  0  0
 30 28  1  1  0  0  0
 30 34  1  0  0  0  0
 31 34  1  0  0  0  0
 32 31  1  0  0  0  0
 33 29  1  0  0  0  0
 33 32  1  0  0  0  0
M  END
>  <MODEL>
4

>  <REMARK>
 VINA RESULT:      -7.6      3.386      4.828
  Name = 
  6 active torsions:
  status: ('A' for Active; 'I' for Inactive)
    1  A    between atoms: C_3  and  C_13
    2  A    between atoms: C_3  and  O_17
    3  A    between atoms: C_4  and  C_15
    4  A    between atoms: C_12  and  C_28
    5  A    between atoms: O_17  and  C_29
    6  A    between atoms: C_21  and  C_32
                            x       y       z     vdW  Elec       q    Type
                         _______ _______ _______ _____ _____    ______ ____

>  <TORSDO>
F 6

$$$$
=
 OpenBabel10252414503D

 34 38  0  0  1  0  0  0  0  0999 V2000
  187.8210  178.1660  142.0770 C   0  0  0  0  0  0  0  0  0  0  0  0
  188.1290  178.3150  139.7000 C   0  0  0  0  0  0  0  0  0  0  0  0
  190.1260  177.9170  140.9520 C   0  0  0  0  0  2  0  0  0  0  0  0
  189.2960  178.2260  138.3670 S   0  0  0  0  0  0  0  0  0  0  0  0
  186.4300  178.3400  141.8800 C   0  0  0  0  0  0  0  0  0  0  0  0
  186.7940  178.4510  139.5120 N   0  0  0  0  0  0  0  0  0  0  0  0
  185.9210  178.4680  140.5560 C   0  0  0  0  0  0  0  0  0  0  0  0
  190.4940  177.4840  139.5310 C   0  0  2  0  0  3  0  0  0  0  0  0
  188.6580  178.1480  140.9510 C   0  0  0  0  0  0  0  0  0  0  0  0
  189.6250  178.6460  143.6820 N   0  0  0  0  0  2  0  0  0  0  0  0
  188.5610  176.4940  143.9200 C   0  0  1  0  0  3  0  0  0  0  0  0
  190.4890  177.7660  144.3660 C   0  0  0  0  0  0  0  0  0  0  0  0
  189.9110  176.4330  144.6280 C   0  0  0  0  0  2  0  0  0  0  0  0
  188.3650  177.9610  143.4740 C   0  0  2  0  0  3  0  0  0  0  0  0
  191.6530  178.0970  144.7090 O   0  0  0  0  0  0  0  0  0  0  0  0
  188.5700  175.6090  142.8420 O   0  0  0  0  0  1  0  0  0  0  0  0
  182.6270  179.7790  139.1710 C   0  0  0  0  0  0  0  0  0  0  0  0
  181.7210  178.9020  139.7660 C   0  0  0  0  0  3  0  0  0  0  0  0
  184.4760  178.6140  140.2440 C   0  0  0  0  0  0  0  0  0  0  0  0
  182.1840  177.8870  140.6040 C   0  0  0  0  0  3  0  0  0  0  0  0
  183.9960  179.6390  139.4130 C   0  0  0  0  0  3  0  0  0  0  0  0
  183.5520  177.7470  140.8450 C   0  0  0  0  0  3  0  0  0  0  0  0
  182.1680  180.7940  138.3450 O   0  0  0  0  0  1  0  0  0  0  0  0
  185.2070  179.9010  143.3520 C   0  0  0  0  0  1  0  0  0  0  0  0
  185.5300  178.4500  143.0740 C   0  0  0  0  0  2  0  0  0  0  0  0
  190.4160  176.0950  139.4390 O   0  0  0  0  0  0  0  0  0  0  0  0
  190.4690  175.8180  138.0710 C   0  0  0  0  0  2  0  0  0  0  0  0
  190.6920  173.1500  136.4510 O   0  0  0  0  0  1  0  0  0  0  0  0
  191.6560  174.9170  137.7580 C   0  0  1  0  0  3  0  0  0  0  0  0
  191.5140  174.2760  136.3690 C   0  0  1  0  0  3  0  0  0  0  0  0
  193.9030  173.5620  136.7920 C   0  0  0  0  0  2  0  0  0  0  0  0
  194.1790  174.7640  137.7070 C   0  0  0  0  0  2  0  0  0  0  0  0
  192.9690  175.6880  137.8880 C   0  0  0  0  0  2  0  0  0  0  0  0
  192.8560  173.8920  135.7320 C   0  0  0  0  0  2  0  0  0  0  0  0
  2  9  1  0  0  0  0
  4  8  1  0  0  0  0
  4  2  1  0  0  0  0
  5  1  1  0  0  0  0
  5 25  1  0  0  0  0
  6  2  2  0  0  0  0
  6  7  1  0  0  0  0
  7  5  2  0  0  0  0
  8 26  1  1  0  0  0
  8  3  1  0  0  0  0
  9  3  1  0  0  0  0
  9  1  2  0  0  0  0
 10 12  1  0  0  0  0
 11 16  1  6  0  0  0
 11 13  1  0  0  0  0
 12 13  1  0  0  0  0
 12 15  2  0  0  0  0
 14  1  1  6  0  0  0
 14 10  1  0  0  0  0
 14 11  1  0  0  0  0
 17 21  2  0  0  0  0
 17 18  1  0  0  0  0
 18 20  2  0  0  0  0
 19  7  1  0  0  0  0
 19 22  2  0  0  0  0
 20 22  1  0  0  0  0
 21 19  1  0  0  0  0
 23 17  1  0  0  0  0
 25 24  1  0  0  0  0
 27 26  1  0  0  0  0
 29 33  1  0  0  0  0
 29 27  1  6  0  0  0
 30 28  1  1  0  0  0
 30 29  1  0  0  0  0
 31 32  1  0  0  0  0
 32 33  1  0  0  0  0
 34 30  1  0  0  0  0
 34 31  1  0  0  0  0
M  END
>  <MODEL>
5

>  <REMARK>
 VINA RESULT:      -7.4      2.739      8.882
  Name = 
  6 active torsions:
  status: ('A' for Active; 'I' for Inactive)
    1  A    between atoms: C_3  and  C_13
    2  A    between atoms: C_3  and  O_17
    3  A    between atoms: C_4  and  C_15
    4  A    between atoms: C_12  and  C_28
    5  A    between atoms: O_17  and  C_29
    6  A    between atoms: C_21  and  C_32
                            x       y       z     vdW  Elec       q    Type
                         _______ _______ _______ _____ _____    ______ ____

>  <TORSDO>
F 6

$$$$
=
 OpenBabel10252414503D

 34 38  0  0  1  0  0  0  0  0999 V2000
  189.2290  177.6570  142.2970 C   0  0  0  0  0  0  0  0  0  0  0  0
  188.2980  178.2610  140.1660 C   0  0  0  0  0  0  0  0  0  0  0  0
  190.5640  177.5020  140.0980 C   0  0  0  0  0  2  0  0  0  0  0  0
  188.5900  178.3720  138.4200 S   0  0  0  0  0  0  0  0  0  0  0  0
  187.9790  177.9490  142.8940 C   0  0  0  0  0  0  0  0  0  0  0  0
  187.0950  178.5110  140.7370 N   0  0  0  0  0  0  0  0  0  0  0  0
  186.8930  178.3710  142.0750 C   0  0  0  0  0  0  0  0  0  0  0  0
  190.0820  177.3410  138.6540 C   0  0  2  0  0  3  0  0  0  0  0  0
  189.3590  177.8160  140.9090 C   0  0  0  0  0  0  0  0  0  0  0  0
  189.9070  176.4260  144.3180 N   0  0  0  0  0  2  0  0  0  0  0  0
  191.3890  178.2020  143.6310 C   0  0  1  0  0  3  0  0  0  0  0  0
  190.6820  176.8450  145.4190 C   0  0  0  0  0  0  0  0  0  0  0  0
  191.6770  177.8890  145.0960 C   0  0  0  0  0  2  0  0  0  0  0  0
  190.3700  177.1440  143.1470 C   0  0  2  0  0  3  0  0  0  0  0  0
  190.5240  176.3720  146.5720 O   0  0  0  0  0  0  0  0  0  0  0  0
  190.8910  179.5010  143.5310 O   0  0  0  0  0  1  0  0  0  0  0  0
  183.1090  178.6290  142.3950 C   0  0  0  0  0  0  0  0  0  0  0  0
  182.9910  179.3260  143.5950 C   0  0  0  0  0  3  0  0  0  0  0  0
  185.5340  178.6620  142.6010 C   0  0  0  0  0  0  0  0  0  0  0  0
  184.1370  179.7000  144.2990 C   0  0  0  0  0  3  0  0  0  0  0  0
  184.3730  178.3040  141.8970 C   0  0  0  0  0  3  0  0  0  0  0  0
  185.4000  179.3740  143.8010 C   0  0  0  0  0  3  0  0  0  0  0  0
  181.9710  178.2660  141.6900 O   0  0  0  0  0  1  0  0  0  0  0  0
  186.9010  176.7520  144.7660 C   0  0  0  0  0  1  0  0  0  0  0  0
  187.8450  177.8710  144.3860 C   0  0  0  0  0  2  0  0  0  0  0  0
  189.7520  176.0070  138.4250 O   0  0  0  0  0  0  0  0  0  0  0  0
  190.9750  175.3400  138.3270 C   0  0  0  0  0  2  0  0  0  0  0  0
  193.5530  177.0830  138.0020 O   0  0  0  0  0  1  0  0  0  0  0  0
  191.7360  175.8060  137.0930 C   0  0  1  0  0  3  0  0  0  0  0  0
  193.2460  175.8780  137.3670 C   0  0  1  0  0  3  0  0  0  0  0  0
  193.3720  176.2300  134.8660 C   0  0  0  0  0  2  0  0  0  0  0  0
  192.0770  175.4440  134.6140 C   0  0  0  0  0  2  0  0  0  0  0  0
  191.4250  174.9100  135.8950 C   0  0  0  0  0  2  0  0  0  0  0  0
  194.1050  175.7240  136.1060 C   0  0  0  0  0  2  0  0  0  0  0  0
  1  5  1  0  0  0  0
  2  6  2  0  0  0  0
  2  9  1  0  0  0  0
  3  9  1  0  0  0  0
  4  8  1  0  0  0  0
  4  2  1  0  0  0  0
  5 25  1  0  0  0  0
  6  7  1  0  0  0  0
  7 19  1  0  0  0  0
  7  5  2  0  0  0  0
  8 26  1  1  0  0  0
  8  3  1  0  0  0  0
  9  1  2  0  0  0  0
 10 12  1  0  0  0  0
 11 16  1  1  0  0  0
 11 13  1  0  0  0  0
 12 15  2  0  0  0  0
 13 12  1  0  0  0  0
 14  1  1  1  0  0  0
 14 11  1  0  0  0  0
 14 10  1  0  0  0  0
 17 18  1  0  0  0  0
 18 20  2  0  0  0  0
 19 22  2  0  0  0  0
 21 17  2  0  0  0  0
 21 19  1  0  0  0  0
 22 20  1  0  0  0  0
 23 17  1  0  0  0  0
 25 24  1  0  0  0  0
 27 26  1  0  0  0  0
 29 30  1  0  0  0  0
 29 27  1  1  0  0  0
 30 28  1  6  0  0  0
 31 34  1  0  0  0  0
 32 31  1  0  0  0  0
 32 33  1  0  0  0  0
 33 29  1  0  0  0  0
 34 30  1  0  0  0  0
M  END
>  <MODEL>
6

>  <REMARK>
 VINA RESULT:      -7.1      2.736      9.175
  Name = 
  6 active torsions:
  status: ('A' for Active; 'I' for Inactive)
    1  A    between atoms: C_3  and  C_13
    2  A    between atoms: C_3  and  O_17
    3  A    between atoms: C_4  and  C_15
    4  A    between atoms: C_12  and  C_28
    5  A    between atoms: O_17  and  C_29
    6  A    between atoms: C_21  and  C_32
                            x       y       z     vdW  Elec       q    Type
                         _______ _______ _______ _____ _____    ______ ____

>  <TORSDO>
F 6

$$$$
=
 OpenBabel10252414503D

 34 38  0  0  1  0  0  0  0  0999 V2000
  189.3030  177.6580  142.2470 C   0  0  0  0  0  0  0  0  0  0  0  0
  188.3640  178.1900  140.1010 C   0  0  0  0  0  0  0  0  0  0  0  0
  190.6520  177.4970  140.0570 C   0  0  0  0  0  2  0  0  0  0  0  0
  188.6600  178.2740  138.3550 S   0  0  0  0  0  0  0  0  0  0  0  0
  188.0420  177.9250  142.8340 C   0  0  0  0  0  0  0  0  0  0  0  0
  187.1520  178.4170  140.6620 N   0  0  0  0  0  0  0  0  0  0  0  0
  186.9480  178.2980  142.0020 C   0  0  0  0  0  0  0  0  0  0  0  0
  190.1800  177.2930  138.6150 C   0  0  2  0  0  3  0  0  0  0  0  0
  189.4340  177.7920  140.8570 C   0  0  0  0  0  0  0  0  0  0  0  0
  190.0110  176.4350  144.2620 N   0  0  0  0  0  2  0  0  0  0  0  0
  191.4030  178.3010  143.6320 C   0  0  1  0  0  3  0  0  0  0  0  0
  190.7400  176.8780  145.3850 C   0  0  0  0  0  0  0  0  0  0  0  0
  191.6800  177.9810  145.0970 C   0  0  0  0  0  2  0  0  0  0  0  0
  190.4550  177.1960  143.1120 C   0  0  2  0  0  3  0  0  0  0  0  0
  190.5870  176.3780  146.5280 O   0  0  0  0  0  0  0  0  0  0  0  0
  190.8350  179.5720  143.5420 O   0  0  0  0  0  1  0  0  0  0  0  0
  184.0370  179.0680  144.3310 C   0  0  0  0  0  0  0  0  0  0  0  0
  182.9590  178.9480  143.4570 C   0  0  0  0  0  3  0  0  0  0  0  0
  185.5790  178.5600  142.5170 C   0  0  0  0  0  0  0  0  0  0  0  0
  183.1810  178.6280  142.1170 C   0  0  0  0  0  3  0  0  0  0  0  0
  185.3390  178.8690  143.8650 C   0  0  0  0  0  3  0  0  0  0  0  0
  184.4830  178.4300  141.6520 C   0  0  0  0  0  3  0  0  0  0  0  0
  183.8170  179.3770  145.6650 O   0  0  0  0  0  1  0  0  0  0  0  0
  187.0990  176.6590  144.7330 C   0  0  0  0  0  1  0  0  0  0  0  0
  187.9040  177.8730  144.3260 C   0  0  0  0  0  2  0  0  0  0  0  0
  189.8900  175.9450  138.4120 O   0  0  0  0  0  0  0  0  0  0  0  0
  189.1880  175.9010  137.2060 C   0  0  0  0  0  2  0  0  0  0  0  0
  186.0670  175.8630  136.9790 O   0  0  0  0  0  1  0  0  0  0  0  0
  188.1830  174.7570  137.2180 C   0  0  1  0  0  3  0  0  0  0  0  0
  186.9870  175.0600  136.3030 C   0  0  1  0  0  3  0  0  0  0  0  0
  186.4220  172.6360  136.7530 C   0  0  0  0  0  2  0  0  0  0  0  0
  187.8930  172.2570  136.9790 C   0  0  0  0  0  2  0  0  0  0  0  0
  188.8590  173.4390  136.8410 C   0  0  0  0  0  2  0  0  0  0  0  0
  186.2860  173.8010  135.7770 C   0  0  0  0  0  2  0  0  0  0  0  0
  1  5  1  0  0  0  0
  2  6  2  0  0  0  0
  2  9  1  0  0  0  0
  3  9  1  0  0  0  0
  4  8  1  0  0  0  0
  4  2  1  0  0  0  0
  5 25  1  0  0  0  0
  6  7  1  0  0  0  0
  7 19  1  0  0  0  0
  7  5  2  0  0  0  0
  8 26  1  1  0  0  0
  8  3  1  0  0  0  0
  9  1  2  0  0  0  0
 10 12  1  0  0  0  0
 11 16  1  1  0  0  0
 11 13  1  0  0  0  0
 12 15  2  0  0  0  0
 13 12  1  0  0  0  0
 14  1  1  1  0  0  0
 14 11  1  0  0  0  0
 14 10  1  0  0  0  0
 17 23  1  0  0  0  0
 18 17  2  0  0  0  0
 19 21  2  0  0  0  0
 20 18  1  0  0  0  0
 21 17  1  0  0  0  0
 22 20  2  0  0  0  0
 22 19  1  0  0  0  0
 25 24  1  0  0  0  0
 27 26  1  0  0  0  0
 29 27  1  6  0  0  0
 30 28  1  1  0  0  0
 30 29  1  0  0  0  0
 31 32  1  0  0  0  0
 33 32  1  0  0  0  0
 33 29  1  0  0  0  0
 34 30  1  0  0  0  0
 34 31  1  0  0  0  0
M  END
>  <MODEL>
7

>  <REMARK>
 VINA RESULT:      -7.0      3.179      9.064
  Name = 
  6 active torsions:
  status: ('A' for Active; 'I' for Inactive)
    1  A    between atoms: C_3  and  C_13
    2  A    between atoms: C_3  and  O_17
    3  A    between atoms: C_4  and  C_15
    4  A    between atoms: C_12  and  C_28
    5  A    between atoms: O_17  and  C_29
    6  A    between atoms: C_21  and  C_32
                            x       y       z     vdW  Elec       q    Type
                         _______ _______ _______ _____ _____    ______ ____

>  <TORSDO>
F 6

$$$$
=
 OpenBabel10252414503D

 34 38  0  0  1  0  0  0  0  0999 V2000
  187.7560  178.2280  139.1490 C   0  0  0  0  0  0  0  0  0  0  0  0
  185.9750  178.6280  140.7110 C   0  0  0  0  0  0  0  0  0  0  0  0
  185.3180  178.6250  138.4130 C   0  0  0  0  0  2  0  0  0  0  0  0
  184.2380  178.9240  140.9050 S   0  0  0  0  0  0  0  0  0  0  0  0
  188.6430  178.0780  140.2420 C   0  0  0  0  0  0  0  0  0  0  0  0
  186.8220  178.4550  141.7550 N   0  0  0  0  0  0  0  0  0  0  0  0
  188.1420  178.1830  141.5700 C   0  0  0  0  0  0  0  0  0  0  0  0
  184.0060  178.4030  139.1680 C   0  0  2  0  0  3  0  0  0  0  0  0
  186.4050  178.4980  139.4180 C   0  0  0  0  0  0  0  0  0  0  0  0
  187.5740  178.9080  136.7900 N   0  0  0  0  0  2  0  0  0  0  0  0
  188.2190  176.6140  137.1690 C   0  0  1  0  0  3  0  0  0  0  0  0
  187.2800  178.1410  135.6440 C   0  0  0  0  0  0  0  0  0  0  0  0
  187.6970  176.7270  135.7400 C   0  0  0  0  0  2  0  0  0  0  0  0
  188.2640  178.0530  137.7350 C   0  0  2  0  0  3  0  0  0  0  0  0
  186.7020  178.6270  134.6390 O   0  0  0  0  0  0  0  0  0  0  0  0
  187.3720  175.7830  137.9010 O   0  0  0  0  0  1  0  0  0  0  0  0
  190.9330  178.5530  144.1330 C   0  0  0  0  0  0  0  0  0  0  0  0
  190.5960  177.5490  145.0390 C   0  0  0  0  0  3  0  0  0  0  0  0
  188.9840  178.0020  142.7810 C   0  0  0  0  0  0  0  0  0  0  0  0
  189.4620  176.7660  144.8200 C   0  0  0  0  0  3  0  0  0  0  0  0
  190.1350  178.7730  143.0070 C   0  0  0  0  0  3  0  0  0  0  0  0
  188.6650  176.9880  143.6950 C   0  0  0  0  0  3  0  0  0  0  0  0
  192.0650  179.3260  144.3440 O   0  0  0  0  0  1  0  0  0  0  0  0
  190.4500  176.4060  140.0380 C   0  0  0  0  0  1  0  0  0  0  0  0
  190.1050  177.8780  139.9740 C   0  0  0  0  0  2  0  0  0  0  0  0
  183.6820  177.0480  139.1410 O   0  0  0  0  0  0  0  0  0  0  0  0
  183.6250  176.7140  137.7860 C   0  0  0  0  0  2  0  0  0  0  0  0
  181.2190  174.7890  138.3320 O   0  0  0  0  0  1  0  0  0  0  0  0
  183.4710  175.2090  137.6150 C   0  0  1  0  0  3  0  0  0  0  0  0
  182.0380  174.8410  137.2020 C   0  0  1  0  0  3  0  0  0  0  0  0
  183.0570  172.5550  136.8380 C   0  0  0  0  0  2  0  0  0  0  0  0
  184.4450  173.1390  136.5390 C   0  0  0  0  0  2  0  0  0  0  0  0
  184.4980  174.6690  136.6210 C   0  0  0  0  0  2  0  0  0  0  0  0
  181.9440  173.5180  136.4320 C   0  0  0  0  0  2  0  0  0  0  0  0
  1  9  2  0  0  0  0
  1  5  1  0  0  0  0
  2  4  1  0  0  0  0
  2  6  2  0  0  0  0
  3  8  1  0  0  0  0
  3  9  1  0  0  0  0
  5  7  2  0  0  0  0
  7  6  1  0  0  0  0
  7 19  1  0  0  0  0
  8 26  1  1  0  0  0
  8  4  1  0  0  0  0
  9  2  1  0  0  0  0
 10 14  1  0  0  0  0
 11 14  1  0  0  0  0
 11 16  1  1  0  0  0
 12 13  1  0  0  0  0
 12 10  1  0  0  0  0
 13 11  1  0  0  0  0
 14  1  1  1  0  0  0
 15 12  2  0  0  0  0
 17 23  1  0  0  0  0
 17 18  1  0  0  0  0
 19 21  1  0  0  0  0
 19 22  2  0  0  0  0
 20 18  2  0  0  0  0
 21 17  2  0  0  0  0
 22 20  1  0  0  0  0
 25 24  1  0  0  0  0
 25  5  1  0  0  0  0
 27 26  1  0  0  0  0
 29 27  1  6  0  0  0
 30 29  1  0  0  0  0
 30 28  1  1  0  0  0
 32 33  1  0  0  0  0
 32 31  1  0  0  0  0
 33 29  1  0  0  0  0
 34 31  1  0  0  0  0
 34 30  1  0  0  0  0
M  END
>  <MODEL>
8

>  <REMARK>
 VINA RESULT:      -7.0      3.607      7.452
  Name = 
  6 active torsions:
  status: ('A' for Active; 'I' for Inactive)
    1  A    between atoms: C_3  and  C_13
    2  A    between atoms: C_3  and  O_17
    3  A    between atoms: C_4  and  C_15
    4  A    between atoms: C_12  and  C_28
    5  A    between atoms: O_17  and  C_29
    6  A    between atoms: C_21  and  C_32
                            x       y       z     vdW  Elec       q    Type
                         _______ _______ _______ _____ _____    ______ ____

>  <TORSDO>
F 6

$$$$
=
 OpenBabel10252414503D

 34 38  0  0  1  0  0  0  0  0999 V2000
  187.7210  178.2350  139.1270 C   0  0  0  0  0  0  0  0  0  0  0  0
  185.8960  178.5970  140.6460 C   0  0  0  0  0  0  0  0  0  0  0  0
  185.2960  178.5930  138.3320 C   0  0  0  0  0  2  0  0  0  0  0  0
  184.1490  178.8620  140.7980 S   0  0  0  0  0  0  0  0  0  0  0  0
  188.5840  178.0950  140.2410 C   0  0  0  0  0  0  0  0  0  0  0  0
  186.7190  178.4330  141.7100 N   0  0  0  0  0  0  0  0  0  0  0  0
  188.0480  178.1840  141.5570 C   0  0  0  0  0  0  0  0  0  0  0  0
  183.9690  178.3450  139.0530 C   0  0  2  0  0  3  0  0  0  0  0  0
  186.3600  178.4800  139.3640 C   0  0  0  0  0  0  0  0  0  0  0  0
  187.5850  178.9210  136.7670 N   0  0  0  0  0  2  0  0  0  0  0  0
  188.2630  176.6380  137.1530 C   0  0  1  0  0  3  0  0  0  0  0  0
  187.3340  178.1530  135.6110 C   0  0  0  0  0  0  0  0  0  0  0  0
  187.7740  176.7470  135.7120 C   0  0  0  0  0  2  0  0  0  0  0  0
  188.2670  178.0750  137.7250 C   0  0  2  0  0  3  0  0  0  0  0  0
  186.7730  178.6330  134.5940 O   0  0  0  0  0  0  0  0  0  0  0  0
  187.4140  175.7880  137.8610 O   0  0  0  0  0  1  0  0  0  0  0  0
  190.8220  178.5140  144.1430 C   0  0  0  0  0  0  0  0  0  0  0  0
  190.4160  177.5750  145.0890 C   0  0  0  0  0  3  0  0  0  0  0  0
  188.8630  178.0120  142.7880 C   0  0  0  0  0  0  0  0  0  0  0  0
  189.2420  176.8470  144.8880 C   0  0  0  0  0  3  0  0  0  0  0  0
  190.0530  178.7270  142.9960 C   0  0  0  0  0  3  0  0  0  0  0  0
  188.4740  177.0620  143.7420 C   0  0  0  0  0  3  0  0  0  0  0  0
  191.9930  179.2310  144.3360 O   0  0  0  0  0  1  0  0  0  0  0  0
  190.4220  176.4550  140.0680 C   0  0  0  0  0  1  0  0  0  0  0  0
  190.0550  177.9210  140.0090 C   0  0  0  0  0  2  0  0  0  0  0  0
  183.6700  176.9840  139.0120 O   0  0  0  0  0  0  0  0  0  0  0  0
  182.7000  176.7940  139.9980 C   0  0  0  0  0  2  0  0  0  0  0  0
  179.7070  176.3320  140.7860 O   0  0  0  0  0  1  0  0  0  0  0  0
  181.6790  175.7580  139.5460 C   0  0  1  0  0  3  0  0  0  0  0  0
  180.2640  176.3540  139.5060 C   0  0  1  0  0  3  0  0  0  0  0  0
  179.7110  174.1740  138.3490 C   0  0  0  0  0  2  0  0  0  0  0  0
  181.1330  174.0230  137.7900 C   0  0  0  0  0  2  0  0  0  0  0  0
  182.0760  175.1620  138.1950 C   0  0  0  0  0  2  0  0  0  0  0  0
  179.3280  175.6420  138.5210 C   0  0  0  0  0  2  0  0  0  0  0  0
  1  9  2  0  0  0  0
  1  5  1  0  0  0  0
  2  4  1  0  0  0  0
  2  6  2  0  0  0  0
  3  8  1  0  0  0  0
  3  9  1  0  0  0  0
  5  7  2  0  0  0  0
  7  6  1  0  0  0  0
  7 19  1  0  0  0  0
  8 26  1  1  0  0  0
  8  4  1  0  0  0  0
  9  2  1  0  0  0  0
 10 14  1  0  0  0  0
 11 14  1  0  0  0  0
 11 16  1  1  0  0  0
 12 13  1  0  0  0  0
 12 10  1  0  0  0  0
 13 11  1  0  0  0  0
 14  1  1  1  0  0  0
 15 12  2  0  0  0  0
 17 23  1  0  0  0  0
 17 18  1  0  0  0  0
 19 21  1  0  0  0  0
 19 22  2  0  0  0  0
 20 18  2  0  0  0  0
 21 17  2  0  0  0  0
 22 20  1  0  0  0  0
 25 24  1  0  0  0  0
 25  5  1  0  0  0  0
 26 27  1  0  0  0  0
 29 27  1  6  0  0  0
 30 29  1  0  0  0  0
 30 28  1  1  0  0  0
 31 34  1  0  0  0  0
 32 33  1  0  0  0  0
 32 31  1  0  0  0  0
 33 29  1  0  0  0  0
 34 30  1  0  0  0  0
M  END
>  <MODEL>
9

>  <REMARK>
 VINA RESULT:      -7.0      3.610      7.440
  Name = 
  6 active torsions:
  status: ('A' for Active; 'I' for Inactive)
    1  A    between atoms: C_3  and  C_13
    2  A    between atoms: C_3  and  O_17
    3  A    between atoms: C_4  and  C_15
    4  A    between atoms: C_12  and  C_28
    5  A    between atoms: O_17  and  C_29
    6  A    between atoms: C_21  and  C_32
                            x       y       z     vdW  Elec       q    Type
                         _______ _______ _______ _____ _____    ______ ____

>  <TORSDO>
F 6

$$$$
