=
 OpenBabel10262421493D

 30 32  0  0  1  0  0  0  0  0999 V2000
  188.1430  177.6460  140.5790 C   0  0  0  0  0  2  0  0  0  0  0  0
  188.5380  178.2630  139.3050 C   0  0  2  0  0  3  0  0  0  0  0  0
  187.3880  178.5140  141.4020 C   0  0  0  0  0  2  0  0  0  0  0  0
  187.2520  178.2490  136.1330 O   0  0  0  0  0  0  0  0  0  0  0  0
  182.4170  178.1150  139.0220 O   0  0  0  0  0  0  0  0  0  0  0  0
  187.3900  178.3070  138.2470 C   0  0  2  0  0  3  0  0  0  0  0  0
  186.4650  177.1670  136.6570 C   0  0  2  0  0  0  0  0  0  0  0  0
  187.0990  176.9850  137.8990 O   0  0  0  0  0  0  0  0  0  0  0  0
  187.3880  179.0860  137.1210 O   0  0  0  0  0  0  0  0  0  0  0  0
  183.4460  177.4830  139.2860 C   0  0  0  0  0  0  0  0  0  0  0  0
  183.9260  177.6200  140.6110 N   0  0  0  0  0  2  0  0  0  0  0  0
  186.6370  176.1030  135.8770 O   0  0  0  0  0  1  0  0  0  0  0  0
  185.3980  178.0820  142.7160 C   0  0  2  0  0  3  0  0  0  0  0  0
  184.9830  177.5840  136.9140 C   0  0  0  0  0  2  0  0  0  0  0  0
  186.8810  178.2350  142.7770 C   0  0  1  0  0  3  0  0  0  0  0  0
  183.1630  178.1890  141.7960 C   0  0  1  0  0  3  0  0  0  0  0  0
  185.0950  179.6090  142.6500 C   0  0  0  0  0  2  0  0  0  0  0  0
  184.2480  176.3610  138.0670 S   0  0  0  0  0  0  0  0  0  0  0  0
  184.0280  178.6620  142.9700 C   0  0  2  0  0  3  0  0  0  0  0  0
  187.3250  177.0760  143.6780 C   0  0  0  0  0  0  0  0  0  0  0  0
  188.1810  176.2860  143.1540 C   0  0  0  0  0  2  0  0  0  0  0  0
  186.1200  177.4280  146.0170 O   0  0  0  0  0  1  0  0  0  0  0  0
  187.2930  177.3120  145.1880 C   0  0  0  0  0  0  0  0  0  0  0  0
  188.3480  177.7610  145.7000 O   0  0  0  0  0  0  0  0  0  0  0  0
  189.8610  177.7400  138.8960 C   0  0  0  0  0  2  0  0  0  0  0  0
  190.0950  176.7270  139.8710 O   0  0  0  0  0  1  0  0  0  0  0  0
  182.1190  179.0910  141.5570 O   0  0  0  0  0  0  0  0  0  0  0  0
  181.2120  178.9530  142.6180 C   0  0  0  0  0  2  0  0  0  0  0  0
  180.0060  179.6970  142.3220 C   0  0  0  0  0  3  0  0  0  0  0  0
  179.9660  180.8500  142.6650 O   0  0  0  0  0  0  0  0  0  0  0  0
  1  3  1  0  0  0  0
  2 25  1  6  0  0  0
  2  1  1  0  0  0  0
  3 15  1  0  0  0  0
  4  7  1  0  0  0  0
  4  9  1  0  0  0  0
  5 10  2  0  0  0  0
  6  9  1  6  0  0  0
  6  2  1  0  0  0  0
  7 12  1  6  0  0  0
  7 14  1  0  0  0  0
  7  8  1  0  0  0  0
  8  6  1  0  0  0  0
 10 11  1  0  0  0  0
 11 16  1  0  0  0  0
 13 17  1  6  0  0  0
 13 15  1  0  0  0  0
 13 19  1  0  0  0  0
 14 18  1  0  0  0  0
 15 20  1  6  0  0  0
 16 27  1  6  0  0  0
 16 19  1  0  0  0  0
 18 10  1  0  0  0  0
 19 17  1  6  0  0  0
 20 23  1  0  0  0  0
 21 20  2  0  0  0  0
 23 24  2  0  0  0  0
 23 22  1  0  0  0  0
 25 26  1  0  0  0  0
 27 28  1  0  0  0  0
 29 28  1  0  0  0  0
 29 30  2  0  0  0  0
M  END
>  <MODEL>
1

>  <REMARK>
 VINA RESULT:      -7.0      0.000      0.000
  Name = 
  6 active torsions:
  status: ('A' for Active; 'I' for Inactive)
    1  A    between atoms: C_2  and  C_20
    2  A    between atoms: C_2  and  C_22
    3  A    between atoms: C_3  and  C_10
    4  A    between atoms: C_4  and  C_27
    5  A    between atoms: C_10  and  O_25
    6  A    between atoms: C_23  and  O_25
                            x       y       z     vdW  Elec       q    Type
                         _______ _______ _______ _____ _____    ______ ____

>  <TORSDO>
F 6

$$$$
=
 OpenBabel10262421493D

 30 32  0  0  1  0  0  0  0  0999 V2000
  184.8000  178.7760  141.1270 C   0  0  0  0  0  2  0  0  0  0  0  0
  184.3770  178.2120  139.8380 C   0  0  2  0  0  3  0  0  0  0  0  0
  185.1790  177.7880  142.0640 C   0  0  0  0  0  2  0  0  0  0  0  0
  185.9350  177.6420  136.8430 O   0  0  0  0  0  0  0  0  0  0  0  0
  190.2710  176.5890  140.2820 O   0  0  0  0  0  0  0  0  0  0  0  0
  185.5670  177.7710  138.9260 C   0  0  2  0  0  3  0  0  0  0  0  0
  186.9440  178.4880  137.4190 C   0  0  2  0  0  0  0  0  0  0  0  0
  186.2650  178.9280  138.5690 O   0  0  0  0  0  0  0  0  0  0  0  0
  185.4590  176.9480  137.8360 O   0  0  0  0  0  0  0  0  0  0  0  0
  189.4490  177.5040  140.4000 C   0  0  0  0  0  0  0  0  0  0  0  0
  188.8150  177.6010  141.6610 N   0  0  0  0  0  2  0  0  0  0  0  0
  187.1720  179.5000  136.5870 O   0  0  0  0  0  1  0  0  0  0  0  0
  187.0610  177.7230  143.5910 C   0  0  2  0  0  3  0  0  0  0  0  0
  188.2060  177.6840  137.8660 C   0  0  0  0  0  2  0  0  0  0  0  0
  185.6000  178.0030  143.4800 C   0  0  1  0  0  3  0  0  0  0  0  0
  189.2510  176.9200  142.9490 C   0  0  1  0  0  3  0  0  0  0  0  0
  186.9120  176.1720  143.6160 C   0  0  0  0  0  2  0  0  0  0  0  0
  189.1400  178.7220  139.0540 S   0  0  0  0  0  0  0  0  0  0  0  0
  188.1680  176.7950  144.0270 C   0  0  2  0  0  3  0  0  0  0  0  0
  185.4210  179.3000  144.2800 C   0  0  0  0  0  0  0  0  0  0  0  0
  184.7970  180.2290  143.6640 C   0  0  0  0  0  2  0  0  0  0  0  0
  186.4440  178.8970  146.6950 O   0  0  0  0  0  1  0  0  0  0  0  0
  185.3490  179.1780  145.8010 C   0  0  0  0  0  0  0  0  0  0  0  0
  184.2080  178.9870  146.2870 O   0  0  0  0  0  0  0  0  0  0  0  0
  183.3140  179.0610  139.2550 C   0  0  0  0  0  2  0  0  0  0  0  0
  183.9660  180.3250  139.1500 O   0  0  0  0  0  1  0  0  0  0  0  0
  190.0070  175.7440  142.8680 O   0  0  0  0  0  0  0  0  0  0  0  0
  191.1240  175.9210  143.6980 C   0  0  0  0  0  2  0  0  0  0  0  0
  191.6910  177.2330  143.4690 C   0  0  0  0  0  3  0  0  0  0  0  0
  191.8990  177.9240  144.4330 O   0  0  0  0  0  0  0  0  0  0  0  0
  1  3  1  0  0  0  0
  2 25  1  6  0  0  0
  2  1  1  0  0  0  0
  3 15  1  0  0  0  0
  4  7  1  0  0  0  0
  4  9  1  0  0  0  0
  5 10  2  0  0  0  0
  6  9  1  6  0  0  0
  6  2  1  0  0  0  0
  7 12  1  6  0  0  0
  7 14  1  0  0  0  0
  7  8  1  0  0  0  0
  8  6  1  0  0  0  0
 10 11  1  0  0  0  0
 11 16  1  0  0  0  0
 13 17  1  6  0  0  0
 13 19  1  0  0  0  0
 14 18  1  0  0  0  0
 15 13  1  0  0  0  0
 15 20  1  6  0  0  0
 16 27  1  6  0  0  0
 16 19  1  0  0  0  0
 18 10  1  0  0  0  0
 19 17  1  6  0  0  0
 20 23  1  0  0  0  0
 21 20  2  0  0  0  0
 23 24  2  0  0  0  0
 23 22  1  0  0  0  0
 26 25  1  0  0  0  0
 27 28  1  0  0  0  0
 29 28  1  0  0  0  0
 29 30  2  0  0  0  0
M  END
>  <MODEL>
2

>  <REMARK>
 VINA RESULT:      -6.5      2.522      5.680
  Name = 
  6 active torsions:
  status: ('A' for Active; 'I' for Inactive)
    1  A    between atoms: C_2  and  C_20
    2  A    between atoms: C_2  and  C_22
    3  A    between atoms: C_3  and  C_10
    4  A    between atoms: C_4  and  C_27
    5  A    between atoms: C_10  and  O_25
    6  A    between atoms: C_23  and  O_25
                            x       y       z     vdW  Elec       q    Type
                         _______ _______ _______ _____ _____    ______ ____

>  <TORSDO>
F 6

$$$$
=
 OpenBabel10262421493D

 30 32  0  0  1  0  0  0  0  0999 V2000
  184.6030  177.2890  136.7870 C   0  0  0  0  0  2  0  0  0  0  0  0
  185.4020  176.1090  136.4270 C   0  0  2  0  0  3  0  0  0  0  0  0
  183.9190  177.1380  138.0140 C   0  0  0  0  0  2  0  0  0  0  0  0
  188.6890  175.2300  136.8060 O   0  0  0  0  0  0  0  0  0  0  0  0
  188.0120  178.1190  141.5950 O   0  0  0  0  0  0  0  0  0  0  0  0
  186.7570  176.0100  137.1980 C   0  0  2  0  0  3  0  0  0  0  0  0
  188.8310  176.6240  137.1260 C   0  0  2  0  0  0  0  0  0  0  0  0
  187.5480  177.0850  136.7820 O   0  0  0  0  0  0  0  0  0  0  0  0
  187.5300  174.8820  137.2870 O   0  0  0  0  0  0  0  0  0  0  0  0
  187.5670  178.4290  140.4840 C   0  0  0  0  0  0  0  0  0  0  0  0
  186.1800  178.7030  140.4340 N   0  0  0  0  0  2  0  0  0  0  0  0
  189.7540  177.1490  136.3260 O   0  0  0  0  0  1  0  0  0  0  0  0
  183.6360  178.7000  139.8470 C   0  0  2  0  0  3  0  0  0  0  0  0
  189.0480  176.8610  138.6540 C   0  0  0  0  0  2  0  0  0  0  0  0
  182.9780  178.1090  138.6460 C   0  0  1  0  0  3  0  0  0  0  0  0
  185.2630  178.9590  141.6190 C   0  0  1  0  0  3  0  0  0  0  0  0
  183.3770  177.4740  140.7740 C   0  0  0  0  0  2  0  0  0  0  0  0
  188.6560  178.6160  139.0110 S   0  0  0  0  0  0  0  0  0  0  0  0
  183.7670  178.7590  141.3490 C   0  0  2  0  0  3  0  0  0  0  0  0
  182.3430  179.3220  137.9520 C   0  0  0  0  0  0  0  0  0  0  0  0
  181.5890  179.0390  136.9620 C   0  0  0  0  0  2  0  0  0  0  0  0
  180.8680  180.8940  139.4990 O   0  0  0  0  0  1  0  0  0  0  0  0
  182.0870  180.5620  138.8080 C   0  0  0  0  0  0  0  0  0  0  0  0
  182.8780  181.5220  138.6400 O   0  0  0  0  0  0  0  0  0  0  0  0
  185.4090  175.9510  134.9550 C   0  0  0  0  0  2  0  0  0  0  0  0
  185.3620  174.5340  134.8070 O   0  0  0  0  0  1  0  0  0  0  0  0
  185.6150  178.4350  142.8690 O   0  0  0  0  0  0  0  0  0  0  0  0
  184.8500  179.1200  143.8260 C   0  0  0  0  0  2  0  0  0  0  0  0
  185.2510  178.7020  145.1530 C   0  0  0  0  0  3  0  0  0  0  0  0
  184.4980  178.9400  146.0610 O   0  0  0  0  0  0  0  0  0  0  0  0
  1  3  1  0  0  0  0
  2 25  1  6  0  0  0
  2  1  1  0  0  0  0
  2  6  1  0  0  0  0
  3 15  1  0  0  0  0
  4  7  1  0  0  0  0
  4  9  1  0  0  0  0
  6  8  1  6  0  0  0
  6  9  1  0  0  0  0
  7 12  1  6  0  0  0
  7 14  1  0  0  0  0
  8  7  1  0  0  0  0
 10  5  2  0  0  0  0
 11 10  1  0  0  0  0
 11 16  1  0  0  0  0
 13 17  1  6  0  0  0
 13 19  1  0  0  0  0
 14 18  1  0  0  0  0
 15 20  1  6  0  0  0
 15 13  1  0  0  0  0
 16 27  1  1  0  0  0
 18 10  1  0  0  0  0
 19 17  1  1  0  0  0
 19 16  1  0  0  0  0
 20 23  1  0  0  0  0
 21 20  2  0  0  0  0
 23 22  1  0  0  0  0
 24 23  2  0  0  0  0
 26 25  1  0  0  0  0
 27 28  1  0  0  0  0
 28 29  1  0  0  0  0
 29 30  2  0  0  0  0
M  END
>  <MODEL>
3

>  <REMARK>
 VINA RESULT:      -6.2      2.434      5.480
  Name = 
  6 active torsions:
  status: ('A' for Active; 'I' for Inactive)
    1  A    between atoms: C_2  and  C_20
    2  A    between atoms: C_2  and  C_22
    3  A    between atoms: C_3  and  C_10
    4  A    between atoms: C_4  and  C_27
    5  A    between atoms: C_10  and  O_25
    6  A    between atoms: C_23  and  O_25
                            x       y       z     vdW  Elec       q    Type
                         _______ _______ _______ _____ _____    ______ ____

>  <TORSDO>
F 6

$$$$
=
 OpenBabel10262421493D

 30 32  0  0  1  0  0  0  0  0999 V2000
  186.6110  178.0070  138.8940 C   0  0  0  0  0  2  0  0  0  0  0  0
  186.8780  178.1330  137.4540 C   0  0  2  0  0  3  0  0  0  0  0  0
  185.4700  178.7300  139.3090 C   0  0  0  0  0  2  0  0  0  0  0  0
  186.1260  176.2420  134.7010 O   0  0  0  0  0  0  0  0  0  0  0  0
  181.4460  175.3040  137.6940 O   0  0  0  0  0  0  0  0  0  0  0  0
  185.9570  177.2370  136.5650 C   0  0  2  0  0  3  0  0  0  0  0  0
  185.7920  175.2620  135.6970 C   0  0  2  0  0  0  0  0  0  0  0  0
  186.2810  175.9060  136.8470 O   0  0  0  0  0  0  0  0  0  0  0  0
  185.7800  177.3870  135.2150 O   0  0  0  0  0  0  0  0  0  0  0  0
  182.6010  175.3440  138.1340 C   0  0  0  0  0  0  0  0  0  0  0  0
  182.8090  176.2140  139.2300 N   0  0  0  0  0  2  0  0  0  0  0  0
  186.4820  174.1530  135.4460 O   0  0  0  0  0  1  0  0  0  0  0  0
  183.6820  178.0940  140.8170 C   0  0  2  0  0  3  0  0  0  0  0  0
  184.2490  175.0760  135.8510 C   0  0  0  0  0  2  0  0  0  0  0  0
  184.9500  178.8700  140.7010 C   0  0  1  0  0  3  0  0  0  0  0  0
  181.7360  176.8470  140.1020 C   0  0  1  0  0  3  0  0  0  0  0  0
  182.7910  179.1630  140.1160 C   0  0  0  0  0  2  0  0  0  0  0  0
  183.9400  174.2700  137.4690 S   0  0  0  0  0  0  0  0  0  0  0  0
  182.1740  178.0870  140.8890 C   0  0  2  0  0  3  0  0  0  0  0  0
  185.7120  178.5080  141.9820 C   0  0  0  0  0  0  0  0  0  0  0  0
  186.9740  178.6960  141.9280 C   0  0  0  0  0  2  0  0  0  0  0  0
  184.0920  179.7120  143.7050 O   0  0  0  0  0  0  0  0  0  0  0  0
  184.9540  178.6290  143.3040 C   0  0  0  0  0  0  0  0  0  0  0  0
  185.3580  177.9000  144.2420 O   0  0  0  0  0  1  0  0  0  0  0  0
  188.3390  178.1010  137.2200 C   0  0  0  0  0  2  0  0  0  0  0  0
  188.7400  179.3940  137.6660 O   0  0  0  0  0  1  0  0  0  0  0  0
  180.4540  177.0280  139.5680 O   0  0  0  0  0  0  0  0  0  0  0  0
  179.5430  176.7620  140.6020 C   0  0  0  0  0  2  0  0  0  0  0  0
  179.3130  175.3350  140.6860 C   0  0  0  0  0  3  0  0  0  0  0  0
  178.9330  174.8950  141.7400 O   0  0  0  0  0  0  0  0  0  0  0  0
  1  3  1  0  0  0  0
  2 25  1  1  0  0  0
  2  1  1  0  0  0  0
  3 15  1  0  0  0  0
  4  9  1  0  0  0  0
  4  7  1  0  0  0  0
  5 10  2  0  0  0  0
  6  9  1  6  0  0  0
  6  8  1  0  0  0  0
  6  2  1  0  0  0  0
  7 12  1  6  0  0  0
  7 14  1  0  0  0  0
  7  8  1  0  0  0  0
 10 11  1  0  0  0  0
 11 16  1  0  0  0  0
 13 17  1  6  0  0  0
 13 19  1  0  0  0  0
 14 18  1  0  0  0  0
 15 13  1  0  0  0  0
 15 20  1  1  0  0  0
 16 27  1  6  0  0  0
 16 19  1  0  0  0  0
 18 10  1  0  0  0  0
 19 17  1  6  0  0  0
 20 23  1  0  0  0  0
 21 20  2  0  0  0  0
 23 22  2  0  0  0  0
 23 24  1  0  0  0  0
 25 26  1  0  0  0  0
 27 28  1  0  0  0  0
 28 29  1  0  0  0  0
 29 30  2  0  0  0  0
M  END
>  <MODEL>
4

>  <REMARK>
 VINA RESULT:      -5.9      2.286      3.082
  Name = 
  6 active torsions:
  status: ('A' for Active; 'I' for Inactive)
    1  A    between atoms: C_2  and  C_20
    2  A    between atoms: C_2  and  C_22
    3  A    between atoms: C_3  and  C_10
    4  A    between atoms: C_4  and  C_27
    5  A    between atoms: C_10  and  O_25
    6  A    between atoms: C_23  and  O_25
                            x       y       z     vdW  Elec       q    Type
                         _______ _______ _______ _____ _____    ______ ____

>  <TORSDO>
F 6

$$$$
=
 OpenBabel10262421493D

 30 32  0  0  1  0  0  0  0  0999 V2000
  186.4150  178.3170  143.4720 C   0  0  0  0  0  2  0  0  0  0  0  0
  185.0630  177.9690  143.0130 C   0  0  2  0  0  3  0  0  0  0  0  0
  187.3070  177.2210  143.4390 C   0  0  0  0  0  2  0  0  0  0  0  0
  183.4070  178.2150  140.0270 O   0  0  0  0  0  0  0  0  0  0  0  0
  188.5630  177.0820  138.0600 O   0  0  0  0  0  0  0  0  0  0  0  0
  184.9330  177.8780  141.4580 C   0  0  2  0  0  3  0  0  0  0  0  0
  184.5220  179.0550  139.6900 C   0  0  2  0  0  0  0  0  0  0  0  0
  185.1340  179.1640  140.9520 O   0  0  0  0  0  0  0  0  0  0  0  0
  183.8970  177.2810  140.7900 O   0  0  0  0  0  0  0  0  0  0  0  0
  188.2860  177.8390  138.9970 C   0  0  0  0  0  0  0  0  0  0  0  0
  188.9830  177.5990  140.2050 N   0  0  0  0  0  2  0  0  0  0  0  0
  184.0560  180.2330  139.2850 O   0  0  0  0  0  1  0  0  0  0  0  0
  189.6100  177.1040  142.6900 C   0  0  2  0  0  3  0  0  0  0  0  0
  185.5190  178.3530  138.7150 C   0  0  0  0  0  2  0  0  0  0  0  0
  188.7300  177.2050  143.8910 C   0  0  1  0  0  3  0  0  0  0  0  0
  190.2260  176.7410  140.3790 C   0  0  1  0  0  3  0  0  0  0  0  0
  189.4030  175.5730  142.4850 C   0  0  0  0  0  2  0  0  0  0  0  0
  187.1170  179.2480  138.8060 S   0  0  0  0  0  0  0  0  0  0  0  0
  190.5000  176.2620  141.8090 C   0  0  2  0  0  3  0  0  0  0  0  0
  189.4110  178.2830  144.7450 C   0  0  0  0  0  0  0  0  0  0  0  0
  189.0560  178.2980  145.9720 C   0  0  0  0  0  2  0  0  0  0  0  0
  192.0520  178.0580  144.6270 O   0  0  0  0  0  1  0  0  0  0  0  0
  190.8110  178.7260  144.3250 C   0  0  0  0  0  0  0  0  0  0  0  0
  190.9290  179.9230  143.9690 O   0  0  0  0  0  0  0  0  0  0  0  0
  184.0680  178.7690  143.7620 C   0  0  0  0  0  2  0  0  0  0  0  0
  184.8630  179.3340  144.8020 O   0  0  0  0  0  1  0  0  0  0  0  0
  190.4710  175.7140  139.4590 O   0  0  0  0  0  0  0  0  0  0  0  0
  191.6000  176.0940  138.7180 C   0  0  0  0  0  2  0  0  0  0  0  0
  191.7910  175.1690  137.6210 C   0  0  0  0  0  3  0  0  0  0  0  0
  191.1480  174.1510  137.6350 O   0  0  0  0  0  0  0  0  0  0  0  0
  2  1  1  0  0  0  0
  2 25  1  6  0  0  0
  3  1  1  0  0  0  0
  3 15  1  0  0  0  0
  4  9  1  0  0  0  0
  5 10  2  0  0  0  0
  6  9  1  1  0  0  0
  6  2  1  0  0  0  0
  7 12  1  6  0  0  0
  7  4  1  0  0  0  0
  7  8  1  0  0  0  0
  8  6  1  0  0  0  0
 10 11  1  0  0  0  0
 11 16  1  0  0  0  0
 13 17  1  6  0  0  0
 13 15  1  0  0  0  0
 14 18  1  0  0  0  0
 14  7  1  0  0  0  0
 15 20  1  6  0  0  0
 16 27  1  6  0  0  0
 16 19  1  0  0  0  0
 18 10  1  0  0  0  0
 19 17  1  6  0  0  0
 19 13  1  0  0  0  0
 20 21  2  0  0  0  0
 23 22  1  0  0  0  0
 23 20  1  0  0  0  0
 24 23  2  0  0  0  0
 25 26  1  0  0  0  0
 28 27  1  0  0  0  0
 29 30  2  0  0  0  0
 29 28  1  0  0  0  0
M  END
>  <MODEL>
5

>  <REMARK>
 VINA RESULT:      -5.7      2.523      6.477
  Name = 
  6 active torsions:
  status: ('A' for Active; 'I' for Inactive)
    1  A    between atoms: C_2  and  C_20
    2  A    between atoms: C_2  and  C_22
    3  A    between atoms: C_3  and  C_10
    4  A    between atoms: C_4  and  C_27
    5  A    between atoms: C_10  and  O_25
    6  A    between atoms: C_23  and  O_25
                            x       y       z     vdW  Elec       q    Type
                         _______ _______ _______ _____ _____    ______ ____

>  <TORSDO>
F 6

$$$$
=
 OpenBabel10262421493D

 30 32  0  0  1  0  0  0  0  0999 V2000
  186.6140  178.1010  138.6940 C   0  0  0  0  0  2  0  0  0  0  0  0
  186.9030  178.1570  137.2540 C   0  0  2  0  0  3  0  0  0  0  0  0
  185.4260  178.7820  139.0450 C   0  0  0  0  0  2  0  0  0  0  0  0
  186.3120  176.0690  134.6060 O   0  0  0  0  0  0  0  0  0  0  0  0
  181.6290  175.0490  137.5670 O   0  0  0  0  0  0  0  0  0  0  0  0
  186.0510  177.1600  136.4040 C   0  0  2  0  0  3  0  0  0  0  0  0
  186.0120  175.1320  135.6530 C   0  0  2  0  0  0  0  0  0  0  0  0
  186.4410  175.8690  136.7710 O   0  0  0  0  0  0  0  0  0  0  0  0
  185.8940  177.2210  135.0450 O   0  0  0  0  0  0  0  0  0  0  0  0
  182.7710  175.1790  138.0240 C   0  0  0  0  0  0  0  0  0  0  0  0
  182.9080  176.1220  139.0700 N   0  0  0  0  0  2  0  0  0  0  0  0
  186.7660  174.0500  135.4800 O   0  0  0  0  0  1  0  0  0  0  0  0
  183.6450  178.1370  140.5570 C   0  0  2  0  0  3  0  0  0  0  0  0
  184.4790  174.8700  135.7900 C   0  0  0  0  0  2  0  0  0  0  0  0
  184.8710  178.9750  140.4170 C   0  0  1  0  0  3  0  0  0  0  0  0
  181.7850  176.7440  139.8830 C   0  0  1  0  0  3  0  0  0  0  0  0
  182.7110  179.1120  139.7790 C   0  0  0  0  0  2  0  0  0  0  0  0
  184.1800  174.1440  137.4470 S   0  0  0  0  0  0  0  0  0  0  0  0
  182.1390  178.0500  140.6030 C   0  0  2  0  0  3  0  0  0  0  0  0
  185.6250  178.7300  141.7310 C   0  0  0  0  0  0  0  0  0  0  0  0
  184.9130  178.2530  142.6770 C   0  0  0  0  0  2  0  0  0  0  0  0
  187.7900  177.2590  142.1680 O   0  0  0  0  0  1  0  0  0  0  0  0
  187.1170  178.4150  141.6320 C   0  0  0  0  0  0  0  0  0  0  0  0
  187.8680  179.3790  141.3490 O   0  0  0  0  0  0  0  0  0  0  0  0
  188.3680  178.1930  137.0480 C   0  0  0  0  0  2  0  0  0  0  0  0
  188.7540  179.3100  137.8450 O   0  0  0  0  0  1  0  0  0  0  0  0
  180.5060  176.8220  139.3180 O   0  0  0  0  0  0  0  0  0  0  0  0
  179.5890  176.5940  140.3550 C   0  0  0  0  0  2  0  0  0  0  0  0
  179.5170  175.1750  140.6310 C   0  0  0  0  0  3  0  0  0  0  0  0
  178.9840  174.8350  141.6560 O   0  0  0  0  0  0  0  0  0  0  0  0
  1  3  1  0  0  0  0
  2 25  1  1  0  0  0
  2  1  1  0  0  0  0
  3 15  1  0  0  0  0
  4  9  1  0  0  0  0
  4  7  1  0  0  0  0
  5 10  2  0  0  0  0
  6  9  1  6  0  0  0
  6  8  1  0  0  0  0
  6  2  1  0  0  0  0
  7 12  1  6  0  0  0
  7 14  1  0  0  0  0
  7  8  1  0  0  0  0
 10 11  1  0  0  0  0
 11 16  1  0  0  0  0
 13 17  1  6  0  0  0
 13 19  1  0  0  0  0
 14 18  1  0  0  0  0
 15 13  1  0  0  0  0
 15 20  1  1  0  0  0
 16 27  1  6  0  0  0
 16 19  1  0  0  0  0
 18 10  1  0  0  0  0
 19 17  1  6  0  0  0
 20 21  2  0  0  0  0
 23 20  1  0  0  0  0
 23 22  1  0  0  0  0
 24 23  2  0  0  0  0
 25 26  1  0  0  0  0
 27 28  1  0  0  0  0
 28 29  1  0  0  0  0
 29 30  2  0  0  0  0
M  END
>  <MODEL>
6

>  <REMARK>
 VINA RESULT:      -5.7      2.433      3.326
  Name = 
  6 active torsions:
  status: ('A' for Active; 'I' for Inactive)
    1  A    between atoms: C_2  and  C_20
    2  A    between atoms: C_2  and  C_22
    3  A    between atoms: C_3  and  C_10
    4  A    between atoms: C_4  and  C_27
    5  A    between atoms: C_10  and  O_25
    6  A    between atoms: C_23  and  O_25
                            x       y       z     vdW  Elec       q    Type
                         _______ _______ _______ _____ _____    ______ ____

>  <TORSDO>
F 6

$$$$
=
 OpenBabel10262421493D

 30 32  0  0  1  0  0  0  0  0999 V2000
  181.5460  174.9970  137.8240 C   0  0  0  0  0  2  0  0  0  0  0  0
  180.3410  175.8300  137.9290 C   0  0  2  0  0  3  0  0  0  0  0  0
  182.4270  175.4260  136.8050 C   0  0  0  0  0  2  0  0  0  0  0  0
  179.4270  178.4910  139.8800 O   0  0  0  0  0  0  0  0  0  0  0  0
  184.9060  179.6780  139.3160 O   0  0  0  0  0  0  0  0  0  0  0  0
  180.5780  177.1850  138.6710 C   0  0  2  0  0  3  0  0  0  0  0  0
  180.5870  178.0990  140.6320 C   0  0  2  0  0  0  0  0  0  0  0  0
  180.8860  176.8790  139.9990 O   0  0  0  0  0  0  0  0  0  0  0  0
  179.7300  178.2600  138.6350 O   0  0  0  0  0  0  0  0  0  0  0  0
  184.4140  178.5600  139.5070 C   0  0  0  0  0  0  0  0  0  0  0  0
  184.8110  177.5530  138.5950 N   0  0  0  0  0  2  0  0  0  0  0  0
  180.2240  177.9000  141.8960 O   0  0  0  0  0  1  0  0  0  0  0  0
  184.8410  175.6430  136.8160 C   0  0  2  0  0  3  0  0  0  0  0  0
  181.7880  179.0740  140.4210 C   0  0  0  0  0  2  0  0  0  0  0  0
  183.7040  174.7770  136.3870 C   0  0  1  0  0  3  0  0  0  0  0  0
  185.9820  177.6160  137.6280 C   0  0  1  0  0  3  0  0  0  0  0  0
  184.6950  176.6660  135.6490 C   0  0  0  0  0  2  0  0  0  0  0  0
  183.3160  178.2040  140.9410 S   0  0  0  0  0  0  0  0  0  0  0  0
  185.9160  176.6370  136.4500 C   0  0  2  0  0  3  0  0  0  0  0  0
  184.1620  173.3660  136.7760 C   0  0  0  0  0  0  0  0  0  0  0  0
  184.8810  173.3060  137.8300 C   0  0  0  0  0  2  0  0  0  0  0  0
  182.3270  172.1750  135.2730 O   0  0  0  0  0  0  0  0  0  0  0  0
  183.2560  172.2020  136.3750 C   0  0  0  0  0  0  0  0  0  0  0  0
  183.0630  171.3230  137.2490 O   0  0  0  0  0  1  0  0  0  0  0  0
  179.1950  174.9880  138.3390 C   0  0  0  0  0  2  0  0  0  0  0  0
  179.8470  173.8390  138.8750 O   0  0  0  0  0  1  0  0  0  0  0  0
  186.4400  178.8700  137.2040 O   0  0  0  0  0  0  0  0  0  0  0  0
  187.6620  178.6550  136.5480 C   0  0  0  0  0  2  0  0  0  0  0  0
  188.7300  178.6060  137.5240 C   0  0  0  0  0  3  0  0  0  0  0  0
  189.0650  179.6450  138.0330 O   0  0  0  0  0  0  0  0  0  0  0  0
  1  2  1  0  0  0  0
  2 25  1  1  0  0  0
  2  6  1  0  0  0  0
  3  1  1  0  0  0  0
  4  7  1  0  0  0  0
  5 10  2  0  0  0  0
  6  9  1  1  0  0  0
  6  8  1  0  0  0  0
  7 12  1  1  0  0  0
  8  7  1  0  0  0  0
  9  4  1  0  0  0  0
 10 18  1  0  0  0  0
 11 10  1  0  0  0  0
 13 17  1  1  0  0  0
 14  7  1  0  0  0  0
 14 18  1  0  0  0  0
 15 20  1  1  0  0  0
 15  3  1  0  0  0  0
 15 13  1  0  0  0  0
 16 27  1  6  0  0  0
 16 11  1  0  0  0  0
 19 17  1  6  0  0  0
 19 13  1  0  0  0  0
 19 16  1  0  0  0  0
 20 21  2  0  0  0  0
 22 23  2  0  0  0  0
 23 20  1  0  0  0  0
 23 24  1  0  0  0  0
 25 26  1  0  0  0  0
 28 27  1  0  0  0  0
 28 29  1  0  0  0  0
 29 30  2  0  0  0  0
M  END
>  <MODEL>
7

>  <REMARK>
 VINA RESULT:      -5.7      3.564      8.031
  Name = 
  6 active torsions:
  status: ('A' for Active; 'I' for Inactive)
    1  A    between atoms: C_2  and  C_20
    2  A    between atoms: C_2  and  C_22
    3  A    between atoms: C_3  and  C_10
    4  A    between atoms: C_4  and  C_27
    5  A    between atoms: C_10  and  O_25
    6  A    between atoms: C_23  and  O_25
                            x       y       z     vdW  Elec       q    Type
                         _______ _______ _______ _____ _____    ______ ____

>  <TORSDO>
F 6

$$$$
=
 OpenBabel10262421493D

 30 32  0  0  1  0  0  0  0  0999 V2000
  192.0910  175.9200  138.5830 C   0  0  0  0  0  2  0  0  0  0  0  0
  192.9440  175.6980  137.4060 C   0  0  2  0  0  3  0  0  0  0  0  0
  191.2630  177.0590  138.4570 C   0  0  0  0  0  2  0  0  0  0  0  0
  192.6960  173.7570  134.5970 O   0  0  0  0  0  0  0  0  0  0  0  0
  187.2500  175.0540  135.2300 O   0  0  0  0  0  0  0  0  0  0  0  0
  192.1920  175.0480  136.2010 C   0  0  2  0  0  3  0  0  0  0  0  0
  191.6330  173.1420  135.3420 C   0  0  2  0  0  0  0  0  0  0  0  0
  191.8240  173.7570  136.5920 O   0  0  0  0  0  0  0  0  0  0  0  0
  192.6500  175.0200  134.9110 O   0  0  0  0  0  0  0  0  0  0  0  0
  188.0420  174.7580  136.1320 C   0  0  0  0  0  0  0  0  0  0  0  0
  188.1110  175.6710  137.2110 N   0  0  0  0  0  2  0  0  0  0  0  0
  191.8700  171.8350  135.4160 O   0  0  0  0  0  1  0  0  0  0  0  0
  188.9270  177.3610  139.0260 C   0  0  2  0  0  3  0  0  0  0  0  0
  190.2230  173.5420  134.8030 C   0  0  0  0  0  2  0  0  0  0  0  0
  190.3260  177.6080  139.4800 C   0  0  1  0  0  3  0  0  0  0  0  0
  187.1200  176.7800  137.5250 C   0  0  1  0  0  3  0  0  0  0  0  0
  188.8930  178.5410  138.0080 C   0  0  0  0  0  2  0  0  0  0  0  0
  188.9970  173.1840  136.1190 S   0  0  0  0  0  0  0  0  0  0  0  0
  187.6490  177.8990  138.4290 C   0  0  2  0  0  3  0  0  0  0  0  0
  190.2940  177.2220  140.9650 C   0  0  0  0  0  0  0  0  0  0  0  0
  191.4030  177.3670  141.5810 C   0  0  0  0  0  2  0  0  0  0  0  0
  188.2160  178.5890  141.8890 O   0  0  0  0  0  0  0  0  0  0  0  0
  188.9620  177.3710  141.6970 C   0  0  0  0  0  0  0  0  0  0  0  0
  188.6460  176.4320  142.4680 O   0  0  0  0  0  1  0  0  0  0  0  0
  194.2330  175.1130  137.8370 C   0  0  0  0  0  2  0  0  0  0  0  0
  195.1350  175.6270  136.8600 O   0  0  0  0  0  1  0  0  0  0  0  0
  186.3470  177.3090  136.4830 O   0  0  0  0  0  0  0  0  0  0  0  0
  185.0330  177.4130  136.9660 C   0  0  0  0  0  2  0  0  0  0  0  0
  184.5140  176.0900  137.2390 C   0  0  0  0  0  3  0  0  0  0  0  0
  183.7910  175.5960  136.4120 O   0  0  0  0  0  0  0  0  0  0  0  0
  2 25  1  1  0  0  0
  2  1  1  0  0  0  0
  3  1  1  0  0  0  0
  3 15  1  0  0  0  0
  4  9  1  0  0  0  0
  4  7  1  0  0  0  0
  5 10  2  0  0  0  0
  6  9  1  6  0  0  0
  6  8  1  0  0  0  0
  6  2  1  0  0  0  0
  7 12  1  1  0  0  0
  7  8  1  0  0  0  0
 10 11  1  0  0  0  0
 11 16  1  0  0  0  0
 13 17  1  6  0  0  0
 13 15  1  0  0  0  0
 14  7  1  0  0  0  0
 14 18  1  0  0  0  0
 15 20  1  1  0  0  0
 16 27  1  6  0  0  0
 16 19  1  0  0  0  0
 18 10  1  0  0  0  0
 19 17  1  6  0  0  0
 19 13  1  0  0  0  0
 20 21  2  0  0  0  0
 20 23  1  0  0  0  0
 23 22  2  0  0  0  0
 23 24  1  0  0  0  0
 26 25  1  0  0  0  0
 27 28  1  0  0  0  0
 28 29  1  0  0  0  0
 30 29  2  0  0  0  0
M  END
>  <MODEL>
8

>  <REMARK>
 VINA RESULT:      -5.6      4.054      6.004
  Name = 
  6 active torsions:
  status: ('A' for Active; 'I' for Inactive)
    1  A    between atoms: C_2  and  C_20
    2  A    between atoms: C_2  and  C_22
    3  A    between atoms: C_3  and  C_10
    4  A    between atoms: C_4  and  C_27
    5  A    between atoms: C_10  and  O_25
    6  A    between atoms: C_23  and  O_25
                            x       y       z     vdW  Elec       q    Type
                         _______ _______ _______ _____ _____    ______ ____

>  <TORSDO>
F 6

$$$$
=
 OpenBabel10262421493D

 30 32  0  0  1  0  0  0  0  0999 V2000
  184.8130  177.9290  139.5160 C   0  0  0  0  0  2  0  0  0  0  0  0
  184.4190  178.9610  140.4850 C   0  0  2  0  0  3  0  0  0  0  0  0
  185.8630  178.3430  138.6660 C   0  0  0  0  0  2  0  0  0  0  0  0
  185.2260  179.6210  143.7460 O   0  0  0  0  0  0  0  0  0  0  0  0
  190.2120  177.6600  142.0060 O   0  0  0  0  0  0  0  0  0  0  0  0
  185.3900  179.0800  141.7030 C   0  0  2  0  0  3  0  0  0  0  0  0
  185.7780  178.2960  143.6830 C   0  0  2  0  0  0  0  0  0  0  0  0
  185.2900  177.8890  142.4280 O   0  0  0  0  0  0  0  0  0  0  0  0
  185.4370  180.1390  142.5710 O   0  0  0  0  0  0  0  0  0  0  0  0
  189.1020  177.2020  141.7120 C   0  0  0  0  0  0  0  0  0  0  0  0
  188.8530  177.0370  140.3290 N   0  0  0  0  0  2  0  0  0  0  0  0
  185.2430  177.5680  144.6580 O   0  0  0  0  0  1  0  0  0  0  0  0
  187.8380  177.1480  137.9270 C   0  0  2  0  0  3  0  0  0  0  0  0
  187.3380  178.3080  143.6270 C   0  0  0  0  0  2  0  0  0  0  0  0
  186.4630  177.5750  137.5360 C   0  0  1  0  0  3  0  0  0  0  0  0
  189.8850  177.0640  139.2130 C   0  0  1  0  0  3  0  0  0  0  0  0
  188.5030  178.5310  137.6590 C   0  0  0  0  0  2  0  0  0  0  0  0
  187.8890  176.6770  142.9940 S   0  0  0  0  0  0  0  0  0  0  0  0
  189.3310  177.3360  137.8100 C   0  0  2  0  0  3  0  0  0  0  0  0
  185.8660  176.3170  136.8910 C   0  0  0  0  0  0  0  0  0  0  0  0
  184.9480  176.5390  136.0320 C   0  0  0  0  0  2  0  0  0  0  0  0
  187.7390  174.8320  135.7380 O   0  0  0  0  0  0  0  0  0  0  0  0
  186.7740  175.0930  136.7760 C   0  0  0  0  0  0  0  0  0  0  0  0
  186.4350  174.0880  137.4470 O   0  0  0  0  0  1  0  0  0  0  0  0
  182.9640  178.8630  140.7440 C   0  0  0  0  0  2  0  0  0  0  0  0
  182.6770  177.5300  140.3250 O   0  0  0  0  0  1  0  0  0  0  0  0
  191.0810  177.7640  139.4170 O   0  0  0  0  0  0  0  0  0  0  0  0
  192.1250  176.8930  139.0720 C   0  0  0  0  0  2  0  0  0  0  0  0
  193.2760  177.1650  139.9070 C   0  0  0  0  0  3  0  0  0  0  0  0
  194.2880  176.5550  139.6740 O   0  0  0  0  0  0  0  0  0  0  0  0
  1  2  1  0  0  0  0
  2 25  1  1  0  0  0
  2  6  1  0  0  0  0
  3  1  1  0  0  0  0
  6  8  1  1  0  0  0
  6  9  1  0  0  0  0
  7  4  1  0  0  0  0
  7 12  1  1  0  0  0
  8  7  1  0  0  0  0
  9  4  1  0  0  0  0
 10  5  2  0  0  0  0
 10 18  1  0  0  0  0
 11 10  1  0  0  0  0
 13 17  1  1  0  0  0
 14  7  1  0  0  0  0
 15 20  1  1  0  0  0
 15 13  1  0  0  0  0
 15  3  1  0  0  0  0
 16 27  1  1  0  0  0
 16 11  1  0  0  0  0
 18 14  1  0  0  0  0
 19 17  1  1  0  0  0
 19 13  1  0  0  0  0
 19 16  1  0  0  0  0
 21 20  2  0  0  0  0
 22 23  2  0  0  0  0
 23 20  1  0  0  0  0
 23 24  1  0  0  0  0
 26 25  1  0  0  0  0
 28 27  1  0  0  0  0
 28 29  1  0  0  0  0
 30 29  2  0  0  0  0
M  END
>  <MODEL>
9

>  <REMARK>
 VINA RESULT:      -5.5      2.613      7.910
  Name = 
  6 active torsions:
  status: ('A' for Active; 'I' for Inactive)
    1  A    between atoms: C_2  and  C_20
    2  A    between atoms: C_2  and  C_22
    3  A    between atoms: C_3  and  C_10
    4  A    between atoms: C_4  and  C_27
    5  A    between atoms: C_10  and  O_25
    6  A    between atoms: C_23  and  O_25
                            x       y       z     vdW  Elec       q    Type
                         _______ _______ _______ _____ _____    ______ ____

>  <TORSDO>
F 6

$$$$
