=
 OpenBabel10262420513D

 28 32  0  0  1  0  0  0  0  0999 V2000
  189.9850  177.1360  142.4570 N   0  0  0  0  0  0  0  0  0  0  0  0
  185.0000  178.3910  142.8250 C   0  0  0  0  0  3  0  0  0  0  0  0
  188.9810  176.9950  147.1110 O   0  0  0  0  0  0  0  0  0  0  0  0
  184.7000  178.6880  145.2860 C   0  0  0  0  0  0  0  0  0  0  0  0
  186.9730  178.0900  144.3670 C   0  0  0  0  0  0  0  0  0  0  0  0
  182.8020  178.9110  143.7930 C   0  0  0  0  0  0  0  0  0  0  0  0
  185.6610  178.7830  144.1210 C   0  0  1  0  0  3  0  0  0  0  0  0
  186.4620  178.0200  146.7410 O   0  0  0  0  0  0  0  0  0  0  0  0
  183.2770  178.9620  145.0420 C   0  0  0  0  0  3  0  0  0  0  0  0
  189.5020  177.0390  144.8570 C   0  0  0  0  0  0  0  0  0  0  0  0
  187.8470  177.8820  143.3440 N   0  0  0  0  0  2  0  0  0  0  0  0
  185.1290  178.3890  146.5140 C   0  0  0  0  0  3  0  0  0  0  0  0
  191.6800  176.2860  144.0390 C   0  0  0  0  0  3  0  0  0  0  0  0
  188.6280  177.2660  145.9310 C   0  0  0  0  0  0  0  0  0  0  0  0
  190.8540  176.4820  145.0680 C   0  0  0  0  0  3  0  0  0  0  0  0
  181.4870  179.1440  143.5660 F   0  0  0  0  0  0  0  0  0  0  0  0
  183.6750  178.5020  142.6680 C   0  0  0  0  0  3  0  0  0  0  0  0
  187.3570  177.7960  145.6870 C   0  0  0  0  0  0  0  0  0  0  0  0
  191.2670  176.6140  142.7070 N   0  0  0  0  0  2  0  0  0  0  0  0
  189.0850  177.3570  143.5540 C   0  0  0  0  0  0  0  0  0  0  0  0
  189.6220  177.5050  141.0960 C   0  0  0  0  0  2  0  0  0  0  0  0
  190.6890  177.0830  140.1450 C   0  0  0  0  0  0  0  0  0  0  0  0
  192.6780  176.3340  138.3260 C   0  0  0  0  0  0  0  0  0  0  0  0
  192.0000  177.5420  140.3130 C   0  0  0  0  0  3  0  0  0  0  0  0
  190.3730  176.2570  139.0600 C   0  0  0  0  0  3  0  0  0  0  0  0
  191.3670  175.8810  138.1530 C   0  0  0  0  0  3  0  0  0  0  0  0
  193.9230  175.8640  137.1890 Cl  0  0  0  0  0  0  0  0  0  0  0  0
  192.9950  177.1660  139.4040 C   0  0  0  0  0  3  0  0  0  0  0  0
  1 19  1  0  0  0  0
  1 20  1  0  0  0  0
  4 12  2  0  0  0  0
  5 18  2  0  0  0  0
  6  9  2  0  0  0  0
  7  2  1  6  0  0  0
  7  5  1  0  0  0  0
  7  4  1  0  0  0  0
  9  4  1  0  0  0  0
 10 15  1  0  0  0  0
 10 14  1  0  0  0  0
 11 20  1  0  0  0  0
 11  5  1  0  0  0  0
 12  8  1  0  0  0  0
 13 15  2  0  0  0  0
 14  3  2  0  0  0  0
 16  6  1  0  0  0  0
 17  2  2  0  0  0  0
 17  6  1  0  0  0  0
 18 14  1  0  0  0  0
 18  8  1  0  0  0  0
 19 13  1  0  0  0  0
 20 10  2  0  0  0  0
 21  1  1  0  0  0  0
 22 24  1  0  0  0  0
 22 21  1  0  0  0  0
 23 28  1  0  0  0  0
 25 22  2  0  0  0  0
 26 23  2  0  0  0  0
 26 25  1  0  0  0  0
 27 23  1  0  0  0  0
 28 24  2  0  0  0  0
M  END
>  <MODEL>
1

>  <REMARK>
 VINA RESULT:     -10.2      0.000      0.000
  Name = 
  2 active torsions:
  status: ('A' for Active; 'I' for Inactive)
    1  A    between atoms: N_1  and  C_2
    2  A    between atoms: C_2  and  C_3
                            x       y       z     vdW  Elec       q    Type
                         _______ _______ _______ _____ _____    ______ ____

>  <TORSDO>
F 2

$$$$
=
 OpenBabel10262420513D

 28 32  0  0  1  0  0  0  0  0999 V2000
  186.4840  178.5700  140.3360 N   0  0  0  0  0  0  0  0  0  0  0  0
  187.1730  177.8560  145.3930 C   0  0  0  0  0  3  0  0  0  0  0  0
  190.8440  176.7040  140.7710 O   0  0  0  0  0  0  0  0  0  0  0  0
  189.5990  177.2780  145.5290 C   0  0  0  0  0  0  0  0  0  0  0  0
  188.5630  177.8070  143.2890 C   0  0  0  0  0  0  0  0  0  0  0  0
  188.2310  177.2690  147.5320 C   0  0  0  0  0  0  0  0  0  0  0  0
  188.5340  178.0440  144.7740 C   0  0  1  0  0  3  0  0  0  0  0  0
  190.7890  176.8570  143.5110 O   0  0  0  0  0  0  0  0  0  0  0  0
  189.4370  177.1040  146.9800 C   0  0  0  0  0  3  0  0  0  0  0  0
  188.7250  177.5980  140.5190 C   0  0  0  0  0  0  0  0  0  0  0  0
  187.5370  178.2300  142.5020 N   0  0  0  0  0  2  0  0  0  0  0  0
  190.6750  176.7930  144.9060 C   0  0  0  0  0  3  0  0  0  0  0  0
  187.7360  177.9250  138.3070 C   0  0  0  0  0  3  0  0  0  0  0  0
  189.8070  177.1770  141.3080 C   0  0  0  0  0  0  0  0  0  0  0  0
  188.7650  177.5070  139.0460 C   0  0  0  0  0  3  0  0  0  0  0  0
  188.0750  177.0900  148.8660 F   0  0  0  0  0  0  0  0  0  0  0  0
  187.0450  177.5440  146.6890 C   0  0  0  0  0  3  0  0  0  0  0  0
  189.7270  177.2820  142.7010 C   0  0  0  0  0  0  0  0  0  0  0  0
  186.5710  178.4730  138.9350 N   0  0  0  0  0  2  0  0  0  0  0  0
  187.5850  178.1270  141.1450 C   0  0  0  0  0  0  0  0  0  0  0  0
  185.3040  179.1810  140.9330 C   0  0  0  0  0  2  0  0  0  0  0  0
  184.0800  178.7760  140.1870 C   0  0  0  0  0  0  0  0  0  0  0  0
  181.7490  178.0380  138.8260 C   0  0  0  0  0  0  0  0  0  0  0  0
  183.5330  179.6280  139.2200 C   0  0  0  0  0  3  0  0  0  0  0  0
  183.4530  177.5580  140.4770 C   0  0  0  0  0  3  0  0  0  0  0  0
  182.2900  177.1890  139.7960 C   0  0  0  0  0  3  0  0  0  0  0  0
  180.2920  177.5750  137.9740 Cl  0  0  0  0  0  0  0  0  0  0  0  0
  182.3690  179.2580  138.5390 C   0  0  0  0  0  3  0  0  0  0  0  0
  1 21  1  0  0  0  0
  1 20  1  0  0  0  0
  2 17  2  0  0  0  0
  3 14  2  0  0  0  0
  4  9  1  0  0  0  0
  5  7  1  0  0  0  0
  6 16  1  0  0  0  0
  7  2  1  1  0  0  0
  7  4  1  0  0  0  0
  8 12  1  0  0  0  0
  9  6  2  0  0  0  0
 10 20  2  0  0  0  0
 10 14  1  0  0  0  0
 11  5  1  0  0  0  0
 12  4  2  0  0  0  0
 13 19  1  0  0  0  0
 13 15  2  0  0  0  0
 14 18  1  0  0  0  0
 15 10  1  0  0  0  0
 17  6  1  0  0  0  0
 18  5  2  0  0  0  0
 18  8  1  0  0  0  0
 19  1  1  0  0  0  0
 20 11  1  0  0  0  0
 22 25  1  0  0  0  0
 22 21  1  0  0  0  0
 23 26  1  0  0  0  0
 24 22  2  0  0  0  0
 26 25  2  0  0  0  0
 27 23  1  0  0  0  0
 28 23  2  0  0  0  0
 28 24  1  0  0  0  0
M  END
>  <MODEL>
2

>  <REMARK>
 VINA RESULT:     -10.2      4.091      6.782
  Name = 
  2 active torsions:
  status: ('A' for Active; 'I' for Inactive)
    1  A    between atoms: N_1  and  C_2
    2  A    between atoms: C_2  and  C_3
                            x       y       z     vdW  Elec       q    Type
                         _______ _______ _______ _____ _____    ______ ____

>  <TORSDO>
F 2

$$$$
=
 OpenBabel10262420513D

 28 32  0  0  1  0  0  0  0  0999 V2000
  187.0190  178.2920  140.6230 N   0  0  0  0  0  0  0  0  0  0  0  0
  188.8380  177.9830  145.4350 C   0  0  0  0  0  3  0  0  0  0  0  0
  183.2600  179.0400  143.4500 O   0  0  0  0  0  0  0  0  0  0  0  0
  186.7470  177.9740  146.8010 C   0  0  0  0  0  0  0  0  0  0  0  0
  186.5950  178.0700  144.2830 C   0  0  0  0  0  0  0  0  0  0  0  0
  188.9130  177.9550  147.8910 C   0  0  0  0  0  0  0  0  0  0  0  0
  187.3810  177.6020  145.4780 C   0  0  1  0  0  3  0  0  0  0  0  0
  184.6770  178.4500  145.7250 O   0  0  0  0  0  0  0  0  0  0  0  0
  187.5820  177.9370  148.0100 C   0  0  0  0  0  3  0  0  0  0  0  0
  185.0660  178.6950  142.0450 C   0  0  0  0  0  0  0  0  0  0  0  0
  187.1400  178.0240  143.0370 N   0  0  0  0  0  2  0  0  0  0  0  0
  185.4560  178.3040  146.8810 C   0  0  0  0  0  3  0  0  0  0  0  0
  184.8640  178.9700  139.6240 C   0  0  0  0  0  3  0  0  0  0  0  0
  184.4740  178.7280  143.3170 C   0  0  0  0  0  0  0  0  0  0  0  0
  184.2940  179.0200  140.8280 C   0  0  0  0  0  3  0  0  0  0  0  0
  189.6850  177.9400  149.0040 F   0  0  0  0  0  0  0  0  0  0  0  0
  189.5520  178.0960  146.5620 C   0  0  0  0  0  3  0  0  0  0  0  0
  185.2410  178.4130  144.4440 C   0  0  0  0  0  0  0  0  0  0  0  0
  186.2420  178.5990  139.4910 N   0  0  0  0  0  2  0  0  0  0  0  0
  186.4180  178.3380  141.9260 C   0  0  0  0  0  0  0  0  0  0  0  0
  188.4010  177.8690  140.4420 C   0  0  0  0  0  2  0  0  0  0  0  0
  188.6970  177.6800  138.9940 C   0  0  0  0  0  0  0  0  0  0  0  0
  189.3080  177.3210  136.2870 C   0  0  0  0  0  0  0  0  0  0  0  0
  188.6620  176.3990  138.4320 C   0  0  0  0  0  3  0  0  0  0  0  0
  189.0470  178.7800  138.2020 C   0  0  0  0  0  3  0  0  0  0  0  0
  189.3500  178.6000  136.8490 C   0  0  0  0  0  3  0  0  0  0  0  0
  189.6890  177.0970  134.5940 Cl  0  0  0  0  0  0  0  0  0  0  0  0
  188.9660  176.2210  137.0780 C   0  0  0  0  0  3  0  0  0  0  0  0
  1 20  1  0  0  0  0
  2 17  2  0  0  0  0
  4 12  2  0  0  0  0
  4  9  1  0  0  0  0
  5 18  2  0  0  0  0
  5  7  1  0  0  0  0
  6  9  2  0  0  0  0
  6 16  1  0  0  0  0
  7  2  1  1  0  0  0
  7  4  1  0  0  0  0
  8 12  1  0  0  0  0
 10 14  1  0  0  0  0
 11  5  1  0  0  0  0
 13 15  2  0  0  0  0
 14  3  2  0  0  0  0
 14 18  1  0  0  0  0
 15 10  1  0  0  0  0
 17  6  1  0  0  0  0
 18  8  1  0  0  0  0
 19 13  1  0  0  0  0
 19  1  1  0  0  0  0
 20 10  2  0  0  0  0
 20 11  1  0  0  0  0
 21  1  1  0  0  0  0
 22 21  1  0  0  0  0
 23 26  2  0  0  0  0
 23 28  1  0  0  0  0
 24 22  1  0  0  0  0
 25 22  2  0  0  0  0
 26 25  1  0  0  0  0
 27 23  1  0  0  0  0
 28 24  2  0  0  0  0
M  END
>  <MODEL>
3

>  <REMARK>
 VINA RESULT:     -10.2      3.176      5.001
  Name = 
  2 active torsions:
  status: ('A' for Active; 'I' for Inactive)
    1  A    between atoms: N_1  and  C_2
    2  A    between atoms: C_2  and  C_3
                            x       y       z     vdW  Elec       q    Type
                         _______ _______ _______ _____ _____    ______ ____

>  <TORSDO>
F 2

$$$$
=
 OpenBabel10262420513D

 28 32  0  0  1  0  0  0  0  0999 V2000
  183.6100  178.5910  141.7910 N   0  0  0  0  0  0  0  0  0  0  0  0
  188.6510  177.8580  142.5710 C   0  0  0  0  0  3  0  0  0  0  0  0
  184.1810  178.6280  146.5190 O   0  0  0  0  0  0  0  0  0  0  0  0
  188.7660  177.4850  145.0380 C   0  0  0  0  0  0  0  0  0  0  0  0
  186.5290  177.8780  143.9340 C   0  0  0  0  0  0  0  0  0  0  0  0
  190.8000  177.5330  143.7180 C   0  0  0  0  0  0  0  0  0  0  0  0
  187.9270  177.3400  143.7860 C   0  0  1  0  0  3  0  0  0  0  0  0
  186.8200  177.8950  146.3470 O   0  0  0  0  0  0  0  0  0  0  0  0
  190.2260  177.3750  144.9150 C   0  0  0  0  0  3  0  0  0  0  0  0
  183.8670  178.6300  144.2270 C   0  0  0  0  0  0  0  0  0  0  0  0
  185.7320  178.0370  142.8440 N   0  0  0  0  0  2  0  0  0  0  0  0
  188.2000  177.6800  146.2300 C   0  0  0  0  0  3  0  0  0  0  0  0
  181.7000  179.1830  143.2400 C   0  0  0  0  0  3  0  0  0  0  0  0
  184.6630  178.4490  145.3680 C   0  0  0  0  0  0  0  0  0  0  0  0
  182.4490  179.0300  144.3320 C   0  0  0  0  0  3  0  0  0  0  0  0
  192.1480  177.4520  143.6050 F   0  0  0  0  0  0  0  0  0  0  0  0
  189.9890  177.8960  142.5330 C   0  0  0  0  0  3  0  0  0  0  0  0
  186.0020  178.0700  145.2230 C   0  0  0  0  0  0  0  0  0  0  0  0
  182.2620  178.9620  141.9400 N   0  0  0  0  0  2  0  0  0  0  0  0
  184.4290  178.4180  142.9580 C   0  0  0  0  0  0  0  0  0  0  0  0
  184.1300  178.3250  140.4570 C   0  0  0  0  0  2  0  0  0  0  0  0
  183.0760  177.6980  139.6090 C   0  0  0  0  0  0  0  0  0  0  0  0
  181.1390  176.5060  137.9800 C   0  0  0  0  0  0  0  0  0  0  0  0
  182.6800  176.3770  139.8430 C   0  0  0  0  0  3  0  0  0  0  0  0
  182.5090  178.4190  138.5520 C   0  0  0  0  0  3  0  0  0  0  0  0
  181.5390  177.8230  137.7390 C   0  0  0  0  0  3  0  0  0  0  0  0
  179.9270  175.7600  136.9610 Cl  0  0  0  0  0  0  0  0  0  0  0  0
  181.7110  175.7820  139.0300 C   0  0  0  0  0  3  0  0  0  0  0  0
  1 19  1  0  0  0  0
  1 20  1  0  0  0  0
  4 12  2  0  0  0  0
  5 18  2  0  0  0  0
  6  9  2  0  0  0  0
  7  2  1  6  0  0  0
  7  5  1  0  0  0  0
  7  4  1  0  0  0  0
  9  4  1  0  0  0  0
 10 15  1  0  0  0  0
 10 14  1  0  0  0  0
 11 20  1  0  0  0  0
 11  5  1  0  0  0  0
 12  8  1  0  0  0  0
 13 15  2  0  0  0  0
 14  3  2  0  0  0  0
 16  6  1  0  0  0  0
 17  2  2  0  0  0  0
 17  6  1  0  0  0  0
 18 14  1  0  0  0  0
 18  8  1  0  0  0  0
 19 13  1  0  0  0  0
 20 10  2  0  0  0  0
 21  1  1  0  0  0  0
 22 24  1  0  0  0  0
 22 21  1  0  0  0  0
 23 28  1  0  0  0  0
 25 22  2  0  0  0  0
 26 23  2  0  0  0  0
 26 25  1  0  0  0  0
 27 23  1  0  0  0  0
 28 24  2  0  0  0  0
M  END
>  <MODEL>
4

>  <REMARK>
 VINA RESULT:     -10.0      4.337      7.446
  Name = 
  2 active torsions:
  status: ('A' for Active; 'I' for Inactive)
    1  A    between atoms: N_1  and  C_2
    2  A    between atoms: C_2  and  C_3
                            x       y       z     vdW  Elec       q    Type
                         _______ _______ _______ _____ _____    ______ ____

>  <TORSDO>
F 2

$$$$
=
 OpenBabel10262420513D

 28 32  0  0  1  0  0  0  0  0999 V2000
  187.5930  178.1480  141.2240 N   0  0  0  0  0  0  0  0  0  0  0  0
  190.6710  177.1270  145.2290 C   0  0  0  0  0  3  0  0  0  0  0  0
  184.8380  178.5840  145.0850 O   0  0  0  0  0  0  0  0  0  0  0  0
  189.0550  176.9770  147.1260 C   0  0  0  0  0  0  0  0  0  0  0  0
  188.2060  177.4280  144.7920 C   0  0  0  0  0  0  0  0  0  0  0  0
  191.4350  176.7540  147.5350 C   0  0  0  0  0  0  0  0  0  0  0  0
  189.2650  176.7780  145.6410 C   0  0  1  0  0  3  0  0  0  0  0  0
  186.8000  177.6480  146.7620 O   0  0  0  0  0  0  0  0  0  0  0  0
  190.1920  176.7510  148.0290 C   0  0  0  0  0  3  0  0  0  0  0  0
  186.1490  178.3960  143.1880 C   0  0  0  0  0  0  0  0  0  0  0  0
  188.3730  177.5420  143.4470 N   0  0  0  0  0  2  0  0  0  0  0  0
  187.8620  177.3240  147.6160 C   0  0  0  0  0  3  0  0  0  0  0  0
  185.2910  179.0110  140.9830 C   0  0  0  0  0  3  0  0  0  0  0  0
  185.9440  178.2650  144.5700 C   0  0  0  0  0  0  0  0  0  0  0  0
  185.0880  178.9050  142.2960 C   0  0  0  0  0  3  0  0  0  0  0  0
  192.4870  176.5650  148.3670 F   0  0  0  0  0  0  0  0  0  0  0  0
  191.6800  177.0640  146.1070 C   0  0  0  0  0  3  0  0  0  0  0  0
  186.9760  177.7770  145.3780 C   0  0  0  0  0  0  0  0  0  0  0  0
  186.5490  178.6290  140.4130 N   0  0  0  0  0  2  0  0  0  0  0  0
  187.3880  178.0260  142.6400 C   0  0  0  0  0  0  0  0  0  0  0  0
  188.8380  177.7220  140.6010 C   0  0  0  0  0  2  0  0  0  0  0  0
  188.7010  177.7290  139.1170 C   0  0  0  0  0  0  0  0  0  0  0  0
  188.3890  177.7590  136.3370 C   0  0  0  0  0  0  0  0  0  0  0  0
  189.0570  178.8670  138.3840 C   0  0  0  0  0  3  0  0  0  0  0  0
  188.1800  176.6100  138.4570 C   0  0  0  0  0  3  0  0  0  0  0  0
  188.0260  176.6240  137.0680 C   0  0  0  0  0  3  0  0  0  0  0  0
  188.1950  177.7770  134.5970 Cl  0  0  0  0  0  0  0  0  0  0  0  0
  188.9020  178.8810  136.9950 C   0  0  0  0  0  3  0  0  0  0  0  0
  1 20  1  0  0  0  0
  2 17  2  0  0  0  0
  4 12  2  0  0  0  0
  4  9  1  0  0  0  0
  5 18  2  0  0  0  0
  5  7  1  0  0  0  0
  6  9  2  0  0  0  0
  6 16  1  0  0  0  0
  7  2  1  6  0  0  0
  7  4  1  0  0  0  0
  8 12  1  0  0  0  0
 10 14  1  0  0  0  0
 11  5  1  0  0  0  0
 13 15  2  0  0  0  0
 14  3  2  0  0  0  0
 14 18  1  0  0  0  0
 15 10  1  0  0  0  0
 17  6  1  0  0  0  0
 18  8  1  0  0  0  0
 19 13  1  0  0  0  0
 19  1  1  0  0  0  0
 20 10  2  0  0  0  0
 20 11  1  0  0  0  0
 21  1  1  0  0  0  0
 22 21  1  0  0  0  0
 23 28  2  0  0  0  0
 23 26  1  0  0  0  0
 24 22  2  0  0  0  0
 25 22  1  0  0  0  0
 26 25  2  0  0  0  0
 27 23  1  0  0  0  0
 28 24  1  0  0  0  0
M  END
>  <MODEL>
5

>  <REMARK>
 VINA RESULT:      -9.8      3.357      5.380
  Name = 
  2 active torsions:
  status: ('A' for Active; 'I' for Inactive)
    1  A    between atoms: N_1  and  C_2
    2  A    between atoms: C_2  and  C_3
                            x       y       z     vdW  Elec       q    Type
                         _______ _______ _______ _____ _____    ______ ____

>  <TORSDO>
F 2

$$$$
=
 OpenBabel10262420513D

 28 32  0  0  1  0  0  0  0  0999 V2000
  189.7130  177.3890  139.3940 N   0  0  0  0  0  0  0  0  0  0  0  0
  189.2870  177.1830  144.5260 C   0  0  0  0  0  3  0  0  0  0  0  0
  185.4210  179.2010  140.3840 O   0  0  0  0  0  0  0  0  0  0  0  0
  186.8840  177.7570  144.8900 C   0  0  0  0  0  0  0  0  0  0  0  0
  187.7980  177.6300  142.5400 C   0  0  0  0  0  0  0  0  0  0  0  0
  188.3480  177.3860  146.7880 C   0  0  0  0  0  0  0  0  0  0  0  0
  187.8940  177.1280  143.9550 C   0  0  1  0  0  3  0  0  0  0  0  0
  185.6070  178.5530  143.0450 O   0  0  0  0  0  0  0  0  0  0  0  0
  187.1200  177.6630  146.3380 C   0  0  0  0  0  3  0  0  0  0  0  0
  187.5060  178.3400  139.8660 C   0  0  0  0  0  0  0  0  0  0  0  0
  188.7740  177.3440  141.6380 N   0  0  0  0  0  2  0  0  0  0  0  0
  185.7900  178.3610  144.4210 C   0  0  0  0  0  3  0  0  0  0  0  0
  188.3780  178.4070  137.5830 C   0  0  0  0  0  3  0  0  0  0  0  0
  186.4730  178.6250  140.7730 C   0  0  0  0  0  0  0  0  0  0  0  0
  187.3960  178.6980  138.4380 C   0  0  0  0  0  3  0  0  0  0  0  0
  188.5730  177.3180  148.1220 F   0  0  0  0  0  0  0  0  0  0  0  0
  189.4850  177.2530  145.8480 C   0  0  0  0  0  3  0  0  0  0  0  0
  186.6180  178.2680  142.1180 C   0  0  0  0  0  0  0  0  0  0  0  0
  189.5600  177.7390  138.0410 N   0  0  0  0  0  2  0  0  0  0  0  0
  188.6630  177.6920  140.3260 C   0  0  0  0  0  0  0  0  0  0  0  0
  190.9070  176.6650  139.8100 C   0  0  0  0  0  2  0  0  0  0  0  0
  191.5980  176.0860  138.6230 C   0  0  0  0  0  0  0  0  0  0  0  0
  192.9260  174.9650  136.4300 C   0  0  0  0  0  0  0  0  0  0  0  0
  191.0300  175.0070  137.9370 C   0  0  0  0  0  3  0  0  0  0  0  0
  192.8360  176.5980  138.2160 C   0  0  0  0  0  3  0  0  0  0  0  0
  193.4980  176.0390  137.1190 C   0  0  0  0  0  3  0  0  0  0  0  0
  193.7560  174.2650  135.0580 Cl  0  0  0  0  0  0  0  0  0  0  0  0
  191.6930  174.4480  136.8410 C   0  0  0  0  0  3  0  0  0  0  0  0
  1 21  1  0  0  0  0
  1 20  1  0  0  0  0
  2 17  2  0  0  0  0
  3 14  2  0  0  0  0
  4  9  1  0  0  0  0
  5  7  1  0  0  0  0
  6 16  1  0  0  0  0
  7  2  1  1  0  0  0
  7  4  1  0  0  0  0
  8 12  1  0  0  0  0
  9  6  2  0  0  0  0
 10 20  2  0  0  0  0
 10 14  1  0  0  0  0
 11  5  1  0  0  0  0
 12  4  2  0  0  0  0
 13 19  1  0  0  0  0
 13 15  2  0  0  0  0
 14 18  1  0  0  0  0
 15 10  1  0  0  0  0
 17  6  1  0  0  0  0
 18  5  2  0  0  0  0
 18  8  1  0  0  0  0
 19  1  1  0  0  0  0
 20 11  1  0  0  0  0
 22 21  1  0  0  0  0
 23 28  2  0  0  0  0
 23 26  1  0  0  0  0
 24 22  2  0  0  0  0
 25 22  1  0  0  0  0
 26 25  2  0  0  0  0
 27 23  1  0  0  0  0
 28 24  1  0  0  0  0
M  END
>  <MODEL>
6

>  <REMARK>
 VINA RESULT:      -9.5      2.887      4.668
  Name = 
  2 active torsions:
  status: ('A' for Active; 'I' for Inactive)
    1  A    between atoms: N_1  and  C_2
    2  A    between atoms: C_2  and  C_3
                            x       y       z     vdW  Elec       q    Type
                         _______ _______ _______ _____ _____    ______ ____

>  <TORSDO>
F 2

$$$$
=
 OpenBabel10262420513D

 28 32  0  0  1  0  0  0  0  0999 V2000
  189.1360  178.0090  139.5240 N   0  0  0  0  0  0  0  0  0  0  0  0
  184.5930  178.6570  141.8700 C   0  0  0  0  0  3  0  0  0  0  0  0
  189.9000  176.9050  144.0950 O   0  0  0  0  0  0  0  0  0  0  0  0
  185.2010  178.4600  144.2850 C   0  0  0  0  0  0  0  0  0  0  0  0
  187.0000  178.2790  142.5230 C   0  0  0  0  0  0  0  0  0  0  0  0
  182.8850  178.7610  143.6330 C   0  0  0  0  0  0  0  0  0  0  0  0
  185.6690  178.8670  142.9040 C   0  0  1  0  0  3  0  0  0  0  0  0
  187.3900  177.7180  144.8550 O   0  0  0  0  0  0  0  0  0  0  0  0
  183.7800  178.6270  144.6180 C   0  0  0  0  0  3  0  0  0  0  0  0
  189.5630  177.4200  141.8640 C   0  0  0  0  0  0  0  0  0  0  0  0
  187.4470  178.3550  141.2400 N   0  0  0  0  0  2  0  0  0  0  0  0
  186.0570  177.9840  145.1920 C   0  0  0  0  0  3  0  0  0  0  0  0
  191.3140  177.0580  140.1970 C   0  0  0  0  0  3  0  0  0  0  0  0
  189.1340  177.3530  143.1980 C   0  0  0  0  0  0  0  0  0  0  0  0
  190.9140  176.9750  141.4660 C   0  0  0  0  0  3  0  0  0  0  0  0
  181.5710  178.8950  143.9360 F   0  0  0  0  0  0  0  0  0  0  0  0
  183.3000  178.6590  142.2150 C   0  0  0  0  0  3  0  0  0  0  0  0
  187.8460  177.7860  143.5320 C   0  0  0  0  0  0  0  0  0  0  0  0
  190.4350  177.5830  139.1940 N   0  0  0  0  0  2  0  0  0  0  0  0
  188.6910  177.9290  140.8870 C   0  0  0  0  0  0  0  0  0  0  0  0
  188.2920  178.5840  138.4870 C   0  0  0  0  0  2  0  0  0  0  0  0
  187.3760  177.5470  137.9330 C   0  0  0  0  0  0  0  0  0  0  0  0
  185.6640  175.6220  136.8420 C   0  0  0  0  0  0  0  0  0  0  0  0
  187.8800  176.3000  137.5470 C   0  0  0  0  0  3  0  0  0  0  0  0
  186.0170  177.8330  137.7630 C   0  0  0  0  0  3  0  0  0  0  0  0
  185.1610  176.8700  137.2200 C   0  0  0  0  0  3  0  0  0  0  0  0
  184.5930  174.4170  136.1610 Cl  0  0  0  0  0  0  0  0  0  0  0  0
  187.0230  175.3370  137.0030 C   0  0  0  0  0  3  0  0  0  0  0  0
  1 20  1  0  0  0  0
  2 17  2  0  0  0  0
  4  9  1  0  0  0  0
  4 12  2  0  0  0  0
  5  7  1  0  0  0  0
  5 18  2  0  0  0  0
  6 16  1  0  0  0  0
  6  9  2  0  0  0  0
  7  2  1  6  0  0  0
  7  4  1  0  0  0  0
  8 12  1  0  0  0  0
 10 14  1  0  0  0  0
 11  5  1  0  0  0  0
 13 15  2  0  0  0  0
 14 18  1  0  0  0  0
 14  3  2  0  0  0  0
 15 10  1  0  0  0  0
 17  6  1  0  0  0  0
 18  8  1  0  0  0  0
 19  1  1  0  0  0  0
 19 13  1  0  0  0  0
 20 11  1  0  0  0  0
 20 10  2  0  0  0  0
 21  1  1  0  0  0  0
 22 21  1  0  0  0  0
 23 28  2  0  0  0  0
 23 26  1  0  0  0  0
 24 22  2  0  0  0  0
 25 22  1  0  0  0  0
 26 25  2  0  0  0  0
 27 23  1  0  0  0  0
 28 24  1  0  0  0  0
M  END
>  <MODEL>
7

>  <REMARK>
 VINA RESULT:      -9.5      3.120      3.850
  Name = 
  2 active torsions:
  status: ('A' for Active; 'I' for Inactive)
    1  A    between atoms: N_1  and  C_2
    2  A    between atoms: C_2  and  C_3
                            x       y       z     vdW  Elec       q    Type
                         _______ _______ _______ _____ _____    ______ ____

>  <TORSDO>
F 2

$$$$
=
 OpenBabel10262420513D

 28 32  0  0  1  0  0  0  0  0999 V2000
  186.0740  178.6740  140.3960 N   0  0  0  0  0  0  0  0  0  0  0  0
  188.4360  177.6620  144.8640 C   0  0  0  0  0  3  0  0  0  0  0  0
  190.4710  177.2730  139.2180 O   0  0  0  0  0  0  0  0  0  0  0  0
  190.8110  177.3470  144.1580 C   0  0  0  0  0  0  0  0  0  0  0  0
  189.0600  177.9250  142.4340 C   0  0  0  0  0  0  0  0  0  0  0  0
  190.1790  177.0370  146.4790 C   0  0  0  0  0  0  0  0  0  0  0  0
  189.4990  178.0450  143.8680 C   0  0  1  0  0  3  0  0  0  0  0  0
  191.3040  177.2120  141.8330 O   0  0  0  0  0  0  0  0  0  0  0  0
  191.1470  177.0480  145.5570 C   0  0  0  0  0  3  0  0  0  0  0  0
  188.3220  177.9450  139.7510 C   0  0  0  0  0  0  0  0  0  0  0  0
  187.8020  178.2900  142.0650 N   0  0  0  0  0  2  0  0  0  0  0  0
  191.6580  177.0320  143.1760 C   0  0  0  0  0  3  0  0  0  0  0  0
  186.6410  178.3250  138.0180 C   0  0  0  0  0  3  0  0  0  0  0  0
  189.6320  177.5860  140.1050 C   0  0  0  0  0  0  0  0  0  0  0  0
  187.8850  177.9690  138.3410 C   0  0  0  0  0  3  0  0  0  0  0  0
  190.4830  176.7420  147.7660 F   0  0  0  0  0  0  0  0  0  0  0  0
  188.7640  177.2410  146.0920 C   0  0  0  0  0  3  0  0  0  0  0  0
  190.0050  177.5780  141.4540 C   0  0  0  0  0  0  0  0  0  0  0  0
  185.7050  178.6930  139.0390 N   0  0  0  0  0  2  0  0  0  0  0  0
  187.4110  178.2960  140.7600 C   0  0  0  0  0  0  0  0  0  0  0  0
  185.1100  179.1040  141.4000 C   0  0  0  0  0  2  0  0  0  0  0  0
  183.7720  178.5150  141.1150 C   0  0  0  0  0  0  0  0  0  0  0  0
  181.2500  177.4490  140.5410 C   0  0  0  0  0  0  0  0  0  0  0  0
  183.6460  177.4740  140.1880 C   0  0  0  0  0  3  0  0  0  0  0  0
  182.6330  179.0280  141.7470 C   0  0  0  0  0  3  0  0  0  0  0  0
  181.3730  178.4940  141.4610 C   0  0  0  0  0  3  0  0  0  0  0  0
  179.6720  176.7810  140.1830 Cl  0  0  0  0  0  0  0  0  0  0  0  0
  182.3850  176.9400  139.9030 C   0  0  0  0  0  3  0  0  0  0  0  0
  1 20  1  0  0  0  0
  1 21  1  0  0  0  0
  2 17  2  0  0  0  0
  3 14  2  0  0  0  0
  4  9  1  0  0  0  0
  5  7  1  0  0  0  0
  6 16  1  0  0  0  0
  7  4  1  0  0  0  0
  7  2  1  1  0  0  0
  8 12  1  0  0  0  0
  9  6  2  0  0  0  0
 10 14  1  0  0  0  0
 10 20  2  0  0  0  0
 11  5  1  0  0  0  0
 12  4  2  0  0  0  0
 13 15  2  0  0  0  0
 13 19  1  0  0  0  0
 14 18  1  0  0  0  0
 15 10  1  0  0  0  0
 17  6  1  0  0  0  0
 18  8  1  0  0  0  0
 18  5  2  0  0  0  0
 19  1  1  0  0  0  0
 20 11  1  0  0  0  0
 22 21  1  0  0  0  0
 22 25  1  0  0  0  0
 23 26  1  0  0  0  0
 24 22  2  0  0  0  0
 26 25  2  0  0  0  0
 27 23  1  0  0  0  0
 28 24  1  0  0  0  0
 28 23  2  0  0  0  0
M  END
>  <MODEL>
8

>  <REMARK>
 VINA RESULT:      -9.4      4.419      7.598
  Name = 
  2 active torsions:
  status: ('A' for Active; 'I' for Inactive)
    1  A    between atoms: N_1  and  C_2
    2  A    between atoms: C_2  and  C_3
                            x       y       z     vdW  Elec       q    Type
                         _______ _______ _______ _____ _____    ______ ____

>  <TORSDO>
F 2

$$$$
=
 OpenBabel10262420513D

 28 32  0  0  1  0  0  0  0  0999 V2000
  184.2450  178.6580  142.5850 N   0  0  0  0  0  0  0  0  0  0  0  0
  189.1560  177.7470  141.3150 C   0  0  0  0  0  3  0  0  0  0  0  0
  186.4910  177.8390  146.7050 O   0  0  0  0  0  0  0  0  0  0  0  0
  190.1280  176.9350  143.4680 C   0  0  0  0  0  0  0  0  0  0  0  0
  187.6800  177.5420  143.3500 C   0  0  0  0  0  0  0  0  0  0  0  0
  191.5430  177.2000  141.5160 C   0  0  0  0  0  0  0  0  0  0  0  0
  188.8840  177.0270  142.6090 C   0  0  1  0  0  3  0  0  0  0  0  0
  188.8250  177.1220  145.4520 O   0  0  0  0  0  0  0  0  0  0  0  0
  191.4320  176.8350  142.7980 C   0  0  0  0  0  3  0  0  0  0  0  0
  185.3700  178.2560  144.7250 C   0  0  0  0  0  0  0  0  0  0  0  0
  186.5560  177.9030  142.6740 N   0  0  0  0  0  2  0  0  0  0  0  0
  190.0490  176.9190  144.8000 C   0  0  0  0  0  3  0  0  0  0  0  0
  183.0400  178.9990  144.7140 C   0  0  0  0  0  3  0  0  0  0  0  0
  186.5090  177.8650  145.4450 C   0  0  0  0  0  0  0  0  0  0  0  0
  184.1210  178.6440  145.4110 C   0  0  0  0  0  3  0  0  0  0  0  0
  192.7480  177.1270  140.9010 F   0  0  0  0  0  0  0  0  0  0  0  0
  190.3890  177.7790  140.7920 C   0  0  0  0  0  3  0  0  0  0  0  0
  187.6720  177.5050  144.7550 C   0  0  0  0  0  0  0  0  0  0  0  0
  183.0750  179.0090  143.2820 N   0  0  0  0  0  2  0  0  0  0  0  0
  185.4160  178.2700  143.3220 C   0  0  0  0  0  0  0  0  0  0  0  0
  184.2250  178.6310  141.1300 C   0  0  0  0  0  2  0  0  0  0  0  0
  182.9810  177.9700  140.6440 C   0  0  0  0  0  0  0  0  0  0  0  0
  180.6500  176.7560  139.6830 C   0  0  0  0  0  0  0  0  0  0  0  0
  183.0520  176.7310  139.9960 C   0  0  0  0  0  3  0  0  0  0  0  0
  181.7440  178.6040  140.8020 C   0  0  0  0  0  3  0  0  0  0  0  0
  180.5790  177.9970  140.3230 C   0  0  0  0  0  3  0  0  0  0  0  0
  179.1920  175.9970  139.0830 Cl  0  0  0  0  0  0  0  0  0  0  0  0
  181.8860  176.1250  139.5170 C   0  0  0  0  0  3  0  0  0  0  0  0
  1 19  1  0  0  0  0
  1 20  1  0  0  0  0
  4 12  2  0  0  0  0
  5 18  2  0  0  0  0
  6  9  2  0  0  0  0
  7  2  1  6  0  0  0
  7  5  1  0  0  0  0
  7  4  1  0  0  0  0
  9  4  1  0  0  0  0
 10 15  1  0  0  0  0
 10 14  1  0  0  0  0
 11 20  1  0  0  0  0
 11  5  1  0  0  0  0
 12  8  1  0  0  0  0
 13 15  2  0  0  0  0
 14  3  2  0  0  0  0
 16  6  1  0  0  0  0
 17  2  2  0  0  0  0
 17  6  1  0  0  0  0
 18 14  1  0  0  0  0
 18  8  1  0  0  0  0
 19 13  1  0  0  0  0
 20 10  2  0  0  0  0
 21  1  1  0  0  0  0
 22 25  1  0  0  0  0
 22 21  1  0  0  0  0
 23 26  1  0  0  0  0
 24 22  2  0  0  0  0
 26 25  2  0  0  0  0
 27 23  1  0  0  0  0
 28 23  2  0  0  0  0
 28 24  1  0  0  0  0
M  END
>  <MODEL>
9

>  <REMARK>
 VINA RESULT:      -9.4      4.205      7.606
  Name = 
  2 active torsions:
  status: ('A' for Active; 'I' for Inactive)
    1  A    between atoms: N_1  and  C_2
    2  A    between atoms: C_2  and  C_3
                            x       y       z     vdW  Elec       q    Type
                         _______ _______ _______ _____ _____    ______ ____

>  <TORSDO>
F 2

$$$$
