=
 OpenBabel10262419363D

 31 35  0  0  1  0  0  0  0  0999 V2000
  191.0140  177.3020  144.6010 C   0  0  0  0  0  0  0  0  0  0  0  0
  187.8040  177.5860  142.6460 C   0  0  2  0  0  3  0  0  0  0  0  0
  186.8450  178.0880  143.7320 C   0  0  2  0  0  3  0  0  0  0  0  0
  185.7820  177.4430  145.9970 C   0  0  0  0  0  2  0  0  0  0  0  0
  189.2680  177.5370  143.0080 C   0  0  0  0  0  0  0  0  0  0  0  0
  191.9640  177.2170  143.5800 C   0  0  0  0  0  3  0  0  0  0  0  0
  186.7980  177.0980  144.9030 C   0  0  0  0  0  2  0  0  0  0  0  0
  188.5400  177.9350  140.2890 C   0  0  0  0  0  0  0  0  0  0  0  0
  191.4230  177.2200  145.9610 N   0  0  0  0  0  1  0  0  0  0  0  0
  185.5580  179.1440  141.9560 O   0  0  0  0  0  0  0  0  0  0  0  0
  185.6820  178.9450  146.2890 C   0  0  0  0  0  2  0  0  0  0  0  0
  189.7490  177.5450  140.5900 N   0  0  0  0  0  0  0  0  0  0  0  0
  187.6320  178.4340  141.3850 C   0  0  1  0  0  3  0  0  0  0  0  0
  188.1340  178.0420  138.9210 N   0  0  0  0  0  2  0  0  0  0  0  0
  189.6950  177.4450  144.2980 N   0  0  0  0  0  0  0  0  0  0  0  0
  185.0290  179.7690  145.1650 C   0  0  0  0  0  2  0  0  0  0  0  0
  190.1970  177.4530  141.9540 C   0  0  0  0  0  0  0  0  0  0  0  0
  191.5500  177.2900  142.2490 C   0  0  0  0  0  3  0  0  0  0  0  0
  186.2210  178.4200  141.0100 N   0  0  0  0  0  2  0  0  0  0  0  0
  185.4460  178.3170  143.0930 C   0  0  2  0  0  3  0  0  0  0  0  0
  184.4070  178.9180  144.0530 C   0  0  0  0  0  2  0  0  0  0  0  0
  188.9880  176.2170  137.7350 O   0  0  0  0  0  1  0  0  0  0  0  0
  188.9750  177.6130  137.8110 C   0  0  1  0  0  3  0  0  0  0  0  0
  186.3020  176.9900  134.8720 C   0  0  1  0  0  3  0  0  0  0  0  0
  187.0040  178.6610  136.5680 C   0  0  0  0  0  2  0  0  0  0  0  0
  189.9510  177.1470  134.9600 O   0  0  0  0  0  0  0  0  0  0  0  0
  185.4180  175.7920  134.5940 C   0  0  0  0  0  1  0  0  0  0  0  0
  186.0630  177.4930  136.2890 C   0  0  0  0  0  2  0  0  0  0  0  0
  188.7620  177.3300  135.3320 C   0  0  0  0  0  0  0  0  0  0  0  0
  188.4790  178.2340  136.5020 C   0  0  2  0  0  3  0  0  0  0  0  0
  187.7010  176.6240  134.6820 N   0  0  0  0  0  2  0  0  0  0  0  0
  1  9  1  0  0  0  0
  2  5  1  1  0  0  0
  2  3  1  0  0  0  0
  3  7  1  1  0  0  0
  4 11  1  0  0  0  0
  5 15  2  0  0  0  0
  6  1  2  0  0  0  0
  7  4  1  0  0  0  0
  8 12  2  0  0  0  0
 10 20  1  0  0  0  0
 12 17  1  0  0  0  0
 13  8  1  6  0  0  0
 13  2  1  0  0  0  0
 14  8  1  0  0  0  0
 15  1  1  0  0  0  0
 16 11  1  0  0  0  0
 17 18  2  0  0  0  0
 17  5  1  0  0  0  0
 18  6  1  0  0  0  0
 19 13  1  0  0  0  0
 19 10  1  0  0  0  0
 20  3  1  0  0  0  0
 20 21  1  1  0  0  0
 21 16  1  0  0  0  0
 23 22  1  6  0  0  0
 23 14  1  0  0  0  0
 24 27  1  1  0  0  0
 24 28  1  0  0  0  0
 26 29  2  0  0  0  0
 28 25  1  0  0  0  0
 29 30  1  0  0  0  0
 30 25  1  0  0  0  0
 30 23  1  1  0  0  0
 31 24  1  0  0  0  0
 31 29  1  0  0  0  0
M  END
>  <MODEL>
1

>  <REMARK>
 VINA RESULT:      -9.4      0.000      0.000
  Name = 
  2 active torsions:
  status: ('A' for Active; 'I' for Inactive)
    1  A    between atoms: C_9  and  C_22
    2  A    between atoms: C_9  and  N_23
                            x       y       z     vdW  Elec       q    Type
                         _______ _______ _______ _____ _____    ______ ____

>  <TORSDO>
F 2

$$$$
=
 OpenBabel10262419363D

 31 35  0  0  1  0  0  0  0  0999 V2000
  190.4110  176.9090  146.0430 C   0  0  0  0  0  0  0  0  0  0  0  0
  188.1380  177.1330  143.0450 C   0  0  2  0  0  3  0  0  0  0  0  0
  186.9850  177.9680  143.6150 C   0  0  2  0  0  3  0  0  0  0  0  0
  185.1350  177.9610  145.4190 C   0  0  0  0  0  2  0  0  0  0  0  0
  189.3640  176.9940  143.9120 C   0  0  0  0  0  0  0  0  0  0  0  0
  191.6120  176.4930  145.4600 C   0  0  0  0  0  3  0  0  0  0  0  0
  186.3720  177.2690  144.8370 C   0  0  0  0  0  2  0  0  0  0  0  0
  189.6610  176.8720  141.0880 C   0  0  0  0  0  0  0  0  0  0  0  0
  190.3270  177.0780  147.4520 N   0  0  0  0  0  1  0  0  0  0  0  0
  186.5750  178.7550  141.3490 O   0  0  0  0  0  0  0  0  0  0  0  0
  185.2250  179.4910  145.4060 C   0  0  0  0  0  2  0  0  0  0  0  0
  190.6080  176.4190  141.8630 N   0  0  0  0  0  0  0  0  0  0  0  0
  188.5510  177.7000  141.6860 C   0  0  1  0  0  3  0  0  0  0  0  0
  189.7560  176.7250  139.6680 N   0  0  0  0  0  2  0  0  0  0  0  0
  189.3170  177.1360  145.2660 N   0  0  0  0  0  0  0  0  0  0  0  0
  185.1440  180.1210  144.0050 C   0  0  0  0  0  2  0  0  0  0  0  0
  190.5560  176.5740  143.2930 C   0  0  0  0  0  0  0  0  0  0  0  0
  191.6820  176.3220  144.0770 C   0  0  0  0  0  3  0  0  0  0  0  0
  187.3670  177.7700  140.8370 N   0  0  0  0  0  2  0  0  0  0  0  0
  185.9430  178.2140  142.4880 C   0  0  2  0  0  3  0  0  0  0  0  0
  184.7770  179.1270  142.8980 C   0  0  0  0  0  2  0  0  0  0  0  0
  190.2750  174.9220  138.2720 O   0  0  0  0  0  1  0  0  0  0  0  0
  190.8200  175.9690  139.0210 C   0  0  1  0  0  3  0  0  0  0  0  0
  193.6980  175.8460  136.2150 C   0  0  1  0  0  3  0  0  0  0  0  0
  191.4050  176.6950  136.6420 C   0  0  0  0  0  2  0  0  0  0  0  0
  193.5400  177.2220  139.5950 O   0  0  0  0  0  0  0  0  0  0  0  0
  194.5220  174.6800  135.7110 C   0  0  0  0  0  1  0  0  0  0  0  0
  192.2150  175.5330  136.0750 C   0  0  0  0  0  2  0  0  0  0  0  0
  193.1280  176.7840  138.4890 C   0  0  0  0  0  0  0  0  0  0  0  0
  191.6670  176.8950  138.1430 C   0  0  2  0  0  3  0  0  0  0  0  0
  194.0390  176.1260  137.6050 N   0  0  0  0  0  2  0  0  0  0  0  0
  1  9  1  0  0  0  0
  2  3  1  0  0  0  0
  2  5  1  1  0  0  0
  3  7  1  1  0  0  0
  5 15  1  0  0  0  0
  6  1  1  0  0  0  0
  7  4  1  0  0  0  0
  8 13  1  0  0  0  0
  8 12  2  0  0  0  0
 10 20  1  0  0  0  0
 11  4  1  0  0  0  0
 12 17  1  0  0  0  0
 13 19  1  6  0  0  0
 13  2  1  0  0  0  0
 14  8  1  0  0  0  0
 15  1  2  0  0  0  0
 16 11  1  0  0  0  0
 17  5  2  0  0  0  0
 17 18  1  0  0  0  0
 18  6  2  0  0  0  0
 19 10  1  0  0  0  0
 20 21  1  1  0  0  0
 20  3  1  0  0  0  0
 21 16  1  0  0  0  0
 23 22  1  6  0  0  0
 23 14  1  0  0  0  0
 24 27  1  1  0  0  0
 24 31  1  0  0  0  0
 25 30  1  0  0  0  0
 28 24  1  0  0  0  0
 28 25  1  0  0  0  0
 29 26  2  0  0  0  0
 30 29  1  0  0  0  0
 30 23  1  1  0  0  0
 31 29  1  0  0  0  0
M  END
>  <MODEL>
2

>  <REMARK>
 VINA RESULT:      -9.3      2.721      3.543
  Name = 
  2 active torsions:
  status: ('A' for Active; 'I' for Inactive)
    1  A    between atoms: C_9  and  C_22
    2  A    between atoms: C_9  and  N_23
                            x       y       z     vdW  Elec       q    Type
                         _______ _______ _______ _____ _____    ______ ____

>  <TORSDO>
F 2

$$$$
=
 OpenBabel10262419363D

 31 35  0  0  1  0  0  0  0  0999 V2000
  186.5610  178.1240  146.9920 C   0  0  0  0  0  0  0  0  0  0  0  0
  188.0360  178.3070  143.5290 C   0  0  2  0  0  3  0  0  0  0  0  0
  189.3820  177.6060  143.7470 C   0  0  2  0  0  3  0  0  0  0  0  0
  191.6060  177.7810  145.0510 C   0  0  0  0  0  2  0  0  0  0  0  0
  187.0530  178.2550  144.6720 C   0  0  0  0  0  0  0  0  0  0  0  0
  185.2140  178.4040  146.7440 C   0  0  0  0  0  3  0  0  0  0  0  0
  190.1920  178.3300  144.8310 C   0  0  0  0  0  2  0  0  0  0  0  0
  186.0580  178.4460  142.0160 C   0  0  0  0  0  0  0  0  0  0  0  0
  187.0090  177.9130  148.3250 N   0  0  0  0  0  1  0  0  0  0  0  0
  189.3080  176.9650  141.4000 O   0  0  0  0  0  0  0  0  0  0  0  0
  191.6920  176.2530  144.9560 C   0  0  0  0  0  2  0  0  0  0  0  0
  185.2860  178.7440  143.0250 N   0  0  0  0  0  0  0  0  0  0  0  0
  187.3680  177.7440  142.2730 C   0  0  1  0  0  3  0  0  0  0  0  0
  185.5990  178.6330  140.6740 N   0  0  0  0  0  2  0  0  0  0  0  0
  187.4480  178.0690  145.9620 N   0  0  0  0  0  0  0  0  0  0  0  0
  191.4970  175.6930  143.5360 C   0  0  0  0  0  2  0  0  0  0  0  0
  185.7050  178.5420  144.3860 C   0  0  0  0  0  0  0  0  0  0  0  0
  184.7870  178.6170  145.4320 C   0  0  0  0  0  3  0  0  0  0  0  0
  188.3070  177.8590  141.1620 N   0  0  0  0  0  2  0  0  0  0  0  0
  190.1350  177.5380  142.3890 C   0  0  2  0  0  3  0  0  0  0  0  0
  191.4630  176.7680  142.4440 C   0  0  0  0  0  2  0  0  0  0  0  0
  184.4580  180.0380  139.1930 O   0  0  0  0  0  1  0  0  0  0  0  0
  184.3290  179.2710  140.3540 C   0  0  1  0  0  3  0  0  0  0  0  0
  180.6540  178.7840  138.7970 C   0  0  1  0  0  3  0  0  0  0  0  0
  182.9540  177.8550  138.7310 C   0  0  0  0  0  2  0  0  0  0  0  0
  181.9830  178.6360  142.1960 O   0  0  0  0  0  0  0  0  0  0  0  0
  179.7030  179.8010  138.2020 C   0  0  0  0  0  1  0  0  0  0  0  0
  181.9940  178.8440  138.0780 C   0  0  0  0  0  2  0  0  0  0  0  0
  181.9840  178.6160  140.9370 C   0  0  0  0  0  0  0  0  0  0  0  0
  183.2320  178.2130  140.2000 C   0  0  2  0  0  3  0  0  0  0  0  0
  180.8190  179.0400  140.2230 N   0  0  0  0  0  2  0  0  0  0  0  0
  1  9  1  0  0  0  0
  2  3  1  0  0  0  0
  2  5  1  1  0  0  0
  3  7  1  1  0  0  0
  5 15  1  0  0  0  0
  6  1  1  0  0  0  0
  7  4  1  0  0  0  0
  8 13  1  0  0  0  0
  8 12  2  0  0  0  0
 10 20  1  0  0  0  0
 11  4  1  0  0  0  0
 12 17  1  0  0  0  0
 13 19  1  6  0  0  0
 13  2  1  0  0  0  0
 14  8  1  0  0  0  0
 15  1  2  0  0  0  0
 16 11  1  0  0  0  0
 17  5  2  0  0  0  0
 17 18  1  0  0  0  0
 18  6  2  0  0  0  0
 19 10  1  0  0  0  0
 20 21  1  1  0  0  0
 20  3  1  0  0  0  0
 21 16  1  0  0  0  0
 23 22  1  6  0  0  0
 23 14  1  0  0  0  0
 24 27  1  6  0  0  0
 24 31  1  0  0  0  0
 25 30  1  0  0  0  0
 28 25  1  0  0  0  0
 28 24  1  0  0  0  0
 29 26  2  0  0  0  0
 30 23  1  6  0  0  0
 30 29  1  0  0  0  0
 31 29  1  0  0  0  0
M  END
>  <MODEL>
3

>  <REMARK>
 VINA RESULT:      -9.3      3.387      5.875
  Name = 
  2 active torsions:
  status: ('A' for Active; 'I' for Inactive)
    1  A    between atoms: C_9  and  C_22
    2  A    between atoms: C_9  and  N_23
                            x       y       z     vdW  Elec       q    Type
                         _______ _______ _______ _____ _____    ______ ____

>  <TORSDO>
F 2

$$$$
=
 OpenBabel10262419363D

 31 35  0  0  1  0  0  0  0  0999 V2000
  185.2330  178.3550  144.7540 C   0  0  0  0  0  0  0  0  0  0  0  0
  188.8320  177.9110  143.7300 C   0  0  2  0  0  3  0  0  0  0  0  0
  189.4440  177.3820  145.0330 C   0  0  2  0  0  3  0  0  0  0  0  0
  189.8890  178.0060  147.5000 C   0  0  0  0  0  2  0  0  0  0  0  0
  187.3290  178.0270  143.6870 C   0  0  0  0  0  0  0  0  0  0  0  0
  184.5950  178.4680  143.5160 C   0  0  0  0  0  3  0  0  0  0  0  0
  189.2190  178.3820  146.1740 C   0  0  0  0  0  2  0  0  0  0  0  0
  188.7400  177.5680  141.2610 C   0  0  0  0  0  0  0  0  0  0  0  0
  184.4790  178.4690  145.9550 N   0  0  0  0  0  1  0  0  0  0  0  0
  191.1110  176.2510  143.6660 O   0  0  0  0  0  0  0  0  0  0  0  0
  189.8400  176.5050  147.8070 C   0  0  0  0  0  2  0  0  0  0  0  0
  187.5130  178.0120  141.2280 N   0  0  0  0  0  0  0  0  0  0  0  0
  189.2990  177.0430  142.5610 C   0  0  1  0  0  3  0  0  0  0  0  0
  189.4910  177.4280  140.0520 N   0  0  0  0  0  2  0  0  0  0  0  0
  186.5770  178.1520  144.8150 N   0  0  0  0  0  0  0  0  0  0  0  0
  190.7340  175.6410  146.8990 C   0  0  0  0  0  2  0  0  0  0  0  0
  186.7210  178.1390  142.4230 C   0  0  0  0  0  0  0  0  0  0  0  0
  185.3460  178.3620  142.3440 C   0  0  0  0  0  3  0  0  0  0  0  0
  190.7570  176.9920  142.5770 N   0  0  0  0  0  2  0  0  0  0  0  0
  190.9510  177.0860  144.7920 C   0  0  2  0  0  3  0  0  0  0  0  0
  191.6670  176.4520  145.9940 C   0  0  0  0  0  2  0  0  0  0  0  0
  189.0050  179.2770  138.7060 O   0  0  0  0  0  1  0  0  0  0  0  0
  188.9980  177.8800  138.7580 C   0  0  1  0  0  3  0  0  0  0  0  0
  189.5100  174.4520  136.7190 C   0  0  1  0  0  3  0  0  0  0  0  0
  189.0050  176.8630  136.4140 C   0  0  0  0  0  2  0  0  0  0  0  0
  191.6670  176.4150  138.9180 O   0  0  0  0  0  0  0  0  0  0  0  0
  188.9240  173.0770  136.9590 C   0  0  0  0  0  1  0  0  0  0  0  0
  188.3920  175.4780  136.5950 C   0  0  0  0  0  2  0  0  0  0  0  0
  190.7090  176.1590  138.1420 C   0  0  0  0  0  0  0  0  0  0  0  0
  189.8450  177.2800  137.6320 C   0  0  2  0  0  3  0  0  0  0  0  0
  190.4130  174.7990  137.8100 N   0  0  0  0  0  2  0  0  0  0  0  0
  1 15  1  0  0  0  0
  1  9  1  0  0  0  0
  2  5  1  1  0  0  0
  2  3  1  0  0  0  0
  3  7  1  1  0  0  0
  4 11  1  0  0  0  0
  5 15  2  0  0  0  0
  6  1  2  0  0  0  0
  7  4  1  0  0  0  0
 10 20  1  0  0  0  0
 12  8  2  0  0  0  0
 12 17  1  0  0  0  0
 13  8  1  6  0  0  0
 13 19  1  0  0  0  0
 13  2  1  0  0  0  0
 14  8  1  0  0  0  0
 16 11  1  0  0  0  0
 17  5  1  0  0  0  0
 18 17  2  0  0  0  0
 18  6  1  0  0  0  0
 19 10  1  0  0  0  0
 20  3  1  0  0  0  0
 20 21  1  1  0  0  0
 21 16  1  0  0  0  0
 23 22  1  1  0  0  0
 23 14  1  0  0  0  0
 24 27  1  1  0  0  0
 24 31  1  0  0  0  0
 25 28  1  0  0  0  0
 25 30  1  0  0  0  0
 28 24  1  0  0  0  0
 29 26  2  0  0  0  0
 30 29  1  0  0  0  0
 30 23  1  1  0  0  0
 31 29  1  0  0  0  0
M  END
>  <MODEL>
4

>  <REMARK>
 VINA RESULT:      -9.0      2.628      4.532
  Name = 
  2 active torsions:
  status: ('A' for Active; 'I' for Inactive)
    1  A    between atoms: C_9  and  C_22
    2  A    between atoms: C_9  and  N_23
                            x       y       z     vdW  Elec       q    Type
                         _______ _______ _______ _____ _____    ______ ____

>  <TORSDO>
F 2

$$$$
=
 OpenBabel10262419363D

 31 35  0  0  1  0  0  0  0  0999 V2000
  185.5050  178.4310  143.8650 C   0  0  0  0  0  0  0  0  0  0  0  0
  188.5740  178.2880  141.6810 C   0  0  2  0  0  3  0  0  0  0  0  0
  189.5980  177.6950  142.6560 C   0  0  2  0  0  3  0  0  0  0  0  0
  190.8170  178.1460  144.8890 C   0  0  0  0  0  2  0  0  0  0  0  0
  187.1380  178.3160  142.1440 C   0  0  0  0  0  0  0  0  0  0  0  0
  184.4900  178.6040  142.9210 C   0  0  0  0  0  3  0  0  0  0  0  0
  189.7340  178.5860  143.8980 C   0  0  0  0  0  2  0  0  0  0  0  0
  187.6780  178.1370  139.3590 C   0  0  0  0  0  0  0  0  0  0  0  0
  185.1890  178.4040  145.2520 N   0  0  0  0  0  1  0  0  0  0  0  0
  190.7520  176.7790  140.7170 O   0  0  0  0  0  0  0  0  0  0  0  0
  190.9190  176.6250  145.0510 C   0  0  0  0  0  2  0  0  0  0  0  0
  186.4970  178.5080  139.7720 N   0  0  0  0  0  0  0  0  0  0  0  0
  188.6520  177.5450  140.3470 C   0  0  1  0  0  3  0  0  0  0  0  0
  187.9900  178.1400  137.9620 N   0  0  0  0  0  2  0  0  0  0  0  0
  186.7990  178.3050  143.4630 N   0  0  0  0  0  0  0  0  0  0  0  0
  191.4870  175.8920  143.8230 C   0  0  0  0  0  2  0  0  0  0  0  0
  186.1420  178.4910  141.1660 C   0  0  0  0  0  0  0  0  0  0  0  0
  184.8130  178.6370  141.5630 C   0  0  0  0  0  3  0  0  0  0  0  0
  190.0340  177.5820  139.8810 N   0  0  0  0  0  2  0  0  0  0  0  0
  190.9490  177.5110  141.9080 C   0  0  2  0  0  3  0  0  0  0  0  0
  192.0420  176.8280  142.7430 C   0  0  0  0  0  2  0  0  0  0  0  0
  187.4580  179.9620  136.5970 O   0  0  0  0  0  1  0  0  0  0  0  0
  187.0820  178.6630  136.9510 C   0  0  1  0  0  3  0  0  0  0  0  0
  187.2460  174.7650  135.9760 C   0  0  1  0  0  3  0  0  0  0  0  0
  185.8500  176.8000  135.7100 C   0  0  0  0  0  2  0  0  0  0  0  0
  189.4130  177.6230  135.2840 O   0  0  0  0  0  0  0  0  0  0  0  0
  187.5330  173.5540  136.8380 C   0  0  0  0  0  1  0  0  0  0  0  0
  186.0830  175.5540  136.5600 C   0  0  0  0  0  2  0  0  0  0  0  0
  188.3670  176.9960  135.5940 C   0  0  0  0  0  0  0  0  0  0  0  0
  187.0660  177.7400  135.7290 C   0  0  2  0  0  3  0  0  0  0  0  0
  188.4410  175.5960  135.8820 N   0  0  0  0  0  2  0  0  0  0  0  0
  1  9  1  0  0  0  0
  2  5  1  1  0  0  0
  2  3  1  0  0  0  0
  3  7  1  1  0  0  0
  4 11  1  0  0  0  0
  5 15  2  0  0  0  0
  6  1  2  0  0  0  0
  7  4  1  0  0  0  0
  8 12  2  0  0  0  0
 10 20  1  0  0  0  0
 12 17  1  0  0  0  0
 13  8  1  6  0  0  0
 13  2  1  0  0  0  0
 14  8  1  0  0  0  0
 15  1  1  0  0  0  0
 16 11  1  0  0  0  0
 17 18  2  0  0  0  0
 17  5  1  0  0  0  0
 18  6  1  0  0  0  0
 19 13  1  0  0  0  0
 19 10  1  0  0  0  0
 20  3  1  0  0  0  0
 20 21  1  1  0  0  0
 21 16  1  0  0  0  0
 23 22  1  6  0  0  0
 23 14  1  0  0  0  0
 24 28  1  0  0  0  0
 24 27  1  1  0  0  0
 25 30  1  0  0  0  0
 25 28  1  0  0  0  0
 26 29  2  0  0  0  0
 29 30  1  0  0  0  0
 29 31  1  0  0  0  0
 30 23  1  1  0  0  0
 31 24  1  0  0  0  0
M  END
>  <MODEL>
5

>  <REMARK>
 VINA RESULT:      -8.9      2.024      4.330
  Name = 
  2 active torsions:
  status: ('A' for Active; 'I' for Inactive)
    1  A    between atoms: C_9  and  C_22
    2  A    between atoms: C_9  and  N_23
                            x       y       z     vdW  Elec       q    Type
                         _______ _______ _______ _____ _____    ______ ____

>  <TORSDO>
F 2

$$$$
=
 OpenBabel10262419363D

 31 35  0  0  1  0  0  0  0  0999 V2000
  189.8920  177.6630  141.9710 C   0  0  0  0  0  0  0  0  0  0  0  0
  186.2450  178.0730  142.8310 C   0  0  2  0  0  3  0  0  0  0  0  0
  186.3190  178.2070  144.3570 C   0  0  2  0  0  3  0  0  0  0  0  0
  187.0130  176.9460  146.5030 C   0  0  0  0  0  2  0  0  0  0  0  0
  187.5580  178.0880  142.0880 C   0  0  0  0  0  0  0  0  0  0  0  0
  189.8920  177.9160  140.5960 C   0  0  0  0  0  3  0  0  0  0  0  0
  186.9890  176.9700  144.9710 C   0  0  0  0  0  2  0  0  0  0  0  0
  185.2240  179.0360  140.7700 C   0  0  0  0  0  0  0  0  0  0  0  0
  191.1020  177.3080  142.6270 N   0  0  0  0  0  1  0  0  0  0  0  0
  184.2690  179.5140  144.2330 O   0  0  0  0  0  0  0  0  0  0  0  0
  187.2670  178.3200  147.1340 C   0  0  0  0  0  2  0  0  0  0  0  0
  186.2790  178.7100  140.0740 N   0  0  0  0  0  0  0  0  0  0  0  0
  185.3410  179.1700  142.2680 C   0  0  1  0  0  3  0  0  0  0  0  0
  184.0130  179.4180  140.1110 N   0  0  0  0  0  2  0  0  0  0  0  0
  188.7340  177.7400  142.6810 N   0  0  0  0  0  0  0  0  0  0  0  0
  186.1020  179.3140  146.9850 C   0  0  0  0  0  2  0  0  0  0  0  0
  187.5200  178.3470  140.7050 C   0  0  0  0  0  0  0  0  0  0  0  0
  188.6960  178.2570  139.9610 C   0  0  0  0  0  3  0  0  0  0  0  0
  184.0540  179.1020  142.9520 N   0  0  0  0  0  2  0  0  0  0  0  0
  184.8830  178.4370  144.9060 C   0  0  2  0  0  3  0  0  0  0  0  0
  184.8220  178.6890  146.4210 C   0  0  0  0  0  2  0  0  0  0  0  0
  184.7270  178.4100  138.1270 O   0  0  0  0  0  1  0  0  0  0  0  0
  183.8420  179.3480  138.6660 C   0  0  1  0  0  3  0  0  0  0  0  0
  180.0780  180.1230  139.8500 C   0  0  1  0  0  3  0  0  0  0  0  0
  181.5760  180.2240  137.8740 C   0  0  0  0  0  2  0  0  0  0  0  0
  182.0970  177.0810  139.7210 O   0  0  0  0  0  0  0  0  0  0  0  0
  179.5710  180.8640  141.0690 C   0  0  0  0  0  1  0  0  0  0  0  0
  181.0330  181.0100  139.0630 C   0  0  0  0  0  2  0  0  0  0  0  0
  181.7300  178.2550  139.4510 C   0  0  0  0  0  0  0  0  0  0  0  0
  182.3910  179.0000  138.3220 C   0  0  2  0  0  3  0  0  0  0  0  0
  180.7390  178.8900  140.2640 N   0  0  0  0  0  2  0  0  0  0  0  0
  1  9  1  0  0  0  0
  1 15  1  0  0  0  0
  2  5  1  6  0  0  0
  2  3  1  0  0  0  0
  3 20  1  0  0  0  0
  3  7  1  1  0  0  0
  4 11  1  0  0  0  0
  5 15  2  0  0  0  0
  6  1  2  0  0  0  0
  7  4  1  0  0  0  0
 10 20  1  0  0  0  0
 12 17  1  0  0  0  0
 12  8  2  0  0  0  0
 13  8  1  6  0  0  0
 13  2  1  0  0  0  0
 13 19  1  0  0  0  0
 14  8  1  0  0  0  0
 16 11  1  0  0  0  0
 17  5  1  0  0  0  0
 18  6  1  0  0  0  0
 18 17  2  0  0  0  0
 19 10  1  0  0  0  0
 20 21  1  1  0  0  0
 21 16  1  0  0  0  0
 23 22  1  1  0  0  0
 23 14  1  0  0  0  0
 24 31  1  0  0  0  0
 24 27  1  1  0  0  0
 25 30  1  0  0  0  0
 25 28  1  0  0  0  0
 28 24  1  0  0  0  0
 29 26  2  0  0  0  0
 29 31  1  0  0  0  0
 30 23  1  1  0  0  0
 30 29  1  0  0  0  0
M  END
>  <MODEL>
6

>  <REMARK>
 VINA RESULT:      -8.9      3.244      4.891
  Name = 
  2 active torsions:
  status: ('A' for Active; 'I' for Inactive)
    1  A    between atoms: C_9  and  C_22
    2  A    between atoms: C_9  and  N_23
                            x       y       z     vdW  Elec       q    Type
                         _______ _______ _______ _____ _____    ______ ____

>  <TORSDO>
F 2

$$$$
=
 OpenBabel10262419363D

 31 35  0  0  1  0  0  0  0  0999 V2000
  190.8180  177.2740  144.5230 C   0  0  0  0  0  0  0  0  0  0  0  0
  187.5190  177.6870  142.7470 C   0  0  2  0  0  3  0  0  0  0  0  0
  186.6280  178.1740  143.8960 C   0  0  2  0  0  3  0  0  0  0  0  0
  185.6690  177.4810  146.1930 C   0  0  0  0  0  2  0  0  0  0  0  0
  188.9980  177.5960  143.0310 C   0  0  0  0  0  0  0  0  0  0  0  0
  191.7120  177.2020  143.4510 C   0  0  0  0  0  3  0  0  0  0  0  0
  186.6200  177.1490  145.0390 C   0  0  0  0  0  2  0  0  0  0  0  0
  188.1400  178.0930  140.3660 C   0  0  0  0  0  0  0  0  0  0  0  0
  191.2950  177.1420  145.8560 N   0  0  0  0  0  1  0  0  0  0  0  0
  185.2750  179.3120  142.2230 O   0  0  0  0  0  0  0  0  0  0  0  0
  185.6180  178.9750  146.5350 C   0  0  0  0  0  2  0  0  0  0  0  0
  189.3530  177.6690  140.5930 N   0  0  0  0  0  0  0  0  0  0  0  0
  187.3010  178.5770  141.5230 C   0  0  1  0  0  3  0  0  0  0  0  0
  187.6670  178.2510  139.0260 N   0  0  0  0  0  2  0  0  0  0  0  0
  189.4890  177.4550  144.2940 N   0  0  0  0  0  0  0  0  0  0  0  0
  184.9270  179.8470  145.4730 C   0  0  0  0  0  2  0  0  0  0  0  0
  189.8690  177.5250  141.9280 C   0  0  0  0  0  0  0  0  0  0  0  0
  191.2320  177.3250  142.1460 C   0  0  0  0  0  3  0  0  0  0  0  0
  185.8730  178.6040  141.2230 N   0  0  0  0  0  2  0  0  0  0  0  0
  185.2030  178.4520  143.3390 C   0  0  2  0  0  3  0  0  0  0  0  0
  184.2300  179.0440  144.3690 C   0  0  0  0  0  2  0  0  0  0  0  0
  189.4480  178.7710  137.6030 O   0  0  0  0  0  1  0  0  0  0  0  0
  188.4400  177.8390  137.8610 C   0  0  1  0  0  3  0  0  0  0  0  0
  190.6920  175.0630  136.0190 C   0  0  1  0  0  3  0  0  0  0  0  0
  190.5600  176.4300  138.0870 C   0  0  0  0  0  2  0  0  0  0  0  0
  187.2360  175.1170  137.2010 O   0  0  0  0  0  0  0  0  0  0  0  0
  191.1980  175.0060  134.5940 C   0  0  0  0  0  1  0  0  0  0  0  0
  191.1290  176.3670  136.6730 C   0  0  0  0  0  2  0  0  0  0  0  0
  188.4460  175.4510  137.1060 C   0  0  0  0  0  0  0  0  0  0  0  0
  189.0230  176.4400  138.0830 C   0  0  2  0  0  3  0  0  0  0  0  0
  189.2390  174.9400  136.0310 N   0  0  0  0  0  2  0  0  0  0  0  0
  1  9  1  0  0  0  0
  2  5  1  1  0  0  0
  2  3  1  0  0  0  0
  3  7  1  1  0  0  0
  4 11  1  0  0  0  0
  5 15  2  0  0  0  0
  6  1  2  0  0  0  0
  7  4  1  0  0  0  0
  8 12  2  0  0  0  0
 10 20  1  0  0  0  0
 12 17  1  0  0  0  0
 13  8  1  6  0  0  0
 13  2  1  0  0  0  0
 14  8  1  0  0  0  0
 15  1  1  0  0  0  0
 16 11  1  0  0  0  0
 17 18  2  0  0  0  0
 17  5  1  0  0  0  0
 18  6  1  0  0  0  0
 19 13  1  0  0  0  0
 19 10  1  0  0  0  0
 20  3  1  0  0  0  0
 20 21  1  1  0  0  0
 21 16  1  0  0  0  0
 23 22  1  1  0  0  0
 23 14  1  0  0  0  0
 24 27  1  6  0  0  0
 24 31  1  0  0  0  0
 24 28  1  0  0  0  0
 28 25  1  0  0  0  0
 29 26  2  0  0  0  0
 29 30  1  0  0  0  0
 30 23  1  6  0  0  0
 30 25  1  0  0  0  0
 31 29  1  0  0  0  0
M  END
>  <MODEL>
7

>  <REMARK>
 VINA RESULT:      -8.7      1.536      2.208
  Name = 
  2 active torsions:
  status: ('A' for Active; 'I' for Inactive)
    1  A    between atoms: C_9  and  C_22
    2  A    between atoms: C_9  and  N_23
                            x       y       z     vdW  Elec       q    Type
                         _______ _______ _______ _____ _____    ______ ____

>  <TORSDO>
F 2

$$$$
=
 OpenBabel10262419363D

 31 35  0  0  1  0  0  0  0  0999 V2000
  186.1560  178.3290  146.2850 C   0  0  0  0  0  0  0  0  0  0  0  0
  187.9840  178.2970  142.9900 C   0  0  2  0  0  3  0  0  0  0  0  0
  189.3290  177.6900  143.4080 C   0  0  2  0  0  3  0  0  0  0  0  0
  191.3910  178.0940  144.9120 C   0  0  0  0  0  2  0  0  0  0  0  0
  186.8880  178.2900  144.0260 C   0  0  0  0  0  0  0  0  0  0  0  0
  184.8320  178.5150  145.8760 C   0  0  0  0  0  3  0  0  0  0  0  0
  189.9860  178.5460  144.4990 C   0  0  0  0  0  2  0  0  0  0  0  0
  186.1760  178.2010  141.2750 C   0  0  0  0  0  0  0  0  0  0  0  0
  186.4680  178.2560  147.6710 N   0  0  0  0  0  1  0  0  0  0  0  0
  189.5360  176.8500  141.1320 O   0  0  0  0  0  0  0  0  0  0  0  0
  191.5540  176.5700  144.9640 C   0  0  0  0  0  2  0  0  0  0  0  0
  185.2870  178.5420  142.1680 N   0  0  0  0  0  0  0  0  0  0  0  0
  187.4810  177.5950  141.7270 C   0  0  1  0  0  3  0  0  0  0  0  0
  185.8560  178.2490  139.8810 N   0  0  0  0  0  2  0  0  0  0  0  0
  187.1510  178.2340  145.3610 N   0  0  0  0  0  0  0  0  0  0  0  0
  191.5380  175.8820  143.5870 C   0  0  0  0  0  2  0  0  0  0  0  0
  185.5680  178.4790  143.5780 C   0  0  0  0  0  0  0  0  0  0  0  0
  184.5390  178.5930  144.5130 C   0  0  0  0  0  3  0  0  0  0  0  0
  188.5270  177.6660  140.7130 N   0  0  0  0  0  2  0  0  0  0  0  0
  190.2260  177.5480  142.1450 C   0  0  2  0  0  3  0  0  0  0  0  0
  191.5730  176.8570  142.4060 C   0  0  0  0  0  2  0  0  0  0  0  0
  184.6360  180.1860  139.4010 O   0  0  0  0  0  1  0  0  0  0  0  0
  184.6000  178.7890  139.3770 C   0  0  1  0  0  3  0  0  0  0  0  0
  184.3350  175.3480  137.3130 C   0  0  1  0  0  3  0  0  0  0  0  0
  183.0640  177.4030  137.8770 C   0  0  0  0  0  2  0  0  0  0  0  0
  186.5710  178.2300  137.1190 O   0  0  0  0  0  0  0  0  0  0  0  0
  184.6620  173.9300  137.7320 C   0  0  0  0  0  1  0  0  0  0  0  0
  183.3330  175.9580  138.2830 C   0  0  0  0  0  2  0  0  0  0  0  0
  185.5420  177.5640  137.4060 C   0  0  0  0  0  0  0  0  0  0  0  0
  184.3320  178.2670  137.9620 C   0  0  2  0  0  3  0  0  0  0  0  0
  185.5580  176.1410  137.2640 N   0  0  0  0  0  2  0  0  0  0  0  0
  1  9  1  0  0  0  0
  2  3  1  0  0  0  0
  2  5  1  1  0  0  0
  3  7  1  1  0  0  0
  4 11  1  0  0  0  0
  5 15  1  0  0  0  0
  6  1  1  0  0  0  0
  7  4  1  0  0  0  0
  8 13  1  0  0  0  0
  8 12  2  0  0  0  0
 10 20  1  0  0  0  0
 12 17  1  0  0  0  0
 13 19  1  6  0  0  0
 13  2  1  0  0  0  0
 14  8  1  0  0  0  0
 15  1  2  0  0  0  0
 16 11  1  0  0  0  0
 17  5  2  0  0  0  0
 17 18  1  0  0  0  0
 18  6  2  0  0  0  0
 19 10  1  0  0  0  0
 20 21  1  1  0  0  0
 20  3  1  0  0  0  0
 21 16  1  0  0  0  0
 23 22  1  6  0  0  0
 23 14  1  0  0  0  0
 24 27  1  1  0  0  0
 24 28  1  0  0  0  0
 25 30  1  0  0  0  0
 25 28  1  0  0  0  0
 26 29  2  0  0  0  0
 29 30  1  0  0  0  0
 30 23  1  1  0  0  0
 31 24  1  0  0  0  0
 31 29  1  0  0  0  0
M  END
>  <MODEL>
8

>  <REMARK>
 VINA RESULT:      -8.6      2.275      4.733
  Name = 
  2 active torsions:
  status: ('A' for Active; 'I' for Inactive)
    1  A    between atoms: C_9  and  C_22
    2  A    between atoms: C_9  and  N_23
                            x       y       z     vdW  Elec       q    Type
                         _______ _______ _______ _____ _____    ______ ____

>  <TORSDO>
F 2

$$$$
=
 OpenBabel10262419363D

 31 35  0  0  1  0  0  0  0  0999 V2000
  186.9170  178.3840  138.3750 C   0  0  0  0  0  0  0  0  0  0  0  0
  184.1370  179.0770  140.8230 C   0  0  2  0  0  3  0  0  0  0  0  0
  182.9050  178.8350  139.9420 C   0  0  2  0  0  3  0  0  0  0  0  0
  181.6870  179.6840  137.8280 C   0  0  0  0  0  2  0  0  0  0  0  0
  185.4730  178.7000  140.2340 C   0  0  0  0  0  0  0  0  0  0  0  0
  188.0150  178.2270  139.2250 C   0  0  0  0  0  3  0  0  0  0  0  0
  182.9310  179.7620  138.7190 C   0  0  0  0  0  2  0  0  0  0  0  0
  185.1420  178.6070  143.0560 C   0  0  0  0  0  0  0  0  0  0  0  0
  187.0930  178.3050  136.9650 N   0  0  0  0  0  1  0  0  0  0  0  0
  181.7030  178.2400  141.9740 O   0  0  0  0  0  0  0  0  0  0  0  0
  181.1320  178.2640  137.6720 C   0  0  0  0  0  2  0  0  0  0  0  0
  186.3410  178.6300  142.5400 N   0  0  0  0  0  0  0  0  0  0  0  0
  183.9580  178.3520  142.1570 C   0  0  1  0  0  3  0  0  0  0  0  0
  184.9640  178.6600  144.4750 N   0  0  0  0  0  2  0  0  0  0  0  0
  185.6810  178.6280  138.8900 N   0  0  0  0  0  0  0  0  0  0  0  0
  180.4810  177.6920  138.9440 C   0  0  0  0  0  2  0  0  0  0  0  0
  186.5560  178.5500  141.1200 C   0  0  0  0  0  0  0  0  0  0  0  0
  187.8310  178.3140  140.6060 C   0  0  0  0  0  3  0  0  0  0  0  0
  182.6910  178.7750  142.7450 N   0  0  0  0  0  2  0  0  0  0  0  0
  181.6280  179.0300  140.8070 C   0  0  2  0  0  3  0  0  0  0  0  0
  180.3160  178.7180  140.0710 C   0  0  0  0  0  2  0  0  0  0  0  0
  185.6800  179.7520  146.4140 O   0  0  0  0  0  1  0  0  0  0  0  0
  186.0670  178.8680  145.4030 C   0  0  1  0  0  3  0  0  0  0  0  0
  189.0210  177.2680  147.6130 C   0  0  1  0  0  3  0  0  0  0  0  0
  186.5540  177.5250  147.5220 C   0  0  0  0  0  2  0  0  0  0  0  0
  187.8890  176.7520  144.1780 O   0  0  0  0  0  0  0  0  0  0  0  0
  190.3210  177.8780  148.0930 C   0  0  0  0  0  1  0  0  0  0  0  0
  187.8470  178.1250  148.0660 C   0  0  0  0  0  2  0  0  0  0  0  0
  187.8390  177.0990  145.3870 C   0  0  0  0  0  0  0  0  0  0  0  0
  186.5260  177.5280  145.9850 C   0  0  2  0  0  3  0  0  0  0  0  0
  189.0430  177.1460  146.1590 N   0  0  0  0  0  2  0  0  0  0  0  0
  1 15  2  0  0  0  0
  1  6  1  0  0  0  0
  2  5  1  6  0  0  0
  2 13  1  0  0  0  0
  3  7  1  6  0  0  0
  3 20  1  0  0  0  0
  3  2  1  0  0  0  0
  4  7  1  0  0  0  0
  5 17  2  0  0  0  0
  6 18  2  0  0  0  0
  8 14  1  0  0  0  0
  9  1  1  0  0  0  0
 10 19  1  0  0  0  0
 11  4  1  0  0  0  0
 11 16  1  0  0  0  0
 12  8  2  0  0  0  0
 13 19  1  1  0  0  0
 13  8  1  0  0  0  0
 14 23  1  0  0  0  0
 15  5  1  0  0  0  0
 16 21  1  0  0  0  0
 17 12  1  0  0  0  0
 18 17  1  0  0  0  0
 20 21  1  6  0  0  0
 20 10  1  0  0  0  0
 23 22  1  1  0  0  0
 24 28  1  0  0  0  0
 24 27  1  6  0  0  0
 25 28  1  0  0  0  0
 26 29  2  0  0  0  0
 29 30  1  0  0  0  0
 29 31  1  0  0  0  0
 30 23  1  6  0  0  0
 30 25  1  0  0  0  0
 31 24  1  0  0  0  0
M  END
>  <MODEL>
9

>  <REMARK>
 VINA RESULT:      -8.5      3.317      8.150
  Name = 
  2 active torsions:
  status: ('A' for Active; 'I' for Inactive)
    1  A    between atoms: C_9  and  C_22
    2  A    between atoms: C_9  and  N_23
                            x       y       z     vdW  Elec       q    Type
                         _______ _______ _______ _____ _____    ______ ____

>  <TORSDO>
F 2

$$$$
