=
 OpenBabel10262419293D

 31 34  0  0  0  0  0  0  0  0999 V2000
  185.4380  178.4200  145.9520 C   0  0  0  0  0  0  0  0  0  0  0  0
  188.6290  177.4540  144.1960 C   0  0  0  0  0  0  0  0  0  0  0  0
  189.5910  177.1490  145.2110 C   0  0  0  0  0  0  0  0  0  0  0  0
  190.1620  176.9540  147.6040 C   0  0  0  0  0  3  0  0  0  0  0  0
  187.2850  177.8660  144.4500 C   0  0  0  0  0  0  0  0  0  0  0  0
  184.6120  178.6840  144.8600 C   0  0  0  0  0  3  0  0  0  0  0  0
  189.2750  177.2340  146.6540 C   0  0  0  0  0  3  0  0  0  0  0  0
  188.1480  177.6260  141.7980 C   0  0  0  0  0  0  0  0  0  0  0  0
  184.9610  178.5560  147.2110 F   0  0  0  0  0  0  0  0  0  0  0  0
  191.2270  176.6610  143.4910 C   0  0  0  0  0  3  0  0  0  0  0  0
  191.5250  176.5380  147.2650 C   0  0  0  0  0  0  0  0  0  0  0  0
  186.8790  178.0130  142.0820 N   0  0  0  0  0  0  0  0  0  0  0  0
  189.0440  177.3390  142.8390 C   0  0  0  0  0  0  0  0  0  0  0  0
  186.7590  178.0160  145.7450 C   0  0  0  0  0  3  0  0  0  0  0  0
  192.3400  176.2790  148.1890 O   0  0  0  0  0  0  0  0  0  0  0  0
  186.4290  178.1400  143.3520 C   0  0  0  0  0  0  0  0  0  0  0  0
  185.1080  178.5450  143.5640 C   0  0  0  0  0  3  0  0  0  0  0  0
  190.3120  176.9520  142.5390 N   0  0  0  0  0  0  0  0  0  0  0  0
  190.8960  176.7510  144.8360 C   0  0  0  0  0  0  0  0  0  0  0  0
  191.9670  176.4120  145.8380 C   0  0  0  0  0  2  0  0  0  0  0  0
  188.8720  178.5580  139.6400 C   0  0  0  0  0  3  0  0  0  0  0  0
  188.5800  177.5060  140.3960 C   0  0  0  0  0  3  0  0  0  0  0  0
  189.3030  178.3680  138.2240 C   0  0  0  0  0  2  0  0  0  0  0  0
  188.1660  178.6370  137.2390 C   0  0  0  0  0  2  0  0  0  0  0  0
  187.1900  177.4690  137.1240 C   0  0  0  0  0  2  0  0  0  0  0  0
  184.8230  177.4780  136.8540 O   0  0  0  0  0  0  0  0  0  0  0  0
  185.8110  177.8620  137.5350 C   0  0  0  0  0  0  0  0  0  0  0  0
  185.6370  178.6590  138.7110 N   0  0  0  0  0  2  0  0  0  0  0  0
  184.3850  179.1020  139.2440 C   0  0  0  0  0  0  0  0  0  0  0  0
  183.8910  180.4130  138.9830 N   0  0  0  0  0  1  0  0  0  0  0  0
  183.5050  178.0830  140.1660 S   0  0  0  0  0  0  0  0  0  0  0  0
  1  9  1  0  0  0  0
  2  5  1  0  0  0  0
  2  3  1  0  0  0  0
  3  7  1  0  0  0  0
  5 14  2  0  0  0  0
  6  1  2  0  0  0  0
  7  4  2  0  0  0  0
  8 12  2  0  0  0  0
  8 13  1  0  0  0  0
 10 19  1  0  0  0  0
 11  4  1  0  0  0  0
 11 15  2  0  0  0  0
 12 16  1  0  0  0  0
 13  2  2  0  0  0  0
 14  1  1  0  0  0  0
 16 17  2  0  0  0  0
 16  5  1  0  0  0  0
 17  6  1  0  0  0  0
 18 13  1  0  0  0  0
 18 10  2  0  0  0  0
 19  3  2  0  0  0  0
 19 20  1  0  0  0  0
 20 11  1  0  0  0  0
 21 22  2  0  0  0  0
 22  8  1  0  0  0  0
 23 21  1  0  0  0  0
 24 23  1  0  0  0  0
 25 24  1  0  0  0  0
 25 27  1  0  0  0  0
 26 27  2  0  0  0  0
 27 28  1  0  0  0  0
 28 29  1  0  0  0  0
 29 31  2  0  0  0  0
 30 29  1  0  0  0  0
M  END
>  <MODEL>
1

>  <REMARK>
 VINA RESULT:     -10.4      0.000      0.000
  Name = 
  6 active torsions:
  status: ('A' for Active; 'I' for Inactive)
    1  A    between atoms: C_1  and  N_24
    2  A    between atoms: C_3  and  C_19
    3  A    between atoms: C_3  and  C_22
    4  A    between atoms: C_7  and  C_9
    5  A    between atoms: C_7  and  C_22
    6  A    between atoms: C_15  and  C_23
                            x       y       z     vdW  Elec       q    Type
                         _______ _______ _______ _____ _____    ______ ____

>  <TORSDO>
F 6

$$$$
=
 OpenBabel10262419293D

 31 34  0  0  0  0  0  0  0  0999 V2000
  185.0100  178.2890  146.0400 C   0  0  0  0  0  0  0  0  0  0  0  0
  188.2100  177.7650  144.1210 C   0  0  0  0  0  0  0  0  0  0  0  0
  189.2230  177.4300  145.0760 C   0  0  0  0  0  0  0  0  0  0  0  0
  189.8780  177.0270  147.4210 C   0  0  0  0  0  3  0  0  0  0  0  0
  186.8470  178.0420  144.4470 C   0  0  0  0  0  0  0  0  0  0  0  0
  184.1350  178.6030  145.0010 C   0  0  0  0  0  3  0  0  0  0  0  0
  188.9440  177.3370  146.5260 C   0  0  0  0  0  3  0  0  0  0  0  0
  187.6460  178.1520  141.7660 C   0  0  0  0  0  0  0  0  0  0  0  0
  184.5620  178.2530  147.3170 F   0  0  0  0  0  0  0  0  0  0  0  0
  190.8380  177.2550  143.2780 C   0  0  0  0  0  3  0  0  0  0  0  0
  191.2570  176.7560  147.0100 C   0  0  0  0  0  0  0  0  0  0  0  0
  186.3610  178.4080  142.1180 N   0  0  0  0  0  0  0  0  0  0  0  0
  188.5920  177.8270  142.7510 C   0  0  0  0  0  0  0  0  0  0  0  0
  186.3510  178.0130  145.7620 C   0  0  0  0  0  3  0  0  0  0  0  0
  192.1170  176.4650  147.8820 O   0  0  0  0  0  0  0  0  0  0  0  0
  185.9410  178.3640  143.4040 C   0  0  0  0  0  0  0  0  0  0  0  0
  184.6000  178.6410  143.6870 C   0  0  0  0  0  3  0  0  0  0  0  0
  189.8760  177.5730  142.3840 N   0  0  0  0  0  0  0  0  0  0  0  0
  190.5420  177.1760  144.6320 C   0  0  0  0  0  0  0  0  0  0  0  0
  191.6650  176.8170  145.5680 C   0  0  0  0  0  2  0  0  0  0  0  0
  187.1760  178.0890  139.3530 C   0  0  0  0  0  3  0  0  0  0  0  0
  188.0440  178.2150  140.3510 C   0  0  0  0  0  3  0  0  0  0  0  0
  187.6450  178.1600  137.9380 C   0  0  0  0  0  2  0  0  0  0  0  0
  189.1570  178.3550  137.8450 C   0  0  0  0  0  2  0  0  0  0  0  0
  189.8610  177.2150  137.1120 C   0  0  0  0  0  2  0  0  0  0  0  0
  190.5890  176.0460  139.0550 O   0  0  0  0  0  0  0  0  0  0  0  0
  190.9100  176.5810  137.9610 C   0  0  0  0  0  0  0  0  0  0  0  0
  192.2670  176.5780  137.5030 N   0  0  0  0  0  2  0  0  0  0  0  0
  193.3810  175.9980  138.1900 C   0  0  0  0  0  0  0  0  0  0  0  0
  193.9490  176.6220  139.3380 N   0  0  0  0  0  1  0  0  0  0  0  0
  194.0090  174.5940  137.6480 S   0  0  0  0  0  0  0  0  0  0  0  0
  1  9  1  0  0  0  0
  2  5  1  0  0  0  0
  2  3  1  0  0  0  0
  3  7  1  0  0  0  0
  5 14  2  0  0  0  0
  6  1  2  0  0  0  0
  7  4  2  0  0  0  0
  8 12  2  0  0  0  0
  8 13  1  0  0  0  0
 10 19  1  0  0  0  0
 11  4  1  0  0  0  0
 11 15  2  0  0  0  0
 12 16  1  0  0  0  0
 13  2  2  0  0  0  0
 14  1  1  0  0  0  0
 16 17  2  0  0  0  0
 16  5  1  0  0  0  0
 17  6  1  0  0  0  0
 18 13  1  0  0  0  0
 18 10  2  0  0  0  0
 19  3  2  0  0  0  0
 19 20  1  0  0  0  0
 20 11  1  0  0  0  0
 21 22  2  0  0  0  0
 22  8  1  0  0  0  0
 23 21  1  0  0  0  0
 24 23  1  0  0  0  0
 25 24  1  0  0  0  0
 25 27  1  0  0  0  0
 27 26  2  0  0  0  0
 28 27  1  0  0  0  0
 28 29  1  0  0  0  0
 29 30  1  0  0  0  0
 31 29  2  0  0  0  0
M  END
>  <MODEL>
2

>  <REMARK>
 VINA RESULT:     -10.2      2.918      3.916
  Name = 
  6 active torsions:
  status: ('A' for Active; 'I' for Inactive)
    1  A    between atoms: C_1  and  N_24
    2  A    between atoms: C_3  and  C_19
    3  A    between atoms: C_3  and  C_22
    4  A    between atoms: C_7  and  C_9
    5  A    between atoms: C_7  and  C_22
    6  A    between atoms: C_15  and  C_23
                            x       y       z     vdW  Elec       q    Type
                         _______ _______ _______ _____ _____    ______ ____

>  <TORSDO>
F 6

$$$$
=
 OpenBabel10262419293D

 31 34  0  0  0  0  0  0  0  0999 V2000
  190.5220  176.7720  146.5920 C   0  0  0  0  0  0  0  0  0  0  0  0
  188.2730  177.6150  143.6890 C   0  0  0  0  0  0  0  0  0  0  0  0
  187.0060  177.9950  144.2360 C   0  0  0  0  0  0  0  0  0  0  0  0
  185.5710  178.3660  146.2100 C   0  0  0  0  0  3  0  0  0  0  0  0
  189.4060  177.2200  144.4650 C   0  0  0  0  0  0  0  0  0  0  0  0
  191.6930  176.4270  145.9190 C   0  0  0  0  0  3  0  0  0  0  0  0
  186.7450  178.0150  145.6920 C   0  0  0  0  0  3  0  0  0  0  0  0
  189.6270  177.2690  141.6740 C   0  0  0  0  0  0  0  0  0  0  0  0
  190.4780  176.7270  147.9450 F   0  0  0  0  0  0  0  0  0  0  0  0
  186.1650  178.3610  141.9930 C   0  0  0  0  0  3  0  0  0  0  0  0
  184.4540  178.7590  145.3480 C   0  0  0  0  0  0  0  0  0  0  0  0
  190.6790  176.9000  142.4480 N   0  0  0  0  0  0  0  0  0  0  0  0
  188.4110  177.6320  142.2730 C   0  0  0  0  0  0  0  0  0  0  0  0
  189.3930  177.1630  145.8690 C   0  0  0  0  0  3  0  0  0  0  0  0
  183.3560  179.0860  145.8700 O   0  0  0  0  0  0  0  0  0  0  0  0
  190.6070  176.8640  143.7990 C   0  0  0  0  0  0  0  0  0  0  0  0
  191.7340  176.4730  144.5260 C   0  0  0  0  0  3  0  0  0  0  0  0
  187.3650  178.0000  141.4850 N   0  0  0  0  0  0  0  0  0  0  0  0
  185.9550  178.3680  143.3650 C   0  0  0  0  0  0  0  0  0  0  0  0
  184.5940  178.7820  143.8560 C   0  0  0  0  0  2  0  0  0  0  0  0
  190.7610  176.6800  139.5730 C   0  0  0  0  0  3  0  0  0  0  0  0
  189.7660  177.2870  140.2090 C   0  0  0  0  0  3  0  0  0  0  0  0
  190.8470  176.7390  138.0850 C   0  0  0  0  0  2  0  0  0  0  0  0
  189.4650  176.7710  137.4330 C   0  0  0  0  0  2  0  0  0  0  0  0
  189.1820  178.0810  136.7010 C   0  0  0  0  0  2  0  0  0  0  0  0
  187.4860  179.7520  136.6500 O   0  0  0  0  0  0  0  0  0  0  0  0
  187.8030  178.5780  136.9770 C   0  0  0  0  0  0  0  0  0  0  0  0
  186.8590  177.7000  137.5980 N   0  0  0  0  0  2  0  0  0  0  0  0
  185.4990  178.0200  137.9120 C   0  0  0  0  0  0  0  0  0  0  0  0
  185.1700  179.1560  138.7060 N   0  0  0  0  0  1  0  0  0  0  0  0
  184.3040  177.0660  137.3450 S   0  0  0  0  0  0  0  0  0  0  0  0
  1  9  1  0  0  0  0
  2  3  1  0  0  0  0
  2  5  1  0  0  0  0
  3  7  1  0  0  0  0
  5 14  1  0  0  0  0
  6  1  1  0  0  0  0
  7  4  2  0  0  0  0
  8 13  1  0  0  0  0
  8 12  2  0  0  0  0
 10 19  1  0  0  0  0
 11 15  2  0  0  0  0
 11  4  1  0  0  0  0
 12 16  1  0  0  0  0
 13  2  2  0  0  0  0
 14  1  2  0  0  0  0
 16  5  2  0  0  0  0
 16 17  1  0  0  0  0
 17  6  2  0  0  0  0
 18 10  2  0  0  0  0
 18 13  1  0  0  0  0
 19 20  1  0  0  0  0
 19  3  2  0  0  0  0
 20 11  1  0  0  0  0
 21 22  2  0  0  0  0
 22  8  1  0  0  0  0
 23 21  1  0  0  0  0
 24 23  1  0  0  0  0
 25 27  1  0  0  0  0
 25 24  1  0  0  0  0
 26 27  2  0  0  0  0
 27 28  1  0  0  0  0
 28 29  1  0  0  0  0
 29 30  1  0  0  0  0
 31 29  2  0  0  0  0
M  END
>  <MODEL>
3

>  <REMARK>
 VINA RESULT:      -9.8      2.380      4.436
  Name = 
  6 active torsions:
  status: ('A' for Active; 'I' for Inactive)
    1  A    between atoms: C_1  and  N_24
    2  A    between atoms: C_3  and  C_19
    3  A    between atoms: C_3  and  C_22
    4  A    between atoms: C_7  and  C_9
    5  A    between atoms: C_7  and  C_22
    6  A    between atoms: C_15  and  C_23
                            x       y       z     vdW  Elec       q    Type
                         _______ _______ _______ _____ _____    ______ ____

>  <TORSDO>
F 6

$$$$
=
 OpenBabel10262419293D

 31 34  0  0  0  0  0  0  0  0999 V2000
  188.2830  177.4380  147.7760 C   0  0  0  0  0  0  0  0  0  0  0  0
  187.4260  177.8990  144.1360 C   0  0  0  0  0  0  0  0  0  0  0  0
  186.0360  178.2350  144.0710 C   0  0  0  0  0  0  0  0  0  0  0  0
  183.8990  178.6620  145.2300 C   0  0  0  0  0  3  0  0  0  0  0  0
  188.1430  177.6430  145.3450 C   0  0  0  0  0  0  0  0  0  0  0  0
  189.6380  177.1210  147.6840 C   0  0  0  0  0  3  0  0  0  0  0  0
  185.1910  178.3510  145.2800 C   0  0  0  0  0  3  0  0  0  0  0  0
  189.5060  177.4880  142.9040 C   0  0  0  0  0  0  0  0  0  0  0  0
  187.6810  177.4970  148.9870 F   0  0  0  0  0  0  0  0  0  0  0  0
  186.1970  178.3670  141.6570 C   0  0  0  0  0  3  0  0  0  0  0  0
  183.2320  178.9110  143.9510 C   0  0  0  0  0  0  0  0  0  0  0  0
  190.1500  177.2520  144.0750 N   0  0  0  0  0  0  0  0  0  0  0  0
  188.1410  177.8150  142.9090 C   0  0  0  0  0  0  0  0  0  0  0  0
  187.5480  177.6950  146.6170 C   0  0  0  0  0  3  0  0  0  0  0  0
  182.0080  179.2030  143.9380 O   0  0  0  0  0  0  0  0  0  0  0  0
  189.5230  177.3180  145.2720 C   0  0  0  0  0  0  0  0  0  0  0  0
  190.2550  177.0610  146.4350 C   0  0  0  0  0  3  0  0  0  0  0  0
  187.5090  178.0490  141.7270 N   0  0  0  0  0  0  0  0  0  0  0  0
  185.4340  178.4680  142.8120 C   0  0  0  0  0  0  0  0  0  0  0  0
  183.9810  178.8260  142.6540 C   0  0  0  0  0  2  0  0  0  0  0  0
  191.5650  177.5040  141.5590 C   0  0  0  0  0  3  0  0  0  0  0  0
  190.2430  177.4020  141.6330 C   0  0  0  0  0  3  0  0  0  0  0  0
  192.2520  177.4100  140.2380 C   0  0  0  0  0  2  0  0  0  0  0  0
  191.3970  176.6850  139.1990 C   0  0  0  0  0  2  0  0  0  0  0  0
  192.0930  176.5470  137.8470 C   0  0  0  0  0  2  0  0  0  0  0  0
  192.4420  174.2030  137.6130 O   0  0  0  0  0  0  0  0  0  0  0  0
  192.9620  175.3360  137.7970 C   0  0  0  0  0  0  0  0  0  0  0  0
  194.3770  175.4870  137.9430 N   0  0  0  0  0  2  0  0  0  0  0  0
  195.3420  174.4310  137.9010 C   0  0  0  0  0  0  0  0  0  0  0  0
  195.4640  173.4970  138.9700 N   0  0  0  0  0  1  0  0  0  0  0  0
  196.3180  174.2930  136.6010 S   0  0  0  0  0  0  0  0  0  0  0  0
  1  9  1  0  0  0  0
  2  5  1  0  0  0  0
  3  2  1  0  0  0  0
  3  7  1  0  0  0  0
  4  7  2  0  0  0  0
  5 14  1  0  0  0  0
  6  1  1  0  0  0  0
  8 13  1  0  0  0  0
  8 12  2  0  0  0  0
 10 18  2  0  0  0  0
 10 19  1  0  0  0  0
 11  4  1  0  0  0  0
 12 16  1  0  0  0  0
 13  2  2  0  0  0  0
 14  1  2  0  0  0  0
 15 11  2  0  0  0  0
 16  5  2  0  0  0  0
 16 17  1  0  0  0  0
 17  6  2  0  0  0  0
 18 13  1  0  0  0  0
 19  3  2  0  0  0  0
 20 19  1  0  0  0  0
 20 11  1  0  0  0  0
 21 22  2  0  0  0  0
 22  8  1  0  0  0  0
 23 21  1  0  0  0  0
 24 23  1  0  0  0  0
 25 24  1  0  0  0  0
 26 27  2  0  0  0  0
 27 25  1  0  0  0  0
 27 28  1  0  0  0  0
 29 28  1  0  0  0  0
 29 30  1  0  0  0  0
 31 29  2  0  0  0  0
M  END
>  <MODEL>
4

>  <REMARK>
 VINA RESULT:      -9.8      4.250      6.716
  Name = 
  6 active torsions:
  status: ('A' for Active; 'I' for Inactive)
    1  A    between atoms: C_1  and  N_24
    2  A    between atoms: C_3  and  C_19
    3  A    between atoms: C_3  and  C_22
    4  A    between atoms: C_7  and  C_9
    5  A    between atoms: C_7  and  C_22
    6  A    between atoms: C_15  and  C_23
                            x       y       z     vdW  Elec       q    Type
                         _______ _______ _______ _____ _____    ______ ____

>  <TORSDO>
F 6

$$$$
=
 OpenBabel10262419293D

 31 34  0  0  0  0  0  0  0  0999 V2000
  184.9970  178.3420  145.5440 C   0  0  0  0  0  0  0  0  0  0  0  0
  188.3290  177.7610  143.8840 C   0  0  0  0  0  0  0  0  0  0  0  0
  189.2500  177.3840  144.9120 C   0  0  0  0  0  0  0  0  0  0  0  0
  189.7010  176.9270  147.2960 C   0  0  0  0  0  3  0  0  0  0  0  0
  186.9510  178.0700  144.1020 C   0  0  0  0  0  0  0  0  0  0  0  0
  184.2180  178.6950  144.4430 C   0  0  0  0  0  3  0  0  0  0  0  0
  188.8520  177.2760  146.3330 C   0  0  0  0  0  3  0  0  0  0  0  0
  187.9700  178.2000  141.4980 C   0  0  0  0  0  0  0  0  0  0  0  0
  184.4440  178.2980  146.7790 F   0  0  0  0  0  0  0  0  0  0  0  0
  191.0030  177.1940  143.2500 C   0  0  0  0  0  3  0  0  0  0  0  0
  191.1020  176.6250  146.9940 C   0  0  0  0  0  0  0  0  0  0  0  0
  186.6680  178.4850  141.7490 N   0  0  0  0  0  0  0  0  0  0  0  0
  188.8230  177.8340  142.5510 C   0  0  0  0  0  0  0  0  0  0  0  0
  186.3480  178.0340  145.3710 C   0  0  0  0  0  3  0  0  0  0  0  0
  191.8780  176.2980  147.9280 O   0  0  0  0  0  0  0  0  0  0  0  0
  186.1420  178.4320  142.9950 C   0  0  0  0  0  0  0  0  0  0  0  0
  184.7900  178.7410  143.1720 C   0  0  0  0  0  3  0  0  0  0  0  0
  190.1270  177.5510  142.2850 N   0  0  0  0  0  0  0  0  0  0  0  0
  190.5940  177.1020  144.5740 C   0  0  0  0  0  0  0  0  0  0  0  0
  191.6270  176.6980  145.5920 C   0  0  0  0  0  2  0  0  0  0  0  0
  187.7090  178.1210  139.0540 C   0  0  0  0  0  3  0  0  0  0  0  0
  188.4840  178.2740  140.1210 C   0  0  0  0  0  3  0  0  0  0  0  0
  188.2930  178.2050  137.6840 C   0  0  0  0  0  2  0  0  0  0  0  0
  187.2150  178.2030  136.6010 C   0  0  0  0  0  2  0  0  0  0  0  0
  187.4580  177.1500  135.5220 C   0  0  0  0  0  2  0  0  0  0  0  0
  186.9240  175.2640  136.8750 O   0  0  0  0  0  0  0  0  0  0  0  0
  187.7630  175.8160  136.1150 C   0  0  0  0  0  0  0  0  0  0  0  0
  189.0040  175.1790  135.7940 N   0  0  0  0  0  2  0  0  0  0  0  0
  189.4360  173.8990  136.2650 C   0  0  0  0  0  0  0  0  0  0  0  0
  190.2690  173.7750  137.4150 N   0  0  0  0  0  1  0  0  0  0  0  0
  188.9600  172.5550  135.4730 S   0  0  0  0  0  0  0  0  0  0  0  0
  1  9  1  0  0  0  0
  2  5  1  0  0  0  0
  2  3  1  0  0  0  0
  3  7  1  0  0  0  0
  5 14  2  0  0  0  0
  6  1  2  0  0  0  0
  7  4  2  0  0  0  0
  8 12  2  0  0  0  0
  8 13  1  0  0  0  0
 10 19  1  0  0  0  0
 11  4  1  0  0  0  0
 11 15  2  0  0  0  0
 12 16  1  0  0  0  0
 13  2  2  0  0  0  0
 14  1  1  0  0  0  0
 16 17  2  0  0  0  0
 16  5  1  0  0  0  0
 17  6  1  0  0  0  0
 18 13  1  0  0  0  0
 18 10  2  0  0  0  0
 19  3  2  0  0  0  0
 19 20  1  0  0  0  0
 20 11  1  0  0  0  0
 21 22  2  0  0  0  0
 22  8  1  0  0  0  0
 23 21  1  0  0  0  0
 24 23  1  0  0  0  0
 25 27  1  0  0  0  0
 25 24  1  0  0  0  0
 27 26  2  0  0  0  0
 28 27  1  0  0  0  0
 28 29  1  0  0  0  0
 29 30  1  0  0  0  0
 31 29  2  0  0  0  0
M  END
>  <MODEL>
5

>  <REMARK>
 VINA RESULT:      -9.5      2.512      3.096
  Name = 
  6 active torsions:
  status: ('A' for Active; 'I' for Inactive)
    1  A    between atoms: C_1  and  N_24
    2  A    between atoms: C_3  and  C_19
    3  A    between atoms: C_3  and  C_22
    4  A    between atoms: C_7  and  C_9
    5  A    between atoms: C_7  and  C_22
    6  A    between atoms: C_15  and  C_23
                            x       y       z     vdW  Elec       q    Type
                         _______ _______ _______ _____ _____    ______ ____

>  <TORSDO>
F 6

$$$$
=
 OpenBabel10262419293D

 31 34  0  0  0  0  0  0  0  0999 V2000
  188.0750  177.6200  147.7550 C   0  0  0  0  0  0  0  0  0  0  0  0
  187.1190  177.9260  144.1240 C   0  0  0  0  0  0  0  0  0  0  0  0
  185.7300  178.2670  144.0820 C   0  0  0  0  0  0  0  0  0  0  0  0
  183.6280  178.7570  145.2800 C   0  0  0  0  0  3  0  0  0  0  0  0
  187.8680  177.7180  145.3220 C   0  0  0  0  0  0  0  0  0  0  0  0
  189.4250  177.2910  147.6400 C   0  0  0  0  0  3  0  0  0  0  0  0
  184.9190  178.4410  145.3080 C   0  0  0  0  0  3  0  0  0  0  0  0
  189.1620  177.4480  142.8550 C   0  0  0  0  0  0  0  0  0  0  0  0
  187.5070  177.7350  148.9790 F   0  0  0  0  0  0  0  0  0  0  0  0
  185.8240  178.2920  141.6610 C   0  0  0  0  0  3  0  0  0  0  0  0
  182.9270  178.9540  144.0090 C   0  0  0  0  0  0  0  0  0  0  0  0
  189.8370  177.2600  144.0160 N   0  0  0  0  0  0  0  0  0  0  0  0
  187.8000  177.7830  142.8820 C   0  0  0  0  0  0  0  0  0  0  0  0
  187.3080  177.8300  146.6070 C   0  0  0  0  0  3  0  0  0  0  0  0
  181.7040  179.2530  144.0180 O   0  0  0  0  0  0  0  0  0  0  0  0
  189.2430  177.3820  145.2260 C   0  0  0  0  0  0  0  0  0  0  0  0
  190.0060  177.1720  146.3790 C   0  0  0  0  0  3  0  0  0  0  0  0
  187.1360  177.9690  141.7090 N   0  0  0  0  0  0  0  0  0  0  0  0
  185.0940  178.4480  142.8320 C   0  0  0  0  0  0  0  0  0  0  0  0
  183.6390  178.8080  142.6980 C   0  0  0  0  0  2  0  0  0  0  0  0
  191.1790  177.4330  141.4470 C   0  0  0  0  0  3  0  0  0  0  0  0
  189.8630  177.3020  141.5690 C   0  0  0  0  0  3  0  0  0  0  0  0
  191.8280  177.2740  140.1140 C   0  0  0  0  0  2  0  0  0  0  0  0
  191.0100  176.3830  139.1810 C   0  0  0  0  0  2  0  0  0  0  0  0
  190.8690  176.9620  137.7750 C   0  0  0  0  0  2  0  0  0  0  0  0
  189.2450  178.6840  138.0380 O   0  0  0  0  0  0  0  0  0  0  0  0
  189.5170  177.5530  137.5570 C   0  0  0  0  0  0  0  0  0  0  0  0
  188.5560  176.8240  136.7860 N   0  0  0  0  0  2  0  0  0  0  0  0
  187.2290  177.2590  136.4750 C   0  0  0  0  0  0  0  0  0  0  0  0
  186.1620  177.1070  137.4060 N   0  0  0  0  0  1  0  0  0  0  0  0
  186.9340  177.9460  135.0250 S   0  0  0  0  0  0  0  0  0  0  0  0
  1  9  1  0  0  0  0
  2  5  1  0  0  0  0
  3  2  1  0  0  0  0
  3  7  1  0  0  0  0
  4  7  2  0  0  0  0
  5 14  1  0  0  0  0
  6  1  1  0  0  0  0
  8 13  1  0  0  0  0
  8 12  2  0  0  0  0
 10 18  2  0  0  0  0
 10 19  1  0  0  0  0
 11 15  2  0  0  0  0
 11  4  1  0  0  0  0
 12 16  1  0  0  0  0
 13  2  2  0  0  0  0
 14  1  2  0  0  0  0
 16  5  2  0  0  0  0
 16 17  1  0  0  0  0
 17  6  2  0  0  0  0
 18 13  1  0  0  0  0
 19  3  2  0  0  0  0
 20 19  1  0  0  0  0
 20 11  1  0  0  0  0
 21 22  2  0  0  0  0
 22  8  1  0  0  0  0
 23 21  1  0  0  0  0
 24 23  1  0  0  0  0
 25 24  1  0  0  0  0
 27 25  1  0  0  0  0
 27 26  2  0  0  0  0
 28 27  1  0  0  0  0
 29 28  1  0  0  0  0
 29 30  1  0  0  0  0
 31 29  2  0  0  0  0
M  END
>  <MODEL>
6

>  <REMARK>
 VINA RESULT:      -9.5      2.923      5.073
  Name = 
  6 active torsions:
  status: ('A' for Active; 'I' for Inactive)
    1  A    between atoms: C_1  and  N_24
    2  A    between atoms: C_3  and  C_19
    3  A    between atoms: C_3  and  C_22
    4  A    between atoms: C_7  and  C_9
    5  A    between atoms: C_7  and  C_22
    6  A    between atoms: C_15  and  C_23
                            x       y       z     vdW  Elec       q    Type
                         _______ _______ _______ _____ _____    ______ ____

>  <TORSDO>
F 6

$$$$
=
 OpenBabel10262419293D

 31 34  0  0  0  0  0  0  0  0999 V2000
  189.8870  177.1640  147.1850 C   0  0  0  0  0  0  0  0  0  0  0  0
  188.2570  177.7620  143.8410 C   0  0  0  0  0  0  0  0  0  0  0  0
  189.2800  177.6370  142.8470 C   0  0  0  0  0  0  0  0  0  0  0  0
  191.6430  177.2100  142.2750 C   0  0  0  0  0  3  0  0  0  0  0  0
  188.4680  177.6070  145.2450 C   0  0  0  0  0  0  0  0  0  0  0  0
  188.7930  177.3160  148.0360 C   0  0  0  0  0  3  0  0  0  0  0  0
  190.6850  177.3270  143.1900 C   0  0  0  0  0  3  0  0  0  0  0  0
  185.8930  178.2010  144.3200 C   0  0  0  0  0  0  0  0  0  0  0  0
  191.1080  176.8780  147.6950 F   0  0  0  0  0  0  0  0  0  0  0  0
  187.6420  178.1060  141.1240 C   0  0  0  0  0  3  0  0  0  0  0  0
  191.3500  177.3840  140.8500 C   0  0  0  0  0  0  0  0  0  0  0  0
  186.1350  178.0450  145.6460 N   0  0  0  0  0  0  0  0  0  0  0  0
  186.9400  178.0640  143.3960 C   0  0  0  0  0  0  0  0  0  0  0  0
  189.7220  177.3090  145.8060 C   0  0  0  0  0  3  0  0  0  0  0  0
  192.2780  177.2660  140.0090 O   0  0  0  0  0  0  0  0  0  0  0  0
  187.3670  177.7580  146.1280 C   0  0  0  0  0  0  0  0  0  0  0  0
  187.5370  177.6130  147.5080 C   0  0  0  0  0  3  0  0  0  0  0  0
  186.6820  178.2230  142.0690 N   0  0  0  0  0  0  0  0  0  0  0  0
  188.9510  177.8140  141.4830 C   0  0  0  0  0  0  0  0  0  0  0  0
  189.9630  177.6990  140.3750 C   0  0  0  0  0  2  0  0  0  0  0  0
  183.5960  179.0130  144.6550 C   0  0  0  0  0  3  0  0  0  0  0  0
  184.5320  178.5130  143.8560 C   0  0  0  0  0  3  0  0  0  0  0  0
  182.2330  179.3050  144.1230 C   0  0  0  0  0  2  0  0  0  0  0  0
  181.8340  178.3370  143.0100 C   0  0  0  0  0  2  0  0  0  0  0  0
  180.9270  178.9770  141.9620 C   0  0  0  0  0  2  0  0  0  0  0  0
  181.0480  179.7430  139.7090 O   0  0  0  0  0  0  0  0  0  0  0  0
  181.6460  179.1940  140.6720 C   0  0  0  0  0  0  0  0  0  0  0  0
  183.0130  178.7840  140.5610 N   0  0  0  0  0  2  0  0  0  0  0  0
  183.8410  178.9370  139.4030 C   0  0  0  0  0  0  0  0  0  0  0  0
  184.4720  180.1780  139.1030 N   0  0  0  0  0  1  0  0  0  0  0  0
  184.0680  177.6610  138.4120 S   0  0  0  0  0  0  0  0  0  0  0  0
  1  9  1  0  0  0  0
  1  6  1  0  0  0  0
  2  5  1  0  0  0  0
  3  7  1  0  0  0  0
  3  2  1  0  0  0  0
  4  7  2  0  0  0  0
  5 14  1  0  0  0  0
  5 16  2  0  0  0  0
  8 12  2  0  0  0  0
 10 19  1  0  0  0  0
 10 18  2  0  0  0  0
 11  4  1  0  0  0  0
 12 16  1  0  0  0  0
 13  2  2  0  0  0  0
 13  8  1  0  0  0  0
 14  1  2  0  0  0  0
 15 11  2  0  0  0  0
 16 17  1  0  0  0  0
 17  6  2  0  0  0  0
 18 13  1  0  0  0  0
 19  3  2  0  0  0  0
 20 11  1  0  0  0  0
 20 19  1  0  0  0  0
 22  8  1  0  0  0  0
 22 21  2  0  0  0  0
 23 21  1  0  0  0  0
 24 23  1  0  0  0  0
 25 24  1  0  0  0  0
 26 27  2  0  0  0  0
 27 25  1  0  0  0  0
 28 27  1  0  0  0  0
 29 28  1  0  0  0  0
 30 29  1  0  0  0  0
 31 29  2  0  0  0  0
M  END
>  <MODEL>
7

>  <REMARK>
 VINA RESULT:      -9.4      2.724      5.053
  Name = 
  6 active torsions:
  status: ('A' for Active; 'I' for Inactive)
    1  A    between atoms: C_1  and  N_24
    2  A    between atoms: C_3  and  C_19
    3  A    between atoms: C_3  and  C_22
    4  A    between atoms: C_7  and  C_9
    5  A    between atoms: C_7  and  C_22
    6  A    between atoms: C_15  and  C_23
                            x       y       z     vdW  Elec       q    Type
                         _______ _______ _______ _____ _____    ______ ____

>  <TORSDO>
F 6

$$$$
=
 OpenBabel10262419293D

 31 34  0  0  0  0  0  0  0  0999 V2000
  185.3860  178.3300  145.5300 C   0  0  0  0  0  0  0  0  0  0  0  0
  188.6990  177.5030  143.9390 C   0  0  0  0  0  0  0  0  0  0  0  0
  189.5930  177.1350  144.9950 C   0  0  0  0  0  0  0  0  0  0  0  0
  190.0000  176.7800  147.4040 C   0  0  0  0  0  3  0  0  0  0  0  0
  187.3370  177.8890  144.1260 C   0  0  0  0  0  0  0  0  0  0  0  0
  184.6350  178.6630  144.4040 C   0  0  0  0  0  3  0  0  0  0  0  0
  189.1770  177.1190  146.4150 C   0  0  0  0  0  3  0  0  0  0  0  0
  188.3830  177.8340  141.5300 C   0  0  0  0  0  0  0  0  0  0  0  0
  184.8220  178.3770  146.7600 F   0  0  0  0  0  0  0  0  0  0  0  0
  191.3480  176.7730  143.3640 C   0  0  0  0  0  3  0  0  0  0  0  0
  191.3870  176.3950  147.1330 C   0  0  0  0  0  0  0  0  0  0  0  0
  187.0940  178.1950  141.7510 N   0  0  0  0  0  0  0  0  0  0  0  0
  189.2080  177.4830  142.6100 C   0  0  0  0  0  0  0  0  0  0  0  0
  186.7220  177.9480  145.3890 C   0  0  0  0  0  3  0  0  0  0  0  0
  192.1380  176.0790  148.0910 O   0  0  0  0  0  0  0  0  0  0  0  0
  186.5560  178.2330  142.9920 C   0  0  0  0  0  0  0  0  0  0  0  0
  185.2200  178.6150  143.1390 C   0  0  0  0  0  3  0  0  0  0  0  0
  190.4980  177.1230  142.3730 N   0  0  0  0  0  0  0  0  0  0  0  0
  190.9240  176.7700  144.6860 C   0  0  0  0  0  0  0  0  0  0  0  0
  191.9270  176.3690  145.7350 C   0  0  0  0  0  2  0  0  0  0  0  0
  188.4750  178.6280  139.2040 C   0  0  0  0  0  3  0  0  0  0  0  0
  188.9120  177.8120  140.1570 C   0  0  0  0  0  3  0  0  0  0  0  0
  189.0520  178.5530  137.8300 C   0  0  0  0  0  2  0  0  0  0  0  0
  188.0450  178.0140  136.8150 C   0  0  0  0  0  2  0  0  0  0  0  0
  186.5950  178.2420  137.2370 C   0  0  0  0  0  2  0  0  0  0  0  0
  184.5070  177.2070  136.7450 O   0  0  0  0  0  0  0  0  0  0  0  0
  185.7420  177.0550  136.9360 C   0  0  0  0  0  0  0  0  0  0  0  0
  186.3520  175.7630  136.8530 N   0  0  0  0  0  2  0  0  0  0  0  0
  185.6780  174.5360  136.5580 C   0  0  0  0  0  0  0  0  0  0  0  0
  185.2800  173.6410  137.5930 N   0  0  0  0  0  1  0  0  0  0  0  0
  185.3560  174.1570  135.0040 S   0  0  0  0  0  0  0  0  0  0  0  0
  1  9  1  0  0  0  0
  2  5  1  0  0  0  0
  2  3  1  0  0  0  0
  3  7  1  0  0  0  0
  5 14  2  0  0  0  0
  6  1  2  0  0  0  0
  7  4  2  0  0  0  0
  8 12  2  0  0  0  0
  8 13  1  0  0  0  0
 10 19  1  0  0  0  0
 11  4  1  0  0  0  0
 11 15  2  0  0  0  0
 12 16  1  0  0  0  0
 13  2  2  0  0  0  0
 14  1  1  0  0  0  0
 16 17  2  0  0  0  0
 16  5  1  0  0  0  0
 17  6  1  0  0  0  0
 18 13  1  0  0  0  0
 18 10  2  0  0  0  0
 19  3  2  0  0  0  0
 19 20  1  0  0  0  0
 20 11  1  0  0  0  0
 21 22  2  0  0  0  0
 22  8  1  0  0  0  0
 23 21  1  0  0  0  0
 24 25  1  0  0  0  0
 24 23  1  0  0  0  0
 26 27  2  0  0  0  0
 27 25  1  0  0  0  0
 28 27  1  0  0  0  0
 29 28  1  0  0  0  0
 29 30  1  0  0  0  0
 31 29  2  0  0  0  0
M  END
>  <MODEL>
8

>  <REMARK>
 VINA RESULT:      -9.4      1.809      2.149
  Name = 
  6 active torsions:
  status: ('A' for Active; 'I' for Inactive)
    1  A    between atoms: C_1  and  N_24
    2  A    between atoms: C_3  and  C_19
    3  A    between atoms: C_3  and  C_22
    4  A    between atoms: C_7  and  C_9
    5  A    between atoms: C_7  and  C_22
    6  A    between atoms: C_15  and  C_23
                            x       y       z     vdW  Elec       q    Type
                         _______ _______ _______ _____ _____    ______ ____

>  <TORSDO>
F 6

$$$$
=
 OpenBabel10262419293D

 31 34  0  0  0  0  0  0  0  0999 V2000
  190.4630  176.7480  146.1920 C   0  0  0  0  0  0  0  0  0  0  0  0
  188.1710  177.7570  143.3760 C   0  0  0  0  0  0  0  0  0  0  0  0
  186.9140  178.1080  143.9630 C   0  0  0  0  0  0  0  0  0  0  0  0
  185.5100  178.3680  145.9770 C   0  0  0  0  0  3  0  0  0  0  0  0
  189.3150  177.3170  144.1110 C   0  0  0  0  0  0  0  0  0  0  0  0
  191.6230  176.4400  145.4830 C   0  0  0  0  0  3  0  0  0  0  0  0
  186.6750  178.0460  145.4220 C   0  0  0  0  0  3  0  0  0  0  0  0
  189.4930  177.5220  141.3240 C   0  0  0  0  0  0  0  0  0  0  0  0
  190.4400  176.6270  147.5400 F   0  0  0  0  0  0  0  0  0  0  0  0
  186.0390  178.6000  141.7580 C   0  0  0  0  0  3  0  0  0  0  0  0
  184.3810  178.8120  145.1570 C   0  0  0  0  0  0  0  0  0  0  0  0
  190.5560  177.1090  142.0590 N   0  0  0  0  0  0  0  0  0  0  0  0
  188.2870  177.8530  141.9610 C   0  0  0  0  0  0  0  0  0  0  0  0
  189.3230  177.1810  145.5100 C   0  0  0  0  0  3  0  0  0  0  0  0
  183.2920  179.1100  145.7130 O   0  0  0  0  0  0  0  0  0  0  0  0
  190.5050  176.9980  143.4070 C   0  0  0  0  0  0  0  0  0  0  0  0
  191.6420  176.5640  144.0940 C   0  0  0  0  0  3  0  0  0  0  0  0
  187.2300  178.2670  141.2120 N   0  0  0  0  0  0  0  0  0  0  0  0
  185.8510  178.5310  143.1310 C   0  0  0  0  0  0  0  0  0  0  0  0
  184.4980  178.9180  143.6660 C   0  0  0  0  0  2  0  0  0  0  0  0
  190.2260  176.7070  139.1230 C   0  0  0  0  0  3  0  0  0  0  0  0
  189.6100  177.6240  139.8610 C   0  0  0  0  0  3  0  0  0  0  0  0
  190.3110  176.8700  137.6420 C   0  0  0  0  0  2  0  0  0  0  0  0
  191.1830  175.7940  136.9970 C   0  0  0  0  0  2  0  0  0  0  0  0
  192.1980  175.1910  137.9660 C   0  0  0  0  0  2  0  0  0  0  0  0
  193.9130  176.6840  137.2550 O   0  0  0  0  0  0  0  0  0  0  0  0
  193.5990  175.5020  137.5570 C   0  0  0  0  0  0  0  0  0  0  0  0
  194.5670  174.4480  137.5330 N   0  0  0  0  0  2  0  0  0  0  0  0
  195.9480  174.5870  137.1820 C   0  0  0  0  0  0  0  0  0  0  0  0
  196.9350  174.8880  138.1640 N   0  0  0  0  0  1  0  0  0  0  0  0
  196.3990  174.3920  135.6270 S   0  0  0  0  0  0  0  0  0  0  0  0
  1  9  1  0  0  0  0
  2  3  1  0  0  0  0
  2  5  1  0  0  0  0
  3  7  1  0  0  0  0
  5 14  2  0  0  0  0
  6  1  2  0  0  0  0
  7  4  2  0  0  0  0
  8 13  1  0  0  0  0
  8 12  2  0  0  0  0
 10 19  1  0  0  0  0
 11 15  2  0  0  0  0
 11  4  1  0  0  0  0
 12 16  1  0  0  0  0
 13  2  2  0  0  0  0
 14  1  1  0  0  0  0
 16 17  2  0  0  0  0
 16  5  1  0  0  0  0
 17  6  1  0  0  0  0
 18 10  2  0  0  0  0
 18 13  1  0  0  0  0
 19 20  1  0  0  0  0
 19  3  2  0  0  0  0
 20 11  1  0  0  0  0
 21 22  2  0  0  0  0
 22  8  1  0  0  0  0
 23 21  1  0  0  0  0
 24 23  1  0  0  0  0
 24 25  1  0  0  0  0
 26 27  2  0  0  0  0
 27 25  1  0  0  0  0
 28 27  1  0  0  0  0
 29 28  1  0  0  0  0
 29 30  1  0  0  0  0
 31 29  2  0  0  0  0
M  END
>  <MODEL>
9

>  <REMARK>
 VINA RESULT:      -9.3      4.603      6.783
  Name = 
  6 active torsions:
  status: ('A' for Active; 'I' for Inactive)
    1  A    between atoms: C_1  and  N_24
    2  A    between atoms: C_3  and  C_19
    3  A    between atoms: C_3  and  C_22
    4  A    between atoms: C_7  and  C_9
    5  A    between atoms: C_7  and  C_22
    6  A    between atoms: C_15  and  C_23
                            x       y       z     vdW  Elec       q    Type
                         _______ _______ _______ _____ _____    ______ ____

>  <TORSDO>
F 6

$$$$
