=
 OpenBabel10262419523D

 25 28  0  0  0  0  0  0  0  0999 V2000
  187.4460  177.8140  145.6890 C   0  0  0  0  0  0  0  0  0  0  0  0
  188.7580  177.3430  145.5100 C   0  0  0  0  0  0  0  0  0  0  0  0
  187.7920  177.9760  148.1000 C   0  0  0  0  0  3  0  0  0  0  0  0
  186.4610  178.0350  144.7110 C   0  0  0  0  0  0  0  0  0  0  0  0
  184.2690  178.5910  143.0700 C   0  0  0  0  0  3  0  0  0  0  0  0
  189.1020  177.5060  147.9290 C   0  0  0  0  0  3  0  0  0  0  0  0
  185.2650  178.5080  145.2490 C   0  0  0  0  0  0  0  0  0  0  0  0
  184.1580  178.7930  144.4540 C   0  0  0  0  0  3  0  0  0  0  0  0
  190.8960  176.7120  146.4470 C   0  0  0  0  0  0  0  0  0  0  0  0
  191.8390  176.5140  147.5870 C   0  0  0  0  0  1  0  0  0  0  0  0
  189.2380  177.0340  144.2760 N   0  0  0  0  0  0  0  0  0  0  0  0
  185.4700  178.1150  142.5130 C   0  0  0  0  0  3  0  0  0  0  0  0
  186.9900  178.1200  146.9730 C   0  0  0  0  0  0  0  0  0  0  0  0
  185.3930  178.6610  146.9220 S   0  0  0  0  0  0  0  0  0  0  0  0
  191.3200  176.4190  145.1890 N   0  0  0  0  0  0  0  0  0  0  0  0
  186.5750  177.8330  143.3320 C   0  0  0  0  0  3  0  0  0  0  0  0
  190.5080  176.5820  144.1120 C   0  0  0  0  0  0  0  0  0  0  0  0
  189.5910  177.1890  146.6460 C   0  0  0  0  0  0  0  0  0  0  0  0
  190.9990  176.2270  142.7530 C   0  0  0  0  0  2  0  0  0  0  0  0
  191.3150  177.4880  141.9750 C   0  0  0  0  0  2  0  0  0  0  0  0
  190.7040  177.3950  140.5900 C   0  0  0  0  0  2  0  0  0  0  0  0
  189.1940  177.2850  140.6850 C   0  0  0  0  0  2  0  0  0  0  0  0
  188.5310  178.3710  139.8540 C   0  0  0  0  0  2  0  0  0  0  0  0
  189.0400  178.9000  137.3300 C   0  0  0  0  0  1  0  0  0  0  0  0
  188.0340  177.6960  138.2430 S   0  0  0  0  0  0  0  0  0  0  0  0
  1 13  1  0  0  0  0
  2  1  2  0  0  0  0
  2 18  1  0  0  0  0
  4  7  1  0  0  0  0
  4  1  1  0  0  0  0
  5  8  1  0  0  0  0
  6  3  1  0  0  0  0
  7 14  1  0  0  0  0
  8  7  2  0  0  0  0
  9 18  1  0  0  0  0
  9 10  1  0  0  0  0
 11  2  1  0  0  0  0
 12  5  2  0  0  0  0
 12 16  1  0  0  0  0
 13  3  2  0  0  0  0
 14 13  1  0  0  0  0
 15  9  2  0  0  0  0
 16  4  2  0  0  0  0
 17 11  2  0  0  0  0
 17 15  1  0  0  0  0
 18  6  2  0  0  0  0
 19 17  1  0  0  0  0
 20 19  1  0  0  0  0
 21 22  1  0  0  0  0
 21 20  1  0  0  0  0
 23 22  1  0  0  0  0
 24 25  1  0  0  0  0
 25 23  1  0  0  0  0
M  END
>  <MODEL>
1

>  <REMARK>
 VINA RESULT:      -9.2      0.000      0.000
  Name = 
  6 active torsions:
  status: ('A' for Active; 'I' for Inactive)
    1  A    between atoms: C_2  and  S_12
    2  A    between atoms: C_2  and  C_25
    3  A    between atoms: C_6  and  C_15
    4  A    between atoms: C_6  and  C_23
    5  A    between atoms: C_15  and  C_21
    6  A    between atoms: C_21  and  C_25
                            x       y       z     vdW  Elec       q    Type
                         _______ _______ _______ _____ _____    ______ ____

>  <TORSDO>
F 6

$$$$
=
 OpenBabel10262419523D

 25 28  0  0  0  0  0  0  0  0999 V2000
  187.2160  177.8410  145.3530 C   0  0  0  0  0  0  0  0  0  0  0  0
  188.4960  177.4140  144.9610 C   0  0  0  0  0  0  0  0  0  0  0  0
  187.8660  177.7610  147.7040 C   0  0  0  0  0  3  0  0  0  0  0  0
  186.1130  178.1440  144.5350 C   0  0  0  0  0  0  0  0  0  0  0  0
  183.7280  178.8280  143.2510 C   0  0  0  0  0  3  0  0  0  0  0  0
  189.1450  177.3330  147.3210 C   0  0  0  0  0  3  0  0  0  0  0  0
  184.9940  178.5390  145.2670 C   0  0  0  0  0  0  0  0  0  0  0  0
  183.7940  178.8840  144.6520 C   0  0  0  0  0  3  0  0  0  0  0  0
  190.7390  176.7270  145.5490 C   0  0  0  0  0  0  0  0  0  0  0  0
  191.8200  176.4290  146.5340 C   0  0  0  0  0  1  0  0  0  0  0  0
  188.8160  177.2420  143.6510 N   0  0  0  0  0  0  0  0  0  0  0  0
  184.8500  178.4320  142.5000 C   0  0  0  0  0  3  0  0  0  0  0  0
  186.9260  178.0060  146.7080 C   0  0  0  0  0  0  0  0  0  0  0  0
  185.3330  178.5210  146.9170 S   0  0  0  0  0  0  0  0  0  0  0  0
  191.0000  176.5720  144.2250 N   0  0  0  0  0  0  0  0  0  0  0  0
  186.0510  178.0870  143.1390 C   0  0  0  0  0  3  0  0  0  0  0  0
  190.0570  176.8310  143.2810 C   0  0  0  0  0  0  0  0  0  0  0  0
  189.4680  177.1580  145.9600 C   0  0  0  0  0  0  0  0  0  0  0  0
  190.3720  176.6250  141.8420 C   0  0  0  0  0  2  0  0  0  0  0  0
  189.2700  177.2180  140.9860 C   0  0  0  0  0  2  0  0  0  0  0  0
  189.8210  177.5490  139.6120 C   0  0  0  0  0  2  0  0  0  0  0  0
  189.0020  178.6520  138.9660 C   0  0  0  0  0  2  0  0  0  0  0  0
  189.1020  178.5680  137.4530 C   0  0  0  0  0  2  0  0  0  0  0  0
  186.5330  178.0760  137.7130 C   0  0  0  0  0  1  0  0  0  0  0  0
  187.9300  177.3300  136.8260 S   0  0  0  0  0  0  0  0  0  0  0  0
  1 13  1  0  0  0  0
  2  1  2  0  0  0  0
  2 18  1  0  0  0  0
  4  7  1  0  0  0  0
  4  1  1  0  0  0  0
  5  8  1  0  0  0  0
  6  3  1  0  0  0  0
  7 14  1  0  0  0  0
  8  7  2  0  0  0  0
  9 18  1  0  0  0  0
  9 10  1  0  0  0  0
 11  2  1  0  0  0  0
 12 16  1  0  0  0  0
 12  5  2  0  0  0  0
 13 14  1  0  0  0  0
 13  3  2  0  0  0  0
 15  9  2  0  0  0  0
 16  4  2  0  0  0  0
 17 11  2  0  0  0  0
 17 15  1  0  0  0  0
 18  6  2  0  0  0  0
 19 17  1  0  0  0  0
 20 19  1  0  0  0  0
 21 20  1  0  0  0  0
 22 21  1  0  0  0  0
 23 22  1  0  0  0  0
 25 23  1  0  0  0  0
 25 24  1  0  0  0  0
M  END
>  <MODEL>
2

>  <REMARK>
 VINA RESULT:      -8.9      0.925      1.210
  Name = 
  6 active torsions:
  status: ('A' for Active; 'I' for Inactive)
    1  A    between atoms: C_2  and  S_12
    2  A    between atoms: C_2  and  C_25
    3  A    between atoms: C_6  and  C_15
    4  A    between atoms: C_6  and  C_23
    5  A    between atoms: C_15  and  C_21
    6  A    between atoms: C_21  and  C_25
                            x       y       z     vdW  Elec       q    Type
                         _______ _______ _______ _____ _____    ______ ____

>  <TORSDO>
F 6

$$$$
=
 OpenBabel10262419523D

 25 28  0  0  0  0  0  0  0  0999 V2000
  189.4110  177.5140  143.7830 C   0  0  0  0  0  0  0  0  0  0  0  0
  188.7330  177.8600  142.6010 C   0  0  0  0  0  0  0  0  0  0  0  0
  191.4430  177.0270  142.5220 C   0  0  0  0  0  3  0  0  0  0  0  0
  188.9170  177.5140  145.0990 C   0  0  0  0  0  0  0  0  0  0  0  0
  188.3000  177.3890  147.8210 C   0  0  0  0  0  3  0  0  0  0  0  0
  190.7740  177.3690  141.3390 C   0  0  0  0  0  3  0  0  0  0  0  0
  189.8710  177.1110  146.0320 C   0  0  0  0  0  0  0  0  0  0  0  0
  189.5900  177.0400  147.3940 C   0  0  0  0  0  3  0  0  0  0  0  0
  188.7320  178.1290  140.1980 C   0  0  0  0  0  0  0  0  0  0  0  0
  189.3840  178.0740  138.8560 C   0  0  0  0  0  1  0  0  0  0  0  0
  187.4350  178.2610  142.6200 N   0  0  0  0  0  0  0  0  0  0  0  0
  187.3270  177.7990  146.8920 C   0  0  0  0  0  3  0  0  0  0  0  0
  190.7440  177.1070  143.7230 C   0  0  0  0  0  0  0  0  0  0  0  0
  191.3260  176.7480  145.2650 S   0  0  0  0  0  0  0  0  0  0  0  0
  187.4340  178.5230  140.2790 N   0  0  0  0  0  0  0  0  0  0  0  0
  187.6300  177.8640  145.5220 C   0  0  0  0  0  3  0  0  0  0  0  0
  186.7890  178.5960  141.4730 C   0  0  0  0  0  0  0  0  0  0  0  0
  189.4270  177.7850  141.3680 C   0  0  0  0  0  0  0  0  0  0  0  0
  185.3600  179.0070  141.5190 C   0  0  0  0  0  2  0  0  0  0  0  0
  184.6360  178.2240  142.5970 C   0  0  0  0  0  2  0  0  0  0  0  0
  184.3780  179.1250  143.7890 C   0  0  0  0  0  2  0  0  0  0  0  0
  182.9730  178.9100  144.3200 C   0  0  0  0  0  2  0  0  0  0  0  0
  181.9590  179.0160  143.1940 C   0  0  0  0  0  2  0  0  0  0  0  0
  179.5700  180.1080  143.1070 C   0  0  0  0  0  1  0  0  0  0  0  0
  180.3030  178.6060  143.8160 S   0  0  0  0  0  0  0  0  0  0  0  0
  1  4  1  0  0  0  0
  2 11  1  0  0  0  0
  2  1  1  0  0  0  0
  3 13  1  0  0  0  0
  4 16  2  0  0  0  0
  4  7  1  0  0  0  0
  6 18  1  0  0  0  0
  6  3  2  0  0  0  0
  7  8  2  0  0  0  0
  8  5  1  0  0  0  0
  9 15  2  0  0  0  0
  9 18  1  0  0  0  0
 10  9  1  0  0  0  0
 12  5  2  0  0  0  0
 13  1  2  0  0  0  0
 13 14  1  0  0  0  0
 14  7  1  0  0  0  0
 15 17  1  0  0  0  0
 16 12  1  0  0  0  0
 17 19  1  0  0  0  0
 17 11  2  0  0  0  0
 18  2  2  0  0  0  0
 19 20  1  0  0  0  0
 20 21  1  0  0  0  0
 21 22  1  0  0  0  0
 23 25  1  0  0  0  0
 23 22  1  0  0  0  0
 24 25  1  0  0  0  0
M  END
>  <MODEL>
3

>  <REMARK>
 VINA RESULT:      -8.8      2.501      6.373
  Name = 
  6 active torsions:
  status: ('A' for Active; 'I' for Inactive)
    1  A    between atoms: C_2  and  S_12
    2  A    between atoms: C_2  and  C_25
    3  A    between atoms: C_6  and  C_15
    4  A    between atoms: C_6  and  C_23
    5  A    between atoms: C_15  and  C_21
    6  A    between atoms: C_21  and  C_25
                            x       y       z     vdW  Elec       q    Type
                         _______ _______ _______ _____ _____    ______ ____

>  <TORSDO>
F 6

$$$$
=
 OpenBabel10262419523D

 25 28  0  0  0  0  0  0  0  0999 V2000
  187.7900  177.7300  145.6520 C   0  0  0  0  0  0  0  0  0  0  0  0
  187.0650  178.0210  144.4830 C   0  0  0  0  0  0  0  0  0  0  0  0
  185.8360  178.2170  147.0320 C   0  0  0  0  0  3  0  0  0  0  0  0
  189.1320  177.3270  145.7640 C   0  0  0  0  0  0  0  0  0  0  0  0
  191.7340  176.5200  146.3810 C   0  0  0  0  0  3  0  0  0  0  0  0
  185.1070  178.5100  145.8720 C   0  0  0  0  0  3  0  0  0  0  0  0
  189.5240  177.1240  147.0860 C   0  0  0  0  0  0  0  0  0  0  0  0
  190.8140  176.7220  147.4200 C   0  0  0  0  0  3  0  0  0  0  0  0
  185.0030  178.7080  143.4220 C   0  0  0  0  0  0  0  0  0  0  0  0
  183.5730  179.1360  143.4530 C   0  0  0  0  0  1  0  0  0  0  0  0
  187.6370  177.9330  143.2540 N   0  0  0  0  0  0  0  0  0  0  0  0
  191.3530  176.7210  145.0410 C   0  0  0  0  0  3  0  0  0  0  0  0
  187.1660  177.8320  146.8960 C   0  0  0  0  0  0  0  0  0  0  0  0
  188.2420  177.4330  148.1340 S   0  0  0  0  0  0  0  0  0  0  0  0
  185.6290  178.6030  142.2210 N   0  0  0  0  0  0  0  0  0  0  0  0
  190.0470  177.1260  144.7250 C   0  0  0  0  0  3  0  0  0  0  0  0
  186.9280  178.2140  142.1300 C   0  0  0  0  0  0  0  0  0  0  0  0
  185.7090  178.4160  144.6000 C   0  0  0  0  0  0  0  0  0  0  0  0
  187.5870  178.1350  140.7980 C   0  0  0  0  0  2  0  0  0  0  0  0
  189.0150  177.6560  140.9600 C   0  0  0  0  0  2  0  0  0  0  0  0
  189.6870  177.6020  139.6010 C   0  0  0  0  0  2  0  0  0  0  0  0
  189.1150  178.6690  138.6860 C   0  0  0  0  0  2  0  0  0  0  0  0
  189.2310  178.2370  137.2340 C   0  0  0  0  0  2  0  0  0  0  0  0
  186.6060  178.1030  137.1820 C   0  0  0  0  0  1  0  0  0  0  0  0
  187.9860  176.9670  136.8670 S   0  0  0  0  0  0  0  0  0  0  0  0
  1  4  1  0  0  0  0
  1 13  2  0  0  0  0
  2 18  2  0  0  0  0
  2  1  1  0  0  0  0
  4  7  1  0  0  0  0
  5  8  1  0  0  0  0
  6  3  2  0  0  0  0
  7  8  2  0  0  0  0
  7 14  1  0  0  0  0
  9 10  1  0  0  0  0
  9 18  1  0  0  0  0
 11  2  1  0  0  0  0
 12  5  2  0  0  0  0
 13  3  1  0  0  0  0
 13 14  1  0  0  0  0
 15  9  2  0  0  0  0
 16 12  1  0  0  0  0
 16  4  2  0  0  0  0
 17 15  1  0  0  0  0
 17 11  2  0  0  0  0
 18  6  1  0  0  0  0
 19 20  1  0  0  0  0
 19 17  1  0  0  0  0
 21 20  1  0  0  0  0
 22 21  1  0  0  0  0
 23 22  1  0  0  0  0
 25 24  1  0  0  0  0
 25 23  1  0  0  0  0
M  END
>  <MODEL>
4

>  <REMARK>
 VINA RESULT:      -8.7      1.629      4.649
  Name = 
  6 active torsions:
  status: ('A' for Active; 'I' for Inactive)
    1  A    between atoms: C_2  and  S_12
    2  A    between atoms: C_2  and  C_25
    3  A    between atoms: C_6  and  C_15
    4  A    between atoms: C_6  and  C_23
    5  A    between atoms: C_15  and  C_21
    6  A    between atoms: C_21  and  C_25
                            x       y       z     vdW  Elec       q    Type
                         _______ _______ _______ _____ _____    ______ ____

>  <TORSDO>
F 6

$$$$
=
 OpenBabel10262419523D

 25 28  0  0  0  0  0  0  0  0999 V2000
  189.2370  177.5600  144.0460 C   0  0  0  0  0  0  0  0  0  0  0  0
  188.2830  177.7880  145.0520 C   0  0  0  0  0  0  0  0  0  0  0  0
  190.9190  176.9810  145.7180 C   0  0  0  0  0  3  0  0  0  0  0  0
  189.0780  177.6800  142.6550 C   0  0  0  0  0  0  0  0  0  0  0  0
  189.1460  177.8070  139.8640 C   0  0  0  0  0  3  0  0  0  0  0  0
  189.9740  177.2080  146.7270 C   0  0  0  0  0  3  0  0  0  0  0  0
  190.2430  177.3740  141.9520 C   0  0  0  0  0  0  0  0  0  0  0  0
  190.3030  177.4300  140.5620 C   0  0  0  0  0  3  0  0  0  0  0  0
  187.6950  177.8470  147.3970 C   0  0  0  0  0  0  0  0  0  0  0  0
  188.0080  177.6890  148.8480 C   0  0  0  0  0  1  0  0  0  0  0  0
  187.0150  178.1750  144.7520 N   0  0  0  0  0  0  0  0  0  0  0  0
  187.9630  178.1180  140.5600 C   0  0  0  0  0  3  0  0  0  0  0  0
  190.5290  177.1630  144.3950 C   0  0  0  0  0  0  0  0  0  0  0  0
  191.4790  176.9560  143.0160 S   0  0  0  0  0  0  0  0  0  0  0  0
  186.4430  178.2340  147.0360 N   0  0  0  0  0  0  0  0  0  0  0  0
  187.9220  178.0560  141.9620 C   0  0  0  0  0  3  0  0  0  0  0  0
  186.0990  178.3910  145.7310 C   0  0  0  0  0  0  0  0  0  0  0  0
  188.6600  177.6090  146.4060 C   0  0  0  0  0  0  0  0  0  0  0  0
  184.7260  178.8400  145.3760 C   0  0  0  0  0  2  0  0  0  0  0  0
  184.7440  179.5260  144.0240 C   0  0  0  0  0  2  0  0  0  0  0  0
  183.7090  178.8850  143.1190 C   0  0  0  0  0  2  0  0  0  0  0  0
  184.3890  178.1230  141.9960 C   0  0  0  0  0  2  0  0  0  0  0  0
  184.2410  178.8720  140.6830 C   0  0  0  0  0  2  0  0  0  0  0  0
  182.2970  179.7120  139.1260 C   0  0  0  0  0  1  0  0  0  0  0  0
  182.9350  178.1060  139.6800 S   0  0  0  0  0  0  0  0  0  0  0  0
  1 13  1  0  0  0  0
  1  2  2  0  0  0  0
  2 18  1  0  0  0  0
  3  6  1  0  0  0  0
  4  1  1  0  0  0  0
  5 12  1  0  0  0  0
  5  8  2  0  0  0  0
  7  4  2  0  0  0  0
  7 14  1  0  0  0  0
  8  7  1  0  0  0  0
  9 10  1  0  0  0  0
 11  2  1  0  0  0  0
 11 17  2  0  0  0  0
 12 16  2  0  0  0  0
 13  3  2  0  0  0  0
 14 13  1  0  0  0  0
 15  9  2  0  0  0  0
 16  4  1  0  0  0  0
 17 15  1  0  0  0  0
 18  6  2  0  0  0  0
 18  9  1  0  0  0  0
 19 17  1  0  0  0  0
 20 19  1  0  0  0  0
 21 20  1  0  0  0  0
 22 21  1  0  0  0  0
 23 22  1  0  0  0  0
 24 25  1  0  0  0  0
 25 23  1  0  0  0  0
M  END
>  <MODEL>
5

>  <REMARK>
 VINA RESULT:      -8.5      2.400      5.020
  Name = 
  6 active torsions:
  status: ('A' for Active; 'I' for Inactive)
    1  A    between atoms: C_2  and  S_12
    2  A    between atoms: C_2  and  C_25
    3  A    between atoms: C_6  and  C_15
    4  A    between atoms: C_6  and  C_23
    5  A    between atoms: C_15  and  C_21
    6  A    between atoms: C_21  and  C_25
                            x       y       z     vdW  Elec       q    Type
                         _______ _______ _______ _____ _____    ______ ____

>  <TORSDO>
F 6

$$$$
=
 OpenBabel10262419523D

 25 28  0  0  0  0  0  0  0  0999 V2000
  187.4570  177.8520  145.5620 C   0  0  0  0  0  0  0  0  0  0  0  0
  186.5750  178.1810  144.5180 C   0  0  0  0  0  0  0  0  0  0  0  0
  185.6910  178.1910  147.2130 C   0  0  0  0  0  3  0  0  0  0  0  0
  188.8130  177.4920  145.4730 C   0  0  0  0  0  0  0  0  0  0  0  0
  191.4960  176.7470  145.6940 C   0  0  0  0  0  3  0  0  0  0  0  0
  184.8060  178.5210  146.1780 C   0  0  0  0  0  3  0  0  0  0  0  0
  189.3830  177.2300  146.7180 C   0  0  0  0  0  0  0  0  0  0  0  0
  190.7170  176.8580  146.8560 C   0  0  0  0  0  3  0  0  0  0  0  0
  184.3720  178.8510  143.7800 C   0  0  0  0  0  0  0  0  0  0  0  0
  182.9470  179.2250  144.0230 C   0  0  0  0  0  1  0  0  0  0  0  0
  186.9810  178.1820  143.2220 N   0  0  0  0  0  0  0  0  0  0  0  0
  190.9340  177.0080  144.4310 C   0  0  0  0  0  3  0  0  0  0  0  0
  187.0020  177.8620  146.8820 C   0  0  0  0  0  0  0  0  0  0  0  0
  188.2430  177.4340  147.9410 S   0  0  0  0  0  0  0  0  0  0  0  0
  184.8350  178.8350  142.5030 N   0  0  0  0  0  0  0  0  0  0  0  0
  189.5860  177.3830  144.3130 C   0  0  0  0  0  3  0  0  0  0  0  0
  186.1210  178.4990  142.2190 C   0  0  0  0  0  0  0  0  0  0  0  0
  185.2360  178.5200  144.8350 C   0  0  0  0  0  0  0  0  0  0  0  0
  186.5990  178.5180  140.8100 C   0  0  0  0  0  2  0  0  0  0  0  0
  188.0800  178.2030  140.7670 C   0  0  0  0  0  2  0  0  0  0  0  0
  188.4160  177.5320  139.4480 C   0  0  0  0  0  2  0  0  0  0  0  0
  189.8580  177.8100  139.0660 C   0  0  0  0  0  2  0  0  0  0  0  0
  190.7670  176.7140  139.5950 C   0  0  0  0  0  2  0  0  0  0  0  0
  193.3360  177.2560  139.7340 C   0  0  0  0  0  1  0  0  0  0  0  0
  191.9010  177.3990  140.8370 S   0  0  0  0  0  0  0  0  0  0  0  0
  1 13  2  0  0  0  0
  2 18  2  0  0  0  0
  2  1  1  0  0  0  0
  4  1  1  0  0  0  0
  4  7  1  0  0  0  0
  5  8  1  0  0  0  0
  6  3  2  0  0  0  0
  7  8  2  0  0  0  0
  7 14  1  0  0  0  0
  9 10  1  0  0  0  0
  9 18  1  0  0  0  0
 11  2  1  0  0  0  0
 12  5  2  0  0  0  0
 13  3  1  0  0  0  0
 13 14  1  0  0  0  0
 15  9  2  0  0  0  0
 16 12  1  0  0  0  0
 16  4  2  0  0  0  0
 17 15  1  0  0  0  0
 17 11  2  0  0  0  0
 18  6  1  0  0  0  0
 19 17  1  0  0  0  0
 20 19  1  0  0  0  0
 21 20  1  0  0  0  0
 22 21  1  0  0  0  0
 22 23  1  0  0  0  0
 23 25  1  0  0  0  0
 24 25  1  0  0  0  0
M  END
>  <MODEL>
6

>  <REMARK>
 VINA RESULT:      -8.5      1.949      4.923
  Name = 
  6 active torsions:
  status: ('A' for Active; 'I' for Inactive)
    1  A    between atoms: C_2  and  S_12
    2  A    between atoms: C_2  and  C_25
    3  A    between atoms: C_6  and  C_15
    4  A    between atoms: C_6  and  C_23
    5  A    between atoms: C_15  and  C_21
    6  A    between atoms: C_21  and  C_25
                            x       y       z     vdW  Elec       q    Type
                         _______ _______ _______ _____ _____    ______ ____

>  <TORSDO>
F 6

$$$$
=
 OpenBabel10262419523D

 25 28  0  0  0  0  0  0  0  0999 V2000
  186.8520  177.9510  144.9820 C   0  0  0  0  0  0  0  0  0  0  0  0
  188.0490  177.5800  144.3460 C   0  0  0  0  0  0  0  0  0  0  0  0
  187.8980  177.7180  147.1750 C   0  0  0  0  0  3  0  0  0  0  0  0
  185.6220  178.2890  144.3900 C   0  0  0  0  0  0  0  0  0  0  0  0
  183.0460  179.0110  143.5880 C   0  0  0  0  0  3  0  0  0  0  0  0
  189.0950  177.3460  146.5480 C   0  0  0  0  0  3  0  0  0  0  0  0
  184.6420  178.6070  145.3290 C   0  0  0  0  0  0  0  0  0  0  0  0
  183.3510  178.9700  144.9560 C   0  0  0  0  0  3  0  0  0  0  0  0
  190.3650  176.9010  144.4890 C   0  0  0  0  0  0  0  0  0  0  0  0
  191.6030  176.5570  145.2500 C   0  0  0  0  0  1  0  0  0  0  0  0
  188.1400  177.5080  142.9920 N   0  0  0  0  0  0  0  0  0  0  0  0
  184.0240  178.6930  142.6280 C   0  0  0  0  0  3  0  0  0  0  0  0
  186.7990  178.0130  146.3750 C   0  0  0  0  0  0  0  0  0  0  0  0
  185.2620  178.4790  146.8910 S   0  0  0  0  0  0  0  0  0  0  0  0
  190.3950  176.8460  143.1320 N   0  0  0  0  0  0  0  0  0  0  0  0
  185.3210  178.3300  143.0250 C   0  0  0  0  0  3  0  0  0  0  0  0
  189.3010  177.1510  142.3860 C   0  0  0  0  0  0  0  0  0  0  0  0
  189.1810  177.2750  145.1420 C   0  0  0  0  0  0  0  0  0  0  0  0
  189.3650  177.0550  140.9030 C   0  0  0  0  0  2  0  0  0  0  0  0
  190.8080  176.9210  140.4590 C   0  0  0  0  0  2  0  0  0  0  0  0
  190.9080  177.2030  138.9720 C   0  0  0  0  0  2  0  0  0  0  0  0
  191.6250  176.0670  138.2660 C   0  0  0  0  0  2  0  0  0  0  0  0
  193.0610  176.4580  137.9590 C   0  0  0  0  0  2  0  0  0  0  0  0
  192.6090  173.9990  137.1480 C   0  0  0  0  0  1  0  0  0  0  0  0
  194.0550  174.9670  137.6640 S   0  0  0  0  0  0  0  0  0  0  0  0
  1 13  1  0  0  0  0
  2  1  2  0  0  0  0
  2 18  1  0  0  0  0
  4  1  1  0  0  0  0
  4  7  1  0  0  0  0
  5  8  1  0  0  0  0
  6  3  1  0  0  0  0
  7 14  1  0  0  0  0
  8  7  2  0  0  0  0
  9 18  1  0  0  0  0
  9 10  1  0  0  0  0
 11  2  1  0  0  0  0
 12 16  1  0  0  0  0
 12  5  2  0  0  0  0
 13 14  1  0  0  0  0
 13  3  2  0  0  0  0
 15  9  2  0  0  0  0
 16  4  2  0  0  0  0
 17 11  2  0  0  0  0
 17 15  1  0  0  0  0
 18  6  2  0  0  0  0
 19 17  1  0  0  0  0
 20 19  1  0  0  0  0
 21 20  1  0  0  0  0
 22 21  1  0  0  0  0
 23 22  1  0  0  0  0
 24 25  1  0  0  0  0
 25 23  1  0  0  0  0
M  END
>  <MODEL>
7

>  <REMARK>
 VINA RESULT:      -8.3      2.148      2.639
  Name = 
  6 active torsions:
  status: ('A' for Active; 'I' for Inactive)
    1  A    between atoms: C_2  and  S_12
    2  A    between atoms: C_2  and  C_25
    3  A    between atoms: C_6  and  C_15
    4  A    between atoms: C_6  and  C_23
    5  A    between atoms: C_15  and  C_21
    6  A    between atoms: C_21  and  C_25
                            x       y       z     vdW  Elec       q    Type
                         _______ _______ _______ _____ _____    ______ ____

>  <TORSDO>
F 6

$$$$
=
 OpenBabel10262419523D

 25 28  0  0  0  0  0  0  0  0999 V2000
  189.4030  177.5180  143.8150 C   0  0  0  0  0  0  0  0  0  0  0  0
  188.7830  177.8570  142.6000 C   0  0  0  0  0  0  0  0  0  0  0  0
  191.4940  177.0240  142.6560 C   0  0  0  0  0  3  0  0  0  0  0  0
  188.8460  177.5250  145.1050 C   0  0  0  0  0  0  0  0  0  0  0  0
  188.0990  177.4160  147.7950 C   0  0  0  0  0  3  0  0  0  0  0  0
  190.8830  177.3600  141.4400 C   0  0  0  0  0  3  0  0  0  0  0  0
  189.7540  177.1270  146.0860 C   0  0  0  0  0  0  0  0  0  0  0  0
  189.4070  177.0640  147.4320 C   0  0  0  0  0  3  0  0  0  0  0  0
  188.8980  178.1130  140.1980 C   0  0  0  0  0  0  0  0  0  0  0  0
  189.6140  178.0490  138.8890 C   0  0  0  0  0  1  0  0  0  0  0  0
  187.4860  178.2580  142.5530 N   0  0  0  0  0  0  0  0  0  0  0  0
  187.1710  177.8200  146.8170 C   0  0  0  0  0  3  0  0  0  0  0  0
  190.7380  177.1100  143.8210 C   0  0  0  0  0  0  0  0  0  0  0  0
  191.2450  176.7610  145.3910 S   0  0  0  0  0  0  0  0  0  0  0  0
  187.5980  178.5060  140.2140 N   0  0  0  0  0  0  0  0  0  0  0  0
  187.5410  177.8770  145.4640 C   0  0  0  0  0  3  0  0  0  0  0  0
  186.8950  178.5870  141.3750 C   0  0  0  0  0  0  0  0  0  0  0  0
  189.5350  177.7750  141.4020 C   0  0  0  0  0  0  0  0  0  0  0  0
  185.4660  178.9970  141.3500 C   0  0  0  0  0  2  0  0  0  0  0  0
  184.9670  179.2050  142.7660 C   0  0  0  0  0  2  0  0  0  0  0  0
  183.5710  178.6280  142.9000 C   0  0  0  0  0  2  0  0  0  0  0  0
  183.0380  178.2120  141.5410 C   0  0  0  0  0  2  0  0  0  0  0  0
  181.6440  178.7760  141.3250 C   0  0  0  0  0  2  0  0  0  0  0  0
  182.7140  179.6910  139.1050 C   0  0  0  0  0  1  0  0  0  0  0  0
  181.2340  178.7420  139.5560 S   0  0  0  0  0  0  0  0  0  0  0  0
  1 13  2  0  0  0  0
  1  4  1  0  0  0  0
  2  1  1  0  0  0  0
  3 13  1  0  0  0  0
  4 16  2  0  0  0  0
  4  7  1  0  0  0  0
  6  3  2  0  0  0  0
  7  8  2  0  0  0  0
  8  5  1  0  0  0  0
  9 15  2  0  0  0  0
  9 18  1  0  0  0  0
 10  9  1  0  0  0  0
 11  2  1  0  0  0  0
 12  5  2  0  0  0  0
 13 14  1  0  0  0  0
 14  7  1  0  0  0  0
 15 17  1  0  0  0  0
 16 12  1  0  0  0  0
 17 11  2  0  0  0  0
 18  6  1  0  0  0  0
 18  2  2  0  0  0  0
 19 17  1  0  0  0  0
 19 20  1  0  0  0  0
 20 21  1  0  0  0  0
 22 21  1  0  0  0  0
 23 22  1  0  0  0  0
 24 25  1  0  0  0  0
 25 23  1  0  0  0  0
M  END
>  <MODEL>
8

>  <REMARK>
 VINA RESULT:      -8.2      2.621      5.863
  Name = 
  6 active torsions:
  status: ('A' for Active; 'I' for Inactive)
    1  A    between atoms: C_2  and  S_12
    2  A    between atoms: C_2  and  C_25
    3  A    between atoms: C_6  and  C_15
    4  A    between atoms: C_6  and  C_23
    5  A    between atoms: C_15  and  C_21
    6  A    between atoms: C_21  and  C_25
                            x       y       z     vdW  Elec       q    Type
                         _______ _______ _______ _____ _____    ______ ____

>  <TORSDO>
F 6

$$$$
=
 OpenBabel10262419523D

 25 28  0  0  0  0  0  0  0  0999 V2000
  186.0970  178.3570  142.7830 C   0  0  0  0  0  0  0  0  0  0  0  0
  186.9920  178.0990  141.7310 C   0  0  0  0  0  0  0  0  0  0  0  0
  184.3790  179.0670  141.2010 C   0  0  0  0  0  3  0  0  0  0  0  0
  186.3110  178.2000  144.1640 C   0  0  0  0  0  0  0  0  0  0  0  0
  186.3610  178.0190  146.9510 C   0  0  0  0  0  3  0  0  0  0  0  0
  185.2660  178.8140  140.1460 C   0  0  0  0  0  3  0  0  0  0  0  0
  185.1970  178.5530  144.9250 C   0  0  0  0  0  0  0  0  0  0  0  0
  185.1960  178.4730  146.3140 C   0  0  0  0  0  3  0  0  0  0  0  0
  187.4770  178.0740  139.3620 C   0  0  0  0  0  0  0  0  0  0  0  0
  187.1150  178.2970  137.9310 C   0  0  0  0  0  1  0  0  0  0  0  0
  188.2470  177.6350  141.9650 N   0  0  0  0  0  0  0  0  0  0  0  0
  187.4930  177.6580  146.1960 C   0  0  0  0  0  3  0  0  0  0  0  0
  184.8150  178.8330  142.5010 C   0  0  0  0  0  0  0  0  0  0  0  0
  183.9400  179.0620  143.9250 S   0  0  0  0  0  0  0  0  0  0  0  0
  188.7200  177.6120  139.6580 N   0  0  0  0  0  0  0  0  0  0  0  0
  187.4740  177.7470  144.7950 C   0  0  0  0  0  3  0  0  0  0  0  0
  189.1050  177.3860  140.9420 C   0  0  0  0  0  0  0  0  0  0  0  0
  186.5670  178.3320  140.3990 C   0  0  0  0  0  0  0  0  0  0  0  0
  190.4820  176.9040  141.2290 C   0  0  0  0  0  2  0  0  0  0  0  0
  190.6510  176.6900  142.7190 C   0  0  0  0  0  2  0  0  0  0  0  0
  191.4640  177.8280  143.3050 C   0  0  0  0  0  2  0  0  0  0  0  0
  191.2080  177.9470  144.7970 C   0  0  0  0  0  2  0  0  0  0  0  0
  191.5960  176.6600  145.5040 C   0  0  0  0  0  2  0  0  0  0  0  0
  192.4310  175.6970  147.8030 C   0  0  0  0  0  1  0  0  0  0  0  0
  191.0410  176.7160  147.2320 S   0  0  0  0  0  0  0  0  0  0  0  0
  1  4  1  0  0  0  0
  2 11  1  0  0  0  0
  2  1  1  0  0  0  0
  3 13  1  0  0  0  0
  4 16  2  0  0  0  0
  4  7  1  0  0  0  0
  6 18  1  0  0  0  0
  6  3  2  0  0  0  0
  7  8  2  0  0  0  0
  8  5  1  0  0  0  0
  9 15  2  0  0  0  0
  9 18  1  0  0  0  0
 10  9  1  0  0  0  0
 12  5  2  0  0  0  0
 13  1  2  0  0  0  0
 13 14  1  0  0  0  0
 14  7  1  0  0  0  0
 15 17  1  0  0  0  0
 16 12  1  0  0  0  0
 17 19  1  0  0  0  0
 17 11  2  0  0  0  0
 18  2  2  0  0  0  0
 19 20  1  0  0  0  0
 20 21  1  0  0  0  0
 21 22  1  0  0  0  0
 22 23  1  0  0  0  0
 23 25  1  0  0  0  0
 25 24  1  0  0  0  0
M  END
>  <MODEL>
9

>  <REMARK>
 VINA RESULT:      -8.1      2.224      5.793
  Name = 
  6 active torsions:
  status: ('A' for Active; 'I' for Inactive)
    1  A    between atoms: C_2  and  S_12
    2  A    between atoms: C_2  and  C_25
    3  A    between atoms: C_6  and  C_15
    4  A    between atoms: C_6  and  C_23
    5  A    between atoms: C_15  and  C_21
    6  A    between atoms: C_21  and  C_25
                            x       y       z     vdW  Elec       q    Type
                         _______ _______ _______ _____ _____    ______ ____

>  <TORSDO>
F 6

$$$$
