=
 OpenBabel10262423163D

 34 38  0  0  1  0  0  0  0  0999 V2000
  187.8040  177.6600  144.3480 C   0  0  2  0  0  3  0  0  0  0  0  0
  183.9410  178.1860  144.9220 C   0  0  0  0  0  2  0  0  0  0  0  0
  182.7250  179.1090  142.0220 C   0  0  0  0  0  0  0  0  0  0  0  0
  185.8380  178.0150  146.4290 O   0  0  0  0  0  0  0  0  0  0  0  0
  189.5360  177.7610  146.1730 C   0  0  0  0  0  3  0  0  0  0  0  0
  188.9050  178.0370  148.4950 C   0  0  0  0  0  3  0  0  0  0  0  0
  182.8370  178.8700  140.6560 O   0  0  0  0  0  0  0  0  0  0  0  0
  189.8930  177.8790  147.5190 C   0  0  0  0  0  3  0  0  0  0  0  0
  187.1910  177.9540  146.7860 C   0  0  0  0  0  0  0  0  0  0  0  0
  188.1880  177.8010  145.7980 C   0  0  0  0  0  0  0  0  0  0  0  0
  187.5570  178.0770  148.1290 C   0  0  0  0  0  3  0  0  0  0  0  0
  183.7940  179.5450  144.2520 C   0  0  0  0  0  2  0  0  0  0  0  0
  181.5860  179.0840  142.5600 O   0  0  0  0  0  1  0  0  0  0  0  0
  183.8930  179.3840  142.8050 N   0  0  0  0  0  0  0  0  0  0  0  0
  185.2100  179.3490  142.1810 C   0  0  0  0  0  2  0  0  0  0  0  0
  185.3950  177.7330  145.1000 C   0  0  2  0  0  3  0  0  0  0  0  0
  185.9820  178.1150  142.6240 C   0  0  0  0  0  2  0  0  0  0  0  0
  186.4160  178.2700  144.0790 C   0  0  2  0  0  3  0  0  0  0  0  0
  187.9570  176.2180  143.8380 C   0  0  0  0  0  2  0  0  0  0  0  0
  189.2490  175.9910  143.0620 C   0  0  0  0  0  2  0  0  0  0  0  0
  189.6200  177.2050  142.3500 N   0  0  0  0  0  2  0  0  0  0  0  0
  188.6200  178.3010  138.9120 C   0  0  0  0  0  3  0  0  0  0  0  0
  190.3950  176.5210  140.1380 C   0  0  0  0  0  3  0  0  0  0  0  0
  190.2120  176.5720  135.8980 C   0  0  1  0  0  3  0  0  0  0  0  0
  189.4160  177.6580  136.6340 C   0  0  0  0  0  2  0  0  0  0  0  0
  189.4520  177.5000  138.1250 C   0  0  0  0  0  0  0  0  0  0  0  0
  191.2080  175.6970  137.9220 C   0  0  0  0  0  2  0  0  0  0  0  0
  190.3580  176.6190  138.7440 C   0  0  0  0  0  0  0  0  0  0  0  0
  191.4670  176.2510  136.5900 N   0  0  0  0  0  2  0  0  0  0  0  0
  189.5610  177.3210  140.9250 C   0  0  0  0  0  0  0  0  0  0  0  0
  188.6700  178.2100  140.3040 C   0  0  0  0  0  3  0  0  0  0  0  0
  189.4020  175.3490  135.5800 C   0  0  0  0  0  0  0  0  0  0  0  0
  188.0840  175.2720  136.0080 O   0  0  0  0  0  1  0  0  0  0  0  0
  189.8940  174.4080  134.9030 O   0  0  0  0  0  0  0  0  0  0  0  0
  1 19  1  1  0  0  0
  1 10  1  0  0  0  0
  3 13  1  0  0  0  0
  3 14  1  0  0  0  0
  4  9  1  0  0  0  0
  5  8  1  0  0  0  0
  7  3  2  0  0  0  0
  8  6  2  0  0  0  0
  9 11  2  0  0  0  0
 10  5  2  0  0  0  0
 10  9  1  0  0  0  0
 11  6  1  0  0  0  0
 12  2  1  0  0  0  0
 14 12  1  0  0  0  0
 15 17  1  0  0  0  0
 15 14  1  0  0  0  0
 16  2  1  6  0  0  0
 16  4  1  0  0  0  0
 18 17  1  6  0  0  0
 18  1  1  0  0  0  0
 18 16  1  0  0  0  0
 20 19  1  0  0  0  0
 21 20  1  0  0  0  0
 22 31  1  0  0  0  0
 23 30  1  0  0  0  0
 24 32  1  1  0  0  0
 24 29  1  0  0  0  0
 24 25  1  0  0  0  0
 25 26  1  0  0  0  0
 26 28  1  0  0  0  0
 26 22  2  0  0  0  0
 27 28  1  0  0  0  0
 28 23  2  0  0  0  0
 29 27  1  0  0  0  0
 30 21  1  0  0  0  0
 31 30  2  0  0  0  0
 32 33  1  0  0  0  0
 34 32  2  0  0  0  0
M  END
>  <MODEL>
1

>  <REMARK>
 VINA RESULT:      -9.2      0.000      0.000
  Name = 
  5 active torsions:
  status: ('A' for Active; 'I' for Inactive)
    1  A    between atoms: C_1  and  C_9
    2  A    between atoms: CA_7  and  C_11
    3  A    between atoms: C_8  and  C_9
    4  A    between atoms: C_8  and  N_18
    5  A    between atoms: N_18  and  C_30
                            x       y       z     vdW  Elec       q    Type
                         _______ _______ _______ _____ _____    ______ ____

>  <TORSDO>
F 5

$$$$
=
 OpenBabel10262423163D

 34 38  0  0  1  0  0  0  0  0999 V2000
  185.0440  178.2770  142.7030 C   0  0  2  0  0  3  0  0  0  0  0  0
  185.7650  179.2470  146.4540 C   0  0  0  0  0  2  0  0  0  0  0  0
  188.6200  177.8260  147.2110 C   0  0  0  0  0  0  0  0  0  0  0  0
  183.7670  179.3080  145.0760 O   0  0  0  0  0  0  0  0  0  0  0  0
  182.7530  178.2600  141.6580 C   0  0  0  0  0  3  0  0  0  0  0  0
  180.8040  179.0160  142.8810 C   0  0  0  0  0  3  0  0  0  0  0  0
  189.8740  177.5320  146.6880 O   0  0  0  0  0  0  0  0  0  0  0  0
  181.3780  178.5040  141.7140 C   0  0  0  0  0  3  0  0  0  0  0  0
  182.9790  179.0510  143.9460 C   0  0  0  0  0  0  0  0  0  0  0  0
  183.5600  178.5280  142.7700 C   0  0  0  0  0  0  0  0  0  0  0  0
  181.6020  179.2860  143.9960 C   0  0  0  0  0  3  0  0  0  0  0  0
  186.1190  177.8630  146.9830 C   0  0  0  0  0  2  0  0  0  0  0  0
  188.5370  178.3970  148.3300 O   0  0  0  0  0  1  0  0  0  0  0  0
  187.4350  177.4780  146.4840 N   0  0  0  0  0  0  0  0  0  0  0  0
  187.5450  176.8720  145.1620 C   0  0  0  0  0  2  0  0  0  0  0  0
  185.1930  179.2420  145.0320 C   0  0  2  0  0  3  0  0  0  0  0  0
  187.1490  177.8670  144.0800 C   0  0  0  0  0  2  0  0  0  0  0  0
  185.6390  178.0910  144.1100 C   0  0  2  0  0  3  0  0  0  0  0  0
  185.7780  179.3260  141.8530 C   0  0  0  0  0  2  0  0  0  0  0  0
  186.2810  178.7740  140.5240 C   0  0  0  0  0  2  0  0  0  0  0  0
  187.7240  178.6010  140.5730 N   0  0  0  0  0  2  0  0  0  0  0  0
  188.6470  177.2420  137.2080 C   0  0  0  0  0  3  0  0  0  0  0  0
  189.8100  177.6640  139.7170 C   0  0  0  0  0  3  0  0  0  0  0  0
  192.1370  175.7620  136.7200 C   0  0  1  0  0  3  0  0  0  0  0  0
  190.7750  176.3170  136.2830 C   0  0  0  0  0  2  0  0  0  0  0  0
  189.9790  176.8760  137.4250 C   0  0  0  0  0  0  0  0  0  0  0  0
  191.9700  176.6570  138.9610 C   0  0  0  0  0  2  0  0  0  0  0  0
  190.5680  177.1070  138.6830 C   0  0  0  0  0  0  0  0  0  0  0  0
  192.7730  176.6100  137.7370 N   0  0  0  0  0  2  0  0  0  0  0  0
  188.4770  178.0280  139.5000 C   0  0  0  0  0  0  0  0  0  0  0  0
  187.8990  177.8110  138.2400 C   0  0  0  0  0  3  0  0  0  0  0  0
  192.0920  174.3170  137.1240 C   0  0  0  0  0  0  0  0  0  0  0  0
  190.8640  173.7000  137.3180 O   0  0  0  0  0  1  0  0  0  0  0  0
  193.1520  173.6510  137.2560 O   0  0  0  0  0  0  0  0  0  0  0  0
  1 19  1  1  0  0  0
  1 10  1  0  0  0  0
  1 18  1  0  0  0  0
  2 12  1  0  0  0  0
  3 13  1  0  0  0  0
  5  8  2  0  0  0  0
  5 10  1  0  0  0  0
  6 11  2  0  0  0  0
  7  3  2  0  0  0  0
  8  6  1  0  0  0  0
  9 11  1  0  0  0  0
  9  4  1  0  0  0  0
 10  9  2  0  0  0  0
 14 12  1  0  0  0  0
 14  3  1  0  0  0  0
 15 14  1  0  0  0  0
 16  4  1  0  0  0  0
 16  2  1  1  0  0  0
 17 15  1  0  0  0  0
 18 17  1  6  0  0  0
 18 16  1  0  0  0  0
 20 21  1  0  0  0  0
 20 19  1  0  0  0  0
 22 26  2  0  0  0  0
 22 31  1  0  0  0  0
 24 32  1  1  0  0  0
 24 29  1  0  0  0  0
 25 24  1  0  0  0  0
 25 26  1  0  0  0  0
 26 28  1  0  0  0  0
 28 27  1  0  0  0  0
 28 23  2  0  0  0  0
 29 27  1  0  0  0  0
 30 23  1  0  0  0  0
 30 21  1  0  0  0  0
 31 30  2  0  0  0  0
 32 34  2  0  0  0  0
 32 33  1  0  0  0  0
M  END
>  <MODEL>
2

>  <REMARK>
 VINA RESULT:      -9.1      2.029      4.953
  Name = 
  5 active torsions:
  status: ('A' for Active; 'I' for Inactive)
    1  A    between atoms: C_1  and  C_9
    2  A    between atoms: CA_7  and  C_11
    3  A    between atoms: C_8  and  C_9
    4  A    between atoms: C_8  and  N_18
    5  A    between atoms: N_18  and  C_30
                            x       y       z     vdW  Elec       q    Type
                         _______ _______ _______ _____ _____    ______ ____

>  <TORSDO>
F 5

$$$$
=
 OpenBabel10262423163D

 34 38  0  0  1  0  0  0  0  0999 V2000
  184.4400  178.0960  142.1410 C   0  0  2  0  0  3  0  0  0  0  0  0
  185.2270  179.4320  145.7640 C   0  0  0  0  0  2  0  0  0  0  0  0
  187.9440  177.8690  146.7210 C   0  0  0  0  0  0  0  0  0  0  0  0
  183.2470  179.5030  144.3600 O   0  0  0  0  0  0  0  0  0  0  0  0
  182.1610  178.1540  141.0730 C   0  0  0  0  0  3  0  0  0  0  0  0
  180.2790  179.2120  142.1720 C   0  0  0  0  0  3  0  0  0  0  0  0
  189.1710  177.4090  146.2530 O   0  0  0  0  0  0  0  0  0  0  0  0
  180.8120  178.5200  141.0810 C   0  0  0  0  0  3  0  0  0  0  0  0
  182.4450  179.1840  143.2560 C   0  0  0  0  0  0  0  0  0  0  0  0
  182.9830  178.4790  142.1580 C   0  0  0  0  0  0  0  0  0  0  0  0
  181.0940  179.5420  143.2590 C   0  0  0  0  0  3  0  0  0  0  0  0
  185.4570  178.0950  146.4550 C   0  0  0  0  0  2  0  0  0  0  0  0
  187.9070  178.5720  147.7650 O   0  0  0  0  0  1  0  0  0  0  0  0
  186.7370  177.5420  146.0230 N   0  0  0  0  0  0  0  0  0  0  0  0
  186.7990  176.7780  144.7820 C   0  0  0  0  0  2  0  0  0  0  0  0
  184.6630  179.3100  144.3440 C   0  0  2  0  0  3  0  0  0  0  0  0
  186.4950  177.6700  143.5870 C   0  0  0  0  0  2  0  0  0  0  0  0
  185.0110  178.0250  143.5690 C   0  0  2  0  0  3  0  0  0  0  0  0
  185.2660  178.9710  141.1850 C   0  0  0  0  0  2  0  0  0  0  0  0
  185.4070  178.3690  139.7920 C   0  0  0  0  0  2  0  0  0  0  0  0
  186.6880  178.7480  139.2160 N   0  0  0  0  0  2  0  0  0  0  0  0
  190.0230  177.0660  139.4700 C   0  0  0  0  0  3  0  0  0  0  0  0
  188.2970  178.6020  141.0460 C   0  0  0  0  0  3  0  0  0  0  0  0
  191.8720  177.1490  142.8140 C   0  0  1  0  0  3  0  0  0  0  0  0
  191.7130  176.9290  141.3040 C   0  0  0  0  0  2  0  0  0  0  0  0
  190.3790  177.3780  140.7850 C   0  0  0  0  0  0  0  0  0  0  0  0
  189.8430  178.4530  143.0060 C   0  0  0  0  0  2  0  0  0  0  0  0
  189.5180  178.1670  141.5710 C   0  0  0  0  0  0  0  0  0  0  0  0
  191.2890  178.4270  143.2450 N   0  0  0  0  0  2  0  0  0  0  0  0
  187.9410  178.2880  139.7310 C   0  0  0  0  0  0  0  0  0  0  0  0
  188.8100  177.5140  138.9460 C   0  0  0  0  0  3  0  0  0  0  0  0
  191.3940  175.9920  143.6410 C   0  0  0  0  0  0  0  0  0  0  0  0
  190.5270  175.0640  143.0810 O   0  0  0  0  0  0  0  0  0  0  0  0
  191.7950  175.8350  144.8240 O   0  0  0  0  0  1  0  0  0  0  0  0
  1 19  1  6  0  0  0
  1 10  1  0  0  0  0
  1 18  1  0  0  0  0
  2 12  1  0  0  0  0
  3 13  1  0  0  0  0
  5  8  2  0  0  0  0
  5 10  1  0  0  0  0
  6 11  2  0  0  0  0
  7  3  2  0  0  0  0
  8  6  1  0  0  0  0
  9 11  1  0  0  0  0
  9  4  1  0  0  0  0
 10  9  2  0  0  0  0
 14 12  1  0  0  0  0
 14  3  1  0  0  0  0
 15 14  1  0  0  0  0
 16  4  1  0  0  0  0
 16  2  1  1  0  0  0
 17 15  1  0  0  0  0
 18 17  1  6  0  0  0
 18 16  1  0  0  0  0
 20 19  1  0  0  0  0
 21 30  1  0  0  0  0
 21 20  1  0  0  0  0
 22 26  1  0  0  0  0
 23 28  1  0  0  0  0
 24 29  1  0  0  0  0
 24 32  1  1  0  0  0
 25 24  1  0  0  0  0
 26 25  1  0  0  0  0
 26 28  2  0  0  0  0
 27 29  1  0  0  0  0
 28 27  1  0  0  0  0
 30 23  2  0  0  0  0
 31 22  2  0  0  0  0
 31 30  1  0  0  0  0
 32 34  1  0  0  0  0
 33 32  2  0  0  0  0
M  END
>  <MODEL>
3

>  <REMARK>
 VINA RESULT:      -9.0      2.924      6.067
  Name = 
  5 active torsions:
  status: ('A' for Active; 'I' for Inactive)
    1  A    between atoms: C_1  and  C_9
    2  A    between atoms: CA_7  and  C_11
    3  A    between atoms: C_8  and  C_9
    4  A    between atoms: C_8  and  N_18
    5  A    between atoms: N_18  and  C_30
                            x       y       z     vdW  Elec       q    Type
                         _______ _______ _______ _____ _____    ______ ____

>  <TORSDO>
F 5

$$$$
=
 OpenBabel10262423163D

 34 38  0  0  1  0  0  0  0  0999 V2000
  188.7000  178.2660  141.6470 C   0  0  2  0  0  3  0  0  0  0  0  0
  190.8200  175.6150  143.6500 C   0  0  0  0  0  2  0  0  0  0  0  0
  190.9400  176.7150  146.7350 C   0  0  0  0  0  0  0  0  0  0  0  0
  190.5410  176.0740  141.2820 O   0  0  0  0  0  0  0  0  0  0  0  0
  188.8350  178.5980  139.1550 C   0  0  0  0  0  3  0  0  0  0  0  0
  190.1990  177.1600  137.7630 C   0  0  0  0  0  3  0  0  0  0  0  0
  190.1710  177.3420  147.7090 O   0  0  0  0  0  1  0  0  0  0  0  0
  189.3180  178.2370  137.8940 C   0  0  0  0  0  3  0  0  0  0  0  0
  190.1170  176.7910  140.1560 C   0  0  0  0  0  0  0  0  0  0  0  0
  189.2320  177.8830  140.2900 C   0  0  0  0  0  0  0  0  0  0  0  0
  190.6000  176.4400  138.8910 C   0  0  0  0  0  3  0  0  0  0  0  0
  191.7630  176.5720  144.3670 C   0  0  0  0  0  2  0  0  0  0  0  0
  191.5550  175.6540  147.0240 O   0  0  0  0  0  0  0  0  0  0  0  0
  191.0320  177.2720  145.4180 N   0  0  0  0  0  0  0  0  0  0  0  0
  190.2670  178.4660  145.0790 C   0  0  0  0  0  2  0  0  0  0  0  0
  189.9590  176.2800  142.5700 C   0  0  2  0  0  3  0  0  0  0  0  0
  189.1060  178.1170  144.1590 C   0  0  0  0  0  2  0  0  0  0  0  0
  189.6330  177.7740  142.7680 C   0  0  2  0  0  3  0  0  0  0  0  0
  187.2310  177.8550  141.8380 C   0  0  0  0  0  2  0  0  0  0  0  0
  186.2690  179.0360  141.7990 C   0  0  0  0  0  2  0  0  0  0  0  0
  185.3030  178.9250  142.8810 N   0  0  0  0  0  2  0  0  0  0  0  0
  181.6070  178.8730  143.4760 C   0  0  0  0  0  3  0  0  0  0  0  0
  183.4210  178.5450  141.3730 C   0  0  0  0  0  3  0  0  0  0  0  0
  179.2900  178.0020  140.5640 C   0  0  1  0  0  3  0  0  0  0  0  0
  179.6540  178.5310  141.9570 C   0  0  0  0  0  2  0  0  0  0  0  0
  181.1350  178.5920  142.1910 C   0  0  0  0  0  0  0  0  0  0  0  0
  181.5710  178.0720  139.7590 C   0  0  0  0  0  2  0  0  0  0  0  0
  182.0480  178.4460  141.1300 C   0  0  0  0  0  0  0  0  0  0  0  0
  180.1950  178.5200  139.5280 N   0  0  0  0  0  2  0  0  0  0  0  0
  183.8930  178.8250  142.6590 C   0  0  0  0  0  0  0  0  0  0  0  0
  182.9780  178.9850  143.7110 C   0  0  0  0  0  3  0  0  0  0  0  0
  179.1500  176.5090  140.5090 C   0  0  0  0  0  0  0  0  0  0  0  0
  179.2270  175.7720  141.6830 O   0  0  0  0  0  1  0  0  0  0  0  0
  178.9310  175.9210  139.4170 O   0  0  0  0  0  0  0  0  0  0  0  0
  1 19  1  1  0  0  0
  1 18  1  0  0  0  0
  2 12  1  0  0  0  0
  3 13  2  0  0  0  0
  3  7  1  0  0  0  0
  4 16  1  0  0  0  0
  5 10  1  0  0  0  0
  6  8  1  0  0  0  0
  6 11  2  0  0  0  0
  8  5  2  0  0  0  0
  9 10  2  0  0  0  0
  9  4  1  0  0  0  0
 10  1  1  0  0  0  0
 11  9  1  0  0  0  0
 12 14  1  0  0  0  0
 14  3  1  0  0  0  0
 15 14  1  0  0  0  0
 16 18  1  0  0  0  0
 16  2  1  1  0  0  0
 17 15  1  0  0  0  0
 18 17  1  1  0  0  0
 20 19  1  0  0  0  0
 20 21  1  0  0  0  0
 22 31  1  0  0  0  0
 23 30  1  0  0  0  0
 24 32  1  1  0  0  0
 24 25  1  0  0  0  0
 25 26  1  0  0  0  0
 26 22  2  0  0  0  0
 27 28  1  0  0  0  0
 28 23  2  0  0  0  0
 28 26  1  0  0  0  0
 29 27  1  0  0  0  0
 29 24  1  0  0  0  0
 30 21  1  0  0  0  0
 30 31  2  0  0  0  0
 32 33  1  0  0  0  0
 34 32  2  0  0  0  0
M  END
>  <MODEL>
4

>  <REMARK>
 VINA RESULT:      -8.7      3.100      8.455
  Name = 
  5 active torsions:
  status: ('A' for Active; 'I' for Inactive)
    1  A    between atoms: C_1  and  C_9
    2  A    between atoms: CA_7  and  C_11
    3  A    between atoms: C_8  and  C_9
    4  A    between atoms: C_8  and  N_18
    5  A    between atoms: N_18  and  C_30
                            x       y       z     vdW  Elec       q    Type
                         _______ _______ _______ _____ _____    ______ ____

>  <TORSDO>
F 5

$$$$
=
 OpenBabel10262423163D

 34 38  0  0  1  0  0  0  0  0999 V2000
  183.2120  178.9940  141.9630 C   0  0  2  0  0  3  0  0  0  0  0  0
  183.3510  176.5490  138.8750 C   0  0  0  0  0  2  0  0  0  0  0  0
  186.1880  177.1820  137.3620 C   0  0  0  0  0  0  0  0  0  0  0  0
  181.5530  177.2890  140.3300 O   0  0  0  0  0  0  0  0  0  0  0  0
  181.0870  179.7110  143.1090 C   0  0  0  0  0  3  0  0  0  0  0  0
  178.9380  178.7930  142.4710 C   0  0  0  0  0  3  0  0  0  0  0  0
  187.5210  177.4940  137.6100 O   0  0  0  0  0  1  0  0  0  0  0  0
  179.7020  179.6430  143.2760 C   0  0  0  0  0  3  0  0  0  0  0  0
  180.9450  178.0660  141.3240 C   0  0  0  0  0  0  0  0  0  0  0  0
  181.7160  178.9280  142.1330 C   0  0  0  0  0  0  0  0  0  0  0  0
  179.5580  178.0080  141.4950 C   0  0  0  0  0  3  0  0  0  0  0  0
  183.7440  177.5570  137.8040 C   0  0  0  0  0  2  0  0  0  0  0  0
  185.9130  176.2340  136.5810 O   0  0  0  0  0  0  0  0  0  0  0  0
  185.1420  177.9360  137.9880 N   0  0  0  0  0  0  0  0  0  0  0  0
  185.4740  178.9910  138.9370 C   0  0  0  0  0  2  0  0  0  0  0  0
  182.9730  177.1830  140.2190 C   0  0  2  0  0  3  0  0  0  0  0  0
  185.1430  178.5590  140.3590 C   0  0  0  0  0  2  0  0  0  0  0  0
  183.6300  178.5360  140.5540 C   0  0  2  0  0  3  0  0  0  0  0  0
  183.9620  178.2770  143.0960 C   0  0  0  0  0  2  0  0  0  0  0  0
  184.3700  179.2110  144.2290 C   0  0  0  0  0  2  0  0  0  0  0  0
  184.9730  178.4460  145.3100 N   0  0  0  0  0  2  0  0  0  0  0  0
  188.4860  177.7660  146.4140 C   0  0  0  0  0  3  0  0  0  0  0  0
  186.8940  177.5080  144.1290 C   0  0  0  0  0  3  0  0  0  0  0  0
  190.9900  176.4320  143.8530 C   0  0  1  0  0  3  0  0  0  0  0  0
  190.4620  176.7740  145.2530 C   0  0  0  0  0  2  0  0  0  0  0  0
  189.0370  177.2430  145.2410 C   0  0  0  0  0  0  0  0  0  0  0  0
  188.8150  176.6060  142.8080 C   0  0  0  0  0  2  0  0  0  0  0  0
  188.2290  177.0960  144.0980 C   0  0  0  0  0  0  0  0  0  0  0  0
  189.9790  175.7450  143.0390 N   0  0  0  0  0  2  0  0  0  0  0  0
  186.3440  178.0340  145.3030 C   0  0  0  0  0  0  0  0  0  0  0  0
  187.1480  178.1640  146.4450 C   0  0  0  0  0  3  0  0  0  0  0  0
  191.6000  177.6040  143.1420 C   0  0  0  0  0  0  0  0  0  0  0  0
  192.0100  177.4660  141.8240 O   0  0  0  0  0  0  0  0  0  0  0  0
  191.7130  178.7200  143.7170 O   0  0  0  0  0  1  0  0  0  0  0  0
  1 10  1  0  0  0  0
  1 19  1  1  0  0  0
  3  7  1  0  0  0  0
  3 14  1  0  0  0  0
  4  9  1  0  0  0  0
  5  8  1  0  0  0  0
  6  8  2  0  0  0  0
  9 11  2  0  0  0  0
  9 10  1  0  0  0  0
 10  5  2  0  0  0  0
 11  6  1  0  0  0  0
 12 14  1  0  0  0  0
 12  2  1  0  0  0  0
 13  3  2  0  0  0  0
 14 15  1  0  0  0  0
 15 17  1  0  0  0  0
 16  2  1  6  0  0  0
 16  4  1  0  0  0  0
 16 18  1  0  0  0  0
 18 17  1  1  0  0  0
 18  1  1  0  0  0  0
 19 20  1  0  0  0  0
 20 21  1  0  0  0  0
 22 31  1  0  0  0  0
 23 30  1  0  0  0  0
 24 32  1  6  0  0  0
 24 25  1  0  0  0  0
 26 25  1  0  0  0  0
 26 22  2  0  0  0  0
 27 29  1  0  0  0  0
 27 28  1  0  0  0  0
 28 23  2  0  0  0  0
 28 26  1  0  0  0  0
 29 24  1  0  0  0  0
 30 21  1  0  0  0  0
 30 31  2  0  0  0  0
 32 34  1  0  0  0  0
 33 32  2  0  0  0  0
M  END
>  <MODEL>
5

>  <REMARK>
 VINA RESULT:      -8.7      2.977      7.153
  Name = 
  5 active torsions:
  status: ('A' for Active; 'I' for Inactive)
    1  A    between atoms: C_1  and  C_9
    2  A    between atoms: CA_7  and  C_11
    3  A    between atoms: C_8  and  C_9
    4  A    between atoms: C_8  and  N_18
    5  A    between atoms: N_18  and  C_30
                            x       y       z     vdW  Elec       q    Type
                         _______ _______ _______ _____ _____    ______ ____

>  <TORSDO>
F 5

$$$$
=
 OpenBabel10262423163D

 34 38  0  0  1  0  0  0  0  0999 V2000
  184.7370  178.2800  142.5430 C   0  0  2  0  0  3  0  0  0  0  0  0
  185.8010  179.1130  146.2450 C   0  0  0  0  0  2  0  0  0  0  0  0
  188.7420  177.7280  146.6620 C   0  0  0  0  0  0  0  0  0  0  0  0
  183.6770  179.1830  145.0700 O   0  0  0  0  0  0  0  0  0  0  0  0
  182.3560  178.2520  141.7240 C   0  0  0  0  0  3  0  0  0  0  0  0
  180.5210  178.9120  143.1600 C   0  0  0  0  0  3  0  0  0  0  0  0
  189.9450  177.4850  146.0080 O   0  0  0  0  0  0  0  0  0  0  0  0
  180.9890  178.4620  141.9230 C   0  0  0  0  0  3  0  0  0  0  0  0
  182.7880  178.9540  144.0110 C   0  0  0  0  0  0  0  0  0  0  0  0
  183.2610  178.4930  142.7640 C   0  0  0  0  0  0  0  0  0  0  0  0
  181.4180  179.1560  144.2040 C   0  0  0  0  0  3  0  0  0  0  0  0
  186.2300  177.7170  146.6780 C   0  0  0  0  0  2  0  0  0  0  0  0
  188.7580  178.2510  147.8070 O   0  0  0  0  0  1  0  0  0  0  0  0
  187.4990  177.3830  146.0380 N   0  0  0  0  0  0  0  0  0  0  0  0
  187.4920  176.8350  144.6870 C   0  0  0  0  0  2  0  0  0  0  0  0
  185.0930  179.1530  144.8860 C   0  0  2  0  0  3  0  0  0  0  0  0
  186.9730  177.8630  143.6920 C   0  0  0  0  0  2  0  0  0  0  0  0
  185.4700  178.0500  143.8770 C   0  0  2  0  0  3  0  0  0  0  0  0
  185.3640  179.3790  141.6720 C   0  0  0  0  0  2  0  0  0  0  0  0
  185.7800  178.8850  140.2910 C   0  0  0  0  0  2  0  0  0  0  0  0
  184.9300  179.4860  139.2740 N   0  0  0  0  0  2  0  0  0  0  0  0
  181.4470  178.9560  138.0060 C   0  0  0  0  0  3  0  0  0  0  0  0
  183.7440  177.4670  138.5830 C   0  0  0  0  0  3  0  0  0  0  0  0
  180.2700  175.3870  137.3080 C   0  0  1  0  0  3  0  0  0  0  0  0
  180.2130  176.9190  137.2520 C   0  0  0  0  0  2  0  0  0  0  0  0
  181.4400  177.5710  137.8180 C   0  0  0  0  0  0  0  0  0  0  0  0
  182.5970  175.3320  137.9680 C   0  0  0  0  0  2  0  0  0  0  0  0
  182.6030  176.8260  138.0910 C   0  0  0  0  0  0  0  0  0  0  0  0
  181.6090  174.8770  136.9850 N   0  0  0  0  0  2  0  0  0  0  0  0
  183.7490  178.8530  138.7730 C   0  0  0  0  0  0  0  0  0  0  0  0
  182.5930  179.5940  138.4840 C   0  0  0  0  0  3  0  0  0  0  0  0
  179.7310  174.8150  138.5860 C   0  0  0  0  0  0  0  0  0  0  0  0
  179.6800  173.4380  138.7510 O   0  0  0  0  0  0  0  0  0  0  0  0
  179.3550  175.5690  139.5230 O   0  0  0  0  0  1  0  0  0  0  0  0
  1 19  1  1  0  0  0
  1 10  1  0  0  0  0
  1 18  1  0  0  0  0
  2 12  1  0  0  0  0
  3 13  1  0  0  0  0
  5  8  2  0  0  0  0
  5 10  1  0  0  0  0
  6 11  2  0  0  0  0
  7  3  2  0  0  0  0
  8  6  1  0  0  0  0
  9 11  1  0  0  0  0
  9  4  1  0  0  0  0
 10  9  2  0  0  0  0
 14  3  1  0  0  0  0
 14 12  1  0  0  0  0
 15 14  1  0  0  0  0
 16  4  1  0  0  0  0
 16  2  1  1  0  0  0
 17 15  1  0  0  0  0
 18 17  1  6  0  0  0
 18 16  1  0  0  0  0
 20 19  1  0  0  0  0
 21 20  1  0  0  0  0
 22 31  1  0  0  0  0
 23 30  1  0  0  0  0
 24 32  1  1  0  0  0
 25 24  1  0  0  0  0
 25 26  1  0  0  0  0
 26 22  2  0  0  0  0
 26 28  1  0  0  0  0
 27 28  1  0  0  0  0
 28 23  2  0  0  0  0
 29 24  1  0  0  0  0
 29 27  1  0  0  0  0
 30 21  1  0  0  0  0
 31 30  2  0  0  0  0
 32 33  2  0  0  0  0
 32 34  1  0  0  0  0
M  END
>  <MODEL>
6

>  <REMARK>
 VINA RESULT:      -8.6      4.317      7.246
  Name = 
  5 active torsions:
  status: ('A' for Active; 'I' for Inactive)
    1  A    between atoms: C_1  and  C_9
    2  A    between atoms: CA_7  and  C_11
    3  A    between atoms: C_8  and  C_9
    4  A    between atoms: C_8  and  N_18
    5  A    between atoms: N_18  and  C_30
                            x       y       z     vdW  Elec       q    Type
                         _______ _______ _______ _____ _____    ______ ____

>  <TORSDO>
F 5

$$$$
=
 OpenBabel10262423163D

 34 38  0  0  1  0  0  0  0  0999 V2000
  188.5840  178.3030  141.6370 C   0  0  2  0  0  3  0  0  0  0  0  0
  190.8250  175.6730  143.5320 C   0  0  0  0  0  2  0  0  0  0  0  0
  190.9960  176.7170  146.6340 C   0  0  0  0  0  0  0  0  0  0  0  0
  190.4720  176.1700  141.1810 O   0  0  0  0  0  0  0  0  0  0  0  0
  188.6440  178.6870  139.1500 C   0  0  0  0  0  3  0  0  0  0  0  0
  190.0090  177.3130  137.6940 C   0  0  0  0  0  3  0  0  0  0  0  0
  190.2370  177.3050  147.6400 O   0  0  0  0  0  1  0  0  0  0  0  0
  189.1030  178.3630  137.8700 C   0  0  0  0  0  3  0  0  0  0  0  0
  190.0000  176.8960  140.0810 C   0  0  0  0  0  0  0  0  0  0  0  0
  189.0900  177.9610  140.2600 C   0  0  0  0  0  0  0  0  0  0  0  0
  190.4580  176.5830  138.7980 C   0  0  0  0  0  3  0  0  0  0  0  0
  191.7610  176.6420  144.2430 C   0  0  0  0  0  2  0  0  0  0  0  0
  191.6470  175.6690  146.8860 O   0  0  0  0  0  0  0  0  0  0  0  0
  191.0400  177.3020  145.3270 N   0  0  0  0  0  0  0  0  0  0  0  0
  190.2340  178.4800  145.0310 C   0  0  0  0  0  2  0  0  0  0  0  0
  189.9190  176.3360  142.4880 C   0  0  2  0  0  3  0  0  0  0  0  0
  189.0590  178.1180  144.1340 C   0  0  0  0  0  2  0  0  0  0  0  0
  189.5590  177.8160  142.7240 C   0  0  2  0  0  3  0  0  0  0  0  0
  187.1320  177.8490  141.8580 C   0  0  0  0  0  2  0  0  0  0  0  0
  186.1760  179.0060  142.1250 C   0  0  0  0  0  2  0  0  0  0  0  0
  185.5430  179.4230  140.8830 N   0  0  0  0  0  2  0  0  0  0  0  0
  182.8240  177.0520  139.8790 C   0  0  0  0  0  3  0  0  0  0  0  0
  185.0390  178.3380  138.7540 C   0  0  0  0  0  3  0  0  0  0  0  0
  182.8420  175.6340  136.3300 C   0  0  1  0  0  3  0  0  0  0  0  0
  182.2520  175.9560  137.7090 C   0  0  0  0  0  2  0  0  0  0  0  0
  183.1440  176.8340  138.5360 C   0  0  0  0  0  0  0  0  0  0  0  0
  184.6540  177.2220  136.5510 C   0  0  0  0  0  2  0  0  0  0  0  0
  184.2480  177.4960  137.9670 C   0  0  0  0  0  0  0  0  0  0  0  0
  183.5110  176.7990  135.7360 N   0  0  0  0  0  2  0  0  0  0  0  0
  184.7200  178.5540  140.0990 C   0  0  0  0  0  0  0  0  0  0  0  0
  183.6090  177.9040  140.6580 C   0  0  0  0  0  3  0  0  0  0  0  0
  183.7070  174.4080  136.3220 C   0  0  0  0  0  0  0  0  0  0  0  0
  183.8900  173.6930  137.4970 O   0  0  0  0  0  1  0  0  0  0  0  0
  184.2410  174.0030  135.2560 O   0  0  0  0  0  0  0  0  0  0  0  0
  1 19  1  1  0  0  0
  1 18  1  0  0  0  0
  2 12  1  0  0  0  0
  3 13  2  0  0  0  0
  3  7  1  0  0  0  0
  4 16  1  0  0  0  0
  5 10  1  0  0  0  0
  6  8  1  0  0  0  0
  6 11  2  0  0  0  0
  8  5  2  0  0  0  0
  9 10  2  0  0  0  0
  9  4  1  0  0  0  0
 10  1  1  0  0  0  0
 11  9  1  0  0  0  0
 12 14  1  0  0  0  0
 14  3  1  0  0  0  0
 15 14  1  0  0  0  0
 16 18  1  0  0  0  0
 16  2  1  1  0  0  0
 17 15  1  0  0  0  0
 18 17  1  1  0  0  0
 19 20  1  0  0  0  0
 21 20  1  0  0  0  0
 22 31  1  0  0  0  0
 23 30  1  0  0  0  0
 24 32  1  1  0  0  0
 24 25  1  0  0  0  0
 25 26  1  0  0  0  0
 26 22  2  0  0  0  0
 27 28  1  0  0  0  0
 28 26  1  0  0  0  0
 28 23  2  0  0  0  0
 29 24  1  0  0  0  0
 29 27  1  0  0  0  0
 30 31  2  0  0  0  0
 30 21  1  0  0  0  0
 32 33  1  0  0  0  0
 34 32  2  0  0  0  0
M  END
>  <MODEL>
7

>  <REMARK>
 VINA RESULT:      -8.4      3.577      7.026
  Name = 
  5 active torsions:
  status: ('A' for Active; 'I' for Inactive)
    1  A    between atoms: C_1  and  C_9
    2  A    between atoms: CA_7  and  C_11
    3  A    between atoms: C_8  and  C_9
    4  A    between atoms: C_8  and  N_18
    5  A    between atoms: N_18  and  C_30
                            x       y       z     vdW  Elec       q    Type
                         _______ _______ _______ _____ _____    ______ ____

>  <TORSDO>
F 5

$$$$
=
 OpenBabel10262423163D

 34 38  0  0  1  0  0  0  0  0999 V2000
  188.8360  177.5210  143.8130 C   0  0  2  0  0  3  0  0  0  0  0  0
  184.9370  177.9270  143.4050 C   0  0  0  0  0  2  0  0  0  0  0  0
  184.4740  179.1030  140.3810 C   0  0  0  0  0  0  0  0  0  0  0  0
  186.3860  177.6440  145.3330 O   0  0  0  0  0  0  0  0  0  0  0  0
  190.0320  177.4760  146.0280 C   0  0  0  0  0  3  0  0  0  0  0  0
  188.8140  177.5180  148.1210 C   0  0  0  0  0  3  0  0  0  0  0  0
  184.9440  178.9970  139.0760 O   0  0  0  0  0  0  0  0  0  0  0  0
  190.0250  177.4700  147.4260 C   0  0  0  0  0  3  0  0  0  0  0  0
  187.6030  177.5710  146.0240 C   0  0  0  0  0  0  0  0  0  0  0  0
  188.8260  177.5290  145.3200 C   0  0  0  0  0  0  0  0  0  0  0  0
  187.6050  177.5710  147.4220 C   0  0  0  0  0  3  0  0  0  0  0  0
  184.9130  179.3420  142.8420 C   0  0  0  0  0  2  0  0  0  0  0  0
  183.2380  179.0080  140.6000 O   0  0  0  0  0  1  0  0  0  0  0  0
  185.3890  179.3210  141.4620 N   0  0  0  0  0  0  0  0  0  0  0  0
  186.8220  179.3670  141.2030 C   0  0  0  0  0  2  0  0  0  0  0  0
  186.3130  177.4830  143.9160 C   0  0  2  0  0  3  0  0  0  0  0  0
  187.5040  178.1090  141.7220 C   0  0  0  0  0  2  0  0  0  0  0  0
  187.5410  178.1310  143.2470 C   0  0  2  0  0  3  0  0  0  0  0  0
  189.1740  176.1370  143.2370 C   0  0  0  0  0  2  0  0  0  0  0  0
  190.5580  176.0750  142.6010 C   0  0  0  0  0  2  0  0  0  0  0  0
  190.6900  177.1210  141.5990 N   0  0  0  0  0  2  0  0  0  0  0  0
  189.7870  176.4830  138.0210 C   0  0  0  0  0  3  0  0  0  0  0  0
  192.0650  176.6510  139.6360 C   0  0  0  0  0  3  0  0  0  0  0  0
  192.5720  175.6240  135.5490 C   0  0  1  0  0  3  0  0  0  0  0  0
  191.1600  176.0400  135.9830 C   0  0  0  0  0  2  0  0  0  0  0  0
  191.0510  176.2830  137.4590 C   0  0  0  0  0  0  0  0  0  0  0  0
  193.5570  176.1050  137.7060 C   0  0  0  0  0  2  0  0  0  0  0  0
  192.1970  176.3870  138.2690 C   0  0  0  0  0  0  0  0  0  0  0  0
  193.6090  176.3770  136.2670 N   0  0  0  0  0  2  0  0  0  0  0  0
  190.7990  176.8480  140.1980 C   0  0  0  0  0  0  0  0  0  0  0  0
  189.6600  176.7600  139.3840 C   0  0  0  0  0  3  0  0  0  0  0  0
  192.8000  174.1420  135.5990 C   0  0  0  0  0  0  0  0  0  0  0  0
  194.0520  173.6320  135.2850 O   0  0  0  0  0  0  0  0  0  0  0  0
  191.8790  173.3590  135.9530 O   0  0  0  0  0  1  0  0  0  0  0  0
  1 19  1  1  0  0  0
  1 10  1  0  0  0  0
  3 13  1  0  0  0  0
  3 14  1  0  0  0  0
  4  9  1  0  0  0  0
  5  8  1  0  0  0  0
  7  3  2  0  0  0  0
  8  6  2  0  0  0  0
  9 11  2  0  0  0  0
 10  9  1  0  0  0  0
 10  5  2  0  0  0  0
 11  6  1  0  0  0  0
 12  2  1  0  0  0  0
 14 12  1  0  0  0  0
 15 14  1  0  0  0  0
 15 17  1  0  0  0  0
 16  2  1  6  0  0  0
 16  4  1  0  0  0  0
 18 17  1  6  0  0  0
 18  1  1  0  0  0  0
 18 16  1  0  0  0  0
 20 19  1  0  0  0  0
 21 20  1  0  0  0  0
 22 31  1  0  0  0  0
 23 30  1  0  0  0  0
 24 32  1  1  0  0  0
 24 25  1  0  0  0  0
 24 29  1  0  0  0  0
 25 26  1  0  0  0  0
 26 22  2  0  0  0  0
 26 28  1  0  0  0  0
 27 28  1  0  0  0  0
 28 23  2  0  0  0  0
 29 27  1  0  0  0  0
 30 21  1  0  0  0  0
 31 30  2  0  0  0  0
 32 34  1  0  0  0  0
 33 32  2  0  0  0  0
M  END
>  <MODEL>
8

>  <REMARK>
 VINA RESULT:      -8.4      1.678      2.147
  Name = 
  5 active torsions:
  status: ('A' for Active; 'I' for Inactive)
    1  A    between atoms: C_1  and  C_9
    2  A    between atoms: CA_7  and  C_11
    3  A    between atoms: C_8  and  C_9
    4  A    between atoms: C_8  and  N_18
    5  A    between atoms: N_18  and  C_30
                            x       y       z     vdW  Elec       q    Type
                         _______ _______ _______ _____ _____    ______ ____

>  <TORSDO>
F 5

$$$$
=
 OpenBabel10262423163D

 34 38  0  0  1  0  0  0  0  0999 V2000
  185.7350  178.0450  142.4450 C   0  0  2  0  0  3  0  0  0  0  0  0
  185.6700  179.2290  146.2040 C   0  0  0  0  0  2  0  0  0  0  0  0
  188.3340  177.9240  147.5970 C   0  0  0  0  0  0  0  0  0  0  0  0
  183.9900  179.1660  144.4510 O   0  0  0  0  0  0  0  0  0  0  0  0
  183.7030  177.9150  140.9640 C   0  0  0  0  0  3  0  0  0  0  0  0
  181.5360  178.6830  141.7260 C   0  0  0  0  0  3  0  0  0  0  0  0
  189.6730  177.6360  147.3540 O   0  0  0  0  0  0  0  0  0  0  0  0
  182.3420  178.1250  140.7300 C   0  0  0  0  0  3  0  0  0  0  0  0
  183.4510  178.8300  143.2030 C   0  0  0  0  0  0  0  0  0  0  0  0
  184.2640  178.2610  142.1990 C   0  0  0  0  0  0  0  0  0  0  0  0
  182.0890  179.0320  142.9620 C   0  0  0  0  0  3  0  0  0  0  0  0
  185.9300  177.8850  146.8700 C   0  0  0  0  0  2  0  0  0  0  0  0
  188.0190  178.5510  148.6430 O   0  0  0  0  0  1  0  0  0  0  0  0
  187.3260  177.5080  146.6680 N   0  0  0  0  0  0  0  0  0  0  0  0
  187.7090  176.8370  145.4320 C   0  0  0  0  0  2  0  0  0  0  0  0
  185.3970  179.1350  144.6980 C   0  0  2  0  0  3  0  0  0  0  0  0
  187.5250  177.7630  144.2380 C   0  0  0  0  0  2  0  0  0  0  0  0
  186.0370  177.9490  143.9520 C   0  0  2  0  0  3  0  0  0  0  0  0
  186.6100  179.0670  141.7020 C   0  0  0  0  0  2  0  0  0  0  0  0
  187.8210  178.4380  141.0230 C   0  0  0  0  0  2  0  0  0  0  0  0
  187.8130  178.7530  139.6030 N   0  0  0  0  0  2  0  0  0  0  0  0
  185.3770  177.2480  137.1910 C   0  0  0  0  0  3  0  0  0  0  0  0
  187.9770  176.8140  138.1290 C   0  0  0  0  0  3  0  0  0  0  0  0
  186.3500  174.0350  135.3640 C   0  0  1  0  0  3  0  0  0  0  0  0
  185.5200  175.2950  135.6400 C   0  0  0  0  0  2  0  0  0  0  0  0
  186.1190  176.1670  136.7040 C   0  0  0  0  0  0  0  0  0  0  0  0
  188.2200  174.7690  136.7110 C   0  0  0  0  0  2  0  0  0  0  0  0
  187.4330  175.9620  137.1630 C   0  0  0  0  0  0  0  0  0  0  0  0
  187.7920  174.3130  135.3850 N   0  0  0  0  0  2  0  0  0  0  0  0
  187.2330  177.8930  138.6170 C   0  0  0  0  0  0  0  0  0  0  0  0
  185.9290  178.1040  138.1460 C   0  0  0  0  0  3  0  0  0  0  0  0
  185.9760  172.8710  136.2340 C   0  0  0  0  0  0  0  0  0  0  0  0
  185.2120  173.0870  137.3720 O   0  0  0  0  0  1  0  0  0  0  0  0
  186.3200  171.6990  135.9270 O   0  0  0  0  0  0  0  0  0  0  0  0
  1 19  1  1  0  0  0
  1 18  1  0  0  0  0
  2 12  1  0  0  0  0
  3 13  1  0  0  0  0
  4 16  1  0  0  0  0
  5 10  1  0  0  0  0
  6 11  2  0  0  0  0
  7  3  2  0  0  0  0
  8  5  2  0  0  0  0
  8  6  1  0  0  0  0
  9  4  1  0  0  0  0
 10  1  1  0  0  0  0
 10  9  2  0  0  0  0
 11  9  1  0  0  0  0
 14 12  1  0  0  0  0
 14  3  1  0  0  0  0
 15 14  1  0  0  0  0
 16  2  1  1  0  0  0
 17 15  1  0  0  0  0
 18 17  1  6  0  0  0
 18 16  1  0  0  0  0
 20 19  1  0  0  0  0
 21 20  1  0  0  0  0
 22 31  1  0  0  0  0
 23 30  1  0  0  0  0
 24 29  1  0  0  0  0
 24 25  1  0  0  0  0
 24 32  1  1  0  0  0
 25 26  1  0  0  0  0
 26 28  1  0  0  0  0
 26 22  2  0  0  0  0
 27 28  1  0  0  0  0
 28 23  2  0  0  0  0
 29 27  1  0  0  0  0
 30 21  1  0  0  0  0
 31 30  2  0  0  0  0
 32 33  1  0  0  0  0
 34 32  2  0  0  0  0
M  END
>  <MODEL>
9

>  <REMARK>
 VINA RESULT:      -8.4      2.666      5.296
  Name = 
  5 active torsions:
  status: ('A' for Active; 'I' for Inactive)
    1  A    between atoms: C_1  and  C_9
    2  A    between atoms: CA_7  and  C_11
    3  A    between atoms: C_8  and  C_9
    4  A    between atoms: C_8  and  N_18
    5  A    between atoms: N_18  and  C_30
                            x       y       z     vdW  Elec       q    Type
                         _______ _______ _______ _____ _____    ______ ____

>  <TORSDO>
F 5

$$$$
