=
 OpenBabel10262420173D

 55 61  0  0  1  0  0  0  0  0999 V2000
  183.2390  176.3470  139.5570 C   0  0  0  0  0  3  0  0  0  0  0  0
  187.6520  177.2170  138.3500 C   0  0  0  0  0  2  0  0  0  0  0  0
  188.1640  177.1670  141.4890 C   0  0  0  0  0  1  0  0  0  0  0  0
  189.3160  175.9190  136.1510 C   0  0  0  0  0  2  0  0  0  0  0  0
  189.0410  177.9430  134.8270 C   0  0  0  0  0  2  0  0  0  0  0  0
  185.7920  177.7400  144.5580 C   0  0  0  0  0  3  0  0  0  0  0  0
  185.7020  178.3210  145.8290 C   0  0  0  0  0  3  0  0  0  0  0  0
  184.1130  179.2900  143.7330 C   0  0  0  0  0  0  0  0  0  0  0  0
  184.0350  179.8770  145.0020 C   0  0  0  0  0  3  0  0  0  0  0  0
  186.1450  178.4460  141.4720 O   0  0  0  0  0  0  0  0  0  0  0  0
  190.5030  176.2200  135.3130 C   0  0  0  0  0  0  0  0  0  0  0  0
  190.3620  177.3080  134.5940 C   0  0  0  0  0  3  0  0  0  0  0  0
  184.8270  179.3900  146.0510 C   0  0  0  0  0  3  0  0  0  0  0  0
  182.7860  174.2640  136.4120 C   0  0  0  0  0  2  0  0  0  0  0  0
  184.9920  178.2150  143.5130 C   0  0  0  0  0  0  0  0  0  0  0  0
  184.8880  175.5700  136.0900 C   0  0  1  0  0  3  0  0  0  0  0  0
  183.9650  177.3240  140.0030 N   0  0  0  0  0  0  0  0  0  0  0  0
  184.4690  176.4420  137.2950 C   0  0  0  0  0  2  0  0  0  0  0  0
  183.1840  179.1620  141.5130 C   0  0  0  0  0  0  0  0  0  0  0  0
  188.1830  177.9630  137.1370 C   0  0  0  0  0  2  0  0  0  0  0  0
  183.3030  179.7850  142.6550 N   0  0  0  0  0  0  0  0  0  0  0  0
  187.2990  178.2310  139.4180 C   0  0  0  0  0  2  0  0  0  0  0  0
  186.9060  177.5470  140.7170 C   0  0  1  0  0  3  0  0  0  0  0  0
  182.6350  174.8390  137.7830 C   0  0  0  0  0  3  0  0  0  0  0  0
  188.3580  177.0890  135.8920 C   0  0  2  0  0  0  0  0  0  0  0  0
  183.4030  175.8500  138.1910 C   0  0  0  0  0  0  0  0  0  0  0  0
  185.1600  177.6840  142.1230 C   0  0  1  0  0  3  0  0  0  0  0  0
  183.8160  177.7770  141.3760 C   0  0  2  0  0  3  0  0  0  0  0  0
  187.0070  176.6390  135.3310 C   0  0  0  0  0  2  0  0  0  0  0  0
  186.3990  175.4510  136.0700 C   0  0  0  0  0  2  0  0  0  0  0  0
  184.2670  174.1710  136.0860 C   0  0  0  0  0  2  0  0  0  0  0  0
  182.8280  180.2890  139.3100 C   0  0  0  0  0  3  0  0  0  0  0  0
  180.6590  180.8270  138.4820 C   0  0  0  0  0  0  0  0  0  0  0  0
  180.8930  179.7460  140.6290 C   0  0  0  0  0  3  0  0  0  0  0  0
  180.0770  180.2850  139.6360 C   0  0  0  0  0  3  0  0  0  0  0  0
  182.0150  180.8110  138.3520 N   0  0  0  0  0  0  0  0  0  0  0  0
  182.2870  179.7510  140.4860 C   0  0  0  0  0  0  0  0  0  0  0  0
  179.8920  181.3970  137.4530 O   0  0  0  0  0  0  0  0  0  0  0  0
  180.4570  182.3470  135.3940 O   0  0  0  0  0  0  0  0  0  0  0  0
  180.2730  182.4740  136.6380 C   0  0  0  0  0  3  0  0  0  0  0  0
  191.6670  175.4420  135.2420 O   0  0  0  0  0  0  0  0  0  0  0  0
  192.2350  174.7060  136.3290 C   0  0  1  0  0  3  0  0  0  0  0  0
  194.4050  175.8090  139.2590 O   0  0  0  0  0  1  0  0  0  0  0  0
  193.5610  176.7640  137.2120 C   0  0  0  0  0  2  0  0  0  0  0  0
  192.6180  175.6020  137.5220 C   0  0  2  0  0  0  0  0  0  0  0  0
  194.0920  175.5350  137.9230 C   0  0  2  0  0  0  0  0  0  0  0  0
  191.6480  175.8040  138.6930 C   0  0  0  0  0  2  0  0  0  0  0  0
  191.2880  177.2680  138.8920 C   0  0  0  0  0  1  0  0  0  0  0  0
  195.1210  174.7700  137.0850 C   0  0  1  0  0  3  0  0  0  0  0  0
  196.0910  175.6440  136.5820 O   0  0  0  0  0  1  0  0  0  0  0  0
  195.7790  173.6480  137.8810 C   0  0  0  0  0  2  0  0  0  0  0  0
  197.1540  173.6010  137.6400 O   0  0  0  0  0  1  0  0  0  0  0  0
  191.4350  173.4540  136.7050 C   0  0  0  0  0  3  0  0  0  0  0  0
  190.4090  173.7930  137.5870 O   0  0  0  0  0  1  0  0  0  0  0  0
  190.8790  172.8820  135.5570 O   0  0  0  0  0  1  0  0  0  0  0  0
  1 17  2  0  0  0  0
  2 22  1  0  0  0  0
  6  7  1  0  0  0  0
  7 13  2  0  0  0  0
  8  9  2  0  0  0  0
  9 13  1  0  0  0  0
 11  4  1  0  0  0  0
 12  5  1  0  0  0  0
 12 11  2  0  0  0  0
 14 24  1  0  0  0  0
 15  8  1  0  0  0  0
 15  6  2  0  0  0  0
 16 30  1  1  0  0  0
 16 18  1  0  0  0  0
 18 26  1  0  0  0  0
 19 21  2  0  0  0  0
 20  2  1  0  0  0  0
 21  8  1  0  0  0  0
 22 23  1  0  0  0  0
 23 10  1  0  0  0  0
 23  3  1  1  0  0  0
 24 26  2  0  0  0  0
 25  5  1  6  0  0  0
 25  4  1  0  0  0  0
 25 20  1  0  0  0  0
 26  1  1  0  0  0  0
 27 10  1  6  0  0  0
 27 15  1  0  0  0  0
 28 17  1  6  0  0  0
 28 19  1  0  0  0  0
 28 27  1  0  0  0  0
 29 25  1  0  0  0  0
 29 30  1  0  0  0  0
 31 16  1  0  0  0  0
 31 14  1  0  0  0  0
 32 37  2  0  0  0  0
 33 35  1  0  0  0  0
 35 34  2  0  0  0  0
 36 33  2  0  0  0  0
 36 32  1  0  0  0  0
 37 34  1  0  0  0  0
 37 19  1  0  0  0  0
 38 33  1  0  0  0  0
 39 40  2  0  0  0  0
 40 38  1  0  0  0  0
 41 11  1  0  0  0  0
 42 41  1  6  0  0  0
 42 53  1  0  0  0  0
 42 45  1  0  0  0  0
 44 45  1  0  0  0  0
 44 46  1  0  0  0  0
 45 46  1  0  0  0  0
 45 47  1  1  0  0  0
 46 43  1  1  0  0  0
 47 48  1  0  0  0  0
 49 50  1  1  0  0  0
 49 51  1  0  0  0  0
 49 46  1  0  0  0  0
 52 51  1  0  0  0  0
 53 54  1  0  0  0  0
 55 53  1  0  0  0  0
M  END
>  <MODEL>
1

>  <REMARK>
 VINA RESULT:      -4.7      0.000      0.000
  Name = 
  10 active torsions:
  status: ('A' for Active; 'I' for Inactive)
    1  A    between atoms: C_1  and  C_53
    2  A    between atoms: C_6  and  C_14
    3  A    between atoms: O_10  and  C_32
    4  A    between atoms: O_10  and  C_47
    5  A    between atoms: C_11  and  C_29
    6  A    between atoms: C_14  and  C_53
    7  A    between atoms: C_20  and  O_42
    8  A    between atoms: C_29  and  C_38
    9  A    between atoms: C_33  and  C_52
   10  A    between atoms: O_42  and  C_53
                            x       y       z     vdW  Elec       q    Type
                         _______ _______ _______ _____ _____    ______ ____

>  <TORSDO>
F 10

$$$$
