=
 OpenBabel10262420493D

 28 32  0  0  1  0  0  0  0  0999 V2000
  187.2720  177.6560  145.0300 C   0  0  1  0  0  0  0  0  0  0  0  0
  185.4930  179.5040  147.5500 O   0  0  0  0  0  0  0  0  0  0  0  0
  184.3240  178.4130  142.6800 C   0  0  0  0  0  0  0  0  0  0  0  0
  185.2460  178.8650  145.2560 C   0  0  0  0  0  0  0  0  0  0  0  0
  185.5660  177.8830  143.0840 C   0  0  0  0  0  3  0  0  0  0  0  0
  187.2780  178.2600  146.4430 C   0  0  1  0  0  3  0  0  0  0  0  0
  184.0110  179.4020  144.8920 C   0  0  0  0  0  3  0  0  0  0  0  0
  185.9410  178.9350  146.5200 C   0  0  0  0  0  0  0  0  0  0  0  0
  183.5540  179.1700  143.5850 C   0  0  0  0  0  3  0  0  0  0  0  0
  187.1430  176.7540  146.2410 C   0  0  0  0  0  2  0  0  0  0  0  0
  186.0050  178.1310  144.3840 C   0  0  0  0  0  0  0  0  0  0  0  0
  182.3110  178.3420  141.2770 C   0  0  0  0  0  3  0  0  0  0  0  0
  183.9740  179.0070  138.8430 C   0  0  0  0  0  2  0  0  0  0  0  0
  181.9880  177.5370  138.9340 C   0  0  0  0  0  0  0  0  0  0  0  0
  183.8070  178.1890  141.2910 C   0  0  1  0  0  3  0  0  0  0  0  0
  186.2730  178.6440  140.2010 Cl  0  0  0  0  0  0  0  0  0  0  0  0
  183.4180  177.6300  138.5020 C   0  0  0  0  0  2  0  0  0  0  0  0
  184.5430  179.0750  140.2640 C   0  0  1  0  0  3  0  0  0  0  0  0
  181.1460  177.0510  138.1350 O   0  0  0  0  0  0  0  0  0  0  0  0
  181.5210  178.0190  140.2490 C   0  0  0  0  0  3  0  0  0  0  0  0
  188.6310  177.7460  144.3340 C   0  0  1  0  0  3  0  0  0  0  0  0
  189.6900  178.1360  145.3360 C   0  0  0  0  0  3  0  0  0  0  0  0
  190.4040  176.1160  143.5190 N   0  0  0  0  0  0  0  0  0  0  0  0
  190.9800  177.8220  145.1590 C   0  0  0  0  0  3  0  0  0  0  0  0
  188.1430  175.7630  143.0480 O   0  0  0  0  0  0  0  0  0  0  0  0
  189.0180  176.4740  143.6130 C   0  0  0  0  0  0  0  0  0  0  0  0
  190.7720  174.9970  142.8510 O   0  0  0  0  0  1  0  0  0  0  0  0
  191.4300  177.0650  143.9410 C   0  0  0  0  0  2  0  0  0  0  0  0
  1 10  1  1  0  0  0
  1  6  1  0  0  0  0
  3  5  2  0  0  0  0
  3  9  1  0  0  0  0
  4  8  1  0  0  0  0
  5 11  1  0  0  0  0
  6 10  1  1  0  0  0
  6  8  1  0  0  0  0
  7  4  1  0  0  0  0
  8  2  2  0  0  0  0
  9  7  2  0  0  0  0
 11  1  1  0  0  0  0
 11  4  2  0  0  0  0
 12 15  1  0  0  0  0
 13 18  1  0  0  0  0
 14 20  1  0  0  0  0
 15  3  1  1  0  0  0
 17 13  1  0  0  0  0
 17 14  1  0  0  0  0
 18 16  1  6  0  0  0
 18 15  1  0  0  0  0
 19 14  2  0  0  0  0
 20 12  2  0  0  0  0
 21  1  1  0  0  0  0
 21 22  1  1  0  0  0
 23 26  1  0  0  0  0
 23 28  1  0  0  0  0
 24 22  2  0  0  0  0
 25 26  2  0  0  0  0
 26 21  1  0  0  0  0
 27 23  1  0  0  0  0
 28 24  1  0  0  0  0
M  END
>  <MODEL>
1

>  <REMARK>
 VINA RESULT:     -10.3      0.000      0.000
  Name = 
  2 active torsions:
  status: ('A' for Active; 'I' for Inactive)
    1  A    between atoms: C_1  and  C_2
    2  A    between atoms: C_10  and  C_13
                            x       y       z     vdW  Elec       q    Type
                         _______ _______ _______ _____ _____    ______ ____

>  <TORSDO>
F 2

$$$$
=
 OpenBabel10262420493D

 28 32  0  0  1  0  0  0  0  0999 V2000
  188.4810  177.5950  145.2680 C   0  0  1  0  0  0  0  0  0  0  0  0
  187.8420  178.5340  148.6800 O   0  0  0  0  0  0  0  0  0  0  0  0
  184.7870  178.3980  144.5650 C   0  0  0  0  0  0  0  0  0  0  0  0
  186.6830  178.3960  146.5890 C   0  0  0  0  0  0  0  0  0  0  0  0
  186.1060  177.9880  144.2900 C   0  0  0  0  0  3  0  0  0  0  0  0
  189.0520  177.8590  146.6690 C   0  0  1  0  0  3  0  0  0  0  0  0
  185.3860  178.8050  146.8990 C   0  0  0  0  0  3  0  0  0  0  0  0
  187.8410  178.2870  147.4450 C   0  0  0  0  0  0  0  0  0  0  0  0
  184.4340  178.8050  145.8670 C   0  0  0  0  0  3  0  0  0  0  0  0
  188.9150  176.4350  146.1410 C   0  0  0  0  0  2  0  0  0  0  0  0
  187.0390  178.0020  145.3260 C   0  0  0  0  0  0  0  0  0  0  0  0
  182.4580  178.9670  144.0370 C   0  0  0  0  0  3  0  0  0  0  0  0
  183.1950  179.3190  141.1280 C   0  0  0  0  0  2  0  0  0  0  0  0
  181.0690  178.4370  142.0290 C   0  0  0  0  0  0  0  0  0  0  0  0
  183.7450  178.4150  143.4880 C   0  0  1  0  0  3  0  0  0  0  0  0
  185.6420  178.2590  141.5240 Cl  0  0  0  0  0  0  0  0  0  0  0  0
  182.1970  178.1690  141.0820 C   0  0  0  0  0  2  0  0  0  0  0  0
  184.2520  179.1360  142.2220 C   0  0  1  0  0  3  0  0  0  0  0  0
  179.8900  178.2510  141.6310 O   0  0  0  0  0  0  0  0  0  0  0  0
  181.2830  178.9380  143.4000 C   0  0  0  0  0  3  0  0  0  0  0  0
  189.4160  178.0470  144.1430 C   0  0  1  0  0  3  0  0  0  0  0  0
  190.8140  178.2170  144.6860 C   0  0  0  0  0  3  0  0  0  0  0  0
  190.6110  176.9590  142.1820 N   0  0  0  0  0  0  0  0  0  0  0  0
  191.8930  178.1170  143.8980 C   0  0  0  0  0  3  0  0  0  0  0  0
  188.3550  176.5240  142.6010 O   0  0  0  0  0  0  0  0  0  0  0  0
  189.4120  177.1150  142.9530 C   0  0  0  0  0  0  0  0  0  0  0  0
  190.6190  176.1520  141.0930 O   0  0  0  0  0  1  0  0  0  0  0  0
  191.7540  177.8340  142.4290 C   0  0  0  0  0  2  0  0  0  0  0  0
  1 11  1  0  0  0  0
  1 10  1  6  0  0  0
  1  6  1  0  0  0  0
  3  9  1  0  0  0  0
  4  7  1  0  0  0  0
  4  8  1  0  0  0  0
  5  3  2  0  0  0  0
  5 11  1  0  0  0  0
  6 10  1  1  0  0  0
  6  8  1  0  0  0  0
  8  2  2  0  0  0  0
  9  7  2  0  0  0  0
 11  4  2  0  0  0  0
 13 18  1  0  0  0  0
 14 20  1  0  0  0  0
 15 12  1  0  0  0  0
 15  3  1  1  0  0  0
 17 13  1  0  0  0  0
 17 14  1  0  0  0  0
 18 16  1  6  0  0  0
 18 15  1  0  0  0  0
 19 14  2  0  0  0  0
 20 12  2  0  0  0  0
 21 22  1  1  0  0  0
 21  1  1  0  0  0  0
 23 28  1  0  0  0  0
 23 26  1  0  0  0  0
 24 22  2  0  0  0  0
 25 26  2  0  0  0  0
 26 21  1  0  0  0  0
 27 23  1  0  0  0  0
 28 24  1  0  0  0  0
M  END
>  <MODEL>
2

>  <REMARK>
 VINA RESULT:      -9.6      1.605      2.173
  Name = 
  2 active torsions:
  status: ('A' for Active; 'I' for Inactive)
    1  A    between atoms: C_1  and  C_2
    2  A    between atoms: C_10  and  C_13
                            x       y       z     vdW  Elec       q    Type
                         _______ _______ _______ _____ _____    ______ ____

>  <TORSDO>
F 2

$$$$
=
 OpenBabel10262420493D

 28 32  0  0  1  0  0  0  0  0999 V2000
  189.1980  177.5980  139.5030 C   0  0  1  0  0  0  0  0  0  0  0  0
  185.8080  178.7210  139.0880 O   0  0  0  0  0  0  0  0  0  0  0  0
  188.5230  177.5960  143.2880 C   0  0  0  0  0  0  0  0  0  0  0  0
  187.3100  178.0980  140.8450 C   0  0  0  0  0  0  0  0  0  0  0  0
  189.2540  177.4330  142.0950 C   0  0  0  0  0  3  0  0  0  0  0  0
  188.0510  177.9310  138.5370 C   0  0  1  0  0  3  0  0  0  0  0  0
  186.5570  178.2740  142.0060 C   0  0  0  0  0  3  0  0  0  0  0  0
  186.9330  178.3020  139.4660 C   0  0  0  0  0  0  0  0  0  0  0  0
  187.1780  178.0140  143.2370 C   0  0  0  0  0  3  0  0  0  0  0  0
  189.2450  178.8690  138.6800 C   0  0  0  0  0  2  0  0  0  0  0  0
  188.6160  177.6880  140.8820 C   0  0  0  0  0  0  0  0  0  0  0  0
  190.6090  177.6960  144.5780 C   0  0  0  0  0  3  0  0  0  0  0  0
  189.0240  177.8810  147.1440 C   0  0  0  0  0  2  0  0  0  0  0  0
  191.1900  176.7360  146.8100 C   0  0  0  0  0  0  0  0  0  0  0  0
  189.1520  177.3250  144.6210 C   0  0  1  0  0  3  0  0  0  0  0  0
  186.7190  177.3090  145.8690 Cl  0  0  0  0  0  0  0  0  0  0  0  0
  189.7900  176.5760  147.3180 C   0  0  0  0  0  2  0  0  0  0  0  0
  188.3640  177.9950  145.7660 C   0  0  1  0  0  3  0  0  0  0  0  0
  192.1400  176.3080  147.5150 O   0  0  0  0  0  0  0  0  0  0  0  0
  191.4990  177.4000  145.5290 C   0  0  0  0  0  3  0  0  0  0  0  0
  190.0420  176.4060  139.0450 C   0  0  1  0  0  3  0  0  0  0  0  0
  189.6350  176.0050  137.6480 C   0  0  0  0  0  3  0  0  0  0  0  0
  192.3970  176.0360  138.1630 N   0  0  0  0  0  0  0  0  0  0  0  0
  190.4760  175.3650  136.8240 C   0  0  0  0  0  3  0  0  0  0  0  0
  192.0160  177.3760  140.0380 O   0  0  0  0  0  0  0  0  0  0  0  0
  191.5300  176.6650  139.1170 C   0  0  0  0  0  0  0  0  0  0  0  0
  193.7360  176.2310  138.2300 O   0  0  0  0  0  1  0  0  0  0  0  0
  191.8700  175.0130  137.2640 C   0  0  0  0  0  2  0  0  0  0  0  0
  1 10  1  6  0  0  0
  1 11  1  0  0  0  0
  2  8  2  0  0  0  0
  4 11  2  0  0  0  0
  4  7  1  0  0  0  0
  5  3  2  0  0  0  0
  6 10  1  6  0  0  0
  6  8  1  0  0  0  0
  6  1  1  0  0  0  0
  7  9  2  0  0  0  0
  8  4  1  0  0  0  0
  9  3  1  0  0  0  0
 11  5  1  0  0  0  0
 12 15  1  0  0  0  0
 12 20  2  0  0  0  0
 13 17  1  0  0  0  0
 14 17  1  0  0  0  0
 14 19  2  0  0  0  0
 15  3  1  6  0  0  0
 15 18  1  0  0  0  0
 18 16  1  1  0  0  0
 18 13  1  0  0  0  0
 20 14  1  0  0  0  0
 21 22  1  6  0  0  0
 21 26  1  0  0  0  0
 21  1  1  0  0  0  0
 23 27  1  0  0  0  0
 23 26  1  0  0  0  0
 24 28  1  0  0  0  0
 24 22  2  0  0  0  0
 26 25  2  0  0  0  0
 28 23  1  0  0  0  0
M  END
>  <MODEL>
3

>  <REMARK>
 VINA RESULT:      -9.6      4.029      7.637
  Name = 
  2 active torsions:
  status: ('A' for Active; 'I' for Inactive)
    1  A    between atoms: C_1  and  C_2
    2  A    between atoms: C_10  and  C_13
                            x       y       z     vdW  Elec       q    Type
                         _______ _______ _______ _____ _____    ______ ____

>  <TORSDO>
F 2

$$$$
=
 OpenBabel10262420493D

 28 32  0  0  1  0  0  0  0  0999 V2000
  184.3830  178.8940  143.5710 C   0  0  1  0  0  0  0  0  0  0  0  0
  185.3660  178.3160  146.9810 O   0  0  0  0  0  0  0  0  0  0  0  0
  187.8840  177.6660  142.5640 C   0  0  0  0  0  0  0  0  0  0  0  0
  186.2620  178.0910  144.7720 C   0  0  0  0  0  0  0  0  0  0  0  0
  186.5780  178.1630  142.3890 C   0  0  0  0  0  3  0  0  0  0  0  0
  183.9720  178.8560  145.0510 C   0  0  1  0  0  3  0  0  0  0  0  0
  187.5500  177.6020  144.9830 C   0  0  0  0  0  3  0  0  0  0  0  0
  185.2320  178.4120  145.7330 C   0  0  0  0  0  0  0  0  0  0  0  0
  188.3630  177.3870  143.8590 C   0  0  0  0  0  3  0  0  0  0  0  0
  184.1550  180.1870  144.3290 C   0  0  0  0  0  2  0  0  0  0  0  0
  185.7830  178.3620  143.5170 C   0  0  0  0  0  0  0  0  0  0  0  0
  188.5360  178.4720  140.3380 C   0  0  0  0  0  3  0  0  0  0  0  0
  191.2480  177.1760  140.6540 C   0  0  0  0  0  2  0  0  0  0  0  0
  189.9400  177.4050  138.5690 C   0  0  0  0  0  0  0  0  0  0  0  0
  188.7790  177.4210  141.3870 C   0  0  1  0  0  3  0  0  0  0  0  0
  190.4650  175.8660  142.8760 Cl  0  0  0  0  0  0  0  0  0  0  0  0
  190.6640  176.4400  139.4550 C   0  0  0  0  0  2  0  0  0  0  0  0
  190.2550  177.2870  141.8160 C   0  0  1  0  0  3  0  0  0  0  0  0
  190.1420  177.3520  137.3280 O   0  0  0  0  0  0  0  0  0  0  0  0
  189.0230  178.4350  139.0950 C   0  0  0  0  0  3  0  0  0  0  0  0
  183.2810  178.4020  142.6290 C   0  0  1  0  0  3  0  0  0  0  0  0
  181.9330  178.6100  143.2740 C   0  0  0  0  0  3  0  0  0  0  0  0
  182.1060  179.2620  140.5460 N   0  0  0  0  0  0  0  0  0  0  0  0
  180.8160  178.7440  142.5460 C   0  0  0  0  0  3  0  0  0  0  0  0
  184.4330  179.3460  140.7310 O   0  0  0  0  0  0  0  0  0  0  0  0
  183.3290  179.0490  141.2640 C   0  0  0  0  0  0  0  0  0  0  0  0
  182.1310  179.8120  139.3090 O   0  0  0  0  0  1  0  0  0  0  0  0
  180.8600  178.6850  141.0450 C   0  0  0  0  0  2  0  0  0  0  0  0
  1 10  1  6  0  0  0
  1  6  1  0  0  0  0
  3  9  1  0  0  0  0
  4  7  1  0  0  0  0
  4  8  1  0  0  0  0
  5  3  2  0  0  0  0
  5 11  1  0  0  0  0
  6 10  1  1  0  0  0
  6  8  1  0  0  0  0
  8  2  2  0  0  0  0
  9  7  2  0  0  0  0
 11  1  1  0  0  0  0
 11  4  2  0  0  0  0
 12 15  1  0  0  0  0
 13 18  1  0  0  0  0
 14 20  1  0  0  0  0
 14 17  1  0  0  0  0
 15 18  1  0  0  0  0
 15  3  1  1  0  0  0
 17 13  1  0  0  0  0
 18 16  1  1  0  0  0
 19 14  2  0  0  0  0
 20 12  2  0  0  0  0
 21 22  1  1  0  0  0
 21  1  1  0  0  0  0
 23 28  1  0  0  0  0
 23 26  1  0  0  0  0
 24 22  2  0  0  0  0
 25 26  2  0  0  0  0
 26 21  1  0  0  0  0
 27 23  1  0  0  0  0
 28 24  1  0  0  0  0
M  END
>  <MODEL>
4

>  <REMARK>
 VINA RESULT:      -9.4      3.363      6.465
  Name = 
  2 active torsions:
  status: ('A' for Active; 'I' for Inactive)
    1  A    between atoms: C_1  and  C_2
    2  A    between atoms: C_10  and  C_13
                            x       y       z     vdW  Elec       q    Type
                         _______ _______ _______ _____ _____    ______ ____

>  <TORSDO>
F 2

$$$$
=
 OpenBabel10262420493D

 28 32  0  0  1  0  0  0  0  0999 V2000
  183.4470  178.5490  140.0560 C   0  0  1  0  0  0  0  0  0  0  0  0
  180.3640  179.3100  141.7440 O   0  0  0  0  0  0  0  0  0  0  0  0
  185.0730  178.3570  143.5350 C   0  0  0  0  0  0  0  0  0  0  0  0
  182.6440  178.7990  142.2710 C   0  0  0  0  0  0  0  0  0  0  0  0
  184.9940  178.3100  142.1280 C   0  0  0  0  0  3  0  0  0  0  0  0
  181.9320  178.7850  139.9470 C   0  0  1  0  0  3  0  0  0  0  0  0
  182.6840  178.8560  143.6640 C   0  0  0  0  0  3  0  0  0  0  0  0
  181.5290  179.0040  141.3760 C   0  0  0  0  0  0  0  0  0  0  0  0
  183.9180  178.6280  144.2950 C   0  0  0  0  0  3  0  0  0  0  0  0
  182.9210  179.8420  139.4680 C   0  0  0  0  0  2  0  0  0  0  0  0
  183.7590  178.5320  141.5220 C   0  0  0  0  0  0  0  0  0  0  0  0
  186.1040  177.6260  145.6390 C   0  0  0  0  0  3  0  0  0  0  0  0
  188.5900  176.7880  144.1400 C   0  0  0  0  0  2  0  0  0  0  0  0
  188.4750  177.7450  146.4160 C   0  0  0  0  0  0  0  0  0  0  0  0
  186.3710  178.1140  144.2420 C   0  0  1  0  0  3  0  0  0  0  0  0
  187.7390  177.9810  141.8770 Cl  0  0  0  0  0  0  0  0  0  0  0  0
  189.1120  177.8780  145.0670 C   0  0  0  0  0  2  0  0  0  0  0  0
  187.3000  177.1970  143.4190 C   0  0  1  0  0  3  0  0  0  0  0  0
  189.2070  177.8190  147.4370 O   0  0  0  0  0  0  0  0  0  0  0  0
  187.0310  177.5030  146.5940 C   0  0  0  0  0  3  0  0  0  0  0  0
  183.9560  177.4700  139.0960 C   0  0  1  0  0  3  0  0  0  0  0  0
  182.8460  177.0610  138.1590 C   0  0  0  0  0  3  0  0  0  0  0  0
  185.3820  177.3870  136.9940 N   0  0  0  0  0  0  0  0  0  0  0  0
  183.0980  176.5400  136.9510 C   0  0  0  0  0  3  0  0  0  0  0  0
  186.0590  178.6280  138.8540 O   0  0  0  0  0  0  0  0  0  0  0  0
  185.1840  177.8900  138.3220 C   0  0  0  0  0  0  0  0  0  0  0  0
  186.4920  177.7280  136.2960 O   0  0  0  0  0  1  0  0  0  0  0  0
  184.5100  176.3350  136.4780 C   0  0  0  0  0  2  0  0  0  0  0  0
  1 10  1  6  0  0  0
  1 11  1  0  0  0  0
  3  9  1  0  0  0  0
  4  7  1  0  0  0  0
  5  3  2  0  0  0  0
  6 10  1  6  0  0  0
  6  1  1  0  0  0  0
  6  8  1  0  0  0  0
  7  9  2  0  0  0  0
  8  2  2  0  0  0  0
  8  4  1  0  0  0  0
 11  5  1  0  0  0  0
 11  4  2  0  0  0  0
 12 20  2  0  0  0  0
 13 17  1  0  0  0  0
 14 20  1  0  0  0  0
 14 19  2  0  0  0  0
 15  3  1  6  0  0  0
 15 12  1  0  0  0  0
 17 14  1  0  0  0  0
 18 16  1  6  0  0  0
 18 13  1  0  0  0  0
 18 15  1  0  0  0  0
 21 22  1  6  0  0  0
 21  1  1  0  0  0  0
 23 26  1  0  0  0  0
 24 22  2  0  0  0  0
 26 25  2  0  0  0  0
 26 21  1  0  0  0  0
 27 23  1  0  0  0  0
 28 24  1  0  0  0  0
 28 23  1  0  0  0  0
M  END
>  <MODEL>
5

>  <REMARK>
 VINA RESULT:      -9.2      2.694      7.198
  Name = 
  2 active torsions:
  status: ('A' for Active; 'I' for Inactive)
    1  A    between atoms: C_1  and  C_2
    2  A    between atoms: C_10  and  C_13
                            x       y       z     vdW  Elec       q    Type
                         _______ _______ _______ _____ _____    ______ ____

>  <TORSDO>
F 2

$$$$
=
 OpenBabel10262420493D

 28 32  0  0  1  0  0  0  0  0999 V2000
  186.7830  177.9360  145.3460 C   0  0  1  0  0  0  0  0  0  0  0  0
  183.6780  179.5240  144.4700 O   0  0  0  0  0  0  0  0  0  0  0  0
  187.6340  177.9820  141.5970 C   0  0  0  0  0  0  0  0  0  0  0  0
  185.6740  178.7350  143.4100 C   0  0  0  0  0  0  0  0  0  0  0  0
  187.8130  177.7270  142.9710 C   0  0  0  0  0  3  0  0  0  0  0  0
  185.4840  178.5990  145.8290 C   0  0  1  0  0  3  0  0  0  0  0  0
  185.4610  179.0000  142.0570 C   0  0  0  0  0  3  0  0  0  0  0  0
  184.8220  179.0030  144.5440 C   0  0  0  0  0  0  0  0  0  0  0  0
  186.4590  178.6190  141.1480 C   0  0  0  0  0  3  0  0  0  0  0  0
  185.6680  177.0880  145.9230 C   0  0  0  0  0  2  0  0  0  0  0  0
  186.8140  178.1210  143.8590 C   0  0  0  0  0  0  0  0  0  0  0  0
  188.6810  178.5720  139.4570 C   0  0  0  0  0  3  0  0  0  0  0  0
  191.2080  177.1400  140.2890 C   0  0  0  0  0  2  0  0  0  0  0  0
  190.2620  177.2870  138.0100 C   0  0  0  0  0  0  0  0  0  0  0  0
  188.6800  177.5930  140.5980 C   0  0  1  0  0  3  0  0  0  0  0  0
  189.9960  176.0560  142.4390 Cl  0  0  0  0  0  0  0  0  0  0  0  0
  190.7660  176.3500  139.0640 C   0  0  0  0  0  2  0  0  0  0  0  0
  190.0580  177.4010  141.2670 C   0  0  1  0  0  3  0  0  0  0  0  0
  190.6500  177.1260  136.8240 O   0  0  0  0  0  0  0  0  0  0  0  0
  189.3520  178.4090  138.3130 C   0  0  0  0  0  3  0  0  0  0  0  0
  187.9860  178.2560  146.2370 C   0  0  1  0  0  3  0  0  0  0  0  0
  187.5220  178.4680  147.6580 C   0  0  0  0  0  3  0  0  0  0  0  0
  189.8670  176.9520  147.3430 N   0  0  0  0  0  0  0  0  0  0  0  0
  188.3370  178.2730  148.7030 C   0  0  0  0  0  3  0  0  0  0  0  0
  189.3130  176.5900  145.1030 O   0  0  0  0  0  0  0  0  0  0  0  0
  189.0690  177.2030  146.1780 C   0  0  0  0  0  0  0  0  0  0  0  0
  190.8630  176.0350  147.3010 O   0  0  0  0  0  1  0  0  0  0  0  0
  189.7610  177.8370  148.5010 C   0  0  0  0  0  2  0  0  0  0  0  0
  1  6  1  0  0  0  0
  1 10  1  1  0  0  0
  1 21  1  0  0  0  0
  2  8  2  0  0  0  0
  3  5  1  0  0  0  0
  4 11  1  0  0  0  0
  4  8  1  0  0  0  0
  5 11  2  0  0  0  0
  6 10  1  6  0  0  0
  7  4  2  0  0  0  0
  8  6  1  0  0  0  0
  9  3  2  0  0  0  0
  9  7  1  0  0  0  0
 11  1  1  0  0  0  0
 12 15  1  0  0  0  0
 13 18  1  0  0  0  0
 14 20  1  0  0  0  0
 14 17  1  0  0  0  0
 15 18  1  0  0  0  0
 15  3  1  1  0  0  0
 17 13  1  0  0  0  0
 18 16  1  1  0  0  0
 19 14  2  0  0  0  0
 20 12  2  0  0  0  0
 21 22  1  1  0  0  0
 22 24  2  0  0  0  0
 23 28  1  0  0  0  0
 25 26  2  0  0  0  0
 26 21  1  0  0  0  0
 26 23  1  0  0  0  0
 27 23  1  0  0  0  0
 28 24  1  0  0  0  0
M  END
>  <MODEL>
6

>  <REMARK>
 VINA RESULT:      -8.9      3.262      4.813
  Name = 
  2 active torsions:
  status: ('A' for Active; 'I' for Inactive)
    1  A    between atoms: C_1  and  C_2
    2  A    between atoms: C_10  and  C_13
                            x       y       z     vdW  Elec       q    Type
                         _______ _______ _______ _____ _____    ______ ____

>  <TORSDO>
F 2

$$$$
=
 OpenBabel10262420493D

 28 32  0  0  1  0  0  0  0  0999 V2000
  190.4520  175.8700  137.7660 C   0  0  1  0  0  0  0  0  0  0  0  0
  193.9310  176.7390  137.4830 O   0  0  0  0  0  0  0  0  0  0  0  0
  190.6400  177.1280  141.3950 C   0  0  0  0  0  0  0  0  0  0  0  0
  192.1650  176.8220  139.0990 C   0  0  0  0  0  0  0  0  0  0  0  0
  190.0590  176.5780  140.2350 C   0  0  0  0  0  3  0  0  0  0  0  0
  191.6850  176.0090  136.8600 C   0  0  1  0  0  3  0  0  0  0  0  0
  192.7740  177.3670  140.2290 C   0  0  0  0  0  3  0  0  0  0  0  0
  192.7270  176.5430  137.7980 C   0  0  0  0  0  0  0  0  0  0  0  0
  191.9930  177.5210  141.3860 C   0  0  0  0  0  3  0  0  0  0  0  0
  191.1860  174.6330  137.2890 C   0  0  0  0  0  2  0  0  0  0  0  0
  190.8500  176.4410  139.0940 C   0  0  0  0  0  0  0  0  0  0  0  0
  188.6810  176.3470  142.6510 C   0  0  0  0  0  3  0  0  0  0  0  0
  189.9540  177.2740  145.2300 C   0  0  0  0  0  2  0  0  0  0  0  0
  187.5480  177.3060  144.6610 C   0  0  0  0  0  0  0  0  0  0  0  0
  189.8350  177.3100  142.6460 C   0  0  1  0  0  3  0  0  0  0  0  0
  191.9100  178.5720  143.9050 Cl  0  0  0  0  0  0  0  0  0  0  0  0
  188.6970  178.1310  145.1510 C   0  0  0  0  0  2  0  0  0  0  0  0
  190.7240  177.2380  143.9050 C   0  0  1  0  0  3  0  0  0  0  0  0
  186.4460  177.3880  145.2630 O   0  0  0  0  0  0  0  0  0  0  0  0
  187.6660  176.3780  143.5190 C   0  0  0  0  0  3  0  0  0  0  0  0
  189.1470  176.2540  137.0660 C   0  0  1  0  0  3  0  0  0  0  0  0
  188.1230  175.1650  137.2710 C   0  0  0  0  0  3  0  0  0  0  0  0
  187.1840  177.8000  137.5290 N   0  0  0  0  0  0  0  0  0  0  0  0
  186.8070  175.4140  137.2190 C   0  0  0  0  0  3  0  0  0  0  0  0
  189.3820  178.5400  137.8020 O   0  0  0  0  0  0  0  0  0  0  0  0
  188.6030  177.5930  137.5090 C   0  0  0  0  0  0  0  0  0  0  0  0
  186.6780  179.0030  137.8940 O   0  0  0  0  0  1  0  0  0  0  0  0
  186.2940  176.8000  136.9450 C   0  0  0  0  0  2  0  0  0  0  0  0
  1 10  1  1  0  0  0
  1 11  1  0  0  0  0
  2  8  2  0  0  0  0
  4  7  1  0  0  0  0
  5  3  2  0  0  0  0
  6 10  1  1  0  0  0
  6  1  1  0  0  0  0
  6  8  1  0  0  0  0
  7  9  2  0  0  0  0
  8  4  1  0  0  0  0
  9  3  1  0  0  0  0
 11  4  2  0  0  0  0
 11  5  1  0  0  0  0
 12 20  2  0  0  0  0
 14 17  1  0  0  0  0
 14 19  2  0  0  0  0
 15  3  1  6  0  0  0
 15 12  1  0  0  0  0
 15 18  1  0  0  0  0
 17 13  1  0  0  0  0
 18 16  1  1  0  0  0
 18 13  1  0  0  0  0
 20 14  1  0  0  0  0
 21 22  1  1  0  0  0
 21 26  1  0  0  0  0
 21  1  1  0  0  0  0
 23 27  1  0  0  0  0
 24 22  2  0  0  0  0
 26 23  1  0  0  0  0
 26 25  2  0  0  0  0
 28 24  1  0  0  0  0
 28 23  1  0  0  0  0
M  END
>  <MODEL>
7

>  <REMARK>
 VINA RESULT:      -8.8      4.678      8.446
  Name = 
  2 active torsions:
  status: ('A' for Active; 'I' for Inactive)
    1  A    between atoms: C_1  and  C_2
    2  A    between atoms: C_10  and  C_13
                            x       y       z     vdW  Elec       q    Type
                         _______ _______ _______ _____ _____    ______ ____

>  <TORSDO>
F 2

$$$$
=
 OpenBabel10262420493D

 28 32  0  0  1  0  0  0  0  0999 V2000
  190.5030  176.7820  143.2800 C   0  0  1  0  0  0  0  0  0  0  0  0
  191.6250  176.9860  146.6910 O   0  0  0  0  0  0  0  0  0  0  0  0
  187.0460  177.8730  144.5630 C   0  0  0  0  0  0  0  0  0  0  0  0
  189.6350  177.3530  145.4110 C   0  0  0  0  0  0  0  0  0  0  0  0
  188.0240  177.4770  143.6290 C   0  0  0  0  0  3  0  0  0  0  0  0
  191.6810  176.7130  144.2650 C   0  0  1  0  0  3  0  0  0  0  0  0
  188.6920  177.7390  146.3630 C   0  0  0  0  0  3  0  0  0  0  0  0
  191.0280  177.0130  145.5830 C   0  0  0  0  0  0  0  0  0  0  0  0
  187.3860  178.0030  145.9240 C   0  0  0  0  0  3  0  0  0  0  0  0
  191.1210  175.4440  143.6300 C   0  0  0  0  0  2  0  0  0  0  0  0
  189.3180  177.2280  144.0840 C   0  0  0  0  0  0  0  0  0  0  0  0
  184.8520  178.6940  145.2960 C   0  0  0  0  0  3  0  0  0  0  0  0
  184.2130  179.5370  142.4650 C   0  0  0  0  0  2  0  0  0  0  0  0
  182.6330  178.6520  144.1480 C   0  0  0  0  0  0  0  0  0  0  0  0
  185.6420  178.1670  144.1300 C   0  0  1  0  0  3  0  0  0  0  0  0
  186.3750  178.2530  141.4960 Cl  0  0  0  0  0  0  0  0  0  0  0  0
  183.1440  178.4890  142.7500 C   0  0  0  0  0  2  0  0  0  0  0  0
  185.6130  179.0770  142.8840 C   0  0  1  0  0  3  0  0  0  0  0  0
  181.3900  178.6280  144.3430 O   0  0  0  0  0  0  0  0  0  0  0  0
  183.5270  178.8690  145.3020 C   0  0  0  0  0  3  0  0  0  0  0  0
  190.8770  177.4270  141.9430 C   0  0  1  0  0  3  0  0  0  0  0  0
  192.3780  177.4460  141.7920 C   0  0  0  0  0  3  0  0  0  0  0  0
  190.9190  176.7280  139.5000 N   0  0  0  0  0  0  0  0  0  0  0  0
  192.9660  177.4780  140.5880 C   0  0  0  0  0  3  0  0  0  0  0  0
  189.0610  176.2800  140.8430 O   0  0  0  0  0  0  0  0  0  0  0  0
  190.2260  176.7570  140.7550 C   0  0  0  0  0  0  0  0  0  0  0  0
  190.3390  176.1590  138.4160 O   0  0  0  0  0  1  0  0  0  0  0  0
  192.1450  177.5030  139.3290 C   0  0  0  0  0  2  0  0  0  0  0  0
  1 10  1  6  0  0  0
  1 11  1  0  0  0  0
  1  6  1  0  0  0  0
  3  9  1  0  0  0  0
  4  8  1  0  0  0  0
  4  7  1  0  0  0  0
  5 11  1  0  0  0  0
  5  3  2  0  0  0  0
  6 10  1  1  0  0  0
  6  8  1  0  0  0  0
  8  2  2  0  0  0  0
  9  7  2  0  0  0  0
 11  4  2  0  0  0  0
 12 20  2  0  0  0  0
 13 17  1  0  0  0  0
 13 18  1  0  0  0  0
 14 19  2  0  0  0  0
 14 20  1  0  0  0  0
 15  3  1  1  0  0  0
 15 12  1  0  0  0  0
 17 14  1  0  0  0  0
 18 16  1  6  0  0  0
 18 15  1  0  0  0  0
 21 22  1  6  0  0  0
 21  1  1  0  0  0  0
 23 26  1  0  0  0  0
 24 22  2  0  0  0  0
 26 25  2  0  0  0  0
 26 21  1  0  0  0  0
 27 23  1  0  0  0  0
 28 23  1  0  0  0  0
 28 24  1  0  0  0  0
M  END
>  <MODEL>
8

>  <REMARK>
 VINA RESULT:      -8.7      2.568      4.425
  Name = 
  2 active torsions:
  status: ('A' for Active; 'I' for Inactive)
    1  A    between atoms: C_1  and  C_2
    2  A    between atoms: C_10  and  C_13
                            x       y       z     vdW  Elec       q    Type
                         _______ _______ _______ _____ _____    ______ ____

>  <TORSDO>
F 2

$$$$
=
 OpenBabel10262420493D

 28 32  0  0  1  0  0  0  0  0999 V2000
  190.4210  177.8090  143.6300 C   0  0  1  0  0  0  0  0  0  0  0  0
  192.1640  177.5940  140.4920 O   0  0  0  0  0  0  0  0  0  0  0  0
  187.1880  178.1750  141.5810 C   0  0  0  0  0  0  0  0  0  0  0  0
  189.9260  177.8240  141.3120 C   0  0  0  0  0  0  0  0  0  0  0  0
  188.0010  178.0890  142.7290 C   0  0  0  0  0  3  0  0  0  0  0  0
  191.7490  177.5610  142.8980 C   0  0  1  0  0  3  0  0  0  0  0  0
  189.1540  177.9080  140.1540 C   0  0  0  0  0  3  0  0  0  0  0  0
  191.3540  177.6610  141.4540 C   0  0  0  0  0  0  0  0  0  0  0  0
  187.7690  178.0820  140.3000 C   0  0  0  0  0  3  0  0  0  0  0  0
  191.5050  178.8680  143.6460 C   0  0  0  0  0  2  0  0  0  0  0  0
  189.3730  177.9080  142.5630 C   0  0  0  0  0  0  0  0  0  0  0  0
  185.3810  179.0500  142.9940 C   0  0  0  0  0  3  0  0  0  0  0  0
  183.6310  179.3960  140.5540 C   0  0  0  0  0  2  0  0  0  0  0  0
  182.9050  178.7620  142.8310 C   0  0  0  0  0  0  0  0  0  0  0  0
  185.7050  178.3570  141.6990 C   0  0  1  0  0  3  0  0  0  0  0  0
  185.3590  178.0230  139.0060 Cl  0  0  0  0  0  0  0  0  0  0  0  0
  182.8510  178.3830  141.3840 C   0  0  0  0  0  2  0  0  0  0  0  0
  185.1190  179.0470  140.4490 C   0  0  1  0  0  3  0  0  0  0  0  0
  181.8390  178.7390  143.5010 O   0  0  0  0  0  0  0  0  0  0  0  0
  184.1510  179.1900  143.4960 C   0  0  0  0  0  3  0  0  0  0  0  0
  190.2470  176.9310  144.8720 C   0  0  1  0  0  3  0  0  0  0  0  0
  191.6000  176.4800  145.3670 C   0  0  0  0  0  3  0  0  0  0  0  0
  189.7750  177.2930  147.3430 N   0  0  0  0  0  0  0  0  0  0  0  0
  191.8060  176.1430  146.6470 C   0  0  0  0  0  3  0  0  0  0  0  0
  188.5200  178.3940  145.7090 O   0  0  0  0  0  0  0  0  0  0  0  0
  189.4690  177.6070  145.9770 C   0  0  0  0  0  0  0  0  0  0  0  0
  189.0680  177.8650  148.3470 O   0  0  0  0  0  1  0  0  0  0  0  0
  190.6870  176.1940  147.6490 C   0  0  0  0  0  2  0  0  0  0  0  0
  1 10  1  1  0  0  0
  1 21  1  0  0  0  0
  2  8  2  0  0  0  0
  3  5  1  0  0  0  0
  4  8  1  0  0  0  0
  4 11  1  0  0  0  0
  6  1  1  0  0  0  0
  6 10  1  1  0  0  0
  7  9  1  0  0  0  0
  7  4  2  0  0  0  0
  8  6  1  0  0  0  0
  9  3  2  0  0  0  0
 11  5  2  0  0  0  0
 11  1  1  0  0  0  0
 12 20  2  0  0  0  0
 13 17  1  0  0  0  0
 14 20  1  0  0  0  0
 14 19  2  0  0  0  0
 15  3  1  6  0  0  0
 15 12  1  0  0  0  0
 17 14  1  0  0  0  0
 18 16  1  6  0  0  0
 18 13  1  0  0  0  0
 18 15  1  0  0  0  0
 21 22  1  1  0  0  0
 21 26  1  0  0  0  0
 22 24  2  0  0  0  0
 23 28  1  0  0  0  0
 23 27  1  0  0  0  0
 24 28  1  0  0  0  0
 25 26  2  0  0  0  0
 26 23  1  0  0  0  0
M  END
>  <MODEL>
9

>  <REMARK>
 VINA RESULT:      -8.7      2.515      4.589
  Name = 
  2 active torsions:
  status: ('A' for Active; 'I' for Inactive)
    1  A    between atoms: C_1  and  C_2
    2  A    between atoms: C_10  and  C_13
                            x       y       z     vdW  Elec       q    Type
                         _______ _______ _______ _____ _____    ______ ____

>  <TORSDO>
F 2

$$$$
