=
 OpenBabel10262419413D

 31 34  0  0  1  0  0  0  0  0999 V2000
  191.4740  178.4200  144.2170 C   0  0  0  0  0  0  0  0  0  0  0  0
  187.7400  177.6290  143.8350 C   0  0  0  0  0  0  0  0  0  0  0  0
  186.8710  177.8940  144.9120 C   0  0  0  0  0  0  0  0  0  0  0  0
  186.2250  177.8110  147.3340 C   0  0  0  0  0  2  0  0  0  0  0  0
  189.1890  177.3040  144.0990 C   0  0  2  0  0  3  0  0  0  0  0  0
  192.0330  177.3250  143.6940 C   0  0  0  0  0  3  0  0  0  0  0  0
  187.3750  177.8660  146.3330 C   0  0  0  0  0  2  0  0  0  0  0  0
  188.1110  177.3320  141.3090 C   0  0  1  0  0  3  0  0  0  0  0  0
  192.2960  179.4550  144.6410 O   0  0  0  0  0  1  0  0  0  0  0  0
  185.0850  178.2700  143.3600 N   0  0  0  0  0  0  0  0  0  0  0  0
  185.2520  178.8490  147.0110 N   0  0  0  0  0  2  0  0  0  0  0  0
  189.5940  177.1560  141.6370 C   0  0  0  0  0  2  0  0  0  0  0  0
  187.2530  177.7090  142.5080 C   0  0  0  0  0  0  0  0  0  0  0  0
  189.9830  178.6060  144.2930 C   0  0  0  0  0  2  0  0  0  0  0  0
  183.5960  179.4950  145.4330 N   0  0  0  0  0  1  0  0  0  0  0  0
  189.7720  176.4490  142.9730 C   0  0  1  0  0  3  0  0  0  0  0  0
  191.2410  176.1280  143.2480 C   0  0  0  0  0  2  0  0  0  0  0  0
  185.9010  178.0100  142.3080 C   0  0  0  0  0  3  0  0  0  0  0  0
  185.5340  178.2500  144.6430 C   0  0  0  0  0  0  0  0  0  0  0  0
  184.5610  178.4650  145.7790 C   0  0  1  0  0  3  0  0  0  0  0  0
  187.9950  178.3480  140.1830 C   0  0  0  0  0  2  0  0  0  0  0  0
  189.0740  178.1530  139.2160 N   0  0  0  0  0  2  0  0  0  0  0  0
  187.0350  177.9670  137.9320 C   0  0  0  0  0  1  0  0  0  0  0  0
  189.0650  178.8380  136.8590 C   0  0  0  0  0  1  0  0  0  0  0  0
  188.5490  177.8330  137.8830 C   0  0  0  0  0  0  0  0  0  0  0  0
  187.8130  175.5710  137.4000 O   0  0  0  0  0  1  0  0  0  0  0  0
  188.9360  176.4020  137.4610 C   0  0  2  0  0  3  0  0  0  0  0  0
  189.9210  175.8370  138.3760 N   0  0  0  0  0  2  0  0  0  0  0  0
  191.1980  175.3740  137.9360 C   0  0  0  0  0  0  0  0  0  0  0  0
  192.4520  176.4160  137.8640 S   0  0  0  0  0  0  0  0  0  0  0  0
  191.3810  174.0220  137.5250 N   0  0  0  0  0  1  0  0  0  0  0  0
  1 14  1  0  0  0  0
  1  9  1  0  0  0  0
  2  5  1  0  0  0  0
  2  3  1  0  0  0  0
  3  7  1  0  0  0  0
  5 14  1  6  0  0  0
  6  1  2  0  0  0  0
  7  4  1  0  0  0  0
  8 21  1  6  0  0  0
  8 12  1  0  0  0  0
  8 13  1  0  0  0  0
 10 19  1  0  0  0  0
 11  4  1  0  0  0  0
 13  2  2  0  0  0  0
 16 12  1  6  0  0  0
 16 17  1  0  0  0  0
 16  5  1  0  0  0  0
 17  6  1  0  0  0  0
 18 13  1  0  0  0  0
 18 10  2  0  0  0  0
 19  3  2  0  0  0  0
 19 20  1  0  0  0  0
 20 15  1  6  0  0  0
 20 11  1  0  0  0  0
 22 21  1  0  0  0  0
 24 25  1  0  0  0  0
 25 23  1  0  0  0  0
 25 22  1  0  0  0  0
 27 26  1  1  0  0  0
 27 25  1  0  0  0  0
 27 28  1  0  0  0  0
 29 28  1  0  0  0  0
 30 29  2  0  0  0  0
 31 29  1  0  0  0  0
M  END
>  <MODEL>
1

>  <REMARK>
 VINA RESULT:      -8.3      0.000      0.000
  Name = 
  6 active torsions:
  status: ('A' for Active; 'I' for Inactive)
    1  A    between atoms: C_1  and  N_24
    2  A    between atoms: N_9  and  C_22
    3  A    between atoms: N_9  and  C_23
    4  A    between atoms: C_15  and  C_23
    5  A    between atoms: C_19  and  C_22
    6  A    between atoms: C_19  and  N_24
                            x       y       z     vdW  Elec       q    Type
                         _______ _______ _______ _____ _____    ______ ____

>  <TORSDO>
F 6

$$$$
=
 OpenBabel10262419413D

 31 34  0  0  1  0  0  0  0  0999 V2000
  191.2710  177.7630  144.5240 C   0  0  0  0  0  0  0  0  0  0  0  0
  187.5660  177.5790  143.5440 C   0  0  0  0  0  0  0  0  0  0  0  0
  186.5880  177.9140  144.5010 C   0  0  0  0  0  0  0  0  0  0  0  0
  185.5690  177.7950  146.7900 C   0  0  0  0  0  2  0  0  0  0  0  0
  188.8950  177.0210  143.9890 C   0  0  2  0  0  3  0  0  0  0  0  0
  191.7410  176.6270  144.0040 C   0  0  0  0  0  3  0  0  0  0  0  0
  186.8560  177.7280  145.9740 C   0  0  0  0  0  2  0  0  0  0  0  0
  188.2780  177.3710  141.0830 C   0  0  1  0  0  3  0  0  0  0  0  0
  192.1560  178.6340  145.1430 O   0  0  0  0  0  1  0  0  0  0  0  0
  185.1370  178.6460  142.7410 N   0  0  0  0  0  0  0  0  0  0  0  0
  184.8170  178.9860  146.4120 N   0  0  0  0  0  2  0  0  0  0  0  0
  189.6510  176.9510  141.6080 C   0  0  0  0  0  2  0  0  0  0  0  0
  187.3080  177.8080  142.1710 C   0  0  0  0  0  0  0  0  0  0  0  0
  189.8280  178.1720  144.3970 C   0  0  0  0  0  2  0  0  0  0  0  0
  183.5360  179.9670  144.6670 N   0  0  0  0  0  1  0  0  0  0  0  0
  189.5160  176.1510  142.8950 C   0  0  1  0  0  3  0  0  0  0  0  0
  190.8630  175.5930  143.3540 C   0  0  0  0  0  2  0  0  0  0  0  0
  186.0600  178.3240  141.8020 C   0  0  0  0  0  3  0  0  0  0  0  0
  185.3740  178.4850  144.0700 C   0  0  0  0  0  0  0  0  0  0  0  0
  184.2780  178.7830  145.0670 C   0  0  1  0  0  3  0  0  0  0  0  0
  188.4860  178.4550  140.0360 C   0  0  0  0  0  2  0  0  0  0  0  0
  189.6010  178.1010  139.1600 N   0  0  0  0  0  2  0  0  0  0  0  0
  188.8930  179.1150  137.0820 C   0  0  0  0  0  1  0  0  0  0  0  0
  190.2220  177.0510  137.0300 C   0  0  0  0  0  1  0  0  0  0  0  0
  189.1390  177.7970  137.7990 C   0  0  0  0  0  0  0  0  0  0  0  0
  188.0460  175.6910  137.2860 O   0  0  0  0  0  1  0  0  0  0  0  0
  187.8410  176.9650  137.8260 C   0  0  2  0  0  3  0  0  0  0  0  0
  186.7720  177.6430  137.1020 N   0  0  0  0  0  2  0  0  0  0  0  0
  185.4750  177.8470  137.6650 C   0  0  0  0  0  0  0  0  0  0  0  0
  184.2600  176.8280  137.2810 S   0  0  0  0  0  0  0  0  0  0  0  0
  185.2220  178.9520  138.5290 N   0  0  0  0  0  1  0  0  0  0  0  0
  1  9  1  0  0  0  0
  2  5  1  0  0  0  0
  2  3  1  0  0  0  0
  3  7  1  0  0  0  0
  5 14  1  6  0  0  0
  6  1  2  0  0  0  0
  7  4  1  0  0  0  0
  8 21  1  6  0  0  0
  8 12  1  0  0  0  0
  8 13  1  0  0  0  0
 10 19  1  0  0  0  0
 11  4  1  0  0  0  0
 13  2  2  0  0  0  0
 14  1  1  0  0  0  0
 16 12  1  6  0  0  0
 16 17  1  0  0  0  0
 16  5  1  0  0  0  0
 17  6  1  0  0  0  0
 18 13  1  0  0  0  0
 18 10  2  0  0  0  0
 19  3  2  0  0  0  0
 19 20  1  0  0  0  0
 20 15  1  6  0  0  0
 20 11  1  0  0  0  0
 22 21  1  0  0  0  0
 23 25  1  0  0  0  0
 24 25  1  0  0  0  0
 25 27  1  0  0  0  0
 25 22  1  0  0  0  0
 27 26  1  6  0  0  0
 28 29  1  0  0  0  0
 28 27  1  0  0  0  0
 29 31  1  0  0  0  0
 30 29  2  0  0  0  0
M  END
>  <MODEL>
2

>  <REMARK>
 VINA RESULT:      -8.2      1.912      2.575
  Name = 
  6 active torsions:
  status: ('A' for Active; 'I' for Inactive)
    1  A    between atoms: C_1  and  N_24
    2  A    between atoms: N_9  and  C_22
    3  A    between atoms: N_9  and  C_23
    4  A    between atoms: C_15  and  C_23
    5  A    between atoms: C_19  and  C_22
    6  A    between atoms: C_19  and  N_24
                            x       y       z     vdW  Elec       q    Type
                         _______ _______ _______ _____ _____    ______ ____

>  <TORSDO>
F 6

$$$$
=
 OpenBabel10262419413D

 31 34  0  0  1  0  0  0  0  0999 V2000
  186.0950  179.4450  146.9660 C   0  0  0  0  0  0  0  0  0  0  0  0
  185.1710  178.2410  143.4430 C   0  0  0  0  0  0  0  0  0  0  0  0
  183.9030  178.5630  142.9210 C   0  0  0  0  0  0  0  0  0  0  0  0
  181.4060  178.7490  143.0710 C   0  0  0  0  0  2  0  0  0  0  0  0
  185.3590  178.1020  144.9330 C   0  0  2  0  0  3  0  0  0  0  0  0
  186.6600  178.3500  147.4820 C   0  0  0  0  0  3  0  0  0  0  0  0
  182.7250  178.7810  143.8380 C   0  0  0  0  0  2  0  0  0  0  0  0
  187.6400  177.6390  143.0540 C   0  0  1  0  0  3  0  0  0  0  0  0
  186.0630  180.6050  147.7270 O   0  0  0  0  0  1  0  0  0  0  0  0
  184.8240  178.5430  140.7090 N   0  0  0  0  0  0  0  0  0  0  0  0
  181.4980  179.6310  141.9130 N   0  0  0  0  0  2  0  0  0  0  0  0
  187.7920  177.6590  144.5750 C   0  0  0  0  0  2  0  0  0  0  0  0
  186.2720  178.0900  142.5640 C   0  0  0  0  0  0  0  0  0  0  0  0
  185.5610  179.4900  145.5600 C   0  0  0  0  0  2  0  0  0  0  0  0
  182.5120  179.8860  139.7780 N   0  0  0  0  0  1  0  0  0  0  0  0
  186.5230  177.1620  145.2520 C   0  0  1  0  0  3  0  0  0  0  0  0
  186.7070  177.0300  146.7640 C   0  0  0  0  0  2  0  0  0  0  0  0
  186.0520  178.2240  141.1890 C   0  0  0  0  0  3  0  0  0  0  0  0
  183.7600  178.7440  141.5300 C   0  0  0  0  0  0  0  0  0  0  0  0
  182.3970  179.0150  140.9360 C   0  0  1  0  0  3  0  0  0  0  0  0
  188.7620  178.4750  142.4570 C   0  0  0  0  0  2  0  0  0  0  0  0
  189.7060  177.6150  141.7460 N   0  0  0  0  0  2  0  0  0  0  0  0
  192.0920  177.6950  141.3630 C   0  0  0  0  0  1  0  0  0  0  0  0
  191.1510  178.7640  143.3640 C   0  0  0  0  0  1  0  0  0  0  0  0
  191.0080  177.5730  142.4230 C   0  0  0  0  0  0  0  0  0  0  0  0
  190.2330  175.3080  142.8250 O   0  0  0  0  0  1  0  0  0  0  0  0
  191.1860  176.2570  143.2060 C   0  0  2  0  0  3  0  0  0  0  0  0
  191.1050  176.4910  144.6440 N   0  0  0  0  0  2  0  0  0  0  0  0
  191.8060  175.6860  145.5920 C   0  0  0  0  0  0  0  0  0  0  0  0
  191.8690  176.1520  147.1540 S   0  0  0  0  0  0  0  0  0  0  0  0
  192.4830  174.5010  145.1820 N   0  0  0  0  0  1  0  0  0  0  0  0
  1  6  2  0  0  0  0
  1  9  1  0  0  0  0
  2  5  1  0  0  0  0
  3  2  1  0  0  0  0
  3  7  1  0  0  0  0
  4  7  1  0  0  0  0
  5 16  1  0  0  0  0
  5 14  1  6  0  0  0
  8 21  1  6  0  0  0
  8 12  1  0  0  0  0
 10 18  2  0  0  0  0
 10 19  1  0  0  0  0
 11  4  1  0  0  0  0
 13  8  1  0  0  0  0
 13  2  2  0  0  0  0
 14  1  1  0  0  0  0
 16 12  1  6  0  0  0
 16 17  1  0  0  0  0
 17  6  1  0  0  0  0
 18 13  1  0  0  0  0
 19  3  2  0  0  0  0
 20 15  1  6  0  0  0
 20 19  1  0  0  0  0
 20 11  1  0  0  0  0
 22 25  1  0  0  0  0
 22 21  1  0  0  0  0
 23 25  1  0  0  0  0
 25 27  1  0  0  0  0
 25 24  1  0  0  0  0
 27 26  1  6  0  0  0
 27 28  1  0  0  0  0
 28 29  1  0  0  0  0
 29 30  2  0  0  0  0
 31 29  1  0  0  0  0
M  END
>  <MODEL>
3

>  <REMARK>
 VINA RESULT:      -7.6      3.558      5.375
  Name = 
  6 active torsions:
  status: ('A' for Active; 'I' for Inactive)
    1  A    between atoms: C_1  and  N_24
    2  A    between atoms: N_9  and  C_22
    3  A    between atoms: N_9  and  C_23
    4  A    between atoms: C_15  and  C_23
    5  A    between atoms: C_19  and  C_22
    6  A    between atoms: C_19  and  N_24
                            x       y       z     vdW  Elec       q    Type
                         _______ _______ _______ _____ _____    ______ ____

>  <TORSDO>
F 6

$$$$
=
 OpenBabel10262419413D

 31 34  0  0  1  0  0  0  0  0999 V2000
  191.1980  177.7560  144.4340 C   0  0  0  0  0  0  0  0  0  0  0  0
  187.5240  177.6230  143.3400 C   0  0  0  0  0  0  0  0  0  0  0  0
  186.5210  177.9620  144.2690 C   0  0  0  0  0  0  0  0  0  0  0  0
  185.4300  177.8380  146.5240 C   0  0  0  0  0  2  0  0  0  0  0  0
  188.8320  177.0460  143.8200 C   0  0  2  0  0  3  0  0  0  0  0  0
  191.6710  176.6170  143.9190 C   0  0  0  0  0  3  0  0  0  0  0  0
  186.7420  177.7620  145.7480 C   0  0  0  0  0  2  0  0  0  0  0  0
  188.3090  177.4240  140.9000 C   0  0  1  0  0  3  0  0  0  0  0  0
  192.0750  178.6120  145.0870 O   0  0  0  0  0  1  0  0  0  0  0  0
  185.1330  178.7240  142.4710 N   0  0  0  0  0  0  0  0  0  0  0  0
  184.7040  179.0410  146.1330 N   0  0  0  0  0  2  0  0  0  0  0  0
  189.6600  176.9850  141.4630 C   0  0  0  0  0  2  0  0  0  0  0  0
  187.3110  177.8650  141.9600 C   0  0  0  0  0  0  0  0  0  0  0  0
  189.7650  178.1820  144.2660 C   0  0  0  0  0  2  0  0  0  0  0  0
  183.4890  180.0500  144.3570 N   0  0  0  0  0  1  0  0  0  0  0  0
  189.4770  176.1760  142.7390 C   0  0  1  0  0  3  0  0  0  0  0  0
  190.8020  175.5990  143.2350 C   0  0  0  0  0  2  0  0  0  0  0  0
  186.0810  178.3980  141.5580 C   0  0  0  0  0  3  0  0  0  0  0  0
  185.3270  178.5510  143.8050 C   0  0  0  0  0  0  0  0  0  0  0  0
  184.2050  178.8540  144.7700 C   0  0  1  0  0  3  0  0  0  0  0  0
  188.5610  178.5130  139.8680 C   0  0  0  0  0  2  0  0  0  0  0  0
  189.4970  178.0360  138.8510 N   0  0  0  0  0  2  0  0  0  0  0  0
  187.3560  177.8770  137.7380 C   0  0  0  0  0  1  0  0  0  0  0  0
  189.4200  177.7880  136.4110 C   0  0  0  0  0  1  0  0  0  0  0  0
  188.7940  177.3830  137.7400 C   0  0  0  0  0  0  0  0  0  0  0  0
  190.1250  175.3810  138.0810 O   0  0  0  0  0  1  0  0  0  0  0  0
  188.8210  175.8490  137.8900 C   0  0  2  0  0  3  0  0  0  0  0  0
  188.2280  175.2000  136.7260 N   0  0  0  0  0  2  0  0  0  0  0  0
  187.2860  174.1330  136.8410 C   0  0  0  0  0  0  0  0  0  0  0  0
  185.6890  174.4680  136.8780 S   0  0  0  0  0  0  0  0  0  0  0  0
  187.7250  172.7830  136.9600 N   0  0  0  0  0  1  0  0  0  0  0  0
  1  9  1  0  0  0  0
  2  5  1  0  0  0  0
  2  3  1  0  0  0  0
  3  7  1  0  0  0  0
  5 14  1  6  0  0  0
  6  1  2  0  0  0  0
  7  4  1  0  0  0  0
  8 21  1  6  0  0  0
  8 12  1  0  0  0  0
  8 13  1  0  0  0  0
 10 19  1  0  0  0  0
 11  4  1  0  0  0  0
 13  2  2  0  0  0  0
 14  1  1  0  0  0  0
 16 12  1  6  0  0  0
 16 17  1  0  0  0  0
 16  5  1  0  0  0  0
 17  6  1  0  0  0  0
 18 13  1  0  0  0  0
 18 10  2  0  0  0  0
 19  3  2  0  0  0  0
 19 20  1  0  0  0  0
 20 15  1  6  0  0  0
 20 11  1  0  0  0  0
 22 21  1  0  0  0  0
 23 25  1  0  0  0  0
 24 25  1  0  0  0  0
 25 27  1  0  0  0  0
 25 22  1  0  0  0  0
 27 26  1  6  0  0  0
 28 29  1  0  0  0  0
 28 27  1  0  0  0  0
 29 30  2  0  0  0  0
 29 31  1  0  0  0  0
M  END
>  <MODEL>
4

>  <REMARK>
 VINA RESULT:      -7.6      1.816      1.902
  Name = 
  6 active torsions:
  status: ('A' for Active; 'I' for Inactive)
    1  A    between atoms: C_1  and  N_24
    2  A    between atoms: N_9  and  C_22
    3  A    between atoms: N_9  and  C_23
    4  A    between atoms: C_15  and  C_23
    5  A    between atoms: C_19  and  C_22
    6  A    between atoms: C_19  and  N_24
                            x       y       z     vdW  Elec       q    Type
                         _______ _______ _______ _____ _____    ______ ____

>  <TORSDO>
F 6

$$$$
=
 OpenBabel10262419413D

 31 34  0  0  1  0  0  0  0  0999 V2000
  187.7410  176.0610  136.1730 C   0  0  0  0  0  0  0  0  0  0  0  0
  186.9970  178.2590  139.2280 C   0  0  0  0  0  0  0  0  0  0  0  0
  185.6590  178.5760  139.5330 C   0  0  0  0  0  0  0  0  0  0  0  0
  183.3500  179.3470  138.9250 C   0  0  0  0  0  2  0  0  0  0  0  0
  187.4000  177.9890  137.8000 C   0  0  2  0  0  3  0  0  0  0  0  0
  188.7690  176.7110  135.6210 C   0  0  0  0  0  3  0  0  0  0  0  0
  184.6150  178.6400  138.4450 C   0  0  0  0  0  2  0  0  0  0  0  0
  189.4260  177.9230  140.0000 C   0  0  1  0  0  3  0  0  0  0  0  0
  187.3160  174.8700  135.6020 O   0  0  0  0  0  1  0  0  0  0  0  0
  186.2350  178.7140  141.8540 N   0  0  0  0  0  0  0  0  0  0  0  0
  182.9270  178.7710  140.1970 N   0  0  0  0  0  2  0  0  0  0  0  0
  189.7340  177.5180  138.5590 C   0  0  0  0  0  2  0  0  0  0  0  0
  187.9470  178.1570  140.2730 C   0  0  0  0  0  0  0  0  0  0  0  0
  187.0750  176.5320  137.4380 C   0  0  0  0  0  2  0  0  0  0  0  0
  183.4810  178.6100  142.5020 N   0  0  0  0  0  1  0  0  0  0  0  0
  188.8800  178.3100  137.5790 C   0  0  1  0  0  3  0  0  0  0  0  0
  189.2790  178.0300  136.1310 C   0  0  0  0  0  2  0  0  0  0  0  0
  187.5310  178.4190  141.5830 C   0  0  0  0  0  3  0  0  0  0  0  0
  185.2890  178.7700  140.8790 C   0  0  0  0  0  0  0  0  0  0  0  0
  183.8790  179.1850  141.2280 C   0  0  1  0  0  3  0  0  0  0  0  0
  190.0160  176.8680  140.9220 C   0  0  0  0  0  2  0  0  0  0  0  0
  190.8390  177.5020  141.9510 N   0  0  0  0  0  2  0  0  0  0  0  0
  189.4090  175.9570  143.1400 C   0  0  0  0  0  1  0  0  0  0  0  0
  191.7030  176.3350  143.9290 C   0  0  0  0  0  1  0  0  0  0  0  0
  190.4950  177.0100  143.2910 C   0  0  0  0  0  0  0  0  0  0  0  0
  190.7840  179.3000  144.0450 O   0  0  0  0  0  1  0  0  0  0  0  0
  189.9930  178.1560  144.1920 C   0  0  2  0  0  3  0  0  0  0  0  0
  189.9690  177.7470  145.5920 N   0  0  0  0  0  2  0  0  0  0  0  0
  188.7670  177.7170  146.3610 C   0  0  0  0  0  0  0  0  0  0  0  0
  188.8530  177.6780  147.9900 S   0  0  0  0  0  0  0  0  0  0  0  0
  187.4940  177.6840  145.7220 N   0  0  0  0  0  1  0  0  0  0  0  0
  1 14  1  0  0  0  0
  2  3  2  0  0  0  0
  2 13  1  0  0  0  0
  3 19  1  0  0  0  0
  4 11  1  0  0  0  0
  5 14  1  1  0  0  0
  5  2  1  0  0  0  0
  6 17  1  0  0  0  0
  6  1  2  0  0  0  0
  7  4  1  0  0  0  0
  7  3  1  0  0  0  0
  8 13  1  0  0  0  0
  8 21  1  1  0  0  0
  9  1  1  0  0  0  0
 11 20  1  0  0  0  0
 12  8  1  0  0  0  0
 13 18  2  0  0  0  0
 16 17  1  6  0  0  0
 16  5  1  0  0  0  0
 16 12  1  0  0  0  0
 18 10  1  0  0  0  0
 19 20  1  0  0  0  0
 19 10  2  0  0  0  0
 20 15  1  1  0  0  0
 21 22  1  0  0  0  0
 22 25  1  0  0  0  0
 23 25  1  0  0  0  0
 25 24  1  0  0  0  0
 25 27  1  0  0  0  0
 27 26  1  1  0  0  0
 27 28  1  0  0  0  0
 28 29  1  0  0  0  0
 29 30  2  0  0  0  0
 31 29  1  0  0  0  0
M  END
>  <MODEL>
5

>  <REMARK>
 VINA RESULT:      -7.5      3.011      6.791
  Name = 
  6 active torsions:
  status: ('A' for Active; 'I' for Inactive)
    1  A    between atoms: C_1  and  N_24
    2  A    between atoms: N_9  and  C_22
    3  A    between atoms: N_9  and  C_23
    4  A    between atoms: C_15  and  C_23
    5  A    between atoms: C_19  and  C_22
    6  A    between atoms: C_19  and  N_24
                            x       y       z     vdW  Elec       q    Type
                         _______ _______ _______ _____ _____    ______ ____

>  <TORSDO>
F 6

$$$$
=
 OpenBabel10262419413D

 31 34  0  0  1  0  0  0  0  0999 V2000
  186.0510  179.4010  146.9520 C   0  0  0  0  0  0  0  0  0  0  0  0
  184.8230  178.2420  143.5070 C   0  0  0  0  0  0  0  0  0  0  0  0
  183.5000  178.5330  143.1190 C   0  0  0  0  0  0  0  0  0  0  0  0
  181.0260  178.6310  143.5170 C   0  0  0  0  0  2  0  0  0  0  0  0
  185.1610  178.0770  144.9680 C   0  0  2  0  0  3  0  0  0  0  0  0
  186.6980  178.3140  147.3830 C   0  0  0  0  0  3  0  0  0  0  0  0
  182.4120  178.6910  144.1520 C   0  0  0  0  0  2  0  0  0  0  0  0
  187.2590  177.7320  142.8640 C   0  0  1  0  0  3  0  0  0  0  0  0
  186.0580  180.5420  147.7410 O   0  0  0  0  0  1  0  0  0  0  0  0
  184.1990  178.5910  140.8280 N   0  0  0  0  0  0  0  0  0  0  0  0
  180.9750  179.5400  142.3770 N   0  0  0  0  0  2  0  0  0  0  0  0
  187.5600  177.7240  144.3630 C   0  0  0  0  0  2  0  0  0  0  0  0
  185.8360  178.1470  142.5220 C   0  0  0  0  0  0  0  0  0  0  0  0
  185.3800  179.4580  145.6060 C   0  0  0  0  0  2  0  0  0  0  0  0
  181.7660  179.8750  140.1610 N   0  0  0  0  0  1  0  0  0  0  0  0
  186.3800  177.1710  145.1480 C   0  0  1  0  0  3  0  0  0  0  0  0
  186.7150  177.0130  146.6310 C   0  0  0  0  0  2  0  0  0  0  0  0
  185.4780  178.3030  141.1780 C   0  0  0  0  0  3  0  0  0  0  0  0
  183.2150  178.7380  141.7540 C   0  0  0  0  0  0  0  0  0  0  0  0
  181.7920  178.9750  141.3020 C   0  0  1  0  0  3  0  0  0  0  0  0
  188.2910  178.6170  142.1820 C   0  0  0  0  0  2  0  0  0  0  0  0
  188.9930  177.8640  141.1440 N   0  0  0  0  0  2  0  0  0  0  0  0
  190.8410  178.3390  142.6280 C   0  0  0  0  0  1  0  0  0  0  0  0
  190.0480  176.0280  142.3850 C   0  0  0  0  0  1  0  0  0  0  0  0
  190.2710  177.3370  141.6370 C   0  0  0  0  0  0  0  0  0  0  0  0
  192.4290  177.8760  140.6640 O   0  0  0  0  0  1  0  0  0  0  0  0
  191.2670  177.1210  140.4800 C   0  0  2  0  0  3  0  0  0  0  0  0
  190.6570  177.4550  139.1980 N   0  0  0  0  0  2  0  0  0  0  0  0
  190.4770  176.4910  138.1600 C   0  0  0  0  0  0  0  0  0  0  0  0
  189.6960  176.9160  136.7920 S   0  0  0  0  0  0  0  0  0  0  0  0
  190.9380  175.1530  138.3210 N   0  0  0  0  0  1  0  0  0  0  0  0
  1  6  2  0  0  0  0
  1  9  1  0  0  0  0
  2  5  1  0  0  0  0
  3  2  1  0  0  0  0
  3  7  1  0  0  0  0
  4  7  1  0  0  0  0
  5 16  1  0  0  0  0
  5 14  1  6  0  0  0
  8 21  1  6  0  0  0
  8 12  1  0  0  0  0
 10 18  2  0  0  0  0
 10 19  1  0  0  0  0
 11  4  1  0  0  0  0
 13  8  1  0  0  0  0
 13  2  2  0  0  0  0
 14  1  1  0  0  0  0
 16 12  1  6  0  0  0
 16 17  1  0  0  0  0
 17  6  1  0  0  0  0
 18 13  1  0  0  0  0
 19  3  2  0  0  0  0
 20 15  1  6  0  0  0
 20 19  1  0  0  0  0
 20 11  1  0  0  0  0
 22 25  1  0  0  0  0
 22 21  1  0  0  0  0
 25 24  1  0  0  0  0
 25 23  1  0  0  0  0
 27 26  1  1  0  0  0
 27 25  1  0  0  0  0
 28 27  1  0  0  0  0
 29 31  1  0  0  0  0
 29 28  1  0  0  0  0
 30 29  2  0  0  0  0
M  END
>  <MODEL>
6

>  <REMARK>
 VINA RESULT:      -7.4      2.628      4.500
  Name = 
  6 active torsions:
  status: ('A' for Active; 'I' for Inactive)
    1  A    between atoms: C_1  and  N_24
    2  A    between atoms: N_9  and  C_22
    3  A    between atoms: N_9  and  C_23
    4  A    between atoms: C_15  and  C_23
    5  A    between atoms: C_19  and  C_22
    6  A    between atoms: C_19  and  N_24
                            x       y       z     vdW  Elec       q    Type
                         _______ _______ _______ _____ _____    ______ ____

>  <TORSDO>
F 6

$$$$
=
 OpenBabel10262419413D

 31 34  0  0  1  0  0  0  0  0999 V2000
  180.5850  177.5380  139.9370 C   0  0  0  0  0  0  0  0  0  0  0  0
  183.9300  178.8430  141.2890 C   0  0  0  0  0  0  0  0  0  0  0  0
  184.1950  178.7440  142.6690 C   0  0  0  0  0  0  0  0  0  0  0  0
  183.5820  179.0040  145.0870 C   0  0  0  0  0  2  0  0  0  0  0  0
  182.5070  178.9650  140.8030 C   0  0  2  0  0  3  0  0  0  0  0  0
  180.2310  178.5220  139.1060 C   0  0  0  0  0  3  0  0  0  0  0  0
  183.0690  178.7490  143.6720 C   0  0  0  0  0  2  0  0  0  0  0  0
  184.7910  178.9950  138.8720 C   0  0  1  0  0  3  0  0  0  0  0  0
  179.7800  176.4110  140.0240 O   0  0  0  0  0  1  0  0  0  0  0  0
  186.5370  178.5740  142.1910 N   0  0  0  0  0  0  0  0  0  0  0  0
  184.6960  178.1060  145.3670 N   0  0  0  0  0  2  0  0  0  0  0  0
  183.3250  178.9670  138.4410 C   0  0  0  0  0  2  0  0  0  0  0  0
  185.0010  178.7870  140.3640 C   0  0  0  0  0  0  0  0  0  0  0  0
  181.8660  177.5710  140.7270 C   0  0  0  0  0  2  0  0  0  0  0  0
  186.9670  177.6500  144.8320 N   0  0  0  0  0  1  0  0  0  0  0  0
  182.4500  179.6880  139.4560 C   0  0  1  0  0  3  0  0  0  0  0  0
  181.0050  179.8040  138.9710 C   0  0  0  0  0  2  0  0  0  0  0  0
  186.3060  178.6770  140.8590 C   0  0  0  0  0  3  0  0  0  0  0  0
  185.5270  178.5750  143.1000 C   0  0  0  0  0  0  0  0  0  0  0  0
  185.8480  178.5420  144.5770 C   0  0  1  0  0  3  0  0  0  0  0  0
  185.5460  177.9670  138.0420 C   0  0  0  0  0  2  0  0  0  0  0  0
  186.6670  178.6020  137.3520 N   0  0  0  0  0  2  0  0  0  0  0  0
  187.2890  176.2670  137.4170 C   0  0  0  0  0  1  0  0  0  0  0  0
  188.3900  177.7690  135.8160 C   0  0  0  0  0  1  0  0  0  0  0  0
  187.8050  177.6840  137.2210 C   0  0  0  0  0  0  0  0  0  0  0  0
  189.0310  179.3730  138.4610 O   0  0  0  0  0  1  0  0  0  0  0  0
  188.8940  177.9950  138.2660 C   0  0  2  0  0  3  0  0  0  0  0  0
  190.1760  177.4210  137.8710 N   0  0  0  0  0  2  0  0  0  0  0  0
  190.9200  176.5490  138.7220 C   0  0  0  0  0  0  0  0  0  0  0  0
  191.5520  177.1230  140.1110 S   0  0  0  0  0  0  0  0  0  0  0  0
  191.1470  175.1910  138.3520 N   0  0  0  0  0  1  0  0  0  0  0  0
  1  9  1  0  0  0  0
  1 14  1  0  0  0  0
  2  3  1  0  0  0  0
  3 19  2  0  0  0  0
  3  7  1  0  0  0  0
  4 11  1  0  0  0  0
  5 14  1  6  0  0  0
  5  2  1  0  0  0  0
  6  1  2  0  0  0  0
  7  4  1  0  0  0  0
  8 21  1  6  0  0  0
  8 13  1  0  0  0  0
 10 19  1  0  0  0  0
 12  8  1  0  0  0  0
 13 18  1  0  0  0  0
 13  2  2  0  0  0  0
 16 12  1  6  0  0  0
 16  5  1  0  0  0  0
 17  6  1  0  0  0  0
 17 16  1  0  0  0  0
 18 10  2  0  0  0  0
 19 20  1  0  0  0  0
 20 15  1  6  0  0  0
 20 11  1  0  0  0  0
 22 21  1  0  0  0  0
 24 25  1  0  0  0  0
 25 22  1  0  0  0  0
 25 23  1  0  0  0  0
 25 27  1  0  0  0  0
 27 26  1  6  0  0  0
 28 27  1  0  0  0  0
 28 29  1  0  0  0  0
 29 30  2  0  0  0  0
 31 29  1  0  0  0  0
M  END
>  <MODEL>
7

>  <REMARK>
 VINA RESULT:      -7.0      3.380      5.923
  Name = 
  6 active torsions:
  status: ('A' for Active; 'I' for Inactive)
    1  A    between atoms: C_1  and  N_24
    2  A    between atoms: N_9  and  C_22
    3  A    between atoms: N_9  and  C_23
    4  A    between atoms: C_15  and  C_23
    5  A    between atoms: C_19  and  C_22
    6  A    between atoms: C_19  and  N_24
                            x       y       z     vdW  Elec       q    Type
                         _______ _______ _______ _____ _____    ______ ____

>  <TORSDO>
F 6

$$$$
=
 OpenBabel10262419413D

 31 34  0  0  1  0  0  0  0  0999 V2000
  189.8130  174.8190  137.3920 C   0  0  0  0  0  0  0  0  0  0  0  0
  187.0440  177.4360  137.8370 C   0  0  0  0  0  0  0  0  0  0  0  0
  185.8640  177.3190  137.0770 C   0  0  0  0  0  0  0  0  0  0  0  0
  184.6150  176.9560  134.9320 C   0  0  0  0  0  2  0  0  0  0  0  0
  188.3440  176.8960  137.2970 C   0  0  2  0  0  3  0  0  0  0  0  0
  190.9030  175.5900  137.3430 C   0  0  0  0  0  3  0  0  0  0  0  0
  185.8820  176.6490  135.7250 C   0  0  0  0  0  2  0  0  0  0  0  0
  188.2450  178.2760  139.9490 C   0  0  1  0  0  3  0  0  0  0  0  0
  189.9650  173.4400  137.3460 O   0  0  0  0  0  1  0  0  0  0  0  0
  184.6390  178.3850  138.8380 N   0  0  0  0  0  0  0  0  0  0  0  0
  183.4470  176.6990  135.7680 N   0  0  0  0  0  2  0  0  0  0  0  0
  189.4930  177.5790  139.4090 C   0  0  0  0  0  2  0  0  0  0  0  0
  186.9910  178.0250  139.1240 C   0  0  0  0  0  0  0  0  0  0  0  0
  188.4310  175.3870  137.5730 C   0  0  0  0  0  2  0  0  0  0  0  0
  182.2310  177.4900  137.6500 N   0  0  0  0  0  1  0  0  0  0  0  0
  189.5370  177.6490  137.8900 C   0  0  1  0  0  3  0  0  0  0  0  0
  190.8500  177.0920  137.3390 C   0  0  0  0  0  2  0  0  0  0  0  0
  185.7640  178.5160  139.5840 C   0  0  0  0  0  3  0  0  0  0  0  0
  184.6480  177.7800  137.6210 C   0  0  0  0  0  0  0  0  0  0  0  0
  183.3820  177.7360  136.7980 C   0  0  1  0  0  3  0  0  0  0  0  0
  188.0640  177.8610  141.4010 C   0  0  0  0  0  2  0  0  0  0  0  0
  189.1820  178.3480  142.2070 N   0  0  0  0  0  2  0  0  0  0  0  0
  188.1470  176.9340  143.8720 C   0  0  0  0  0  1  0  0  0  0  0  0
  190.2580  176.2320  142.8330 C   0  0  0  0  0  1  0  0  0  0  0  0
  189.4710  177.4410  143.3250 C   0  0  0  0  0  0  0  0  0  0  0  0
  190.9050  179.3010  143.9440 O   0  0  0  0  0  1  0  0  0  0  0  0
  190.2550  178.1650  144.4380 C   0  0  2  0  0  3  0  0  0  0  0  0
  191.2260  177.2700  145.0580 N   0  0  0  0  0  2  0  0  0  0  0  0
  191.1200  176.8470  146.4180 C   0  0  0  0  0  0  0  0  0  0  0  0
  189.7260  177.0900  147.2310 S   0  0  0  0  0  0  0  0  0  0  0  0
  192.2280  176.2480  147.0830 N   0  0  0  0  0  1  0  0  0  0  0  0
  1 14  1  0  0  0  0
  2 13  1  0  0  0  0
  3 19  1  0  0  0  0
  3  2  2  0  0  0  0
  4  7  1  0  0  0  0
  4 11  1  0  0  0  0
  5 14  1  1  0  0  0
  5  2  1  0  0  0  0
  5 16  1  0  0  0  0
  6  1  2  0  0  0  0
  7  3  1  0  0  0  0
  8 21  1  1  0  0  0
  9  1  1  0  0  0  0
 10 18  1  0  0  0  0
 11 20  1  0  0  0  0
 12  8  1  0  0  0  0
 13 18  2  0  0  0  0
 13  8  1  0  0  0  0
 16 17  1  6  0  0  0
 16 12  1  0  0  0  0
 17  6  1  0  0  0  0
 19 10  2  0  0  0  0
 20 19  1  0  0  0  0
 20 15  1  1  0  0  0
 21 22  1  0  0  0  0
 22 25  1  0  0  0  0
 24 25  1  0  0  0  0
 25 23  1  0  0  0  0
 25 27  1  0  0  0  0
 27 26  1  6  0  0  0
 27 28  1  0  0  0  0
 28 29  1  0  0  0  0
 29 31  1  0  0  0  0
 29 30  2  0  0  0  0
M  END
>  <MODEL>
8

>  <REMARK>
 VINA RESULT:      -6.9      3.564      7.366
  Name = 
  6 active torsions:
  status: ('A' for Active; 'I' for Inactive)
    1  A    between atoms: C_1  and  N_24
    2  A    between atoms: N_9  and  C_22
    3  A    between atoms: N_9  and  C_23
    4  A    between atoms: C_15  and  C_23
    5  A    between atoms: C_19  and  C_22
    6  A    between atoms: C_19  and  N_24
                            x       y       z     vdW  Elec       q    Type
                         _______ _______ _______ _____ _____    ______ ____

>  <TORSDO>
F 6

$$$$
=
 OpenBabel10262419413D

 31 34  0  0  1  0  0  0  0  0999 V2000
  191.1440  176.0040  143.4860 C   0  0  0  0  0  0  0  0  0  0  0  0
  189.7300  177.5750  140.2850 C   0  0  0  0  0  0  0  0  0  0  0  0
  190.1680  177.0940  139.0360 C   0  0  0  0  0  0  0  0  0  0  0  0
  191.9430  176.3780  137.4150 C   0  0  0  0  0  2  0  0  0  0  0  0
  190.6400  177.4940  141.4850 C   0  0  2  0  0  3  0  0  0  0  0  0
  191.3920  177.0870  144.2270 C   0  0  0  0  0  3  0  0  0  0  0  0
  191.5400  176.4860  138.8820 C   0  0  0  0  0  2  0  0  0  0  0  0
  187.9250  178.7280  141.7060 C   0  0  1  0  0  3  0  0  0  0  0  0
  191.3700  174.7490  144.0350 O   0  0  0  0  0  1  0  0  0  0  0  0
  188.0490  177.6790  138.0830 N   0  0  0  0  0  0  0  0  0  0  0  0
  190.8650  175.7440  136.6630 N   0  0  0  0  0  2  0  0  0  0  0  0
  188.8380  178.4810  142.9070 C   0  0  0  0  0  2  0  0  0  0  0  0
  188.4190  178.0960  140.4130 C   0  0  0  0  0  0  0  0  0  0  0  0
  190.5540  176.0910  142.1040 C   0  0  0  0  0  2  0  0  0  0  0  0
  188.6610  176.0700  135.8360 N   0  0  0  0  0  1  0  0  0  0  0  0
  190.3010  178.5840  142.5030 C   0  0  1  0  0  3  0  0  0  0  0  0
  191.2270  178.4910  143.7160 C   0  0  0  0  0  2  0  0  0  0  0  0
  187.6090  178.1570  139.2740 C   0  0  0  0  0  3  0  0  0  0  0  0
  189.2830  177.1280  137.9390 C   0  0  0  0  0  0  0  0  0  0  0  0
  189.7510  176.6880  136.5710 C   0  0  1  0  0  3  0  0  0  0  0  0
  186.5260  178.2540  142.0730 C   0  0  0  0  0  2  0  0  0  0  0  0
  186.4780  177.8720  143.4830 N   0  0  0  0  0  2  0  0  0  0  0  0
  185.6340  180.0670  144.0430 C   0  0  0  0  0  1  0  0  0  0  0  0
  184.0540  178.2520  143.5510 C   0  0  0  0  0  1  0  0  0  0  0  0
  185.4000  178.5720  144.1920 C   0  0  0  0  0  0  0  0  0  0  0  0
  184.2110  178.6500  146.3070 O   0  0  0  0  0  1  0  0  0  0  0  0
  185.3770  178.1910  145.6850 C   0  0  2  0  0  3  0  0  0  0  0  0
  186.5470  178.7210  146.3760 N   0  0  0  0  0  2  0  0  0  0  0  0
  187.5860  177.8800  146.8790 C   0  0  0  0  0  0  0  0  0  0  0  0
  187.9310  177.8890  148.4730 S   0  0  0  0  0  0  0  0  0  0  0  0
  188.3490  177.0600  145.9980 N   0  0  0  0  0  1  0  0  0  0  0  0
  1  9  1  0  0  0  0
  1  6  2  0  0  0  0
  2 13  1  0  0  0  0
  2  5  1  0  0  0  0
  3  2  2  0  0  0  0
  4  7  1  0  0  0  0
  5 14  1  1  0  0  0
  5 16  1  0  0  0  0
  7  3  1  0  0  0  0
  8 21  1  1  0  0  0
  8 12  1  0  0  0  0
 10 18  1  0  0  0  0
 11  4  1  0  0  0  0
 13  8  1  0  0  0  0
 14  1  1  0  0  0  0
 16 12  1  1  0  0  0
 16 17  1  0  0  0  0
 17  6  1  0  0  0  0
 18 13  2  0  0  0  0
 19 10  2  0  0  0  0
 19  3  1  0  0  0  0
 20 15  1  1  0  0  0
 20 11  1  0  0  0  0
 20 19  1  0  0  0  0
 21 22  1  0  0  0  0
 22 25  1  0  0  0  0
 23 25  1  0  0  0  0
 24 25  1  0  0  0  0
 25 27  1  0  0  0  0
 27 26  1  1  0  0  0
 27 28  1  0  0  0  0
 28 29  1  0  0  0  0
 29 30  2  0  0  0  0
 31 29  1  0  0  0  0
M  END
>  <MODEL>
9

>  <REMARK>
 VINA RESULT:      -6.8      3.086      7.262
  Name = 
  6 active torsions:
  status: ('A' for Active; 'I' for Inactive)
    1  A    between atoms: C_1  and  N_24
    2  A    between atoms: N_9  and  C_22
    3  A    between atoms: N_9  and  C_23
    4  A    between atoms: C_15  and  C_23
    5  A    between atoms: C_19  and  C_22
    6  A    between atoms: C_19  and  N_24
                            x       y       z     vdW  Elec       q    Type
                         _______ _______ _______ _____ _____    ______ ____

>  <TORSDO>
F 6

$$$$
