=
 OpenBabel10262423213D

 34 39  0  0  1  0  0  0  0  0999 V2000
  185.7660  178.6720  140.7670 C   0  0  0  0  0  0  0  0  0  0  0  0
  188.8100  178.1000  138.7130 C   0  0  0  0  0  3  0  0  0  0  0  0
  186.5640  178.6220  138.1180 N   0  0  0  0  0  0  0  0  0  0  0  0
  184.2250  178.5850  142.7880 C   0  0  0  0  0  0  0  0  0  0  0  0
  185.4110  178.7560  142.2000 C   0  0  0  0  0  3  0  0  0  0  0  0
  182.6550  178.5040  140.8480 C   0  0  0  0  0  3  0  0  0  0  0  0
  182.7730  180.0600  138.9710 C   0  0  0  0  0  1  0  0  0  0  0  0
  182.9880  178.2000  142.0970 C   0  0  0  0  0  3  0  0  0  0  0  0
  185.2990  178.8910  138.4310 N   0  0  0  0  0  0  0  0  0  0  0  0
  184.8530  178.9230  139.7190 C   0  0  0  0  0  0  0  0  0  0  0  0
  183.4780  179.2600  139.9600 N   0  0  0  0  0  0  0  0  0  0  0  0
  189.7770  177.8500  139.6920 C   0  0  0  0  0  0  0  0  0  0  0  0
  189.4040  177.8780  141.0440 C   0  0  0  0  0  3  0  0  0  0  0  0
  187.4870  178.3740  139.0740 C   0  0  0  0  0  0  0  0  0  0  0  0
  188.0840  178.1510  141.4110 C   0  0  0  0  0  3  0  0  0  0  0  0
  187.1090  178.4020  140.4290 C   0  0  0  0  0  0  0  0  0  0  0  0
  184.1840  178.6340  144.2790 C   0  0  0  0  0  2  0  0  0  0  0  0
  187.1680  178.7370  146.6180 C   0  0  0  0  0  3  0  0  0  0  0  0
  186.4530  177.5760  144.1660 C   0  0  0  0  0  3  0  0  0  0  0  0
  190.2760  176.9060  145.7780 C   0  0  0  0  0  0  0  0  0  0  0  0
  189.3590  177.7150  146.4630 C   0  0  0  0  0  3  0  0  0  0  0  0
  188.0850  177.9370  145.9330 C   0  0  0  0  0  0  0  0  0  0  0  0
  188.6460  176.5610  144.0080 C   0  0  0  0  0  3  0  0  0  0  0  0
  187.7260  177.3530  144.6970 C   0  0  0  0  0  0  0  0  0  0  0  0
  189.9190  176.3410  144.5440 C   0  0  0  0  0  3  0  0  0  0  0  0
  185.5360  178.3740  144.8590 C   0  0  0  0  0  0  0  0  0  0  0  0
  185.8950  178.9560  146.0810 C   0  0  0  0  0  3  0  0  0  0  0  0
  191.6530  176.6960  146.3240 C   0  0  2  0  0  3  0  0  0  0  0  0
  191.6490  175.6570  147.3800 C   0  0  0  0  0  2  0  0  0  0  0  0
  191.6750  177.0270  147.6940 O   0  0  0  0  0  0  0  0  0  0  0  0
  191.0900  177.5800  139.2740 O   0  0  0  0  0  0  0  0  0  0  0  0
  190.8480  175.3510  138.6510 O   0  0  0  0  0  0  0  0  0  0  0  0
  192.8590  176.4070  137.9740 C   0  0  0  0  0  1  0  0  0  0  0  0
  191.5370  176.4050  138.6520 C   0  0  0  0  0  0  0  0  0  0  0  0
  1  5  1  0  0  0  0
  2 14  2  0  0  0  0
  2 12  1  0  0  0  0
  3  9  2  0  0  0  0
  3 14  1  0  0  0  0
  4 17  1  0  0  0  0
  5  4  2  0  0  0  0
  6  8  2  0  0  0  0
  7 11  1  0  0  0  0
  8  4  1  0  0  0  0
  9 10  1  0  0  0  0
 10 11  1  0  0  0  0
 10  1  2  0  0  0  0
 11  6  1  0  0  0  0
 12 13  2  0  0  0  0
 13 15  1  0  0  0  0
 14 16  1  0  0  0  0
 16  1  1  0  0  0  0
 16 15  2  0  0  0  0
 17 26  1  0  0  0  0
 19 24  2  0  0  0  0
 19 26  1  0  0  0  0
 20 21  2  0  0  0  0
 22 21  1  0  0  0  0
 22 18  2  0  0  0  0
 23 25  2  0  0  0  0
 23 24  1  0  0  0  0
 24 22  1  0  0  0  0
 25 20  1  0  0  0  0
 26 27  2  0  0  0  0
 27 18  1  0  0  0  0
 28 20  1  1  0  0  0
 28 29  1  0  0  0  0
 28 30  1  0  0  0  0
 29 30  1  0  0  0  0
 31 12  1  0  0  0  0
 32 34  2  0  0  0  0
 33 34  1  0  0  0  0
 34 31  1  0  0  0  0
M  END
>  <MODEL>
1

>  <REMARK>
 VINA RESULT:     -11.2      0.000      0.000
  Name = 
  5 active torsions:
  status: ('A' for Active; 'I' for Inactive)
    1  A    between atoms: C_7  and  C_11
    2  A    between atoms: C_8  and  C_18
    3  A    between atoms: C_18  and  C_30
    4  A    between atoms: O_23  and  C_24
    5  A    between atoms: O_23  and  C_25
                            x       y       z     vdW  Elec       q    Type
                         _______ _______ _______ _____ _____    ______ ____

>  <TORSDO>
F 5

$$$$
=
 OpenBabel10262423213D

 34 39  0  0  1  0  0  0  0  0999 V2000
  183.5200  178.8980  141.8020 C   0  0  0  0  0  0  0  0  0  0  0  0
  185.2210  178.3680  138.5410 C   0  0  0  0  0  3  0  0  0  0  0  0
  182.9300  178.6860  139.1070 N   0  0  0  0  0  0  0  0  0  0  0  0
  183.1730  178.8720  144.3210 C   0  0  0  0  0  0  0  0  0  0  0  0
  183.9000  179.0740  143.2200 C   0  0  0  0  0  3  0  0  0  0  0  0
  180.8750  178.5280  143.4090 C   0  0  0  0  0  3  0  0  0  0  0  0
  179.9110  179.9290  141.6580 C   0  0  0  0  0  1  0  0  0  0  0  0
  181.8010  178.3490  144.3430 C   0  0  0  0  0  3  0  0  0  0  0  0
  181.9560  178.8930  139.9920 N   0  0  0  0  0  0  0  0  0  0  0  0
  182.1920  179.0000  141.3310 C   0  0  0  0  0  0  0  0  0  0  0  0
  181.0820  179.2620  142.2030 N   0  0  0  0  0  0  0  0  0  0  0  0
  186.5610  178.2640  138.9260 C   0  0  0  0  0  0  0  0  0  0  0  0
  186.8910  178.3770  140.2850 C   0  0  0  0  0  3  0  0  0  0  0  0
  184.2210  178.5800  139.4950 C   0  0  0  0  0  0  0  0  0  0  0  0
  185.8960  178.5890  141.2430 C   0  0  0  0  0  3  0  0  0  0  0  0
  184.5480  178.6930  140.8590 C   0  0  0  0  0  0  0  0  0  0  0  0
  183.8580  179.0400  145.6370 C   0  0  0  0  0  2  0  0  0  0  0  0
  187.0460  177.4370  144.3510 C   0  0  0  0  0  3  0  0  0  0  0  0
  186.0940  178.6480  146.6960 C   0  0  0  0  0  3  0  0  0  0  0  0
  190.0280  177.1760  146.5330 C   0  0  0  0  0  0  0  0  0  0  0  0
  189.1880  177.0570  145.4160 C   0  0  0  0  0  3  0  0  0  0  0  0
  187.8810  177.5490  145.4650 C   0  0  0  0  0  0  0  0  0  0  0  0
  188.2340  178.2600  147.7630 C   0  0  0  0  0  3  0  0  0  0  0  0
  187.4020  178.1580  146.6470 C   0  0  0  0  0  0  0  0  0  0  0  0
  189.5420  177.7670  147.7080 C   0  0  0  0  0  3  0  0  0  0  0  0
  185.2640  178.5390  145.5750 C   0  0  0  0  0  0  0  0  0  0  0  0
  185.7380  177.9310  144.4070 C   0  0  0  0  0  3  0  0  0  0  0  0
  191.4150  176.6180  146.4960 C   0  0  2  0  0  3  0  0  0  0  0  0
  191.5710  175.5270  147.4860 C   0  0  0  0  0  2  0  0  0  0  0  0
  192.0430  176.8250  147.7410 O   0  0  0  0  0  0  0  0  0  0  0  0
  187.5240  178.0500  137.9280 O   0  0  0  0  0  0  0  0  0  0  0  0
  189.0400  179.7720  137.5350 O   0  0  0  0  0  0  0  0  0  0  0  0
  189.9630  177.7300  138.3090 C   0  0  0  0  0  1  0  0  0  0  0  0
  188.8200  178.5860  137.8980 C   0  0  0  0  0  0  0  0  0  0  0  0
  1  5  1  0  0  0  0
  2 12  2  0  0  0  0
  2 14  1  0  0  0  0
  3 14  2  0  0  0  0
  3  9  1  0  0  0  0
  4  8  1  0  0  0  0
  4 17  1  0  0  0  0
  5  4  2  0  0  0  0
  6  8  2  0  0  0  0
  7 11  1  0  0  0  0
  9 10  2  0  0  0  0
 10  1  1  0  0  0  0
 10 11  1  0  0  0  0
 11  6  1  0  0  0  0
 12 13  1  0  0  0  0
 13 15  2  0  0  0  0
 14 16  1  0  0  0  0
 16 15  1  0  0  0  0
 16  1  2  0  0  0  0
 18 27  2  0  0  0  0
 18 22  1  0  0  0  0
 20 25  1  0  0  0  0
 21 22  1  0  0  0  0
 21 20  2  0  0  0  0
 22 24  2  0  0  0  0
 24 19  1  0  0  0  0
 24 23  1  0  0  0  0
 25 23  2  0  0  0  0
 26 17  1  0  0  0  0
 26 19  2  0  0  0  0
 27 26  1  0  0  0  0
 28 20  1  1  0  0  0
 28 29  1  0  0  0  0
 28 30  1  0  0  0  0
 29 30  1  0  0  0  0
 31 12  1  0  0  0  0
 32 34  2  0  0  0  0
 34 31  1  0  0  0  0
 34 33  1  0  0  0  0
M  END
>  <MODEL>
2

>  <REMARK>
 VINA RESULT:     -11.0      1.710      2.801
  Name = 
  5 active torsions:
  status: ('A' for Active; 'I' for Inactive)
    1  A    between atoms: C_7  and  C_11
    2  A    between atoms: C_8  and  C_18
    3  A    between atoms: C_18  and  C_30
    4  A    between atoms: O_23  and  C_24
    5  A    between atoms: O_23  and  C_25
                            x       y       z     vdW  Elec       q    Type
                         _______ _______ _______ _____ _____    ______ ____

>  <TORSDO>
F 5

$$$$
=
 OpenBabel10262423213D

 34 39  0  0  1  0  0  0  0  0999 V2000
  189.3760  177.3180  144.5680 C   0  0  0  0  0  0  0  0  0  0  0  0
  190.9150  177.2650  141.1860 C   0  0  0  0  0  3  0  0  0  0  0  0
  191.8030  176.7970  143.3460 N   0  0  0  0  0  0  0  0  0  0  0  0
  187.7150  177.9030  146.4030 C   0  0  0  0  0  0  0  0  0  0  0  0
  188.0390  177.5380  145.1610 C   0  0  0  0  0  3  0  0  0  0  0  0
  189.8890  177.7170  147.6160 C   0  0  0  0  0  3  0  0  0  0  0  0
  191.4060  175.8230  147.3530 C   0  0  0  0  0  1  0  0  0  0  0  0
  188.6760  178.2330  147.4630 C   0  0  0  0  0  3  0  0  0  0  0  0
  191.6810  176.6840  144.6670 N   0  0  0  0  0  0  0  0  0  0  0  0
  190.5090  176.9340  145.3190 C   0  0  0  0  0  0  0  0  0  0  0  0
  190.4650  176.7470  146.7420 N   0  0  0  0  0  0  0  0  0  0  0  0
  189.8380  177.6300  140.3720 C   0  0  0  0  0  0  0  0  0  0  0  0
  188.5930  177.8910  140.9630 C   0  0  0  0  0  3  0  0  0  0  0  0
  190.7550  177.1600  142.5710 C   0  0  0  0  0  0  0  0  0  0  0  0
  188.4280  177.7890  142.3470 C   0  0  0  0  0  3  0  0  0  0  0  0
  189.5080  177.4220  143.1680 C   0  0  0  0  0  0  0  0  0  0  0  0
  186.2710  178.1470  146.6930 C   0  0  0  0  0  2  0  0  0  0  0  0
  185.3900  178.1990  143.0040 C   0  0  0  0  0  3  0  0  0  0  0  0
  184.1200  178.5650  145.4790 C   0  0  0  0  0  3  0  0  0  0  0  0
  181.9260  178.9270  141.9130 C   0  0  0  0  0  0  0  0  0  0  0  0
  183.2950  178.6290  141.8660 C   0  0  0  0  0  3  0  0  0  0  0  0
  184.0270  178.5030  143.0490 C   0  0  0  0  0  0  0  0  0  0  0  0
  182.0270  179.0020  144.3400 C   0  0  0  0  0  3  0  0  0  0  0  0
  183.3870  178.6890  144.2960 C   0  0  0  0  0  0  0  0  0  0  0  0
  181.3000  179.1260  143.1520 C   0  0  0  0  0  3  0  0  0  0  0  0
  185.4830  178.2530  145.4290 C   0  0  0  0  0  0  0  0  0  0  0  0
  186.1170  178.0750  144.1930 C   0  0  0  0  0  3  0  0  0  0  0  0
  181.1470  179.0990  140.6460 C   0  0  2  0  0  3  0  0  0  0  0  0
  180.4930  177.8300  140.2530 C   0  0  0  0  0  2  0  0  0  0  0  0
  181.6820  178.2650  139.6440 O   0  0  0  0  0  0  0  0  0  0  0  0
  190.0530  177.7210  138.9880 O   0  0  0  0  0  0  0  0  0  0  0  0
  189.0430  179.3790  137.7040 O   0  0  0  0  0  0  0  0  0  0  0  0
  188.2240  177.1770  137.3910 C   0  0  0  0  0  1  0  0  0  0  0  0
  189.1270  178.1660  138.0330 C   0  0  0  0  0  0  0  0  0  0  0  0
  1  5  1  0  0  0  0
  1 10  1  0  0  0  0
  2 14  1  0  0  0  0
  3  9  1  0  0  0  0
  4 17  1  0  0  0  0
  4  8  1  0  0  0  0
  5  4  2  0  0  0  0
  8  6  2  0  0  0  0
  9 10  2  0  0  0  0
 10 11  1  0  0  0  0
 11  7  1  0  0  0  0
 11  6  1  0  0  0  0
 12 13  1  0  0  0  0
 12  2  2  0  0  0  0
 13 15  2  0  0  0  0
 14 16  1  0  0  0  0
 14  3  2  0  0  0  0
 15 16  1  0  0  0  0
 16  1  2  0  0  0  0
 18 22  2  0  0  0  0
 18 27  1  0  0  0  0
 20 25  1  0  0  0  0
 21 20  2  0  0  0  0
 21 22  1  0  0  0  0
 22 24  1  0  0  0  0
 24 23  1  0  0  0  0
 24 19  2  0  0  0  0
 25 23  2  0  0  0  0
 26 19  1  0  0  0  0
 26 17  1  0  0  0  0
 27 26  2  0  0  0  0
 28 20  1  1  0  0  0
 29 28  1  0  0  0  0
 30 29  1  0  0  0  0
 30 28  1  0  0  0  0
 31 12  1  0  0  0  0
 32 34  2  0  0  0  0
 33 34  1  0  0  0  0
 34 31  1  0  0  0  0
M  END
>  <MODEL>
3

>  <REMARK>
 VINA RESULT:     -10.6      3.298      7.014
  Name = 
  5 active torsions:
  status: ('A' for Active; 'I' for Inactive)
    1  A    between atoms: C_7  and  C_11
    2  A    between atoms: C_8  and  C_18
    3  A    between atoms: C_18  and  C_30
    4  A    between atoms: O_23  and  C_24
    5  A    between atoms: O_23  and  C_25
                            x       y       z     vdW  Elec       q    Type
                         _______ _______ _______ _____ _____    ______ ____

>  <TORSDO>
F 5

$$$$
=
 OpenBabel10262423213D

 34 39  0  0  1  0  0  0  0  0999 V2000
  186.9600  178.0380  145.1930 C   0  0  0  0  0  0  0  0  0  0  0  0
  183.3830  178.7290  144.4640 C   0  0  0  0  0  3  0  0  0  0  0  0
  184.5870  178.5690  146.5120 N   0  0  0  0  0  0  0  0  0  0  0  0
  189.3370  177.2160  144.8120 C   0  0  0  0  0  0  0  0  0  0  0  0
  188.2130  177.8290  144.4350 C   0  0  0  0  0  3  0  0  0  0  0  0
  188.9810  176.8720  147.2590 C   0  0  0  0  0  3  0  0  0  0  0  0
  188.0840  178.5990  148.7340 C   0  0  0  0  0  1  0  0  0  0  0  0
  189.5380  176.5410  146.1010 C   0  0  0  0  0  3  0  0  0  0  0  0
  185.7080  178.3770  147.2030 N   0  0  0  0  0  0  0  0  0  0  0  0
  186.9030  178.1080  146.6030 C   0  0  0  0  0  0  0  0  0  0  0  0
  188.0660  177.9540  147.4310 N   0  0  0  0  0  0  0  0  0  0  0  0
  183.3580  178.6860  143.0670 C   0  0  0  0  0  0  0  0  0  0  0  0
  184.5480  178.4280  142.3700 C   0  0  0  0  0  3  0  0  0  0  0  0
  184.5760  178.5170  145.1610 C   0  0  0  0  0  0  0  0  0  0  0  0
  185.7440  178.2160  143.0620 C   0  0  0  0  0  3  0  0  0  0  0  0
  185.7720  178.2580  144.4660 C   0  0  0  0  0  0  0  0  0  0  0  0
  190.4150  177.0680  143.7910 C   0  0  0  0  0  2  0  0  0  0  0  0
  188.4630  178.7350  140.9980 C   0  0  0  0  0  3  0  0  0  0  0  0
  190.3610  176.6930  141.3150 C   0  0  0  0  0  3  0  0  0  0  0  0
  188.8840  177.6200  137.4910 C   0  0  0  0  0  0  0  0  0  0  0  0
  188.4240  178.3280  138.6100 C   0  0  0  0  0  3  0  0  0  0  0  0
  188.9160  178.0260  139.8830 C   0  0  0  0  0  0  0  0  0  0  0  0
  190.3160  176.2810  138.9270 C   0  0  0  0  0  3  0  0  0  0  0  0
  189.8710  176.9960  140.0410 C   0  0  0  0  0  0  0  0  0  0  0  0
  189.8200  176.5890  137.6570 C   0  0  0  0  0  3  0  0  0  0  0  0
  189.9100  177.4100  142.4280 C   0  0  0  0  0  0  0  0  0  0  0  0
  188.9590  178.4260  142.2690 C   0  0  0  0  0  3  0  0  0  0  0  0
  188.3320  177.9170  136.1320 C   0  0  2  0  0  3  0  0  0  0  0  0
  187.1440  177.0780  135.8510 C   0  0  0  0  0  2  0  0  0  0  0  0
  188.4090  176.7620  135.3270 O   0  0  0  0  0  0  0  0  0  0  0  0
  182.1330  178.9050  142.4170 O   0  0  0  0  0  0  0  0  0  0  0  0
  180.4940  180.4540  142.9940 O   0  0  0  0  0  0  0  0  0  0  0  0
  180.1300  178.2310  143.7310 C   0  0  0  0  0  1  0  0  0  0  0  0
  180.9240  179.2700  143.0280 C   0  0  0  0  0  0  0  0  0  0  0  0
  1 10  1  0  0  0  0
  2 14  1  0  0  0  0
  3  9  1  0  0  0  0
  4  8  1  0  0  0  0
  5  4  2  0  0  0  0
  5  1  1  0  0  0  0
  6 11  1  0  0  0  0
  8  6  2  0  0  0  0
 10  9  2  0  0  0  0
 10 11  1  0  0  0  0
 11  7  1  0  0  0  0
 12  2  2  0  0  0  0
 13 15  2  0  0  0  0
 13 12  1  0  0  0  0
 14  3  2  0  0  0  0
 15 16  1  0  0  0  0
 16 14  1  0  0  0  0
 16  1  2  0  0  0  0
 17  4  1  0  0  0  0
 18 27  1  0  0  0  0
 19 26  1  0  0  0  0
 20 25  1  0  0  0  0
 20 21  2  0  0  0  0
 21 22  1  0  0  0  0
 22 24  1  0  0  0  0
 22 18  2  0  0  0  0
 23 24  1  0  0  0  0
 24 19  2  0  0  0  0
 25 23  2  0  0  0  0
 26 17  1  0  0  0  0
 27 26  2  0  0  0  0
 28 20  1  1  0  0  0
 29 28  1  0  0  0  0
 30 29  1  0  0  0  0
 30 28  1  0  0  0  0
 31 34  1  0  0  0  0
 31 12  1  0  0  0  0
 32 34  2  0  0  0  0
 34 33  1  0  0  0  0
M  END
>  <MODEL>
4

>  <REMARK>
 VINA RESULT:     -10.4      3.817      8.181
  Name = 
  5 active torsions:
  status: ('A' for Active; 'I' for Inactive)
    1  A    between atoms: C_7  and  C_11
    2  A    between atoms: C_8  and  C_18
    3  A    between atoms: C_18  and  C_30
    4  A    between atoms: O_23  and  C_24
    5  A    between atoms: O_23  and  C_25
                            x       y       z     vdW  Elec       q    Type
                         _______ _______ _______ _____ _____    ______ ____

>  <TORSDO>
F 5

$$$$
=
 OpenBabel10262423213D

 34 39  0  0  1  0  0  0  0  0999 V2000
  184.6270  178.2530  139.3580 C   0  0  0  0  0  0  0  0  0  0  0  0
  188.0480  177.8070  137.9780 C   0  0  0  0  0  3  0  0  0  0  0  0
  185.8910  177.4780  137.0230 N   0  0  0  0  0  0  0  0  0  0  0  0
  182.7920  178.4900  141.1040 C   0  0  0  0  0  0  0  0  0  0  0  0
  184.0040  178.7440  140.6070 C   0  0  0  0  0  3  0  0  0  0  0  0
  181.6570  177.3200  139.2120 C   0  0  0  0  0  3  0  0  0  0  0  0
  181.7940  178.0820  136.8970 C   0  0  0  0  0  1  0  0  0  0  0  0
  181.8100  177.5760  140.5060 C   0  0  0  0  0  3  0  0  0  0  0  0
  184.5620  177.5000  137.0890 N   0  0  0  0  0  0  0  0  0  0  0  0
  183.8900  177.8690  138.2170 C   0  0  0  0  0  0  0  0  0  0  0  0
  182.4540  177.8980  138.1800 N   0  0  0  0  0  0  0  0  0  0  0  0
  188.8490  178.1820  139.0600 C   0  0  0  0  0  0  0  0  0  0  0  0
  188.2360  178.5890  140.2550 C   0  0  0  0  0  3  0  0  0  0  0  0
  186.6540  177.8360  138.0810 C   0  0  0  0  0  0  0  0  0  0  0  0
  186.8430  178.6190  140.3640 C   0  0  0  0  0  3  0  0  0  0  0  0
  186.0350  178.2430  139.2770 C   0  0  0  0  0  0  0  0  0  0  0  0
  182.4690  179.0510  142.4480 C   0  0  0  0  0  2  0  0  0  0  0  0
  184.3840  178.7620  145.7090 C   0  0  0  0  0  3  0  0  0  0  0  0
  184.7830  178.2520  142.9780 C   0  0  0  0  0  3  0  0  0  0  0  0
  187.8610  177.4840  145.7350 C   0  0  0  0  0  0  0  0  0  0  0  0
  186.6350  178.0010  146.1790 C   0  0  0  0  0  3  0  0  0  0  0  0
  185.6080  178.2540  145.2670 C   0  0  0  0  0  0  0  0  0  0  0  0
  187.0370  177.4990  143.4490 C   0  0  0  0  0  3  0  0  0  0  0  0
  185.8100  177.9980  143.8910 C   0  0  0  0  0  0  0  0  0  0  0  0
  188.0600  177.2470  144.3680 C   0  0  0  0  0  3  0  0  0  0  0  0
  183.5570  178.7550  143.4270 C   0  0  0  0  0  0  0  0  0  0  0  0
  183.3600  179.0140  144.7890 C   0  0  0  0  0  3  0  0  0  0  0  0
  188.9750  177.2470  146.7050 C   0  0  2  0  0  3  0  0  0  0  0  0
  188.4450  176.8990  148.0440 C   0  0  0  0  0  2  0  0  0  0  0  0
  188.9060  178.1930  147.7480 O   0  0  0  0  0  0  0  0  0  0  0  0
  190.2430  178.1350  138.9030 O   0  0  0  0  0  0  0  0  0  0  0  0
  190.9140  175.9140  139.0910 O   0  0  0  0  0  0  0  0  0  0  0  0
  192.2480  177.5030  140.2350 C   0  0  0  0  0  1  0  0  0  0  0  0
  191.0970  177.1270  139.3760 C   0  0  0  0  0  0  0  0  0  0  0  0
  1  5  1  0  0  0  0
  2 14  2  0  0  0  0
  2 12  1  0  0  0  0
  3  9  2  0  0  0  0
  3 14  1  0  0  0  0
  4 17  1  0  0  0  0
  5  4  2  0  0  0  0
  6  8  2  0  0  0  0
  7 11  1  0  0  0  0
  8  4  1  0  0  0  0
  9 10  1  0  0  0  0
 10  1  2  0  0  0  0
 11 10  1  0  0  0  0
 11  6  1  0  0  0  0
 12 13  2  0  0  0  0
 13 15  1  0  0  0  0
 14 16  1  0  0  0  0
 16  1  1  0  0  0  0
 16 15  2  0  0  0  0
 17 26  1  0  0  0  0
 19 26  2  0  0  0  0
 19 24  1  0  0  0  0
 20 21  1  0  0  0  0
 22 18  1  0  0  0  0
 22 21  2  0  0  0  0
 23 24  2  0  0  0  0
 23 25  1  0  0  0  0
 24 22  1  0  0  0  0
 25 20  2  0  0  0  0
 26 27  1  0  0  0  0
 27 18  2  0  0  0  0
 28 20  1  6  0  0  0
 28 30  1  0  0  0  0
 28 29  1  0  0  0  0
 30 29  1  0  0  0  0
 31 12  1  0  0  0  0
 31 34  1  0  0  0  0
 32 34  2  0  0  0  0
 34 33  1  0  0  0  0
M  END
>  <MODEL>
5

>  <REMARK>
 VINA RESULT:     -10.1      1.533      2.217
  Name = 
  5 active torsions:
  status: ('A' for Active; 'I' for Inactive)
    1  A    between atoms: C_7  and  C_11
    2  A    between atoms: C_8  and  C_18
    3  A    between atoms: C_18  and  C_30
    4  A    between atoms: O_23  and  C_24
    5  A    between atoms: O_23  and  C_25
                            x       y       z     vdW  Elec       q    Type
                         _______ _______ _______ _____ _____    ______ ____

>  <TORSDO>
F 5

$$$$
=
 OpenBabel10262423213D

 34 39  0  0  1  0  0  0  0  0999 V2000
  189.0520  177.5960  141.1860 C   0  0  0  0  0  0  0  0  0  0  0  0
  188.3440  177.1650  144.8080 C   0  0  0  0  0  3  0  0  0  0  0  0
  190.3320  176.8730  143.5300 N   0  0  0  0  0  0  0  0  0  0  0  0
  188.5920  177.7980  138.6930 C   0  0  0  0  0  0  0  0  0  0  0  0
  188.3370  178.0580  139.9770 C   0  0  0  0  0  3  0  0  0  0  0  0
  190.8240  176.6830  138.7900 C   0  0  0  0  0  3  0  0  0  0  0  0
  192.6660  177.5020  140.1660 C   0  0  0  0  0  1  0  0  0  0  0  0
  189.6520  176.9050  138.2070 C   0  0  0  0  0  3  0  0  0  0  0  0
  191.0040  176.9000  142.3820 N   0  0  0  0  0  0  0  0  0  0  0  0
  190.4200  177.2440  141.1980 C   0  0  0  0  0  0  0  0  0  0  0  0
  191.2370  177.2830  140.0180 N   0  0  0  0  0  0  0  0  0  0  0  0
  186.9900  177.5080  144.8820 C   0  0  0  0  0  0  0  0  0  0  0  0
  186.3170  177.8880  143.7110 C   0  0  0  0  0  3  0  0  0  0  0  0
  189.0210  177.1990  143.5850 C   0  0  0  0  0  0  0  0  0  0  0  0
  186.9880  177.9230  142.4860 C   0  0  0  0  0  3  0  0  0  0  0  0
  188.3490  177.5790  142.4090 C   0  0  0  0  0  0  0  0  0  0  0  0
  187.6320  178.3280  137.6810 C   0  0  0  0  0  2  0  0  0  0  0  0
  184.1420  176.8430  137.6020 C   0  0  0  0  0  3  0  0  0  0  0  0
  185.6490  178.6020  139.1870 C   0  0  0  0  0  3  0  0  0  0  0  0
  181.6640  177.7360  140.2060 C   0  0  0  0  0  0  0  0  0  0  0  0
  182.2400  177.1500  139.0710 C   0  0  0  0  0  3  0  0  0  0  0  0
  183.5650  177.4320  138.7300 C   0  0  0  0  0  0  0  0  0  0  0  0
  183.7430  178.9150  140.6500 C   0  0  0  0  0  3  0  0  0  0  0  0
  184.3230  178.3190  139.5280 C   0  0  0  0  0  0  0  0  0  0  0  0
  182.4160  178.6280  140.9850 C   0  0  0  0  0  3  0  0  0  0  0  0
  186.2240  178.0050  138.0600 C   0  0  0  0  0  0  0  0  0  0  0  0
  185.4700  177.1300  137.2670 C   0  0  0  0  0  3  0  0  0  0  0  0
  180.2340  177.4660  140.5520 C   0  0  2  0  0  3  0  0  0  0  0  0
  179.3470  178.5030  139.9770 C   0  0  0  0  0  2  0  0  0  0  0  0
  179.7250  178.5260  141.3300 O   0  0  0  0  0  0  0  0  0  0  0  0
  186.3590  177.4560  146.1350 O   0  0  0  0  0  0  0  0  0  0  0  0
  185.6810  179.3770  147.2610 O   0  0  0  0  0  0  0  0  0  0  0  0
  187.5660  178.2560  148.1590 C   0  0  0  0  0  1  0  0  0  0  0  0
  186.4750  178.4050  147.1620 C   0  0  0  0  0  0  0  0  0  0  0  0
  1 10  2  0  0  0  0
  1 16  1  0  0  0  0
  2 12  1  0  0  0  0
  3 14  1  0  0  0  0
  4  5  2  0  0  0  0
  5  1  1  0  0  0  0
  6 11  1  0  0  0  0
  8  4  1  0  0  0  0
  8  6  2  0  0  0  0
  9  3  2  0  0  0  0
 10  9  1  0  0  0  0
 11  7  1  0  0  0  0
 11 10  1  0  0  0  0
 12 31  1  0  0  0  0
 13 12  2  0  0  0  0
 14  2  2  0  0  0  0
 15 13  1  0  0  0  0
 16 15  2  0  0  0  0
 16 14  1  0  0  0  0
 17 26  1  0  0  0  0
 17  4  1  0  0  0  0
 18 22  1  0  0  0  0
 19 24  1  0  0  0  0
 20 25  1  0  0  0  0
 21 20  2  0  0  0  0
 22 21  1  0  0  0  0
 22 24  2  0  0  0  0
 23 25  2  0  0  0  0
 24 23  1  0  0  0  0
 26 19  2  0  0  0  0
 27 18  2  0  0  0  0
 27 26  1  0  0  0  0
 28 20  1  6  0  0  0
 28 30  1  0  0  0  0
 29 28  1  0  0  0  0
 29 30  1  0  0  0  0
 31 34  1  0  0  0  0
 34 32  2  0  0  0  0
 34 33  1  0  0  0  0
M  END
>  <MODEL>
6

>  <REMARK>
 VINA RESULT:     -10.0      3.439      8.323
  Name = 
  5 active torsions:
  status: ('A' for Active; 'I' for Inactive)
    1  A    between atoms: C_7  and  C_11
    2  A    between atoms: C_8  and  C_18
    3  A    between atoms: C_18  and  C_30
    4  A    between atoms: O_23  and  C_24
    5  A    between atoms: O_23  and  C_25
                            x       y       z     vdW  Elec       q    Type
                         _______ _______ _______ _____ _____    ______ ____

>  <TORSDO>
F 5

$$$$
=
 OpenBabel10262423213D

 34 39  0  0  1  0  0  0  0  0999 V2000
  186.6570  178.1410  145.0920 C   0  0  0  0  0  0  0  0  0  0  0  0
  183.1490  178.7720  144.0380 C   0  0  0  0  0  3  0  0  0  0  0  0
  184.1900  178.7630  146.1800 N   0  0  0  0  0  0  0  0  0  0  0  0
  189.0520  177.2970  144.9570 C   0  0  0  0  0  0  0  0  0  0  0  0
  187.9630  177.8800  144.4510 C   0  0  0  0  0  3  0  0  0  0  0  0
  188.5060  177.1310  147.3880 C   0  0  0  0  0  3  0  0  0  0  0  0
  187.5040  178.9590  148.6590 C   0  0  0  0  0  1  0  0  0  0  0  0
  189.1500  176.7180  146.3030 C   0  0  0  0  0  3  0  0  0  0  0  0
  185.2540  178.6230  146.9680 N   0  0  0  0  0  0  0  0  0  0  0  0
  186.4900  178.3130  146.4840 C   0  0  0  0  0  0  0  0  0  0  0  0
  187.5850  178.2210  147.4090 N   0  0  0  0  0  0  0  0  0  0  0  0
  183.2330  178.6280  142.6500 C   0  0  0  0  0  0  0  0  0  0  0  0
  184.4730  178.3220  142.0690 C   0  0  0  0  0  3  0  0  0  0  0  0
  184.2840  178.6130  144.8400 C   0  0  0  0  0  0  0  0  0  0  0  0
  185.6100  178.1610  142.8650 C   0  0  0  0  0  3  0  0  0  0  0  0
  185.5290  178.3050  144.2610 C   0  0  0  0  0  0  0  0  0  0  0  0
  190.2050  177.0770  144.0360 C   0  0  0  0  0  2  0  0  0  0  0  0
  188.4540  178.6280  141.0510 C   0  0  0  0  0  3  0  0  0  0  0  0
  190.4690  176.7460  141.5670 C   0  0  0  0  0  3  0  0  0  0  0  0
  189.3680  177.6200  137.6060 C   0  0  0  0  0  0  0  0  0  0  0  0
  188.7240  178.2650  138.6710 C   0  0  0  0  0  3  0  0  0  0  0  0
  189.0900  177.9810  139.9890 C   0  0  0  0  0  0  0  0  0  0  0  0
  190.7330  176.3780  139.1870 C   0  0  0  0  0  3  0  0  0  0  0  0
  190.1050  177.0310  140.2480 C   0  0  0  0  0  0  0  0  0  0  0  0
  190.3630  176.6680  137.8700 C   0  0  0  0  0  3  0  0  0  0  0  0
  189.8330  177.4020  142.6270 C   0  0  0  0  0  0  0  0  0  0  0  0
  188.8240  178.3380  142.3690 C   0  0  0  0  0  3  0  0  0  0  0  0
  188.9530  177.8950  136.1950 C   0  0  2  0  0  3  0  0  0  0  0  0
  187.8890  176.9580  135.7660 C   0  0  0  0  0  2  0  0  0  0  0  0
  189.2300  176.7710  135.3920 O   0  0  0  0  0  0  0  0  0  0  0  0
  182.0630  178.7970  141.8930 O   0  0  0  0  0  0  0  0  0  0  0  0
  181.6410  177.2340  140.2210 O   0  0  0  0  0  0  0  0  0  0  0  0
  181.9760  179.4660  139.4970 C   0  0  0  0  0  1  0  0  0  0  0  0
  181.8820  178.4250  140.5530 C   0  0  0  0  0  0  0  0  0  0  0  0
  1 10  1  0  0  0  0
  2 14  1  0  0  0  0
  3  9  1  0  0  0  0
  4  8  1  0  0  0  0
  5  4  2  0  0  0  0
  5  1  1  0  0  0  0
  6 11  1  0  0  0  0
  8  6  2  0  0  0  0
 10  9  2  0  0  0  0
 10 11  1  0  0  0  0
 11  7  1  0  0  0  0
 12  2  2  0  0  0  0
 13 12  1  0  0  0  0
 13 15  2  0  0  0  0
 14  3  2  0  0  0  0
 15 16  1  0  0  0  0
 16 14  1  0  0  0  0
 16  1  2  0  0  0  0
 17  4  1  0  0  0  0
 18 27  1  0  0  0  0
 19 26  1  0  0  0  0
 20 25  1  0  0  0  0
 20 21  2  0  0  0  0
 21 22  1  0  0  0  0
 22 24  1  0  0  0  0
 22 18  2  0  0  0  0
 23 24  1  0  0  0  0
 24 19  2  0  0  0  0
 25 23  2  0  0  0  0
 26 17  1  0  0  0  0
 27 26  2  0  0  0  0
 28 20  1  1  0  0  0
 29 28  1  0  0  0  0
 30 29  1  0  0  0  0
 30 28  1  0  0  0  0
 31 12  1  0  0  0  0
 32 34  2  0  0  0  0
 33 34  1  0  0  0  0
 34 31  1  0  0  0  0
M  END
>  <MODEL>
7

>  <REMARK>
 VINA RESULT:      -9.9      3.473      7.720
  Name = 
  5 active torsions:
  status: ('A' for Active; 'I' for Inactive)
    1  A    between atoms: C_7  and  C_11
    2  A    between atoms: C_8  and  C_18
    3  A    between atoms: C_18  and  C_30
    4  A    between atoms: O_23  and  C_24
    5  A    between atoms: O_23  and  C_25
                            x       y       z     vdW  Elec       q    Type
                         _______ _______ _______ _____ _____    ______ ____

>  <TORSDO>
F 5

$$$$
=
 OpenBabel10262423213D

 34 39  0  0  1  0  0  0  0  0999 V2000
  189.1910  177.5400  141.1860 C   0  0  0  0  0  0  0  0  0  0  0  0
  188.3930  177.1990  144.7990 C   0  0  0  0  0  3  0  0  0  0  0  0
  190.4210  176.9140  143.5840 N   0  0  0  0  0  0  0  0  0  0  0  0
  188.7950  177.6600  138.6770 C   0  0  0  0  0  0  0  0  0  0  0  0
  188.5000  177.9510  139.9450 C   0  0  0  0  0  3  0  0  0  0  0  0
  191.0470  176.5980  138.8660 C   0  0  0  0  0  3  0  0  0  0  0  0
  192.8330  177.4980  140.2660 C   0  0  0  0  0  1  0  0  0  0  0  0
  189.8870  176.7770  138.2460 C   0  0  0  0  0  3  0  0  0  0  0  0
  191.1240  176.9230  142.4530 N   0  0  0  0  0  0  0  0  0  0  0  0
  190.5650  177.2200  141.2450 C   0  0  0  0  0  0  0  0  0  0  0  0
  191.4130  177.2420  140.0860 N   0  0  0  0  0  0  0  0  0  0  0  0
  187.0320  177.5140  144.8270 C   0  0  0  0  0  0  0  0  0  0  0  0
  186.3830  177.8440  143.6270 C   0  0  0  0  0  3  0  0  0  0  0  0
  189.1030  177.2120  143.5940 C   0  0  0  0  0  0  0  0  0  0  0  0
  187.0860  177.8590  142.4200 C   0  0  0  0  0  3  0  0  0  0  0  0
  188.4550  177.5430  142.3890 C   0  0  0  0  0  0  0  0  0  0  0  0
  187.8510  178.1380  137.6240 C   0  0  0  0  0  2  0  0  0  0  0  0
  184.3020  176.8100  137.4600 C   0  0  0  0  0  3  0  0  0  0  0  0
  186.9270  175.8370  137.2720 C   0  0  0  0  0  3  0  0  0  0  0  0
  183.6730  173.2000  136.9190 C   0  0  0  0  0  0  0  0  0  0  0  0
  183.4470  174.5670  137.1360 C   0  0  0  0  0  3  0  0  0  0  0  0
  184.5260  175.4470  137.2500 C   0  0  0  0  0  0  0  0  0  0  0  0
  186.0710  173.5920  136.9560 C   0  0  0  0  0  3  0  0  0  0  0  0
  185.8480  174.9560  137.1560 C   0  0  0  0  0  0  0  0  0  0  0  0
  184.9870  172.7160  136.8430 C   0  0  0  0  0  3  0  0  0  0  0  0
  186.6970  177.2020  137.4750 C   0  0  0  0  0  0  0  0  0  0  0  0
  185.3870  177.6860  137.5730 C   0  0  0  0  0  3  0  0  0  0  0  0
  182.5210  172.2490  136.8340 C   0  0  2  0  0  3  0  0  0  0  0  0
  181.8710  172.3240  135.5050 C   0  0  0  0  0  2  0  0  0  0  0  0
  181.3260  172.9690  136.6280 O   0  0  0  0  0  0  0  0  0  0  0  0
  186.3680  177.4840  146.0630 O   0  0  0  0  0  0  0  0  0  0  0  0
  185.6750  179.4090  147.1730 O   0  0  0  0  0  0  0  0  0  0  0  0
  187.5600  178.3020  148.0890 C   0  0  0  0  0  1  0  0  0  0  0  0
  186.4740  178.4400  147.0850 C   0  0  0  0  0  0  0  0  0  0  0  0
  1 10  2  0  0  0  0
  1 16  1  0  0  0  0
  2 12  1  0  0  0  0
  3 14  1  0  0  0  0
  4  5  2  0  0  0  0
  5  1  1  0  0  0  0
  6 11  1  0  0  0  0
  8  4  1  0  0  0  0
  8  6  2  0  0  0  0
  9  3  2  0  0  0  0
 10  9  1  0  0  0  0
 11  7  1  0  0  0  0
 11 10  1  0  0  0  0
 12 31  1  0  0  0  0
 13 12  2  0  0  0  0
 14  2  2  0  0  0  0
 15 13  1  0  0  0  0
 16 15  2  0  0  0  0
 16 14  1  0  0  0  0
 17  4  1  0  0  0  0
 18 27  1  0  0  0  0
 19 26  1  0  0  0  0
 20 21  2  0  0  0  0
 21 22  1  0  0  0  0
 22 18  2  0  0  0  0
 23 24  1  0  0  0  0
 24 22  1  0  0  0  0
 24 19  2  0  0  0  0
 25 20  1  0  0  0  0
 25 23  2  0  0  0  0
 26 27  2  0  0  0  0
 26 17  1  0  0  0  0
 28 20  1  6  0  0  0
 29 30  1  0  0  0  0
 29 28  1  0  0  0  0
 30 28  1  0  0  0  0
 31 34  1  0  0  0  0
 34 32  2  0  0  0  0
 34 33  1  0  0  0  0
M  END
>  <MODEL>
8

>  <REMARK>
 VINA RESULT:      -9.7      4.368      8.876
  Name = 
  5 active torsions:
  status: ('A' for Active; 'I' for Inactive)
    1  A    between atoms: C_7  and  C_11
    2  A    between atoms: C_8  and  C_18
    3  A    between atoms: C_18  and  C_30
    4  A    between atoms: O_23  and  C_24
    5  A    between atoms: O_23  and  C_25
                            x       y       z     vdW  Elec       q    Type
                         _______ _______ _______ _____ _____    ______ ____

>  <TORSDO>
F 5

$$$$
=
 OpenBabel10262423213D

 34 39  0  0  1  0  0  0  0  0999 V2000
  182.8420  176.5840  139.0070 C   0  0  0  0  0  0  0  0  0  0  0  0
  181.3680  173.8570  136.9570 C   0  0  0  0  0  3  0  0  0  0  0  0
  183.2570  175.2650  136.6100 N   0  0  0  0  0  0  0  0  0  0  0  0
  182.9710  178.4140  140.7670 C   0  0  0  0  0  0  0  0  0  0  0  0
  182.6150  177.2050  140.3290 C   0  0  0  0  0  3  0  0  0  0  0  0
  184.4870  179.2300  138.9590 C   0  0  0  0  0  3  0  0  0  0  0  0
  186.2170  177.8410  137.9400 C   0  0  0  0  0  1  0  0  0  0  0  0
  183.6390  179.4420  139.9580 C   0  0  0  0  0  3  0  0  0  0  0  0
  184.0790  176.2420  136.9880 N   0  0  0  0  0  0  0  0  0  0  0  0
  183.9160  176.9260  138.1560 C   0  0  0  0  0  0  0  0  0  0  0  0
  184.8770  177.9370  138.4970 N   0  0  0  0  0  0  0  0  0  0  0  0
  180.2880  173.4520  137.7460 C   0  0  0  0  0  0  0  0  0  0  0  0
  180.0580  174.0960  138.9710 C   0  0  0  0  0  3  0  0  0  0  0  0
  182.2100  174.8900  137.3790 C   0  0  0  0  0  0  0  0  0  0  0  0
  180.8960  175.1290  139.3990 C   0  0  0  0  0  3  0  0  0  0  0  0
  181.9830  175.5380  138.6070 C   0  0  0  0  0  0  0  0  0  0  0  0
  182.5170  178.8120  142.1320 C   0  0  0  0  0  2  0  0  0  0  0  0
  184.4460  178.8990  145.3960 C   0  0  0  0  0  3  0  0  0  0  0  0
  184.8500  178.1230  142.7300 C   0  0  0  0  0  3  0  0  0  0  0  0
  187.9510  177.7090  145.5360 C   0  0  0  0  0  0  0  0  0  0  0  0
  186.7160  178.2400  145.9310 C   0  0  0  0  0  3  0  0  0  0  0  0
  185.6800  178.3760  145.0020 C   0  0  0  0  0  0  0  0  0  0  0  0
  187.1210  177.4720  143.2640 C   0  0  0  0  0  3  0  0  0  0  0  0
  185.8850  177.9860  143.6590 C   0  0  0  0  0  0  0  0  0  0  0  0
  188.1530  177.3380  144.1990 C   0  0  0  0  0  3  0  0  0  0  0  0
  183.6130  178.6420  143.1310 C   0  0  0  0  0  0  0  0  0  0  0  0
  183.4140  179.0330  144.4610 C   0  0  0  0  0  3  0  0  0  0  0  0
  189.0730  177.5970  146.5200 C   0  0  2  0  0  3  0  0  0  0  0  0
  188.6830  176.7530  147.6720 C   0  0  0  0  0  2  0  0  0  0  0  0
  188.6810  178.1560  147.7530 O   0  0  0  0  0  0  0  0  0  0  0  0
  179.4730  172.4110  137.2740 O   0  0  0  0  0  0  0  0  0  0  0  0
  179.0130  172.3940  134.9920 O   0  0  0  0  0  0  0  0  0  0  0  0
  180.2020  170.5210  135.8270 C   0  0  0  0  0  1  0  0  0  0  0  0
  179.5240  171.8320  135.9970 C   0  0  0  0  0  0  0  0  0  0  0  0
  1  5  1  0  0  0  0
  2 14  2  0  0  0  0
  2 12  1  0  0  0  0
  3  9  2  0  0  0  0
  3 14  1  0  0  0  0
  4 17  1  0  0  0  0
  5  4  2  0  0  0  0
  6  8  2  0  0  0  0
  7 11  1  0  0  0  0
  8  4  1  0  0  0  0
  9 10  1  0  0  0  0
 10 11  1  0  0  0  0
 10  1  2  0  0  0  0
 11  6  1  0  0  0  0
 12 13  2  0  0  0  0
 13 15  1  0  0  0  0
 14 16  1  0  0  0  0
 16  1  1  0  0  0  0
 16 15  2  0  0  0  0
 17 26  1  0  0  0  0
 19 26  2  0  0  0  0
 19 24  1  0  0  0  0
 20 21  1  0  0  0  0
 22 18  1  0  0  0  0
 22 21  2  0  0  0  0
 23 24  2  0  0  0  0
 23 25  1  0  0  0  0
 24 22  1  0  0  0  0
 25 20  2  0  0  0  0
 26 27  1  0  0  0  0
 27 18  2  0  0  0  0
 28 20  1  6  0  0  0
 28 29  1  0  0  0  0
 28 30  1  0  0  0  0
 29 30  1  0  0  0  0
 31 12  1  0  0  0  0
 32 34  2  0  0  0  0
 33 34  1  0  0  0  0
 34 31  1  0  0  0  0
M  END
>  <MODEL>
9

>  <REMARK>
 VINA RESULT:      -9.7      4.587      6.311
  Name = 
  5 active torsions:
  status: ('A' for Active; 'I' for Inactive)
    1  A    between atoms: C_7  and  C_11
    2  A    between atoms: C_8  and  C_18
    3  A    between atoms: C_18  and  C_30
    4  A    between atoms: O_23  and  C_24
    5  A    between atoms: O_23  and  C_25
                            x       y       z     vdW  Elec       q    Type
                         _______ _______ _______ _____ _____    ______ ____

>  <TORSDO>
F 5

$$$$
