=
 OpenBabel10252414483D

 34 39  0  0  1  0  0  0  0  0999 V2000
  185.3810  178.8670  144.2970 C   0  0  0  0  0  0  0  0  0  0  0  0
  187.0880  177.1320  144.2990 C   0  0  0  0  0  0  0  0  0  0  0  0
  186.3750  178.2490  142.1540 C   0  0  0  0  0  0  0  0  0  0  0  0
  187.5610  178.2170  139.9990 N   0  0  0  0  0  0  0  0  0  0  0  0
  186.2390  178.0230  146.3920 C   0  0  0  0  0  3  0  0  0  0  0  0
  187.0620  177.1400  145.6970 C   0  0  0  0  0  3  0  0  0  0  0  0
  188.8810  177.7740  141.7390 C   0  0  0  0  0  3  0  0  0  0  0  0
  186.3150  178.0780  143.5690 C   0  0  0  0  0  0  0  0  0  0  0  0
  188.8040  178.1190  139.5070 C   0  0  0  0  0  3  0  0  0  0  0  0
  185.3790  178.8640  145.6920 C   0  0  0  0  0  3  0  0  0  0  0  0
  185.3190  178.9290  141.4980 C   0  0  0  0  0  0  0  0  0  0  0  0
  184.4190  179.6250  143.6300 C   0  0  0  0  0  3  0  0  0  0  0  0
  187.8290  175.7100  143.5720 Cl  0  0  0  0  0  0  0  0  0  0  0  0
  186.4560  178.7330  139.3130 N   0  0  0  0  0  2  0  0  0  0  0  0
  185.1700  178.8940  139.9900 C   0  0  1  0  0  3  0  0  0  0  0  0
  189.6300  177.8220  140.5730 C   0  0  0  0  0  0  0  0  0  0  0  0
  187.5760  177.9870  141.3210 C   0  0  0  0  0  0  0  0  0  0  0  0
  184.3630  179.6200  142.2410 C   0  0  0  0  0  3  0  0  0  0  0  0
  183.4880  176.1360  137.9760 C   0  0  0  0  0  0  0  0  0  0  0  0
  182.4560  175.7640  138.8430 C   0  0  0  0  0  3  0  0  0  0  0  0
  184.2270  177.8080  139.5740 C   0  0  0  0  0  0  0  0  0  0  0  0
  182.3100  176.4100  140.0730 C   0  0  0  0  0  3  0  0  0  0  0  0
  184.3720  177.1550  138.3390 C   0  0  0  0  0  3  0  0  0  0  0  0
  183.1940  177.4290  140.4390 C   0  0  0  0  0  3  0  0  0  0  0  0
  183.6310  175.5090  136.7830 F   0  0  0  0  0  0  0  0  0  0  0  0
  191.0980  177.6010  140.4870 C   0  0  0  0  0  2  0  0  0  0  0  0
  191.7300  178.0380  141.7230 N   0  0  0  0  0  2  0  0  0  0  0  0
  191.0550  179.5760  144.0720 C   0  0  0  0  0  1  0  0  0  0  0  0
  191.5540  177.3700  142.9790 C   0  0  0  0  0  0  0  0  0  0  0  0
  191.2240  178.1350  144.1550 N   0  0  0  0  0  0  0  0  0  0  0  0
  191.8600  176.2290  145.5610 C   0  0  0  0  0  2  0  0  0  0  0  0
  191.5550  175.3200  144.3760 C   0  0  0  0  0  2  0  0  0  0  0  0
  191.7560  176.0480  143.0790 C   0  0  0  0  0  3  0  0  0  0  0  0
  191.0060  177.4870  145.4480 C   0  0  0  0  0  2  0  0  0  0  0  0
  1 10  2  0  0  0  0
  2  6  1  0  0  0  0
  3  8  1  0  0  0  0
  4 17  1  0  0  0  0
  6  5  2  0  0  0  0
  8  1  1  0  0  0  0
  8  2  2  0  0  0  0
  9  4  1  0  0  0  0
  9 16  2  0  0  0  0
 10  5  1  0  0  0  0
 11  3  2  0  0  0  0
 11 18  1  0  0  0  0
 12  1  1  0  0  0  0
 13  2  1  0  0  0  0
 14 15  1  0  0  0  0
 14  4  1  0  0  0  0
 15 21  1  1  0  0  0
 15 11  1  0  0  0  0
 16  7  1  0  0  0  0
 17  7  2  0  0  0  0
 17  3  1  0  0  0  0
 18 12  2  0  0  0  0
 19 23  2  0  0  0  0
 19 20  1  0  0  0  0
 20 22  2  0  0  0  0
 21 24  2  0  0  0  0
 22 24  1  0  0  0  0
 23 21  1  0  0  0  0
 25 19  1  0  0  0  0
 26 16  1  0  0  0  0
 26 27  1  0  0  0  0
 27 29  1  0  0  0  0
 28 30  1  0  0  0  0
 29 33  2  0  0  0  0
 29 30  1  0  0  0  0
 30 34  1  0  0  0  0
 32 31  1  0  0  0  0
 33 32  1  0  0  0  0
 34 31  1  0  0  0  0
M  END
>  <MODEL>
1

>  <REMARK>
 VINA RESULT:      -8.8      0.000      0.000
  Name = 
  4 active torsions:
  status: ('A' for Active; 'I' for Inactive)
    1  A    between atoms: N_3  and  C_13
    2  A    between atoms: N_3  and  C_17
    3  A    between atoms: C_12  and  C_28
    4  A    between atoms: C_17  and  C_29
                            x       y       z     vdW  Elec       q    Type
                         _______ _______ _______ _____ _____    ______ ____

>  <TORSDO>
F 4

$$$$
=
 OpenBabel10252414483D

 34 39  0  0  1  0  0  0  0  0999 V2000
  185.3810  178.9160  144.7790 C   0  0  0  0  0  0  0  0  0  0  0  0
  187.0470  177.1730  144.4430 C   0  0  0  0  0  0  0  0  0  0  0  0
  186.0070  178.3710  142.4830 C   0  0  0  0  0  0  0  0  0  0  0  0
  186.8270  178.4100  140.1630 N   0  0  0  0  0  0  0  0  0  0  0  0
  186.5590  177.9930  146.6760 C   0  0  0  0  0  3  0  0  0  0  0  0
  187.2480  177.1310  145.8270 C   0  0  0  0  0  3  0  0  0  0  0  0
  188.4070  177.8970  141.6490 C   0  0  0  0  0  3  0  0  0  0  0  0
  186.1760  178.1490  143.8820 C   0  0  0  0  0  0  0  0  0  0  0  0
  187.9730  178.3220  139.4730 C   0  0  0  0  0  3  0  0  0  0  0  0
  185.6060  178.8630  146.1550 C   0  0  0  0  0  3  0  0  0  0  0  0
  184.8670  179.0790  142.0310 C   0  0  0  0  0  0  0  0  0  0  0  0
  184.3330  179.7030  144.3040 C   0  0  0  0  0  3  0  0  0  0  0  0
  187.6440  175.7740  143.5570 Cl  0  0  0  0  0  0  0  0  0  0  0  0
  185.6310  178.9560  139.6850 N   0  0  0  0  0  2  0  0  0  0  0  0
  184.4740  179.1000  140.5680 C   0  0  1  0  0  3  0  0  0  0  0  0
  188.9570  177.9830  140.3800 C   0  0  0  0  0  0  0  0  0  0  0  0
  187.0540  178.1320  141.4570 C   0  0  0  0  0  0  0  0  0  0  0  0
  184.0520  179.7490  142.9430 C   0  0  0  0  0  3  0  0  0  0  0  0
  181.2470  177.0810  140.5370 C   0  0  0  0  0  0  0  0  0  0  0  0
  181.5940  176.0350  139.6770 C   0  0  0  0  0  3  0  0  0  0  0  0
  183.4640  178.0340  140.2730 C   0  0  0  0  0  0  0  0  0  0  0  0
  182.8730  175.9880  139.1150 C   0  0  0  0  0  3  0  0  0  0  0  0
  182.1770  178.0790  140.8340 C   0  0  0  0  0  3  0  0  0  0  0  0
  183.8060  176.9860  139.4110 C   0  0  0  0  0  3  0  0  0  0  0  0
  180.0070  177.1270  141.0810 F   0  0  0  0  0  0  0  0  0  0  0  0
  190.3890  177.7570  140.0480 C   0  0  0  0  0  2  0  0  0  0  0  0
  190.5500  176.4340  139.4620 N   0  0  0  0  0  2  0  0  0  0  0  0
  189.0660  175.4540  137.1860 C   0  0  0  0  0  1  0  0  0  0  0  0
  191.2310  176.1970  138.2240 C   0  0  0  0  0  0  0  0  0  0  0  0
  190.4950  175.7010  137.0870 N   0  0  0  0  0  0  0  0  0  0  0  0
  192.6060  175.0820  136.0040 C   0  0  0  0  0  2  0  0  0  0  0  0
  193.2910  176.1560  136.8420 C   0  0  0  0  0  2  0  0  0  0  0  0
  192.5570  176.3730  138.1330 C   0  0  0  0  0  3  0  0  0  0  0  0
  191.1480  175.4760  135.7970 C   0  0  0  0  0  2  0  0  0  0  0  0
  1 10  2  0  0  0  0
  2  6  1  0  0  0  0
  3  8  1  0  0  0  0
  4 17  1  0  0  0  0
  6  5  2  0  0  0  0
  8  2  2  0  0  0  0
  8  1  1  0  0  0  0
  9  4  1  0  0  0  0
  9 16  2  0  0  0  0
 10  5  1  0  0  0  0
 11  3  2  0  0  0  0
 11 18  1  0  0  0  0
 12  1  1  0  0  0  0
 13  2  1  0  0  0  0
 14  4  1  0  0  0  0
 14 15  1  0  0  0  0
 15 21  1  1  0  0  0
 15 11  1  0  0  0  0
 16  7  1  0  0  0  0
 17  7  2  0  0  0  0
 17  3  1  0  0  0  0
 18 12  2  0  0  0  0
 19 23  1  0  0  0  0
 19 25  1  0  0  0  0
 20 19  2  0  0  0  0
 21 23  2  0  0  0  0
 22 24  2  0  0  0  0
 22 20  1  0  0  0  0
 24 21  1  0  0  0  0
 26 16  1  0  0  0  0
 27 26  1  0  0  0  0
 29 27  1  0  0  0  0
 30 28  1  0  0  0  0
 30 29  1  0  0  0  0
 31 32  1  0  0  0  0
 32 33  1  0  0  0  0
 33 29  2  0  0  0  0
 34 31  1  0  0  0  0
 34 30  1  0  0  0  0
M  END
>  <MODEL>
2

>  <REMARK>
 VINA RESULT:      -8.8      2.327      3.858
  Name = 
  4 active torsions:
  status: ('A' for Active; 'I' for Inactive)
    1  A    between atoms: N_3  and  C_13
    2  A    between atoms: N_3  and  C_17
    3  A    between atoms: C_12  and  C_28
    4  A    between atoms: C_17  and  C_29
                            x       y       z     vdW  Elec       q    Type
                         _______ _______ _______ _____ _____    ______ ____

>  <TORSDO>
F 4

$$$$
=
 OpenBabel10252414483D

 34 39  0  0  1  0  0  0  0  0999 V2000
  185.0030  178.9430  144.9880 C   0  0  0  0  0  0  0  0  0  0  0  0
  186.7260  177.2590  144.6390 C   0  0  0  0  0  0  0  0  0  0  0  0
  185.6540  178.4450  142.6890 C   0  0  0  0  0  0  0  0  0  0  0  0
  186.4810  178.5360  140.3730 N   0  0  0  0  0  0  0  0  0  0  0  0
  186.2040  178.0380  146.8790 C   0  0  0  0  0  3  0  0  0  0  0  0
  186.9230  177.2070  146.0230 C   0  0  0  0  0  3  0  0  0  0  0  0
  188.0710  178.0590  141.8590 C   0  0  0  0  0  3  0  0  0  0  0  0
  185.8260  178.2120  144.0850 C   0  0  0  0  0  0  0  0  0  0  0  0
  187.6310  178.4940  139.6860 C   0  0  0  0  0  3  0  0  0  0  0  0
  185.2250  178.8820  146.3640 C   0  0  0  0  0  3  0  0  0  0  0  0
  184.4930  179.1210  142.2400 C   0  0  0  0  0  0  0  0  0  0  0  0
  183.9320  179.7010  144.5180 C   0  0  0  0  0  3  0  0  0  0  0  0
  187.3710  175.8900  143.7390 Cl  0  0  0  0  0  0  0  0  0  0  0  0
  185.2690  179.0490  139.8950 N   0  0  0  0  0  2  0  0  0  0  0  0
  184.1050  179.1450  140.7750 C   0  0  1  0  0  3  0  0  0  0  0  0
  188.6230  178.1760  140.5920 C   0  0  0  0  0  0  0  0  0  0  0  0
  186.7120  178.2510  141.6640 C   0  0  0  0  0  0  0  0  0  0  0  0
  183.6540  179.7530  143.1570 C   0  0  0  0  0  3  0  0  0  0  0  0
  180.8970  177.1070  140.5680 C   0  0  0  0  0  0  0  0  0  0  0  0
  181.3340  175.9940  139.8430 C   0  0  0  0  0  3  0  0  0  0  0  0
  183.1310  178.0510  140.4650 C   0  0  0  0  0  0  0  0  0  0  0  0
  182.6660  175.9100  139.4280 C   0  0  0  0  0  3  0  0  0  0  0  0
  181.7920  178.1340  140.8790 C   0  0  0  0  0  3  0  0  0  0  0  0
  183.5620  176.9370  139.7370 C   0  0  0  0  0  3  0  0  0  0  0  0
  179.6060  177.1890  140.9700 F   0  0  0  0  0  0  0  0  0  0  0  0
  190.0620  178.0000  140.2640 C   0  0  0  0  0  2  0  0  0  0  0  0
  190.6620  177.0520  141.1920 N   0  0  0  0  0  2  0  0  0  0  0  0
  190.5570  174.9980  143.2200 C   0  0  0  0  0  1  0  0  0  0  0  0
  190.9980  177.3780  142.5460 C   0  0  0  0  0  0  0  0  0  0  0  0
  190.9400  176.3570  143.5630 N   0  0  0  0  0  0  0  0  0  0  0  0
  190.9840  178.0930  145.2930 C   0  0  0  0  0  2  0  0  0  0  0  0
  191.6840  179.0040  144.2900 C   0  0  0  0  0  2  0  0  0  0  0  0
  191.3040  178.6390  142.8850 C   0  0  0  0  0  3  0  0  0  0  0  0
  191.3050  176.6430  144.9490 C   0  0  0  0  0  2  0  0  0  0  0  0
  1 10  2  0  0  0  0
  2  6  1  0  0  0  0
  3  8  1  0  0  0  0
  4 17  1  0  0  0  0
  6  5  2  0  0  0  0
  8  2  2  0  0  0  0
  8  1  1  0  0  0  0
  9  4  1  0  0  0  0
  9 16  2  0  0  0  0
 10  5  1  0  0  0  0
 11  3  2  0  0  0  0
 11 18  1  0  0  0  0
 12  1  1  0  0  0  0
 13  2  1  0  0  0  0
 14  4  1  0  0  0  0
 14 15  1  0  0  0  0
 15 21  1  1  0  0  0
 15 11  1  0  0  0  0
 16  7  1  0  0  0  0
 17  7  2  0  0  0  0
 17  3  1  0  0  0  0
 18 12  2  0  0  0  0
 19 23  1  0  0  0  0
 19 25  1  0  0  0  0
 20 19  2  0  0  0  0
 21 23  2  0  0  0  0
 22 24  2  0  0  0  0
 22 20  1  0  0  0  0
 24 21  1  0  0  0  0
 26 16  1  0  0  0  0
 26 27  1  0  0  0  0
 27 29  1  0  0  0  0
 28 30  1  0  0  0  0
 29 33  2  0  0  0  0
 29 30  1  0  0  0  0
 30 34  1  0  0  0  0
 32 31  1  0  0  0  0
 33 32  1  0  0  0  0
 34 31  1  0  0  0  0
M  END
>  <MODEL>
3

>  <REMARK>
 VINA RESULT:      -8.8      1.453      2.052
  Name = 
  4 active torsions:
  status: ('A' for Active; 'I' for Inactive)
    1  A    between atoms: N_3  and  C_13
    2  A    between atoms: N_3  and  C_17
    3  A    between atoms: C_12  and  C_28
    4  A    between atoms: C_17  and  C_29
                            x       y       z     vdW  Elec       q    Type
                         _______ _______ _______ _____ _____    ______ ____

>  <TORSDO>
F 4

$$$$
=
 OpenBabel10252414483D

 34 39  0  0  1  0  0  0  0  0999 V2000
  192.0400  175.4810  137.9670 C   0  0  0  0  0  0  0  0  0  0  0  0
  190.1940  174.2810  136.9300 C   0  0  0  0  0  0  0  0  0  0  0  0
  189.8110  176.4600  138.1390 C   0  0  0  0  0  0  0  0  0  0  0  0
  187.8260  177.9080  137.9940 N   0  0  0  0  0  0  0  0  0  0  0  0
  192.4830  173.5530  136.5800 C   0  0  0  0  0  3  0  0  0  0  0  0
  191.1160  173.3860  136.3780 C   0  0  0  0  0  3  0  0  0  0  0  0
  188.0550  176.5470  136.2440 C   0  0  0  0  0  3  0  0  0  0  0  0
  190.6530  175.4150  137.6560 C   0  0  0  0  0  0  0  0  0  0  0  0
  186.8520  178.2390  137.1360 C   0  0  0  0  0  3  0  0  0  0  0  0
  192.9420  174.5820  137.3980 C   0  0  0  0  0  3  0  0  0  0  0  0
  190.2960  177.3240  139.1510 C   0  0  0  0  0  0  0  0  0  0  0  0
  192.5200  176.4180  138.8810 C   0  0  0  0  0  3  0  0  0  0  0  0
  188.5260  173.7180  136.9540 Cl  0  0  0  0  0  0  0  0  0  0  0  0
  188.2190  178.6620  139.1060 N   0  0  0  0  0  2  0  0  0  0  0  0
  189.3720  178.2560  139.9090 C   0  0  1  0  0  3  0  0  0  0  0  0
  186.9690  177.3880  136.0550 C   0  0  0  0  0  0  0  0  0  0  0  0
  188.5380  176.8830  137.5000 C   0  0  0  0  0  0  0  0  0  0  0  0
  191.6460  177.3040  139.5010 C   0  0  0  0  0  3  0  0  0  0  0  0
  187.2780  177.3800  142.9650 C   0  0  0  0  0  0  0  0  0  0  0  0
  188.0810  176.4100  143.5700 C   0  0  0  0  0  3  0  0  0  0  0  0
  188.9140  177.6270  141.1890 C   0  0  0  0  0  0  0  0  0  0  0  0
  189.2980  176.0460  142.9860 C   0  0  0  0  0  3  0  0  0  0  0  0
  187.6910  177.9880  141.7770 C   0  0  0  0  0  3  0  0  0  0  0  0
  189.7130  176.6530  141.7970 C   0  0  0  0  0  3  0  0  0  0  0  0
  186.0980  177.7320  143.5300 F   0  0  0  0  0  0  0  0  0  0  0  0
  186.0750  177.3810  134.8670 C   0  0  0  0  0  2  0  0  0  0  0  0
  184.7890  176.8010  135.2270 N   0  0  0  0  0  2  0  0  0  0  0  0
  183.6160  176.6700  137.8630 C   0  0  0  0  0  1  0  0  0  0  0  0
  184.6490  175.5320  135.8760 C   0  0  0  0  0  0  0  0  0  0  0  0
  184.0710  175.4630  137.1950 N   0  0  0  0  0  0  0  0  0  0  0  0
  184.9660  173.1950  137.4570 C   0  0  0  0  0  2  0  0  0  0  0  0
  184.9550  173.0700  135.9380 C   0  0  0  0  0  2  0  0  0  0  0  0
  185.1100  174.4160  135.2920 C   0  0  0  0  0  3  0  0  0  0  0  0
  183.8830  174.1830  137.8770 C   0  0  0  0  0  2  0  0  0  0  0  0
  1 12  1  0  0  0  0
  2 13  1  0  0  0  0
  2  8  1  0  0  0  0
  3 11  2  0  0  0  0
  4 14  1  0  0  0  0
  5 10  2  0  0  0  0
  6  5  1  0  0  0  0
  6  2  2  0  0  0  0
  7 17  2  0  0  0  0
  8  1  2  0  0  0  0
  8  3  1  0  0  0  0
  9  4  1  0  0  0  0
 10  1  1  0  0  0  0
 11 18  1  0  0  0  0
 11 15  1  0  0  0  0
 12 18  2  0  0  0  0
 14 15  1  0  0  0  0
 15 21  1  1  0  0  0
 16  7  1  0  0  0  0
 16  9  2  0  0  0  0
 17  4  1  0  0  0  0
 17  3  1  0  0  0  0
 19 25  1  0  0  0  0
 19 20  1  0  0  0  0
 21 23  1  0  0  0  0
 21 24  2  0  0  0  0
 22 20  2  0  0  0  0
 23 19  2  0  0  0  0
 24 22  1  0  0  0  0
 26 27  1  0  0  0  0
 26 16  1  0  0  0  0
 27 29  1  0  0  0  0
 29 30  1  0  0  0  0
 30 28  1  0  0  0  0
 30 34  1  0  0  0  0
 31 34  1  0  0  0  0
 32 31  1  0  0  0  0
 33 29  2  0  0  0  0
 33 32  1  0  0  0  0
M  END
>  <MODEL>
4

>  <REMARK>
 VINA RESULT:      -8.3      3.535      8.161
  Name = 
  4 active torsions:
  status: ('A' for Active; 'I' for Inactive)
    1  A    between atoms: N_3  and  C_13
    2  A    between atoms: N_3  and  C_17
    3  A    between atoms: C_12  and  C_28
    4  A    between atoms: C_17  and  C_29
                            x       y       z     vdW  Elec       q    Type
                         _______ _______ _______ _____ _____    ______ ____

>  <TORSDO>
F 4

$$$$
=
 OpenBabel10252414483D

 34 39  0  0  1  0  0  0  0  0999 V2000
  182.5440  177.4520  136.1340 C   0  0  0  0  0  0  0  0  0  0  0  0
  184.1880  177.8710  137.8800 C   0  0  0  0  0  0  0  0  0  0  0  0
  181.8940  178.9120  137.9790 C   0  0  0  0  0  0  0  0  0  0  0  0
  180.8160  179.9440  139.9360 N   0  0  0  0  0  0  0  0  0  0  0  0
  184.6210  176.2180  136.1550 C   0  0  0  0  0  3  0  0  0  0  0  0
  185.0270  176.9230  137.2850 C   0  0  0  0  0  3  0  0  0  0  0  0
  182.4470  178.5240  140.4730 C   0  0  0  0  0  3  0  0  0  0  0  0
  182.8760  178.0780  137.3690 C   0  0  0  0  0  0  0  0  0  0  0  0
  180.8100  179.8600  141.2740 C   0  0  0  0  0  3  0  0  0  0  0  0
  183.3940  176.5040  135.5640 C   0  0  0  0  0  3  0  0  0  0  0  0
  180.7840  179.3440  137.2120 C   0  0  0  0  0  0  0  0  0  0  0  0
  181.3840  177.8060  135.4470 C   0  0  0  0  0  3  0  0  0  0  0  0
  184.9770  178.9640  139.0120 Cl  0  0  0  0  0  0  0  0  0  0  0  0
  179.8060  180.5170  139.1550 N   0  0  0  0  0  2  0  0  0  0  0  0
  179.8680  180.4510  137.6950 C   0  0  1  0  0  3  0  0  0  0  0  0
  181.8320  178.9990  141.6210 C   0  0  0  0  0  0  0  0  0  0  0  0
  181.8010  179.1800  139.4370 C   0  0  0  0  0  0  0  0  0  0  0  0
  180.5330  178.7770  135.9630 C   0  0  0  0  0  3  0  0  0  0  0  0
  181.5830  183.8250  137.2830 C   0  0  0  0  0  0  0  0  0  0  0  0
  181.0780  184.2320  136.0450 C   0  0  0  0  0  3  0  0  0  0  0  0
  180.2920  181.7740  137.1360 C   0  0  0  0  0  0  0  0  0  0  0  0
  180.1820  183.4120  135.3520 C   0  0  0  0  0  3  0  0  0  0  0  0
  181.1920  182.5990  137.8280 C   0  0  0  0  0  3  0  0  0  0  0  0
  179.7910  182.1850  135.8960 C   0  0  0  0  0  3  0  0  0  0  0  0
  182.4520  184.6180  137.9550 F   0  0  0  0  0  0  0  0  0  0  0  0
  182.2080  178.6290  143.0120 C   0  0  0  0  0  2  0  0  0  0  0  0
  183.3210  179.4580  143.4530 N   0  0  0  0  0  2  0  0  0  0  0  0
  185.7600  178.3850  142.3380 C   0  0  0  0  0  1  0  0  0  0  0  0
  184.3530  178.9920  144.3300 C   0  0  0  0  0  0  0  0  0  0  0  0
  185.5690  178.4490  143.7780 N   0  0  0  0  0  0  0  0  0  0  0  0
  186.1040  177.4580  145.9560 C   0  0  0  0  0  2  0  0  0  0  0  0
  185.2440  178.5390  146.6010 C   0  0  0  0  0  2  0  0  0  0  0  0
  184.1700  178.9990  145.6580 C   0  0  0  0  0  3  0  0  0  0  0  0
  186.6580  177.9910  144.6400 C   0  0  0  0  0  2  0  0  0  0  0  0
  1  8  1  0  0  0  0
  2 13  1  0  0  0  0
  3 17  1  0  0  0  0
  4  9  1  0  0  0  0
  5  6  1  0  0  0  0
  6  2  2  0  0  0  0
  7 16  1  0  0  0  0
  8  2  1  0  0  0  0
  8  3  2  0  0  0  0
  9 16  2  0  0  0  0
 10  1  1  0  0  0  0
 10  5  2  0  0  0  0
 11 15  1  0  0  0  0
 11  3  1  0  0  0  0
 12 18  1  0  0  0  0
 12  1  2  0  0  0  0
 14  4  1  0  0  0  0
 15 21  1  1  0  0  0
 15 14  1  0  0  0  0
 16 26  1  0  0  0  0
 17  4  1  0  0  0  0
 17  7  2  0  0  0  0
 18 11  2  0  0  0  0
 19 23  1  0  0  0  0
 19 25  1  0  0  0  0
 20 19  2  0  0  0  0
 21 23  2  0  0  0  0
 22 24  2  0  0  0  0
 22 20  1  0  0  0  0
 24 21  1  0  0  0  0
 26 27  1  0  0  0  0
 27 29  1  0  0  0  0
 28 30  1  0  0  0  0
 29 33  2  0  0  0  0
 30 29  1  0  0  0  0
 30 34  1  0  0  0  0
 31 32  1  0  0  0  0
 33 32  1  0  0  0  0
 34 31  1  0  0  0  0
M  END
>  <MODEL>
5

>  <REMARK>
 VINA RESULT:      -8.1      4.523      7.625
  Name = 
  4 active torsions:
  status: ('A' for Active; 'I' for Inactive)
    1  A    between atoms: N_3  and  C_13
    2  A    between atoms: N_3  and  C_17
    3  A    between atoms: C_12  and  C_28
    4  A    between atoms: C_17  and  C_29
                            x       y       z     vdW  Elec       q    Type
                         _______ _______ _______ _____ _____    ______ ____

>  <TORSDO>
F 4

$$$$
=
 OpenBabel10252414483D

 34 39  0  0  1  0  0  0  0  0999 V2000
  180.8150  180.5940  139.9550 C   0  0  0  0  0  0  0  0  0  0  0  0
  180.6380  179.4300  142.0860 C   0  0  0  0  0  0  0  0  0  0  0  0
  182.7190  179.2460  140.6750 C   0  0  0  0  0  0  0  0  0  0  0  0
  184.9290  178.4340  141.3910 N   0  0  0  0  0  0  0  0  0  0  0  0
  178.9310  181.0180  141.4060 C   0  0  0  0  0  3  0  0  0  0  0  0
  179.4260  180.0890  142.3180 C   0  0  0  0  0  3  0  0  0  0  0  0
  183.6530  179.1260  143.0820 C   0  0  0  0  0  3  0  0  0  0  0  0
  181.4110  179.7520  140.9360 C   0  0  0  0  0  0  0  0  0  0  0  0
  185.6940  178.3580  142.4890 C   0  0  0  0  0  3  0  0  0  0  0  0
  179.6100  181.2470  140.2130 C   0  0  0  0  0  3  0  0  0  0  0  0
  183.2360  179.3190  139.3580 C   0  0  0  0  0  0  0  0  0  0  0  0
  181.4010  180.7480  138.7000 C   0  0  0  0  0  3  0  0  0  0  0  0
  180.9190  178.0070  143.0830 Cl  0  0  0  0  0  0  0  0  0  0  0  0
  185.3900  178.3420  140.0730 N   0  0  0  0  0  2  0  0  0  0  0  0
  184.4780  178.5520  138.9490 C   0  0  1  0  0  3  0  0  0  0  0  0
  184.9070  178.7630  143.5490 C   0  0  0  0  0  0  0  0  0  0  0  0
  183.7000  178.8600  141.7220 C   0  0  0  0  0  0  0  0  0  0  0  0
  182.5810  180.0800  138.3910 C   0  0  0  0  0  3  0  0  0  0  0  0
  184.4630  175.5040  136.6680 C   0  0  0  0  0  0  0  0  0  0  0  0
  183.4090  174.7660  137.2150 C   0  0  0  0  0  3  0  0  0  0  0  0
  184.1110  177.2390  138.3300 C   0  0  0  0  0  0  0  0  0  0  0  0
  182.7070  175.2620  138.3180 C   0  0  0  0  0  3  0  0  0  0  0  0
  184.8150  176.7370  137.2230 C   0  0  0  0  0  3  0  0  0  0  0  0
  183.0580  176.4950  138.8750 C   0  0  0  0  0  3  0  0  0  0  0  0
  185.1450  175.0240  135.6000 F   0  0  0  0  0  0  0  0  0  0  0  0
  185.3420  178.8150  144.9700 C   0  0  0  0  0  2  0  0  0  0  0  0
  186.1200  177.6250  145.2850 N   0  0  0  0  0  2  0  0  0  0  0  0
  188.5770  176.8060  144.0050 C   0  0  0  0  0  1  0  0  0  0  0  0
  187.3470  177.6580  146.0240 C   0  0  0  0  0  0  0  0  0  0  0  0
  188.5740  177.2430  145.3910 N   0  0  0  0  0  0  0  0  0  0  0  0
  189.6360  177.0590  147.5940 C   0  0  0  0  0  2  0  0  0  0  0  0
  188.6250  178.0780  148.1090 C   0  0  0  0  0  2  0  0  0  0  0  0
  187.3510  178.0110  147.3180 C   0  0  0  0  0  3  0  0  0  0  0  0
  189.8510  177.2910  146.1030 C   0  0  0  0  0  2  0  0  0  0  0  0
  1 10  2  0  0  0  0
  1  8  1  0  0  0  0
  2  6  1  0  0  0  0
  2 13  1  0  0  0  0
  3  8  1  0  0  0  0
  3 17  1  0  0  0  0
  4 17  1  0  0  0  0
  4  9  1  0  0  0  0
  5  6  2  0  0  0  0
  7 16  1  0  0  0  0
  8  2  2  0  0  0  0
  9 16  2  0  0  0  0
 10  5  1  0  0  0  0
 11  3  2  0  0  0  0
 12  1  1  0  0  0  0
 14  4  1  0  0  0  0
 15 21  1  1  0  0  0
 15 11  1  0  0  0  0
 15 14  1  0  0  0  0
 16 26  1  0  0  0  0
 17  7  2  0  0  0  0
 18 12  2  0  0  0  0
 18 11  1  0  0  0  0
 19 20  2  0  0  0  0
 19 23  1  0  0  0  0
 20 22  1  0  0  0  0
 21 24  1  0  0  0  0
 22 24  2  0  0  0  0
 23 21  2  0  0  0  0
 25 19  1  0  0  0  0
 26 27  1  0  0  0  0
 27 29  1  0  0  0  0
 28 30  1  0  0  0  0
 29 33  2  0  0  0  0
 30 29  1  0  0  0  0
 30 34  1  0  0  0  0
 31 32  1  0  0  0  0
 33 32  1  0  0  0  0
 34 31  1  0  0  0  0
M  END
>  <MODEL>
6

>  <REMARK>
 VINA RESULT:      -8.1      2.942      5.029
  Name = 
  4 active torsions:
  status: ('A' for Active; 'I' for Inactive)
    1  A    between atoms: N_3  and  C_13
    2  A    between atoms: N_3  and  C_17
    3  A    between atoms: C_12  and  C_28
    4  A    between atoms: C_17  and  C_29
                            x       y       z     vdW  Elec       q    Type
                         _______ _______ _______ _____ _____    ______ ____

>  <TORSDO>
F 4

$$$$
=
 OpenBabel10252414483D

 34 39  0  0  1  0  0  0  0  0999 V2000
  185.4210  178.8390  144.2650 C   0  0  0  0  0  0  0  0  0  0  0  0
  187.1810  177.1660  144.1000 C   0  0  0  0  0  0  0  0  0  0  0  0
  186.2250  178.2540  142.0360 C   0  0  0  0  0  0  0  0  0  0  0  0
  187.1990  178.2610  139.7760 N   0  0  0  0  0  0  0  0  0  0  0  0
  186.5060  178.0300  146.2660 C   0  0  0  0  0  3  0  0  0  0  0  0
  187.2890  177.1750  145.4940 C   0  0  0  0  0  3  0  0  0  0  0  0
  188.6950  177.8680  141.3800 C   0  0  0  0  0  3  0  0  0  0  0  0
  186.3080  178.0830  143.4490 C   0  0  0  0  0  0  0  0  0  0  0  0
  188.3920  178.2060  139.1670 C   0  0  0  0  0  3  0  0  0  0  0  0
  185.5530  178.8390  145.6540 C   0  0  0  0  0  3  0  0  0  0  0  0
  185.0880  178.8950  141.4850 C   0  0  0  0  0  0  0  0  0  0  0  0
  184.3730  179.5620  143.6950 C   0  0  0  0  0  3  0  0  0  0  0  0
  187.8990  175.7700  143.3020 Cl  0  0  0  0  0  0  0  0  0  0  0  0
  186.0150  178.7360  139.2000 N   0  0  0  0  0  2  0  0  0  0  0  0
  184.7950  178.8530  139.9990 C   0  0  1  0  0  3  0  0  0  0  0  0
  189.3260  177.9410  140.1480 C   0  0  0  0  0  0  0  0  0  0  0  0
  187.3500  178.0330  141.0910 C   0  0  0  0  0  0  0  0  0  0  0  0
  184.1840  179.5530  142.3180 C   0  0  0  0  0  3  0  0  0  0  0  0
  183.0170  176.0440  138.1450 C   0  0  0  0  0  0  0  0  0  0  0  0
  182.0970  175.6260  139.1110 C   0  0  0  0  0  3  0  0  0  0  0  0
  183.8560  177.7330  139.6730 C   0  0  0  0  0  0  0  0  0  0  0  0
  182.0570  176.2590  140.3570 C   0  0  0  0  0  3  0  0  0  0  0  0
  183.8950  177.0940  138.4230 C   0  0  0  0  0  3  0  0  0  0  0  0
  182.9350  177.3090  140.6380 C   0  0  0  0  0  3  0  0  0  0  0  0
  183.0570  175.4300  136.9380 F   0  0  0  0  0  0  0  0  0  0  0  0
  190.7860  177.7710  139.9200 C   0  0  0  0  0  2  0  0  0  0  0  0
  191.0650  176.3900  139.5530 N   0  0  0  0  0  2  0  0  0  0  0  0
  193.4830  176.7250  138.0100 C   0  0  0  0  0  1  0  0  0  0  0  0
  191.1080  175.9270  138.1980 C   0  0  0  0  0  0  0  0  0  0  0  0
  192.3110  176.0990  137.4220 N   0  0  0  0  0  0  0  0  0  0  0  0
  191.0380  175.6640  135.3720 C   0  0  0  0  0  2  0  0  0  0  0  0
  190.0420  174.8780  136.2180 C   0  0  0  0  0  2  0  0  0  0  0  0
  190.0180  175.3930  137.6270 C   0  0  0  0  0  3  0  0  0  0  0  0
  192.4040  175.6120  136.0460 C   0  0  0  0  0  2  0  0  0  0  0  0
  1 10  2  0  0  0  0
  2  6  1  0  0  0  0
  3  8  1  0  0  0  0
  4 17  1  0  0  0  0
  6  5  2  0  0  0  0
  8  2  2  0  0  0  0
  8  1  1  0  0  0  0
  9  4  1  0  0  0  0
  9 16  2  0  0  0  0
 10  5  1  0  0  0  0
 11  3  2  0  0  0  0
 11 18  1  0  0  0  0
 12  1  1  0  0  0  0
 13  2  1  0  0  0  0
 14  4  1  0  0  0  0
 14 15  1  0  0  0  0
 15 21  1  1  0  0  0
 15 11  1  0  0  0  0
 16  7  1  0  0  0  0
 17  7  2  0  0  0  0
 17  3  1  0  0  0  0
 18 12  2  0  0  0  0
 19 23  2  0  0  0  0
 19 20  1  0  0  0  0
 20 22  2  0  0  0  0
 21 24  2  0  0  0  0
 22 24  1  0  0  0  0
 23 21  1  0  0  0  0
 25 19  1  0  0  0  0
 26 16  1  0  0  0  0
 27 26  1  0  0  0  0
 29 27  1  0  0  0  0
 30 28  1  0  0  0  0
 30 29  1  0  0  0  0
 31 34  1  0  0  0  0
 31 32  1  0  0  0  0
 32 33  1  0  0  0  0
 33 29  2  0  0  0  0
 34 30  1  0  0  0  0
M  END
>  <MODEL>
7

>  <REMARK>
 VINA RESULT:      -7.9      2.056      3.594
  Name = 
  4 active torsions:
  status: ('A' for Active; 'I' for Inactive)
    1  A    between atoms: N_3  and  C_13
    2  A    between atoms: N_3  and  C_17
    3  A    between atoms: C_12  and  C_28
    4  A    between atoms: C_17  and  C_29
                            x       y       z     vdW  Elec       q    Type
                         _______ _______ _______ _____ _____    ______ ____

>  <TORSDO>
F 4

$$$$
=
 OpenBabel10252414483D

 34 39  0  0  1  0  0  0  0  0999 V2000
  184.5560  176.4980  135.9780 C   0  0  0  0  0  0  0  0  0  0  0  0
  186.5910  177.7780  136.3600 C   0  0  0  0  0  0  0  0  0  0  0  0
  184.6440  177.9290  137.9540 C   0  0  0  0  0  0  0  0  0  0  0  0
  184.6680  178.8330  140.2430 N   0  0  0  0  0  0  0  0  0  0  0  0
  186.4990  176.1140  134.5940 C   0  0  0  0  0  3  0  0  0  0  0  0
  187.1880  177.1050  135.2880 C   0  0  0  0  0  3  0  0  0  0  0  0
  186.6810  178.2100  139.5200 C   0  0  0  0  0  3  0  0  0  0  0  0
  185.2870  177.4080  136.7930 C   0  0  0  0  0  0  0  0  0  0  0  0
  185.5010  178.9890  141.2810 C   0  0  0  0  0  3  0  0  0  0  0  0
  185.1750  175.8330  134.9200 C   0  0  0  0  0  3  0  0  0  0  0  0
  183.2400  177.7930  138.0840 C   0  0  0  0  0  0  0  0  0  0  0  0
  183.1950  176.2860  136.1950 C   0  0  0  0  0  3  0  0  0  0  0  0
  187.3990  179.2620  136.8540 Cl  0  0  0  0  0  0  0  0  0  0  0  0
  183.2700  178.8590  140.3130 N   0  0  0  0  0  2  0  0  0  0  0  0
  182.4610  178.5640  139.1310 C   0  0  1  0  0  3  0  0  0  0  0  0
  186.7580  178.6270  140.8400 C   0  0  0  0  0  0  0  0  0  0  0  0
  185.3520  178.3970  139.1730 C   0  0  0  0  0  0  0  0  0  0  0  0
  182.5340  176.9630  137.2140 C   0  0  0  0  0  3  0  0  0  0  0  0
  182.0300  182.2280  138.1900 C   0  0  0  0  0  0  0  0  0  0  0  0
  180.8520  182.1740  137.4400 C   0  0  0  0  0  3  0  0  0  0  0  0
  181.9070  179.8310  138.5550 C   0  0  0  0  0  0  0  0  0  0  0  0
  180.2020  180.9520  137.2460 C   0  0  0  0  0  3  0  0  0  0  0  0
  182.5580  181.0600  138.7460 C   0  0  0  0  0  3  0  0  0  0  0  0
  180.7290  179.7820  137.8010 C   0  0  0  0  0  3  0  0  0  0  0  0
  182.6600  183.4120  138.3780 F   0  0  0  0  0  0  0  0  0  0  0  0
  188.0000  178.6680  141.6570 C   0  0  0  0  0  2  0  0  0  0  0  0
  188.0180  177.5350  142.5720 N   0  0  0  0  0  2  0  0  0  0  0  0
  190.4830  177.4920  144.0760 C   0  0  0  0  0  1  0  0  0  0  0  0
  187.9780  177.6720  143.9970 C   0  0  0  0  0  0  0  0  0  0  0  0
  189.2050  177.6430  144.7530 N   0  0  0  0  0  0  0  0  0  0  0  0
  187.9210  177.2560  146.8050 C   0  0  0  0  0  2  0  0  0  0  0  0
  186.7330  177.9310  146.1280 C   0  0  0  0  0  2  0  0  0  0  0  0
  186.8030  177.7620  144.6380 C   0  0  0  0  0  3  0  0  0  0  0  0
  189.2090  177.8110  146.2060 C   0  0  0  0  0  2  0  0  0  0  0  0
  1 12  2  0  0  0  0
  1  8  1  0  0  0  0
  2  8  1  0  0  0  0
  2 13  1  0  0  0  0
  3 11  1  0  0  0  0
  3 17  1  0  0  0  0
  4 14  1  0  0  0  0
  4  9  1  0  0  0  0
  5 10  2  0  0  0  0
  5  6  1  0  0  0  0
  6  2  2  0  0  0  0
  7 16  1  0  0  0  0
  8  3  2  0  0  0  0
 10  1  1  0  0  0  0
 11 15  1  0  0  0  0
 12 18  1  0  0  0  0
 15 21  1  6  0  0  0
 15 14  1  0  0  0  0
 16  9  2  0  0  0  0
 16 26  1  0  0  0  0
 17  7  2  0  0  0  0
 17  4  1  0  0  0  0
 18 11  2  0  0  0  0
 19 25  1  0  0  0  0
 19 23  1  0  0  0  0
 20 19  2  0  0  0  0
 21 23  2  0  0  0  0
 22 20  1  0  0  0  0
 22 24  2  0  0  0  0
 24 21  1  0  0  0  0
 26 27  1  0  0  0  0
 27 29  1  0  0  0  0
 28 30  1  0  0  0  0
 29 33  2  0  0  0  0
 29 30  1  0  0  0  0
 30 34  1  0  0  0  0
 32 31  1  0  0  0  0
 33 32  1  0  0  0  0
 34 31  1  0  0  0  0
M  END
>  <MODEL>
8

>  <REMARK>
 VINA RESULT:      -7.8      3.337      5.944
  Name = 
  4 active torsions:
  status: ('A' for Active; 'I' for Inactive)
    1  A    between atoms: N_3  and  C_13
    2  A    between atoms: N_3  and  C_17
    3  A    between atoms: C_12  and  C_28
    4  A    between atoms: C_17  and  C_29
                            x       y       z     vdW  Elec       q    Type
                         _______ _______ _______ _____ _____    ______ ____

>  <TORSDO>
F 4

$$$$
=
 OpenBabel10252414483D

 34 39  0  0  1  0  0  0  0  0999 V2000
  185.4690  178.7670  140.7770 C   0  0  0  0  0  0  0  0  0  0  0  0
  186.4450  177.6330  142.6970 C   0  0  0  0  0  0  0  0  0  0  0  0
  187.7230  177.8620  140.5360 C   0  0  0  0  0  0  0  0  0  0  0  0
  190.1400  177.5430  140.2010 N   0  0  0  0  0  0  0  0  0  0  0  0
  184.3350  178.8160  142.9100 C   0  0  0  0  0  3  0  0  0  0  0  0
  185.3420  178.0290  143.4620 C   0  0  0  0  0  3  0  0  0  0  0  0
  189.5930  177.9850  142.3150 C   0  0  0  0  0  3  0  0  0  0  0  0
  186.5780  178.0880  141.3550 C   0  0  0  0  0  0  0  0  0  0  0  0
  191.2960  177.6500  140.8700 C   0  0  0  0  0  3  0  0  0  0  0  0
  184.3840  179.1590  141.5620 C   0  0  0  0  0  3  0  0  0  0  0  0
  187.6070  178.0160  139.1320 C   0  0  0  0  0  0  0  0  0  0  0  0
  185.4240  179.0160  139.4060 C   0  0  0  0  0  3  0  0  0  0  0  0
  187.3970  176.3190  143.3800 Cl  0  0  0  0  0  0  0  0  0  0  0  0
  190.0070  177.5250  138.8080 N   0  0  0  0  0  2  0  0  0  0  0  0
  188.6820  177.5170  138.1880 C   0  0  1  0  0  3  0  0  0  0  0  0
  190.9710  177.9020  142.1880 C   0  0  0  0  0  0  0  0  0  0  0  0
  189.1100  177.7090  141.0460 C   0  0  0  0  0  0  0  0  0  0  0  0
  186.4670  178.6040  138.5850 C   0  0  0  0  0  3  0  0  0  0  0  0
  189.0360  173.9230  136.9850 C   0  0  0  0  0  0  0  0  0  0  0  0
  187.6980  173.5800  136.7710 C   0  0  0  0  0  3  0  0  0  0  0  0
  188.3540  176.1450  137.6860 C   0  0  0  0  0  0  0  0  0  0  0  0
  186.6890  174.5160  137.0140 C   0  0  0  0  0  3  0  0  0  0  0  0
  189.3650  175.2010  137.4420 C   0  0  0  0  0  3  0  0  0  0  0  0
  187.0160  175.7950  137.4720 C   0  0  0  0  0  3  0  0  0  0  0  0
  190.0150  173.0160  136.7500 F   0  0  0  0  0  0  0  0  0  0  0  0
  191.9470  178.0700  143.2960 C   0  0  0  0  0  2  0  0  0  0  0  0
  191.7250  177.0410  144.3020 N   0  0  0  0  0  2  0  0  0  0  0  0
  192.3210  175.6480  146.7610 C   0  0  0  0  0  1  0  0  0  0  0  0
  190.8730  177.2200  145.4400 C   0  0  0  0  0  0  0  0  0  0  0  0
  191.1630  176.5210  146.6670 N   0  0  0  0  0  0  0  0  0  0  0  0
  188.8940  176.9990  147.4630 C   0  0  0  0  0  2  0  0  0  0  0  0
  188.8780  178.2080  146.5350 C   0  0  0  0  0  2  0  0  0  0  0  0
  189.7740  177.9830  145.3520 C   0  0  0  0  0  3  0  0  0  0  0  0
  190.3360  176.7020  147.8600 C   0  0  0  0  0  2  0  0  0  0  0  0
  1  8  1  0  0  0  0
  1 10  2  0  0  0  0
  2 13  1  0  0  0  0
  2  6  1  0  0  0  0
  3 17  1  0  0  0  0
  3  8  1  0  0  0  0
  4  9  1  0  0  0  0
  4 17  1  0  0  0  0
  5  6  2  0  0  0  0
  8  2  2  0  0  0  0
  9 16  2  0  0  0  0
 10  5  1  0  0  0  0
 11  3  2  0  0  0  0
 12  1  1  0  0  0  0
 14  4  1  0  0  0  0
 15 21  1  1  0  0  0
 15 14  1  0  0  0  0
 15 11  1  0  0  0  0
 16  7  1  0  0  0  0
 16 26  1  0  0  0  0
 17  7  2  0  0  0  0
 18 11  1  0  0  0  0
 18 12  2  0  0  0  0
 19 23  1  0  0  0  0
 20 19  2  0  0  0  0
 20 22  1  0  0  0  0
 22 24  2  0  0  0  0
 23 21  2  0  0  0  0
 24 21  1  0  0  0  0
 25 19  1  0  0  0  0
 26 27  1  0  0  0  0
 27 29  1  0  0  0  0
 29 30  1  0  0  0  0
 30 28  1  0  0  0  0
 30 34  1  0  0  0  0
 31 34  1  0  0  0  0
 32 31  1  0  0  0  0
 33 29  2  0  0  0  0
 33 32  1  0  0  0  0
M  END
>  <MODEL>
9

>  <REMARK>
 VINA RESULT:      -7.7      2.448      3.889
  Name = 
  4 active torsions:
  status: ('A' for Active; 'I' for Inactive)
    1  A    between atoms: N_3  and  C_13
    2  A    between atoms: N_3  and  C_17
    3  A    between atoms: C_12  and  C_28
    4  A    between atoms: C_17  and  C_29
                            x       y       z     vdW  Elec       q    Type
                         _______ _______ _______ _____ _____    ______ ____

>  <TORSDO>
F 4

$$$$
