=
 OpenBabel10262419343D

 31 35  0  0  1  0  0  0  0  0999 V2000
  190.9430  176.5450  136.4890 C   0  0  0  0  0  0  0  0  0  0  0  0
  188.4670  178.0180  138.8750 N   0  0  0  0  0  0  0  0  0  0  0  0
  187.1490  177.9680  138.3360 C   0  0  0  0  0  0  0  0  0  0  0  0
  185.3830  177.7230  136.7280 C   0  0  0  0  0  0  0  0  0  0  0  0
  189.6320  177.3750  138.3380 C   0  0  0  0  0  0  0  0  0  0  0  0
  191.8860  176.1020  137.3640 N   0  0  0  0  0  0  0  0  0  0  0  0
  186.7600  177.7200  137.0190 C   0  0  0  0  0  3  0  0  0  0  0  0
  189.0170  177.2500  141.1410 C   0  0  2  0  0  3  0  0  0  0  0  0
  191.1030  176.3750  135.2530 O   0  0  0  0  0  0  0  0  0  0  0  0
  186.2870  179.0390  141.7160 C   0  0  0  0  0  1  0  0  0  0  0  0
  184.9630  177.4900  135.4630 F   0  0  0  0  0  0  0  0  0  0  0  0
  190.4810  177.1070  140.7050 C   0  0  0  0  0  2  0  0  0  0  0  0
  188.3360  178.3390  140.3070 C   0  0  2  0  0  3  0  0  0  0  0  0
  189.7980  177.1900  136.9610 C   0  0  0  0  0  2  0  0  0  0  0  0
  184.4410  177.9690  137.7480 C   0  0  0  0  0  3  0  0  0  0  0  0
  190.6130  176.8950  139.2220 C   0  0  0  0  0  0  0  0  0  0  0  0
  191.7470  176.2660  138.7070 C   0  0  0  0  0  3  0  0  0  0  0  0
  186.8900  178.3890  140.5650 N   0  0  0  0  0  0  0  0  0  0  0  0
  186.2350  178.1970  139.3210 C   0  0  0  0  0  0  0  0  0  0  0  0
  184.8630  178.2100  139.0670 C   0  0  0  0  0  3  0  0  0  0  0  0
  187.9290  175.6070  143.1930 O   0  0  0  0  0  0  0  0  0  0  0  0
  188.4050  176.7210  143.5430 C   0  0  0  0  0  0  0  0  0  0  0  0
  188.9590  177.5940  142.5540 N   0  0  0  0  0  2  0  0  0  0  0  0
  188.2620  177.9420  147.6570 C   0  0  0  0  0  0  0  0  0  0  0  0
  187.1700  177.5260  145.5400 C   0  0  0  0  0  3  0  0  0  0  0  0
  190.7920  176.7820  145.2480 O   0  0  0  0  0  1  0  0  0  0  0  0
  188.1960  178.3470  149.0180 N   0  0  0  0  0  1  0  0  0  0  0  0
  187.1050  177.9260  146.8770 C   0  0  0  0  0  3  0  0  0  0  0  0
  189.5570  177.1560  145.7620 C   0  0  0  0  0  0  0  0  0  0  0  0
  188.3900  177.1370  144.9640 C   0  0  0  0  0  0  0  0  0  0  0  0
  189.4830  177.5570  147.1000 C   0  0  0  0  0  3  0  0  0  0  0  0
  1 14  1  0  0  0  0
  1  6  1  0  0  0  0
  3  2  1  0  0  0  0
  3 19  1  0  0  0  0
  4  7  1  0  0  0  0
  4 15  2  0  0  0  0
  5  2  1  0  0  0  0
  5 16  2  0  0  0  0
  6 17  2  0  0  0  0
  7  3  2  0  0  0  0
  8 23  1  1  0  0  0
  9  1  2  0  0  0  0
 11  4  1  0  0  0  0
 12  8  1  0  0  0  0
 13  2  1  6  0  0  0
 13 18  1  0  0  0  0
 13  8  1  0  0  0  0
 14  5  1  0  0  0  0
 15 20  1  0  0  0  0
 16 12  1  0  0  0  0
 17 16  1  0  0  0  0
 18 10  1  0  0  0  0
 19 18  1  0  0  0  0
 20 19  2  0  0  0  0
 21 22  2  0  0  0  0
 22 30  1  0  0  0  0
 23 22  1  0  0  0  0
 24 27  1  0  0  0  0
 25 28  1  0  0  0  0
 26 29  1  0  0  0  0
 28 24  2  0  0  0  0
 29 31  2  0  0  0  0
 30 25  2  0  0  0  0
 30 29  1  0  0  0  0
 31 24  1  0  0  0  0
M  END
>  <MODEL>
1

>  <REMARK>
 VINA RESULT:      -9.4      0.000      0.000
  Name = 
  2 active torsions:
  status: ('A' for Active; 'I' for Inactive)
    1  A    between atoms: C_9  and  C_22
    2  A    between atoms: C_15  and  N_23
                            x       y       z     vdW  Elec       q    Type
                         _______ _______ _______ _____ _____    ______ ____

>  <TORSDO>
F 2

$$$$
=
 OpenBabel10262419343D

 31 35  0  0  1  0  0  0  0  0999 V2000
  190.3270  176.2560  142.7220 C   0  0  0  0  0  0  0  0  0  0  0  0
  186.9330  177.4980  143.6900 N   0  0  0  0  0  0  0  0  0  0  0  0
  186.8870  177.8210  145.0760 C   0  0  0  0  0  0  0  0  0  0  0  0
  187.5300  177.9190  147.3870 C   0  0  0  0  0  0  0  0  0  0  0  0
  188.1090  177.1850  142.9270 C   0  0  0  0  0  0  0  0  0  0  0  0
  190.3570  176.6330  141.4140 N   0  0  0  0  0  0  0  0  0  0  0  0
  187.7960  177.4800  146.0770 C   0  0  0  0  0  3  0  0  0  0  0  0
  186.1300  179.0140  141.9330 C   0  0  2  0  0  3  0  0  0  0  0  0
  191.3140  175.6630  143.2280 O   0  0  0  0  0  0  0  0  0  0  0  0
  183.6400  179.1840  144.1160 C   0  0  0  0  0  1  0  0  0  0  0  0
  188.3850  177.6070  148.3880 F   0  0  0  0  0  0  0  0  0  0  0  0
  187.0010  178.2570  140.9220 C   0  0  0  0  0  2  0  0  0  0  0  0
  185.7250  178.0710  143.0720 C   0  0  2  0  0  3  0  0  0  0  0  0
  189.2010  176.5250  143.5020 C   0  0  0  0  0  3  0  0  0  0  0  0
  186.3750  178.6810  147.6600 C   0  0  0  0  0  3  0  0  0  0  0  0
  188.1700  177.5780  141.5800 C   0  0  2  0  0  3  0  0  0  0  0  0
  189.3110  177.2780  140.8330 C   0  0  0  0  0  3  0  0  0  0  0  0
  185.0400  178.7940  144.1510 N   0  0  0  0  0  0  0  0  0  0  0  0
  185.7760  178.5660  145.3430 C   0  0  0  0  0  0  0  0  0  0  0  0
  185.4800  179.0150  146.6300 C   0  0  0  0  0  3  0  0  0  0  0  0
  184.0690  177.4250  140.7820 O   0  0  0  0  0  0  0  0  0  0  0  0
  183.9340  178.6770  140.7120 C   0  0  0  0  0  0  0  0  0  0  0  0
  184.9420  179.5280  141.2670 N   0  0  0  0  0  2  0  0  0  0  0  0
  180.5560  180.4450  138.7380 C   0  0  0  0  0  0  0  0  0  0  0  0
  182.9290  180.0030  138.8700 C   0  0  0  0  0  3  0  0  0  0  0  0
  181.2010  178.4290  141.7500 O   0  0  0  0  0  1  0  0  0  0  0  0
  179.4470  181.0360  138.0710 N   0  0  0  0  0  1  0  0  0  0  0  0
  181.8410  180.5850  138.2150 C   0  0  0  0  0  3  0  0  0  0  0  0
  181.4420  179.1380  140.5800 C   0  0  0  0  0  0  0  0  0  0  0  0
  182.7480  179.2750  140.0570 C   0  0  0  0  0  0  0  0  0  0  0  0
  180.3580  179.7230  139.9170 C   0  0  0  0  0  3  0  0  0  0  0  0
  1  9  2  0  0  0  0
  1 14  1  0  0  0  0
  2  3  1  0  0  0  0
  3 19  2  0  0  0  0
  3  7  1  0  0  0  0
  4 15  1  0  0  0  0
  4 11  1  0  0  0  0
  5 14  2  0  0  0  0
  5  2  1  0  0  0  0
  6  1  1  0  0  0  0
  7  4  2  0  0  0  0
  8 23  1  6  0  0  0
  8 13  1  0  0  0  0
 10 18  1  0  0  0  0
 12 16  1  0  0  0  0
 12  8  1  0  0  0  0
 13  2  1  1  0  0  0
 13 18  1  0  0  0  0
 16 17  1  6  0  0  0
 16  5  1  0  0  0  0
 17  6  2  0  0  0  0
 18 19  1  0  0  0  0
 19 20  1  0  0  0  0
 20 15  2  0  0  0  0
 22 21  2  0  0  0  0
 22 23  1  0  0  0  0
 24 31  1  0  0  0  0
 25 30  2  0  0  0  0
 27 24  1  0  0  0  0
 28 24  2  0  0  0  0
 28 25  1  0  0  0  0
 29 26  1  0  0  0  0
 30 29  1  0  0  0  0
 30 22  1  0  0  0  0
 31 29  2  0  0  0  0
M  END
>  <MODEL>
2

>  <REMARK>
 VINA RESULT:      -9.2      3.978      7.910
  Name = 
  2 active torsions:
  status: ('A' for Active; 'I' for Inactive)
    1  A    between atoms: C_9  and  C_22
    2  A    between atoms: C_15  and  N_23
                            x       y       z     vdW  Elec       q    Type
                         _______ _______ _______ _____ _____    ______ ____

>  <TORSDO>
F 2

$$$$
=
 OpenBabel10262419343D

 31 35  0  0  1  0  0  0  0  0999 V2000
  184.1220  178.8440  144.6410 C   0  0  0  0  0  0  0  0  0  0  0  0
  187.8050  178.1870  144.6120 N   0  0  0  0  0  0  0  0  0  0  0  0
  188.2690  177.8360  145.9120 C   0  0  0  0  0  0  0  0  0  0  0  0
  188.2860  177.5560  148.2960 C   0  0  0  0  0  0  0  0  0  0  0  0
  186.4350  178.3130  144.2010 C   0  0  0  0  0  0  0  0  0  0  0  0
  183.8070  178.5070  143.3600 N   0  0  0  0  0  0  0  0  0  0  0  0
  187.6140  177.9810  147.1350 C   0  0  0  0  0  3  0  0  0  0  0  0
  188.3480  176.8910  142.5990 C   0  0  2  0  0  3  0  0  0  0  0  0
  183.2220  179.2390  145.4260 O   0  0  0  0  0  0  0  0  0  0  0  0
  191.3200  177.0940  144.0520 C   0  0  0  0  0  1  0  0  0  0  0  0
  187.6880  177.6820  149.5040 F   0  0  0  0  0  0  0  0  0  0  0  0
  187.1300  177.5140  141.9050 C   0  0  0  0  0  2  0  0  0  0  0  0
  188.8820  177.8540  143.6640 C   0  0  2  0  0  3  0  0  0  0  0  0
  185.4430  178.7530  145.0850 C   0  0  0  0  0  2  0  0  0  0  0  0
  189.5790  177.0000  148.2070 C   0  0  0  0  0  3  0  0  0  0  0  0
  186.0830  177.9560  142.8890 C   0  0  0  0  0  0  0  0  0  0  0  0
  184.7530  178.0740  142.4840 C   0  0  0  0  0  3  0  0  0  0  0  0
  189.9360  177.2300  144.4740 N   0  0  0  0  0  0  0  0  0  0  0  0
  189.5160  177.2900  145.8280 C   0  0  0  0  0  0  0  0  0  0  0  0
  190.2110  176.8600  146.9590 C   0  0  0  0  0  3  0  0  0  0  0  0
  189.0410  178.5810  140.4170 O   0  0  0  0  0  0  0  0  0  0  0  0
  189.6910  177.5080  140.5400 C   0  0  0  0  0  0  0  0  0  0  0  0
  189.3830  176.6130  141.6140 N   0  0  0  0  0  2  0  0  0  0  0  0
  192.8760  176.5270  137.8320 C   0  0  0  0  0  0  0  0  0  0  0  0
  192.1030  177.3260  139.9790 C   0  0  0  0  0  3  0  0  0  0  0  0
  189.1950  176.4850  137.8350 O   0  0  0  0  0  1  0  0  0  0  0  0
  193.9430  176.2060  136.9490 N   0  0  0  0  0  1  0  0  0  0  0  0
  193.1510  177.0120  139.1110 C   0  0  0  0  0  3  0  0  0  0  0  0
  190.4970  176.6700  138.2840 C   0  0  0  0  0  0  0  0  0  0  0  0
  190.7660  177.1610  139.5820 C   0  0  0  0  0  0  0  0  0  0  0  0
  191.5530  176.3570  137.4210 C   0  0  0  0  0  3  0  0  0  0  0  0
  1 14  1  0  0  0  0
  1  9  2  0  0  0  0
  2  3  1  0  0  0  0
  3  7  1  0  0  0  0
  4 11  1  0  0  0  0
  5  2  1  0  0  0  0
  5 14  1  0  0  0  0
  6  1  1  0  0  0  0
  7  4  2  0  0  0  0
  8 23  1  6  0  0  0
  8 13  1  0  0  0  0
 10 18  1  0  0  0  0
 12  8  1  0  0  0  0
 12 16  1  0  0  0  0
 13 18  1  1  0  0  0
 13  2  1  0  0  0  0
 15  4  1  0  0  0  0
 16  5  2  0  0  0  0
 17 16  1  0  0  0  0
 17  6  2  0  0  0  0
 18 19  1  0  0  0  0
 19  3  2  0  0  0  0
 19 20  1  0  0  0  0
 20 15  2  0  0  0  0
 21 22  2  0  0  0  0
 22 23  1  0  0  0  0
 24 28  1  0  0  0  0
 26 29  1  0  0  0  0
 27 24  1  0  0  0  0
 28 25  2  0  0  0  0
 29 30  2  0  0  0  0
 30 25  1  0  0  0  0
 30 22  1  0  0  0  0
 31 24  2  0  0  0  0
 31 29  1  0  0  0  0
M  END
>  <MODEL>
3

>  <REMARK>
 VINA RESULT:      -9.2      3.719      8.581
  Name = 
  2 active torsions:
  status: ('A' for Active; 'I' for Inactive)
    1  A    between atoms: C_9  and  C_22
    2  A    between atoms: C_15  and  N_23
                            x       y       z     vdW  Elec       q    Type
                         _______ _______ _______ _____ _____    ______ ____

>  <TORSDO>
F 2

$$$$
=
 OpenBabel10262419343D

 31 35  0  0  1  0  0  0  0  0999 V2000
  188.1840  177.5050  148.0870 C   0  0  0  0  0  0  0  0  0  0  0  0
  187.5060  177.5250  144.4080 N   0  0  0  0  0  0  0  0  0  0  0  0
  186.2280  178.0880  144.1300 C   0  0  0  0  0  0  0  0  0  0  0  0
  184.0010  178.9080  144.4970 C   0  0  0  0  0  0  0  0  0  0  0  0
  188.1830  177.5330  145.6730 C   0  0  0  0  0  0  0  0  0  0  0  0
  189.5430  177.5810  148.0820 N   0  0  0  0  0  0  0  0  0  0  0  0
  185.1800  178.3410  145.0150 C   0  0  0  0  0  3  0  0  0  0  0  0
  189.5550  178.2110  143.2430 C   0  0  2  0  0  3  0  0  0  0  0  0
  187.5610  177.4560  149.1790 O   0  0  0  0  0  0  0  0  0  0  0  0
  187.4560  177.8680  140.7000 C   0  0  0  0  0  1  0  0  0  0  0  0
  182.9590  179.1660  145.3210 F   0  0  0  0  0  0  0  0  0  0  0  0
  190.3730  177.6520  144.4140 C   0  0  0  0  0  2  0  0  0  0  0  0
  188.2320  177.4470  143.1280 C   0  0  2  0  0  3  0  0  0  0  0  0
  187.4790  177.4790  146.8810 C   0  0  0  0  0  2  0  0  0  0  0  0
  183.9010  179.2090  143.1220 C   0  0  0  0  0  3  0  0  0  0  0  0
  189.5850  177.6270  145.6940 C   0  0  0  0  0  0  0  0  0  0  0  0
  190.2500  177.6380  146.9210 C   0  0  0  0  0  3  0  0  0  0  0  0
  187.3400  178.0620  142.1360 N   0  0  0  0  0  0  0  0  0  0  0  0
  186.1310  178.3880  142.8030 C   0  0  0  0  0  0  0  0  0  0  0  0
  184.9770  178.9490  142.2550 C   0  0  0  0  0  3  0  0  0  0  0  0
  190.4310  175.7550  142.1030 O   0  0  0  0  0  0  0  0  0  0  0  0
  190.7220  176.8120  141.4800 C   0  0  0  0  0  0  0  0  0  0  0  0
  190.3150  178.0790  142.0080 N   0  0  0  0  0  2  0  0  0  0  0  0
  193.0180  176.6840  137.8540 C   0  0  0  0  0  0  0  0  0  0  0  0
  192.8360  177.1430  140.2210 C   0  0  0  0  0  3  0  0  0  0  0  0
  189.5770  175.9350  138.9250 O   0  0  0  0  0  1  0  0  0  0  0  0
  193.7940  176.6460  136.6630 N   0  0  0  0  0  1  0  0  0  0  0  0
  193.5980  177.1070  139.0510 C   0  0  0  0  0  3  0  0  0  0  0  0
  190.9070  176.3290  138.9950 C   0  0  0  0  0  0  0  0  0  0  0  0
  191.4860  176.7570  140.2120 C   0  0  0  0  0  0  0  0  0  0  0  0
  191.6770  176.2960  137.8280 C   0  0  0  0  0  3  0  0  0  0  0  0
  1  9  2  0  0  0  0
  2  5  1  0  0  0  0
  3  2  1  0  0  0  0
  3  7  1  0  0  0  0
  4  7  2  0  0  0  0
  4 11  1  0  0  0  0
  5 16  2  0  0  0  0
  5 14  1  0  0  0  0
  6  1  1  0  0  0  0
  8 23  1  6  0  0  0
  8 12  1  0  0  0  0
 10 18  1  0  0  0  0
 12 16  1  0  0  0  0
 13 18  1  6  0  0  0
 13  8  1  0  0  0  0
 13  2  1  0  0  0  0
 14  1  1  0  0  0  0
 15  4  1  0  0  0  0
 16 17  1  0  0  0  0
 17  6  2  0  0  0  0
 18 19  1  0  0  0  0
 19  3  2  0  0  0  0
 20 19  1  0  0  0  0
 20 15  2  0  0  0  0
 22 23  1  0  0  0  0
 22 21  2  0  0  0  0
 24 28  1  0  0  0  0
 26 29  1  0  0  0  0
 27 24  1  0  0  0  0
 28 25  2  0  0  0  0
 29 30  2  0  0  0  0
 30 25  1  0  0  0  0
 30 22  1  0  0  0  0
 31 24  2  0  0  0  0
 31 29  1  0  0  0  0
M  END
>  <MODEL>
4

>  <REMARK>
 VINA RESULT:      -9.0      2.876      7.712
  Name = 
  2 active torsions:
  status: ('A' for Active; 'I' for Inactive)
    1  A    between atoms: C_9  and  C_22
    2  A    between atoms: C_15  and  N_23
                            x       y       z     vdW  Elec       q    Type
                         _______ _______ _______ _____ _____    ______ ____

>  <TORSDO>
F 2

$$$$
=
 OpenBabel10262419343D

 31 35  0  0  1  0  0  0  0  0999 V2000
  188.2110  177.8870  136.2820 C   0  0  0  0  0  0  0  0  0  0  0  0
  186.0850  178.5720  139.2830 N   0  0  0  0  0  0  0  0  0  0  0  0
  184.7240  178.2360  139.0290 C   0  0  0  0  0  0  0  0  0  0  0  0
  182.7360  177.6670  137.8090 C   0  0  0  0  0  0  0  0  0  0  0  0
  187.2090  178.2630  138.4460 C   0  0  0  0  0  0  0  0  0  0  0  0
  189.4050  177.6340  136.8860 N   0  0  0  0  0  0  0  0  0  0  0  0
  184.1080  177.9800  137.8040 C   0  0  0  0  0  3  0  0  0  0  0  0
  187.2980  177.8270  141.2830 C   0  0  2  0  0  3  0  0  0  0  0  0
  188.1170  177.8340  135.0290 O   0  0  0  0  0  0  0  0  0  0  0  0
  184.4440  178.8630  142.6130 C   0  0  0  0  0  1  0  0  0  0  0  0
  182.0990  177.4140  136.6420 F   0  0  0  0  0  0  0  0  0  0  0  0
  188.6170  178.0690  140.5380 C   0  0  0  0  0  2  0  0  0  0  0  0
  186.2180  178.7660  140.7370 C   0  0  2  0  0  3  0  0  0  0  0  0
  187.0910  178.2060  137.0520 C   0  0  0  0  0  2  0  0  0  0  0  0
  182.0230  177.6160  139.0240 C   0  0  0  0  0  3  0  0  0  0  0  0
  188.4480  177.9830  139.0460 C   0  0  0  0  0  0  0  0  0  0  0  0
  189.5440  177.6790  138.2380 C   0  0  0  0  0  3  0  0  0  0  0  0
  184.8970  178.4490  141.2960 N   0  0  0  0  0  0  0  0  0  0  0  0
  184.0330  178.1780  140.2030 C   0  0  0  0  0  0  0  0  0  0  0  0
  182.6720  177.8730  140.2440 C   0  0  0  0  0  3  0  0  0  0  0  0
  187.8640  175.8230  143.2220 O   0  0  0  0  0  0  0  0  0  0  0  0
  187.7810  177.0120  143.6340 C   0  0  0  0  0  0  0  0  0  0  0  0
  187.4910  178.0620  142.7060 N   0  0  0  0  0  2  0  0  0  0  0  0
  188.2420  177.9570  147.7970 C   0  0  0  0  0  0  0  0  0  0  0  0
  186.8640  177.7410  145.8230 C   0  0  0  0  0  3  0  0  0  0  0  0
  190.3680  176.8380  145.0080 O   0  0  0  0  0  1  0  0  0  0  0  0
  188.3770  178.2720  149.1770 N   0  0  0  0  0  1  0  0  0  0  0  0
  186.9950  178.0520  147.1780 C   0  0  0  0  0  3  0  0  0  0  0  0
  189.2330  177.2380  145.7030 C   0  0  0  0  0  0  0  0  0  0  0  0
  187.9740  177.3310  145.0670 C   0  0  0  0  0  0  0  0  0  0  0  0
  189.3570  177.5510  147.0610 C   0  0  0  0  0  3  0  0  0  0  0  0
  1  6  1  0  0  0  0
  1 14  1  0  0  0  0
  3  2  1  0  0  0  0
  3 19  1  0  0  0  0
  4 15  2  0  0  0  0
  5 16  2  0  0  0  0
  5  2  1  0  0  0  0
  6 17  2  0  0  0  0
  7  4  1  0  0  0  0
  7  3  2  0  0  0  0
  8 23  1  1  0  0  0
  9  1  2  0  0  0  0
 11  4  1  0  0  0  0
 12  8  1  0  0  0  0
 13  2  1  6  0  0  0
 13  8  1  0  0  0  0
 13 18  1  0  0  0  0
 14  5  1  0  0  0  0
 15 20  1  0  0  0  0
 16 12  1  0  0  0  0
 17 16  1  0  0  0  0
 18 10  1  0  0  0  0
 19 20  2  0  0  0  0
 19 18  1  0  0  0  0
 21 22  2  0  0  0  0
 22 30  1  0  0  0  0
 23 22  1  0  0  0  0
 24 27  1  0  0  0  0
 25 28  2  0  0  0  0
 26 29  1  0  0  0  0
 28 24  1  0  0  0  0
 29 31  1  0  0  0  0
 30 29  2  0  0  0  0
 30 25  1  0  0  0  0
 31 24  2  0  0  0  0
M  END
>  <MODEL>
5

>  <REMARK>
 VINA RESULT:      -9.0      1.512      2.125
  Name = 
  2 active torsions:
  status: ('A' for Active; 'I' for Inactive)
    1  A    between atoms: C_9  and  C_22
    2  A    between atoms: C_15  and  N_23
                            x       y       z     vdW  Elec       q    Type
                         _______ _______ _______ _____ _____    ______ ____

>  <TORSDO>
F 2

$$$$
=
 OpenBabel10262419343D

 31 35  0  0  1  0  0  0  0  0999 V2000
  190.8840  177.1260  146.5400 C   0  0  0  0  0  0  0  0  0  0  0  0
  189.0920  178.0130  143.3770 N   0  0  0  0  0  0  0  0  0  0  0  0
  189.9160  177.7700  142.2420 C   0  0  0  0  0  0  0  0  0  0  0  0
  191.8860  177.3230  140.9440 C   0  0  0  0  0  0  0  0  0  0  0  0
  189.3640  177.6100  144.7280 C   0  0  0  0  0  0  0  0  0  0  0  0
  189.8260  176.8000  147.3320 N   0  0  0  0  0  0  0  0  0  0  0  0
  191.2910  177.5370  142.2010 C   0  0  0  0  0  3  0  0  0  0  0  0
  186.7760  177.2180  143.5460 C   0  0  2  0  0  3  0  0  0  0  0  0
  192.0540  177.0590  146.9950 O   0  0  0  0  0  0  0  0  0  0  0  0
  186.7990  178.4780  140.4810 C   0  0  0  0  0  1  0  0  0  0  0  0
  193.2180  177.0960  140.8600 F   0  0  0  0  0  0  0  0  0  0  0  0
  186.8710  177.3530  145.0720 C   0  0  0  0  0  2  0  0  0  0  0  0
  187.7210  178.2220  142.8800 C   0  0  2  0  0  3  0  0  0  0  0  0
  190.6710  177.5380  145.2220 C   0  0  0  0  0  2  0  0  0  0  0  0
  191.1010  177.3450  139.7730 C   0  0  0  0  0  3  0  0  0  0  0  0
  188.2900  177.2530  145.5610 C   0  0  0  0  0  0  0  0  0  0  0  0
  188.5470  176.8580  146.8740 C   0  0  0  0  0  3  0  0  0  0  0  0
  187.7960  178.0100  141.4290 N   0  0  0  0  0  0  0  0  0  0  0  0
  189.1590  177.7820  141.1070 C   0  0  0  0  0  0  0  0  0  0  0  0
  189.7170  177.5760  139.8450 C   0  0  0  0  0  3  0  0  0  0  0  0
  185.1420  179.3800  144.4150 O   0  0  0  0  0  0  0  0  0  0  0  0
  184.6350  178.5750  143.5870 C   0  0  0  0  0  0  0  0  0  0  0  0
  185.4060  177.4640  143.1190 N   0  0  0  0  0  2  0  0  0  0  0  0
  180.5860  179.1230  142.2680 C   0  0  0  0  0  0  0  0  0  0  0  0
  182.2030  178.7860  144.0340 C   0  0  0  0  0  3  0  0  0  0  0  0
  183.9370  178.9190  140.7580 O   0  0  0  0  0  1  0  0  0  0  0  0
  179.2390  179.3050  141.8490 N   0  0  0  0  0  1  0  0  0  0  0  0
  180.8800  178.9620  143.6220 C   0  0  0  0  0  3  0  0  0  0  0  0
  182.9430  178.9290  141.7280 C   0  0  0  0  0  0  0  0  0  0  0  0
  183.2500  178.7650  143.0990 C   0  0  0  0  0  0  0  0  0  0  0  0
  181.6160  179.1070  141.3250 C   0  0  0  0  0  3  0  0  0  0  0  0
  1  9  2  0  0  0  0
  1  6  1  0  0  0  0
  2  5  1  0  0  0  0
  3  2  1  0  0  0  0
  4  7  2  0  0  0  0
  5 14  1  0  0  0  0
  5 16  2  0  0  0  0
  7  3  1  0  0  0  0
  8 23  1  6  0  0  0
  8 12  1  0  0  0  0
 10 18  1  0  0  0  0
 11  4  1  0  0  0  0
 12 16  1  0  0  0  0
 13 18  1  6  0  0  0
 13  2  1  0  0  0  0
 13  8  1  0  0  0  0
 14  1  1  0  0  0  0
 15 20  2  0  0  0  0
 15  4  1  0  0  0  0
 16 17  1  0  0  0  0
 17  6  2  0  0  0  0
 19 18  1  0  0  0  0
 19  3  2  0  0  0  0
 20 19  1  0  0  0  0
 22 21  2  0  0  0  0
 23 22  1  0  0  0  0
 24 28  1  0  0  0  0
 26 29  1  0  0  0  0
 27 24  1  0  0  0  0
 28 25  2  0  0  0  0
 29 30  2  0  0  0  0
 30 22  1  0  0  0  0
 30 25  1  0  0  0  0
 31 29  1  0  0  0  0
 31 24  2  0  0  0  0
M  END
>  <MODEL>
6

>  <REMARK>
 VINA RESULT:      -8.8      3.567      7.152
  Name = 
  2 active torsions:
  status: ('A' for Active; 'I' for Inactive)
    1  A    between atoms: C_9  and  C_22
    2  A    between atoms: C_15  and  N_23
                            x       y       z     vdW  Elec       q    Type
                         _______ _______ _______ _____ _____    ______ ____

>  <TORSDO>
F 2

$$$$
=
 OpenBabel10262419343D

 31 35  0  0  1  0  0  0  0  0999 V2000
  187.1110  177.8320  136.3590 C   0  0  0  0  0  0  0  0  0  0  0  0
  186.3050  178.6880  139.9110 N   0  0  0  0  0  0  0  0  0  0  0  0
  184.9010  178.6270  140.1420 C   0  0  0  0  0  0  0  0  0  0  0  0
  182.5470  178.5210  139.6820 C   0  0  0  0  0  0  0  0  0  0  0  0
  186.9950  178.2350  138.7360 C   0  0  0  0  0  0  0  0  0  0  0  0
  188.3630  177.3210  136.5120 N   0  0  0  0  0  0  0  0  0  0  0  0
  183.8690  178.5750  139.2050 C   0  0  0  0  0  3  0  0  0  0  0  0
  187.9500  177.5940  141.3670 C   0  0  2  0  0  3  0  0  0  0  0  0
  186.5890  177.8840  135.2150 O   0  0  0  0  0  0  0  0  0  0  0  0
  185.9800  179.0450  143.6030 C   0  0  0  0  0  1  0  0  0  0  0  0
  181.5160  178.4730  138.8070 F   0  0  0  0  0  0  0  0  0  0  0  0
  188.9600  177.6400  140.2120 C   0  0  0  0  0  2  0  0  0  0  0  0
  186.9580  178.7520  141.2290 C   0  0  2  0  0  3  0  0  0  0  0  0
  186.4040  178.2980  137.4690 C   0  0  0  0  0  2  0  0  0  0  0  0
  182.2910  178.5200  141.0690 C   0  0  0  0  0  3  0  0  0  0  0  0
  188.2830  177.6900  138.8710 C   0  0  0  0  0  0  0  0  0  0  0  0
  188.9580  177.2460  137.7330 C   0  0  0  0  0  3  0  0  0  0  0  0
  185.8690  178.6470  142.2090 N   0  0  0  0  0  0  0  0  0  0  0  0
  184.6510  178.6160  141.4820 C   0  0  0  0  0  0  0  0  0  0  0  0
  183.3520  178.5660  141.9900 C   0  0  0  0  0  3  0  0  0  0  0  0
  188.3090  175.4630  143.2190 O   0  0  0  0  0  0  0  0  0  0  0  0
  188.8100  176.5790  143.5250 C   0  0  0  0  0  0  0  0  0  0  0  0
  188.6560  177.6900  142.6370 N   0  0  0  0  0  2  0  0  0  0  0  0
  191.0430  177.0580  147.1600 C   0  0  0  0  0  0  0  0  0  0  0  0
  190.9380  176.5350  144.8020 C   0  0  0  0  0  3  0  0  0  0  0  0
  187.5450  177.3570  146.0550 O   0  0  0  0  0  1  0  0  0  0  0  0
  191.7990  177.2140  148.3550 N   0  0  0  0  0  1  0  0  0  0  0  0
  191.6800  176.6860  145.9760 C   0  0  0  0  0  3  0  0  0  0  0  0
  188.9140  177.1280  146.0010 C   0  0  0  0  0  0  0  0  0  0  0  0
  189.5510  176.7520  144.7960 C   0  0  0  0  0  0  0  0  0  0  0  0
  189.6650  177.2780  147.1710 C   0  0  0  0  0  3  0  0  0  0  0  0
  1  6  1  0  0  0  0
  1 14  1  0  0  0  0
  2  3  1  0  0  0  0
  3 19  1  0  0  0  0
  4 15  2  0  0  0  0
  5 16  2  0  0  0  0
  5  2  1  0  0  0  0
  6 17  2  0  0  0  0
  7  4  1  0  0  0  0
  7  3  2  0  0  0  0
  8 23  1  1  0  0  0
  9  1  2  0  0  0  0
 11  4  1  0  0  0  0
 12  8  1  0  0  0  0
 13  2  1  6  0  0  0
 13  8  1  0  0  0  0
 13 18  1  0  0  0  0
 14  5  1  0  0  0  0
 15 20  1  0  0  0  0
 16 12  1  0  0  0  0
 17 16  1  0  0  0  0
 18 10  1  0  0  0  0
 19 20  2  0  0  0  0
 19 18  1  0  0  0  0
 21 22  2  0  0  0  0
 22 30  1  0  0  0  0
 23 22  1  0  0  0  0
 24 31  1  0  0  0  0
 24 27  1  0  0  0  0
 25 28  1  0  0  0  0
 28 24  2  0  0  0  0
 29 26  1  0  0  0  0
 29 31  2  0  0  0  0
 30 25  2  0  0  0  0
 30 29  1  0  0  0  0
M  END
>  <MODEL>
7

>  <REMARK>
 VINA RESULT:      -8.7      2.146      3.037
  Name = 
  2 active torsions:
  status: ('A' for Active; 'I' for Inactive)
    1  A    between atoms: C_9  and  C_22
    2  A    between atoms: C_15  and  N_23
                            x       y       z     vdW  Elec       q    Type
                         _______ _______ _______ _____ _____    ______ ____

>  <TORSDO>
F 2

$$$$
=
 OpenBabel10262419343D

 31 35  0  0  1  0  0  0  0  0999 V2000
  190.5340  176.9570  147.2590 C   0  0  0  0  0  0  0  0  0  0  0  0
  188.0140  177.2750  144.5120 N   0  0  0  0  0  0  0  0  0  0  0  0
  186.7750  177.7650  145.0140 C   0  0  0  0  0  0  0  0  0  0  0  0
  185.0670  178.3770  146.5870 C   0  0  0  0  0  0  0  0  0  0  0  0
  189.2580  177.2140  145.2260 C   0  0  0  0  0  0  0  0  0  0  0  0
  191.6840  177.1350  146.5520 N   0  0  0  0  0  0  0  0  0  0  0  0
  186.3490  177.8530  146.3400 C   0  0  0  0  0  3  0  0  0  0  0  0
  189.1280  178.2200  142.5390 C   0  0  2  0  0  3  0  0  0  0  0  0
  190.5830  176.7580  148.5000 O   0  0  0  0  0  0  0  0  0  0  0  0
  186.0070  177.9630  141.4520 C   0  0  0  0  0  1  0  0  0  0  0  0
  184.6150  178.4770  147.8590 F   0  0  0  0  0  0  0  0  0  0  0  0
  190.4490  177.6150  143.0320 C   0  0  0  0  0  2  0  0  0  0  0  0
  187.9550  177.3730  143.0440 C   0  0  2  0  0  3  0  0  0  0  0  0
  189.2990  176.9930  146.6070 C   0  0  0  0  0  2  0  0  0  0  0  0
  184.2520  178.7980  145.5160 C   0  0  0  0  0  3  0  0  0  0  0  0
  190.4570  177.4100  144.5220 C   0  0  0  0  0  0  0  0  0  0  0  0
  191.6700  177.3550  145.2100 C   0  0  0  0  0  3  0  0  0  0  0  0
  186.6650  178.0110  142.7470 N   0  0  0  0  0  0  0  0  0  0  0  0
  185.9870  178.1810  143.9810 C   0  0  0  0  0  0  0  0  0  0  0  0
  184.7100  178.7040  144.1910 C   0  0  0  0  0  3  0  0  0  0  0  0
  190.1290  176.1790  140.8280 O   0  0  0  0  0  0  0  0  0  0  0  0
  189.6360  177.1990  140.2760 C   0  0  0  0  0  0  0  0  0  0  0  0
  189.1230  178.2620  141.0840 N   0  0  0  0  0  2  0  0  0  0  0  0
  189.4400  177.6070  136.0060 C   0  0  0  0  0  0  0  0  0  0  0  0
  188.8880  178.3850  138.2270 C   0  0  0  0  0  3  0  0  0  0  0  0
  190.9240  175.2930  138.4540 O   0  0  0  0  0  1  0  0  0  0  0  0
  189.3660  177.7590  134.5940 N   0  0  0  0  0  1  0  0  0  0  0  0
  188.8140  178.5340  136.8410 C   0  0  0  0  0  3  0  0  0  0  0  0
  190.2180  176.3760  137.9460 C   0  0  0  0  0  0  0  0  0  0  0  0
  189.5870  177.3100  138.8000 C   0  0  0  0  0  0  0  0  0  0  0  0
  190.1400  176.5320  136.5580 C   0  0  0  0  0  3  0  0  0  0  0  0
  1  9  2  0  0  0  0
  2  3  1  0  0  0  0
  2  5  1  0  0  0  0
  3  7  1  0  0  0  0
  4 11  1  0  0  0  0
  5 14  1  0  0  0  0
  6  1  1  0  0  0  0
  7  4  2  0  0  0  0
  8 23  1  6  0  0  0
  8 12  1  0  0  0  0
  8 13  1  0  0  0  0
 10 18  1  0  0  0  0
 12 16  1  0  0  0  0
 13 18  1  1  0  0  0
 13  2  1  0  0  0  0
 14  1  1  0  0  0  0
 15  4  1  0  0  0  0
 16 17  1  0  0  0  0
 16  5  2  0  0  0  0
 17  6  2  0  0  0  0
 18 19  1  0  0  0  0
 19 20  1  0  0  0  0
 19  3  2  0  0  0  0
 20 15  2  0  0  0  0
 22 21  2  0  0  0  0
 22 23  1  0  0  0  0
 24 31  2  0  0  0  0
 24 28  1  0  0  0  0
 25 30  1  0  0  0  0
 27 24  1  0  0  0  0
 28 25  2  0  0  0  0
 29 26  1  0  0  0  0
 29 30  2  0  0  0  0
 30 22  1  0  0  0  0
 31 29  1  0  0  0  0
M  END
>  <MODEL>
8

>  <REMARK>
 VINA RESULT:      -8.5      3.136      7.904
  Name = 
  2 active torsions:
  status: ('A' for Active; 'I' for Inactive)
    1  A    between atoms: C_9  and  C_22
    2  A    between atoms: C_15  and  N_23
                            x       y       z     vdW  Elec       q    Type
                         _______ _______ _______ _____ _____    ______ ____

>  <TORSDO>
F 2

$$$$
=
 OpenBabel10262419343D

 31 35  0  0  1  0  0  0  0  0999 V2000
  184.6840  178.7570  139.5830 C   0  0  0  0  0  0  0  0  0  0  0  0
  188.2340  178.2280  140.6370 N   0  0  0  0  0  0  0  0  0  0  0  0
  188.3050  177.8290  142.0020 C   0  0  0  0  0  0  0  0  0  0  0  0
  187.6220  177.4330  144.2700 C   0  0  0  0  0  0  0  0  0  0  0  0
  187.0450  178.3270  139.8390 C   0  0  0  0  0  0  0  0  0  0  0  0
  184.7820  178.4730  138.2550 N   0  0  0  0  0  0  0  0  0  0  0  0
  187.3090  177.8920  142.9770 C   0  0  0  0  0  3  0  0  0  0  0  0
  189.4130  177.0500  138.8340 C   0  0  2  0  0  3  0  0  0  0  0  0
  183.5730  179.0830  140.0760 O   0  0  0  0  0  0  0  0  0  0  0  0
  191.8030  177.2820  141.1190 C   0  0  0  0  0  1  0  0  0  0  0  0
  186.6860  177.4800  145.2460 F   0  0  0  0  0  0  0  0  0  0  0  0
  188.4300  177.6640  137.8290 C   0  0  0  0  0  2  0  0  0  0  0  0
  189.5590  177.9780  140.0450 C   0  0  2  0  0  3  0  0  0  0  0  0
  185.8150  178.6890  140.3990 C   0  0  0  0  0  2  0  0  0  0  0  0
  188.9070  176.9270  144.5530 C   0  0  0  0  0  3  0  0  0  0  0  0
  187.1170  178.0230  138.4690 C   0  0  0  0  0  0  0  0  0  0  0  0
  185.9650  178.1150  137.6880 C   0  0  0  0  0  3  0  0  0  0  0  0
  190.3520  177.3510  141.1110 N   0  0  0  0  0  0  0  0  0  0  0  0
  189.5440  177.3300  142.2770 C   0  0  0  0  0  0  0  0  0  0  0  0
  189.8890  176.8690  143.5480 C   0  0  0  0  0  3  0  0  0  0  0  0
  190.4360  174.5620  137.9070 O   0  0  0  0  0  0  0  0  0  0  0  0
  191.1650  175.5780  137.7430 C   0  0  0  0  0  0  0  0  0  0  0  0
  190.7070  176.8560  138.1960 N   0  0  0  0  0  2  0  0  0  0  0  0
  195.0460  175.2060  135.9450 C   0  0  0  0  0  0  0  0  0  0  0  0
  193.5840  175.0370  137.8640 C   0  0  0  0  0  3  0  0  0  0  0  0
  191.6500  176.1820  134.9130 O   0  0  0  0  0  1  0  0  0  0  0  0
  196.3380  175.0760  135.3660 N   0  0  0  0  0  1  0  0  0  0  0  0
  194.8540  174.9110  137.2960 C   0  0  0  0  0  3  0  0  0  0  0  0
  192.6940  175.7590  135.7260 C   0  0  0  0  0  0  0  0  0  0  0  0
  192.4900  175.4610  137.0930 C   0  0  0  0  0  0  0  0  0  0  0  0
  193.9690  175.6290  135.1640 C   0  0  0  0  0  3  0  0  0  0  0  0
  1  9  2  0  0  0  0
  1 14  1  0  0  0  0
  2  3  1  0  0  0  0
  3 19  2  0  0  0  0
  3  7  1  0  0  0  0
  4 15  1  0  0  0  0
  4 11  1  0  0  0  0
  5 14  1  0  0  0  0
  5  2  1  0  0  0  0
  6  1  1  0  0  0  0
  7  4  2  0  0  0  0
  8 23  1  6  0  0  0
  8 13  1  0  0  0  0
 12 16  1  0  0  0  0
 12  8  1  0  0  0  0
 13  2  1  1  0  0  0
 13 18  1  0  0  0  0
 16  5  2  0  0  0  0
 17  6  2  0  0  0  0
 17 16  1  0  0  0  0
 18 10  1  0  0  0  0
 18 19  1  0  0  0  0
 19 20  1  0  0  0  0
 20 15  2  0  0  0  0
 22 21  2  0  0  0  0
 22 23  1  0  0  0  0
 24 28  1  0  0  0  0
 26 29  1  0  0  0  0
 27 24  1  0  0  0  0
 28 25  2  0  0  0  0
 29 30  2  0  0  0  0
 30 22  1  0  0  0  0
 30 25  1  0  0  0  0
 31 29  1  0  0  0  0
 31 24  2  0  0  0  0
M  END
>  <MODEL>
9

>  <REMARK>
 VINA RESULT:      -8.4      3.250      8.025
  Name = 
  2 active torsions:
  status: ('A' for Active; 'I' for Inactive)
    1  A    between atoms: C_9  and  C_22
    2  A    between atoms: C_15  and  N_23
                            x       y       z     vdW  Elec       q    Type
                         _______ _______ _______ _____ _____    ______ ____

>  <TORSDO>
F 2

$$$$
