=
 OpenBabel10262421383D

 32 36  0  0  1  0  0  0  0  0999 V2000
  184.0190  178.5880  145.0700 C   0  0  0  0  0  2  0  0  0  0  0  0
  182.7450  178.8600  144.3170 C   0  0  0  0  0  3  0  0  0  0  0  0
  185.2340  179.1050  144.3100 C   0  0  0  0  0  2  0  0  0  0  0  0
  185.2290  178.5280  142.8990 C   0  0  1  0  0  3  0  0  0  0  0  0
  182.7210  179.0060  142.9850 C   0  0  0  0  0  3  0  0  0  0  0  0
  183.9750  179.0040  142.1390 C   0  0  2  0  0  3  0  0  0  0  0  0
  183.7230  177.6050  138.7850 N   0  0  0  0  0  0  0  0  0  0  0  0
  182.1350  175.9860  138.7360 C   0  0  0  0  0  0  0  0  0  0  0  0
  183.7480  178.2000  140.8980 C   0  0  0  0  0  0  0  0  0  0  0  0
  182.2930  176.4190  137.3070 C   0  0  0  0  0  3  0  0  0  0  0  0
  183.3310  177.5760  137.3850 C   0  0  0  0  0  3  0  0  0  0  0  0
  182.9920  177.0710  140.8430 N   0  0  0  0  0  0  0  0  0  0  0  0
  181.3060  175.1430  139.1660 O   0  0  0  0  0  0  0  0  0  0  0  0
  184.1560  178.5530  139.6230 C   0  0  0  0  0  0  0  0  0  0  0  0
  183.0450  176.7540  139.5310 C   0  0  0  0  0  0  0  0  0  0  0  0
  184.7670  179.7860  139.2390 N   0  0  0  0  0  2  0  0  0  0  0  0
  184.0760  180.7600  138.8770 O   0  0  0  0  0  1  0  0  0  0  0  0
  186.4950  178.9790  142.1860 C   0  0  0  0  0  2  0  0  0  0  0  0
  190.5680  178.9770  143.9440 O   0  0  0  0  0  0  0  0  0  0  0  0
  188.6430  176.8480  143.5620 C   0  0  1  0  0  3  0  0  0  0  0  0
  188.6730  178.2930  141.6600 C   0  0  0  0  0  2  0  0  0  0  0  0
  190.8280  177.9950  142.9650 C   0  0  0  0  0  2  0  0  0  0  0  0
  187.2970  177.8270  141.8000 N   0  0  0  0  0  0  0  0  0  0  0  0
  190.0040  178.3560  145.0810 C   0  0  1  0  0  3  0  0  0  0  0  0
  189.5410  177.3470  142.4500 C   0  0  1  0  0  3  0  0  0  0  0  0
  188.6180  177.7940  144.7670 C   0  0  0  0  0  2  0  0  0  0  0  0
  187.2720  176.8790  142.9170 C   0  0  0  0  0  2  0  0  0  0  0  0
  190.8480  177.3700  145.6090 O   0  0  0  0  0  0  0  0  0  0  0  0
  190.1070  176.7600  146.5630 N   0  0  0  0  0  2  0  0  0  0  0  0
  190.5420  177.3010  147.8400 C   0  0  0  0  0  2  0  0  0  0  0  0
  189.4640  178.1960  148.4200 C   0  0  0  0  0  2  0  0  0  0  0  0
  188.1310  177.4740  148.4340 C   0  0  0  0  0  1  0  0  0  0  0  0
  2  1  1  0  0  0  0
  3  1  1  0  0  0  0
  4 18  1  6  0  0  0
  4  3  1  0  0  0  0
  5  2  2  0  0  0  0
  6  9  1  6  0  0  0
  6  4  1  0  0  0  0
  6  5  1  0  0  0  0
  7 15  1  0  0  0  0
  7 14  1  0  0  0  0
  8 13  2  0  0  0  0
  8 15  1  0  0  0  0
 10 11  2  0  0  0  0
 10  8  1  0  0  0  0
 11  7  1  0  0  0  0
 12  9  1  0  0  0  0
 14  9  2  0  0  0  0
 15 12  2  0  0  0  0
 16 14  1  0  0  0  0
 17 16  1  0  0  0  0
 19 24  1  0  0  0  0
 20 27  1  6  0  0  0
 20 26  1  0  0  0  0
 21 23  1  0  0  0  0
 22 19  1  0  0  0  0
 23 18  1  0  0  0  0
 23 27  1  0  0  0  0
 24 28  1  6  0  0  0
 25 21  1  1  0  0  0
 25 22  1  0  0  0  0
 25 20  1  0  0  0  0
 26 24  1  0  0  0  0
 28 29  1  0  0  0  0
 29 30  1  0  0  0  0
 30 31  1  0  0  0  0
 31 32  1  0  0  0  0
M  END
>  <MODEL>
1

>  <REMARK>
 VINA RESULT:      -8.0      0.000      0.000
  Name = 
  8 active torsions:
  status: ('A' for Active; 'I' for Inactive)
    1  A    between atoms: C_1  and  C_20
    2  A    between atoms: C_3  and  N_14
    3  A    between atoms: C_3  and  C_15
    4  A    between atoms: N_6  and  C_31
    5  A    between atoms: N_10  and  C_20
    6  A    between atoms: N_10  and  O_24
    7  A    between atoms: C_16  and  C_26
    8  A    between atoms: C_19  and  O_24
                            x       y       z     vdW  Elec       q    Type
                         _______ _______ _______ _____ _____    ______ ____

>  <TORSDO>
F 8

$$$$
=
 OpenBabel10262421383D

 32 36  0  0  1  0  0  0  0  0999 V2000
  187.3990  178.0470  138.3910 C   0  0  0  0  0  2  0  0  0  0  0  0
  188.1130  177.9710  137.0690 C   0  0  0  0  0  3  0  0  0  0  0  0
  188.3690  178.3370  139.5290 C   0  0  0  0  0  2  0  0  0  0  0  0
  189.4950  177.3100  139.5060 C   0  0  1  0  0  3  0  0  0  0  0  0
  189.4100  177.6460  136.9760 C   0  0  0  0  0  3  0  0  0  0  0  0
  190.2860  177.4230  138.1880 C   0  0  2  0  0  3  0  0  0  0  0  0
  192.9390  174.9440  137.8890 N   0  0  0  0  0  0  0  0  0  0  0  0
  192.3140  173.3090  136.4470 C   0  0  0  0  0  0  0  0  0  0  0  0
  191.1610  176.2290  137.9690 C   0  0  0  0  0  0  0  0  0  0  0  0
  193.8130  173.2340  136.4940 C   0  0  0  0  0  3  0  0  0  0  0  0
  194.2120  174.4110  137.4300 C   0  0  0  0  0  3  0  0  0  0  0  0
  190.7710  175.1040  137.3120 N   0  0  0  0  0  0  0  0  0  0  0  0
  191.5610  172.6130  135.7170 O   0  0  0  0  0  0  0  0  0  0  0  0
  192.5070  176.1490  138.2800 C   0  0  0  0  0  0  0  0  0  0  0  0
  191.8990  174.3600  137.3260 C   0  0  0  0  0  0  0  0  0  0  0  0
  193.3320  177.2110  138.7610 N   0  0  0  0  0  2  0  0  0  0  0  0
  193.9740  177.0960  139.8250 O   0  0  0  0  0  1  0  0  0  0  0  0
  190.4020  177.5570  140.7030 C   0  0  0  0  0  2  0  0  0  0  0  0
  191.0110  178.2500  145.0420 O   0  0  0  0  0  0  0  0  0  0  0  0
  189.4480  176.2730  143.6160 C   0  0  1  0  0  3  0  0  0  0  0  0
  191.5430  176.6230  142.5230 C   0  0  0  0  0  2  0  0  0  0  0  0
  191.4490  176.9090  145.0430 C   0  0  0  0  0  2  0  0  0  0  0  0
  190.5740  176.3330  141.4700 N   0  0  0  0  0  0  0  0  0  0  0  0
  189.6040  178.2730  145.1670 C   0  0  1  0  0  3  0  0  0  0  0  0
  190.9420  176.1410  143.8200 C   0  0  1  0  0  3  0  0  0  0  0  0
  188.9340  177.6830  143.9280 C   0  0  0  0  0  2  0  0  0  0  0  0
  189.2960  176.0410  142.1260 C   0  0  0  0  0  2  0  0  0  0  0  0
  189.1730  177.6320  146.3370 O   0  0  0  0  0  0  0  0  0  0  0  0
  187.8370  177.4860  146.1750 N   0  0  0  0  0  2  0  0  0  0  0  0
  187.2060  178.1330  147.3130 C   0  0  0  0  0  2  0  0  0  0  0  0
  185.9180  178.8090  146.8780 C   0  0  0  0  0  2  0  0  0  0  0  0
  185.5730  178.4170  145.4550 C   0  0  0  0  0  1  0  0  0  0  0  0
  1  3  1  0  0  0  0
  2  1  1  0  0  0  0
  4  3  1  0  0  0  0
  4 18  1  1  0  0  0
  5  2  2  0  0  0  0
  5  6  1  0  0  0  0
  6  9  1  6  0  0  0
  6  4  1  0  0  0  0
  7 14  1  0  0  0  0
  8 10  1  0  0  0  0
  8 15  1  0  0  0  0
  9 14  2  0  0  0  0
 10 11  2  0  0  0  0
 11  7  1  0  0  0  0
 12 15  2  0  0  0  0
 12  9  1  0  0  0  0
 13  8  2  0  0  0  0
 14 16  1  0  0  0  0
 15  7  1  0  0  0  0
 16 17  1  0  0  0  0
 18 23  1  0  0  0  0
 19 22  1  0  0  0  0
 19 24  1  0  0  0  0
 20 27  1  6  0  0  0
 20 25  1  0  0  0  0
 20 26  1  0  0  0  0
 23 27  1  0  0  0  0
 23 21  1  0  0  0  0
 24 28  1  1  0  0  0
 25 21  1  6  0  0  0
 25 22  1  0  0  0  0
 26 24  1  0  0  0  0
 29 28  1  0  0  0  0
 29 30  1  0  0  0  0
 31 30  1  0  0  0  0
 32 31  1  0  0  0  0
M  END
>  <MODEL>
2

>  <REMARK>
 VINA RESULT:      -7.6      4.666      7.002
  Name = 
  8 active torsions:
  status: ('A' for Active; 'I' for Inactive)
    1  A    between atoms: C_1  and  C_20
    2  A    between atoms: C_3  and  N_14
    3  A    between atoms: C_3  and  C_15
    4  A    between atoms: N_6  and  C_31
    5  A    between atoms: N_10  and  C_20
    6  A    between atoms: N_10  and  O_24
    7  A    between atoms: C_16  and  C_26
    8  A    between atoms: C_19  and  O_24
                            x       y       z     vdW  Elec       q    Type
                         _______ _______ _______ _____ _____    ______ ____

>  <TORSDO>
F 8

$$$$
=
 OpenBabel10262421383D

 32 36  0  0  1  0  0  0  0  0999 V2000
  187.0120  177.6590  146.6840 C   0  0  0  0  0  2  0  0  0  0  0  0
  186.0510  178.8120  146.7880 C   0  0  0  0  0  3  0  0  0  0  0  0
  187.6130  177.5630  145.2870 C   0  0  0  0  0  2  0  0  0  0  0  0
  186.4910  177.5130  144.2570 C   0  0  1  0  0  3  0  0  0  0  0  0
  185.4090  179.3050  145.7200 C   0  0  0  0  0  3  0  0  0  0  0  0
  185.6640  178.8120  144.3130 C   0  0  2  0  0  3  0  0  0  0  0  0
  182.8680  178.7270  141.9800 N   0  0  0  0  0  0  0  0  0  0  0  0
  180.9070  178.6620  143.1190 C   0  0  0  0  0  0  0  0  0  0  0  0
  184.3660  178.6690  143.5830 C   0  0  0  0  0  0  0  0  0  0  0  0
  180.5470  179.1750  141.7550 C   0  0  0  0  0  3  0  0  0  0  0  0
  181.9180  179.2780  141.0260 C   0  0  0  0  0  3  0  0  0  0  0  0
  183.1770  178.3910  144.1810 N   0  0  0  0  0  0  0  0  0  0  0  0
  180.1200  178.5290  144.0920 O   0  0  0  0  0  0  0  0  0  0  0  0
  184.1660  178.9230  142.2370 C   0  0  0  0  0  0  0  0  0  0  0  0
  182.3180  178.4190  143.1390 C   0  0  0  0  0  0  0  0  0  0  0  0
  185.1210  179.4690  141.3260 N   0  0  0  0  0  2  0  0  0  0  0  0
  184.9980  179.3080  140.0940 O   0  0  0  0  0  1  0  0  0  0  0  0
  187.1050  177.3230  142.8780 C   0  0  0  0  0  2  0  0  0  0  0  0
  189.4020  176.1220  139.2770 O   0  0  0  0  0  0  0  0  0  0  0  0
  189.2420  178.6400  140.6990 C   0  0  1  0  0  3  0  0  0  0  0  0
  189.3020  176.8170  142.2410 C   0  0  0  0  0  2  0  0  0  0  0  0
  190.5170  176.5490  140.0290 C   0  0  0  0  0  2  0  0  0  0  0  0
  188.4640  177.8440  142.8520 N   0  0  0  0  0  0  0  0  0  0  0  0
  188.8330  177.2390  138.6250 C   0  0  1  0  0  3  0  0  0  0  0  0
  190.1130  177.4930  141.1640 C   0  0  1  0  0  3  0  0  0  0  0  0
  188.2260  178.2130  139.6340 C   0  0  0  0  0  2  0  0  0  0  0  0
  188.4740  179.0020  141.9550 C   0  0  0  0  0  2  0  0  0  0  0  0
  189.7560  177.8790  137.7860 O   0  0  0  0  0  0  0  0  0  0  0  0
  188.9980  178.4780  136.8380 N   0  0  0  0  0  2  0  0  0  0  0  0
  188.5810  177.4350  135.9160 C   0  0  0  0  0  2  0  0  0  0  0  0
  187.2510  177.8010  135.2840 C   0  0  0  0  0  2  0  0  0  0  0  0
  186.1140  177.5120  136.2440 C   0  0  0  0  0  1  0  0  0  0  0  0
  1  2  1  0  0  0  0
  3  1  1  0  0  0  0
  4 18  1  6  0  0  0
  4  6  1  0  0  0  0
  4  3  1  0  0  0  0
  5  2  2  0  0  0  0
  6  9  1  1  0  0  0
  6  5  1  0  0  0  0
  7 14  1  0  0  0  0
  7 15  1  0  0  0  0
  8 15  1  0  0  0  0
  8 13  2  0  0  0  0
  9 12  1  0  0  0  0
 10  8  1  0  0  0  0
 11 10  2  0  0  0  0
 11  7  1  0  0  0  0
 14  9  2  0  0  0  0
 15 12  2  0  0  0  0
 16 14  1  0  0  0  0
 17 16  1  0  0  0  0
 19 22  1  0  0  0  0
 20 26  1  6  0  0  0
 20 25  1  0  0  0  0
 20 27  1  0  0  0  0
 21 23  1  0  0  0  0
 23 18  1  0  0  0  0
 24 28  1  1  0  0  0
 24 19  1  0  0  0  0
 24 26  1  0  0  0  0
 25 22  1  6  0  0  0
 25 21  1  0  0  0  0
 27 23  1  0  0  0  0
 29 28  1  0  0  0  0
 30 29  1  0  0  0  0
 31 30  1  0  0  0  0
 31 32  1  0  0  0  0
M  END
>  <MODEL>
3

>  <REMARK>
 VINA RESULT:      -7.0      2.964      5.658
  Name = 
  8 active torsions:
  status: ('A' for Active; 'I' for Inactive)
    1  A    between atoms: C_1  and  C_20
    2  A    between atoms: C_3  and  N_14
    3  A    between atoms: C_3  and  C_15
    4  A    between atoms: N_6  and  C_31
    5  A    between atoms: N_10  and  C_20
    6  A    between atoms: N_10  and  O_24
    7  A    between atoms: C_16  and  C_26
    8  A    between atoms: C_19  and  O_24
                            x       y       z     vdW  Elec       q    Type
                         _______ _______ _______ _____ _____    ______ ____

>  <TORSDO>
F 8

$$$$
=
 OpenBabel10262421383D

 32 36  0  0  1  0  0  0  0  0999 V2000
  184.2270  178.5600  142.1210 C   0  0  0  0  0  2  0  0  0  0  0  0
  183.7180  178.9700  140.7660 C   0  0  0  0  0  3  0  0  0  0  0  0
  185.7120  178.8650  142.2720 C   0  0  0  0  0  2  0  0  0  0  0  0
  186.4770  178.2260  141.1180 C   0  0  1  0  0  3  0  0  0  0  0  0
  184.5230  179.0530  139.6970 C   0  0  0  0  0  3  0  0  0  0  0  0
  186.0170  178.8340  139.7780 C   0  0  2  0  0  3  0  0  0  0  0  0
  187.7240  177.2240  136.9920 N   0  0  0  0  0  0  0  0  0  0  0  0
  186.2150  176.1920  135.6490 C   0  0  0  0  0  0  0  0  0  0  0  0
  186.4740  178.0110  138.6160 C   0  0  0  0  0  0  0  0  0  0  0  0
  187.4290  176.3930  134.7880 C   0  0  0  0  0  3  0  0  0  0  0  0
  188.4130  177.1650  135.7130 C   0  0  0  0  0  3  0  0  0  0  0  0
  185.6690  177.1790  137.9030 N   0  0  0  0  0  0  0  0  0  0  0  0
  185.1160  175.7050  135.2770 O   0  0  0  0  0  0  0  0  0  0  0  0
  187.7230  178.0750  138.0250 C   0  0  0  0  0  0  0  0  0  0  0  0
  186.5060  176.7180  136.9490 C   0  0  0  0  0  0  0  0  0  0  0  0
  188.7640  179.0030  138.3370 N   0  0  0  0  0  2  0  0  0  0  0  0
  189.0560  179.9290  137.5530 O   0  0  0  0  0  1  0  0  0  0  0  0
  187.9650  178.4610  141.3330 C   0  0  0  0  0  2  0  0  0  0  0  0
  191.2800  178.3960  144.2810 O   0  0  0  0  0  0  0  0  0  0  0  0
  189.2810  176.4160  143.5990 C   0  0  1  0  0  3  0  0  0  0  0  0
  190.0820  177.5010  141.6290 C   0  0  0  0  0  2  0  0  0  0  0  0
  191.6820  177.2400  143.5800 C   0  0  0  0  0  2  0  0  0  0  0  0
  188.6770  177.1920  141.3840 N   0  0  0  0  0  0  0  0  0  0  0  0
  190.3200  178.0350  145.2520 C   0  0  1  0  0  3  0  0  0  0  0  0
  190.5320  176.6310  142.7750 C   0  0  1  0  0  3  0  0  0  0  0  0
  189.0280  177.5550  144.5930 C   0  0  0  0  0  2  0  0  0  0  0  0
  188.1850  176.4580  142.5530 C   0  0  0  0  0  2  0  0  0  0  0  0
  190.8200  177.0830  146.1510 O   0  0  0  0  0  0  0  0  0  0  0  0
  189.7810  176.8110  146.9750 N   0  0  0  0  0  2  0  0  0  0  0  0
  189.9090  177.7010  148.1170 C   0  0  0  0  0  2  0  0  0  0  0  0
  188.5480  178.2530  148.5020 C   0  0  0  0  0  2  0  0  0  0  0  0
  187.4510  177.5090  147.7660 C   0  0  0  0  0  1  0  0  0  0  0  0
  1  3  1  0  0  0  0
  2  1  1  0  0  0  0
  4 18  1  1  0  0  0
  4  3  1  0  0  0  0
  5  6  1  0  0  0  0
  5  2  2  0  0  0  0
  6  9  1  6  0  0  0
  6  4  1  0  0  0  0
  7 14  1  0  0  0  0
  8 15  1  0  0  0  0
 10  8  1  0  0  0  0
 10 11  2  0  0  0  0
 11  7  1  0  0  0  0
 12  9  1  0  0  0  0
 13  8  2  0  0  0  0
 14 16  1  0  0  0  0
 14  9  2  0  0  0  0
 15  7  1  0  0  0  0
 15 12  2  0  0  0  0
 17 16  1  0  0  0  0
 18 23  1  0  0  0  0
 19 24  1  0  0  0  0
 20 27  1  6  0  0  0
 20 26  1  0  0  0  0
 22 19  1  0  0  0  0
 23 21  1  0  0  0  0
 23 27  1  0  0  0  0
 24 28  1  6  0  0  0
 25 21  1  6  0  0  0
 25 22  1  0  0  0  0
 25 20  1  0  0  0  0
 26 24  1  0  0  0  0
 28 29  1  0  0  0  0
 29 30  1  0  0  0  0
 30 31  1  0  0  0  0
 32 31  1  0  0  0  0
M  END
>  <MODEL>
4

>  <REMARK>
 VINA RESULT:      -7.0      2.600      3.150
  Name = 
  8 active torsions:
  status: ('A' for Active; 'I' for Inactive)
    1  A    between atoms: C_1  and  C_20
    2  A    between atoms: C_3  and  N_14
    3  A    between atoms: C_3  and  C_15
    4  A    between atoms: N_6  and  C_31
    5  A    between atoms: N_10  and  C_20
    6  A    between atoms: N_10  and  O_24
    7  A    between atoms: C_16  and  C_26
    8  A    between atoms: C_19  and  O_24
                            x       y       z     vdW  Elec       q    Type
                         _______ _______ _______ _____ _____    ______ ____

>  <TORSDO>
F 8

$$$$
=
 OpenBabel10262421383D

 32 36  0  0  1  0  0  0  0  0999 V2000
  185.6350  179.1630  146.4360 C   0  0  0  0  0  2  0  0  0  0  0  0
  186.6350  178.1650  146.9530 C   0  0  0  0  0  3  0  0  0  0  0  0
  184.9690  178.6690  145.1580 C   0  0  0  0  0  2  0  0  0  0  0  0
  186.0420  178.3020  144.1390 C   0  0  1  0  0  3  0  0  0  0  0  0
  187.2430  177.2820  146.1490 C   0  0  0  0  0  3  0  0  0  0  0  0
  186.9110  177.1500  144.6790 C   0  0  2  0  0  3  0  0  0  0  0  0
  190.2920  177.0470  143.3260 N   0  0  0  0  0  0  0  0  0  0  0  0
  190.2190  176.9300  141.0630 C   0  0  0  0  0  0  0  0  0  0  0  0
  188.1700  176.9930  143.8870 C   0  0  0  0  0  0  0  0  0  0  0  0
  191.5880  177.4550  141.3800 C   0  0  0  0  0  3  0  0  0  0  0  0
  191.5800  177.5930  142.9300 C   0  0  0  0  0  3  0  0  0  0  0  0
  188.2080  176.6850  142.5630 N   0  0  0  0  0  0  0  0  0  0  0  0
  189.7360  176.7680  139.9110 O   0  0  0  0  0  0  0  0  0  0  0  0
  189.4490  177.2630  144.3430 C   0  0  0  0  0  0  0  0  0  0  0  0
  189.5330  176.7120  142.3010 C   0  0  0  0  0  0  0  0  0  0  0  0
  189.7960  177.8380  145.6030 N   0  0  0  0  0  2  0  0  0  0  0  0
  190.6210  177.2830  146.3570 O   0  0  0  0  0  1  0  0  0  0  0  0
  185.3610  177.9010  142.8390 C   0  0  0  0  0  2  0  0  0  0  0  0
  184.4760  177.3020  138.5330 O   0  0  0  0  0  0  0  0  0  0  0  0
  182.9690  178.5980  140.6390 C   0  0  1  0  0  3  0  0  0  0  0  0
  185.2910  179.1180  140.8380 C   0  0  0  0  0  2  0  0  0  0  0  0
  184.3560  178.7070  138.5150 C   0  0  0  0  0  2  0  0  0  0  0  0
  184.7650  179.0640  142.1980 N   0  0  0  0  0  0  0  0  0  0  0  0
  183.2430  176.7400  138.9340 C   0  0  1  0  0  3  0  0  0  0  0  0
  184.1100  179.2770  139.9140 C   0  0  1  0  0  3  0  0  0  0  0  0
  182.9310  177.0860  140.3890 C   0  0  0  0  0  2  0  0  0  0  0  0
  183.3240  178.8200  142.0960 C   0  0  0  0  0  2  0  0  0  0  0  0
  182.1970  177.1180  138.0820 O   0  0  0  0  0  0  0  0  0  0  0  0
  181.3400  176.0690  138.1060 N   0  0  0  0  0  2  0  0  0  0  0  0
  180.0040  176.6240  138.2340 C   0  0  0  0  0  2  0  0  0  0  0  0
  179.3790  176.1780  139.5430 C   0  0  0  0  0  2  0  0  0  0  0  0
  179.9690  174.8520  139.9830 C   0  0  0  0  0  1  0  0  0  0  0  0
  1  2  1  0  0  0  0
  3  1  1  0  0  0  0
  4 18  1  6  0  0  0
  4  6  1  0  0  0  0
  4  3  1  0  0  0  0
  5  2  2  0  0  0  0
  6  9  1  6  0  0  0
  6  5  1  0  0  0  0
  7 14  1  0  0  0  0
  8 10  1  0  0  0  0
  8 15  1  0  0  0  0
  9 14  2  0  0  0  0
 10 11  2  0  0  0  0
 11  7  1  0  0  0  0
 12  9  1  0  0  0  0
 13  8  2  0  0  0  0
 14 16  1  0  0  0  0
 15 12  2  0  0  0  0
 15  7  1  0  0  0  0
 16 17  1  0  0  0  0
 19 24  1  0  0  0  0
 20 26  1  1  0  0  0
 20 27  1  0  0  0  0
 21 23  1  0  0  0  0
 22 19  1  0  0  0  0
 23 18  1  0  0  0  0
 24 28  1  6  0  0  0
 24 26  1  0  0  0  0
 25 22  1  6  0  0  0
 25 20  1  0  0  0  0
 25 21  1  0  0  0  0
 27 23  1  0  0  0  0
 28 29  1  0  0  0  0
 29 30  1  0  0  0  0
 30 31  1  0  0  0  0
 31 32  1  0  0  0  0
M  END
>  <MODEL>
5

>  <REMARK>
 VINA RESULT:      -7.0      2.011      8.001
  Name = 
  8 active torsions:
  status: ('A' for Active; 'I' for Inactive)
    1  A    between atoms: C_1  and  C_20
    2  A    between atoms: C_3  and  N_14
    3  A    between atoms: C_3  and  C_15
    4  A    between atoms: N_6  and  C_31
    5  A    between atoms: N_10  and  C_20
    6  A    between atoms: N_10  and  O_24
    7  A    between atoms: C_16  and  C_26
    8  A    between atoms: C_19  and  O_24
                            x       y       z     vdW  Elec       q    Type
                         _______ _______ _______ _____ _____    ______ ____

>  <TORSDO>
F 8

$$$$
=
 OpenBabel10262421383D

 32 36  0  0  1  0  0  0  0  0999 V2000
  191.5090  176.4050  144.2900 C   0  0  0  0  0  2  0  0  0  0  0  0
  191.0200  177.5680  145.1100 C   0  0  0  0  0  3  0  0  0  0  0  0
  191.0250  176.5010  142.8480 C   0  0  0  0  0  2  0  0  0  0  0  0
  189.5080  176.6560  142.8360 C   0  0  1  0  0  3  0  0  0  0  0  0
  189.9080  178.2460  144.7940 C   0  0  0  0  0  3  0  0  0  0  0  0
  189.1060  177.9650  143.5430 C   0  0  2  0  0  3  0  0  0  0  0  0
  185.4750  178.2460  143.6410 N   0  0  0  0  0  0  0  0  0  0  0  0
  184.7670  178.4220  145.7880 C   0  0  0  0  0  0  0  0  0  0  0  0
  187.6440  177.9900  143.8610 C   0  0  0  0  0  0  0  0  0  0  0  0
  183.6470  178.9830  144.9620 C   0  0  0  0  0  3  0  0  0  0  0  0
  184.1910  178.9160  143.5070 C   0  0  0  0  0  3  0  0  0  0  0  0
  187.1300  177.8610  145.1130 N   0  0  0  0  0  0  0  0  0  0  0  0
  184.8130  178.3830  147.0450 O   0  0  0  0  0  0  0  0  0  0  0  0
  186.6290  178.2750  142.9640 C   0  0  0  0  0  0  0  0  0  0  0  0
  185.8050  178.0020  144.8940 C   0  0  0  0  0  0  0  0  0  0  0  0
  186.7880  178.7010  141.6100 N   0  0  0  0  0  2  0  0  0  0  0  0
  185.9710  179.4830  141.0820 O   0  0  0  0  0  1  0  0  0  0  0  0
  189.0320  176.6560  141.3900 C   0  0  0  0  0  2  0  0  0  0  0  0
  188.7280  175.5330  137.1090 O   0  0  0  0  0  0  0  0  0  0  0  0
  189.1510  178.0930  138.3960 C   0  0  1  0  0  3  0  0  0  0  0  0
  190.4000  176.3870  139.5070 C   0  0  0  0  0  2  0  0  0  0  0  0
  189.9990  176.1380  137.0140 C   0  0  0  0  0  2  0  0  0  0  0  0
  189.9960  177.3370  140.5390 N   0  0  0  0  0  0  0  0  0  0  0  0
  187.7340  176.5300  136.9880 C   0  0  1  0  0  3  0  0  0  0  0  0
  190.2660  177.0920  138.1810 C   0  0  1  0  0  3  0  0  0  0  0  0
  187.7620  177.4800  138.1840 C   0  0  0  0  0  2  0  0  0  0  0  0
  189.2910  178.4320  139.8660 C   0  0  0  0  0  2  0  0  0  0  0  0
  187.8400  177.2270  135.7770 O   0  0  0  0  0  0  0  0  0  0  0  0
  186.6130  177.7670  135.5850 N   0  0  0  0  0  2  0  0  0  0  0  0
  185.7560  176.6960  135.1050 C   0  0  0  0  0  2  0  0  0  0  0  0
  184.3070  177.0030  135.4350 C   0  0  0  0  0  2  0  0  0  0  0  0
  184.1570  177.3100  136.9120 C   0  0  0  0  0  1  0  0  0  0  0  0
  1  2  1  0  0  0  0
  3  1  1  0  0  0  0
  4 18  1  6  0  0  0
  4  3  1  0  0  0  0
  4  6  1  0  0  0  0
  5  2  2  0  0  0  0
  6  9  1  1  0  0  0
  6  5  1  0  0  0  0
  7 15  1  0  0  0  0
  8 13  2  0  0  0  0
  9 12  1  0  0  0  0
 10  8  1  0  0  0  0
 11  7  1  0  0  0  0
 11 10  2  0  0  0  0
 14  7  1  0  0  0  0
 14  9  2  0  0  0  0
 15 12  2  0  0  0  0
 15  8  1  0  0  0  0
 16 14  1  0  0  0  0
 17 16  1  0  0  0  0
 20 26  1  1  0  0  0
 20 27  1  0  0  0  0
 21 23  1  0  0  0  0
 22 19  1  0  0  0  0
 23 18  1  0  0  0  0
 24 28  1  6  0  0  0
 24 19  1  0  0  0  0
 24 26  1  0  0  0  0
 25 22  1  6  0  0  0
 25 20  1  0  0  0  0
 25 21  1  0  0  0  0
 27 23  1  0  0  0  0
 29 28  1  0  0  0  0
 30 31  1  0  0  0  0
 30 29  1  0  0  0  0
 31 32  1  0  0  0  0
M  END
>  <MODEL>
6

>  <REMARK>
 VINA RESULT:      -7.0      3.193      7.469
  Name = 
  8 active torsions:
  status: ('A' for Active; 'I' for Inactive)
    1  A    between atoms: C_1  and  C_20
    2  A    between atoms: C_3  and  N_14
    3  A    between atoms: C_3  and  C_15
    4  A    between atoms: N_6  and  C_31
    5  A    between atoms: N_10  and  C_20
    6  A    between atoms: N_10  and  O_24
    7  A    between atoms: C_16  and  C_26
    8  A    between atoms: C_19  and  O_24
                            x       y       z     vdW  Elec       q    Type
                         _______ _______ _______ _____ _____    ______ ____

>  <TORSDO>
F 8

$$$$
=
 OpenBabel10262421383D

 32 36  0  0  1  0  0  0  0  0999 V2000
  187.8770  177.0280  138.2350 C   0  0  0  0  0  2  0  0  0  0  0  0
  188.6410  177.0880  136.9400 C   0  0  0  0  0  3  0  0  0  0  0  0
  188.6640  177.6650  139.3730 C   0  0  0  0  0  2  0  0  0  0  0  0
  190.0440  177.0230  139.4530 C   0  0  1  0  0  3  0  0  0  0  0  0
  189.9780  177.1620  136.9040 C   0  0  0  0  0  3  0  0  0  0  0  0
  190.8250  177.2860  138.1510 C   0  0  2  0  0  3  0  0  0  0  0  0
  193.2900  174.6670  137.5740 N   0  0  0  0  0  0  0  0  0  0  0  0
  195.0650  174.9530  138.9570 C   0  0  0  0  0  0  0  0  0  0  0  0
  192.0240  176.3980  138.0400 C   0  0  0  0  0  0  0  0  0  0  0  0
  195.1180  173.5090  138.5510 C   0  0  0  0  0  3  0  0  0  0  0  0
  193.8510  173.3280  137.6660 C   0  0  0  0  0  3  0  0  0  0  0  0
  193.2120  176.6350  138.6580 N   0  0  0  0  0  0  0  0  0  0  0  0
  195.8370  175.5220  139.7720 O   0  0  0  0  0  0  0  0  0  0  0  0
  192.0580  175.1640  137.4150 C   0  0  0  0  0  0  0  0  0  0  0  0
  193.9380  175.5520  138.3070 C   0  0  0  0  0  0  0  0  0  0  0  0
  190.9450  174.4630  136.8590 N   0  0  0  0  0  2  0  0  0  0  0  0
  190.2190  173.7410  137.5730 O   0  0  0  0  0  1  0  0  0  0  0  0
  190.7810  177.6030  140.6510 C   0  0  0  0  0  2  0  0  0  0  0  0
  190.3320  178.5540  144.9610 O   0  0  0  0  0  0  0  0  0  0  0  0
  189.8380  176.1200  143.4720 C   0  0  1  0  0  3  0  0  0  0  0  0
  191.8360  177.1770  142.6990 C   0  0  0  0  0  2  0  0  0  0  0  0
  191.2050  177.4600  145.1400 C   0  0  0  0  0  2  0  0  0  0  0  0
  191.2330  176.5380  141.5340 N   0  0  0  0  0  0  0  0  0  0  0  0
  189.0070  178.0740  144.8600 C   0  0  1  0  0  3  0  0  0  0  0  0
  191.2230  176.5370  143.9200 C   0  0  1  0  0  3  0  0  0  0  0  0
  188.8170  177.2570  143.5830 C   0  0  0  0  0  2  0  0  0  0  0  0
  190.0430  175.8200  142.0010 C   0  0  0  0  0  2  0  0  0  0  0  0
  188.6290  177.3440  145.9950 O   0  0  0  0  0  0  0  0  0  0  0  0
  187.6600  178.0910  146.5750 N   0  0  0  0  0  2  0  0  0  0  0  0
  186.3890  177.5460  146.1270 C   0  0  0  0  0  2  0  0  0  0  0  0
  185.2800  178.5560  146.3570 C   0  0  0  0  0  2  0  0  0  0  0  0
  184.5790  178.8760  145.0520 C   0  0  0  0  0  1  0  0  0  0  0  0
  1  3  1  0  0  0  0
  2  1  1  0  0  0  0
  3  4  1  0  0  0  0
  4 18  1  1  0  0  0
  5  2  2  0  0  0  0
  5  6  1  0  0  0  0
  6  9  1  6  0  0  0
  6  4  1  0  0  0  0
  7 11  1  0  0  0  0
  7 15  1  0  0  0  0
  8 13  2  0  0  0  0
  9 12  1  0  0  0  0
 10  8  1  0  0  0  0
 11 10  2  0  0  0  0
 14  7  1  0  0  0  0
 14  9  2  0  0  0  0
 15 12  2  0  0  0  0
 15  8  1  0  0  0  0
 16 14  1  0  0  0  0
 16 17  1  0  0  0  0
 18 23  1  0  0  0  0
 19 22  1  0  0  0  0
 20 27  1  6  0  0  0
 20 26  1  0  0  0  0
 20 25  1  0  0  0  0
 23 27  1  0  0  0  0
 23 21  1  0  0  0  0
 24 19  1  0  0  0  0
 24 28  1  1  0  0  0
 25 21  1  6  0  0  0
 25 22  1  0  0  0  0
 26 24  1  0  0  0  0
 28 29  1  0  0  0  0
 30 31  1  0  0  0  0
 30 29  1  0  0  0  0
 32 31  1  0  0  0  0
M  END
>  <MODEL>
7

>  <REMARK>
 VINA RESULT:      -6.8      4.670      7.677
  Name = 
  8 active torsions:
  status: ('A' for Active; 'I' for Inactive)
    1  A    between atoms: C_1  and  C_20
    2  A    between atoms: C_3  and  N_14
    3  A    between atoms: C_3  and  C_15
    4  A    between atoms: N_6  and  C_31
    5  A    between atoms: N_10  and  C_20
    6  A    between atoms: N_10  and  O_24
    7  A    between atoms: C_16  and  C_26
    8  A    between atoms: C_19  and  O_24
                            x       y       z     vdW  Elec       q    Type
                         _______ _______ _______ _____ _____    ______ ____

>  <TORSDO>
F 8

$$$$
=
 OpenBabel10262421383D

 32 36  0  0  1  0  0  0  0  0999 V2000
  184.1340  178.2610  144.1810 C   0  0  0  0  0  2  0  0  0  0  0  0
  183.1910  178.9790  143.2550 C   0  0  0  0  0  3  0  0  0  0  0  0
  185.5870  178.5700  143.8430 C   0  0  0  0  0  2  0  0  0  0  0  0
  185.8360  178.2680  142.3690 C   0  0  1  0  0  3  0  0  0  0  0  0
  183.5520  179.3550  142.0200 C   0  0  0  0  0  3  0  0  0  0  0  0
  184.9560  179.1750  141.4880 C   0  0  2  0  0  3  0  0  0  0  0  0
  184.3110  177.5580  138.2880 N   0  0  0  0  0  0  0  0  0  0  0  0
  186.1080  177.7900  136.9240 C   0  0  0  0  0  0  0  0  0  0  0  0
  184.9050  178.6860  140.0750 C   0  0  0  0  0  0  0  0  0  0  0  0
  185.3530  176.6150  136.3750 C   0  0  0  0  0  3  0  0  0  0  0  0
  184.1710  176.4370  137.3720 C   0  0  0  0  0  3  0  0  0  0  0  0
  185.8340  178.9840  139.1270 N   0  0  0  0  0  0  0  0  0  0  0  0
  187.2090  178.2270  136.4990 O   0  0  0  0  0  0  0  0  0  0  0  0
  183.9980  177.7700  139.5720 C   0  0  0  0  0  0  0  0  0  0  0  0
  185.3900  178.2820  138.0620 C   0  0  0  0  0  0  0  0  0  0  0  0
  183.0200  177.0460  140.3190 N   0  0  0  0  0  2  0  0  0  0  0  0
  181.8000  177.2360  140.1370 O   0  0  0  0  0  1  0  0  0  0  0  0
  187.3120  178.4920  142.0710 C   0  0  0  0  0  2  0  0  0  0  0  0
  191.4430  178.2310  143.6680 O   0  0  0  0  0  0  0  0  0  0  0  0
  189.2890  176.2960  143.5910 C   0  0  1  0  0  3  0  0  0  0  0  0
  189.3780  177.5230  141.5440 C   0  0  0  0  0  2  0  0  0  0  0  0
  191.5510  177.1290  142.7930 C   0  0  0  0  0  2  0  0  0  0  0  0
  187.9690  177.2270  141.7830 N   0  0  0  0  0  0  0  0  0  0  0  0
  190.8720  177.7960  144.8860 C   0  0  1  0  0  3  0  0  0  0  0  0
  190.1800  176.5750  142.3990 C   0  0  1  0  0  3  0  0  0  0  0  0
  189.4210  177.3590  144.6860 C   0  0  0  0  0  2  0  0  0  0  0  0
  187.8990  176.4080  142.9970 C   0  0  0  0  0  2  0  0  0  0  0  0
  191.6330  176.7850  145.4860 O   0  0  0  0  0  0  0  0  0  0  0  0
  191.6770  177.1210  146.7970 N   0  0  0  0  0  2  0  0  0  0  0  0
  190.4070  176.7160  147.3750 C   0  0  0  0  0  2  0  0  0  0  0  0
  189.8210  177.8530  148.1920 C   0  0  0  0  0  2  0  0  0  0  0  0
  188.3410  177.6260  148.4250 C   0  0  0  0  0  1  0  0  0  0  0  0
  2  1  1  0  0  0  0
  3  1  1  0  0  0  0
  4 18  1  6  0  0  0
  4  3  1  0  0  0  0
  5  2  2  0  0  0  0
  6  9  1  6  0  0  0
  6  5  1  0  0  0  0
  6  4  1  0  0  0  0
  7 14  1  0  0  0  0
  8 15  1  0  0  0  0
 10  8  1  0  0  0  0
 10 11  2  0  0  0  0
 11  7  1  0  0  0  0
 12  9  1  0  0  0  0
 13  8  2  0  0  0  0
 14  9  2  0  0  0  0
 14 16  1  0  0  0  0
 15  7  1  0  0  0  0
 15 12  2  0  0  0  0
 17 16  1  0  0  0  0
 19 24  1  0  0  0  0
 20 27  1  6  0  0  0
 20 26  1  0  0  0  0
 21 23  1  0  0  0  0
 22 19  1  0  0  0  0
 23 18  1  0  0  0  0
 23 27  1  0  0  0  0
 24 28  1  6  0  0  0
 25 21  1  6  0  0  0
 25 22  1  0  0  0  0
 25 20  1  0  0  0  0
 26 24  1  0  0  0  0
 28 29  1  0  0  0  0
 29 30  1  0  0  0  0
 30 31  1  0  0  0  0
 31 32  1  0  0  0  0
M  END
>  <MODEL>
8

>  <REMARK>
 VINA RESULT:      -6.7      1.479      2.280
  Name = 
  8 active torsions:
  status: ('A' for Active; 'I' for Inactive)
    1  A    between atoms: C_1  and  C_20
    2  A    between atoms: C_3  and  N_14
    3  A    between atoms: C_3  and  C_15
    4  A    between atoms: N_6  and  C_31
    5  A    between atoms: N_10  and  C_20
    6  A    between atoms: N_10  and  O_24
    7  A    between atoms: C_16  and  C_26
    8  A    between atoms: C_19  and  O_24
                            x       y       z     vdW  Elec       q    Type
                         _______ _______ _______ _____ _____    ______ ____

>  <TORSDO>
F 8

$$$$
=
 OpenBabel10262421383D

 32 36  0  0  1  0  0  0  0  0999 V2000
  179.3220  179.9490  142.6280 C   0  0  0  0  0  2  0  0  0  0  0  0
  179.5850  180.4790  141.2450 C   0  0  0  0  0  3  0  0  0  0  0  0
  180.6190  179.5960  143.3430 C   0  0  0  0  0  2  0  0  0  0  0  0
  181.4310  178.6420  142.4740 C   0  0  1  0  0  3  0  0  0  0  0  0
  180.6930  180.1630  140.5590 C   0  0  0  0  0  3  0  0  0  0  0  0
  181.8100  179.3300  141.1470 C   0  0  2  0  0  3  0  0  0  0  0  0
  183.5560  177.3510  138.6370 N   0  0  0  0  0  0  0  0  0  0  0  0
  182.0870  176.0110  137.5450 C   0  0  0  0  0  0  0  0  0  0  0  0
  182.2930  178.3410  140.1350 C   0  0  0  0  0  0  0  0  0  0  0  0
  183.2680  176.1250  136.6240 C   0  0  0  0  0  3  0  0  0  0  0  0
  184.2210  177.1050  137.3670 C   0  0  0  0  0  3  0  0  0  0  0  0
  181.5270  177.3490  139.6050 N   0  0  0  0  0  0  0  0  0  0  0  0
  181.0130  175.4030  137.2990 O   0  0  0  0  0  0  0  0  0  0  0  0
  183.5240  178.3700  139.5020 C   0  0  0  0  0  0  0  0  0  0  0  0
  182.3720  176.7760  138.7220 C   0  0  0  0  0  0  0  0  0  0  0  0
  184.5100  179.3980  139.6130 N   0  0  0  0  0  2  0  0  0  0  0  0
  184.3460  180.5080  139.0680 O   0  0  0  0  0  1  0  0  0  0  0  0
  182.6770  178.2260  143.2410 C   0  0  0  0  0  2  0  0  0  0  0  0
  186.0790  177.1840  145.8910 O   0  0  0  0  0  0  0  0  0  0  0  0
  185.6850  179.3850  144.0510 C   0  0  1  0  0  3  0  0  0  0  0  0
  183.6680  178.9280  145.2450 C   0  0  0  0  0  2  0  0  0  0  0  0
  185.8740  178.4770  146.4150 C   0  0  0  0  0  2  0  0  0  0  0  0
  183.2650  179.3740  143.9150 N   0  0  0  0  0  0  0  0  0  0  0  0
  186.9080  177.2760  144.7500 C   0  0  1  0  0  3  0  0  0  0  0  0
  185.0960  179.3690  145.4450 C   0  0  1  0  0  3  0  0  0  0  0  0
  186.1960  178.0080  143.6130 C   0  0  0  0  0  2  0  0  0  0  0  0
  184.4870  179.7320  143.1900 C   0  0  0  0  0  2  0  0  0  0  0  0
  188.1420  177.8700  145.0490 O   0  0  0  0  0  0  0  0  0  0  0  0
  188.9860  176.8300  145.2400 N   0  0  0  0  0  2  0  0  0  0  0  0
  189.8160  177.1690  146.3830 C   0  0  0  0  0  2  0  0  0  0  0  0
  189.0350  176.9740  147.6690 C   0  0  0  0  0  2  0  0  0  0  0  0
  189.0300  178.2540  148.4810 C   0  0  0  0  0  1  0  0  0  0  0  0
  1  3  1  0  0  0  0
  2  1  1  0  0  0  0
  4 18  1  1  0  0  0
  4  3  1  0  0  0  0
  5  6  1  0  0  0  0
  5  2  2  0  0  0  0
  6  9  1  6  0  0  0
  6  4  1  0  0  0  0
  7 15  1  0  0  0  0
  7 14  1  0  0  0  0
  8 15  1  0  0  0  0
 10 11  2  0  0  0  0
 10  8  1  0  0  0  0
 11  7  1  0  0  0  0
 12  9  1  0  0  0  0
 13  8  2  0  0  0  0
 14 16  1  0  0  0  0
 14  9  2  0  0  0  0
 15 12  2  0  0  0  0
 17 16  1  0  0  0  0
 18 23  1  0  0  0  0
 19 22  1  0  0  0  0
 20 27  1  6  0  0  0
 20 25  1  0  0  0  0
 23 21  1  0  0  0  0
 24 28  1  1  0  0  0
 24 19  1  0  0  0  0
 25 21  1  6  0  0  0
 25 22  1  0  0  0  0
 26 20  1  0  0  0  0
 26 24  1  0  0  0  0
 27 23  1  0  0  0  0
 28 29  1  0  0  0  0
 29 30  1  0  0  0  0
 30 31  1  0  0  0  0
 31 32  1  0  0  0  0
M  END
>  <MODEL>
9

>  <REMARK>
 VINA RESULT:      -6.7      2.036      3.370
  Name = 
  8 active torsions:
  status: ('A' for Active; 'I' for Inactive)
    1  A    between atoms: C_1  and  C_20
    2  A    between atoms: C_3  and  N_14
    3  A    between atoms: C_3  and  C_15
    4  A    between atoms: N_6  and  C_31
    5  A    between atoms: N_10  and  C_20
    6  A    between atoms: N_10  and  O_24
    7  A    between atoms: C_16  and  C_26
    8  A    between atoms: C_19  and  O_24
                            x       y       z     vdW  Elec       q    Type
                         _______ _______ _______ _____ _____    ______ ____

>  <TORSDO>
F 8

$$$$
