=
 OpenBabel10252415003D

 34 39  0  0  1  0  0  0  0  0999 V2000
  186.8260  177.8180  144.7290 C   0  0  0  0  0  0  0  0  0  0  0  0
  184.6570  178.9000  144.8720 C   0  0  0  0  0  0  0  0  0  0  0  0
  185.7560  178.4940  142.6270 C   0  0  0  0  0  0  0  0  0  0  0  0
  184.7930  178.8870  140.4370 C   0  0  0  0  0  0  0  0  0  0  0  0
  185.6820  177.9470  146.8540 C   0  0  0  0  0  3  0  0  0  0  0  0
  184.6350  178.6320  146.2450 C   0  0  0  0  0  3  0  0  0  0  0  0
  183.1910  178.5470  142.1000 C   0  0  0  0  0  2  0  0  0  0  0  0
  185.7070  178.3900  144.0570 C   0  0  0  0  0  0  0  0  0  0  0  0
  183.5190  179.0040  139.7010 C   0  0  0  0  0  2  0  0  0  0  0  0
  186.7890  177.5700  146.1020 C   0  0  0  0  0  3  0  0  0  0  0  0
  187.0040  178.2800  141.9650 C   0  0  0  0  0  0  0  0  0  0  0  0
  188.0030  177.5390  144.0430 C   0  0  0  0  0  3  0  0  0  0  0  0
  183.6860  179.7600  144.3820 O   0  0  0  0  0  1  0  0  0  0  0  0
  186.0030  178.7810  139.8410 N   0  0  0  0  0  0  0  0  0  0  0  0
  187.1140  178.4850  140.5700 C   0  0  0  0  0  0  0  0  0  0  0  0
  182.4600  178.9020  140.8020 C   0  0  1  0  0  3  0  0  0  0  0  0
  184.6350  178.7240  141.7900 C   0  0  0  0  0  0  0  0  0  0  0  0
  188.1020  177.8000  142.6850 C   0  0  0  0  0  3  0  0  0  0  0  0
  189.5610  178.0580  137.6440 C   0  0  2  0  0  3  0  0  0  0  0  0
  190.2980  176.8310  138.1730 C   0  0  0  0  0  2  0  0  0  0  0  0
  188.4280  178.3240  139.8630 C   0  0  2  0  0  3  0  0  0  0  0  0
  190.5170  176.9560  139.6780 C   0  0  0  0  0  2  0  0  0  0  0  0
  188.2180  178.2130  138.3530 C   0  0  0  0  0  2  0  0  0  0  0  0
  189.1790  177.1030  140.3950 C   0  0  0  0  0  2  0  0  0  0  0  0
  189.3320  177.9090  136.1550 C   0  0  0  0  0  1  0  0  0  0  0  0
  180.3200  178.1430  139.8640 C   0  0  0  0  0  3  0  0  0  0  0  0
  181.4620  177.8410  140.4800 C   0  0  0  0  0  3  0  0  0  0  0  0
  179.1290  175.9680  141.6470 O   0  0  0  0  0  0  0  0  0  0  0  0
  179.3170  177.0800  139.5390 C   0  0  2  0  0  3  0  0  0  0  0  0
  179.5120  175.9000  140.4500 C   0  0  0  0  0  0  0  0  0  0  0  0
  180.4080  174.4640  138.5730 C   0  0  0  0  0  2  0  0  0  0  0  0
  180.6070  175.7650  137.8070 C   0  0  0  0  0  2  0  0  0  0  0  0
  179.4090  176.6760  138.0620 C   0  0  0  0  0  2  0  0  0  0  0  0
  180.1970  174.7290  139.9920 N   0  0  0  0  0  2  0  0  0  0  0  0
  1 10  2  0  0  0  0
  2  6  1  0  0  0  0
  3  8  1  0  0  0  0
  4 17  1  0  0  0  0
  6  5  2  0  0  0  0
  8  1  1  0  0  0  0
  8  2  2  0  0  0  0
  9  4  1  0  0  0  0
  9 16  1  0  0  0  0
 10  5  1  0  0  0  0
 11  3  1  0  0  0  0
 11 18  1  0  0  0  0
 12  1  1  0  0  0  0
 13  2  1  0  0  0  0
 14  4  2  0  0  0  0
 14 15  1  0  0  0  0
 15 11  2  0  0  0  0
 16 27  1  6  0  0  0
 16  7  1  0  0  0  0
 17  7  1  0  0  0  0
 17  3  2  0  0  0  0
 18 12  2  0  0  0  0
 19 25  1  6  0  0  0
 19 20  1  0  0  0  0
 19 23  1  0  0  0  0
 20 22  1  0  0  0  0
 21 24  1  0  0  0  0
 21 15  1  1  0  0  0
 22 24  1  0  0  0  0
 23 21  1  0  0  0  0
 26 27  2  0  0  0  0
 29 26  1  1  0  0  0
 29 30  1  0  0  0  0
 30 28  2  0  0  0  0
 31 34  1  0  0  0  0
 32 33  1  0  0  0  0
 32 31  1  0  0  0  0
 33 29  1  0  0  0  0
 34 30  1  0  0  0  0
M  END
>  <MODEL>
1

>  <REMARK>
 VINA RESULT:     -10.6      0.000      0.000
  Name = 
  3 active torsions:
  status: ('A' for Active; 'I' for Inactive)
    1  A    between atoms: C_3  and  C_13
    2  A    between atoms: C_12  and  C_28
    3  A    between atoms: C_17  and  C_29
                            x       y       z     vdW  Elec       q    Type
                         _______ _______ _______ _____ _____    ______ ____

>  <TORSDO>
F 3

$$$$
=
 OpenBabel10252415003D

 34 39  0  0  1  0  0  0  0  0999 V2000
  183.6900  178.5600  142.3470 C   0  0  0  0  0  0  0  0  0  0  0  0
  184.1220  179.2310  140.0540 C   0  0  0  0  0  0  0  0  0  0  0  0
  186.0190  178.5220  141.5760 C   0  0  0  0  0  0  0  0  0  0  0  0
  188.3440  178.2110  140.9650 C   0  0  0  0  0  0  0  0  0  0  0  0
  181.8430  178.9690  140.8430 C   0  0  0  0  0  3  0  0  0  0  0  0
  182.7430  179.2890  139.8310 C   0  0  0  0  0  3  0  0  0  0  0  0
  186.8790  177.9800  139.1620 C   0  0  0  0  0  2  0  0  0  0  0  0
  184.6300  178.7460  141.2930 C   0  0  0  0  0  0  0  0  0  0  0  0
  189.2480  177.9190  139.8350 C   0  0  0  0  0  2  0  0  0  0  0  0
  182.3170  178.6360  142.1070 C   0  0  0  0  0  3  0  0  0  0  0  0
  186.4290  178.3910  142.9370 C   0  0  0  0  0  0  0  0  0  0  0  0
  184.1160  178.3500  143.6540 C   0  0  0  0  0  3  0  0  0  0  0  0
  184.9430  179.7600  139.0700 O   0  0  0  0  0  1  0  0  0  0  0  0
  188.7250  178.1920  142.2620 N   0  0  0  0  0  0  0  0  0  0  0  0
  187.8030  178.2830  143.2590 C   0  0  0  0  0  0  0  0  0  0  0  0
  188.3100  177.8840  138.6260 C   0  0  1  0  0  3  0  0  0  0  0  0
  187.0290  178.3410  140.5970 C   0  0  0  0  0  0  0  0  0  0  0  0
  185.4700  178.3010  143.9510 C   0  0  0  0  0  3  0  0  0  0  0  0
  190.0960  177.4750  146.2290 C   0  0  2  0  0  3  0  0  0  0  0  0
  189.0770  176.7110  147.0710 C   0  0  0  0  0  2  0  0  0  0  0  0
  188.2620  178.2050  144.6860 C   0  0  2  0  0  3  0  0  0  0  0  0
  187.7130  177.3890  146.9890 C   0  0  0  0  0  2  0  0  0  0  0  0
  189.6360  177.5410  144.7750 C   0  0  0  0  0  2  0  0  0  0  0  0
  187.2410  177.4520  145.5390 C   0  0  0  0  0  2  0  0  0  0  0  0
  191.4380  176.7790  146.3030 C   0  0  0  0  0  1  0  0  0  0  0  0
  188.2930  176.5780  136.5440 C   0  0  0  0  0  3  0  0  0  0  0  0
  188.4780  176.6120  137.8630 C   0  0  0  0  0  3  0  0  0  0  0  0
  187.1610  173.7970  137.1010 O   0  0  0  0  0  0  0  0  0  0  0  0
  188.4620  175.3030  135.7770 C   0  0  2  0  0  3  0  0  0  0  0  0
  188.3080  174.1280  136.7010 C   0  0  0  0  0  0  0  0  0  0  0  0
  190.7670  173.5630  136.5660 C   0  0  0  0  0  2  0  0  0  0  0  0
  190.9570  174.9680  136.0110 C   0  0  0  0  0  2  0  0  0  0  0  0
  189.8130  175.2780  135.0490 C   0  0  0  0  0  2  0  0  0  0  0  0
  189.4570  173.4300  137.1930 N   0  0  0  0  0  2  0  0  0  0  0  0
  1 12  1  0  0  0  0
  2  8  1  0  0  0  0
  3 11  1  0  0  0  0
  4 14  2  0  0  0  0
  5 10  2  0  0  0  0
  6  2  2  0  0  0  0
  6  5  1  0  0  0  0
  7 17  1  0  0  0  0
  8  3  1  0  0  0  0
  8  1  2  0  0  0  0
  9  4  1  0  0  0  0
 10  1  1  0  0  0  0
 11 15  2  0  0  0  0
 11 18  1  0  0  0  0
 12 18  2  0  0  0  0
 13  2  1  0  0  0  0
 14 15  1  0  0  0  0
 16 27  1  1  0  0  0
 16  7  1  0  0  0  0
 16  9  1  0  0  0  0
 17  4  1  0  0  0  0
 17  3  2  0  0  0  0
 19 25  1  6  0  0  0
 19 20  1  0  0  0  0
 21 15  1  6  0  0  0
 21 23  1  0  0  0  0
 21 24  1  0  0  0  0
 22 20  1  0  0  0  0
 23 19  1  0  0  0  0
 24 22  1  0  0  0  0
 26 27  2  0  0  0  0
 29 26  1  1  0  0  0
 29 30  1  0  0  0  0
 30 28  2  0  0  0  0
 30 34  1  0  0  0  0
 31 34  1  0  0  0  0
 32 31  1  0  0  0  0
 33 29  1  0  0  0  0
 33 32  1  0  0  0  0
M  END
>  <MODEL>
2

>  <REMARK>
 VINA RESULT:     -10.0      3.072      6.984
  Name = 
  3 active torsions:
  status: ('A' for Active; 'I' for Inactive)
    1  A    between atoms: C_3  and  C_13
    2  A    between atoms: C_12  and  C_28
    3  A    between atoms: C_17  and  C_29
                            x       y       z     vdW  Elec       q    Type
                         _______ _______ _______ _____ _____    ______ ____

>  <TORSDO>
F 3

$$$$
=
 OpenBabel10252415003D

 34 39  0  0  1  0  0  0  0  0999 V2000
  185.4630  178.2100  142.8710 C   0  0  0  0  0  0  0  0  0  0  0  0
  184.6430  179.1050  140.7670 C   0  0  0  0  0  0  0  0  0  0  0  0
  187.0310  178.2890  140.9850 C   0  0  0  0  0  0  0  0  0  0  0  0
  188.6710  178.0810  139.2110 C   0  0  0  0  0  0  0  0  0  0  0  0
  183.1160  178.7270  142.6140 C   0  0  0  0  0  3  0  0  0  0  0  0
  183.3560  179.1590  141.3140 C   0  0  0  0  0  3  0  0  0  0  0  0
  186.4680  177.9960  138.4430 C   0  0  0  0  0  2  0  0  0  0  0  0
  185.7110  178.5130  141.5000 C   0  0  0  0  0  0  0  0  0  0  0  0
  188.8320  177.9150  137.7540 C   0  0  0  0  0  2  0  0  0  0  0  0
  184.1740  178.2830  143.4000 C   0  0  0  0  0  3  0  0  0  0  0  0
  188.0930  178.0360  141.9050 C   0  0  0  0  0  0  0  0  0  0  0  0
  186.5070  177.8840  143.7290 C   0  0  0  0  0  3  0  0  0  0  0  0
  184.8390  179.7410  139.5510 O   0  0  0  0  0  1  0  0  0  0  0  0
  189.6780  177.9450  140.1040 N   0  0  0  0  0  0  0  0  0  0  0  0
  189.4250  177.9230  141.4410 C   0  0  0  0  0  0  0  0  0  0  0  0
  187.3960  177.9780  137.2260 C   0  0  1  0  0  3  0  0  0  0  0  0
  187.3650  178.2220  139.6080 C   0  0  0  0  0  0  0  0  0  0  0  0
  187.8110  177.8320  143.2590 C   0  0  0  0  0  3  0  0  0  0  0  0
  191.7770  176.0670  143.8390 C   0  0  2  0  0  3  0  0  0  0  0  0
  191.6530  177.0200  145.0250 C   0  0  0  0  0  2  0  0  0  0  0  0
  190.5650  177.7170  142.3950 C   0  0  2  0  0  3  0  0  0  0  0  0
  191.6240  178.4660  144.5370 C   0  0  0  0  0  2  0  0  0  0  0  0
  190.6100  176.2670  142.8770 C   0  0  0  0  0  2  0  0  0  0  0  0
  190.4550  178.6760  143.5800 C   0  0  0  0  0  2  0  0  0  0  0  0
  191.7820  174.6380  144.3370 C   0  0  0  0  0  1  0  0  0  0  0  0
  186.4110  175.7540  136.8720 C   0  0  0  0  0  3  0  0  0  0  0  0
  187.0910  176.7880  136.3780 C   0  0  0  0  0  3  0  0  0  0  0  0
  184.3570  175.4210  134.6360 O   0  0  0  0  0  0  0  0  0  0  0  0
  186.1040  174.5600  136.0220 C   0  0  2  0  0  3  0  0  0  0  0  0
  184.6770  174.6210  135.5530 C   0  0  0  0  0  0  0  0  0  0  0  0
  183.9940  172.6990  137.0440 C   0  0  0  0  0  2  0  0  0  0  0  0
  185.2960  172.9480  137.7930 C   0  0  0  0  0  2  0  0  0  0  0  0
  186.3960  173.2600  136.7820 C   0  0  0  0  0  2  0  0  0  0  0  0
  183.6650  173.8360  136.1910 N   0  0  0  0  0  2  0  0  0  0  0  0
  1 10  1  0  0  0  0
  1 12  1  0  0  0  0
  2  6  2  0  0  0  0
  2  8  1  0  0  0  0
  3  8  1  0  0  0  0
  3 11  1  0  0  0  0
  4 17  1  0  0  0  0
  4 14  2  0  0  0  0
  5 10  2  0  0  0  0
  6  5  1  0  0  0  0
  7 17  1  0  0  0  0
  8  1  2  0  0  0  0
  9  4  1  0  0  0  0
 11 18  1  0  0  0  0
 13  2  1  0  0  0  0
 14 15  1  0  0  0  0
 15 11  2  0  0  0  0
 16 27  1  6  0  0  0
 16  9  1  0  0  0  0
 16  7  1  0  0  0  0
 17  3  2  0  0  0  0
 18 12  2  0  0  0  0
 19 25  1  1  0  0  0
 19 20  1  0  0  0  0
 21 15  1  6  0  0  0
 21 23  1  0  0  0  0
 21 24  1  0  0  0  0
 22 20  1  0  0  0  0
 23 19  1  0  0  0  0
 24 22  1  0  0  0  0
 27 26  2  0  0  0  0
 28 30  2  0  0  0  0
 29 33  1  0  0  0  0
 29 26  1  1  0  0  0
 30 29  1  0  0  0  0
 30 34  1  0  0  0  0
 31 32  1  0  0  0  0
 33 32  1  0  0  0  0
 34 31  1  0  0  0  0
M  END
>  <MODEL>
3

>  <REMARK>
 VINA RESULT:     -10.0      3.376      5.340
  Name = 
  3 active torsions:
  status: ('A' for Active; 'I' for Inactive)
    1  A    between atoms: C_3  and  C_13
    2  A    between atoms: C_12  and  C_28
    3  A    between atoms: C_17  and  C_29
                            x       y       z     vdW  Elec       q    Type
                         _______ _______ _______ _____ _____    ______ ____

>  <TORSDO>
F 3

$$$$
=
 OpenBabel10252415003D

 34 39  0  0  1  0  0  0  0  0999 V2000
  183.0370  178.7410  142.2250 C   0  0  0  0  0  0  0  0  0  0  0  0
  182.8860  179.3790  139.8870 C   0  0  0  0  0  0  0  0  0  0  0  0
  185.0920  178.6390  140.8880 C   0  0  0  0  0  0  0  0  0  0  0  0
  187.1790  178.2670  139.7110 C   0  0  0  0  0  0  0  0  0  0  0  0
  180.8770  179.1800  141.2320 C   0  0  0  0  0  3  0  0  0  0  0  0
  181.4960  179.4680  140.0210 C   0  0  0  0  0  3  0  0  0  0  0  0
  185.2980  178.0540  138.3430 C   0  0  0  0  0  2  0  0  0  0  0  0
  183.6820  178.8940  140.9630 C   0  0  0  0  0  0  0  0  0  0  0  0
  187.7590  177.9420  138.3930 C   0  0  0  0  0  2  0  0  0  0  0  0
  181.6500  178.8470  142.3400 C   0  0  0  0  0  3  0  0  0  0  0  0
  185.8320  178.5130  142.1020 C   0  0  0  0  0  0  0  0  0  0  0  0
  183.7770  178.5340  143.3830 C   0  0  0  0  0  3  0  0  0  0  0  0
  183.4400  179.8790  138.7190 O   0  0  0  0  0  1  0  0  0  0  0  0
  187.8760  178.2520  140.8690 N   0  0  0  0  0  0  0  0  0  0  0  0
  187.2400  178.3740  142.0660 C   0  0  0  0  0  0  0  0  0  0  0  0
  186.5440  177.9180  137.4630 C   0  0  1  0  0  3  0  0  0  0  0  0
  185.8150  178.4260  139.6870 C   0  0  0  0  0  0  0  0  0  0  0  0
  185.1610  178.4550  143.3270 C   0  0  0  0  0  3  0  0  0  0  0  0
  190.3350  178.4580  144.3340 C   0  0  2  0  0  3  0  0  0  0  0  0
  190.1250  177.1080  145.0150 C   0  0  0  0  0  2  0  0  0  0  0  0
  188.0450  178.2990  143.3310 C   0  0  2  0  0  3  0  0  0  0  0  0
  188.6450  176.8950  145.3150 C   0  0  0  0  0  2  0  0  0  0  0  0
  189.5290  178.5280  143.0400 C   0  0  0  0  0  2  0  0  0  0  0  0
  187.8310  176.9550  144.0260 C   0  0  0  0  0  2  0  0  0  0  0  0
  191.8050  178.6450  144.0230 C   0  0  0  0  0  1  0  0  0  0  0  0
  185.3380  175.9730  136.5690 C   0  0  0  0  0  3  0  0  0  0  0  0
  186.4860  176.6350  136.7020 C   0  0  0  0  0  3  0  0  0  0  0  0
  183.0860  174.8170  134.8590 O   0  0  0  0  0  0  0  0  0  0  0  0
  185.2780  174.6860  135.8050 C   0  0  2  0  0  3  0  0  0  0  0  0
  183.8490  174.2360  135.6750 C   0  0  0  0  0  0  0  0  0  0  0  0
  184.1980  172.3100  137.2720 C   0  0  0  0  0  2  0  0  0  0  0  0
  185.4680  173.0300  137.7060 C   0  0  0  0  0  2  0  0  0  0  0  0
  186.1500  173.6140  136.4720 C   0  0  0  0  0  2  0  0  0  0  0  0
  183.3260  173.2090  136.5230 N   0  0  0  0  0  2  0  0  0  0  0  0
  1 10  1  0  0  0  0
  1 12  1  0  0  0  0
  2  6  2  0  0  0  0
  2  8  1  0  0  0  0
  3  8  1  0  0  0  0
  3 11  1  0  0  0  0
  4 14  2  0  0  0  0
  5 10  2  0  0  0  0
  6  5  1  0  0  0  0
  7 17  1  0  0  0  0
  8  1  2  0  0  0  0
  9  4  1  0  0  0  0
 11 18  1  0  0  0  0
 13  2  1  0  0  0  0
 14 15  1  0  0  0  0
 15 11  2  0  0  0  0
 16 27  1  1  0  0  0
 16  7  1  0  0  0  0
 16  9  1  0  0  0  0
 17  4  1  0  0  0  0
 17  3  2  0  0  0  0
 18 12  2  0  0  0  0
 19 25  1  6  0  0  0
 19 20  1  0  0  0  0
 20 22  1  0  0  0  0
 21 15  1  6  0  0  0
 21 24  1  0  0  0  0
 23 21  1  0  0  0  0
 23 19  1  0  0  0  0
 24 22  1  0  0  0  0
 26 27  2  0  0  0  0
 28 30  2  0  0  0  0
 29 33  1  0  0  0  0
 29 26  1  1  0  0  0
 30 29  1  0  0  0  0
 30 34  1  0  0  0  0
 31 32  1  0  0  0  0
 33 32  1  0  0  0  0
 34 31  1  0  0  0  0
M  END
>  <MODEL>
4

>  <REMARK>
 VINA RESULT:     -10.0      3.113      5.396
  Name = 
  3 active torsions:
  status: ('A' for Active; 'I' for Inactive)
    1  A    between atoms: C_3  and  C_13
    2  A    between atoms: C_12  and  C_28
    3  A    between atoms: C_17  and  C_29
                            x       y       z     vdW  Elec       q    Type
                         _______ _______ _______ _____ _____    ______ ____

>  <TORSDO>
F 3

$$$$
=
 OpenBabel10252415003D

 34 39  0  0  1  0  0  0  0  0999 V2000
  185.1380  177.9930  143.5090 C   0  0  0  0  0  0  0  0  0  0  0  0
  185.4850  178.9960  141.3250 C   0  0  0  0  0  0  0  0  0  0  0  0
  187.3840  177.8350  142.5330 C   0  0  0  0  0  0  0  0  0  0  0  0
  189.6050  177.3840  141.6720 C   0  0  0  0  0  0  0  0  0  0  0  0
  183.2530  178.8510  142.2640 C   0  0  0  0  0  3  0  0  0  0  0  0
  184.1100  179.2420  141.2410 C   0  0  0  0  0  3  0  0  0  0  0  0
  187.9980  177.6270  139.9950 C   0  0  0  0  0  2  0  0  0  0  0  0
  186.0160  178.2540  142.4180 C   0  0  0  0  0  0  0  0  0  0  0  0
  190.3840  177.1940  140.4330 C   0  0  0  0  0  2  0  0  0  0  0  0
  183.7710  178.2570  143.4090 C   0  0  0  0  0  3  0  0  0  0  0  0
  187.8710  177.4290  143.8130 C   0  0  0  0  0  0  0  0  0  0  0  0
  185.6270  177.5160  144.7200 C   0  0  0  0  0  3  0  0  0  0  0  0
  186.2920  179.5950  140.3710 O   0  0  0  0  0  1  0  0  0  0  0  0
  190.0710  177.1020  142.9090 N   0  0  0  0  0  0  0  0  0  0  0  0
  189.2410  177.1190  143.9870 C   0  0  0  0  0  0  0  0  0  0  0  0
  189.3650  177.4700  139.3240 C   0  0  1  0  0  3  0  0  0  0  0  0
  188.2920  177.7180  141.4510 C   0  0  0  0  0  0  0  0  0  0  0  0
  186.9830  177.2710  144.8810 C   0  0  0  0  0  3  0  0  0  0  0  0
  189.7940  177.2890  147.7810 C   0  0  2  0  0  3  0  0  0  0  0  0
  191.3200  177.3280  147.7630 C   0  0  0  0  0  2  0  0  0  0  0  0
  189.7870  176.7470  145.3350 C   0  0  2  0  0  3  0  0  0  0  0  0
  191.8580  176.3820  146.6940 C   0  0  0  0  0  2  0  0  0  0  0  0
  189.2400  177.6820  146.4150 C   0  0  0  0  0  2  0  0  0  0  0  0
  191.3150  176.7720  145.3230 C   0  0  0  0  0  2  0  0  0  0  0  0
  189.2750  178.2480  148.8310 C   0  0  0  0  0  1  0  0  0  0  0  0
  188.2560  176.1450  137.5770 C   0  0  0  0  0  3  0  0  0  0  0  0
  189.3220  176.3370  138.3530 C   0  0  0  0  0  3  0  0  0  0  0  0
  188.9150  176.1020  134.5950 O   0  0  0  0  0  0  0  0  0  0  0  0
  188.2110  175.0090  136.6010 C   0  0  2  0  0  3  0  0  0  0  0  0
  187.9750  175.5380  135.2140 C   0  0  0  0  0  0  0  0  0  0  0  0
  185.6290  174.6030  135.1400 C   0  0  0  0  0  2  0  0  0  0  0  0
  185.7410  174.4730  136.6540 C   0  0  0  0  0  2  0  0  0  0  0  0
  187.1440  173.9840  137.0050 C   0  0  0  0  0  2  0  0  0  0  0  0
  186.6740  175.4770  134.6200 N   0  0  0  0  0  2  0  0  0  0  0  0
  1 12  1  0  0  0  0
  2  8  1  0  0  0  0
  3 11  1  0  0  0  0
  4 14  2  0  0  0  0
  5 10  2  0  0  0  0
  6  2  2  0  0  0  0
  6  5  1  0  0  0  0
  7 17  1  0  0  0  0
  8  3  1  0  0  0  0
  8  1  2  0  0  0  0
  9  4  1  0  0  0  0
 10  1  1  0  0  0  0
 11 15  2  0  0  0  0
 11 18  1  0  0  0  0
 12 18  2  0  0  0  0
 13  2  1  0  0  0  0
 14 15  1  0  0  0  0
 16 27  1  6  0  0  0
 16  7  1  0  0  0  0
 16  9  1  0  0  0  0
 17  4  1  0  0  0  0
 17  3  2  0  0  0  0
 19 25  1  1  0  0  0
 20 19  1  0  0  0  0
 21 15  1  6  0  0  0
 21 23  1  0  0  0  0
 22 20  1  0  0  0  0
 23 19  1  0  0  0  0
 24 21  1  0  0  0  0
 24 22  1  0  0  0  0
 26 27  2  0  0  0  0
 28 30  2  0  0  0  0
 29 33  1  0  0  0  0
 29 26  1  1  0  0  0
 30 29  1  0  0  0  0
 31 32  1  0  0  0  0
 32 33  1  0  0  0  0
 34 31  1  0  0  0  0
 34 30  1  0  0  0  0
M  END
>  <MODEL>
5

>  <REMARK>
 VINA RESULT:      -9.9      3.563      6.811
  Name = 
  3 active torsions:
  status: ('A' for Active; 'I' for Inactive)
    1  A    between atoms: C_3  and  C_13
    2  A    between atoms: C_12  and  C_28
    3  A    between atoms: C_17  and  C_29
                            x       y       z     vdW  Elec       q    Type
                         _______ _______ _______ _____ _____    ______ ____

>  <TORSDO>
F 3

$$$$
=
 OpenBabel10252415003D

 34 39  0  0  1  0  0  0  0  0999 V2000
  182.8800  178.7840  142.2110 C   0  0  0  0  0  0  0  0  0  0  0  0
  182.6430  179.4630  139.8920 C   0  0  0  0  0  0  0  0  0  0  0  0
  184.8790  178.6820  140.7900 C   0  0  0  0  0  0  0  0  0  0  0  0
  186.9120  178.3080  139.5250 C   0  0  0  0  0  0  0  0  0  0  0  0
  180.6880  179.2630  141.3130 C   0  0  0  0  0  3  0  0  0  0  0  0
  181.2610  179.5660  140.0830 C   0  0  0  0  0  3  0  0  0  0  0  0
  184.9770  178.1390  138.2300 C   0  0  0  0  0  2  0  0  0  0  0  0
  183.4760  178.9510  140.9270 C   0  0  0  0  0  0  0  0  0  0  0  0
  187.4360  177.9990  138.1800 C   0  0  0  0  0  2  0  0  0  0  0  0
  181.5010  178.9030  142.3830 C   0  0  0  0  0  3  0  0  0  0  0  0
  185.6660  178.5260  141.9720 C   0  0  0  0  0  0  0  0  0  0  0  0
  183.6640  178.5480  143.3350 C   0  0  0  0  0  3  0  0  0  0  0  0
  183.1570  179.9780  138.7110 O   0  0  0  0  0  1  0  0  0  0  0  0
  187.6550  178.2640  140.6540 N   0  0  0  0  0  0  0  0  0  0  0  0
  187.0690  178.3730  141.8770 C   0  0  0  0  0  0  0  0  0  0  0  0
  186.1840  178.0050  137.2990 C   0  0  1  0  0  3  0  0  0  0  0  0
  185.5510  178.4810  139.5590 C   0  0  0  0  0  0  0  0  0  0  0  0
  185.0430  178.4550  143.2220 C   0  0  0  0  0  3  0  0  0  0  0  0
  190.2480  178.4190  144.0260 C   0  0  2  0  0  3  0  0  0  0  0  0
  190.0780  177.0470  144.6720 C   0  0  0  0  0  2  0  0  0  0  0  0
  187.9230  178.2670  143.1070 C   0  0  2  0  0  3  0  0  0  0  0  0
  188.6130  176.8070  145.0210 C   0  0  0  0  0  2  0  0  0  0  0  0
  189.3920  178.5210  142.7670 C   0  0  0  0  0  2  0  0  0  0  0  0
  187.7500  176.8990  143.7670 C   0  0  0  0  0  2  0  0  0  0  0  0
  191.7030  178.6320  143.6650 C   0  0  0  0  0  1  0  0  0  0  0  0
  186.4880  175.5800  137.0410 C   0  0  0  0  0  3  0  0  0  0  0  0
  186.0810  176.7360  136.5190 C   0  0  0  0  0  3  0  0  0  0  0  0
  185.8460  172.7490  137.9930 O   0  0  0  0  0  0  0  0  0  0  0  0
  186.3840  174.3060  136.2600 C   0  0  2  0  0  3  0  0  0  0  0  0
  186.6980  173.1350  137.1500 C   0  0  0  0  0  0  0  0  0  0  0  0
  188.8960  172.7000  135.9820 C   0  0  0  0  0  2  0  0  0  0  0  0
  188.7580  174.1060  135.4140 C   0  0  0  0  0  2  0  0  0  0  0  0
  187.3010  174.3430  135.0300 C   0  0  0  0  0  2  0  0  0  0  0  0
  187.9820  172.5050  137.1020 N   0  0  0  0  0  2  0  0  0  0  0  0
  1 10  1  0  0  0  0
  1 12  1  0  0  0  0
  2  6  2  0  0  0  0
  2  8  1  0  0  0  0
  3  8  1  0  0  0  0
  3 11  1  0  0  0  0
  4 17  1  0  0  0  0
  4 14  2  0  0  0  0
  5 10  2  0  0  0  0
  6  5  1  0  0  0  0
  7 17  1  0  0  0  0
  8  1  2  0  0  0  0
  9  4  1  0  0  0  0
 11 18  1  0  0  0  0
 13  2  1  0  0  0  0
 14 15  1  0  0  0  0
 15 11  2  0  0  0  0
 16 27  1  1  0  0  0
 16  9  1  0  0  0  0
 16  7  1  0  0  0  0
 17  3  2  0  0  0  0
 18 12  2  0  0  0  0
 19 25  1  6  0  0  0
 19 20  1  0  0  0  0
 20 22  1  0  0  0  0
 21 15  1  6  0  0  0
 21 24  1  0  0  0  0
 23 21  1  0  0  0  0
 23 19  1  0  0  0  0
 24 22  1  0  0  0  0
 27 26  2  0  0  0  0
 29 26  1  1  0  0  0
 29 30  1  0  0  0  0
 30 28  2  0  0  0  0
 31 34  1  0  0  0  0
 32 31  1  0  0  0  0
 33 32  1  0  0  0  0
 33 29  1  0  0  0  0
 34 30  1  0  0  0  0
M  END
>  <MODEL>
6

>  <REMARK>
 VINA RESULT:      -9.8      3.174      5.935
  Name = 
  3 active torsions:
  status: ('A' for Active; 'I' for Inactive)
    1  A    between atoms: C_3  and  C_13
    2  A    between atoms: C_12  and  C_28
    3  A    between atoms: C_17  and  C_29
                            x       y       z     vdW  Elec       q    Type
                         _______ _______ _______ _____ _____    ______ ____

>  <TORSDO>
F 3

$$$$
=
 OpenBabel10252415003D

 34 39  0  0  1  0  0  0  0  0999 V2000
  183.7010  178.5600  142.2260 C   0  0  0  0  0  0  0  0  0  0  0  0
  184.0140  179.1780  139.8980 C   0  0  0  0  0  0  0  0  0  0  0  0
  185.9840  178.4790  141.3290 C   0  0  0  0  0  0  0  0  0  0  0  0
  188.2690  178.1290  140.5980 C   0  0  0  0  0  0  0  0  0  0  0  0
  181.7790  178.9590  140.8160 C   0  0  0  0  0  3  0  0  0  0  0  0
  182.6250  179.2480  139.7500 C   0  0  0  0  0  3  0  0  0  0  0  0
  186.7040  177.8780  138.8830 C   0  0  0  0  0  2  0  0  0  0  0  0
  184.5840  178.7130  141.1170 C   0  0  0  0  0  0  0  0  0  0  0  0
  189.1060  177.8030  139.4280 C   0  0  0  0  0  2  0  0  0  0  0  0
  182.3180  178.6470  142.0590 C   0  0  0  0  0  3  0  0  0  0  0  0
  186.4670  178.3720  142.6680 C   0  0  0  0  0  0  0  0  0  0  0  0
  184.1970  178.3720  143.5110 C   0  0  0  0  0  3  0  0  0  0  0  0
  184.7850  179.6780  138.8600 O   0  0  0  0  0  1  0  0  0  0  0  0
  188.7200  178.1330  141.8730 N   0  0  0  0  0  0  0  0  0  0  0  0
  187.8550  178.2550  142.9170 C   0  0  0  0  0  0  0  0  0  0  0  0
  188.1030  177.7540  138.2730 C   0  0  1  0  0  3  0  0  0  0  0  0
  186.9360  178.2670  140.3000 C   0  0  0  0  0  0  0  0  0  0  0  0
  185.5640  178.3140  143.7340 C   0  0  0  0  0  3  0  0  0  0  0  0
  190.2920  177.4680  145.7750 C   0  0  2  0  0  3  0  0  0  0  0  0
  189.3070  176.7470  146.6910 C   0  0  0  0  0  2  0  0  0  0  0  0
  188.3900  178.2010  144.3180 C   0  0  2  0  0  3  0  0  0  0  0  0
  187.9540  177.4520  146.6670 C   0  0  0  0  0  2  0  0  0  0  0  0
  189.7540  177.5090  144.3480 C   0  0  0  0  0  2  0  0  0  0  0  0
  187.4040  177.4900  145.2450 C   0  0  0  0  0  2  0  0  0  0  0  0
  191.6220  176.7450  145.7920 C   0  0  0  0  0  1  0  0  0  0  0  0
  187.2430  175.5570  137.5870 C   0  0  0  0  0  3  0  0  0  0  0  0
  188.2150  176.4650  137.5280 C   0  0  0  0  0  3  0  0  0  0  0  0
  187.6000  175.0490  134.5970 O   0  0  0  0  0  0  0  0  0  0  0  0
  187.3540  174.2630  136.8410 C   0  0  2  0  0  3  0  0  0  0  0  0
  186.8730  174.4460  135.4290 C   0  0  0  0  0  0  0  0  0  0  0  0
  184.7950  173.0700  135.8450 C   0  0  0  0  0  2  0  0  0  0  0  0
  185.0800  173.2700  137.3280 C   0  0  0  0  0  2  0  0  0  0  0  0
  186.5830  173.1490  137.5620 C   0  0  0  0  0  2  0  0  0  0  0  0
  185.5650  174.0110  135.0410 N   0  0  0  0  0  2  0  0  0  0  0  0
  1 12  1  0  0  0  0
  2  8  1  0  0  0  0
  3 11  1  0  0  0  0
  4 14  2  0  0  0  0
  5 10  2  0  0  0  0
  6  2  2  0  0  0  0
  6  5  1  0  0  0  0
  7 17  1  0  0  0  0
  8  3  1  0  0  0  0
  8  1  2  0  0  0  0
  9  4  1  0  0  0  0
 10  1  1  0  0  0  0
 11 15  2  0  0  0  0
 11 18  1  0  0  0  0
 12 18  2  0  0  0  0
 13  2  1  0  0  0  0
 14 15  1  0  0  0  0
 16 27  1  1  0  0  0
 16  7  1  0  0  0  0
 16  9  1  0  0  0  0
 17  4  1  0  0  0  0
 17  3  2  0  0  0  0
 19 25  1  6  0  0  0
 19 20  1  0  0  0  0
 21 15  1  6  0  0  0
 21 23  1  0  0  0  0
 21 24  1  0  0  0  0
 22 20  1  0  0  0  0
 23 19  1  0  0  0  0
 24 22  1  0  0  0  0
 27 26  2  0  0  0  0
 28 30  2  0  0  0  0
 29 33  1  0  0  0  0
 29 26  1  1  0  0  0
 30 29  1  0  0  0  0
 31 32  1  0  0  0  0
 32 33  1  0  0  0  0
 34 30  1  0  0  0  0
 34 31  1  0  0  0  0
M  END
>  <MODEL>
7

>  <REMARK>
 VINA RESULT:      -9.8      3.396      6.264
  Name = 
  3 active torsions:
  status: ('A' for Active; 'I' for Inactive)
    1  A    between atoms: C_3  and  C_13
    2  A    between atoms: C_12  and  C_28
    3  A    between atoms: C_17  and  C_29
                            x       y       z     vdW  Elec       q    Type
                         _______ _______ _______ _____ _____    ______ ____

>  <TORSDO>
F 3

$$$$
=
 OpenBabel10252415003D

 34 39  0  0  1  0  0  0  0  0999 V2000
  187.2570  176.8750  136.4790 C   0  0  0  0  0  0  0  0  0  0  0  0
  188.6870  178.0150  138.0760 C   0  0  0  0  0  0  0  0  0  0  0  0
  186.1710  178.0060  138.3660 C   0  0  0  0  0  0  0  0  0  0  0  0
  184.9140  178.8720  140.2500 C   0  0  0  0  0  0  0  0  0  0  0  0
  189.6570  176.6400  136.3300 C   0  0  0  0  0  3  0  0  0  0  0  0
  189.8050  177.4820  137.4260 C   0  0  0  0  0  3  0  0  0  0  0  0
  187.1090  178.2910  140.7960 C   0  0  0  0  0  2  0  0  0  0  0  0
  187.3750  177.6240  137.6860 C   0  0  0  0  0  0  0  0  0  0  0  0
  184.9980  179.1960  141.6880 C   0  0  0  0  0  2  0  0  0  0  0  0
  188.3860  176.3630  135.8390 C   0  0  0  0  0  3  0  0  0  0  0  0
  184.9230  177.8640  137.6860 C   0  0  0  0  0  0  0  0  0  0  0  0
  186.0170  176.6790  135.8800 C   0  0  0  0  0  3  0  0  0  0  0  0
  188.9180  179.0030  139.0210 O   0  0  0  0  0  1  0  0  0  0  0  0
  183.7570  178.8240  139.5530 N   0  0  0  0  0  0  0  0  0  0  0  0
  183.7300  178.3360  138.2830 C   0  0  0  0  0  0  0  0  0  0  0  0
  186.4670  178.9320  142.0290 C   0  0  1  0  0  3  0  0  0  0  0  0
  186.1040  178.4530  139.7100 C   0  0  0  0  0  0  0  0  0  0  0  0
  184.8680  177.1970  136.4590 C   0  0  0  0  0  3  0  0  0  0  0  0
  180.3630  179.5010  136.8560 C   0  0  2  0  0  3  0  0  0  0  0  0
  179.4920  178.4090  137.4700 C   0  0  0  0  0  2  0  0  0  0  0  0
  182.4160  178.2510  137.5620 C   0  0  2  0  0  3  0  0  0  0  0  0
  180.2150  177.0660  137.4150 C   0  0  0  0  0  2  0  0  0  0  0  0
  181.6920  179.5970  137.5990 C   0  0  0  0  0  2  0  0  0  0  0  0
  181.5420  177.1500  138.1630 C   0  0  0  0  0  2  0  0  0  0  0  0
  179.6420  180.8300  136.9380 C   0  0  0  0  0  1  0  0  0  0  0  0
  186.3170  178.4300  144.4300 C   0  0  0  0  0  3  0  0  0  0  0  0
  186.5820  178.0070  143.1940 C   0  0  0  0  0  3  0  0  0  0  0  0
  184.9310  178.5350  147.1490 O   0  0  0  0  0  0  0  0  0  0  0  0
  186.4300  177.5030  145.6000 C   0  0  2  0  0  3  0  0  0  0  0  0
  186.1240  178.2450  146.8710 C   0  0  0  0  0  0  0  0  0  0  0  0
  188.5330  178.1620  147.6280 C   0  0  0  0  0  2  0  0  0  0  0  0
  188.8700  177.8180  146.1830 C   0  0  0  0  0  2  0  0  0  0  0  0
  187.8190  176.8500  145.6470 C   0  0  0  0  0  2  0  0  0  0  0  0
  187.1790  178.6950  147.7270 N   0  0  0  0  0  2  0  0  0  0  0  0
  1  8  1  0  0  0  0
  2 13  1  0  0  0  0
  3 17  1  0  0  0  0
  4  9  1  0  0  0  0
  5  6  1  0  0  0  0
  6  2  2  0  0  0  0
  7 16  1  0  0  0  0
  8  2  1  0  0  0  0
  8  3  2  0  0  0  0
  9 16  1  0  0  0  0
 10  5  2  0  0  0  0
 10  1  1  0  0  0  0
 11 15  1  0  0  0  0
 11  3  1  0  0  0  0
 12 18  1  0  0  0  0
 12  1  2  0  0  0  0
 14  4  1  0  0  0  0
 15 14  2  0  0  0  0
 16 27  1  1  0  0  0
 17  4  2  0  0  0  0
 17  7  1  0  0  0  0
 18 11  2  0  0  0  0
 19 25  1  1  0  0  0
 19 20  1  0  0  0  0
 19 23  1  0  0  0  0
 21 23  1  0  0  0  0
 21 24  1  0  0  0  0
 21 15  1  1  0  0  0
 22 20  1  0  0  0  0
 22 24  1  0  0  0  0
 27 26  2  0  0  0  0
 29 26  1  6  0  0  0
 29 33  1  0  0  0  0
 29 30  1  0  0  0  0
 30 28  2  0  0  0  0
 30 34  1  0  0  0  0
 31 34  1  0  0  0  0
 32 31  1  0  0  0  0
 33 32  1  0  0  0  0
M  END
>  <MODEL>
8

>  <REMARK>
 VINA RESULT:      -9.6      2.750      8.180
  Name = 
  3 active torsions:
  status: ('A' for Active; 'I' for Inactive)
    1  A    between atoms: C_3  and  C_13
    2  A    between atoms: C_12  and  C_28
    3  A    between atoms: C_17  and  C_29
                            x       y       z     vdW  Elec       q    Type
                         _______ _______ _______ _____ _____    ______ ____

>  <TORSDO>
F 3

$$$$
=
 OpenBabel10252415003D

 34 39  0  0  1  0  0  0  0  0999 V2000
  185.5060  177.1730  135.9350 C   0  0  0  0  0  0  0  0  0  0  0  0
  187.5550  178.2280  136.6990 C   0  0  0  0  0  0  0  0  0  0  0  0
  185.5170  178.1190  138.1980 C   0  0  0  0  0  0  0  0  0  0  0  0
  185.3760  178.7960  140.5220 C   0  0  0  0  0  0  0  0  0  0  0  0
  187.5110  177.0240  134.5940 C   0  0  0  0  0  3  0  0  0  0  0  0
  188.1960  177.7820  135.5380 C   0  0  0  0  0  3  0  0  0  0  0  0
  187.5430  178.2420  139.8550 C   0  0  0  0  0  2  0  0  0  0  0  0
  186.2180  177.8290  136.9810 C   0  0  0  0  0  0  0  0  0  0  0  0
  186.1670  179.0090  141.7490 C   0  0  0  0  0  2  0  0  0  0  0  0
  186.1610  176.7470  134.7780 C   0  0  0  0  0  3  0  0  0  0  0  0
  184.0950  177.9930  138.2190 C   0  0  0  0  0  0  0  0  0  0  0  0
  184.1310  176.9860  136.0160 C   0  0  0  0  0  3  0  0  0  0  0  0
  188.2380  179.1460  137.4830 O   0  0  0  0  0  1  0  0  0  0  0  0
  184.0240  178.7680  140.4900 N   0  0  0  0  0  0  0  0  0  0  0  0
  183.3630  178.3800  139.3660 C   0  0  0  0  0  0  0  0  0  0  0  0
  187.6080  178.7640  141.2920 C   0  0  1  0  0  3  0  0  0  0  0  0
  186.1340  178.4580  139.4300 C   0  0  0  0  0  0  0  0  0  0  0  0
  183.4290  177.4220  137.1300 C   0  0  0  0  0  3  0  0  0  0  0  0
  179.7580  179.4050  140.1930 C   0  0  2  0  0  3  0  0  0  0  0  0
  179.2980  178.0750  140.7830 C   0  0  0  0  0  2  0  0  0  0  0  0
  181.8630  178.3110  139.3890 C   0  0  2  0  0  3  0  0  0  0  0  0
  179.8690  176.9150  139.9740 C   0  0  0  0  0  2  0  0  0  0  0  0
  181.2820  179.4800  140.1850 C   0  0  0  0  0  2  0  0  0  0  0  0
  181.3930  176.9770  139.9670 C   0  0  0  0  0  2  0  0  0  0  0  0
  179.2010  180.5450  141.0190 C   0  0  0  0  0  1  0  0  0  0  0  0
  187.9920  177.6840  143.4650 C   0  0  0  0  0  3  0  0  0  0  0  0
  188.2760  177.7550  142.1660 C   0  0  0  0  0  3  0  0  0  0  0  0
  187.8040  177.2870  146.4880 O   0  0  0  0  0  0  0  0  0  0  0  0
  188.6610  176.6710  144.3430 C   0  0  2  0  0  3  0  0  0  0  0  0
  188.8100  177.2210  145.7340 C   0  0  0  0  0  0  0  0  0  0  0  0
  191.3160  177.4430  145.4930 C   0  0  0  0  0  2  0  0  0  0  0  0
  191.0830  177.3080  143.9940 C   0  0  0  0  0  2  0  0  0  0  0  0
  190.0130  176.2460  143.7540 C   0  0  0  0  0  2  0  0  0  0  0  0
  190.0660  177.7420  146.1830 N   0  0  0  0  0  2  0  0  0  0  0  0
  1 12  2  0  0  0  0
  1  8  1  0  0  0  0
  2  8  1  0  0  0  0
  2 13  1  0  0  0  0
  3 11  1  0  0  0  0
  3 17  1  0  0  0  0
  4  9  1  0  0  0  0
  5 10  2  0  0  0  0
  5  6  1  0  0  0  0
  6  2  2  0  0  0  0
  7 16  1  0  0  0  0
  8  3  2  0  0  0  0
 10  1  1  0  0  0  0
 11 15  1  0  0  0  0
 12 18  1  0  0  0  0
 14  4  1  0  0  0  0
 15 14  2  0  0  0  0
 16  9  1  0  0  0  0
 16 27  1  1  0  0  0
 17  7  1  0  0  0  0
 17  4  2  0  0  0  0
 18 11  2  0  0  0  0
 19 20  1  0  0  0  0
 19 25  1  1  0  0  0
 21 15  1  1  0  0  0
 21 24  1  0  0  0  0
 21 23  1  0  0  0  0
 22 20  1  0  0  0  0
 23 19  1  0  0  0  0
 24 22  1  0  0  0  0
 27 26  2  0  0  0  0
 29 26  1  6  0  0  0
 29 30  1  0  0  0  0
 30 34  1  0  0  0  0
 30 28  2  0  0  0  0
 31 34  1  0  0  0  0
 32 31  1  0  0  0  0
 33 32  1  0  0  0  0
 33 29  1  0  0  0  0
M  END
>  <MODEL>
9

>  <REMARK>
 VINA RESULT:      -9.5      2.954      8.834
  Name = 
  3 active torsions:
  status: ('A' for Active; 'I' for Inactive)
    1  A    between atoms: C_3  and  C_13
    2  A    between atoms: C_12  and  C_28
    3  A    between atoms: C_17  and  C_29
                            x       y       z     vdW  Elec       q    Type
                         _______ _______ _______ _____ _____    ______ ____

>  <TORSDO>
F 3

$$$$
