=
 OpenBabel10262420543D

 28 32  0  0  1  0  0  0  0  0999 V2000
  189.9020  176.8920  142.8770 N   0  0  0  0  0  0  0  0  0  0  0  0
  184.9940  178.3310  142.7560 S   0  0  0  0  0  0  0  0  0  0  0  0
  189.3550  178.0460  147.5740 C   0  0  0  0  0  2  0  0  0  0  0  0
  184.7250  178.4330  145.2410 C   0  0  0  0  0  0  0  0  0  0  0  0
  187.0670  177.7310  144.6340 C   0  0  1  0  0  3  0  0  0  0  0  0
  185.6870  178.1850  144.2790 C   0  0  0  0  0  0  0  0  0  0  0  0
  186.3510  177.8520  147.0550 C   0  0  0  0  0  2  0  0  0  0  0  0
  183.4700  178.7810  144.7330 C   0  0  0  0  0  3  0  0  0  0  0  0
  189.5280  176.9720  145.3270 C   0  0  2  0  0  3  0  0  0  0  0  0
  188.0110  178.1460  143.6680 O   0  0  0  0  0  0  0  0  0  0  0  0
  185.0450  178.3660  146.6330 N   0  0  0  0  0  2  0  0  0  0  0  0
  191.5920  175.9440  144.4170 C   0  0  0  0  0  2  0  0  0  0  0  0
  188.7950  177.7330  146.4030 C   0  0  0  0  0  0  0  0  0  0  0  0
  191.0140  176.7420  145.5800 C   0  0  0  0  0  2  0  0  0  0  0  0
  183.4660  178.7560  143.3410 C   0  0  0  0  0  0  0  0  0  0  0  0
  187.4350  178.2580  146.0390 C   0  0  1  0  0  3  0  0  0  0  0  0
  191.3390  176.6830  143.1030 C   0  0  0  0  0  2  0  0  0  0  0  0
  189.3380  177.7000  143.9720 C   0  0  2  0  0  3  0  0  0  0  0  0
  182.2980  179.1030  142.4870 C   0  0  0  0  0  2  0  0  0  0  0  0
  181.0240  179.0480  143.3060 C   0  0  0  0  0  1  0  0  0  0  0  0
  189.7130  177.5400  141.5670 C   0  0  0  0  0  2  0  0  0  0  0  0
  190.7700  177.2010  140.5500 C   0  0  0  0  0  0  0  0  0  0  0  0
  192.7340  176.5820  138.6520 C   0  0  0  0  0  0  0  0  0  0  0  0
  190.4380  176.4530  139.4120 C   0  0  0  0  0  3  0  0  0  0  0  0
  192.0870  177.6430  140.7290 C   0  0  0  0  0  3  0  0  0  0  0  0
  193.0670  177.3330  139.7830 C   0  0  0  0  0  3  0  0  0  0  0  0
  193.7090  176.2720  137.7130 O   0  0  0  0  0  1  0  0  0  0  0  0
  191.4200  176.1430  138.4660 C   0  0  0  0  0  3  0  0  0  0  0  0
  1 17  1  0  0  0  0
  1 18  1  0  0  0  0
  2 15  1  0  0  0  0
  2  6  1  0  0  0  0
  4 11  1  0  0  0  0
  5 10  1  6  0  0  0
  5 16  1  0  0  0  0
  6  5  1  0  0  0  0
  6  4  2  0  0  0  0
  8  4  1  0  0  0  0
  9 14  1  1  0  0  0
  9 13  1  0  0  0  0
 11  7  1  0  0  0  0
 12 14  1  0  0  0  0
 13  3  2  0  0  0  0
 15  8  2  0  0  0  0
 16 13  1  0  0  0  0
 16  7  1  1  0  0  0
 17 12  1  0  0  0  0
 18 10  1  6  0  0  0
 18  9  1  0  0  0  0
 19 20  1  0  0  0  0
 19 15  1  0  0  0  0
 21  1  1  0  0  0  0
 22 25  1  0  0  0  0
 22 21  1  0  0  0  0
 23 26  1  0  0  0  0
 24 22  2  0  0  0  0
 26 25  2  0  0  0  0
 27 23  1  0  0  0  0
 28 23  2  0  0  0  0
 28 24  1  0  0  0  0
M  END
>  <MODEL>
1

>  <REMARK>
 VINA RESULT:      -9.8      0.000      0.000
  Name = 
  3 active torsions:
  status: ('A' for Active; 'I' for Inactive)
    1  A    between atoms: N_1  and  C_2
    2  A    between atoms: C_2  and  C_3
    3  A    between atoms: C_12  and  C_24
                            x       y       z     vdW  Elec       q    Type
                         _______ _______ _______ _____ _____    ______ ____

>  <TORSDO>
F 3

$$$$
=
 OpenBabel10262420543D

 28 32  0  0  1  0  0  0  0  0999 V2000
  184.7340  178.4610  142.9150 N   0  0  0  0  0  0  0  0  0  0  0  0
  189.2130  177.4630  140.6520 S   0  0  0  0  0  0  0  0  0  0  0  0
  187.4010  177.6100  146.8970 C   0  0  0  0  0  2  0  0  0  0  0  0
  190.5520  177.5170  142.7630 C   0  0  0  0  0  0  0  0  0  0  0  0
  188.1220  177.9730  143.2470 C   0  0  1  0  0  3  0  0  0  0  0  0
  189.2460  177.6270  142.3230 C   0  0  0  0  0  0  0  0  0  0  0  0
  189.8350  178.0440  145.1040 C   0  0  0  0  0  2  0  0  0  0  0  0
  191.4870  177.2560  141.7570 C   0  0  0  0  0  3  0  0  0  0  0  0
  186.1500  178.5440  144.9490 C   0  0  2  0  0  3  0  0  0  0  0  0
  186.8990  177.4250  142.8000 O   0  0  0  0  0  0  0  0  0  0  0  0
  190.8700  177.6280  144.1540 N   0  0  0  0  0  2  0  0  0  0  0  0
  183.8020  179.3340  145.0350 C   0  0  0  0  0  2  0  0  0  0  0  0
  187.3550  177.9100  145.5960 C   0  0  0  0  0  0  0  0  0  0  0  0
  184.9100  178.6540  145.8300 C   0  0  0  0  0  2  0  0  0  0  0  0
  190.8770  177.2080  140.5060 C   0  0  0  0  0  0  0  0  0  0  0  0
  188.4640  177.4900  144.6750 C   0  0  1  0  0  3  0  0  0  0  0  0
  183.5290  178.5520  143.7500 C   0  0  0  0  0  2  0  0  0  0  0  0
  185.8010  177.7660  143.6550 C   0  0  2  0  0  3  0  0  0  0  0  0
  191.5820  176.9230  139.2270 C   0  0  0  0  0  2  0  0  0  0  0  0
  190.7240  176.0330  138.3500 C   0  0  0  0  0  1  0  0  0  0  0  0
  184.3960  177.7650  141.6600 C   0  0  0  0  0  2  0  0  0  0  0  0
  183.5970  178.5920  140.6890 C   0  0  0  0  0  0  0  0  0  0  0  0
  182.1090  180.1200  138.8740 C   0  0  0  0  0  0  0  0  0  0  0  0
  184.2490  179.3590  139.7150 C   0  0  0  0  0  3  0  0  0  0  0  0
  182.1970  178.5860  140.7460 C   0  0  0  0  0  3  0  0  0  0  0  0
  181.4550  179.3500  139.8410 C   0  0  0  0  0  3  0  0  0  0  0  0
  181.3720  180.8800  137.9760 O   0  0  0  0  0  1  0  0  0  0  0  0
  183.5060  180.1230  138.8100 C   0  0  0  0  0  3  0  0  0  0  0  0
  1 18  1  0  0  0  0
  1 17  1  0  0  0  0
  2  6  1  0  0  0  0
  4 11  1  0  0  0  0
  5  6  1  6  0  0  0
  5 16  1  0  0  0  0
  6  4  2  0  0  0  0
  8  4  1  0  0  0  0
  9 13  1  0  0  0  0
  9 14  1  1  0  0  0
 10  5  1  0  0  0  0
 11  7  1  0  0  0  0
 12 14  1  0  0  0  0
 13  3  2  0  0  0  0
 15  2  1  0  0  0  0
 15  8  2  0  0  0  0
 16  7  1  1  0  0  0
 16 13  1  0  0  0  0
 17 12  1  0  0  0  0
 18 10  1  6  0  0  0
 18  9  1  0  0  0  0
 19 15  1  0  0  0  0
 20 19  1  0  0  0  0
 21  1  1  0  0  0  0
 22 25  1  0  0  0  0
 22 21  1  0  0  0  0
 23 26  1  0  0  0  0
 24 22  2  0  0  0  0
 26 25  2  0  0  0  0
 27 23  1  0  0  0  0
 28 23  2  0  0  0  0
 28 24  1  0  0  0  0
M  END
>  <MODEL>
2

>  <REMARK>
 VINA RESULT:      -9.6      2.695      7.324
  Name = 
  3 active torsions:
  status: ('A' for Active; 'I' for Inactive)
    1  A    between atoms: N_1  and  C_2
    2  A    between atoms: C_2  and  C_3
    3  A    between atoms: C_12  and  C_24
                            x       y       z     vdW  Elec       q    Type
                         _______ _______ _______ _____ _____    ______ ____

>  <TORSDO>
F 3

$$$$
=
 OpenBabel10262420543D

 28 32  0  0  1  0  0  0  0  0999 V2000
  188.5100  177.5320  138.8290 N   0  0  0  0  0  0  0  0  0  0  0  0
  185.3200  178.4280  142.7280 S   0  0  0  0  0  0  0  0  0  0  0  0
  191.7150  177.2630  142.4820 C   0  0  0  0  0  2  0  0  0  0  0  0
  186.9590  177.8030  144.5110 C   0  0  0  0  0  0  0  0  0  0  0  0
  187.9960  177.5460  142.2290 C   0  0  1  0  0  3  0  0  0  0  0  0
  186.8730  177.9350  143.1380 C   0  0  0  0  0  0  0  0  0  0  0  0
  189.2900  176.9110  144.3050 C   0  0  0  0  0  2  0  0  0  0  0  0
  185.7940  178.1460  145.2040 C   0  0  0  0  0  3  0  0  0  0  0  0
  190.0490  176.8840  140.6620 C   0  0  2  0  0  3  0  0  0  0  0  0
  187.9870  178.3100  141.0410 O   0  0  0  0  0  0  0  0  0  0  0  0
  188.1770  177.3830  145.1330 N   0  0  0  0  0  2  0  0  0  0  0  0
  190.6330  176.3730  138.3080 C   0  0  0  0  0  2  0  0  0  0  0  0
  190.4430  177.2340  142.0750 C   0  0  0  0  0  0  0  0  0  0  0  0
  191.2010  176.7480  139.6710 C   0  0  0  0  0  2  0  0  0  0  0  0
  184.7770  178.5110  144.3260 C   0  0  0  0  0  0  0  0  0  0  0  0
  189.3380  177.6950  142.9810 C   0  0  1  0  0  3  0  0  0  0  0  0
  189.6110  177.4180  137.8630 C   0  0  0  0  0  2  0  0  0  0  0  0
  189.0380  177.9380  140.1420 C   0  0  2  0  0  3  0  0  0  0  0  0
  183.4180  178.9590  144.7370 C   0  0  0  0  0  2  0  0  0  0  0  0
  182.4990  178.9950  143.5330 C   0  0  0  0  0  1  0  0  0  0  0  0
  187.5200  178.4960  138.3160 C   0  0  0  0  0  2  0  0  0  0  0  0
  186.1510  177.9150  138.0850 C   0  0  0  0  0  0  0  0  0  0  0  0
  183.6050  176.8260  137.6660 C   0  0  0  0  0  0  0  0  0  0  0  0
  185.9810  176.8440  137.1990 C   0  0  0  0  0  3  0  0  0  0  0  0
  185.0420  178.4350  138.7660 C   0  0  0  0  0  3  0  0  0  0  0  0
  183.7720  177.8920  138.5560 C   0  0  0  0  0  3  0  0  0  0  0  0
  182.3420  176.2890  137.4570 O   0  0  0  0  0  1  0  0  0  0  0  0
  184.7090  176.3020  136.9890 C   0  0  0  0  0  3  0  0  0  0  0  0
  1 18  1  0  0  0  0
  2  6  1  0  0  0  0
  2 15  1  0  0  0  0
  4 11  1  0  0  0  0
  4  8  1  0  0  0  0
  5 10  1  6  0  0  0
  5 16  1  0  0  0  0
  5  6  1  0  0  0  0
  6  4  2  0  0  0  0
  7 11  1  0  0  0  0
  9 14  1  6  0  0  0
  9 13  1  0  0  0  0
 12 14  1  0  0  0  0
 13  3  2  0  0  0  0
 13 16  1  0  0  0  0
 15 19  1  0  0  0  0
 15  8  2  0  0  0  0
 16  7  1  1  0  0  0
 17 12  1  0  0  0  0
 17  1  1  0  0  0  0
 18  9  1  0  0  0  0
 18 10  1  1  0  0  0
 20 19  1  0  0  0  0
 21  1  1  0  0  0  0
 22 21  1  0  0  0  0
 22 25  1  0  0  0  0
 23 26  1  0  0  0  0
 24 22  2  0  0  0  0
 26 25  2  0  0  0  0
 27 23  1  0  0  0  0
 28 24  1  0  0  0  0
 28 23  2  0  0  0  0
M  END
>  <MODEL>
3

>  <REMARK>
 VINA RESULT:      -9.6      3.272      5.242
  Name = 
  3 active torsions:
  status: ('A' for Active; 'I' for Inactive)
    1  A    between atoms: N_1  and  C_2
    2  A    between atoms: C_2  and  C_3
    3  A    between atoms: C_12  and  C_24
                            x       y       z     vdW  Elec       q    Type
                         _______ _______ _______ _____ _____    ______ ____

>  <TORSDO>
F 3

$$$$
=
 OpenBabel10262420543D

 28 32  0  0  1  0  0  0  0  0999 V2000
  189.5040  177.1820  142.3180 N   0  0  0  0  0  0  0  0  0  0  0  0
  184.6090  178.5980  142.7760 S   0  0  0  0  0  0  0  0  0  0  0  0
  189.3810  177.8690  147.1360 C   0  0  0  0  0  2  0  0  0  0  0  0
  184.5630  178.4560  145.2730 C   0  0  0  0  0  0  0  0  0  0  0  0
  186.8390  177.8300  144.3940 C   0  0  1  0  0  3  0  0  0  0  0  0
  185.4340  178.3090  144.2100 C   0  0  0  0  0  0  0  0  0  0  0  0
  186.3430  177.7110  146.8690 C   0  0  0  0  0  2  0  0  0  0  0  0
  183.2680  178.8450  144.9160 C   0  0  0  0  0  3  0  0  0  0  0  0
  189.3490  177.0200  144.7880 C   0  0  2  0  0  3  0  0  0  0  0  0
  187.6940  178.3420  143.3930 O   0  0  0  0  0  0  0  0  0  0  0  0
  185.0050  178.2550  146.6180 N   0  0  0  0  0  2  0  0  0  0  0  0
  191.3210  176.0980  143.6010 C   0  0  0  0  0  2  0  0  0  0  0  0
  188.7180  177.6690  145.9930 C   0  0  0  0  0  0  0  0  0  0  0  0
  190.8520  176.7750  144.8840 C   0  0  0  0  0  2  0  0  0  0  0  0
  183.1410  178.9560  143.5340 C   0  0  0  0  0  0  0  0  0  0  0  0
  187.3330  178.2190  145.8060 C   0  0  1  0  0  3  0  0  0  0  0  0
  190.9540  176.9590  142.3930 C   0  0  0  0  0  2  0  0  0  0  0  0
  189.0420  177.8760  143.5330 C   0  0  2  0  0  3  0  0  0  0  0  0
  181.9020  179.3780  142.8250 C   0  0  0  0  0  2  0  0  0  0  0  0
  180.6820  178.9130  143.5950 C   0  0  0  0  0  1  0  0  0  0  0  0
  189.2000  177.9530  141.0990 C   0  0  0  0  0  2  0  0  0  0  0  0
  189.5210  177.2350  139.8160 C   0  0  0  0  0  0  0  0  0  0  0  0
  190.1150  175.8870  137.4340 C   0  0  0  0  0  0  0  0  0  0  0  0
  190.8160  176.7530  139.5840 C   0  0  0  0  0  3  0  0  0  0  0  0
  188.5240  177.0330  138.8540 C   0  0  0  0  0  3  0  0  0  0  0  0
  188.8200  176.3610  137.6650 C   0  0  0  0  0  3  0  0  0  0  0  0
  190.4100  175.2210  136.2520 O   0  0  0  0  0  1  0  0  0  0  0  0
  191.1120  176.0810  138.3940 C   0  0  0  0  0  3  0  0  0  0  0  0
  1 17  1  0  0  0  0
  1 18  1  0  0  0  0
  2 15  1  0  0  0  0
  2  6  1  0  0  0  0
  4 11  1  0  0  0  0
  5 10  1  6  0  0  0
  5 16  1  0  0  0  0
  6  5  1  0  0  0  0
  6  4  2  0  0  0  0
  8  4  1  0  0  0  0
  9 14  1  1  0  0  0
  9 13  1  0  0  0  0
 11  7  1  0  0  0  0
 12 14  1  0  0  0  0
 13  3  2  0  0  0  0
 15  8  2  0  0  0  0
 16 13  1  0  0  0  0
 16  7  1  1  0  0  0
 17 12  1  0  0  0  0
 18 10  1  6  0  0  0
 18  9  1  0  0  0  0
 19 15  1  0  0  0  0
 19 20  1  0  0  0  0
 21  1  1  0  0  0  0
 22 21  1  0  0  0  0
 23 26  2  0  0  0  0
 23 28  1  0  0  0  0
 24 22  1  0  0  0  0
 25 22  2  0  0  0  0
 26 25  1  0  0  0  0
 27 23  1  0  0  0  0
 28 24  2  0  0  0  0
M  END
>  <MODEL>
4

>  <REMARK>
 VINA RESULT:      -9.4      1.112      1.596
  Name = 
  3 active torsions:
  status: ('A' for Active; 'I' for Inactive)
    1  A    between atoms: N_1  and  C_2
    2  A    between atoms: C_2  and  C_3
    3  A    between atoms: C_12  and  C_24
                            x       y       z     vdW  Elec       q    Type
                         _______ _______ _______ _____ _____    ______ ____

>  <TORSDO>
F 3

$$$$
=
 OpenBabel10262420543D

 28 32  0  0  1  0  0  0  0  0999 V2000
  188.7400  177.6130  140.3030 N   0  0  0  0  0  0  0  0  0  0  0  0
  184.1140  178.7240  142.1840 S   0  0  0  0  0  0  0  0  0  0  0  0
  189.8880  177.7930  145.0300 C   0  0  0  0  0  2  0  0  0  0  0  0
  184.7360  178.3240  144.5730 C   0  0  0  0  0  0  0  0  0  0  0  0
  186.7110  177.9070  143.0630 C   0  0  1  0  0  3  0  0  0  0  0  0
  185.2970  178.3310  143.3090 C   0  0  0  0  0  0  0  0  0  0  0  0
  186.8930  177.5090  145.5520 C   0  0  0  0  0  2  0  0  0  0  0  0
  183.3860  178.6810  144.6130 C   0  0  0  0  0  3  0  0  0  0  0  0
  189.2520  177.1900  142.6920 C   0  0  2  0  0  3  0  0  0  0  0  0
  187.2570  178.5630  141.9380 O   0  0  0  0  0  0  0  0  0  0  0  0
  185.5250  178.0080  145.7230 N   0  0  0  0  0  2  0  0  0  0  0  0
  190.8560  176.4960  140.9340 C   0  0  0  0  0  2  0  0  0  0  0  0
  188.9490  177.6780  144.0860 C   0  0  0  0  0  0  0  0  0  0  0  0
  190.7300  177.0120  142.3620 C   0  0  0  0  0  2  0  0  0  0  0  0
  182.8930  178.9270  143.3350 C   0  0  0  0  0  0  0  0  0  0  0  0
  187.5530  178.1740  144.3310 C   0  0  1  0  0  3  0  0  0  0  0  0
  190.1630  177.4580  139.9700 C   0  0  0  0  0  2  0  0  0  0  0  0
  188.6030  178.1540  141.6660 C   0  0  2  0  0  3  0  0  0  0  0  0
  181.5010  179.3560  143.0270 C   0  0  0  0  0  2  0  0  0  0  0  0
  180.5210  178.5940  143.8950 C   0  0  0  0  0  1  0  0  0  0  0  0
  188.1070  178.4900  139.3010 C   0  0  0  0  0  2  0  0  0  0  0  0
  187.0260  177.8250  138.4910 C   0  0  0  0  0  0  0  0  0  0  0  0
  185.0160  176.5970  136.9750 C   0  0  0  0  0  0  0  0  0  0  0  0
  185.6900  178.2180  138.6440 C   0  0  0  0  0  3  0  0  0  0  0  0
  187.3530  176.8200  137.5710 C   0  0  0  0  0  3  0  0  0  0  0  0
  186.3500  176.2060  136.8160 C   0  0  0  0  0  3  0  0  0  0  0  0
  184.0200  175.9860  136.2260 O   0  0  0  0  0  1  0  0  0  0  0  0
  184.6870  177.6030  137.8880 C   0  0  0  0  0  3  0  0  0  0  0  0
  1 18  1  0  0  0  0
  2  6  1  0  0  0  0
  2 15  1  0  0  0  0
  4  8  1  0  0  0  0
  4 11  1  0  0  0  0
  5 10  1  6  0  0  0
  5  6  1  0  0  0  0
  5 16  1  0  0  0  0
  6  4  2  0  0  0  0
  7 11  1  0  0  0  0
  9 14  1  6  0  0  0
  9 13  1  0  0  0  0
 12 14  1  0  0  0  0
 13 16  1  0  0  0  0
 13  3  2  0  0  0  0
 15  8  2  0  0  0  0
 16  7  1  1  0  0  0
 17  1  1  0  0  0  0
 17 12  1  0  0  0  0
 18 10  1  1  0  0  0
 18  9  1  0  0  0  0
 19 15  1  0  0  0  0
 19 20  1  0  0  0  0
 21  1  1  0  0  0  0
 22 24  1  0  0  0  0
 22 21  1  0  0  0  0
 23 28  1  0  0  0  0
 25 22  2  0  0  0  0
 26 23  2  0  0  0  0
 26 25  1  0  0  0  0
 27 23  1  0  0  0  0
 28 24  2  0  0  0  0
M  END
>  <MODEL>
5

>  <REMARK>
 VINA RESULT:      -9.2      3.011      3.944
  Name = 
  3 active torsions:
  status: ('A' for Active; 'I' for Inactive)
    1  A    between atoms: N_1  and  C_2
    2  A    between atoms: C_2  and  C_3
    3  A    between atoms: C_12  and  C_24
                            x       y       z     vdW  Elec       q    Type
                         _______ _______ _______ _____ _____    ______ ____

>  <TORSDO>
F 3

$$$$
=
 OpenBabel10262420543D

 28 32  0  0  1  0  0  0  0  0999 V2000
  187.3220  178.3540  141.3120 N   0  0  0  0  0  0  0  0  0  0  0  0
  190.0260  177.3380  145.5350 S   0  0  0  0  0  0  0  0  0  0  0  0
  183.6720  178.3030  144.5320 C   0  0  0  0  0  2  0  0  0  0  0  0
  188.1510  177.8030  147.1240 C   0  0  0  0  0  0  0  0  0  0  0  0
  187.4020  178.1580  144.7440 C   0  0  1  0  0  3  0  0  0  0  0  0
  188.4160  177.7550  145.7670 C   0  0  0  0  0  0  0  0  0  0  0  0
  185.8310  178.6280  146.6680 C   0  0  0  0  0  2  0  0  0  0  0  0
  189.2320  177.4590  147.9410 C   0  0  0  0  0  3  0  0  0  0  0  0
  185.5390  178.8430  142.9640 C   0  0  2  0  0  3  0  0  0  0  0  0
  187.5920  177.4660  143.5280 O   0  0  0  0  0  0  0  0  0  0  0  0
  186.8490  178.1460  147.6060 N   0  0  0  0  0  2  0  0  0  0  0  0
  185.2370  179.4710  140.5850 C   0  0  0  0  0  2  0  0  0  0  0  0
  184.9830  178.3990  144.2930 C   0  0  0  0  0  0  0  0  0  0  0  0
  184.5170  178.9980  141.8420 C   0  0  0  0  0  2  0  0  0  0  0  0
  190.3660  177.1800  147.1830 C   0  0  0  0  0  0  0  0  0  0  0  0
  185.9820  177.9220  145.3080 C   0  0  1  0  0  3  0  0  0  0  0  0
  186.3480  178.4870  140.2200 C   0  0  0  0  0  2  0  0  0  0  0  0
  186.6480  177.8550  142.5230 C   0  0  2  0  0  3  0  0  0  0  0  0
  191.6780  176.7530  147.7410 C   0  0  0  0  0  2  0  0  0  0  0  0
  192.2190  175.5790  146.9510 C   0  0  0  0  0  1  0  0  0  0  0  0
  188.4060  177.4540  140.8790 C   0  0  0  0  0  2  0  0  0  0  0  0
  188.7110  177.5150  139.4060 C   0  0  0  0  0  0  0  0  0  0  0  0
  189.2650  177.6320  136.6630 C   0  0  0  0  0  0  0  0  0  0  0  0
  188.6410  176.3550  138.6240 C   0  0  0  0  0  3  0  0  0  0  0  0
  189.0520  178.7350  138.8080 C   0  0  0  0  0  3  0  0  0  0  0  0
  189.3300  178.7930  137.4400 C   0  0  0  0  0  3  0  0  0  0  0  0
  189.5420  177.6890  135.3050 O   0  0  0  0  0  1  0  0  0  0  0  0
  188.9190  176.4140  137.2550 C   0  0  0  0  0  3  0  0  0  0  0  0
  1 18  1  0  0  0  0
  2  6  1  0  0  0  0
  2 15  1  0  0  0  0
  4 11  1  0  0  0  0
  4  8  1  0  0  0  0
  5 10  1  6  0  0  0
  5 16  1  0  0  0  0
  5  6  1  0  0  0  0
  6  4  2  0  0  0  0
  7 11  1  0  0  0  0
  9 14  1  6  0  0  0
  9 13  1  0  0  0  0
 12 14  1  0  0  0  0
 13  3  2  0  0  0  0
 13 16  1  0  0  0  0
 15 19  1  0  0  0  0
 15  8  2  0  0  0  0
 16  7  1  1  0  0  0
 17 12  1  0  0  0  0
 17  1  1  0  0  0  0
 18  9  1  0  0  0  0
 18 10  1  1  0  0  0
 20 19  1  0  0  0  0
 21  1  1  0  0  0  0
 22 21  1  0  0  0  0
 23 28  2  0  0  0  0
 23 26  1  0  0  0  0
 24 22  2  0  0  0  0
 25 22  1  0  0  0  0
 26 25  2  0  0  0  0
 27 23  1  0  0  0  0
 28 24  1  0  0  0  0
M  END
>  <MODEL>
6

>  <REMARK>
 VINA RESULT:      -9.2      2.643      5.411
  Name = 
  3 active torsions:
  status: ('A' for Active; 'I' for Inactive)
    1  A    between atoms: N_1  and  C_2
    2  A    between atoms: C_2  and  C_3
    3  A    between atoms: C_12  and  C_24
                            x       y       z     vdW  Elec       q    Type
                         _______ _______ _______ _____ _____    ______ ____

>  <TORSDO>
F 3

$$$$
=
 OpenBabel10262420543D

 28 32  0  0  1  0  0  0  0  0999 V2000
  185.6810  178.4070  144.1750 N   0  0  0  0  0  0  0  0  0  0  0  0
  189.1590  177.5580  140.5200 S   0  0  0  0  0  0  0  0  0  0  0  0
  189.3970  177.0240  146.9990 C   0  0  0  0  0  2  0  0  0  0  0  0
  191.0910  177.3280  142.0930 C   0  0  0  0  0  0  0  0  0  0  0  0
  188.9660  177.7910  143.3650 C   0  0  1  0  0  3  0  0  0  0  0  0
  189.7220  177.5240  142.1020 C   0  0  0  0  0  0  0  0  0  0  0  0
  191.1730  177.5970  144.5810 C   0  0  0  0  0  2  0  0  0  0  0  0
  191.6470  177.1610  140.8210 C   0  0  0  0  0  3  0  0  0  0  0  0
  187.6630  178.2130  145.6530 C   0  0  2  0  0  3  0  0  0  0  0  0
  187.6330  177.3330  143.2750 O   0  0  0  0  0  0  0  0  0  0  0  0
  191.8320  177.2670  143.3140 N   0  0  0  0  0  2  0  0  0  0  0  0
  185.5130  179.0510  146.5580 C   0  0  0  0  0  2  0  0  0  0  0  0
  188.9670  177.4740  145.8170 C   0  0  0  0  0  0  0  0  0  0  0  0
  186.7690  178.2530  146.8880 C   0  0  0  0  0  2  0  0  0  0  0  0
  190.6760  177.2760  139.8300 C   0  0  0  0  0  0  0  0  0  0  0  0
  189.7050  177.1350  144.5540 C   0  0  1  0  0  3  0  0  0  0  0  0
  184.8040  178.4330  145.3530 C   0  0  0  0  0  2  0  0  0  0  0  0
  186.8800  177.6010  144.4640 C   0  0  2  0  0  3  0  0  0  0  0  0
  190.9280  177.1230  138.3700 C   0  0  0  0  0  2  0  0  0  0  0  0
  189.7540  177.6690  137.5830 C   0  0  0  0  0  1  0  0  0  0  0  0
  184.9260  177.8720  143.0280 C   0  0  0  0  0  2  0  0  0  0  0  0
  183.5170  178.3920  142.9170 C   0  0  0  0  0  0  0  0  0  0  0  0
  180.8930  179.3470  142.7100 C   0  0  0  0  0  0  0  0  0  0  0  0
  182.9520  178.6280  141.6570 C   0  0  0  0  0  3  0  0  0  0  0  0
  182.7620  178.6290  144.0720 C   0  0  0  0  0  3  0  0  0  0  0  0
  181.4530  179.1070  143.9690 C   0  0  0  0  0  3  0  0  0  0  0  0
  179.5930  179.8240  142.6080 O   0  0  0  0  0  1  0  0  0  0  0  0
  181.6420  179.1070  141.5550 C   0  0  0  0  0  3  0  0  0  0  0  0
  1 18  1  0  0  0  0
  1 17  1  0  0  0  0
  2  6  1  0  0  0  0
  4  6  2  0  0  0  0
  4 11  1  0  0  0  0
  5  6  1  6  0  0  0
  5 16  1  0  0  0  0
  8  4  1  0  0  0  0
  9 13  1  0  0  0  0
  9 14  1  1  0  0  0
 10  5  1  0  0  0  0
 11  7  1  0  0  0  0
 12 14  1  0  0  0  0
 13  3  2  0  0  0  0
 15  2  1  0  0  0  0
 15  8  2  0  0  0  0
 16  7  1  1  0  0  0
 16 13  1  0  0  0  0
 17 12  1  0  0  0  0
 18 10  1  6  0  0  0
 18  9  1  0  0  0  0
 19 15  1  0  0  0  0
 20 19  1  0  0  0  0
 21  1  1  0  0  0  0
 22 21  1  0  0  0  0
 22 25  1  0  0  0  0
 23 26  1  0  0  0  0
 24 22  2  0  0  0  0
 26 25  2  0  0  0  0
 27 23  1  0  0  0  0
 28 24  1  0  0  0  0
 28 23  2  0  0  0  0
M  END
>  <MODEL>
7

>  <REMARK>
 VINA RESULT:      -9.1      2.182      7.640
  Name = 
  3 active torsions:
  status: ('A' for Active; 'I' for Inactive)
    1  A    between atoms: N_1  and  C_2
    2  A    between atoms: C_2  and  C_3
    3  A    between atoms: C_12  and  C_24
                            x       y       z     vdW  Elec       q    Type
                         _______ _______ _______ _____ _____    ______ ____

>  <TORSDO>
F 3

$$$$
=
 OpenBabel10262420543D

 28 32  0  0  1  0  0  0  0  0999 V2000
  187.6820  177.6930  138.2790 N   0  0  0  0  0  0  0  0  0  0  0  0
  185.8200  178.2550  143.0110 S   0  0  0  0  0  0  0  0  0  0  0  0
  191.8720  177.5010  140.7490 C   0  0  0  0  0  2  0  0  0  0  0  0
  187.9590  177.6730  144.1690 C   0  0  0  0  0  0  0  0  0  0  0  0
  188.2490  177.5600  141.6680 C   0  0  1  0  0  3  0  0  0  0  0  0
  187.4450  177.8470  142.8970 C   0  0  0  0  0  0  0  0  0  0  0  0
  190.1520  176.9360  143.2090 C   0  0  0  0  0  2  0  0  0  0  0  0
  187.0520  177.9190  145.2030 C   0  0  0  0  0  3  0  0  0  0  0  0
  189.7440  177.0810  139.5130 C   0  0  2  0  0  3  0  0  0  0  0  0
  187.8340  178.3620  140.5820 O   0  0  0  0  0  0  0  0  0  0  0  0
  189.3290  177.3090  144.3630 N   0  0  0  0  0  2  0  0  0  0  0  0
  189.5930  176.6880  137.0700 C   0  0  0  0  0  2  0  0  0  0  0  0
  190.5390  177.4060  140.7520 C   0  0  0  0  0  0  0  0  0  0  0  0
  190.5370  177.0510  138.2100 C   0  0  0  0  0  2  0  0  0  0  0  0
  185.7960  178.2500  144.7010 C   0  0  0  0  0  0  0  0  0  0  0  0
  189.7490  177.7660  141.9770 C   0  0  1  0  0  3  0  0  0  0  0  0
  188.4340  177.6820  137.0160 C   0  0  0  0  0  2  0  0  0  0  0  0
  188.5720  178.0870  139.3850 C   0  0  2  0  0  3  0  0  0  0  0  0
  184.6120  178.5980  145.5330 C   0  0  0  0  0  2  0  0  0  0  0  0
  183.4550  179.0050  144.6420 C   0  0  0  0  0  1  0  0  0  0  0  0
  186.5370  178.6120  138.1460 C   0  0  0  0  0  2  0  0  0  0  0  0
  185.1970  177.9700  138.3930 C   0  0  0  0  0  0  0  0  0  0  0  0
  182.7110  176.7680  138.8600 C   0  0  0  0  0  0  0  0  0  0  0  0
  184.7040  177.0060  137.5040 C   0  0  0  0  0  3  0  0  0  0  0  0
  184.4450  178.3250  139.5190 C   0  0  0  0  0  3  0  0  0  0  0  0
  183.2040  177.7260  139.7520 C   0  0  0  0  0  3  0  0  0  0  0  0
  181.4780  176.1750  139.0900 O   0  0  0  0  0  1  0  0  0  0  0  0
  183.4620  176.4080  137.7370 C   0  0  0  0  0  3  0  0  0  0  0  0
  1 18  1  0  0  0  0
  2 15  1  0  0  0  0
  3 13  2  0  0  0  0
  4 11  1  0  0  0  0
  4  8  1  0  0  0  0
  5 10  1  6  0  0  0
  5 16  1  0  0  0  0
  5  6  1  0  0  0  0
  6  2  1  0  0  0  0
  6  4  2  0  0  0  0
  7 11  1  0  0  0  0
  9 14  1  6  0  0  0
  9 13  1  0  0  0  0
 12 14  1  0  0  0  0
 13 16  1  0  0  0  0
 15  8  2  0  0  0  0
 15 19  1  0  0  0  0
 16  7  1  1  0  0  0
 17 12  1  0  0  0  0
 17  1  1  0  0  0  0
 18  9  1  0  0  0  0
 18 10  1  1  0  0  0
 20 19  1  0  0  0  0
 21  1  1  0  0  0  0
 21 22  1  0  0  0  0
 22 25  1  0  0  0  0
 23 27  1  0  0  0  0
 23 26  1  0  0  0  0
 24 28  1  0  0  0  0
 24 22  2  0  0  0  0
 25 26  2  0  0  0  0
 28 23  2  0  0  0  0
M  END
>  <MODEL>
8

>  <REMARK>
 VINA RESULT:      -9.1      3.268      6.149
  Name = 
  3 active torsions:
  status: ('A' for Active; 'I' for Inactive)
    1  A    between atoms: N_1  and  C_2
    2  A    between atoms: C_2  and  C_3
    3  A    between atoms: C_12  and  C_24
                            x       y       z     vdW  Elec       q    Type
                         _______ _______ _______ _____ _____    ______ ____

>  <TORSDO>
F 3

$$$$
=
 OpenBabel10262420543D

 28 32  0  0  1  0  0  0  0  0999 V2000
  186.6370  178.0770  139.8350 N   0  0  0  0  0  0  0  0  0  0  0  0
  187.3160  177.8920  144.9020 S   0  0  0  0  0  0  0  0  0  0  0  0
  191.4480  177.3390  139.9090 C   0  0  0  0  0  2  0  0  0  0  0  0
  189.6710  177.0560  144.7870 C   0  0  0  0  0  0  0  0  0  0  0  0
  188.7250  177.3560  142.4710 C   0  0  1  0  0  3  0  0  0  0  0  0
  188.6370  177.4570  143.9610 C   0  0  0  0  0  0  0  0  0  0  0  0
  191.0510  176.4220  142.7950 C   0  0  0  0  0  2  0  0  0  0  0  0
  189.3960  177.1520  146.1540 C   0  0  0  0  0  3  0  0  0  0  0  0
  188.9570  177.2000  139.8190 C   0  0  2  0  0  3  0  0  0  0  0  0
  187.9350  178.3430  141.8400 O   0  0  0  0  0  0  0  0  0  0  0  0
  190.9200  176.6210  144.2410 N   0  0  0  0  0  2  0  0  0  0  0  0
  187.6230  177.2290  137.7300 C   0  0  0  0  0  2  0  0  0  0  0  0
  190.2750  177.2870  140.5460 C   0  0  0  0  0  0  0  0  0  0  0  0
  189.0280  177.3650  138.3040 C   0  0  0  0  0  2  0  0  0  0  0  0
  188.0960  177.6020  146.3740 C   0  0  0  0  0  0  0  0  0  0  0  0
  190.2050  177.4600  142.0360 C   0  0  1  0  0  3  0  0  0  0  0  0
  186.6930  178.2550  138.3780 C   0  0  0  0  0  2  0  0  0  0  0  0
  187.9820  178.2500  140.4110 C   0  0  2  0  0  3  0  0  0  0  0  0
  187.4950  177.8420  147.7140 C   0  0  0  0  0  2  0  0  0  0  0  0
  188.5710  178.2510  148.6990 C   0  0  0  0  0  1  0  0  0  0  0  0
  185.6730  179.0400  140.3980 C   0  0  0  0  0  2  0  0  0  0  0  0
  184.2480  178.8130  139.9690 C   0  0  0  0  0  0  0  0  0  0  0  0
  181.5930  178.3980  139.1800 C   0  0  0  0  0  0  0  0  0  0  0  0
  183.5340  177.7100  140.4550 C   0  0  0  0  0  3  0  0  0  0  0  0
  183.6260  179.7110  139.0920 C   0  0  0  0  0  3  0  0  0  0  0  0
  182.3020  179.5030  138.6970 C   0  0  0  0  0  3  0  0  0  0  0  0
  180.2780  178.1910  138.7870 O   0  0  0  0  0  1  0  0  0  0  0  0
  182.2090  177.5030  140.0600 C   0  0  0  0  0  3  0  0  0  0  0  0
  1 21  1  0  0  0  0
  1 18  1  0  0  0  0
  2 15  1  0  0  0  0
  3 13  2  0  0  0  0
  4  8  1  0  0  0  0
  5 10  1  6  0  0  0
  5  6  1  0  0  0  0
  6  4  2  0  0  0  0
  6  2  1  0  0  0  0
  7 11  1  0  0  0  0
  8 15  2  0  0  0  0
  9 14  1  6  0  0  0
  9 18  1  0  0  0  0
  9 13  1  0  0  0  0
 11  4  1  0  0  0  0
 12 14  1  0  0  0  0
 12 17  1  0  0  0  0
 13 16  1  0  0  0  0
 15 19  1  0  0  0  0
 16  5  1  0  0  0  0
 16  7  1  1  0  0  0
 17  1  1  0  0  0  0
 18 10  1  1  0  0  0
 19 20  1  0  0  0  0
 22 21  1  0  0  0  0
 22 24  1  0  0  0  0
 23 28  1  0  0  0  0
 25 22  2  0  0  0  0
 26 25  1  0  0  0  0
 26 23  2  0  0  0  0
 27 23  1  0  0  0  0
 28 24  2  0  0  0  0
M  END
>  <MODEL>
9

>  <REMARK>
 VINA RESULT:      -9.1      3.003      7.153
  Name = 
  3 active torsions:
  status: ('A' for Active; 'I' for Inactive)
    1  A    between atoms: N_1  and  C_2
    2  A    between atoms: C_2  and  C_3
    3  A    between atoms: C_12  and  C_24
                            x       y       z     vdW  Elec       q    Type
                         _______ _______ _______ _____ _____    ______ ____

>  <TORSDO>
F 3

$$$$
