=
 OpenBabel10262421403D

 32 34  0  0  1  0  0  0  0  0999 V2000
  190.7310  176.6840  147.3710 C   0  0  0  0  0  2  0  0  0  0  0  0
  191.7110  176.0270  146.4060 C   0  0  0  0  0  2  0  0  0  0  0  0
  189.3410  176.7310  146.7450 C   0  0  0  0  0  2  0  0  0  0  0  0
  189.3700  177.5270  145.4410 C   0  0  1  0  0  3  0  0  0  0  0  0
  191.7770  176.8210  145.1060 C   0  0  0  0  0  2  0  0  0  0  0  0
  190.3920  176.9230  144.4640 C   0  0  2  0  0  3  0  0  0  0  0  0
  188.0430  177.5260  144.8400 N   0  0  0  0  0  2  0  0  0  0  0  0
  187.0020  178.5390  146.6710 O   0  0  0  0  0  0  0  0  0  0  0  0
  186.8940  178.0460  145.5160 C   0  0  0  0  0  0  0  0  0  0  0  0
  184.5980  178.9690  145.5650 C   0  0  0  0  0  2  0  0  0  0  0  0
  183.1360  178.7820  143.5490 C   0  0  0  0  0  0  0  0  0  0  0  0
  184.3200  178.3700  142.6870 C   0  0  2  0  0  3  0  0  0  0  0  0
  183.2660  179.0000  144.8700 C   0  0  0  0  0  3  0  0  0  0  0  0
  185.6800  178.4460  143.3970 C   0  0  0  0  0  2  0  0  0  0  0  0
  185.5580  178.0220  144.8550 C   0  0  1  0  0  3  0  0  0  0  0  0
  184.1640  178.1760  140.1680 C   0  0  0  0  0  1  0  0  0  0  0  0
  184.3650  179.1120  141.3520 C   0  0  0  0  0  2  0  0  0  0  0  0
  181.7660  178.8150  142.9430 C   0  0  0  0  0  2  0  0  0  0  0  0
  180.7030  178.6370  144.0110 C   0  0  0  0  0  2  0  0  0  0  0  0
  179.3320  178.7750  143.3850 C   0  0  0  0  0  2  0  0  0  0  0  0
  179.4480  178.6480  141.8800 C   0  0  0  0  0  1  0  0  0  0  0  0
  190.4590  177.6860  143.1350 C   0  0  0  0  0  2  0  0  0  0  0  0
  190.5330  176.7720  141.9150 C   0  0  0  0  0  2  0  0  0  0  0  0
  191.3660  177.4040  140.8130 C   0  0  0  0  0  2  0  0  0  0  0  0
  189.3320  176.9990  139.3070 C   0  0  1  0  0  3  0  0  0  0  0  0
  191.4640  176.6370  138.3850 C   0  0  0  0  0  0  0  0  0  0  0  0
  190.5580  176.1480  137.3300 C   0  0  0  0  0  3  0  0  0  0  0  0
  189.1630  176.4280  137.8930 C   0  0  0  0  0  3  0  0  0  0  0  0
  193.0850  176.4070  138.3450 S   0  0  0  0  0  0  0  0  0  0  0  0
  190.7640  177.1250  139.5160 N   0  0  0  0  0  0  0  0  0  0  0  0
  187.8290  178.4750  140.6430 C   0  0  0  0  0  1  0  0  0  0  0  0
  188.6570  178.3600  139.3780 C   0  0  0  0  0  2  0  0  0  0  0  0
  2  1  1  0  0  0  0
  3  1  1  0  0  0  0
  4  7  1  6  0  0  0
  4  3  1  0  0  0  0
  5  2  1  0  0  0  0
  6 22  1  6  0  0  0
  6  5  1  0  0  0  0
  6  4  1  0  0  0  0
  7  9  1  0  0  0  0
  9  8  2  0  0  0  0
 11 13  2  0  0  0  0
 12 17  1  6  0  0  0
 12 14  1  0  0  0  0
 12 11  1  0  0  0  0
 13 10  1  0  0  0  0
 14 15  1  0  0  0  0
 15  9  1  1  0  0  0
 15 10  1  0  0  0  0
 16 17  1  0  0  0  0
 18 11  1  0  0  0  0
 18 19  1  0  0  0  0
 20 19  1  0  0  0  0
 21 20  1  0  0  0  0
 23 22  1  0  0  0  0
 24 23  1  0  0  0  0
 25 32  1  6  0  0  0
 25 30  1  0  0  0  0
 26 30  1  0  0  0  0
 27 28  2  0  0  0  0
 27 26  1  0  0  0  0
 28 25  1  0  0  0  0
 29 26  2  0  0  0  0
 30 24  1  0  0  0  0
 32 31  1  0  0  0  0
M  END
>  <MODEL>
1

>  <REMARK>
 VINA RESULT:      -8.3      0.000      0.000
  Name = 
  11 active torsions:
  status: ('A' for Active; 'I' for Inactive)
    1  A    between atoms: C_1  and  C_20
    2  A    between atoms: C_2  and  C_12
    3  A    between atoms: C_2  and  C_20
    4  A    between atoms: N_3  and  C_15
    5  A    between atoms: C_6  and  C_16
    6  A    between atoms: C_6  and  C_26
    7  A    between atoms: C_7  and  C_31
    8  A    between atoms: C_14  and  C_28
    9  A    between atoms: C_16  and  C_27
   10  A    between atoms: C_19  and  C_24
   11  A    between atoms: C_27  and  N_32
                            x       y       z     vdW  Elec       q    Type
                         _______ _______ _______ _____ _____    ______ ____

>  <TORSDO>
F 11

$$$$
=
 OpenBabel10262421403D

 32 34  0  0  1  0  0  0  0  0999 V2000
  189.1410  177.2510  147.7030 C   0  0  0  0  0  2  0  0  0  0  0  0
  190.3490  176.6950  146.9580 C   0  0  0  0  0  2  0  0  0  0  0  0
  187.8940  177.1200  146.8350 C   0  0  0  0  0  2  0  0  0  0  0  0
  188.0720  177.8860  145.5250 C   0  0  1  0  0  3  0  0  0  0  0  0
  190.5640  177.4630  145.6590 C   0  0  0  0  0  2  0  0  0  0  0  0
  189.3180  177.3870  144.7750 C   0  0  2  0  0  3  0  0  0  0  0  0
  186.8870  177.7150  144.6950 N   0  0  0  0  0  2  0  0  0  0  0  0
  185.6700  179.4130  145.7450 O   0  0  0  0  0  0  0  0  0  0  0  0
  185.7110  178.5140  144.8630 C   0  0  0  0  0  0  0  0  0  0  0  0
  183.3830  179.2190  144.4020 C   0  0  0  0  0  2  0  0  0  0  0  0
  182.3350  178.6920  142.1970 C   0  0  0  0  0  0  0  0  0  0  0  0
  183.6850  178.3070  141.6090 C   0  0  2  0  0  3  0  0  0  0  0  0
  182.2040  179.0540  143.4860 C   0  0  0  0  0  3  0  0  0  0  0  0
  184.8810  178.5820  142.5320 C   0  0  0  0  0  2  0  0  0  0  0  0
  184.5250  178.2980  143.9850 C   0  0  1  0  0  3  0  0  0  0  0  0
  183.8010  177.8720  139.1190 C   0  0  0  0  0  1  0  0  0  0  0  0
  183.9200  178.9100  140.2250 C   0  0  0  0  0  2  0  0  0  0  0  0
  181.1020  178.5350  141.3610 C   0  0  0  0  0  2  0  0  0  0  0  0
  180.4640  179.8850  141.0880 C   0  0  0  0  0  2  0  0  0  0  0  0
  180.1300  179.9950  139.6160 C   0  0  0  0  0  2  0  0  0  0  0  0
  181.0780  180.9730  138.9540 C   0  0  0  0  0  1  0  0  0  0  0  0
  189.5420  178.1240  143.4480 C   0  0  0  0  0  2  0  0  0  0  0  0
  189.0710  177.3360  142.2290 C   0  0  0  0  0  2  0  0  0  0  0  0
  188.9020  178.2470  141.0260 C   0  0  0  0  0  2  0  0  0  0  0  0
  188.4930  176.9480  138.8550 C   0  0  1  0  0  3  0  0  0  0  0  0
  190.7130  177.1610  139.6000 C   0  0  0  0  0  0  0  0  0  0  0  0
  190.8320  176.2320  138.4620 C   0  0  0  0  0  3  0  0  0  0  0  0
  189.4010  176.1260  137.9300 C   0  0  0  0  0  3  0  0  0  0  0  0
  191.9490  177.4750  140.6270 S   0  0  0  0  0  0  0  0  0  0  0  0
  189.3760  177.5730  139.8250 N   0  0  0  0  0  0  0  0  0  0  0  0
  186.8680  177.3450  137.0040 C   0  0  0  0  0  1  0  0  0  0  0  0
  187.7690  178.0020  138.0310 C   0  0  0  0  0  2  0  0  0  0  0  0
  2  1  1  0  0  0  0
  3  1  1  0  0  0  0
  4  7  1  6  0  0  0
  4  3  1  0  0  0  0
  5  2  1  0  0  0  0
  6 22  1  6  0  0  0
  6  4  1  0  0  0  0
  6  5  1  0  0  0  0
  7  9  1  0  0  0  0
  9  8  2  0  0  0  0
 11 13  2  0  0  0  0
 12 17  1  6  0  0  0
 12 11  1  0  0  0  0
 12 14  1  0  0  0  0
 13 10  1  0  0  0  0
 14 15  1  0  0  0  0
 15 10  1  0  0  0  0
 15  9  1  1  0  0  0
 16 17  1  0  0  0  0
 18 11  1  0  0  0  0
 19 18  1  0  0  0  0
 20 19  1  0  0  0  0
 21 20  1  0  0  0  0
 23 22  1  0  0  0  0
 24 23  1  0  0  0  0
 25 32  1  6  0  0  0
 25 30  1  0  0  0  0
 26 30  1  0  0  0  0
 26 29  2  0  0  0  0
 27 26  1  0  0  0  0
 28 27  2  0  0  0  0
 28 25  1  0  0  0  0
 30 24  1  0  0  0  0
 31 32  1  0  0  0  0
M  END
>  <MODEL>
2

>  <REMARK>
 VINA RESULT:      -7.8      1.556      1.982
  Name = 
  11 active torsions:
  status: ('A' for Active; 'I' for Inactive)
    1  A    between atoms: C_1  and  C_20
    2  A    between atoms: C_2  and  C_12
    3  A    between atoms: C_2  and  C_20
    4  A    between atoms: N_3  and  C_15
    5  A    between atoms: C_6  and  C_16
    6  A    between atoms: C_6  and  C_26
    7  A    between atoms: C_7  and  C_31
    8  A    between atoms: C_14  and  C_28
    9  A    between atoms: C_16  and  C_27
   10  A    between atoms: C_19  and  C_24
   11  A    between atoms: C_27  and  N_32
                            x       y       z     vdW  Elec       q    Type
                         _______ _______ _______ _____ _____    ______ ____

>  <TORSDO>
F 11

$$$$
=
 OpenBabel10262421403D

 32 34  0  0  1  0  0  0  0  0999 V2000
  183.2840  179.4430  144.7620 C   0  0  0  0  0  2  0  0  0  0  0  0
  184.2380  178.6660  145.6610 C   0  0  0  0  0  2  0  0  0  0  0  0
  183.1610  178.7450  143.4120 C   0  0  0  0  0  2  0  0  0  0  0  0
  184.5270  178.6520  142.7320 C   0  0  1  0  0  3  0  0  0  0  0  0
  185.6170  178.5850  145.0160 C   0  0  0  0  0  2  0  0  0  0  0  0
  185.5310  177.9220  143.6390 C   0  0  2  0  0  3  0  0  0  0  0  0
  184.3940  177.9480  141.4650 N   0  0  0  0  0  2  0  0  0  0  0  0
  184.8360  179.8300  140.1510 O   0  0  0  0  0  0  0  0  0  0  0  0
  184.5570  178.6020  140.2020 C   0  0  0  0  0  0  0  0  0  0  0  0
  183.1620  178.2830  138.1820 C   0  0  0  0  0  2  0  0  0  0  0  0
  184.1070  177.1150  136.1870 C   0  0  0  0  0  0  0  0  0  0  0  0
  185.5150  177.2130  136.7550 C   0  0  2  0  0  3  0  0  0  0  0  0
  183.0370  177.5590  136.8720 C   0  0  0  0  0  3  0  0  0  0  0  0
  185.6260  178.0460  138.0400 C   0  0  0  0  0  2  0  0  0  0  0  0
  184.4110  177.8330  138.9330 C   0  0  1  0  0  3  0  0  0  0  0  0
  187.6280  176.6430  135.4830 C   0  0  0  0  0  1  0  0  0  0  0  0
  186.5380  177.6790  135.7190 C   0  0  0  0  0  2  0  0  0  0  0  0
  183.8870  176.3870  134.8960 C   0  0  0  0  0  2  0  0  0  0  0  0
  184.3290  174.9400  135.0150 C   0  0  0  0  0  2  0  0  0  0  0  0
  183.4210  174.2130  135.9830 C   0  0  0  0  0  2  0  0  0  0  0  0
  184.2590  173.5010  137.0240 C   0  0  0  0  0  1  0  0  0  0  0  0
  186.9210  177.8010  143.0020 C   0  0  0  0  0  2  0  0  0  0  0  0
  187.9230  177.0480  143.8720 C   0  0  0  0  0  2  0  0  0  0  0  0
  189.0220  177.9750  144.3610 C   0  0  0  0  0  2  0  0  0  0  0  0
  189.7510  177.5610  146.7820 C   0  0  1  0  0  3  0  0  0  0  0  0
  191.0070  176.5460  145.0730 C   0  0  0  0  0  0  0  0  0  0  0  0
  191.7940  176.2500  146.2840 C   0  0  0  0  0  3  0  0  0  0  0  0
  190.9600  176.8570  147.4140 C   0  0  0  0  0  3  0  0  0  0  0  0
  191.5590  176.2550  143.5590 S   0  0  0  0  0  0  0  0  0  0  0  0
  189.8380  177.2950  145.3570 N   0  0  0  0  0  0  0  0  0  0  0  0
  187.9590  177.8370  148.4950 C   0  0  0  0  0  1  0  0  0  0  0  0
  188.4740  176.9720  147.3620 C   0  0  0  0  0  2  0  0  0  0  0  0
  1  2  1  0  0  0  0
  3  1  1  0  0  0  0
  4  7  1  6  0  0  0
  4  3  1  0  0  0  0
  4  6  1  0  0  0  0
  5  2  1  0  0  0  0
  6 22  1  6  0  0  0
  6  5  1  0  0  0  0
  8  9  2  0  0  0  0
  9  7  1  0  0  0  0
 10 15  1  0  0  0  0
 11 12  1  0  0  0  0
 11 13  2  0  0  0  0
 12 17  1  6  0  0  0
 12 14  1  0  0  0  0
 13 10  1  0  0  0  0
 14 15  1  0  0  0  0
 15  9  1  1  0  0  0
 16 17  1  0  0  0  0
 18 19  1  0  0  0  0
 18 11  1  0  0  0  0
 19 20  1  0  0  0  0
 20 21  1  0  0  0  0
 22 23  1  0  0  0  0
 23 24  1  0  0  0  0
 24 30  1  0  0  0  0
 25 32  1  1  0  0  0
 25 28  1  0  0  0  0
 26 30  1  0  0  0  0
 26 27  1  0  0  0  0
 27 28  2  0  0  0  0
 29 26  2  0  0  0  0
 30 25  1  0  0  0  0
 32 31  1  0  0  0  0
M  END
>  <MODEL>
3

>  <REMARK>
 VINA RESULT:      -7.8      3.236      7.096
  Name = 
  11 active torsions:
  status: ('A' for Active; 'I' for Inactive)
    1  A    between atoms: C_1  and  C_20
    2  A    between atoms: C_2  and  C_12
    3  A    between atoms: C_2  and  C_20
    4  A    between atoms: N_3  and  C_15
    5  A    between atoms: C_6  and  C_16
    6  A    between atoms: C_6  and  C_26
    7  A    between atoms: C_7  and  C_31
    8  A    between atoms: C_14  and  C_28
    9  A    between atoms: C_16  and  C_27
   10  A    between atoms: C_19  and  C_24
   11  A    between atoms: C_27  and  N_32
                            x       y       z     vdW  Elec       q    Type
                         _______ _______ _______ _____ _____    ______ ____

>  <TORSDO>
F 11

$$$$
=
 OpenBabel10262421403D

 32 34  0  0  1  0  0  0  0  0999 V2000
  190.5710  176.8760  147.3170 C   0  0  0  0  0  2  0  0  0  0  0  0
  191.6470  176.3830  146.3560 C   0  0  0  0  0  2  0  0  0  0  0  0
  189.2150  176.8750  146.6210 C   0  0  0  0  0  2  0  0  0  0  0  0
  189.2440  177.7840  145.3930 C   0  0  1  0  0  3  0  0  0  0  0  0
  191.7140  177.2930  145.1350 C   0  0  0  0  0  2  0  0  0  0  0  0
  190.3580  177.3480  144.4270 C   0  0  2  0  0  3  0  0  0  0  0  0
  187.9530  177.7380  144.7210 N   0  0  0  0  0  2  0  0  0  0  0  0
  186.7430  178.4810  146.5780 O   0  0  0  0  0  0  0  0  0  0  0  0
  186.7330  178.0970  145.3780 C   0  0  0  0  0  0  0  0  0  0  0  0
  184.4070  178.9400  145.3040 C   0  0  0  0  0  2  0  0  0  0  0  0
  183.0670  178.7200  143.2080 C   0  0  0  0  0  0  0  0  0  0  0  0
  184.3110  178.3560  142.4110 C   0  0  2  0  0  3  0  0  0  0  0  0
  183.1160  178.9310  144.5360 C   0  0  0  0  0  3  0  0  0  0  0  0
  185.6250  178.4730  143.1960 C   0  0  0  0  0  2  0  0  0  0  0  0
  185.4370  178.0320  144.6420 C   0  0  1  0  0  3  0  0  0  0  0  0
  184.0180  178.2370  139.9000 C   0  0  0  0  0  1  0  0  0  0  0  0
  184.4040  179.1100  141.0850 C   0  0  0  0  0  2  0  0  0  0  0  0
  181.7330  178.7110  142.5270 C   0  0  0  0  0  2  0  0  0  0  0  0
  180.6980  179.4380  143.3650 C   0  0  0  0  0  2  0  0  0  0  0  0
  179.3280  178.8550  143.0910 C   0  0  0  0  0  2  0  0  0  0  0  0
  179.3350  178.1590  141.7470 C   0  0  0  0  0  1  0  0  0  0  0  0
  190.4300  178.2300  143.1740 C   0  0  0  0  0  2  0  0  0  0  0  0
  191.1610  177.5690  142.0090 C   0  0  0  0  0  2  0  0  0  0  0  0
  190.2810  176.5320  141.3330 C   0  0  0  0  0  2  0  0  0  0  0  0
  190.9060  176.7590  138.8590 C   0  0  1  0  0  3  0  0  0  0  0  0
  188.9540  177.8410  139.5970 C   0  0  0  0  0  0  0  0  0  0  0  0
  189.0960  178.3210  138.2100 C   0  0  0  0  0  3  0  0  0  0  0  0
  190.3330  177.5820  137.6970 C   0  0  0  0  0  3  0  0  0  0  0  0
  187.8680  178.4680  140.6500 S   0  0  0  0  0  0  0  0  0  0  0  0
  189.9870  176.9460  139.9680 N   0  0  0  0  0  0  0  0  0  0  0  0
  191.9350  175.1030  137.3020 C   0  0  0  0  0  1  0  0  0  0  0  0
  190.9620  175.2950  138.4490 C   0  0  0  0  0  2  0  0  0  0  0  0
  2  1  1  0  0  0  0
  3  1  1  0  0  0  0
  4  7  1  6  0  0  0
  4  3  1  0  0  0  0
  5  2  1  0  0  0  0
  6 22  1  6  0  0  0
  6  5  1  0  0  0  0
  6  4  1  0  0  0  0
  7  9  1  0  0  0  0
  9  8  2  0  0  0  0
 11 13  2  0  0  0  0
 12 17  1  6  0  0  0
 12 14  1  0  0  0  0
 12 11  1  0  0  0  0
 13 10  1  0  0  0  0
 14 15  1  0  0  0  0
 15 10  1  0  0  0  0
 15  9  1  1  0  0  0
 16 17  1  0  0  0  0
 18 11  1  0  0  0  0
 18 19  1  0  0  0  0
 20 19  1  0  0  0  0
 21 20  1  0  0  0  0
 23 22  1  0  0  0  0
 24 23  1  0  0  0  0
 25 32  1  6  0  0  0
 25 30  1  0  0  0  0
 26 30  1  0  0  0  0
 26 29  2  0  0  0  0
 27 26  1  0  0  0  0
 28 27  2  0  0  0  0
 28 25  1  0  0  0  0
 30 24  1  0  0  0  0
 31 32  1  0  0  0  0
M  END
>  <MODEL>
4

>  <REMARK>
 VINA RESULT:      -7.8      1.283      1.950
  Name = 
  11 active torsions:
  status: ('A' for Active; 'I' for Inactive)
    1  A    between atoms: C_1  and  C_20
    2  A    between atoms: C_2  and  C_12
    3  A    between atoms: C_2  and  C_20
    4  A    between atoms: N_3  and  C_15
    5  A    between atoms: C_6  and  C_16
    6  A    between atoms: C_6  and  C_26
    7  A    between atoms: C_7  and  C_31
    8  A    between atoms: C_14  and  C_28
    9  A    between atoms: C_16  and  C_27
   10  A    between atoms: C_19  and  C_24
   11  A    between atoms: C_27  and  N_32
                            x       y       z     vdW  Elec       q    Type
                         _______ _______ _______ _____ _____    ______ ____

>  <TORSDO>
F 11

$$$$
=
 OpenBabel10262421403D

 32 34  0  0  1  0  0  0  0  0999 V2000
  188.0230  177.5230  148.0480 C   0  0  0  0  0  2  0  0  0  0  0  0
  189.1240  176.6200  147.5050 C   0  0  0  0  0  2  0  0  0  0  0  0
  186.9030  177.6480  147.0210 C   0  0  0  0  0  2  0  0  0  0  0  0
  187.4380  178.2380  145.7170 C   0  0  1  0  0  3  0  0  0  0  0  0
  189.6940  177.2050  146.2180 C   0  0  0  0  0  2  0  0  0  0  0  0
  188.5920  177.3810  145.1710 C   0  0  2  0  0  3  0  0  0  0  0  0
  186.3630  178.3120  144.7370 N   0  0  0  0  0  2  0  0  0  0  0  0
  185.2320  180.0460  145.8220 O   0  0  0  0  0  0  0  0  0  0  0  0
  185.2810  179.2420  144.8540 C   0  0  0  0  0  0  0  0  0  0  0  0
  184.4980  178.2630  142.7190 C   0  0  0  0  0  2  0  0  0  0  0  0
  182.1170  178.5400  142.0200 C   0  0  0  0  0  0  0  0  0  0  0  0
  181.7320  179.0330  143.4070 C   0  0  2  0  0  3  0  0  0  0  0  0
  183.3910  178.2440  141.7040 C   0  0  0  0  0  3  0  0  0  0  0  0
  182.8570  178.9450  144.4480 C   0  0  0  0  0  2  0  0  0  0  0  0
  184.2060  179.2750  143.8210 C   0  0  1  0  0  3  0  0  0  0  0  0
  179.2950  179.3570  144.0090 C   0  0  0  0  0  1  0  0  0  0  0  0
  180.4560  178.3770  143.9340 C   0  0  0  0  0  2  0  0  0  0  0  0
  181.0800  178.5120  140.9390 C   0  0  0  0  0  2  0  0  0  0  0  0
  180.6410  177.0880  140.6530 C   0  0  0  0  0  2  0  0  0  0  0  0
  180.8700  176.7750  139.1900 C   0  0  0  0  0  2  0  0  0  0  0  0
  182.2040  176.0790  139.0250 C   0  0  0  0  0  1  0  0  0  0  0  0
  189.1660  177.9310  143.8590 C   0  0  0  0  0  2  0  0  0  0  0  0
  188.5870  177.2610  142.6160 C   0  0  0  0  0  2  0  0  0  0  0  0
  188.5290  178.2340  141.4520 C   0  0  0  0  0  2  0  0  0  0  0  0
  188.5200  177.1420  139.1340 C   0  0  1  0  0  3  0  0  0  0  0  0
  190.5700  177.2620  140.2770 C   0  0  0  0  0  0  0  0  0  0  0  0
  190.8950  176.4390  139.0980 C   0  0  0  0  0  3  0  0  0  0  0  0
  189.5820  176.3980  138.3130 C   0  0  0  0  0  3  0  0  0  0  0  0
  191.6020  177.4690  141.5310 S   0  0  0  0  0  0  0  0  0  0  0  0
  189.2120  177.6670  140.2980 N   0  0  0  0  0  0  0  0  0  0  0  0
  189.0530  178.9800  137.5320 C   0  0  0  0  0  1  0  0  0  0  0  0
  187.9480  178.2740  138.2940 C   0  0  0  0  0  2  0  0  0  0  0  0
  2  1  1  0  0  0  0
  3  1  1  0  0  0  0
  4  7  1  6  0  0  0
  4  3  1  0  0  0  0
  5  2  1  0  0  0  0
  6 22  1  6  0  0  0
  6  4  1  0  0  0  0
  6  5  1  0  0  0  0
  7  9  1  0  0  0  0
  9  8  2  0  0  0  0
 10 15  1  0  0  0  0
 11 12  1  0  0  0  0
 12 17  1  1  0  0  0
 12 14  1  0  0  0  0
 13 11  2  0  0  0  0
 13 10  1  0  0  0  0
 15 14  1  0  0  0  0
 15  9  1  1  0  0  0
 17 16  1  0  0  0  0
 18 11  1  0  0  0  0
 19 18  1  0  0  0  0
 20 19  1  0  0  0  0
 21 20  1  0  0  0  0
 23 22  1  0  0  0  0
 24 23  1  0  0  0  0
 25 32  1  6  0  0  0
 25 30  1  0  0  0  0
 26 30  1  0  0  0  0
 26 29  2  0  0  0  0
 27 26  1  0  0  0  0
 28 27  2  0  0  0  0
 28 25  1  0  0  0  0
 30 24  1  0  0  0  0
 31 32  1  0  0  0  0
M  END
>  <MODEL>
5

>  <REMARK>
 VINA RESULT:      -7.6      1.670      2.946
  Name = 
  11 active torsions:
  status: ('A' for Active; 'I' for Inactive)
    1  A    between atoms: C_1  and  C_20
    2  A    between atoms: C_2  and  C_12
    3  A    between atoms: C_2  and  C_20
    4  A    between atoms: N_3  and  C_15
    5  A    between atoms: C_6  and  C_16
    6  A    between atoms: C_6  and  C_26
    7  A    between atoms: C_7  and  C_31
    8  A    between atoms: C_14  and  C_28
    9  A    between atoms: C_16  and  C_27
   10  A    between atoms: C_19  and  C_24
   11  A    between atoms: C_27  and  N_32
                            x       y       z     vdW  Elec       q    Type
                         _______ _______ _______ _____ _____    ______ ____

>  <TORSDO>
F 11

$$$$
=
 OpenBabel10262421403D

 32 34  0  0  1  0  0  0  0  0999 V2000
  188.1700  177.4040  147.7440 C   0  0  0  0  0  2  0  0  0  0  0  0
  189.2380  176.5100  147.1260 C   0  0  0  0  0  2  0  0  0  0  0  0
  187.0100  177.5740  146.7680 C   0  0  0  0  0  2  0  0  0  0  0  0
  187.4980  178.2040  145.4640 C   0  0  1  0  0  3  0  0  0  0  0  0
  189.7610  177.1330  145.8370 C   0  0  0  0  0  2  0  0  0  0  0  0
  188.6190  177.3550  144.8430 C   0  0  2  0  0  3  0  0  0  0  0  0
  186.3840  178.3200  144.5330 N   0  0  0  0  0  2  0  0  0  0  0  0
  185.2280  179.8980  145.8120 O   0  0  0  0  0  0  0  0  0  0  0  0
  185.2710  179.1890  144.7720 C   0  0  0  0  0  0  0  0  0  0  0  0
  184.4280  178.3450  142.6030 C   0  0  0  0  0  2  0  0  0  0  0  0
  182.0170  178.6170  142.0120 C   0  0  0  0  0  0  0  0  0  0  0  0
  181.6750  179.0020  143.4440 C   0  0  2  0  0  3  0  0  0  0  0  0
  183.2840  178.3720  141.6310 C   0  0  0  0  0  3  0  0  0  0  0  0
  182.8400  178.8670  144.4340 C   0  0  0  0  0  2  0  0  0  0  0  0
  184.1570  179.2700  143.7840 C   0  0  1  0  0  3  0  0  0  0  0  0
  179.2540  179.2270  144.1490 C   0  0  0  0  0  1  0  0  0  0  0  0
  180.4330  178.2820  143.9690 C   0  0  0  0  0  2  0  0  0  0  0  0
  180.9400  178.6410  140.9710 C   0  0  0  0  0  2  0  0  0  0  0  0
  181.5400  178.7590  139.5820 C   0  0  0  0  0  2  0  0  0  0  0  0
  181.5850  180.2160  139.1740 C   0  0  0  0  0  2  0  0  0  0  0  0
  180.1870  180.7960  139.2190 C   0  0  0  0  0  1  0  0  0  0  0  0
  189.1450  177.9440  143.5270 C   0  0  0  0  0  2  0  0  0  0  0  0
  188.4490  177.3810  142.2910 C   0  0  0  0  0  2  0  0  0  0  0  0
  188.1380  178.4830  141.2940 C   0  0  0  0  0  2  0  0  0  0  0  0
  189.8320  177.9460  139.4480 C   0  0  1  0  0  3  0  0  0  0  0  0
  187.5540  177.9570  138.8710 C   0  0  0  0  0  0  0  0  0  0  0  0
  188.2260  177.7940  137.5690 C   0  0  0  0  0  3  0  0  0  0  0  0
  189.7100  177.7300  137.9340 C   0  0  0  0  0  3  0  0  0  0  0  0
  185.9500  178.2520  139.0150 S   0  0  0  0  0  0  0  0  0  0  0  0
  188.4710  178.0410  139.9470 N   0  0  0  0  0  0  0  0  0  0  0  0
  191.8420  177.1910  140.7180 C   0  0  0  0  0  1  0  0  0  0  0  0
  190.5470  176.7520  140.0640 C   0  0  0  0  0  2  0  0  0  0  0  0
  2  1  1  0  0  0  0
  3  1  1  0  0  0  0
  4  7  1  6  0  0  0
  4  3  1  0  0  0  0
  5  2  1  0  0  0  0
  6 22  1  6  0  0  0
  6  4  1  0  0  0  0
  6  5  1  0  0  0  0
  7  9  1  0  0  0  0
  9  8  2  0  0  0  0
 10 15  1  0  0  0  0
 11 12  1  0  0  0  0
 12 17  1  1  0  0  0
 12 14  1  0  0  0  0
 13 11  2  0  0  0  0
 13 10  1  0  0  0  0
 15 14  1  0  0  0  0
 15  9  1  1  0  0  0
 17 16  1  0  0  0  0
 18 11  1  0  0  0  0
 19 18  1  0  0  0  0
 20 21  1  0  0  0  0
 20 19  1  0  0  0  0
 23 22  1  0  0  0  0
 24 23  1  0  0  0  0
 25 30  1  0  0  0  0
 25 32  1  1  0  0  0
 26 29  2  0  0  0  0
 26 30  1  0  0  0  0
 27 28  2  0  0  0  0
 27 26  1  0  0  0  0
 28 25  1  0  0  0  0
 30 24  1  0  0  0  0
 32 31  1  0  0  0  0
M  END
>  <MODEL>
6

>  <REMARK>
 VINA RESULT:      -7.5      2.053      3.310
  Name = 
  11 active torsions:
  status: ('A' for Active; 'I' for Inactive)
    1  A    between atoms: C_1  and  C_20
    2  A    between atoms: C_2  and  C_12
    3  A    between atoms: C_2  and  C_20
    4  A    between atoms: N_3  and  C_15
    5  A    between atoms: C_6  and  C_16
    6  A    between atoms: C_6  and  C_26
    7  A    between atoms: C_7  and  C_31
    8  A    between atoms: C_14  and  C_28
    9  A    between atoms: C_16  and  C_27
   10  A    between atoms: C_19  and  C_24
   11  A    between atoms: C_27  and  N_32
                            x       y       z     vdW  Elec       q    Type
                         _______ _______ _______ _____ _____    ______ ____

>  <TORSDO>
F 11

$$$$
=
 OpenBabel10262421403D

 32 34  0  0  1  0  0  0  0  0999 V2000
  187.0050  179.0160  147.8290 C   0  0  0  0  0  2  0  0  0  0  0  0
  187.9430  177.8190  147.9260 C   0  0  0  0  0  2  0  0  0  0  0  0
  185.8190  178.6730  146.9340 C   0  0  0  0  0  2  0  0  0  0  0  0
  186.2990  178.2970  145.5320 C   0  0  1  0  0  3  0  0  0  0  0  0
  188.4580  177.4430  146.5410 C   0  0  0  0  0  2  0  0  0  0  0  0
  187.2940  177.1260  145.6000 C   0  0  2  0  0  3  0  0  0  0  0  0
  185.1560  177.9340  144.7060 N   0  0  0  0  0  2  0  0  0  0  0  0
  184.8670  180.0800  143.8240 O   0  0  0  0  0  0  0  0  0  0  0  0
  184.4780  178.8820  143.8740 C   0  0  0  0  0  0  0  0  0  0  0  0
  182.0620  179.2250  143.4620 C   0  0  0  0  0  2  0  0  0  0  0  0
  181.0410  178.4500  141.3180 C   0  0  0  0  0  0  0  0  0  0  0  0
  182.4160  178.2330  140.7030 C   0  0  2  0  0  3  0  0  0  0  0  0
  180.8940  178.8500  142.5940 C   0  0  0  0  0  3  0  0  0  0  0  0
  183.5850  178.7190  141.5720 C   0  0  0  0  0  2  0  0  0  0  0  0
  183.3130  178.4570  143.0470 C   0  0  1  0  0  3  0  0  0  0  0  0
  183.7810  179.6330  139.0960 C   0  0  0  0  0  1  0  0  0  0  0  0
  182.5240  178.7970  139.2860 C   0  0  0  0  0  2  0  0  0  0  0  0
  179.8210  178.0790  140.5320 C   0  0  0  0  0  2  0  0  0  0  0  0
  179.3550  176.6810  140.8940 C   0  0  0  0  0  2  0  0  0  0  0  0
  179.7050  175.7270  139.7720 C   0  0  0  0  0  2  0  0  0  0  0  0
  179.6990  176.4730  138.4540 C   0  0  0  0  0  1  0  0  0  0  0  0
  187.8060  176.7080  144.2160 C   0  0  0  0  0  2  0  0  0  0  0  0
  188.4010  177.8620  143.4150 C   0  0  0  0  0  2  0  0  0  0  0  0
  188.4210  177.5390  141.9310 C   0  0  0  0  0  2  0  0  0  0  0  0
  190.9370  177.3590  142.3840 C   0  0  1  0  0  3  0  0  0  0  0  0
  190.2280  177.3670  140.1430 C   0  0  0  0  0  0  0  0  0  0  0  0
  191.6960  177.4330  140.0270 C   0  0  0  0  0  3  0  0  0  0  0  0
  192.1760  177.3730  141.4790 C   0  0  0  0  0  3  0  0  0  0  0  0
  189.2240  177.5720  138.8660 S   0  0  0  0  0  0  0  0  0  0  0  0
  189.7920  177.3230  141.4900 N   0  0  0  0  0  0  0  0  0  0  0  0
  191.5240  176.4500  144.6320 C   0  0  0  0  0  1  0  0  0  0  0  0
  190.9750  176.1150  143.2590 C   0  0  0  0  0  2  0  0  0  0  0  0
  1  2  1  0  0  0  0
  3  1  1  0  0  0  0
  4  7  1  6  0  0  0
  4  6  1  0  0  0  0
  4  3  1  0  0  0  0
  5  2  1  0  0  0  0
  6 22  1  6  0  0  0
  6  5  1  0  0  0  0
  8  9  2  0  0  0  0
  9  7  1  0  0  0  0
 11 13  2  0  0  0  0
 12 17  1  6  0  0  0
 12 11  1  0  0  0  0
 12 14  1  0  0  0  0
 13 10  1  0  0  0  0
 14 15  1  0  0  0  0
 15 10  1  0  0  0  0
 15  9  1  1  0  0  0
 16 17  1  0  0  0  0
 18 19  1  0  0  0  0
 18 11  1  0  0  0  0
 20 19  1  0  0  0  0
 21 20  1  0  0  0  0
 23 22  1  0  0  0  0
 24 23  1  0  0  0  0
 25 32  1  1  0  0  0
 26 30  1  0  0  0  0
 27 26  1  0  0  0  0
 27 28  2  0  0  0  0
 28 25  1  0  0  0  0
 29 26  2  0  0  0  0
 30 24  1  0  0  0  0
 30 25  1  0  0  0  0
 32 31  1  0  0  0  0
M  END
>  <MODEL>
7

>  <REMARK>
 VINA RESULT:      -7.5      2.055      3.586
  Name = 
  11 active torsions:
  status: ('A' for Active; 'I' for Inactive)
    1  A    between atoms: C_1  and  C_20
    2  A    between atoms: C_2  and  C_12
    3  A    between atoms: C_2  and  C_20
    4  A    between atoms: N_3  and  C_15
    5  A    between atoms: C_6  and  C_16
    6  A    between atoms: C_6  and  C_26
    7  A    between atoms: C_7  and  C_31
    8  A    between atoms: C_14  and  C_28
    9  A    between atoms: C_16  and  C_27
   10  A    between atoms: C_19  and  C_24
   11  A    between atoms: C_27  and  N_32
                            x       y       z     vdW  Elec       q    Type
                         _______ _______ _______ _____ _____    ______ ____

>  <TORSDO>
F 11

$$$$
=
 OpenBabel10262421403D

 32 34  0  0  1  0  0  0  0  0999 V2000
  189.2950  175.2740  136.2860 C   0  0  0  0  0  2  0  0  0  0  0  0
  187.8950  175.1680  135.6920 C   0  0  0  0  0  2  0  0  0  0  0  0
  189.2030  175.6030  137.7720 C   0  0  0  0  0  2  0  0  0  0  0  0
  188.4670  176.9260  137.9820 C   0  0  1  0  0  3  0  0  0  0  0  0
  187.1510  176.4880  135.8640 C   0  0  0  0  0  2  0  0  0  0  0  0
  187.0700  176.8730  137.3430 C   0  0  2  0  0  3  0  0  0  0  0  0
  188.3550  177.2020  139.4070 N   0  0  0  0  0  2  0  0  0  0  0  0
  190.6090  177.7640  139.6720 O   0  0  0  0  0  0  0  0  0  0  0  0
  189.4740  177.6140  140.2000 C   0  0  0  0  0  0  0  0  0  0  0  0
  188.0780  177.1520  142.1900 C   0  0  0  0  0  2  0  0  0  0  0  0
  188.9860  177.5820  144.4770 C   0  0  0  0  0  0  0  0  0  0  0  0
  190.3940  177.7430  143.9240 C   0  0  2  0  0  3  0  0  0  0  0  0
  187.9310  177.3660  143.6700 C   0  0  0  0  0  3  0  0  0  0  0  0
  190.5310  177.4190  142.4290 C   0  0  0  0  0  2  0  0  0  0  0  0
  189.3040  177.8840  141.6560 C   0  0  1  0  0  3  0  0  0  0  0  0
  191.6840  175.5830  144.1970 C   0  0  0  0  0  1  0  0  0  0  0  0
  191.4390  176.9830  144.7400 C   0  0  0  0  0  2  0  0  0  0  0  0
  188.7430  177.8030  145.9380 C   0  0  0  0  0  2  0  0  0  0  0  0
  187.3210  177.4280  146.3090 C   0  0  0  0  0  2  0  0  0  0  0  0
  186.6080  178.6420  146.8630 C   0  0  0  0  0  2  0  0  0  0  0  0
  185.1110  178.4130  146.8190 C   0  0  0  0  0  1  0  0  0  0  0  0
  186.2870  178.1790  137.5270 C   0  0  0  0  0  2  0  0  0  0  0  0
  184.9750  177.9990  138.2850 C   0  0  0  0  0  2  0  0  0  0  0  0
  184.3620  179.3430  138.6380 C   0  0  0  0  0  2  0  0  0  0  0  0
  183.7230  178.3600  140.9160 C   0  0  1  0  0  3  0  0  0  0  0  0
  182.0720  179.5470  139.7350 C   0  0  0  0  0  0  0  0  0  0  0  0
  181.3270  178.9890  140.8780 C   0  0  0  0  0  3  0  0  0  0  0  0
  182.4000  178.2580  141.6870 C   0  0  0  0  0  3  0  0  0  0  0  0
  181.3410  180.2820  138.4680 S   0  0  0  0  0  0  0  0  0  0  0  0
  183.4430  179.1900  139.7570 N   0  0  0  0  0  0  0  0  0  0  0  0
  184.5940  178.5670  143.2440 C   0  0  0  0  0  1  0  0  0  0  0  0
  184.7670  179.0150  141.8060 C   0  0  0  0  0  2  0  0  0  0  0  0
  1  3  1  0  0  0  0
  2  5  1  0  0  0  0
  2  1  1  0  0  0  0
  3  4  1  0  0  0  0
  4  7  1  1  0  0  0
  5  6  1  0  0  0  0
  6 22  1  6  0  0  0
  6  4  1  0  0  0  0
  7  9  1  0  0  0  0
  8  9  2  0  0  0  0
 10 13  1  0  0  0  0
 11 18  1  0  0  0  0
 12 11  1  0  0  0  0
 12 17  1  1  0  0  0
 13 11  2  0  0  0  0
 14 12  1  0  0  0  0
 15  9  1  6  0  0  0
 15 10  1  0  0  0  0
 15 14  1  0  0  0  0
 16 17  1  0  0  0  0
 18 19  1  0  0  0  0
 19 20  1  0  0  0  0
 21 20  1  0  0  0  0
 22 23  1  0  0  0  0
 23 24  1  0  0  0  0
 24 30  1  0  0  0  0
 25 28  1  0  0  0  0
 25 32  1  1  0  0  0
 26 30  1  0  0  0  0
 26 27  1  0  0  0  0
 27 28  2  0  0  0  0
 29 26  2  0  0  0  0
 30 25  1  0  0  0  0
 32 31  1  0  0  0  0
M  END
>  <MODEL>
8

>  <REMARK>
 VINA RESULT:      -7.5      3.323      7.809
  Name = 
  11 active torsions:
  status: ('A' for Active; 'I' for Inactive)
    1  A    between atoms: C_1  and  C_20
    2  A    between atoms: C_2  and  C_12
    3  A    between atoms: C_2  and  C_20
    4  A    between atoms: N_3  and  C_15
    5  A    between atoms: C_6  and  C_16
    6  A    between atoms: C_6  and  C_26
    7  A    between atoms: C_7  and  C_31
    8  A    between atoms: C_14  and  C_28
    9  A    between atoms: C_16  and  C_27
   10  A    between atoms: C_19  and  C_24
   11  A    between atoms: C_27  and  N_32
                            x       y       z     vdW  Elec       q    Type
                         _______ _______ _______ _____ _____    ______ ____

>  <TORSDO>
F 11

$$$$
=
 OpenBabel10262421403D

 32 34  0  0  1  0  0  0  0  0999 V2000
  181.5160  179.3790  143.1810 C   0  0  0  0  0  2  0  0  0  0  0  0
  182.1860  178.9040  144.4650 C   0  0  0  0  0  2  0  0  0  0  0  0
  182.0490  178.5840  141.9950 C   0  0  0  0  0  2  0  0  0  0  0  0
  183.5620  178.7630  141.8680 C   0  0  1  0  0  3  0  0  0  0  0  0
  183.6950  179.0990  144.3730 C   0  0  0  0  0  2  0  0  0  0  0  0
  184.2640  178.3450  143.1700 C   0  0  2  0  0  3  0  0  0  0  0  0
  184.0560  177.9640  140.7550 N   0  0  0  0  0  2  0  0  0  0  0  0
  184.5560  179.8050  139.4040 O   0  0  0  0  0  0  0  0  0  0  0  0
  184.5370  178.5530  139.5420 C   0  0  0  0  0  0  0  0  0  0  0  0
  184.0000  177.6210  137.3120 C   0  0  0  0  0  2  0  0  0  0  0  0
  185.8240  176.7070  135.8710 C   0  0  0  0  0  0  0  0  0  0  0  0
  186.8870  177.3290  136.7650 C   0  0  2  0  0  3  0  0  0  0  0  0
  184.5140  176.8030  136.1620 C   0  0  0  0  0  3  0  0  0  0  0  0
  186.3350  178.2410  137.8700 C   0  0  0  0  0  2  0  0  0  0  0  0
  185.0320  177.6880  138.4330 C   0  0  1  0  0  3  0  0  0  0  0  0
  189.0480  178.6410  136.8780 C   0  0  0  0  0  1  0  0  0  0  0  0
  187.9820  178.0410  135.9720 C   0  0  0  0  0  2  0  0  0  0  0  0
  186.2470  175.8540  134.7150 C   0  0  0  0  0  2  0  0  0  0  0  0
  187.0690  174.6720  135.1930 C   0  0  0  0  0  2  0  0  0  0  0  0
  186.1440  173.5380  135.5800 C   0  0  0  0  0  2  0  0  0  0  0  0
  186.1380  173.3810  137.0860 C   0  0  0  0  0  1  0  0  0  0  0  0
  185.7880  178.5040  143.0950 C   0  0  0  0  0  2  0  0  0  0  0  0
  186.5280  177.7920  144.2240 C   0  0  0  0  0  2  0  0  0  0  0  0
  187.5130  176.7760  143.6720 C   0  0  0  0  0  2  0  0  0  0  0  0
  189.3660  177.8970  145.0420 C   0  0  1  0  0  3  0  0  0  0  0  0
  189.7790  177.5010  142.7610 C   0  0  0  0  0  0  0  0  0  0  0  0
  190.9490  178.2950  143.1790 C   0  0  0  0  0  3  0  0  0  0  0  0
  190.7220  178.5140  144.6760 C   0  0  0  0  0  3  0  0  0  0  0  0
  189.4550  177.1470  141.1960 S   0  0  0  0  0  0  0  0  0  0  0  0
  188.8740  177.2710  143.8270 N   0  0  0  0  0  0  0  0  0  0  0  0
  188.9320  177.3200  147.4300 C   0  0  0  0  0  1  0  0  0  0  0  0
  189.5710  176.8590  146.1350 C   0  0  0  0  0  2  0  0  0  0  0  0
  1  2  1  0  0  0  0
  3  1  1  0  0  0  0
  4  7  1  6  0  0  0
  4  3  1  0  0  0  0
  4  6  1  0  0  0  0
  5  2  1  0  0  0  0
  6 22  1  6  0  0  0
  6  5  1  0  0  0  0
  8  9  2  0  0  0  0
  9  7  1  0  0  0  0
 10 15  1  0  0  0  0
 11 13  2  0  0  0  0
 11 12  1  0  0  0  0
 12 17  1  6  0  0  0
 12 14  1  0  0  0  0
 13 10  1  0  0  0  0
 14 15  1  0  0  0  0
 15  9  1  1  0  0  0
 17 16  1  0  0  0  0
 18 19  1  0  0  0  0
 18 11  1  0  0  0  0
 19 20  1  0  0  0  0
 20 21  1  0  0  0  0
 22 23  1  0  0  0  0
 24 30  1  0  0  0  0
 24 23  1  0  0  0  0
 25 32  1  1  0  0  0
 26 27  1  0  0  0  0
 26 30  1  0  0  0  0
 27 28  2  0  0  0  0
 28 25  1  0  0  0  0
 29 26  2  0  0  0  0
 30 25  1  0  0  0  0
 32 31  1  0  0  0  0
M  END
>  <MODEL>
9

>  <REMARK>
 VINA RESULT:      -7.4      2.982      7.545
  Name = 
  11 active torsions:
  status: ('A' for Active; 'I' for Inactive)
    1  A    between atoms: C_1  and  C_20
    2  A    between atoms: C_2  and  C_12
    3  A    between atoms: C_2  and  C_20
    4  A    between atoms: N_3  and  C_15
    5  A    between atoms: C_6  and  C_16
    6  A    between atoms: C_6  and  C_26
    7  A    between atoms: C_7  and  C_31
    8  A    between atoms: C_14  and  C_28
    9  A    between atoms: C_16  and  C_27
   10  A    between atoms: C_19  and  C_24
   11  A    between atoms: C_27  and  N_32
                            x       y       z     vdW  Elec       q    Type
                         _______ _______ _______ _____ _____    ______ ____

>  <TORSDO>
F 11

$$$$
