=
 OpenBabel10262419573D

 25 28  0  0  1  0  0  0  0  0999 V2000
  190.2030  177.2110  140.9900 C   0  0  2  0  0  0  0  0  0  0  0  0
  189.1440  178.2390  140.8990 C   0  0  2  0  0  3  0  0  0  0  0  0
  189.5340  177.9870  138.0480 C   0  0  2  0  0  3  0  0  0  0  0  0
  190.6370  176.5740  139.6450 C   0  0  0  0  0  2  0  0  0  0  0  0
  187.9570  177.5810  142.6750 C   0  0  1  0  0  3  0  0  0  0  0  0
  188.3050  178.7320  138.6040 C   0  0  0  0  0  2  0  0  0  0  0  0
  190.1820  176.6190  136.2230 C   0  0  0  0  0  2  0  0  0  0  0  0
  190.1140  175.7790  137.4850 C   0  0  1  0  0  3  0  0  0  0  0  0
  186.8210  178.7790  140.6880 N   0  0  0  0  0  0  0  0  0  0  0  0
  185.6210  178.5020  139.9140 C   0  0  0  0  0  1  0  0  0  0  0  0
  188.8330  176.9160  141.6030 C   0  0  2  0  0  3  0  0  0  0  0  0
  191.2900  177.5430  141.9900 C   0  0  0  0  0  1  0  0  0  0  0  0
  189.4550  177.8950  136.5470 C   0  0  0  0  0  2  0  0  0  0  0  0
  186.6270  178.1080  142.0090 C   0  0  2  0  0  3  0  0  0  0  0  0
  189.6260  176.6170  138.5780 N   0  0  2  0  0  0  0  0  0  0  0  0
  185.9790  178.9790  142.8870 O   0  0  0  0  0  1  0  0  0  0  0  0
  187.9610  178.1730  139.9790 C   0  0  2  0  0  3  0  0  0  0  0  0
  189.1670  174.6120  137.2670 C   0  0  0  0  0  2  0  0  0  0  0  0
  189.8590  173.4070  137.3900 O   0  0  0  0  0  1  0  0  0  0  0  0
  187.7290  176.7490  143.7960 O   0  0  0  0  0  0  0  0  0  0  0  0
  188.7020  177.0170  144.7740 C   0  0  0  0  0  2  0  0  0  0  0  0
  188.6700  177.1720  147.2800 C   0  0  0  0  0  0  0  0  0  0  0  0
  189.9270  176.5840  147.3570 O   0  0  0  0  0  0  0  0  0  0  0  0
  188.0750  177.5130  148.3350 O   0  0  0  0  0  1  0  0  0  0  0  0
  188.0500  177.3960  146.0160 N   0  0  0  0  0  2  0  0  0  0  0  0
  1 11  1  0  0  0  0
  1 12  1  1  0  0  0
  2  1  1  0  0  0  0
  2 11  1  0  0  0  0
  3 15  1  0  0  0  0
  3  6  1  0  0  0  0
  4  1  1  0  0  0  0
  5 20  1  0  0  0  0
  6 17  1  0  0  0  0
  7 13  1  0  0  0  0
  7  8  1  0  0  0  0
  8 15  1  0  0  0  0
  9 14  1  0  0  0  0
 10  9  1  0  0  0  0
 11  5  1  0  0  0  0
 13  3  1  0  0  0  0
 14  5  1  0  0  0  0
 14 16  1  0  0  0  0
 15  4  1  0  0  0  0
 17  9  1  0  0  0  0
 17  2  1  0  0  0  0
 18 19  1  0  0  0  0
 18  8  1  0  0  0  0
 20 21  1  0  0  0  0
 21 25  1  0  0  0  0
 22 23  2  0  0  0  0
 22 24  1  0  0  0  0
 25 22  1  0  0  0  0
M  END
>  <MODEL>
1

>  <REMARK>
 VINA RESULT:      -6.6      0.000      0.000
  Name = 
  4 active torsions:
  status: ('A' for Active; 'I' for Inactive)
    1  A    between atoms: C_6  and  O_15
    2  A    between atoms: C_8  and  C_11
    3  A    between atoms: O_15  and  C_25
    4  A    between atoms: N_21  and  C_25
                            x       y       z     vdW  Elec       q    Type
                         _______ _______ _______ _____ _____    ______ ____

>  <TORSDO>
F 4

$$$$
=
 OpenBabel10262419573D

 25 28  0  0  1  0  0  0  0  0999 V2000
  190.6670  177.0220  139.8220 C   0  0  2  0  0  0  0  0  0  0  0  0
  189.6470  178.0170  139.4270 C   0  0  2  0  0  3  0  0  0  0  0  0
  190.1240  177.0300  136.7540 C   0  0  2  0  0  3  0  0  0  0  0  0
  191.1250  176.0500  138.7040 C   0  0  0  0  0  2  0  0  0  0  0  0
  188.3800  177.8670  141.2620 C   0  0  1  0  0  3  0  0  0  0  0  0
  188.9030  177.9240  137.0500 C   0  0  0  0  0  2  0  0  0  0  0  0
  190.7860  175.2230  135.3690 C   0  0  0  0  0  2  0  0  0  0  0  0
  190.6470  174.7390  136.8010 C   0  0  1  0  0  3  0  0  0  0  0  0
  187.3530  178.5410  138.9900 N   0  0  0  0  0  0  0  0  0  0  0  0
  186.1700  178.1030  138.2640 C   0  0  0  0  0  1  0  0  0  0  0  0
  189.2690  176.9280  140.4330 C   0  0  2  0  0  3  0  0  0  0  0  0
  191.7300  177.5740  140.7470 C   0  0  0  0  0  1  0  0  0  0  0  0
  190.0920  176.5580  135.3250 C   0  0  0  0  0  2  0  0  0  0  0  0
  187.0920  178.2380  140.4300 C   0  0  2  0  0  3  0  0  0  0  0  0
  190.1510  175.8410  137.6210 N   0  0  2  0  0  0  0  0  0  0  0  0
  186.4450  179.3200  141.0280 O   0  0  0  0  0  1  0  0  0  0  0  0
  188.4940  177.7460  138.5070 C   0  0  2  0  0  3  0  0  0  0  0  0
  189.6690  173.5780  136.8500 C   0  0  0  0  0  2  0  0  0  0  0  0
  188.3700  174.0580  137.0210 O   0  0  0  0  0  1  0  0  0  0  0  0
  188.0860  177.3580  142.5490 O   0  0  0  0  0  0  0  0  0  0  0  0
  189.1210  176.4970  142.9510 C   0  0  0  0  0  2  0  0  0  0  0  0
  191.1310  176.6290  144.4510 C   0  0  0  0  0  0  0  0  0  0  0  0
  191.7520  175.6020  143.7490 O   0  0  0  0  0  0  0  0  0  0  0  0
  191.7190  177.1620  145.4270 O   0  0  0  0  0  1  0  0  0  0  0  0
  189.8350  177.0850  144.0710 N   0  0  0  0  0  2  0  0  0  0  0  0
  1 11  1  0  0  0  0
  1 12  1  1  0  0  0
  2  1  1  0  0  0  0
  2 11  1  0  0  0  0
  3  6  1  0  0  0  0
  3 15  1  0  0  0  0
  4  1  1  0  0  0  0
  5 20  1  0  0  0  0
  6 17  1  0  0  0  0
  7  8  1  0  0  0  0
  8 18  1  0  0  0  0
  8 15  1  0  0  0  0
  9 14  1  0  0  0  0
 10  9  1  0  0  0  0
 11  5  1  0  0  0  0
 13  7  1  0  0  0  0
 13  3  1  0  0  0  0
 14 16  1  0  0  0  0
 14  5  1  0  0  0  0
 15  4  1  0  0  0  0
 17  9  1  0  0  0  0
 17  2  1  0  0  0  0
 18 19  1  0  0  0  0
 20 21  1  0  0  0  0
 21 25  1  0  0  0  0
 22 24  1  0  0  0  0
 23 22  2  0  0  0  0
 25 22  1  0  0  0  0
M  END
>  <MODEL>
2

>  <REMARK>
 VINA RESULT:      -6.5      1.881      2.135
  Name = 
  4 active torsions:
  status: ('A' for Active; 'I' for Inactive)
    1  A    between atoms: C_6  and  O_15
    2  A    between atoms: C_8  and  C_11
    3  A    between atoms: O_15  and  C_25
    4  A    between atoms: N_21  and  C_25
                            x       y       z     vdW  Elec       q    Type
                         _______ _______ _______ _____ _____    ______ ____

>  <TORSDO>
F 4

$$$$
=
 OpenBabel10262419573D

 25 28  0  0  1  0  0  0  0  0999 V2000
  190.5740  177.0730  140.3580 C   0  0  2  0  0  0  0  0  0  0  0  0
  189.1230  176.9130  140.5980 C   0  0  2  0  0  3  0  0  0  0  0  0
  189.9060  176.5220  143.3510 C   0  0  2  0  0  3  0  0  0  0  0  0
  191.4610  177.1380  141.6280 C   0  0  0  0  0  2  0  0  0  0  0  0
  188.4180  178.3720  139.0580 C   0  0  1  0  0  3  0  0  0  0  0  0
  188.4290  176.7650  142.9870 C   0  0  0  0  0  2  0  0  0  0  0  0
  191.4710  176.9670  145.0760 C   0  0  0  0  0  2  0  0  0  0  0  0
  191.8010  177.8170  143.8630 C   0  0  1  0  0  3  0  0  0  0  0  0
  187.0180  177.8950  141.1760 N   0  0  0  0  0  0  0  0  0  0  0  0
  186.3540  178.7550  142.1440 C   0  0  0  0  0  1  0  0  0  0  0  0
  189.6330  178.2200  139.9870 C   0  0  2  0  0  3  0  0  0  0  0  0
  191.0890  176.2670  139.1850 C   0  0  0  0  0  1  0  0  0  0  0  0
  190.0740  176.4590  144.8460 C   0  0  0  0  0  2  0  0  0  0  0  0
  187.1380  178.6980  139.9210 C   0  0  2  0  0  3  0  0  0  0  0  0
  190.7750  177.5970  142.8460 N   0  0  2  0  0  0  0  0  0  0  0  0
  185.9930  178.5250  139.1410 O   0  0  0  0  0  1  0  0  0  0  0  0
  188.3570  177.5800  141.7020 C   0  0  2  0  0  3  0  0  0  0  0  0
  191.8270  179.2820  144.2620 C   0  0  0  0  0  2  0  0  0  0  0  0
  190.6590  179.9130  143.8320 O   0  0  0  0  0  1  0  0  0  0  0  0
  188.6360  179.2960  138.0100 O   0  0  0  0  0  0  0  0  0  0  0  0
  189.0600  178.6020  136.8640 C   0  0  0  0  0  2  0  0  0  0  0  0
  188.9360  176.1960  136.1550 C   0  0  0  0  0  0  0  0  0  0  0  0
  190.2210  176.2600  135.6290 O   0  0  0  0  0  0  0  0  0  0  0  0
  188.2880  175.1200  136.0910 O   0  0  0  0  0  1  0  0  0  0  0  0
  188.3470  177.3400  136.7690 N   0  0  0  0  0  2  0  0  0  0  0  0
  1 12  1  6  0  0  0
  1  2  1  0  0  0  0
  1  4  1  0  0  0  0
  2 17  1  0  0  0  0
  3 13  1  0  0  0  0
  4 15  1  0  0  0  0
  5 14  1  0  0  0  0
  5 11  1  0  0  0  0
  6  3  1  0  0  0  0
  8 18  1  0  0  0  0
  8  7  1  0  0  0  0
  9 17  1  0  0  0  0
  9 10  1  0  0  0  0
 11  1  1  0  0  0  0
 11  2  1  0  0  0  0
 13  7  1  0  0  0  0
 14  9  1  0  0  0  0
 15  3  1  0  0  0  0
 15  8  1  0  0  0  0
 16 14  1  0  0  0  0
 17  6  1  0  0  0  0
 19 18  1  0  0  0  0
 20  5  1  0  0  0  0
 21 20  1  0  0  0  0
 22 25  1  0  0  0  0
 23 22  2  0  0  0  0
 24 22  1  0  0  0  0
 25 21  1  0  0  0  0
M  END
>  <MODEL>
3

>  <REMARK>
 VINA RESULT:      -6.1      2.459      6.664
  Name = 
  4 active torsions:
  status: ('A' for Active; 'I' for Inactive)
    1  A    between atoms: C_6  and  O_15
    2  A    between atoms: C_8  and  C_11
    3  A    between atoms: O_15  and  C_25
    4  A    between atoms: N_21  and  C_25
                            x       y       z     vdW  Elec       q    Type
                         _______ _______ _______ _____ _____    ______ ____

>  <TORSDO>
F 4

$$$$
=
 OpenBabel10262419573D

 25 28  0  0  1  0  0  0  0  0999 V2000
  191.1840  177.1190  140.2250 C   0  0  2  0  0  0  0  0  0  0  0  0
  190.1070  178.0320  140.6660 C   0  0  2  0  0  3  0  0  0  0  0  0
  189.3770  178.0660  137.8710 C   0  0  2  0  0  3  0  0  0  0  0  0
  191.1040  176.6490  138.7500 C   0  0  0  0  0  2  0  0  0  0  0  0
  189.7480  177.1010  142.6660 C   0  0  1  0  0  3  0  0  0  0  0  0
  188.4140  178.6260  138.9360 C   0  0  0  0  0  2  0  0  0  0  0  0
  189.3560  176.9350  135.7870 C   0  0  0  0  0  2  0  0  0  0  0  0
  189.8390  175.9890  136.8710 C   0  0  1  0  0  3  0  0  0  0  0  0
  187.8540  178.3350  141.4160 N   0  0  0  0  0  0  0  0  0  0  0  0
  186.4680  177.9980  141.1260 C   0  0  0  0  0  1  0  0  0  0  0  0
  190.1820  176.6280  141.2710 C   0  0  2  0  0  3  0  0  0  0  0  0
  192.5490  177.4800  140.7720 C   0  0  0  0  0  1  0  0  0  0  0  0
  188.7290  178.0940  136.5130 C   0  0  0  0  0  2  0  0  0  0  0  0
  188.2320  177.5380  142.6220 C   0  0  2  0  0  3  0  0  0  0  0  0
  189.7580  176.6740  138.1590 N   0  0  2  0  0  0  0  0  0  0  0  0
  187.9190  178.2560  143.7770 O   0  0  0  0  0  1  0  0  0  0  0  0
  188.6670  177.9180  140.2610 C   0  0  2  0  0  3  0  0  0  0  0  0
  188.9610  174.7500  136.8890 C   0  0  0  0  0  2  0  0  0  0  0  0
  189.7550  173.6040  136.9510 O   0  0  0  0  0  1  0  0  0  0  0  0
  190.0280  176.1580  143.6830 O   0  0  0  0  0  0  0  0  0  0  0  0
  191.3220  176.3870  144.1800 C   0  0  0  0  0  2  0  0  0  0  0  0
  191.7470  176.4920  146.6530 C   0  0  0  0  0  0  0  0  0  0  0  0
  192.3490  175.2390  146.6270 O   0  0  0  0  0  0  0  0  0  0  0  0
  191.6550  177.1170  147.7400 O   0  0  0  0  0  1  0  0  0  0  0  0
  191.2370  177.0750  145.4560 N   0  0  0  0  0  2  0  0  0  0  0  0
  1  2  1  0  0  0  0
  1 12  1  1  0  0  0
  1 11  1  0  0  0  0
  2 11  1  0  0  0  0
  3 15  1  0  0  0  0
  3  6  1  0  0  0  0
  4  1  1  0  0  0  0
  5 20  1  0  0  0  0
  6 17  1  0  0  0  0
  7 13  1  0  0  0  0
  7  8  1  0  0  0  0
  8 18  1  0  0  0  0
  8 15  1  0  0  0  0
  9 14  1  0  0  0  0
 10  9  1  0  0  0  0
 11  5  1  0  0  0  0
 13  3  1  0  0  0  0
 14  5  1  0  0  0  0
 14 16  1  0  0  0  0
 15  4  1  0  0  0  0
 17  2  1  0  0  0  0
 17  9  1  0  0  0  0
 18 19  1  0  0  0  0
 20 21  1  0  0  0  0
 21 25  1  0  0  0  0
 22 24  1  0  0  0  0
 23 22  2  0  0  0  0
 25 22  1  0  0  0  0
M  END
>  <MODEL>
4

>  <REMARK>
 VINA RESULT:      -6.0      1.615      1.832
  Name = 
  4 active torsions:
  status: ('A' for Active; 'I' for Inactive)
    1  A    between atoms: C_6  and  O_15
    2  A    between atoms: C_8  and  C_11
    3  A    between atoms: O_15  and  C_25
    4  A    between atoms: N_21  and  C_25
                            x       y       z     vdW  Elec       q    Type
                         _______ _______ _______ _____ _____    ______ ____

>  <TORSDO>
F 4

$$$$
=
 OpenBabel10262419573D

 25 28  0  0  1  0  0  0  0  0999 V2000
  188.3180  177.6870  141.2700 C   0  0  2  0  0  0  0  0  0  0  0  0
  187.2350  177.2990  142.2000 C   0  0  2  0  0  3  0  0  0  0  0  0
  189.3900  176.8020  144.0570 C   0  0  2  0  0  3  0  0  0  0  0  0
  189.7360  177.7750  141.8900 C   0  0  0  0  0  2  0  0  0  0  0  0
  185.7060  178.7630  141.4790 C   0  0  1  0  0  3  0  0  0  0  0  0
  187.9320  176.8580  144.5520 C   0  0  0  0  0  2  0  0  0  0  0  0
  191.5920  177.3260  144.7660 C   0  0  0  0  0  2  0  0  0  0  0  0
  191.1570  178.3100  143.6960 C   0  0  1  0  0  3  0  0  0  0  0  0
  185.6900  177.9170  143.9200 N   0  0  0  0  0  0  0  0  0  0  0  0
  185.5760  178.5900  145.2050 C   0  0  0  0  0  1  0  0  0  0  0  0
  187.2360  178.7120  141.6110 C   0  0  2  0  0  3  0  0  0  0  0  0
  188.1920  177.0630  139.8960 C   0  0  0  0  0  1  0  0  0  0  0  0
  190.3310  176.6420  145.2220 C   0  0  0  0  0  2  0  0  0  0  0  0
  185.0600  178.8290  142.9170 C   0  0  2  0  0  3  0  0  0  0  0  0
  189.7690  178.0290  143.3380 N   0  0  2  0  0  0  0  0  0  0  0  0
  183.6930  178.5570  142.8280 O   0  0  0  0  0  1  0  0  0  0  0  0
  187.1230  177.7560  143.6240 C   0  0  2  0  0  3  0  0  0  0  0  0
  191.2750  179.7260  144.2330 C   0  0  0  0  0  2  0  0  0  0  0  0
  192.5840  179.9690  144.6530 O   0  0  0  0  0  1  0  0  0  0  0  0
  185.2590  179.7910  140.6170 O   0  0  0  0  0  0  0  0  0  0  0  0
  184.5360  179.2220  139.5550 C   0  0  0  0  0  2  0  0  0  0  0  0
  185.2470  177.7410  137.6560 C   0  0  0  0  0  0  0  0  0  0  0  0
  184.1660  176.8960  137.8780 O   0  0  0  0  0  1  0  0  0  0  0  0
  186.0550  177.4880  136.7260 O   0  0  0  0  0  0  0  0  0  0  0  0
  185.4450  178.8930  138.4710 N   0  0  0  0  0  2  0  0  0  0  0  0
  1 12  1  6  0  0  0
  1 11  1  0  0  0  0
  1  4  1  0  0  0  0
  1  2  1  0  0  0  0
  2 17  1  0  0  0  0
  3  6  1  0  0  0  0
  3 13  1  0  0  0  0
  4 15  1  0  0  0  0
  5 11  1  0  0  0  0
  5 14  1  0  0  0  0
  7 13  1  0  0  0  0
  8 18  1  0  0  0  0
  8  7  1  0  0  0  0
  9 10  1  0  0  0  0
 11  2  1  0  0  0  0
 14  9  1  0  0  0  0
 15  8  1  0  0  0  0
 15  3  1  0  0  0  0
 16 14  1  0  0  0  0
 17  9  1  0  0  0  0
 17  6  1  0  0  0  0
 18 19  1  0  0  0  0
 20  5  1  0  0  0  0
 21 20  1  0  0  0  0
 22 23  1  0  0  0  0
 22 25  1  0  0  0  0
 24 22  2  0  0  0  0
 25 21  1  0  0  0  0
M  END
>  <MODEL>
5

>  <REMARK>
 VINA RESULT:      -6.0      3.192      6.631
  Name = 
  4 active torsions:
  status: ('A' for Active; 'I' for Inactive)
    1  A    between atoms: C_6  and  O_15
    2  A    between atoms: C_8  and  C_11
    3  A    between atoms: O_15  and  C_25
    4  A    between atoms: N_21  and  C_25
                            x       y       z     vdW  Elec       q    Type
                         _______ _______ _______ _____ _____    ______ ____

>  <TORSDO>
F 4

$$$$
=
 OpenBabel10262419573D

 25 28  0  0  1  0  0  0  0  0999 V2000
  185.5000  178.6390  143.2960 C   0  0  2  0  0  0  0  0  0  0  0  0
  185.7080  179.2280  141.9550 C   0  0  2  0  0  3  0  0  0  0  0  0
  188.5040  178.7280  142.4760 C   0  0  2  0  0  3  0  0  0  0  0  0
  186.7540  178.0060  143.9510 C   0  0  0  0  0  2  0  0  0  0  0  0
  183.8290  178.4610  141.0160 C   0  0  1  0  0  3  0  0  0  0  0  0
  188.0280  179.0860  141.0550 C   0  0  0  0  0  2  0  0  0  0  0  0
  190.1370  177.4180  143.5900 C   0  0  0  0  0  2  0  0  0  0  0  0
  188.7690  176.7890  143.7790 C   0  0  1  0  0  3  0  0  0  0  0  0
  185.9350  178.9190  139.5920 N   0  0  0  0  0  0  0  0  0  0  0  0
  186.6340  178.1500  138.5730 C   0  0  0  0  0  1  0  0  0  0  0  0
  184.8190  177.9880  142.0910 C   0  0  2  0  0  3  0  0  0  0  0  0
  184.5830  179.4540  144.1820 C   0  0  0  0  0  1  0  0  0  0  0  0
  189.9760  178.4080  142.4690 C   0  0  0  0  0  2  0  0  0  0  0  0
  184.5290  178.4130  139.6030 C   0  0  2  0  0  3  0  0  0  0  0  0
  187.7920  177.5570  143.0110 N   0  0  2  0  0  0  0  0  0  0  0  0
  183.7650  179.1270  138.6790 O   0  0  0  0  0  1  0  0  0  0  0  0
  186.5810  178.6400  140.8850 C   0  0  2  0  0  3  0  0  0  0  0  0
  188.8000  175.3530  143.2850 C   0  0  0  0  0  2  0  0  0  0  0  0
  190.1010  175.0030  142.9200 O   0  0  0  0  0  1  0  0  0  0  0  0
  182.5970  177.7660  141.0540 O   0  0  0  0  0  0  0  0  0  0  0  0
  181.5530  178.6870  141.2440 C   0  0  0  0  0  2  0  0  0  0  0  0
  179.8490  178.2370  143.0320 C   0  0  0  0  0  0  0  0  0  0  0  0
  178.9340  177.7960  142.0830 O   0  0  0  0  0  0  0  0  0  0  0  0
  179.5310  178.2440  144.2490 O   0  0  0  0  0  1  0  0  0  0  0  0
  181.1460  178.6790  142.6380 N   0  0  0  0  0  2  0  0  0  0  0  0
  1  4  1  0  0  0  0
  1 12  1  1  0  0  0
  2 11  1  0  0  0  0
  2  1  1  0  0  0  0
  3 15  1  0  0  0  0
  5 20  1  0  0  0  0
  5 11  1  0  0  0  0
  6  3  1  0  0  0  0
  7  8  1  0  0  0  0
  9 14  1  0  0  0  0
  9 17  1  0  0  0  0
 10  9  1  0  0  0  0
 11  1  1  0  0  0  0
 13  3  1  0  0  0  0
 13  7  1  0  0  0  0
 14  5  1  0  0  0  0
 15  8  1  0  0  0  0
 15  4  1  0  0  0  0
 16 14  1  0  0  0  0
 17  6  1  0  0  0  0
 17  2  1  0  0  0  0
 18  8  1  0  0  0  0
 19 18  1  0  0  0  0
 20 21  1  0  0  0  0
 21 25  1  0  0  0  0
 22 24  1  0  0  0  0
 23 22  2  0  0  0  0
 25 22  1  0  0  0  0
M  END
>  <MODEL>
6

>  <REMARK>
 VINA RESULT:      -5.6      3.465      6.213
  Name = 
  4 active torsions:
  status: ('A' for Active; 'I' for Inactive)
    1  A    between atoms: C_6  and  O_15
    2  A    between atoms: C_8  and  C_11
    3  A    between atoms: O_15  and  C_25
    4  A    between atoms: N_21  and  C_25
                            x       y       z     vdW  Elec       q    Type
                         _______ _______ _______ _____ _____    ______ ____

>  <TORSDO>
F 4

$$$$
=
 OpenBabel10262419573D

 25 28  0  0  1  0  0  0  0  0999 V2000
  189.4270  175.8410  136.0110 C   0  0  2  0  0  0  0  0  0  0  0  0
  189.6450  176.8810  137.0400 C   0  0  2  0  0  3  0  0  0  0  0  0
  186.7910  177.2800  136.8390 C   0  0  2  0  0  3  0  0  0  0  0  0
  187.9460  175.5210  135.6830 C   0  0  0  0  0  2  0  0  0  0  0  0
  191.3020  175.8550  138.1340 C   0  0  1  0  0  3  0  0  0  0  0  0
  187.5850  177.9000  138.0050 C   0  0  0  0  0  2  0  0  0  0  0  0
  184.6630  176.3550  136.3510 C   0  0  0  0  0  2  0  0  0  0  0  0
  185.7040  175.2500  136.3670 C   0  0  1  0  0  3  0  0  0  0  0  0
  189.7220  177.4940  139.3530 N   0  0  0  0  0  0  0  0  0  0  0  0
  188.9900  177.4230  140.6080 C   0  0  0  0  0  1  0  0  0  0  0  0
  190.0500  175.4370  137.3490 C   0  0  2  0  0  3  0  0  0  0  0  0
  190.4000  175.9180  134.8540 C   0  0  0  0  0  1  0  0  0  0  0  0
  185.3180  177.5360  137.0150 C   0  0  0  0  0  2  0  0  0  0  0  0
  190.8670  176.5430  139.4850 C   0  0  2  0  0  3  0  0  0  0  0  0
  186.9890  175.8240  136.7580 N   0  0  2  0  0  0  0  0  0  0  0  0
  191.9620  177.2010  140.0480 O   0  0  0  0  0  1  0  0  0  0  0  0
  188.8170  177.0480  138.2810 C   0  0  2  0  0  3  0  0  0  0  0  0
  185.2920  174.1810  137.3630 C   0  0  0  0  0  2  0  0  0  0  0  0
  186.3310  173.2650  137.5360 O   0  0  0  0  0  1  0  0  0  0  0  0
  192.2190  174.7930  138.3180 O   0  0  0  0  0  0  0  0  0  0  0  0
  193.3290  174.9910  137.4780 C   0  0  0  0  0  2  0  0  0  0  0  0
  195.3330  174.4930  138.9060 C   0  0  0  0  0  0  0  0  0  0  0  0
  195.1130  173.1260  138.7800 O   0  0  0  0  0  0  0  0  0  0  0  0
  196.3070  174.9080  139.5850 O   0  0  0  0  0  1  0  0  0  0  0  0
  194.4650  175.4280  138.2710 N   0  0  0  0  0  2  0  0  0  0  0  0
  1 12  1  6  0  0  0
  1  2  1  0  0  0  0
  1 11  1  0  0  0  0
  2 11  1  0  0  0  0
  2 17  1  0  0  0  0
  3 13  1  0  0  0  0
  3  6  1  0  0  0  0
  4  1  1  0  0  0  0
  4 15  1  0  0  0  0
  5 20  1  0  0  0  0
  5 14  1  0  0  0  0
  6 17  1  0  0  0  0
  7  8  1  0  0  0  0
  7 13  1  0  0  0  0
  8 15  1  0  0  0  0
  8 18  1  0  0  0  0
  9 14  1  0  0  0  0
  9 10  1  0  0  0  0
 11  5  1  0  0  0  0
 14 16  1  0  0  0  0
 15  3  1  0  0  0  0
 17  9  1  0  0  0  0
 18 19  1  0  0  0  0
 21 25  1  0  0  0  0
 21 20  1  0  0  0  0
 22 24  1  0  0  0  0
 23 22  2  0  0  0  0
 25 22  1  0  0  0  0
M  END
>  <MODEL>
7

>  <REMARK>
 VINA RESULT:      -5.6      3.966      6.401
  Name = 
  4 active torsions:
  status: ('A' for Active; 'I' for Inactive)
    1  A    between atoms: C_6  and  O_15
    2  A    between atoms: C_8  and  C_11
    3  A    between atoms: O_15  and  C_25
    4  A    between atoms: N_21  and  C_25
                            x       y       z     vdW  Elec       q    Type
                         _______ _______ _______ _____ _____    ______ ____

>  <TORSDO>
F 4

$$$$
=
 OpenBabel10262419573D

 25 28  0  0  1  0  0  0  0  0999 V2000
  187.0260  177.9350  143.1710 C   0  0  2  0  0  0  0  0  0  0  0  0
  186.8120  177.3500  144.5130 C   0  0  2  0  0  3  0  0  0  0  0  0
  189.6430  176.7880  144.4100 C   0  0  2  0  0  3  0  0  0  0  0  0
  188.5040  178.0530  142.7180 C   0  0  0  0  0  2  0  0  0  0  0  0
  185.2250  178.7710  145.1920 C   0  0  1  0  0  3  0  0  0  0  0  0
  188.8720  176.6670  145.7390 C   0  0  0  0  0  2  0  0  0  0  0  0
  191.7810  177.3860  143.5750 C   0  0  0  0  0  2  0  0  0  0  0  0
  190.7760  178.4620  143.2090 C   0  0  1  0  0  3  0  0  0  0  0  0
  186.7960  177.6220  146.8910 N   0  0  0  0  0  0  0  0  0  0  0  0
  187.5720  178.1140  148.0180 C   0  0  0  0  0  1  0  0  0  0  0  0
  186.4620  178.8220  144.2820 C   0  0  2  0  0  3  0  0  0  0  0  0
  186.0120  177.4840  142.1420 C   0  0  0  0  0  1  0  0  0  0  0  0
  191.1130  176.5540  144.6370 C   0  0  0  0  0  2  0  0  0  0  0  0
  185.6850  178.6020  146.6920 C   0  0  2  0  0  3  0  0  0  0  0  0
  189.4870  178.1220  143.8090 N   0  0  2  0  0  0  0  0  0  0  0  0
  184.5910  178.2390  147.4780 O   0  0  0  0  0  1  0  0  0  0  0  0
  187.6760  177.6110  145.7110 C   0  0  2  0  0  3  0  0  0  0  0  0
  191.2540  179.8030  143.7390 C   0  0  0  0  0  2  0  0  0  0  0  0
  192.3440  179.6160  144.5900 O   0  0  0  0  0  1  0  0  0  0  0  0
  184.3480  179.8630  144.9950 O   0  0  0  0  0  0  0  0  0  0  0  0
  183.0750  179.3770  144.6520 C   0  0  0  0  0  2  0  0  0  0  0  0
  181.7690  178.8860  142.5650 C   0  0  0  0  0  0  0  0  0  0  0  0
  180.5900  178.7910  143.2960 O   0  0  0  0  0  1  0  0  0  0  0  0
  181.7450  178.7170  141.3190 O   0  0  0  0  0  0  0  0  0  0  0  0
  183.0030  179.1750  143.2160 N   0  0  0  0  0  2  0  0  0  0  0  0
  1 12  1  6  0  0  0
  1 11  1  0  0  0  0
  1  2  1  0  0  0  0
  2 17  1  0  0  0  0
  3 13  1  0  0  0  0
  3  6  1  0  0  0  0
  4  1  1  0  0  0  0
  4 15  1  0  0  0  0
  5 14  1  0  0  0  0
  7 13  1  0  0  0  0
  8  7  1  0  0  0  0
  8 18  1  0  0  0  0
  8 15  1  0  0  0  0
  9 10  1  0  0  0  0
 11  2  1  0  0  0  0
 11  5  1  0  0  0  0
 14  9  1  0  0  0  0
 14 16  1  0  0  0  0
 15  3  1  0  0  0  0
 17  6  1  0  0  0  0
 17  9  1  0  0  0  0
 18 19  1  0  0  0  0
 20  5  1  0  0  0  0
 21 20  1  0  0  0  0
 22 25  1  0  0  0  0
 22 23  1  0  0  0  0
 24 22  2  0  0  0  0
 25 21  1  0  0  0  0
M  END
>  <MODEL>
8

>  <REMARK>
 VINA RESULT:      -5.6      4.321      6.731
  Name = 
  4 active torsions:
  status: ('A' for Active; 'I' for Inactive)
    1  A    between atoms: C_6  and  O_15
    2  A    between atoms: C_8  and  C_11
    3  A    between atoms: O_15  and  C_25
    4  A    between atoms: N_21  and  C_25
                            x       y       z     vdW  Elec       q    Type
                         _______ _______ _______ _____ _____    ______ ____

>  <TORSDO>
F 4

$$$$
=
 OpenBabel10262419573D

 25 28  0  0  1  0  0  0  0  0999 V2000
  183.7640  178.3840  140.0840 C   0  0  2  0  0  0  0  0  0  0  0  0
  182.6280  179.3300  140.1390 C   0  0  2  0  0  3  0  0  0  0  0  0
  182.0580  178.3630  137.4780 C   0  0  2  0  0  3  0  0  0  0  0  0
  183.7880  177.4340  138.8600 C   0  0  0  0  0  2  0  0  0  0  0  0
  182.1930  179.1220  142.3220 C   0  0  1  0  0  3  0  0  0  0  0  0
  181.0140  179.1970  138.2440 C   0  0  0  0  0  2  0  0  0  0  0  0
  182.2010  176.5870  135.9130 C   0  0  0  0  0  2  0  0  0  0  0  0
  182.6590  176.0980  137.2750 C   0  0  1  0  0  3  0  0  0  0  0  0
  180.3260  179.7430  140.6480 N   0  0  0  0  0  0  0  0  0  0  0  0
  178.9740  179.2480  140.4380 C   0  0  0  0  0  1  0  0  0  0  0  0
  182.7250  178.2250  141.1940 C   0  0  2  0  0  3  0  0  0  0  0  0
  185.0800  178.9880  140.5270 C   0  0  0  0  0  1  0  0  0  0  0  0
  181.4880  177.8870  136.1680 C   0  0  0  0  0  2  0  0  0  0  0  0
  180.6660  179.4300  142.0690 C   0  0  2  0  0  3  0  0  0  0  0  0
  182.4770  177.1770  138.2430 N   0  0  2  0  0  0  0  0  0  0  0  0
  180.2590  180.4810  142.8920 O   0  0  0  0  0  1  0  0  0  0  0  0
  181.2190  179.0020  139.7420 C   0  0  2  0  0  3  0  0  0  0  0  0
  181.8310  174.8930  137.6840 C   0  0  0  0  0  2  0  0  0  0  0  0
  180.7020  175.3090  138.3910 O   0  0  0  0  0  1  0  0  0  0  0  0
  182.4520  178.6020  143.6120 O   0  0  0  0  0  0  0  0  0  0  0  0
  183.7930  178.8500  143.9480 C   0  0  0  0  0  2  0  0  0  0  0  0
  185.1050  178.6360  146.0790 C   0  0  0  0  0  0  0  0  0  0  0  0
  186.1950  178.1250  145.3850 O   0  0  0  0  0  0  0  0  0  0  0  0
  185.1710  178.7790  147.3270 O   0  0  0  0  0  1  0  0  0  0  0  0
  183.9120  179.0010  145.3880 N   0  0  0  0  0  2  0  0  0  0  0  0
  1  2  1  0  0  0  0
  1 12  1  1  0  0  0
  1 11  1  0  0  0  0
  2 11  1  0  0  0  0
  3 15  1  0  0  0  0
  3  6  1  0  0  0  0
  4  1  1  0  0  0  0
  5 20  1  0  0  0  0
  6 17  1  0  0  0  0
  7 13  1  0  0  0  0
  7  8  1  0  0  0  0
  8 18  1  0  0  0  0
  8 15  1  0  0  0  0
  9 14  1  0  0  0  0
 10  9  1  0  0  0  0
 11  5  1  0  0  0  0
 13  3  1  0  0  0  0
 14  5  1  0  0  0  0
 14 16  1  0  0  0  0
 15  4  1  0  0  0  0
 17  2  1  0  0  0  0
 17  9  1  0  0  0  0
 18 19  1  0  0  0  0
 20 21  1  0  0  0  0
 21 25  1  0  0  0  0
 22 24  1  0  0  0  0
 23 22  2  0  0  0  0
 25 22  1  0  0  0  0
M  END
>  <MODEL>
9

>  <REMARK>
 VINA RESULT:      -5.5      5.111      6.556
  Name = 
  4 active torsions:
  status: ('A' for Active; 'I' for Inactive)
    1  A    between atoms: C_6  and  O_15
    2  A    between atoms: C_8  and  C_11
    3  A    between atoms: O_15  and  C_25
    4  A    between atoms: N_21  and  C_25
                            x       y       z     vdW  Elec       q    Type
                         _______ _______ _______ _____ _____    ______ ____

>  <TORSDO>
F 4

$$$$
