=
 OpenBabel10262420573D

 28 31  0  0  1  0  0  0  0  0999 V2000
  179.5940  177.4070  142.3160 O   0  0  0  0  0  1  0  0  0  0  0  0
  182.4030  178.4100  142.7610 C   0  0  2  0  0  3  0  0  0  0  0  0
  180.8990  178.1470  144.6120 F   0  0  0  0  0  0  0  0  0  0  0  0
  180.1320  179.5060  141.1930 C   0  0  1  0  0  0  0  0  0  0  0  0
  182.6520  179.2290  141.4960 C   0  0  0  0  0  2  0  0  0  0  0  0
  180.2010  180.8710  141.4770 O   0  0  0  0  0  1  0  0  0  0  0  0
  179.9100  178.7540  142.5230 C   0  0  2  0  0  3  0  0  0  0  0  0
  178.9310  179.3080  140.2780 C   0  0  0  0  0  1  0  0  0  0  0  0
  181.1200  178.8780  143.4570 C   0  0  2  0  0  3  0  0  0  0  0  0
  181.4740  179.0910  140.5190 C   0  0  1  0  0  3  0  0  0  0  0  0
  181.5240  177.8550  139.5460 C   0  0  1  0  0  0  0  0  0  0  0  0
  182.9570  179.3410  137.9470 C   0  0  0  0  0  2  0  0  0  0  0  0
  181.8880  178.2790  138.1010 C   0  0  0  0  0  0  0  0  0  0  0  0
  183.1810  175.9980  137.7160 C   0  0  1  0  0  3  0  0  0  0  0  0
  181.5050  179.6560  137.6020 C   0  0  0  0  0  2  0  0  0  0  0  0
  182.6470  175.6040  139.0840 C   0  0  0  0  0  2  0  0  0  0  0  0
  182.5730  176.8220  140.0020 C   0  0  0  0  0  2  0  0  0  0  0  0
  183.5520  174.5010  136.7630 S   0  0  0  0  0  1  0  0  0  0  0  0
  180.2850  177.2110  139.5160 O   0  0  0  0  0  1  0  0  0  0  0  0
  181.9530  176.9950  136.8110 S   0  0  0  0  0  0  0  0  0  0  0  0
  183.4490  178.8930  145.0070 C   0  0  0  0  0  3  0  0  0  0  0  0
  184.8660  178.1470  143.1860 C   0  0  0  0  0  0  0  0  0  0  0  0
  185.8280  178.6250  145.3570 C   0  0  0  0  0  0  0  0  0  0  0  0
  183.5920  178.4820  143.6720 C   0  0  0  0  0  0  0  0  0  0  0  0
  185.9790  178.2180  144.0290 C   0  0  0  0  0  3  0  0  0  0  0  0
  185.0300  177.7510  141.8990 F   0  0  0  0  0  0  0  0  0  0  0  0
  186.9090  178.6930  146.1710 F   0  0  0  0  0  0  0  0  0  0  0  0
  184.5630  178.9630  145.8470 C   0  0  0  0  0  3  0  0  0  0  0  0
  2  9  1  0  0  0  0
  2 24  1  1  0  0  0
  4  8  1  6  0  0  0
  4  6  1  0  0  0  0
  4  7  1  0  0  0  0
  5  2  1  0  0  0  0
  7  1  1  6  0  0  0
  7  9  1  0  0  0  0
  9  3  1  1  0  0  0
 10  4  1  0  0  0  0
 10  5  1  1  0  0  0
 11 19  1  6  0  0  0
 11 17  1  0  0  0  0
 11 10  1  0  0  0  0
 12 13  1  0  0  0  0
 13 11  1  0  0  0  0
 14 18  1  6  0  0  0
 14 16  1  0  0  0  0
 15 12  1  0  0  0  0
 15 13  1  0  0  0  0
 16 17  1  0  0  0  0
 20 14  1  0  0  0  0
 20 13  1  0  0  0  0
 21 28  1  0  0  0  0
 22 24  1  0  0  0  0
 22 25  2  0  0  0  0
 23 28  2  0  0  0  0
 23 27  1  0  0  0  0
 24 21  2  0  0  0  0
 25 23  1  0  0  0  0
 26 22  1  0  0  0  0
M  END
>  <MODEL>
1

>  <REMARK>
 VINA RESULT:      -7.1      0.000      0.000
  Name = 
  2 active torsions:
  status: ('A' for Active; 'I' for Inactive)
    1  A    between atoms: C_1  and  C_27
    2  A    between atoms: C_10  and  C_13
                            x       y       z     vdW  Elec       q    Type
                         _______ _______ _______ _____ _____    ______ ____

>  <TORSDO>
F 2

$$$$
=
 OpenBabel10262420573D

 28 31  0  0  1  0  0  0  0  0999 V2000
  187.6460  179.4520  136.6590 O   0  0  0  0  0  1  0  0  0  0  0  0
  188.3520  177.6160  138.9460 C   0  0  2  0  0  3  0  0  0  0  0  0
  189.4260  179.7510  138.7240 F   0  0  0  0  0  0  0  0  0  0  0  0
  188.5870  177.2980  136.0020 C   0  0  1  0  0  0  0  0  0  0  0  0
  188.2270  176.2390  138.2980 C   0  0  0  0  0  2  0  0  0  0  0  0
  189.8350  176.6850  135.8650 O   0  0  0  0  0  1  0  0  0  0  0  0
  188.8020  178.6640  136.6890 C   0  0  2  0  0  3  0  0  0  0  0  0
  188.0420  177.5040  134.5960 C   0  0  0  0  0  1  0  0  0  0  0  0
  189.2980  178.5060  138.1310 C   0  0  2  0  0  3  0  0  0  0  0  0
  187.6890  176.3610  136.8630 C   0  0  1  0  0  3  0  0  0  0  0  0
  186.1230  176.4060  136.7130 C   0  0  1  0  0  0  0  0  0  0  0  0
  186.1330  173.8430  137.2130 C   0  0  0  0  0  2  0  0  0  0  0  0
  185.5320  175.0000  136.4400 C   0  0  0  0  0  0  0  0  0  0  0  0
  183.3400  175.6150  137.7960 C   0  0  1  0  0  3  0  0  0  0  0  0
  186.3620  173.9650  135.7100 C   0  0  0  0  0  2  0  0  0  0  0  0
  183.9290  177.0140  137.8800 C   0  0  0  0  0  2  0  0  0  0  0  0
  185.4510  176.9490  137.9890 C   0  0  0  0  0  2  0  0  0  0  0  0
  181.5390  175.7100  137.9840 S   0  0  0  0  0  1  0  0  0  0  0  0
  185.7620  177.2470  135.6570 O   0  0  0  0  0  1  0  0  0  0  0  0
  183.7350  174.8480  136.1910 S   0  0  0  0  0  0  0  0  0  0  0  0
  189.9980  176.8310  140.6910 C   0  0  0  0  0  3  0  0  0  0  0  0
  188.0010  178.0070  141.4030 C   0  0  0  0  0  0  0  0  0  0  0  0
  189.6050  177.2340  143.0440 C   0  0  0  0  0  0  0  0  0  0  0  0
  188.7970  177.4840  140.3720 C   0  0  0  0  0  0  0  0  0  0  0  0
  188.4060  177.8820  142.7340 C   0  0  0  0  0  3  0  0  0  0  0  0
  186.8330  178.6380  141.1190 F   0  0  0  0  0  0  0  0  0  0  0  0
  189.9950  177.1140  144.3360 F   0  0  0  0  0  0  0  0  0  0  0  0
  190.4010  176.7080  142.0230 C   0  0  0  0  0  3  0  0  0  0  0  0
  2 24  1  1  0  0  0
  4  8  1  6  0  0  0
  4  7  1  0  0  0  0
  4 10  1  0  0  0  0
  5  2  1  0  0  0  0
  6  4  1  0  0  0  0
  7  1  1  1  0  0  0
  7  9  1  0  0  0  0
  9  3  1  1  0  0  0
  9  2  1  0  0  0  0
 10  5  1  1  0  0  0
 11 19  1  6  0  0  0
 11 10  1  0  0  0  0
 11 17  1  0  0  0  0
 13 11  1  0  0  0  0
 13 12  1  0  0  0  0
 14 16  1  0  0  0  0
 14 18  1  6  0  0  0
 15 13  1  0  0  0  0
 15 12  1  0  0  0  0
 16 17  1  0  0  0  0
 20 13  1  0  0  0  0
 20 14  1  0  0  0  0
 21 28  1  0  0  0  0
 22 25  2  0  0  0  0
 23 27  1  0  0  0  0
 24 21  2  0  0  0  0
 24 22  1  0  0  0  0
 25 23  1  0  0  0  0
 26 22  1  0  0  0  0
 28 23  2  0  0  0  0
M  END
>  <MODEL>
2

>  <REMARK>
 VINA RESULT:      -6.6      4.880      7.072
  Name = 
  2 active torsions:
  status: ('A' for Active; 'I' for Inactive)
    1  A    between atoms: C_1  and  C_27
    2  A    between atoms: C_10  and  C_13
                            x       y       z     vdW  Elec       q    Type
                         _______ _______ _______ _____ _____    ______ ____

>  <TORSDO>
F 2

$$$$
=
 OpenBabel10262420573D

 28 31  0  0  1  0  0  0  0  0999 V2000
  186.4150  177.6210  138.7590 O   0  0  0  0  0  1  0  0  0  0  0  0
  189.1020  177.2670  140.0820 C   0  0  2  0  0  3  0  0  0  0  0  0
  187.3540  178.4850  141.1860 F   0  0  0  0  0  0  0  0  0  0  0  0
  188.2980  178.5950  137.5500 C   0  0  1  0  0  0  0  0  0  0  0  0
  190.0520  177.3080  138.8870 C   0  0  0  0  0  2  0  0  0  0  0  0
  189.0760  179.7550  137.5590 O   0  0  0  0  0  1  0  0  0  0  0  0
  187.3930  178.6200  138.8010 C   0  0  2  0  0  3  0  0  0  0  0  0
  187.4440  178.6490  136.2900 C   0  0  0  0  0  1  0  0  0  0  0  0
  188.2070  178.5120  140.0960 C   0  0  2  0  0  3  0  0  0  0  0  0
  189.2640  177.3730  137.5690 C   0  0  1  0  0  3  0  0  0  0  0  0
  188.8090  175.9930  136.9660 C   0  0  1  0  0  0  0  0  0  0  0  0
  190.6240  176.3500  135.1230 C   0  0  0  0  0  2  0  0  0  0  0  0
  189.2440  175.8430  135.4870 C   0  0  0  0  0  0  0  0  0  0  0  0
  189.5760  173.2330  135.8080 C   0  0  1  0  0  3  0  0  0  0  0  0
  189.3810  177.0730  134.6150 C   0  0  0  0  0  2  0  0  0  0  0  0
  188.9920  173.4520  137.1950 C   0  0  0  0  0  2  0  0  0  0  0  0
  189.4160  174.8110  137.7470 C   0  0  0  0  0  2  0  0  0  0  0  0
  189.3220  171.5070  135.3150 S   0  0  0  0  0  1  0  0  0  0  0  0
  187.4190  175.8710  137.0300 O   0  0  0  0  0  1  0  0  0  0  0  0
  188.7720  174.3270  134.5940 S   0  0  0  0  0  0  0  0  0  0  0  0
  191.2370  177.4550  141.4170 C   0  0  0  0  0  3  0  0  0  0  0  0
  189.2350  176.6280  142.5080 C   0  0  0  0  0  0  0  0  0  0  0  0
  191.3050  176.8220  143.7510 C   0  0  0  0  0  0  0  0  0  0  0  0
  189.8740  177.1190  141.3590 C   0  0  0  0  0  0  0  0  0  0  0  0
  189.9500  176.4820  143.7000 C   0  0  0  0  0  3  0  0  0  0  0  0
  187.9210  176.2920  142.4760 F   0  0  0  0  0  0  0  0  0  0  0  0
  191.9950  176.6780  144.9080 F   0  0  0  0  0  0  0  0  0  0  0  0
  191.9480  177.3070  142.6100 C   0  0  0  0  0  3  0  0  0  0  0  0
  2  9  1  0  0  0  0
  2 24  1  1  0  0  0
  4  8  1  6  0  0  0
  4  6  1  0  0  0  0
  4 10  1  0  0  0  0
  4  7  1  0  0  0  0
  5  2  1  0  0  0  0
  7  1  1  6  0  0  0
  7  9  1  0  0  0  0
  9  3  1  1  0  0  0
 10  5  1  1  0  0  0
 11 19  1  1  0  0  0
 11 10  1  0  0  0  0
 11 17  1  0  0  0  0
 12 13  1  0  0  0  0
 13 11  1  0  0  0  0
 14 18  1  6  0  0  0
 14 16  1  0  0  0  0
 15 12  1  0  0  0  0
 15 13  1  0  0  0  0
 16 17  1  0  0  0  0
 20 13  1  0  0  0  0
 20 14  1  0  0  0  0
 21 28  1  0  0  0  0
 22 25  2  0  0  0  0
 23 27  1  0  0  0  0
 24 21  2  0  0  0  0
 24 22  1  0  0  0  0
 25 23  1  0  0  0  0
 26 22  1  0  0  0  0
 28 23  2  0  0  0  0
M  END
>  <MODEL>
3

>  <REMARK>
 VINA RESULT:      -6.1      6.227      7.585
  Name = 
  2 active torsions:
  status: ('A' for Active; 'I' for Inactive)
    1  A    between atoms: C_1  and  C_27
    2  A    between atoms: C_10  and  C_13
                            x       y       z     vdW  Elec       q    Type
                         _______ _______ _______ _____ _____    ______ ____

>  <TORSDO>
F 2

$$$$
=
 OpenBabel10262420573D

 28 31  0  0  1  0  0  0  0  0999 V2000
  188.0790  178.6040  136.1600 O   0  0  0  0  0  1  0  0  0  0  0  0
  188.6940  177.3390  138.8280 C   0  0  2  0  0  3  0  0  0  0  0  0
  189.1330  179.6690  138.4560 F   0  0  0  0  0  0  0  0  0  0  0  0
  189.7280  176.8060  136.0950 C   0  0  1  0  0  0  0  0  0  0  0  0
  189.1310  175.9340  138.4200 C   0  0  0  0  0  2  0  0  0  0  0  0
  191.0920  176.6120  136.3230 O   0  0  0  0  0  1  0  0  0  0  0  0
  189.3660  178.2330  136.5600 C   0  0  2  0  0  3  0  0  0  0  0  0
  189.5100  176.6790  134.5940 C   0  0  0  0  0  1  0  0  0  0  0  0
  189.5160  178.3940  138.0780 C   0  0  2  0  0  3  0  0  0  0  0  0
  188.9510  175.7270  136.9080 C   0  0  1  0  0  3  0  0  0  0  0  0
  187.5250  175.2550  136.4390 C   0  0  1  0  0  0  0  0  0  0  0  0
  188.3520  172.8090  136.8310 C   0  0  0  0  0  2  0  0  0  0  0  0
  187.5300  173.7700  135.9960 C   0  0  0  0  0  0  0  0  0  0  0  0
  185.0560  173.4540  136.8920 C   0  0  1  0  0  3  0  0  0  0  0  0
  188.7890  173.1640  135.4130 C   0  0  0  0  0  2  0  0  0  0  0  0
  185.0870  174.9530  137.1500 C   0  0  0  0  0  2  0  0  0  0  0  0
  186.4860  175.3960  137.5680 C   0  0  0  0  0  2  0  0  0  0  0  0
  183.3360  172.9130  136.7070 S   0  0  0  0  0  1  0  0  0  0  0  0
  187.0860  176.0320  135.3640 O   0  0  0  0  0  1  0  0  0  0  0  0
  185.9790  173.0450  135.3750 S   0  0  0  0  0  0  0  0  0  0  0  0
  187.6930  177.9610  141.0610 C   0  0  0  0  0  3  0  0  0  0  0  0
  189.9990  177.2160  140.9710 C   0  0  0  0  0  0  0  0  0  0  0  0
  189.0010  177.8260  143.0920 C   0  0  0  0  0  0  0  0  0  0  0  0
  188.7920  177.5060  140.3150 C   0  0  0  0  0  0  0  0  0  0  0  0
  190.1000  177.3760  142.3560 C   0  0  0  0  0  3  0  0  0  0  0  0
  191.0770  176.7800  140.2710 F   0  0  0  0  0  0  0  0  0  0  0  0
  189.1020  177.9800  144.4340 F   0  0  0  0  0  0  0  0  0  0  0  0
  187.7970  178.1190  142.4450 C   0  0  0  0  0  3  0  0  0  0  0  0
  2 24  1  1  0  0  0
  4  8  1  6  0  0  0
  4  6  1  0  0  0  0
  4  7  1  0  0  0  0
  4 10  1  0  0  0  0
  5  2  1  0  0  0  0
  7  1  1  1  0  0  0
  7  9  1  0  0  0  0
  9  3  1  1  0  0  0
  9  2  1  0  0  0  0
 10  5  1  1  0  0  0
 11 19  1  6  0  0  0
 11 10  1  0  0  0  0
 11 17  1  0  0  0  0
 13 11  1  0  0  0  0
 13 12  1  0  0  0  0
 14 18  1  6  0  0  0
 14 16  1  0  0  0  0
 15 13  1  0  0  0  0
 15 12  1  0  0  0  0
 16 17  1  0  0  0  0
 20 13  1  0  0  0  0
 20 14  1  0  0  0  0
 21 28  1  0  0  0  0
 22 25  2  0  0  0  0
 23 27  1  0  0  0  0
 24 22  1  0  0  0  0
 24 21  2  0  0  0  0
 25 23  1  0  0  0  0
 26 22  1  0  0  0  0
 28 23  2  0  0  0  0
M  END
>  <MODEL>
4

>  <REMARK>
 VINA RESULT:      -5.9      5.843      7.846
  Name = 
  2 active torsions:
  status: ('A' for Active; 'I' for Inactive)
    1  A    between atoms: C_1  and  C_27
    2  A    between atoms: C_10  and  C_13
                            x       y       z     vdW  Elec       q    Type
                         _______ _______ _______ _____ _____    ______ ____

>  <TORSDO>
F 2

$$$$
=
 OpenBabel10262420573D

 28 31  0  0  1  0  0  0  0  0999 V2000
  178.9310  178.5980  141.1660 O   0  0  0  0  0  1  0  0  0  0  0  0
  181.9010  178.6900  141.6790 C   0  0  2  0  0  3  0  0  0  0  0  0
  180.3580  179.5410  143.3090 F   0  0  0  0  0  0  0  0  0  0  0  0
  180.2140  179.9300  139.5730 C   0  0  1  0  0  0  0  0  0  0  0  0
  182.4580  178.9370  140.2790 C   0  0  0  0  0  2  0  0  0  0  0  0
  180.7630  181.2090  139.4630 O   0  0  0  0  0  1  0  0  0  0  0  0
  179.7040  179.7540  141.0210 C   0  0  2  0  0  3  0  0  0  0  0  0
  179.0440  179.8680  138.6000 C   0  0  0  0  0  1  0  0  0  0  0  0
  180.8550  179.7530  142.0340 C   0  0  2  0  0  3  0  0  0  0  0  0
  181.3330  178.9000  139.2340 C   0  0  1  0  0  3  0  0  0  0  0  0
  180.9590  177.4800  138.6690 C   0  0  1  0  0  0  0  0  0  0  0  0
  182.6710  177.9370  136.7510 C   0  0  0  0  0  2  0  0  0  0  0  0
  181.3460  177.3360  137.1760 C   0  0  0  0  0  0  0  0  0  0  0  0
  181.8830  174.7640  137.5220 C   0  0  1  0  0  3  0  0  0  0  0  0
  181.3590  178.5580  136.2820 C   0  0  0  0  0  2  0  0  0  0  0  0
  181.3370  174.9630  138.9280 C   0  0  0  0  0  2  0  0  0  0  0  0
  181.6800  176.3590  139.4430 C   0  0  0  0  0  2  0  0  0  0  0  0
  181.7390  173.0160  137.0650 S   0  0  0  0  0  1  0  0  0  0  0  0
  179.5850  177.2570  138.7890 O   0  0  0  0  0  1  0  0  0  0  0  0
  180.9540  175.7750  136.3240 S   0  0  0  0  0  0  0  0  0  0  0  0
  182.7680  178.9070  144.0410 C   0  0  0  0  0  3  0  0  0  0  0  0
  184.3200  178.3440  142.2650 C   0  0  0  0  0  0  0  0  0  0  0  0
  185.1100  178.5660  144.5440 C   0  0  0  0  0  0  0  0  0  0  0  0
  183.0140  178.6430  142.6840 C   0  0  0  0  0  0  0  0  0  0  0  0
  185.3630  178.3050  143.1940 C   0  0  0  0  0  3  0  0  0  0  0  0
  184.5840  178.0900  140.9580 F   0  0  0  0  0  0  0  0  0  0  0  0
  186.1230  178.5270  145.4420 F   0  0  0  0  0  0  0  0  0  0  0  0
  183.8130  178.8670  144.9670 C   0  0  0  0  0  3  0  0  0  0  0  0
  2  9  1  0  0  0  0
  2 24  1  1  0  0  0
  4  8  1  6  0  0  0
  4  7  1  0  0  0  0
  5  2  1  0  0  0  0
  6  4  1  0  0  0  0
  7  1  1  6  0  0  0
  7  9  1  0  0  0  0
  9  3  1  1  0  0  0
 10  4  1  0  0  0  0
 10  5  1  1  0  0  0
 11 19  1  1  0  0  0
 11 10  1  0  0  0  0
 11 17  1  0  0  0  0
 12 13  1  0  0  0  0
 13 11  1  0  0  0  0
 14 18  1  6  0  0  0
 14 16  1  0  0  0  0
 15 12  1  0  0  0  0
 15 13  1  0  0  0  0
 16 17  1  0  0  0  0
 20 13  1  0  0  0  0
 20 14  1  0  0  0  0
 21 28  1  0  0  0  0
 22 24  1  0  0  0  0
 22 25  2  0  0  0  0
 23 28  2  0  0  0  0
 23 27  1  0  0  0  0
 24 21  2  0  0  0  0
 25 23  1  0  0  0  0
 26 22  1  0  0  0  0
M  END
>  <MODEL>
5

>  <REMARK>
 VINA RESULT:      -5.8      1.381      1.514
  Name = 
  2 active torsions:
  status: ('A' for Active; 'I' for Inactive)
    1  A    between atoms: C_1  and  C_27
    2  A    between atoms: C_10  and  C_13
                            x       y       z     vdW  Elec       q    Type
                         _______ _______ _______ _____ _____    ______ ____

>  <TORSDO>
F 2

$$$$
=
 OpenBabel10262420573D

 28 31  0  0  1  0  0  0  0  0999 V2000
  181.1850  178.8960  141.1880 O   0  0  0  0  0  1  0  0  0  0  0  0
  180.9700  180.5850  138.6990 C   0  0  2  0  0  3  0  0  0  0  0  0
  179.8380  181.2360  140.7120 F   0  0  0  0  0  0  0  0  0  0  0  0
  180.1700  177.7820  139.2680 C   0  0  1  0  0  0  0  0  0  0  0  0
  180.9900  179.5300  137.5960 C   0  0  0  0  0  2  0  0  0  0  0  0
  178.9310  177.6890  138.6320 O   0  0  0  0  0  1  0  0  0  0  0  0
  180.0710  178.8870  140.3420 C   0  0  2  0  0  3  0  0  0  0  0  0
  180.4270  176.4350  139.9300 C   0  0  0  0  0  1  0  0  0  0  0  0
  179.8680  180.2730  139.7180 C   0  0  2  0  0  3  0  0  0  0  0  0
  181.2350  178.1320  138.1860 C   0  0  1  0  0  3  0  0  0  0  0  0
  182.7410  177.7230  138.3940 C   0  0  1  0  0  0  0  0  0  0  0  0
  182.8810  177.4280  135.8030 C   0  0  0  0  0  2  0  0  0  0  0  0
  183.2960  176.9420  137.1770 C   0  0  0  0  0  0  0  0  0  0  0  0
  185.6970  178.0030  137.5410 C   0  0  1  0  0  3  0  0  0  0  0  0
  182.3620  176.0970  136.3370 C   0  0  0  0  0  2  0  0  0  0  0  0
  185.1060  178.6050  138.8070 C   0  0  0  0  0  2  0  0  0  0  0  0
  183.6370  178.9610  138.5950 C   0  0  0  0  0  2  0  0  0  0  0  0
  187.4980  177.8840  137.7180 S   0  0  0  0  0  1  0  0  0  0  0  0
  182.8720  176.9200  139.5290 O   0  0  0  0  0  1  0  0  0  0  0  0
  185.0130  176.3400  137.2430 S   0  0  0  0  0  0  0  0  0  0  0  0
  179.6070  182.3440  137.5060 C   0  0  0  0  0  3  0  0  0  0  0  0
  181.8890  182.8580  138.1460 C   0  0  0  0  0  0  0  0  0  0  0  0
  180.5460  184.5150  136.9970 C   0  0  0  0  0  0  0  0  0  0  0  0
  180.8140  181.9550  138.1080 C   0  0  0  0  0  0  0  0  0  0  0  0
  181.7520  184.1340  137.5920 C   0  0  0  0  0  3  0  0  0  0  0  0
  183.0670  182.5040  138.7190 F   0  0  0  0  0  0  0  0  0  0  0  0
  180.4180  185.7520  136.4620 F   0  0  0  0  0  0  0  0  0  0  0  0
  179.4740  183.6200  136.9540 C   0  0  0  0  0  3  0  0  0  0  0  0
  2 24  1  6  0  0  0
  2  9  1  0  0  0  0
  4  8  1  1  0  0  0
  4  7  1  0  0  0  0
  5  2  1  0  0  0  0
  6  4  1  0  0  0  0
  7  1  1  6  0  0  0
  9  7  1  0  0  0  0
  9  3  1  1  0  0  0
 10  5  1  1  0  0  0
 10 11  1  0  0  0  0
 10  4  1  0  0  0  0
 11 17  1  0  0  0  0
 11 19  1  1  0  0  0
 12 15  1  0  0  0  0
 12 13  1  0  0  0  0
 13 20  1  0  0  0  0
 13 11  1  0  0  0  0
 14 18  1  1  0  0  0
 14 16  1  0  0  0  0
 15 13  1  0  0  0  0
 17 16  1  0  0  0  0
 20 14  1  0  0  0  0
 21 24  1  0  0  0  0
 22 26  1  0  0  0  0
 23 25  2  0  0  0  0
 24 22  2  0  0  0  0
 25 22  1  0  0  0  0
 27 23  1  0  0  0  0
 28 23  1  0  0  0  0
 28 21  2  0  0  0  0
M  END
>  <MODEL>
6

>  <REMARK>
 VINA RESULT:      -5.8      3.909      6.018
  Name = 
  2 active torsions:
  status: ('A' for Active; 'I' for Inactive)
    1  A    between atoms: C_1  and  C_27
    2  A    between atoms: C_10  and  C_13
                            x       y       z     vdW  Elec       q    Type
                         _______ _______ _______ _____ _____    ______ ____

>  <TORSDO>
F 2

$$$$
=
 OpenBabel10262420573D

 28 31  0  0  1  0  0  0  0  0999 V2000
  187.8240  177.5660  134.6530 O   0  0  0  0  0  1  0  0  0  0  0  0
  186.7040  175.3440  136.3570 C   0  0  2  0  0  3  0  0  0  0  0  0
  185.3810  176.3230  134.6100 F   0  0  0  0  0  0  0  0  0  0  0  0
  187.6580  178.0740  137.0340 C   0  0  1  0  0  0  0  0  0  0  0  0
  187.3400  175.6330  137.7140 C   0  0  0  0  0  2  0  0  0  0  0  0
  186.7050  178.5030  137.9610 O   0  0  0  0  0  1  0  0  0  0  0  0
  186.9280  177.7770  135.7060 C   0  0  2  0  0  3  0  0  0  0  0  0
  188.6350  179.2260  136.8430 C   0  0  0  0  0  1  0  0  0  0  0  0
  185.9720  176.5860  135.8340 C   0  0  2  0  0  3  0  0  0  0  0  0
  188.3390  176.7960  137.6090 C   0  0  1  0  0  3  0  0  0  0  0  0
  189.8030  176.4150  137.1750 C   0  0  1  0  0  0  0  0  0  0  0  0
  190.4070  176.3850  139.7150 C   0  0  0  0  0  2  0  0  0  0  0  0
  190.8290  176.7110  138.2970 C   0  0  0  0  0  0  0  0  0  0  0  0
  192.2930  174.6270  137.5610 C   0  0  1  0  0  3  0  0  0  0  0  0
  190.5690  177.8360  139.2760 C   0  0  0  0  0  2  0  0  0  0  0  0
  191.3210  174.5080  136.3980 C   0  0  0  0  0  2  0  0  0  0  0  0
  189.9150  174.9170  136.8310 C   0  0  0  0  0  2  0  0  0  0  0  0
  193.8660  173.8460  137.1110 S   0  0  0  0  0  1  0  0  0  0  0  0
  190.1750  177.1360  136.0380 O   0  0  0  0  0  1  0  0  0  0  0  0
  192.5900  176.3780  137.9710 S   0  0  0  0  0  0  0  0  0  0  0  0
  184.5700  174.2390  137.1300 C   0  0  0  0  0  3  0  0  0  0  0  0
  186.1730  172.9400  135.8570 C   0  0  0  0  0  0  0  0  0  0  0  0
  184.1140  171.9180  136.6220 C   0  0  0  0  0  0  0  0  0  0  0  0
  185.7950  174.1550  136.4480 C   0  0  0  0  0  0  0  0  0  0  0  0
  185.3330  171.8260  135.9450 C   0  0  0  0  0  3  0  0  0  0  0  0
  187.3540  172.8320  135.1970 F   0  0  0  0  0  0  0  0  0  0  0  0
  183.3030  170.8370  136.7040 F   0  0  0  0  0  0  0  0  0  0  0  0
  183.7330  173.1240  137.2150 C   0  0  0  0  0  3  0  0  0  0  0  0
  2 24  1  1  0  0  0
  2  5  1  0  0  0  0
  4  8  1  6  0  0  0
  4 10  1  0  0  0  0
  4  6  1  0  0  0  0
  7  1  1  6  0  0  0
  7  9  1  0  0  0  0
  7  4  1  0  0  0  0
  9  3  1  6  0  0  0
  9  2  1  0  0  0  0
 10  5  1  6  0  0  0
 11 19  1  6  0  0  0
 11 10  1  0  0  0  0
 11 13  1  0  0  0  0
 13 15  1  0  0  0  0
 13 12  1  0  0  0  0
 14 18  1  6  0  0  0
 14 20  1  0  0  0  0
 15 12  1  0  0  0  0
 16 17  1  0  0  0  0
 16 14  1  0  0  0  0
 17 11  1  0  0  0  0
 20 13  1  0  0  0  0
 21 28  1  0  0  0  0
 22 25  2  0  0  0  0
 22 24  1  0  0  0  0
 23 27  1  0  0  0  0
 23 28  2  0  0  0  0
 24 21  2  0  0  0  0
 25 23  1  0  0  0  0
 26 22  1  0  0  0  0
M  END
>  <MODEL>
7

>  <REMARK>
 VINA RESULT:      -5.7      7.592      9.560
  Name = 
  2 active torsions:
  status: ('A' for Active; 'I' for Inactive)
    1  A    between atoms: C_1  and  C_27
    2  A    between atoms: C_10  and  C_13
                            x       y       z     vdW  Elec       q    Type
                         _______ _______ _______ _____ _____    ______ ____

>  <TORSDO>
F 2

$$$$
=
 OpenBabel10262420573D

 28 31  0  0  1  0  0  0  0  0999 V2000
  184.1870  177.6650  141.2770 O   0  0  0  0  0  1  0  0  0  0  0  0
  186.2550  177.7050  139.0820 C   0  0  2  0  0  3  0  0  0  0  0  0
  186.8650  178.2530  141.3380 F   0  0  0  0  0  0  0  0  0  0  0  0
  183.7560  179.2610  139.4810 C   0  0  1  0  0  0  0  0  0  0  0  0
  185.4390  178.1910  137.8860 C   0  0  0  0  0  2  0  0  0  0  0  0
  184.1380  180.5470  139.0940 O   0  0  0  0  0  1  0  0  0  0  0  0
  184.6460  178.8390  140.6710 C   0  0  2  0  0  3  0  0  0  0  0  0
  182.3030  179.3490  139.9270 C   0  0  0  0  0  1  0  0  0  0  0  0
  186.1140  178.6820  140.2570 C   0  0  2  0  0  3  0  0  0  0  0  0
  183.9530  178.3160  138.2580 C   0  0  1  0  0  3  0  0  0  0  0  0
  183.0920  177.0060  138.1200 C   0  0  1  0  0  0  0  0  0  0  0  0
  182.3840  177.8780  135.7630 C   0  0  0  0  0  2  0  0  0  0  0  0
  181.9960  177.1520  137.0350 C   0  0  0  0  0  0  0  0  0  0  0  0
  182.2170  174.5860  136.4110 C   0  0  1  0  0  3  0  0  0  0  0  0
  181.4040  178.5150  136.7430 C   0  0  0  0  0  2  0  0  0  0  0  0
  183.1660  174.5040  137.5970 C   0  0  0  0  0  2  0  0  0  0  0  0
  183.9660  175.7970  137.7340 C   0  0  0  0  0  2  0  0  0  0  0  0
  181.5200  172.9450  136.0860 S   0  0  0  0  0  1  0  0  0  0  0  0
  182.4710  176.7050  139.3350 O   0  0  0  0  0  1  0  0  0  0  0  0
  180.8620  175.7550  136.7550 S   0  0  0  0  0  0  0  0  0  0  0  0
  188.6680  178.4460  139.0440 C   0  0  0  0  0  3  0  0  0  0  0  0
  188.0570  176.3690  137.9510 C   0  0  0  0  0  0  0  0  0  0  0  0
  190.3600  177.1190  137.9360 C   0  0  0  0  0  0  0  0  0  0  0  0
  187.6880  177.5040  138.6900 C   0  0  0  0  0  0  0  0  0  0  0  0
  189.3900  176.1790  137.5770 C   0  0  0  0  0  3  0  0  0  0  0  0
  187.1280  175.4480  137.5930 F   0  0  0  0  0  0  0  0  0  0  0  0
  191.6520  176.9310  137.5710 F   0  0  0  0  0  0  0  0  0  0  0  0
  190.0000  178.2530  138.6690 C   0  0  0  0  0  3  0  0  0  0  0  0
  2 24  1  6  0  0  0
  2  9  1  0  0  0  0
  4  8  1  1  0  0  0
  4  7  1  0  0  0  0
  5  2  1  0  0  0  0
  6  4  1  0  0  0  0
  7  1  1  6  0  0  0
  9  7  1  0  0  0  0
  9  3  1  1  0  0  0
 10  5  1  1  0  0  0
 10  4  1  0  0  0  0
 11 10  1  0  0  0  0
 11 19  1  1  0  0  0
 12 15  1  0  0  0  0
 12 13  1  0  0  0  0
 13 11  1  0  0  0  0
 14 18  1  1  0  0  0
 14 20  1  0  0  0  0
 14 16  1  0  0  0  0
 15 13  1  0  0  0  0
 16 17  1  0  0  0  0
 17 11  1  0  0  0  0
 20 13  1  0  0  0  0
 22 24  2  0  0  0  0
 23 28  1  0  0  0  0
 24 21  1  0  0  0  0
 25 23  2  0  0  0  0
 25 22  1  0  0  0  0
 26 22  1  0  0  0  0
 27 23  1  0  0  0  0
 28 21  2  0  0  0  0
M  END
>  <MODEL>
8

>  <REMARK>
 VINA RESULT:      -5.5      3.909      5.279
  Name = 
  2 active torsions:
  status: ('A' for Active; 'I' for Inactive)
    1  A    between atoms: C_1  and  C_27
    2  A    between atoms: C_10  and  C_13
                            x       y       z     vdW  Elec       q    Type
                         _______ _______ _______ _____ _____    ______ ____

>  <TORSDO>
F 2

$$$$
=
 OpenBabel10262420573D

 28 31  0  0  1  0  0  0  0  0999 V2000
  183.9940  174.9670  138.0120 O   0  0  0  0  0  1  0  0  0  0  0  0
  184.1910  177.4010  139.7820 C   0  0  2  0  0  3  0  0  0  0  0  0
  182.3650  175.8630  140.0270 F   0  0  0  0  0  0  0  0  0  0  0  0
  183.9200  177.1060  136.8390 C   0  0  1  0  0  0  0  0  0  0  0  0
  184.7990  178.4340  138.8350 C   0  0  0  0  0  2  0  0  0  0  0  0
  183.0000  178.1070  136.5200 O   0  0  0  0  0  1  0  0  0  0  0  0
  183.2370  176.1260  137.8180 C   0  0  2  0  0  3  0  0  0  0  0  0
  184.2580  176.3890  135.5390 C   0  0  0  0  0  1  0  0  0  0  0  0
  182.9270  176.7900  139.1650 C   0  0  2  0  0  3  0  0  0  0  0  0
  185.1610  177.7880  137.4880 C   0  0  1  0  0  3  0  0  0  0  0  0
  186.5760  177.1040  137.4060 C   0  0  1  0  0  0  0  0  0  0  0  0
  187.3680  179.2040  136.0710 C   0  0  0  0  0  2  0  0  0  0  0  0
  187.4370  177.7030  136.2670 C   0  0  0  0  0  0  0  0  0  0  0  0
  189.6440  177.3360  137.6880 C   0  0  1  0  0  3  0  0  0  0  0  0
  186.7650  178.2650  135.0320 C   0  0  0  0  0  2  0  0  0  0  0  0
  188.7400  176.6240  138.6820 C   0  0  0  0  0  2  0  0  0  0  0  0
  187.3620  177.2800  138.7200 C   0  0  0  0  0  2  0  0  0  0  0  0
  191.3450  176.7430  137.8920 S   0  0  0  0  0  1  0  0  0  0  0  0
  186.4390  175.7330  137.1790 O   0  0  0  0  0  1  0  0  0  0  0  0
  189.0980  177.0130  135.9800 S   0  0  0  0  0  0  0  0  0  0  0  0
  182.6170  178.4020  141.4830 C   0  0  0  0  0  3  0  0  0  0  0  0
  184.9750  178.2240  142.0230 C   0  0  0  0  0  0  0  0  0  0  0  0
  183.4300  179.1810  143.6250 C   0  0  0  0  0  0  0  0  0  0  0  0
  183.9180  178.0170  141.1220 C   0  0  0  0  0  0  0  0  0  0  0  0
  184.7280  178.8040  143.2700 C   0  0  0  0  0  3  0  0  0  0  0  0
  186.2410  177.8660  141.6940 F   0  0  0  0  0  0  0  0  0  0  0  0
  183.1950  179.7420  144.8350 F   0  0  0  0  0  0  0  0  0  0  0  0
  182.3740  178.9800  142.7310 C   0  0  0  0  0  3  0  0  0  0  0  0
  2 24  1  1  0  0  0
  4  8  1  6  0  0  0
  4 10  1  0  0  0  0
  4  7  1  0  0  0  0
  5  2  1  0  0  0  0
  6  4  1  0  0  0  0
  7  1  1  1  0  0  0
  7  9  1  0  0  0  0
  9  2  1  0  0  0  0
  9  3  1  1  0  0  0
 10  5  1  1  0  0  0
 11 19  1  6  0  0  0
 11 10  1  0  0  0  0
 11 17  1  0  0  0  0
 12 13  1  0  0  0  0
 13 11  1  0  0  0  0
 14 18  1  6  0  0  0
 14 16  1  0  0  0  0
 15 12  1  0  0  0  0
 15 13  1  0  0  0  0
 16 17  1  0  0  0  0
 20 13  1  0  0  0  0
 20 14  1  0  0  0  0
 21 28  1  0  0  0  0
 22 25  2  0  0  0  0
 23 27  1  0  0  0  0
 24 21  2  0  0  0  0
 24 22  1  0  0  0  0
 25 23  1  0  0  0  0
 26 22  1  0  0  0  0
 28 23  2  0  0  0  0
M  END
>  <MODEL>
9

>  <REMARK>
 VINA RESULT:      -5.5      3.883      5.305
  Name = 
  2 active torsions:
  status: ('A' for Active; 'I' for Inactive)
    1  A    between atoms: C_1  and  C_27
    2  A    between atoms: C_10  and  C_13
                            x       y       z     vdW  Elec       q    Type
                         _______ _______ _______ _____ _____    ______ ____

>  <TORSDO>
F 2

$$$$
