=
 OpenBabel10262423373D

 34 39  0  0  1  0  0  0  0  0999 V2000
  184.3200  178.9210  141.4250 N   0  0  0  0  0  0  0  0  0  0  0  0
  184.5360  178.5900  143.9090 C   0  0  0  0  0  0  0  0  0  0  0  0
  182.2940  179.6730  143.2830 C   0  0  0  0  0  2  0  0  0  0  0  0
  184.9480  179.4680  140.3550 O   0  0  0  0  0  1  0  0  0  0  0  0
  182.6880  177.5160  140.1930 C   0  0  0  0  0  0  0  0  0  0  0  0
  180.3820  177.4140  140.9400 C   0  0  0  0  0  3  0  0  0  0  0  0
  181.3850  177.0300  140.0470 C   0  0  0  0  0  3  0  0  0  0  0  0
  181.9790  178.7720  142.1470 C   0  0  0  0  0  0  0  0  0  0  0  0
  182.9910  178.4050  141.2500 C   0  0  0  0  0  0  0  0  0  0  0  0
  180.6810  178.2800  141.9920 C   0  0  0  0  0  3  0  0  0  0  0  0
  185.3380  178.1980  144.9870 C   0  0  0  0  0  3  0  0  0  0  0  0
  186.6760  177.8540  144.7970 C   0  0  0  0  0  0  0  0  0  0  0  0
  187.2330  177.9070  143.5210 C   0  0  0  0  0  3  0  0  0  0  0  0
  183.1930  178.9990  144.2080 N   0  0  0  0  0  2  0  0  0  0  0  0
  186.4450  178.2830  142.4330 C   0  0  0  0  0  3  0  0  0  0  0  0
  185.0920  178.6130  142.6010 C   0  0  0  0  0  0  0  0  0  0  0  0
  187.4950  177.4500  145.9340 C   0  0  0  0  0  0  0  0  0  0  0  0
  187.6010  177.1460  147.2540 O   0  0  0  0  0  0  0  0  0  0  0  0
  188.6800  177.1090  146.4360 N   0  0  0  0  0  0  0  0  0  0  0  0
  183.7390  177.0110  139.2520 C   0  0  0  0  0  2  0  0  0  0  0  0
  183.5340  177.5450  137.8360 C   0  0  0  0  0  2  0  0  0  0  0  0
  184.7830  177.4760  135.8940 N   0  0  0  0  0  0  0  0  0  0  0  0
  185.1490  175.8650  137.5350 C   0  0  0  0  0  2  0  0  0  0  0  0
  188.4080  177.7080  136.9660 C   0  0  2  0  0  3  0  0  0  0  0  0
  188.1970  176.6120  137.9180 N   0  0  0  0  0  0  0  0  0  0  0  0
  187.0640  178.2220  136.4630 C   0  0  1  0  0  3  0  0  0  0  0  0
  189.4110  176.2410  138.3910 O   0  0  0  0  0  1  0  0  0  0  0  0
  186.1970  177.0960  135.8510 C   0  0  1  0  0  3  0  0  0  0  0  0
  189.2160  177.3090  135.8930 O   0  0  0  0  0  1  0  0  0  0  0  0
  187.6370  175.4540  137.2280 C   0  0  0  0  0  2  0  0  0  0  0  0
  186.2870  175.7710  136.5770 C   0  0  1  0  0  3  0  0  0  0  0  0
  186.4020  178.8700  137.5090 O   0  0  0  0  0  1  0  0  0  0  0  0
  184.1310  176.6570  136.8480 N   0  0  0  0  0  0  0  0  0  0  0  0
  184.2110  177.1580  134.5950 C   0  0  0  0  0  1  0  0  0  0  0  0
  1 16  1  0  0  0  0
  2 14  1  0  0  0  0
  2 11  1  0  0  0  0
  3 14  1  0  0  0  0
  4  1  1  0  0  0  0
  5  9  1  0  0  0  0
  6 10  2  0  0  0  0
  7  5  2  0  0  0  0
  7  6  1  0  0  0  0
  8  3  1  0  0  0  0
  9  1  1  0  0  0  0
  9  8  2  0  0  0  0
 10  8  1  0  0  0  0
 12 11  2  0  0  0  0
 12 17  1  0  0  0  0
 13 12  1  0  0  0  0
 15 16  1  0  0  0  0
 15 13  2  0  0  0  0
 16  2  2  0  0  0  0
 17 19  2  0  0  0  0
 17 18  1  0  0  0  0
 19 18  1  0  0  0  0
 20  5  1  0  0  0  0
 21 20  1  0  0  0  0
 22 33  1  0  0  0  0
 24 29  1  6  0  0  0
 24 25  1  0  0  0  0
 25 27  1  0  0  0  0
 26 24  1  0  0  0  0
 26 32  1  1  0  0  0
 28 22  1  1  0  0  0
 28 26  1  0  0  0  0
 28 31  1  0  0  0  0
 30 25  1  0  0  0  0
 31 30  1  1  0  0  0
 31 23  1  0  0  0  0
 33 23  1  0  0  0  0
 33 21  1  0  0  0  0
 34 22  1  0  0  0  0
M  END
>  <MODEL>
1

>  <REMARK>
 VINA RESULT:      -7.9      0.000      0.000
  Name = 
  4 active torsions:
  status: ('A' for Active; 'I' for Inactive)
    1  A    between atoms: C_3  and  C_25
    2  A    between atoms: C_8  and  C_10
    3  A    between atoms: C_8  and  C_18
    4  A    between atoms: C_18  and  N_30
                            x       y       z     vdW  Elec       q    Type
                         _______ _______ _______ _____ _____    ______ ____

>  <TORSDO>
F 4

$$$$
=
 OpenBabel10262423373D

 34 39  0  0  1  0  0  0  0  0999 V2000
  190.9850  177.1830  138.9870 N   0  0  0  0  0  0  0  0  0  0  0  0
  188.9410  177.8860  140.2750 C   0  0  0  0  0  0  0  0  0  0  0  0
  189.0630  179.0300  137.9800 C   0  0  0  0  0  2  0  0  0  0  0  0
  192.3350  177.0950  139.0790 O   0  0  0  0  0  1  0  0  0  0  0  0
  190.6750  175.7480  136.9880 C   0  0  0  0  0  0  0  0  0  0  0  0
  189.1300  176.4290  135.2450 C   0  0  0  0  0  3  0  0  0  0  0  0
  190.0550  175.5150  135.7550 C   0  0  0  0  0  3  0  0  0  0  0  0
  189.4250  177.8190  137.2030 C   0  0  0  0  0  0  0  0  0  0  0  0
  190.3640  176.9170  137.7200 C   0  0  0  0  0  0  0  0  0  0  0  0
  188.8120  177.5770  135.9710 C   0  0  0  0  0  3  0  0  0  0  0  0
  188.2160  177.8290  141.4710 C   0  0  0  0  0  3  0  0  0  0  0  0
  188.7320  177.1780  142.5910 C   0  0  0  0  0  0  0  0  0  0  0  0
  189.9890  176.5800  142.5310 C   0  0  0  0  0  3  0  0  0  0  0  0
  188.3670  178.6400  139.1970 N   0  0  0  0  0  2  0  0  0  0  0  0
  190.7190  176.6150  141.3420 C   0  0  0  0  0  3  0  0  0  0  0  0
  190.2090  177.2480  140.1990 C   0  0  0  0  0  0  0  0  0  0  0  0
  187.9610  177.1320  143.8280 C   0  0  0  0  0  0  0  0  0  0  0  0
  186.7970  176.8640  144.4760 O   0  0  0  0  0  0  0  0  0  0  0  0
  187.8840  177.3210  145.1440 N   0  0  0  0  0  0  0  0  0  0  0  0
  191.6000  174.6970  137.5210 C   0  0  0  0  0  2  0  0  0  0  0  0
  192.9460  174.7110  136.7990 C   0  0  0  0  0  2  0  0  0  0  0  0
  194.5590  173.2440  136.0350 N   0  0  0  0  0  0  0  0  0  0  0  0
  194.6180  173.9350  138.2580 C   0  0  0  0  0  2  0  0  0  0  0  0
  197.8930  174.9350  136.6400 C   0  0  2  0  0  3  0  0  0  0  0  0
  197.5160  175.1810  138.0360 N   0  0  0  0  0  0  0  0  0  0  0  0
  196.6680  174.5090  135.8400 C   0  0  1  0  0  3  0  0  0  0  0  0
  198.6170  175.6280  138.6850 O   0  0  0  0  0  1  0  0  0  0  0  0
  195.9590  173.2810  136.4630 C   0  0  1  0  0  3  0  0  0  0  0  0
  198.9050  173.9710  136.5430 O   0  0  0  0  0  1  0  0  0  0  0  0
  197.1240  173.9270  138.6740 C   0  0  0  0  0  2  0  0  0  0  0  0
  195.9260  173.2780  137.9760 C   0  0  1  0  0  3  0  0  0  0  0  0
  195.7990  175.5960  135.7190 O   0  0  0  0  0  1  0  0  0  0  0  0
  193.7440  173.5440  137.1540 N   0  0  0  0  0  0  0  0  0  0  0  0
  194.2620  171.8740  135.6460 C   0  0  0  0  0  1  0  0  0  0  0  0
  1  4  1  0  0  0  0
  1 16  1  0  0  0  0
  2 11  1  0  0  0  0
  3 14  1  0  0  0  0
  5 20  1  0  0  0  0
  5  9  1  0  0  0  0
  6  7  1  0  0  0  0
  6 10  2  0  0  0  0
  7  5  2  0  0  0  0
  8  9  2  0  0  0  0
  8  3  1  0  0  0  0
  9  1  1  0  0  0  0
 10  8  1  0  0  0  0
 11 12  2  0  0  0  0
 12 17  1  0  0  0  0
 13 12  1  0  0  0  0
 14  2  1  0  0  0  0
 15 13  2  0  0  0  0
 16  2  2  0  0  0  0
 16 15  1  0  0  0  0
 17 18  1  0  0  0  0
 17 19  2  0  0  0  0
 18 19  1  0  0  0  0
 21 33  1  0  0  0  0
 21 20  1  0  0  0  0
 22 33  1  0  0  0  0
 24 29  1  1  0  0  0
 24 25  1  0  0  0  0
 25 30  1  0  0  0  0
 25 27  1  0  0  0  0
 26 32  1  1  0  0  0
 26 28  1  0  0  0  0
 26 24  1  0  0  0  0
 28 22  1  6  0  0  0
 28 31  1  0  0  0  0
 31 23  1  6  0  0  0
 31 30  1  0  0  0  0
 33 23  1  0  0  0  0
 34 22  1  0  0  0  0
M  END
>  <MODEL>
2

>  <REMARK>
 VINA RESULT:      -7.8      5.745      8.440
  Name = 
  4 active torsions:
  status: ('A' for Active; 'I' for Inactive)
    1  A    between atoms: C_3  and  C_25
    2  A    between atoms: C_8  and  C_10
    3  A    between atoms: C_8  and  C_18
    4  A    between atoms: C_18  and  N_30
                            x       y       z     vdW  Elec       q    Type
                         _______ _______ _______ _____ _____    ______ ____

>  <TORSDO>
F 4

$$$$
=
 OpenBabel10262423373D

 34 39  0  0  1  0  0  0  0  0999 V2000
  184.1300  179.2080  140.1840 N   0  0  0  0  0  0  0  0  0  0  0  0
  184.5700  178.3360  142.5020 C   0  0  0  0  0  0  0  0  0  0  0  0
  182.1120  179.0030  142.1850 C   0  0  0  0  0  2  0  0  0  0  0  0
  184.5550  180.1280  139.2830 O   0  0  0  0  0  1  0  0  0  0  0  0
  182.7690  177.8160  138.6470 C   0  0  0  0  0  0  0  0  0  0  0  0
  180.5920  177.0140  139.3590 C   0  0  0  0  0  3  0  0  0  0  0  0
  181.5960  177.0980  138.3910 C   0  0  0  0  0  3  0  0  0  0  0  0
  181.9290  178.3600  140.8600 C   0  0  0  0  0  0  0  0  0  0  0  0
  182.9370  178.4630  139.8930 C   0  0  0  0  0  0  0  0  0  0  0  0
  180.7610  177.6400  140.5930 C   0  0  0  0  0  3  0  0  0  0  0  0
  185.5050  177.8840  143.4410 C   0  0  0  0  0  3  0  0  0  0  0  0
  186.8720  177.9090  143.1610 C   0  0  0  0  0  0  0  0  0  0  0  0
  187.3220  178.3980  141.9360 C   0  0  0  0  0  3  0  0  0  0  0  0
  183.1920  178.3440  142.9030 N   0  0  0  0  0  2  0  0  0  0  0  0
  186.4030  178.8400  140.9840 C   0  0  0  0  0  3  0  0  0  0  0  0
  185.0240  178.8040  141.2390 C   0  0  0  0  0  0  0  0  0  0  0  0
  187.8290  177.4350  144.1530 C   0  0  0  0  0  0  0  0  0  0  0  0
  188.2440  177.3680  145.4460 O   0  0  0  0  0  0  0  0  0  0  0  0
  188.9320  176.7530  144.4550 N   0  0  0  0  0  0  0  0  0  0  0  0
  183.8420  177.8080  137.6020 C   0  0  0  0  0  2  0  0  0  0  0  0
  184.8980  176.7410  137.8840 C   0  0  0  0  0  2  0  0  0  0  0  0
  186.2190  177.2440  136.0570 N   0  0  0  0  0  0  0  0  0  0  0  0
  186.3580  175.1230  137.0060 C   0  0  0  0  0  2  0  0  0  0  0  0
  189.7990  176.6960  137.1650 C   0  0  2  0  0  3  0  0  0  0  0  0
  189.4440  175.3600  137.6540 N   0  0  0  0  0  0  0  0  0  0  0  0
  188.5340  177.4950  136.8730 C   0  0  1  0  0  3  0  0  0  0  0  0
  190.5960  174.7200  137.9680 O   0  0  0  0  0  1  0  0  0  0  0  0
  187.5910  176.7600  135.8890 C   0  0  1  0  0  3  0  0  0  0  0  0
  190.6120  176.6280  136.0260 O   0  0  0  0  0  1  0  0  0  0  0  0
  188.8070  174.5930  136.5870 C   0  0  0  0  0  2  0  0  0  0  0  0
  187.5240  175.2610  136.0870 C   0  0  1  0  0  3  0  0  0  0  0  0
  187.8900  177.7870  138.0790 O   0  0  0  0  0  1  0  0  0  0  0  0
  185.4510  176.2100  136.6450 N   0  0  0  0  0  0  0  0  0  0  0  0
  185.6770  177.4770  134.7270 C   0  0  0  0  0  1  0  0  0  0  0  0
  1 16  1  0  0  0  0
  2 14  1  0  0  0  0
  2 11  1  0  0  0  0
  3 14  1  0  0  0  0
  4  1  1  0  0  0  0
  5  9  1  0  0  0  0
  6 10  2  0  0  0  0
  7  5  2  0  0  0  0
  7  6  1  0  0  0  0
  8  3  1  0  0  0  0
  9  1  1  0  0  0  0
  9  8  2  0  0  0  0
 10  8  1  0  0  0  0
 12 11  2  0  0  0  0
 12 17  1  0  0  0  0
 13 12  1  0  0  0  0
 15 16  1  0  0  0  0
 15 13  2  0  0  0  0
 16  2  2  0  0  0  0
 17 19  2  0  0  0  0
 17 18  1  0  0  0  0
 19 18  1  0  0  0  0
 20 21  1  0  0  0  0
 20  5  1  0  0  0  0
 22 33  1  0  0  0  0
 24 29  1  6  0  0  0
 24 25  1  0  0  0  0
 25 27  1  0  0  0  0
 26 24  1  0  0  0  0
 26 32  1  1  0  0  0
 28 22  1  1  0  0  0
 28 31  1  0  0  0  0
 28 26  1  0  0  0  0
 30 25  1  0  0  0  0
 31 30  1  1  0  0  0
 31 23  1  0  0  0  0
 33 23  1  0  0  0  0
 33 21  1  0  0  0  0
 34 22  1  0  0  0  0
M  END
>  <MODEL>
3

>  <REMARK>
 VINA RESULT:      -7.7      1.342      1.599
  Name = 
  4 active torsions:
  status: ('A' for Active; 'I' for Inactive)
    1  A    between atoms: C_3  and  C_25
    2  A    between atoms: C_8  and  C_10
    3  A    between atoms: C_8  and  C_18
    4  A    between atoms: C_18  and  N_30
                            x       y       z     vdW  Elec       q    Type
                         _______ _______ _______ _____ _____    ______ ____

>  <TORSDO>
F 4

$$$$
=
 OpenBabel10262423373D

 34 39  0  0  1  0  0  0  0  0999 V2000
  182.7390  178.4940  140.7820 N   0  0  0  0  0  0  0  0  0  0  0  0
  182.6470  178.9210  143.2590 C   0  0  0  0  0  0  0  0  0  0  0  0
  180.4580  179.5850  142.0960 C   0  0  0  0  0  2  0  0  0  0  0  0
  183.4740  178.7550  139.6720 O   0  0  0  0  0  1  0  0  0  0  0  0
  181.3470  176.6600  139.8560 C   0  0  0  0  0  0  0  0  0  0  0  0
  178.9710  176.5890  140.3430 C   0  0  0  0  0  3  0  0  0  0  0  0
  180.0970  176.0460  139.7210 C   0  0  0  0  0  3  0  0  0  0  0  0
  180.3340  178.3680  141.2550 C   0  0  0  0  0  0  0  0  0  0  0  0
  181.4690  177.8410  140.6250 C   0  0  0  0  0  0  0  0  0  0  0  0
  179.0910  177.7460  141.1130 C   0  0  0  0  0  3  0  0  0  0  0  0
  183.3210  178.9280  144.4860 C   0  0  0  0  0  3  0  0  0  0  0  0
  184.6880  178.6560  144.5550 C   0  0  0  0  0  0  0  0  0  0  0  0
  185.4010  178.3800  143.3910 C   0  0  0  0  0  3  0  0  0  0  0  0
  181.2600  179.2860  143.2720 N   0  0  0  0  0  2  0  0  0  0  0  0
  184.7430  178.3550  142.1610 C   0  0  0  0  0  3  0  0  0  0  0  0
  183.3660  178.6070  142.0730 C   0  0  0  0  0  0  0  0  0  0  0  0
  185.3700  178.6700  145.8430 C   0  0  0  0  0  0  0  0  0  0  0  0
  186.2410  178.0990  146.7160 O   0  0  0  0  0  0  0  0  0  0  0  0
  185.5960  179.2500  147.0200 N   0  0  0  0  0  0  0  0  0  0  0  0
  182.5330  175.9920  139.2310 C   0  0  0  0  0  2  0  0  0  0  0  0
  182.4480  176.0010  137.7060 C   0  0  0  0  0  2  0  0  0  0  0  0
  183.2050  174.9710  135.7820 N   0  0  0  0  0  0  0  0  0  0  0  0
  184.1520  174.3880  137.8280 C   0  0  0  0  0  2  0  0  0  0  0  0
  186.9190  175.6910  135.5940 C   0  0  2  0  0  3  0  0  0  0  0  0
  187.0820  175.2140  136.9720 N   0  0  0  0  0  0  0  0  0  0  0  0
  185.4390  175.8930  135.2870 C   0  0  1  0  0  3  0  0  0  0  0  0
  188.4100  175.1220  137.2190 O   0  0  0  0  0  1  0  0  0  0  0  0
  184.6070  174.6140  135.5490 C   0  0  1  0  0  3  0  0  0  0  0  0
  187.4970  174.8080  134.6720 O   0  0  0  0  0  1  0  0  0  0  0  0
  186.5300  173.8680  137.1010 C   0  0  0  0  0  2  0  0  0  0  0  0
  185.0360  173.8250  136.7670 C   0  0  1  0  0  3  0  0  0  0  0  0
  184.9620  176.9770  136.0280 O   0  0  0  0  0  1  0  0  0  0  0  0
  182.9070  174.7370  137.1460 N   0  0  0  0  0  0  0  0  0  0  0  0
  182.3900  174.0520  135.0020 C   0  0  0  0  0  1  0  0  0  0  0  0
  1 16  1  0  0  0  0
  2 14  1  0  0  0  0
  2 11  1  0  0  0  0
  3 14  1  0  0  0  0
  4  1  1  0  0  0  0
  5  9  1  0  0  0  0
  6 10  2  0  0  0  0
  7  5  2  0  0  0  0
  7  6  1  0  0  0  0
  8  3  1  0  0  0  0
  9  1  1  0  0  0  0
  9  8  2  0  0  0  0
 10  8  1  0  0  0  0
 11 12  2  0  0  0  0
 12 17  1  0  0  0  0
 13 12  1  0  0  0  0
 15 13  2  0  0  0  0
 16 15  1  0  0  0  0
 16  2  2  0  0  0  0
 17 18  1  0  0  0  0
 17 19  2  0  0  0  0
 18 19  1  0  0  0  0
 20  5  1  0  0  0  0
 21 20  1  0  0  0  0
 22 33  1  0  0  0  0
 24 29  1  6  0  0  0
 24 25  1  0  0  0  0
 25 30  1  0  0  0  0
 25 27  1  0  0  0  0
 26 28  1  0  0  0  0
 26 24  1  0  0  0  0
 26 32  1  1  0  0  0
 28 22  1  1  0  0  0
 28 31  1  0  0  0  0
 31 30  1  1  0  0  0
 31 23  1  0  0  0  0
 33 21  1  0  0  0  0
 33 23  1  0  0  0  0
 34 22  1  0  0  0  0
M  END
>  <MODEL>
4

>  <REMARK>
 VINA RESULT:      -7.7      1.907      2.299
  Name = 
  4 active torsions:
  status: ('A' for Active; 'I' for Inactive)
    1  A    between atoms: C_3  and  C_25
    2  A    between atoms: C_8  and  C_10
    3  A    between atoms: C_8  and  C_18
    4  A    between atoms: C_18  and  N_30
                            x       y       z     vdW  Elec       q    Type
                         _______ _______ _______ _____ _____    ______ ____

>  <TORSDO>
F 4

$$$$
=
 OpenBabel10262423373D

 34 39  0  0  1  0  0  0  0  0999 V2000
  184.4580  179.0480  141.6250 N   0  0  0  0  0  0  0  0  0  0  0  0
  185.0040  178.6090  144.0410 C   0  0  0  0  0  0  0  0  0  0  0  0
  182.7680  179.8430  143.7770 C   0  0  0  0  0  2  0  0  0  0  0  0
  184.9600  179.5990  140.4920 O   0  0  0  0  0  1  0  0  0  0  0  0
  182.5830  177.7880  140.5990 C   0  0  0  0  0  0  0  0  0  0  0  0
  180.4050  177.7890  141.6670 C   0  0  0  0  0  3  0  0  0  0  0  0
  181.2440  177.3840  140.6280 C   0  0  0  0  0  3  0  0  0  0  0  0
  182.2390  179.0050  142.6720 C   0  0  0  0  0  0  0  0  0  0  0  0
  183.0880  178.6160  141.6270 C   0  0  0  0  0  0  0  0  0  0  0  0
  180.9030  178.5960  142.6910 C   0  0  0  0  0  3  0  0  0  0  0  0
  185.9250  178.1290  144.9790 C   0  0  0  0  0  3  0  0  0  0  0  0
  187.1990  177.7170  144.5870 C   0  0  0  0  0  0  0  0  0  0  0  0
  187.5710  177.7870  143.2470 C   0  0  0  0  0  3  0  0  0  0  0  0
  183.7450  179.0820  144.5420 N   0  0  0  0  0  2  0  0  0  0  0  0
  186.6600  178.2490  142.2960 C   0  0  0  0  0  3  0  0  0  0  0  0
  185.3680  178.6510  142.6670 C   0  0  0  0  0  0  0  0  0  0  0  0
  188.1430  177.2220  145.5820 C   0  0  0  0  0  0  0  0  0  0  0  0
  189.3920  176.7920  145.9020 O   0  0  0  0  0  0  0  0  0  0  0  0
  188.4120  176.8620  146.8350 N   0  0  0  0  0  0  0  0  0  0  0  0
  183.4550  177.2600  139.5010 C   0  0  0  0  0  2  0  0  0  0  0  0
  183.0920  177.8680  138.1480 C   0  0  0  0  0  2  0  0  0  0  0  0
  183.4520  176.9880  136.0430 N   0  0  0  0  0  0  0  0  0  0  0  0
  182.9790  175.5450  137.8090 C   0  0  0  0  0  2  0  0  0  0  0  0
  186.3550  174.5810  136.3900 C   0  0  2  0  0  3  0  0  0  0  0  0
  185.6790  173.9260  137.5160 N   0  0  0  0  0  0  0  0  0  0  0  0
  185.6670  175.9030  136.0710 C   0  0  1  0  0  3  0  0  0  0  0  0
  186.3700  172.7990  137.8090 O   0  0  0  0  0  1  0  0  0  0  0  0
  184.1530  175.7250  135.7990 C   0  0  1  0  0  3  0  0  0  0  0  0
  186.3870  173.7560  135.2590 O   0  0  0  0  0  1  0  0  0  0  0  0
  184.3360  173.5130  137.1170 C   0  0  0  0  0  2  0  0  0  0  0  0
  183.4740  174.7020  136.6840 C   0  0  1  0  0  3  0  0  0  0  0  0
  185.8990  176.8040  137.1130 O   0  0  0  0  0  1  0  0  0  0  0  0
  182.6620  176.8400  137.2090 N   0  0  0  0  0  0  0  0  0  0  0  0
  182.5370  177.1950  134.9310 C   0  0  0  0  0  1  0  0  0  0  0  0
  1  9  1  0  0  0  0
  1 16  1  0  0  0  0
  2 14  1  0  0  0  0
  2 11  1  0  0  0  0
  3 14  1  0  0  0  0
  4  1  1  0  0  0  0
  5  7  2  0  0  0  0
  5  9  1  0  0  0  0
  6 10  2  0  0  0  0
  7  6  1  0  0  0  0
  8 10  1  0  0  0  0
  8  3  1  0  0  0  0
  9  8  2  0  0  0  0
 12 11  2  0  0  0  0
 12 17  1  0  0  0  0
 13 12  1  0  0  0  0
 15 16  1  0  0  0  0
 15 13  2  0  0  0  0
 16  2  2  0  0  0  0
 17 18  1  0  0  0  0
 17 19  2  0  0  0  0
 18 19  1  0  0  0  0
 20  5  1  0  0  0  0
 21 20  1  0  0  0  0
 22 33  1  0  0  0  0
 24 29  1  6  0  0  0
 24 25  1  0  0  0  0
 25 27  1  0  0  0  0
 26 24  1  0  0  0  0
 26 32  1  1  0  0  0
 28 22  1  1  0  0  0
 28 26  1  0  0  0  0
 28 31  1  0  0  0  0
 30 25  1  0  0  0  0
 31 30  1  1  0  0  0
 31 23  1  0  0  0  0
 33 23  1  0  0  0  0
 33 21  1  0  0  0  0
 34 22  1  0  0  0  0
M  END
>  <MODEL>
5

>  <REMARK>
 VINA RESULT:      -7.5      1.684      2.002
  Name = 
  4 active torsions:
  status: ('A' for Active; 'I' for Inactive)
    1  A    between atoms: C_3  and  C_25
    2  A    between atoms: C_8  and  C_10
    3  A    between atoms: C_8  and  C_18
    4  A    between atoms: C_18  and  N_30
                            x       y       z     vdW  Elec       q    Type
                         _______ _______ _______ _____ _____    ______ ____

>  <TORSDO>
F 4

$$$$
=
 OpenBabel10262423373D

 34 39  0  0  1  0  0  0  0  0999 V2000
  188.0190  177.7210  137.4820 N   0  0  0  0  0  0  0  0  0  0  0  0
  187.4640  175.4770  136.4900 C   0  0  0  0  0  0  0  0  0  0  0  0
  189.8610  176.2010  135.9270 C   0  0  0  0  0  2  0  0  0  0  0  0
  187.5860  179.0040  137.5470 O   0  0  0  0  0  1  0  0  0  0  0  0
  189.6460  177.8050  139.3530 C   0  0  0  0  0  0  0  0  0  0  0  0
  191.8200  176.7560  139.1070 C   0  0  0  0  0  3  0  0  0  0  0  0
  190.9030  177.4800  139.8730 C   0  0  0  0  0  3  0  0  0  0  0  0
  190.2250  176.6640  137.2890 C   0  0  0  0  0  0  0  0  0  0  0  0
  189.3020  177.4010  138.0430 C   0  0  0  0  0  0  0  0  0  0  0  0
  191.4790  176.3450  137.8180 C   0  0  0  0  0  3  0  0  0  0  0  0
  186.4990  174.4900  136.2590 C   0  0  0  0  0  3  0  0  0  0  0  0
  185.1670  174.6890  136.6240 C   0  0  0  0  0  0  0  0  0  0  0  0
  184.7820  175.8880  137.2200 C   0  0  0  0  0  3  0  0  0  0  0  0
  188.7920  175.2180  136.0140 N   0  0  0  0  0  2  0  0  0  0  0  0
  185.7330  176.8770  137.4710 C   0  0  0  0  0  3  0  0  0  0  0  0
  187.0800  176.6880  137.1290 C   0  0  0  0  0  0  0  0  0  0  0  0
  184.1780  173.6480  136.3720 C   0  0  0  0  0  0  0  0  0  0  0  0
  183.4150  172.9400  135.4980 O   0  0  0  0  0  0  0  0  0  0  0  0
  183.3640  172.6990  136.8300 N   0  0  0  0  0  0  0  0  0  0  0  0
  188.6760  178.5170  140.2470 C   0  0  0  0  0  2  0  0  0  0  0  0
  189.1000  178.4430  141.7130 C   0  0  0  0  0  2  0  0  0  0  0  0
  189.6660  176.8030  143.2370 N   0  0  0  0  0  0  0  0  0  0  0  0
  187.4480  177.4980  143.0910 C   0  0  0  0  0  2  0  0  0  0  0  0
  188.6320  178.1210  146.6340 C   0  0  2  0  0  3  0  0  0  0  0  0
  187.2930  178.4150  146.1130 N   0  0  0  0  0  0  0  0  0  0  0  0
  189.5840  177.8260  145.4800 C   0  0  1  0  0  3  0  0  0  0  0  0
  186.5060  178.7420  147.1660 O   0  0  0  0  0  1  0  0  0  0  0  0
  189.0650  176.6880  144.5680 C   0  0  1  0  0  3  0  0  0  0  0  0
  188.6080  177.0500  147.5380 O   0  0  0  0  0  1  0  0  0  0  0  0
  186.7190  177.2160  145.5080 C   0  0  0  0  0  2  0  0  0  0  0  0
  187.5680  176.6980  144.3430 C   0  0  1  0  0  3  0  0  0  0  0  0
  189.8050  179.0030  144.7580 O   0  0  0  0  0  1  0  0  0  0  0  0
  188.6570  177.1980  142.3260 N   0  0  0  0  0  0  0  0  0  0  0  0
  190.1000  175.4710  142.8430 C   0  0  0  0  0  1  0  0  0  0  0  0
  1  4  1  0  0  0  0
  1  9  1  0  0  0  0
  2 16  1  0  0  0  0
  3 14  1  0  0  0  0
  3  8  1  0  0  0  0
  5  7  1  0  0  0  0
  5 20  1  0  0  0  0
  6  7  2  0  0  0  0
  8 10  2  0  0  0  0
  8  9  1  0  0  0  0
  9  5  2  0  0  0  0
 10  6  1  0  0  0  0
 11  2  2  0  0  0  0
 11 12  1  0  0  0  0
 12 13  2  0  0  0  0
 13 15  1  0  0  0  0
 14  2  1  0  0  0  0
 16 15  2  0  0  0  0
 16  1  1  0  0  0  0
 17 12  1  0  0  0  0
 17 19  2  0  0  0  0
 18 17  1  0  0  0  0
 18 19  1  0  0  0  0
 20 21  1  0  0  0  0
 21 33  1  0  0  0  0
 24 29  1  1  0  0  0
 25 24  1  0  0  0  0
 25 27  1  0  0  0  0
 26 32  1  6  0  0  0
 26 24  1  0  0  0  0
 28 22  1  6  0  0  0
 28 26  1  0  0  0  0
 30 25  1  0  0  0  0
 31 23  1  6  0  0  0
 31 28  1  0  0  0  0
 31 30  1  0  0  0  0
 33 23  1  0  0  0  0
 33 22  1  0  0  0  0
 34 22  1  0  0  0  0
M  END
>  <MODEL>
6

>  <REMARK>
 VINA RESULT:      -7.4      3.314      8.981
  Name = 
  4 active torsions:
  status: ('A' for Active; 'I' for Inactive)
    1  A    between atoms: C_3  and  C_25
    2  A    between atoms: C_8  and  C_10
    3  A    between atoms: C_8  and  C_18
    4  A    between atoms: C_18  and  N_30
                            x       y       z     vdW  Elec       q    Type
                         _______ _______ _______ _____ _____    ______ ____

>  <TORSDO>
F 4

$$$$
=
 OpenBabel10262423373D

 34 39  0  0  1  0  0  0  0  0999 V2000
  187.6360  178.4830  139.1730 N   0  0  0  0  0  0  0  0  0  0  0  0
  186.6420  178.3010  141.4770 C   0  0  0  0  0  0  0  0  0  0  0  0
  184.9530  179.2260  139.7790 C   0  0  0  0  0  2  0  0  0  0  0  0
  188.6890  179.0020  138.4950 O   0  0  0  0  0  1  0  0  0  0  0  0
  186.8240  176.9260  137.4200 C   0  0  0  0  0  0  0  0  0  0  0  0
  184.4450  176.7410  136.9820 C   0  0  0  0  0  3  0  0  0  0  0  0
  185.7610  176.3630  136.7060 C   0  0  0  0  0  3  0  0  0  0  0  0
  185.2390  178.2480  138.7010 C   0  0  0  0  0  0  0  0  0  0  0  0
  186.5650  177.8870  138.4240 C   0  0  0  0  0  0  0  0  0  0  0  0
  184.1850  177.6790  137.9820 C   0  0  0  0  0  3  0  0  0  0  0  0
  186.8370  178.0130  142.8320 C   0  0  0  0  0  3  0  0  0  0  0  0
  188.1090  177.7310  143.3290 C   0  0  0  0  0  0  0  0  0  0  0  0
  189.2090  177.7430  142.4730 C   0  0  0  0  0  3  0  0  0  0  0  0
  185.3120  178.6530  141.0670 N   0  0  0  0  0  2  0  0  0  0  0  0
  189.0300  178.0150  141.1170 C   0  0  0  0  0  3  0  0  0  0  0  0
  187.7560  178.2820  140.5940 C   0  0  0  0  0  0  0  0  0  0  0  0
  188.2910  177.4340  144.7450 C   0  0  0  0  0  0  0  0  0  0  0  0
  188.9350  176.7520  145.7280 O   0  0  0  0  0  0  0  0  0  0  0  0
  187.9470  177.6330  146.0160 N   0  0  0  0  0  0  0  0  0  0  0  0
  188.2080  176.4270  137.1340 C   0  0  0  0  0  2  0  0  0  0  0  0
  188.2100  175.3650  136.0360 C   0  0  0  0  0  2  0  0  0  0  0  0
  189.8580  173.9810  135.1970 N   0  0  0  0  0  0  0  0  0  0  0  0
  190.0410  174.7650  137.3820 C   0  0  0  0  0  2  0  0  0  0  0  0
  193.1010  175.9180  135.4720 C   0  0  2  0  0  3  0  0  0  0  0  0
  192.8170  176.1940  136.8840 N   0  0  0  0  0  0  0  0  0  0  0  0
  191.8500  175.3770  134.7880 C   0  0  1  0  0  3  0  0  0  0  0  0
  193.9310  176.7410  137.4260 O   0  0  0  0  0  1  0  0  0  0  0  0
  191.2810  174.1300  135.5090 C   0  0  1  0  0  3  0  0  0  0  0  0
  194.1680  175.0220  135.3280 O   0  0  0  0  0  1  0  0  0  0  0  0
  192.5660  174.9440  137.5950 C   0  0  0  0  0  2  0  0  0  0  0  0
  191.3660  174.1870  137.0190 C   0  0  1  0  0  3  0  0  0  0  0  0
  190.9000  176.3970  134.6990 O   0  0  0  0  0  1  0  0  0  0  0  0
  189.1130  174.2710  136.3660 N   0  0  0  0  0  0  0  0  0  0  0  0
  189.6300  172.5790  134.8820 C   0  0  0  0  0  1  0  0  0  0  0  0
  1 16  1  0  0  0  0
  2 11  1  0  0  0  0
  3 14  1  0  0  0  0
  4  1  1  0  0  0  0
  5  9  1  0  0  0  0
  6 10  2  0  0  0  0
  7  6  1  0  0  0  0
  7  5  2  0  0  0  0
  8  3  1  0  0  0  0
  9  8  2  0  0  0  0
  9  1  1  0  0  0  0
 10  8  1  0  0  0  0
 11 12  2  0  0  0  0
 12 17  1  0  0  0  0
 13 12  1  0  0  0  0
 14  2  1  0  0  0  0
 15 13  2  0  0  0  0
 16 15  1  0  0  0  0
 16  2  2  0  0  0  0
 17 18  1  0  0  0  0
 17 19  2  0  0  0  0
 18 19  1  0  0  0  0
 20  5  1  0  0  0  0
 21 33  1  0  0  0  0
 21 20  1  0  0  0  0
 22 33  1  0  0  0  0
 24 29  1  1  0  0  0
 24 25  1  0  0  0  0
 25 27  1  0  0  0  0
 25 30  1  0  0  0  0
 26 32  1  1  0  0  0
 26 24  1  0  0  0  0
 26 28  1  0  0  0  0
 28 22  1  1  0  0  0
 28 31  1  0  0  0  0
 31 23  1  6  0  0  0
 31 30  1  0  0  0  0
 33 23  1  0  0  0  0
 34 22  1  0  0  0  0
M  END
>  <MODEL>
7

>  <REMARK>
 VINA RESULT:      -7.4      2.974      4.665
  Name = 
  4 active torsions:
  status: ('A' for Active; 'I' for Inactive)
    1  A    between atoms: C_3  and  C_25
    2  A    between atoms: C_8  and  C_10
    3  A    between atoms: C_8  and  C_18
    4  A    between atoms: C_18  and  N_30
                            x       y       z     vdW  Elec       q    Type
                         _______ _______ _______ _____ _____    ______ ____

>  <TORSDO>
F 4

$$$$
=
 OpenBabel10262423373D

 34 39  0  0  1  0  0  0  0  0999 V2000
  184.0570  179.2110  140.0600 N   0  0  0  0  0  0  0  0  0  0  0  0
  184.5170  178.3580  142.3820 C   0  0  0  0  0  0  0  0  0  0  0  0
  182.0520  179.0030  142.0740 C   0  0  0  0  0  2  0  0  0  0  0  0
  184.4700  180.1280  139.1510 O   0  0  0  0  0  1  0  0  0  0  0  0
  182.6990  177.7970  138.5400 C   0  0  0  0  0  0  0  0  0  0  0  0
  180.5330  176.9820  139.2690 C   0  0  0  0  0  3  0  0  0  0  0  0
  181.5300  177.0680  138.2960 C   0  0  0  0  0  3  0  0  0  0  0  0
  181.8660  178.3490  140.7540 C   0  0  0  0  0  0  0  0  0  0  0  0
  182.8690  178.4540  139.7800 C   0  0  0  0  0  0  0  0  0  0  0  0
  180.7030  177.6190  140.4990 C   0  0  0  0  0  3  0  0  0  0  0  0
  185.4610  177.9200  143.3180 C   0  0  0  0  0  3  0  0  0  0  0  0
  186.8250  177.9550  143.0310 C   0  0  0  0  0  0  0  0  0  0  0  0
  187.2650  178.4390  141.8000 C   0  0  0  0  0  3  0  0  0  0  0  0
  183.1410  178.3580  142.7900 N   0  0  0  0  0  2  0  0  0  0  0  0
  186.3370  178.8670  140.8500 C   0  0  0  0  0  3  0  0  0  0  0  0
  184.9600  178.8220  141.1130 C   0  0  0  0  0  0  0  0  0  0  0  0
  187.7920  177.4950  144.0210 C   0  0  0  0  0  0  0  0  0  0  0  0
  188.8710  176.7350  144.3430 O   0  0  0  0  0  0  0  0  0  0  0  0
  188.2600  177.5140  145.2670 N   0  0  0  0  0  0  0  0  0  0  0  0
  183.7670  177.7910  137.4890 C   0  0  0  0  0  2  0  0  0  0  0  0
  183.8430  176.4470  136.7680 C   0  0  0  0  0  2  0  0  0  0  0  0
  185.7430  175.3930  135.9830 N   0  0  0  0  0  0  0  0  0  0  0  0
  185.8570  176.6040  137.9680 C   0  0  0  0  0  2  0  0  0  0  0  0
  188.3460  178.1080  135.5420 C   0  0  2  0  0  3  0  0  0  0  0  0
  188.0970  178.5700  136.9120 N   0  0  0  0  0  0  0  0  0  0  0  0
  187.2460  177.1440  135.1130 C   0  0  1  0  0  3  0  0  0  0  0  0
  189.0550  179.4770  137.2190 O   0  0  0  0  0  1  0  0  0  0  0  0
  187.0900  175.9580  136.0940 C   0  0  1  0  0  3  0  0  0  0  0  0
  189.6040  177.5030  135.4250 O   0  0  0  0  0  1  0  0  0  0  0  0
  188.2460  177.4590  137.8470 C   0  0  0  0  0  2  0  0  0  0  0  0
  187.2610  176.3240  137.5530 C   0  0  1  0  0  3  0  0  0  0  0  0
  186.0490  177.8520  134.9680 O   0  0  0  0  0  1  0  0  0  0  0  0
  185.0310  175.7040  137.1670 N   0  0  0  0  0  0  0  0  0  0  0  0
  185.8840  173.9460  135.9370 C   0  0  0  0  0  1  0  0  0  0  0  0
  1 16  1  0  0  0  0
  2 14  1  0  0  0  0
  2 11  1  0  0  0  0
  3 14  1  0  0  0  0
  4  1  1  0  0  0  0
  5  9  1  0  0  0  0
  6 10  2  0  0  0  0
  7  5  2  0  0  0  0
  7  6  1  0  0  0  0
  8  3  1  0  0  0  0
  9  1  1  0  0  0  0
  9  8  2  0  0  0  0
 10  8  1  0  0  0  0
 12 11  2  0  0  0  0
 12 17  1  0  0  0  0
 13 12  1  0  0  0  0
 15 16  1  0  0  0  0
 15 13  2  0  0  0  0
 16  2  2  0  0  0  0
 17 18  1  0  0  0  0
 17 19  2  0  0  0  0
 18 19  1  0  0  0  0
 20  5  1  0  0  0  0
 21 33  1  0  0  0  0
 21 20  1  0  0  0  0
 22 33  1  0  0  0  0
 24 29  1  1  0  0  0
 24 25  1  0  0  0  0
 25 27  1  0  0  0  0
 25 30  1  0  0  0  0
 26 32  1  1  0  0  0
 26 24  1  0  0  0  0
 26 28  1  0  0  0  0
 28 22  1  1  0  0  0
 28 31  1  0  0  0  0
 31 30  1  6  0  0  0
 31 23  1  0  0  0  0
 33 23  1  0  0  0  0
 34 22  1  0  0  0  0
M  END
>  <MODEL>
8

>  <REMARK>
 VINA RESULT:      -7.4      1.576      1.921
  Name = 
  4 active torsions:
  status: ('A' for Active; 'I' for Inactive)
    1  A    between atoms: C_3  and  C_25
    2  A    between atoms: C_8  and  C_10
    3  A    between atoms: C_8  and  C_18
    4  A    between atoms: C_18  and  N_30
                            x       y       z     vdW  Elec       q    Type
                         _______ _______ _______ _____ _____    ______ ____

>  <TORSDO>
F 4

$$$$
=
 OpenBabel10262423373D

 34 39  0  0  1  0  0  0  0  0999 V2000
  190.9550  177.6540  140.4790 N   0  0  0  0  0  0  0  0  0  0  0  0
  189.3260  177.6340  142.3950 C   0  0  0  0  0  0  0  0  0  0  0  0
  188.2860  178.6280  140.2690 C   0  0  0  0  0  2  0  0  0  0  0  0
  192.2000  178.0650  140.1310 O   0  0  0  0  0  1  0  0  0  0  0  0
  190.5550  176.1050  138.5830 C   0  0  0  0  0  0  0  0  0  0  0  0
  188.3980  176.0920  137.4740 C   0  0  0  0  0  3  0  0  0  0  0  0
  189.6990  175.6020  137.5980 C   0  0  0  0  0  3  0  0  0  0  0  0
  188.7870  177.5920  139.3320 C   0  0  0  0  0  0  0  0  0  0  0  0
  190.1000  177.1180  139.4580 C   0  0  0  0  0  0  0  0  0  0  0  0
  187.9410  177.0830  138.3430 C   0  0  0  0  0  3  0  0  0  0  0  0
  189.0950  177.3800  143.7520 C   0  0  0  0  0  3  0  0  0  0  0  0
  190.1400  177.0170  144.6010 C   0  0  0  0  0  0  0  0  0  0  0  0
  191.4370  176.9110  144.1030 C   0  0  0  0  0  3  0  0  0  0  0  0
  188.2060  178.0750  141.6120 N   0  0  0  0  0  2  0  0  0  0  0  0
  191.6820  177.1480  142.7500 C   0  0  0  0  0  3  0  0  0  0  0  0
  190.6420  177.4950  141.8760 C   0  0  0  0  0  0  0  0  0  0  0  0
  189.8780  176.7570  146.0120 C   0  0  0  0  0  0  0  0  0  0  0  0
  188.9960  176.6370  147.0390 O   0  0  0  0  0  0  0  0  0  0  0  0
  190.3260  176.4680  147.2320 N   0  0  0  0  0  0  0  0  0  0  0  0
  191.9140  175.4880  138.7190 C   0  0  0  0  0  2  0  0  0  0  0  0
  192.9680  176.2640  137.9310 C   0  0  0  0  0  2  0  0  0  0  0  0
  194.7060  175.7870  136.4870 N   0  0  0  0  0  0  0  0  0  0  0  0
  193.1250  174.1390  136.9410 C   0  0  0  0  0  2  0  0  0  0  0  0
  196.5190  172.8090  137.9690 C   0  0  2  0  0  3  0  0  0  0  0  0
  195.2450  172.0900  138.0830 N   0  0  0  0  0  0  0  0  0  0  0  0
  196.2570  174.2830  137.6780 C   0  0  1  0  0  3  0  0  0  0  0  0
  195.5280  170.8080  138.4150 O   0  0  0  0  0  1  0  0  0  0  0  0
  195.3750  174.4850  136.4220 C   0  0  1  0  0  3  0  0  0  0  0  0
  197.3380  172.2500  136.9790 O   0  0  0  0  0  1  0  0  0  0  0  0
  194.5740  172.0580  136.7870 C   0  0  0  0  0  2  0  0  0  0  0  0
  194.2680  173.4640  136.2630 C   0  0  1  0  0  3  0  0  0  0  0  0
  195.6880  174.8780  138.8070 O   0  0  0  0  0  1  0  0  0  0  0  0
  193.3240  175.5670  136.7030 N   0  0  0  0  0  0  0  0  0  0  0  0
  194.8410  176.4070  135.1780 C   0  0  0  0  0  1  0  0  0  0  0  0
  1 16  1  0  0  0  0
  2 11  1  0  0  0  0
  3 14  1  0  0  0  0
  4  1  1  0  0  0  0
  5 20  1  0  0  0  0
  5  9  1  0  0  0  0
  6  7  1  0  0  0  0
  6 10  2  0  0  0  0
  7  5  2  0  0  0  0
  8  9  2  0  0  0  0
  8  3  1  0  0  0  0
  9  1  1  0  0  0  0
 10  8  1  0  0  0  0
 11 12  2  0  0  0  0
 12 17  1  0  0  0  0
 13 12  1  0  0  0  0
 14  2  1  0  0  0  0
 15 13  2  0  0  0  0
 16  2  2  0  0  0  0
 16 15  1  0  0  0  0
 17 18  1  0  0  0  0
 17 19  2  0  0  0  0
 18 19  1  0  0  0  0
 21 20  1  0  0  0  0
 22 33  1  0  0  0  0
 24 29  1  6  0  0  0
 24 25  1  0  0  0  0
 25 27  1  0  0  0  0
 26 24  1  0  0  0  0
 26 32  1  1  0  0  0
 28 22  1  1  0  0  0
 28 26  1  0  0  0  0
 30 25  1  0  0  0  0
 31 28  1  0  0  0  0
 31 30  1  1  0  0  0
 31 23  1  0  0  0  0
 33 23  1  0  0  0  0
 33 21  1  0  0  0  0
 34 22  1  0  0  0  0
M  END
>  <MODEL>
9

>  <REMARK>
 VINA RESULT:      -7.4      5.300      7.675
  Name = 
  4 active torsions:
  status: ('A' for Active; 'I' for Inactive)
    1  A    between atoms: C_3  and  C_25
    2  A    between atoms: C_8  and  C_10
    3  A    between atoms: C_8  and  C_18
    4  A    between atoms: C_18  and  N_30
                            x       y       z     vdW  Elec       q    Type
                         _______ _______ _______ _____ _____    ______ ____

>  <TORSDO>
F 4

$$$$
