=
 OpenBabel10262422223D

 43 48  0  0  1  0  0  0  0  0999 V2000
  191.1110  176.6000  146.3520 C   0  0  0  0  0  0  0  0  0  0  0  0
  187.4650  178.1400  143.1840 C   0  0  0  0  0  0  0  0  0  0  0  0
  188.6380  178.0850  140.6540 C   0  0  0  0  0  0  0  0  0  0  0  0
  189.0110  177.3520  145.4050 C   0  0  0  0  0  0  0  0  0  0  0  0
  191.6910  176.6090  145.0810 C   0  0  0  0  0  3  0  0  0  0  0  0
  192.0590  176.1260  147.7430 Cl  0  0  0  0  0  0  0  0  0  0  0  0
  189.5920  177.3630  144.1150 C   0  0  0  0  0  0  0  0  0  0  0  0
  189.7720  176.9700  146.5140 C   0  0  0  0  0  3  0  0  0  0  0  0
  190.9370  176.9870  143.9670 C   0  0  0  0  0  3  0  0  0  0  0  0
  189.3570  177.7370  141.7550 N   0  0  0  0  0  0  0  0  0  0  0  0
  188.8170  177.7480  143.0050 C   0  0  0  0  0  0  0  0  0  0  0  0
  186.9120  178.1060  144.4730 C   0  0  0  0  0  3  0  0  0  0  0  0
  186.7100  178.5300  142.0490 C   0  0  0  0  0  0  0  0  0  0  0  0
  187.3110  178.4850  140.7890 C   0  0  0  0  0  3  0  0  0  0  0  0
  187.6770  177.7170  145.5730 C   0  0  0  0  0  3  0  0  0  0  0  0
  189.2660  178.0590  139.2970 C   0  0  1  0  0  3  0  0  0  0  0  0
  190.2500  176.9070  139.1860 C   0  0  0  0  0  2  0  0  0  0  0  0
  188.2070  177.8430  138.2250 C   0  0  0  0  0  2  0  0  0  0  0  0
  189.5600  175.8520  138.3530 C   0  0  1  0  0  3  0  0  0  0  0  0
  188.6210  176.6130  137.4430 C   0  0  0  0  0  2  0  0  0  0  0  0
  190.5810  175.0720  137.5440 C   0  0  0  0  0  2  0  0  0  0  0  0
  191.4300  175.9900  136.7840 N   0  0  0  0  0  0  0  0  0  0  0  0
  193.5290  176.2250  135.6880 C   0  0  0  0  0  2  0  0  0  0  0  0
  191.1770  175.7940  135.3640 C   0  0  0  0  0  2  0  0  0  0  0  0
  192.8720  175.7460  136.9680 C   0  0  1  0  0  0  0  0  0  0  0  0
  193.3760  176.5790  138.1340 C   0  0  0  0  0  1  0  0  0  0  0  0
  192.4530  176.1510  134.6270 C   0  0  0  0  0  2  0  0  0  0  0  0
  193.2150  174.2560  137.1850 C   0  0  0  0  0  2  0  0  0  0  0  0
  194.4260  173.8670  136.4610 N   0  0  0  0  0  0  0  0  0  0  0  0
  195.3000  172.3620  138.2440 C   0  0  0  0  0  2  0  0  0  0  0  0
  193.9700  171.4200  136.5400 C   0  0  0  0  0  2  0  0  0  0  0  0
  195.1610  171.2150  137.3560 N   0  0  0  0  0  2  0  0  0  0  0  0
  194.1520  172.6630  135.6620 C   0  0  0  0  0  2  0  0  0  0  0  0
  195.5180  173.6340  137.4170 C   0  0  0  0  0  2  0  0  0  0  0  0
  185.3420  178.9680  142.1070 N   0  0  0  0  0  2  0  0  0  0  0  0
  184.1680  178.1350  142.3350 C   0  0  1  0  0  3  0  0  0  0  0  0
  183.1940  178.8290  143.2740 C   0  0  0  0  0  1  0  0  0  0  0  0
  183.5050  177.7640  141.0090 C   0  0  0  0  0  2  0  0  0  0  0  0
  182.8710  178.9610  140.3000 C   0  0  2  0  0  3  0  0  0  0  0  0
  181.5280  178.6990  140.0240 O   0  0  0  0  0  1  0  0  0  0  0  0
  183.2310  178.6070  137.8500 O   0  0  0  0  0  0  0  0  0  0  0  0
  184.5280  180.0900  139.0200 O   0  0  0  0  0  1  0  0  0  0  0  0
  183.5940  179.2480  139.0300 C   0  0  0  0  0  0  0  0  0  0  0  0
  1  8  1  0  0  0  0
  1  6  1  0  0  0  0
  2 12  1  0  0  0  0
  3 14  2  0  0  0  0
  3 10  1  0  0  0  0
  4 15  1  0  0  0  0
  4  8  2  0  0  0  0
  5  1  2  0  0  0  0
  7  4  1  0  0  0  0
  9  7  2  0  0  0  0
  9  5  1  0  0  0  0
 10 11  2  0  0  0  0
 11  2  1  0  0  0  0
 11  7  1  0  0  0  0
 12 15  2  0  0  0  0
 13 35  1  0  0  0  0
 13  2  2  0  0  0  0
 14 13  1  0  0  0  0
 16  3  1  1  0  0  0
 17 16  1  0  0  0  0
 18 16  1  0  0  0  0
 19 21  1  6  0  0  0
 19 17  1  0  0  0  0
 20 18  1  0  0  0  0
 20 19  1  0  0  0  0
 22 25  1  0  0  0  0
 22 21  1  0  0  0  0
 23 25  1  0  0  0  0
 24 22  1  0  0  0  0
 25 28  1  0  0  0  0
 25 26  1  1  0  0  0
 27 24  1  0  0  0  0
 27 23  1  0  0  0  0
 29 28  1  0  0  0  0
 29 34  1  0  0  0  0
 31 32  1  0  0  0  0
 32 30  1  0  0  0  0
 33 29  1  0  0  0  0
 33 31  1  0  0  0  0
 34 30  1  0  0  0  0
 35 36  1  0  0  0  0
 36 37  1  1  0  0  0
 38 36  1  0  0  0  0
 39 40  1  6  0  0  0
 39 38  1  0  0  0  0
 41 43  2  0  0  0  0
 42 43  1  0  0  0  0
 43 39  1  0  0  0  0
M  END
>  <MODEL>
1

>  <REMARK>
 VINA RESULT:      -9.0      0.000      0.000
  Name = 
  10 active torsions:
  status: ('A' for Active; 'I' for Inactive)
    1  A    between atoms: C_1  and  C_9
    2  A    between atoms: C_1  and  N_35
    3  A    between atoms: C_2  and  C_13
    4  A    between atoms: C_3  and  N_4
    5  A    between atoms: C_3  and  C_12
    6  A    between atoms: C_9  and  C_32
    7  A    between atoms: N_11  and  C_14
    8  A    between atoms: C_14  and  C_22
    9  A    between atoms: C_32  and  C_37
   10  A    between atoms: C_34  and  N_35
                            x       y       z     vdW  Elec       q    Type
                         _______ _______ _______ _____ _____    ______ ____

>  <TORSDO>
F 10

$$$$
=
 OpenBabel10262422223D

 43 48  0  0  1  0  0  0  0  0999 V2000
  190.9980  176.6840  146.2530 C   0  0  0  0  0  0  0  0  0  0  0  0
  189.6260  177.6230  141.4640 C   0  0  0  0  0  0  0  0  0  0  0  0
  187.0700  178.7210  141.6490 C   0  0  0  0  0  0  0  0  0  0  0  0
  190.9590  176.9000  143.8400 C   0  0  0  0  0  0  0  0  0  0  0  0
  189.7050  177.2070  146.3250 C   0  0  0  0  0  3  0  0  0  0  0  0
  191.8350  176.2180  147.7170 Cl  0  0  0  0  0  0  0  0  0  0  0  0
  189.6490  177.4300  143.9050 C   0  0  0  0  0  0  0  0  0  0  0  0
  191.6250  176.5310  145.0130 C   0  0  0  0  0  3  0  0  0  0  0  0
  189.0330  177.5800  145.1570 C   0  0  0  0  0  3  0  0  0  0  0  0
  187.7370  178.3360  142.7700 N   0  0  0  0  0  0  0  0  0  0  0  0
  188.9880  177.8000  142.7180 C   0  0  0  0  0  0  0  0  0  0  0  0
  190.9300  177.1060  141.4320 C   0  0  0  0  0  3  0  0  0  0  0  0
  188.9330  177.9960  140.2850 C   0  0  0  0  0  0  0  0  0  0  0  0
  187.6590  178.5550  140.3980 C   0  0  0  0  0  3  0  0  0  0  0  0
  191.5910  176.7470  142.6070 C   0  0  0  0  0  3  0  0  0  0  0  0
  185.6980  179.3090  141.7460 C   0  0  1  0  0  3  0  0  0  0  0  0
  184.8330  178.8420  140.5870 C   0  0  0  0  0  2  0  0  0  0  0  0
  185.0110  178.8530  143.0250 C   0  0  0  0  0  2  0  0  0  0  0  0
  183.8990  177.8030  141.1620 C   0  0  1  0  0  3  0  0  0  0  0  0
  183.7120  178.1920  142.6110 C   0  0  0  0  0  2  0  0  0  0  0  0
  182.5730  177.8240  140.4220 C   0  0  0  0  0  2  0  0  0  0  0  0
  181.9240  179.1250  140.5870 N   0  0  0  0  0  0  0  0  0  0  0  0
  180.2720  180.5900  139.6990 C   0  0  0  0  0  2  0  0  0  0  0  0
  180.7370  178.9540  141.4110 C   0  0  0  0  0  2  0  0  0  0  0  0
  181.4480  179.7090  139.3210 C   0  0  1  0  0  0  0  0  0  0  0  0
  182.5480  180.5700  138.7220 C   0  0  0  0  0  1  0  0  0  0  0  0
  179.7470  180.0270  141.0020 C   0  0  0  0  0  2  0  0  0  0  0  0
  180.9780  178.6510  138.2990 C   0  0  0  0  0  2  0  0  0  0  0  0
  181.6230  178.8290  136.9980 N   0  0  0  0  0  0  0  0  0  0  0  0
  181.4870  176.4330  136.3300 C   0  0  0  0  0  2  0  0  0  0  0  0
  179.7420  177.8760  135.6720 C   0  0  0  0  0  2  0  0  0  0  0  0
  180.5970  176.7810  135.2290 N   0  0  0  0  0  2  0  0  0  0  0  0
  180.6000  179.1090  135.9800 C   0  0  0  0  0  2  0  0  0  0  0  0
  182.3940  177.6240  136.6600 C   0  0  0  0  0  2  0  0  0  0  0  0
  189.4660  177.8430  138.9580 N   0  0  0  0  0  2  0  0  0  0  0  0
  189.6070  176.5980  138.2130 C   0  0  1  0  0  3  0  0  0  0  0  0
  188.2760  176.1870  137.6030 C   0  0  0  0  0  1  0  0  0  0  0  0
  190.6970  176.7280  137.1500 C   0  0  0  0  0  2  0  0  0  0  0  0
  191.8370  175.7270  137.3360 C   0  0  2  0  0  3  0  0  0  0  0  0
  191.5240  174.8260  138.3550 O   0  0  0  0  0  1  0  0  0  0  0  0
  193.3620  176.8320  138.9840 O   0  0  0  0  0  1  0  0  0  0  0  0
  193.9420  176.6820  136.7720 O   0  0  0  0  0  0  0  0  0  0  0  0
  193.0990  176.4430  137.6740 C   0  0  0  0  0  0  0  0  0  0  0  0
  1  5  1  0  0  0  0
  1  6  1  0  0  0  0
  2 11  1  0  0  0  0
  3 10  1  0  0  0  0
  4  7  2  0  0  0  0
  4  8  1  0  0  0  0
  7  9  1  0  0  0  0
  8  1  2  0  0  0  0
  9  5  2  0  0  0  0
 11 10  2  0  0  0  0
 11  7  1  0  0  0  0
 12  2  1  0  0  0  0
 12 15  2  0  0  0  0
 13 14  1  0  0  0  0
 13  2  2  0  0  0  0
 14  3  2  0  0  0  0
 15  4  1  0  0  0  0
 16  3  1  6  0  0  0
 16 18  1  0  0  0  0
 17 19  1  0  0  0  0
 17 16  1  0  0  0  0
 19 21  1  6  0  0  0
 19 20  1  0  0  0  0
 20 18  1  0  0  0  0
 21 22  1  0  0  0  0
 22 24  1  0  0  0  0
 23 27  1  0  0  0  0
 25 26  1  6  0  0  0
 25 23  1  0  0  0  0
 25 22  1  0  0  0  0
 27 24  1  0  0  0  0
 28 25  1  0  0  0  0
 29 28  1  0  0  0  0
 30 34  1  0  0  0  0
 31 33  1  0  0  0  0
 32 31  1  0  0  0  0
 32 30  1  0  0  0  0
 33 29  1  0  0  0  0
 34 29  1  0  0  0  0
 35 13  1  0  0  0  0
 36 37  1  6  0  0  0
 36 35  1  0  0  0  0
 38 39  1  0  0  0  0
 38 36  1  0  0  0  0
 39 43  1  0  0  0  0
 39 40  1  1  0  0  0
 42 43  2  0  0  0  0
 43 41  1  0  0  0  0
M  END
>  <MODEL>
2

>  <REMARK>
 VINA RESULT:      -8.9      3.586      9.107
  Name = 
  10 active torsions:
  status: ('A' for Active; 'I' for Inactive)
    1  A    between atoms: C_1  and  C_9
    2  A    between atoms: C_1  and  N_35
    3  A    between atoms: C_2  and  C_13
    4  A    between atoms: C_3  and  N_4
    5  A    between atoms: C_3  and  C_12
    6  A    between atoms: C_9  and  C_32
    7  A    between atoms: N_11  and  C_14
    8  A    between atoms: C_14  and  C_22
    9  A    between atoms: C_32  and  C_37
   10  A    between atoms: C_34  and  N_35
                            x       y       z     vdW  Elec       q    Type
                         _______ _______ _______ _____ _____    ______ ____

>  <TORSDO>
F 10

$$$$
=
 OpenBabel10262422223D

 43 48  0  0  1  0  0  0  0  0999 V2000
  190.9480  176.6860  146.1290 C   0  0  0  0  0  0  0  0  0  0  0  0
  189.4810  177.6050  141.3640 C   0  0  0  0  0  0  0  0  0  0  0  0
  186.9280  178.7020  141.5940 C   0  0  0  0  0  0  0  0  0  0  0  0
  190.8610  176.8920  143.7160 C   0  0  0  0  0  0  0  0  0  0  0  0
  189.6550  177.2090  146.2230 C   0  0  0  0  0  3  0  0  0  0  0  0
  191.8130  176.2270  147.5780 Cl  0  0  0  0  0  0  0  0  0  0  0  0
  189.5520  177.4220  143.8040 C   0  0  0  0  0  0  0  0  0  0  0  0
  191.5500  176.5290  144.8770 C   0  0  0  0  0  3  0  0  0  0  0  0
  188.9600  177.5760  145.0680 C   0  0  0  0  0  3  0  0  0  0  0  0
  187.6180  178.3220  142.7030 N   0  0  0  0  0  0  0  0  0  0  0  0
  188.8670  177.7860  142.6290 C   0  0  0  0  0  0  0  0  0  0  0  0
  190.7850  177.0890  141.3080 C   0  0  0  0  0  3  0  0  0  0  0  0
  188.7650  177.9720  140.1970 C   0  0  0  0  0  0  0  0  0  0  0  0
  187.4930  178.5310  140.3320 C   0  0  0  0  0  3  0  0  0  0  0  0
  191.4680  176.7350  142.4720 C   0  0  0  0  0  3  0  0  0  0  0  0
  185.5580  179.2900  141.7150 C   0  0  1  0  0  3  0  0  0  0  0  0
  184.7850  179.1150  140.4200 C   0  0  0  0  0  2  0  0  0  0  0  0
  184.7670  178.5780  142.8040 C   0  0  0  0  0  2  0  0  0  0  0  0
  183.7990  177.9980  140.6740 C   0  0  1  0  0  3  0  0  0  0  0  0
  183.5000  178.0610  142.1560 C   0  0  0  0  0  2  0  0  0  0  0  0
  182.5370  178.2180  139.8590 C   0  0  0  0  0  2  0  0  0  0  0  0
  181.3690  177.7420  140.6010 N   0  0  0  0  0  0  0  0  0  0  0  0
  178.9960  177.8460  140.7490 C   0  0  0  0  0  2  0  0  0  0  0  0
  180.8630  176.5390  139.9550 C   0  0  0  0  0  2  0  0  0  0  0  0
  180.2450  178.6940  140.6030 C   0  0  1  0  0  0  0  0  0  0  0  0
  180.3710  179.6150  141.8060 C   0  0  0  0  0  1  0  0  0  0  0  0
  179.3720  176.4770  140.2250 C   0  0  0  0  0  2  0  0  0  0  0  0
  180.1440  179.5220  139.3030 C   0  0  0  0  0  2  0  0  0  0  0  0
  180.4830  180.9280  139.5260 N   0  0  0  0  0  0  0  0  0  0  0  0
  181.1640  181.3890  137.1750 C   0  0  0  0  0  2  0  0  0  0  0  0
  178.9310  181.8200  137.7950 C   0  0  0  0  0  2  0  0  0  0  0  0
  180.0620  182.3320  137.0310 N   0  0  0  0  0  2  0  0  0  0  0  0
  179.2960  181.7600  139.2830 C   0  0  0  0  0  2  0  0  0  0  0  0
  181.5940  181.3140  138.6440 C   0  0  0  0  0  2  0  0  0  0  0  0
  189.2720  177.8140  138.8600 N   0  0  0  0  0  2  0  0  0  0  0  0
  189.7060  176.5720  138.2330 C   0  0  1  0  0  3  0  0  0  0  0  0
  188.5260  175.8510  137.6010 C   0  0  0  0  0  1  0  0  0  0  0  0
  190.8130  176.8420  137.2140 C   0  0  0  0  0  2  0  0  0  0  0  0
  191.8880  175.7570  137.1960 C   0  0  2  0  0  3  0  0  0  0  0  0
  191.5010  174.6820  137.9980 O   0  0  0  0  0  1  0  0  0  0  0  0
  193.2850  176.8190  138.9790 O   0  0  0  0  0  1  0  0  0  0  0  0
  194.1930  176.2900  136.9430 O   0  0  0  0  0  0  0  0  0  0  0  0
  193.1820  176.3070  137.6900 C   0  0  0  0  0  0  0  0  0  0  0  0
  1  5  1  0  0  0  0
  1  6  1  0  0  0  0
  2 11  1  0  0  0  0
  3 10  1  0  0  0  0
  4  7  2  0  0  0  0
  4  8  1  0  0  0  0
  7  9  1  0  0  0  0
  8  1  2  0  0  0  0
  9  5  2  0  0  0  0
 11 10  2  0  0  0  0
 11  7  1  0  0  0  0
 12  2  1  0  0  0  0
 12 15  2  0  0  0  0
 13 14  1  0  0  0  0
 13  2  2  0  0  0  0
 14  3  2  0  0  0  0
 15  4  1  0  0  0  0
 16  3  1  6  0  0  0
 16 18  1  0  0  0  0
 17 19  1  0  0  0  0
 17 16  1  0  0  0  0
 19 21  1  6  0  0  0
 19 20  1  0  0  0  0
 20 18  1  0  0  0  0
 21 22  1  0  0  0  0
 22 25  1  0  0  0  0
 24 27  1  0  0  0  0
 24 22  1  0  0  0  0
 25 23  1  0  0  0  0
 25 26  1  1  0  0  0
 27 23  1  0  0  0  0
 28 29  1  0  0  0  0
 28 25  1  0  0  0  0
 30 34  1  0  0  0  0
 31 33  1  0  0  0  0
 32 30  1  0  0  0  0
 32 31  1  0  0  0  0
 33 29  1  0  0  0  0
 34 29  1  0  0  0  0
 35 13  1  0  0  0  0
 36 37  1  6  0  0  0
 36 35  1  0  0  0  0
 38 36  1  0  0  0  0
 39 38  1  0  0  0  0
 39 43  1  0  0  0  0
 39 40  1  1  0  0  0
 42 43  2  0  0  0  0
 43 41  1  0  0  0  0
M  END
>  <MODEL>
3

>  <REMARK>
 VINA RESULT:      -8.8      3.663      9.860
  Name = 
  10 active torsions:
  status: ('A' for Active; 'I' for Inactive)
    1  A    between atoms: C_1  and  C_9
    2  A    between atoms: C_1  and  N_35
    3  A    between atoms: C_2  and  C_13
    4  A    between atoms: C_3  and  N_4
    5  A    between atoms: C_3  and  C_12
    6  A    between atoms: C_9  and  C_32
    7  A    between atoms: N_11  and  C_14
    8  A    between atoms: C_14  and  C_22
    9  A    between atoms: C_32  and  C_37
   10  A    between atoms: C_34  and  N_35
                            x       y       z     vdW  Elec       q    Type
                         _______ _______ _______ _____ _____    ______ ____

>  <TORSDO>
F 10

$$$$
=
 OpenBabel10262422223D

 43 48  0  0  1  0  0  0  0  0999 V2000
  188.0080  177.4400  146.7510 C   0  0  0  0  0  0  0  0  0  0  0  0
  186.1580  178.3860  142.1270 C   0  0  0  0  0  0  0  0  0  0  0  0
  188.3660  178.2580  140.4270 C   0  0  0  0  0  0  0  0  0  0  0  0
  186.5450  177.9160  144.8790 C   0  0  0  0  0  0  0  0  0  0  0  0
  189.1080  177.4100  145.8890 C   0  0  0  0  0  3  0  0  0  0  0  0
  188.2330  177.1630  148.4640 Cl  0  0  0  0  0  0  0  0  0  0  0  0
  187.6540  177.8880  144.0000 C   0  0  0  0  0  0  0  0  0  0  0  0
  186.7290  177.6920  146.2470 C   0  0  0  0  0  3  0  0  0  0  0  0
  188.9330  177.6320  144.5200 C   0  0  0  0  0  3  0  0  0  0  0  0
  188.5130  178.0620  141.7650 N   0  0  0  0  0  0  0  0  0  0  0  0
  187.4580  178.1130  142.6240 C   0  0  0  0  0  0  0  0  0  0  0  0
  185.0770  178.3950  143.0200 C   0  0  0  0  0  3  0  0  0  0  0  0
  185.9920  178.6180  140.7380 C   0  0  0  0  0  0  0  0  0  0  0  0
  187.1060  178.5380  139.9010 C   0  0  0  0  0  3  0  0  0  0  0  0
  185.2670  178.1640  144.3820 C   0  0  0  0  0  3  0  0  0  0  0  0
  189.5480  178.1910  139.5140 C   0  0  1  0  0  3  0  0  0  0  0  0
  190.2180  176.8310  139.6060 C   0  0  0  0  0  2  0  0  0  0  0  0
  189.1140  178.3760  138.0670 C   0  0  0  0  0  2  0  0  0  0  0  0
  189.8210  176.0890  138.3520 C   0  0  1  0  0  3  0  0  0  0  0  0
  189.6030  177.1600  137.3060 C   0  0  0  0  0  2  0  0  0  0  0  0
  190.9300  175.1410  137.9300 C   0  0  0  0  0  2  0  0  0  0  0  0
  190.7430  174.7350  136.5370 N   0  0  0  0  0  0  0  0  0  0  0  0
  191.5840  173.3470  134.7960 C   0  0  0  0  0  2  0  0  0  0  0  0
  189.8910  173.5560  136.5030 C   0  0  0  0  0  2  0  0  0  0  0  0
  191.9940  174.3400  135.8660 C   0  0  1  0  0  0  0  0  0  0  0  0
  192.6160  175.5610  135.2070 C   0  0  0  0  0  1  0  0  0  0  0  0
  190.2710  172.7610  135.2690 C   0  0  0  0  0  2  0  0  0  0  0  0
  193.0100  173.6680  136.8160 C   0  0  0  0  0  2  0  0  0  0  0  0
  194.3880  174.0190  136.4740 N   0  0  0  0  0  0  0  0  0  0  0  0
  195.3260  173.5490  138.7330 C   0  0  0  0  0  2  0  0  0  0  0  0
  195.3590  171.8220  137.1290 C   0  0  0  0  0  2  0  0  0  0  0  0
  196.1320  172.4670  138.1830 N   0  0  0  0  0  2  0  0  0  0  0  0
  195.0940  172.8210  135.9970 C   0  0  0  0  0  2  0  0  0  0  0  0
  195.0560  174.5980  137.6490 C   0  0  0  0  0  2  0  0  0  0  0  0
  184.7300  178.9270  140.1210 N   0  0  0  0  0  2  0  0  0  0  0  0
  183.6720  177.9840  139.7800 C   0  0  1  0  0  3  0  0  0  0  0  0
  182.3900  178.3280  140.5210 C   0  0  0  0  0  1  0  0  0  0  0  0
  183.4550  177.9440  138.2670 C   0  0  0  0  0  2  0  0  0  0  0  0
  183.6190  176.5440  137.6750 C   0  0  2  0  0  3  0  0  0  0  0  0
  183.3580  175.5770  138.6480 O   0  0  0  0  0  1  0  0  0  0  0  0
  185.8150  177.4690  136.9130 O   0  0  0  0  0  0  0  0  0  0  0  0
  185.4480  175.2080  136.9480 O   0  0  0  0  0  1  0  0  0  0  0  0
  185.0040  176.3660  137.1540 C   0  0  0  0  0  0  0  0  0  0  0  0
  1  6  1  0  0  0  0
  2 11  1  0  0  0  0
  2 12  1  0  0  0  0
  3 10  1  0  0  0  0
  4  8  2  0  0  0  0
  5  1  2  0  0  0  0
  7  9  2  0  0  0  0
  7  4  1  0  0  0  0
  8  1  1  0  0  0  0
  9  5  1  0  0  0  0
 10 11  2  0  0  0  0
 11  7  1  0  0  0  0
 12 15  2  0  0  0  0
 13  2  2  0  0  0  0
 14  3  2  0  0  0  0
 14 13  1  0  0  0  0
 15  4  1  0  0  0  0
 16 17  1  0  0  0  0
 16  3  1  1  0  0  0
 18 16  1  0  0  0  0
 19 21  1  6  0  0  0
 19 17  1  0  0  0  0
 20 18  1  0  0  0  0
 20 19  1  0  0  0  0
 22 21  1  0  0  0  0
 23 27  1  0  0  0  0
 23 25  1  0  0  0  0
 24 22  1  0  0  0  0
 25 26  1  6  0  0  0
 25 22  1  0  0  0  0
 25 28  1  0  0  0  0
 27 24  1  0  0  0  0
 29 28  1  0  0  0  0
 29 34  1  0  0  0  0
 31 32  1  0  0  0  0
 32 30  1  0  0  0  0
 33 29  1  0  0  0  0
 33 31  1  0  0  0  0
 34 30  1  0  0  0  0
 35 13  1  0  0  0  0
 36 35  1  0  0  0  0
 36 37  1  1  0  0  0
 38 36  1  0  0  0  0
 39 38  1  0  0  0  0
 39 40  1  1  0  0  0
 41 43  2  0  0  0  0
 42 43  1  0  0  0  0
 43 39  1  0  0  0  0
M  END
>  <MODEL>
4

>  <REMARK>
 VINA RESULT:      -8.6      1.773      2.440
  Name = 
  10 active torsions:
  status: ('A' for Active; 'I' for Inactive)
    1  A    between atoms: C_1  and  C_9
    2  A    between atoms: C_1  and  N_35
    3  A    between atoms: C_2  and  C_13
    4  A    between atoms: C_3  and  N_4
    5  A    between atoms: C_3  and  C_12
    6  A    between atoms: C_9  and  C_32
    7  A    between atoms: N_11  and  C_14
    8  A    between atoms: C_14  and  C_22
    9  A    between atoms: C_32  and  C_37
   10  A    between atoms: C_34  and  N_35
                            x       y       z     vdW  Elec       q    Type
                         _______ _______ _______ _____ _____    ______ ____

>  <TORSDO>
F 10

$$$$
=
 OpenBabel10262422223D

 43 48  0  0  1  0  0  0  0  0999 V2000
  190.8090  176.9880  146.4640 C   0  0  0  0  0  0  0  0  0  0  0  0
  189.3200  177.2720  141.6260 C   0  0  0  0  0  0  0  0  0  0  0  0
  186.8870  178.6330  141.6990 C   0  0  0  0  0  0  0  0  0  0  0  0
  190.6830  176.8140  144.0500 C   0  0  0  0  0  0  0  0  0  0  0  0
  189.5730  177.6420  146.4840 C   0  0  0  0  0  3  0  0  0  0  0  0
  191.6620  176.6850  147.9600 Cl  0  0  0  0  0  0  0  0  0  0  0  0
  189.4320  177.4750  144.0630 C   0  0  0  0  0  0  0  0  0  0  0  0
  191.3630  176.5760  145.2480 C   0  0  0  0  0  3  0  0  0  0  0  0
  188.8880  177.8860  145.2910 C   0  0  0  0  0  3  0  0  0  0  0  0
  187.5650  178.3710  142.8480 N   0  0  0  0  0  0  0  0  0  0  0  0
  188.7560  177.7120  142.8510 C   0  0  0  0  0  0  0  0  0  0  0  0
  190.5680  176.6310  141.6430 C   0  0  0  0  0  3  0  0  0  0  0  0
  188.6130  177.5160  140.4210 C   0  0  0  0  0  0  0  0  0  0  0  0
  187.4020  178.2090  140.4760 C   0  0  0  0  0  3  0  0  0  0  0  0
  191.2430  176.4030  142.8420 C   0  0  0  0  0  3  0  0  0  0  0  0
  185.5820  179.3620  141.7360 C   0  0  1  0  0  3  0  0  0  0  0  0
  184.6420  178.8300  140.6670 C   0  0  0  0  0  2  0  0  0  0  0  0
  184.8920  179.1540  143.0770 C   0  0  0  0  0  2  0  0  0  0  0  0
  183.6300  177.9760  141.3950 C   0  0  1  0  0  3  0  0  0  0  0  0
  183.5240  178.5750  142.7790 C   0  0  0  0  0  2  0  0  0  0  0  0
  182.2910  178.0280  140.6810 C   0  0  0  0  0  2  0  0  0  0  0  0
  181.7440  179.3840  140.7320 N   0  0  0  0  0  0  0  0  0  0  0  0
  180.1830  180.8800  139.7380 C   0  0  0  0  0  2  0  0  0  0  0  0
  180.5680  179.3820  141.5900 C   0  0  0  0  0  2  0  0  0  0  0  0
  181.2810  179.8820  139.4250 C   0  0  1  0  0  0  0  0  0  0  0  0
  182.4260  180.5970  138.7270 C   0  0  0  0  0  1  0  0  0  0  0  0
  179.6500  180.4840  141.0980 C   0  0  0  0  0  2  0  0  0  0  0  0
  180.7090  178.7710  138.5170 C   0  0  0  0  0  2  0  0  0  0  0  0
  181.3600  178.7520  137.2070 N   0  0  0  0  0  0  0  0  0  0  0  0
  181.0720  176.3060  136.8290 C   0  0  0  0  0  2  0  0  0  0  0  0
  179.4200  177.7670  135.9950 C   0  0  0  0  0  2  0  0  0  0  0  0
  180.2030  176.5750  135.6910 N   0  0  0  0  0  2  0  0  0  0  0  0
  180.3540  178.9720  136.1580 C   0  0  0  0  0  2  0  0  0  0  0  0
  182.0530  177.4690  137.0190 C   0  0  0  0  0  2  0  0  0  0  0  0
  189.0700  177.0980  139.1230 N   0  0  0  0  0  2  0  0  0  0  0  0
  189.9240  177.8530  138.2150 C   0  0  1  0  0  3  0  0  0  0  0  0
  190.9640  176.9440  137.5800 C   0  0  0  0  0  1  0  0  0  0  0  0
  189.0850  178.5730  137.1600 C   0  0  0  0  0  2  0  0  0  0  0  0
  188.1490  177.6350  136.3980 C   0  0  2  0  0  3  0  0  0  0  0  0
  188.3430  177.7750  135.0230 O   0  0  0  0  0  1  0  0  0  0  0  0
  185.7150  177.0540  136.3910 O   0  0  0  0  0  0  0  0  0  0  0  0
  186.4490  179.0030  137.3480 O   0  0  0  0  0  1  0  0  0  0  0  0
  186.7300  177.9420  136.7340 C   0  0  0  0  0  0  0  0  0  0  0  0
  1  5  1  0  0  0  0
  1  6  1  0  0  0  0
  2 12  1  0  0  0  0
  2 11  1  0  0  0  0
  3 10  1  0  0  0  0
  4  7  2  0  0  0  0
  4  8  1  0  0  0  0
  7  9  1  0  0  0  0
  8  1  2  0  0  0  0
  9  5  2  0  0  0  0
 10 11  2  0  0  0  0
 11  7  1  0  0  0  0
 12 15  2  0  0  0  0
 13 14  1  0  0  0  0
 13  2  2  0  0  0  0
 14  3  2  0  0  0  0
 15  4  1  0  0  0  0
 16  3  1  1  0  0  0
 16 18  1  0  0  0  0
 17 19  1  0  0  0  0
 17 16  1  0  0  0  0
 19 21  1  6  0  0  0
 19 20  1  0  0  0  0
 20 18  1  0  0  0  0
 21 22  1  0  0  0  0
 22 24  1  0  0  0  0
 23 27  1  0  0  0  0
 25 26  1  6  0  0  0
 25 23  1  0  0  0  0
 25 22  1  0  0  0  0
 27 24  1  0  0  0  0
 28 25  1  0  0  0  0
 29 28  1  0  0  0  0
 30 34  1  0  0  0  0
 31 33  1  0  0  0  0
 32 31  1  0  0  0  0
 32 30  1  0  0  0  0
 33 29  1  0  0  0  0
 34 29  1  0  0  0  0
 35 13  1  0  0  0  0
 36 37  1  6  0  0  0
 36 35  1  0  0  0  0
 38 36  1  0  0  0  0
 39 40  1  6  0  0  0
 39 43  1  0  0  0  0
 39 38  1  0  0  0  0
 41 43  2  0  0  0  0
 43 42  1  0  0  0  0
M  END
>  <MODEL>
5

>  <REMARK>
 VINA RESULT:      -8.5      3.140      8.763
  Name = 
  10 active torsions:
  status: ('A' for Active; 'I' for Inactive)
    1  A    between atoms: C_1  and  C_9
    2  A    between atoms: C_1  and  N_35
    3  A    between atoms: C_2  and  C_13
    4  A    between atoms: C_3  and  N_4
    5  A    between atoms: C_3  and  C_12
    6  A    between atoms: C_9  and  C_32
    7  A    between atoms: N_11  and  C_14
    8  A    between atoms: C_14  and  C_22
    9  A    between atoms: C_32  and  C_37
   10  A    between atoms: C_34  and  N_35
                            x       y       z     vdW  Elec       q    Type
                         _______ _______ _______ _____ _____    ______ ____

>  <TORSDO>
F 10

$$$$
=
 OpenBabel10262422223D

 43 48  0  0  1  0  0  0  0  0999 V2000
  191.0390  176.6450  146.3700 C   0  0  0  0  0  0  0  0  0  0  0  0
  187.4920  178.2440  143.1210 C   0  0  0  0  0  0  0  0  0  0  0  0
  188.7450  178.2430  140.6290 C   0  0  0  0  0  0  0  0  0  0  0  0
  188.9690  177.4130  145.3740 C   0  0  0  0  0  0  0  0  0  0  0  0
  191.6590  176.6790  145.1190 C   0  0  0  0  0  3  0  0  0  0  0  0
  191.9440  176.1430  147.7810 Cl  0  0  0  0  0  0  0  0  0  0  0  0
  189.5910  177.4520  144.1030 C   0  0  0  0  0  0  0  0  0  0  0  0
  189.6960  177.0100  146.4970 C   0  0  0  0  0  3  0  0  0  0  0  0
  190.9400  177.0800  143.9890 C   0  0  0  0  0  3  0  0  0  0  0  0
  189.4290  177.8730  141.7440 N   0  0  0  0  0  0  0  0  0  0  0  0
  188.8500  177.8580  142.9770 C   0  0  0  0  0  0  0  0  0  0  0  0
  186.8990  178.1840  144.3910 C   0  0  0  0  0  3  0  0  0  0  0  0
  186.7730  178.6570  141.9710 C   0  0  0  0  0  0  0  0  0  0  0  0
  187.4130  178.6390  140.7300 C   0  0  0  0  0  3  0  0  0  0  0  0
  187.6300  177.7740  145.5060 C   0  0  0  0  0  3  0  0  0  0  0  0
  189.4140  178.2440  139.2920 C   0  0  1  0  0  3  0  0  0  0  0  0
  190.7330  177.4920  139.3530 C   0  0  0  0  0  2  0  0  0  0  0  0
  188.5470  177.5370  138.2600 C   0  0  0  0  0  2  0  0  0  0  0  0
  190.4810  176.1620  138.6830 C   0  0  1  0  0  3  0  0  0  0  0  0
  189.3900  176.4260  137.6690 C   0  0  0  0  0  2  0  0  0  0  0  0
  191.7450  175.6710  138.0000 C   0  0  0  0  0  2  0  0  0  0  0  0
  191.4210  175.0910  136.6970 N   0  0  0  0  0  0  0  0  0  0  0  0
  192.2540  173.7540  134.9120 C   0  0  0  0  0  2  0  0  0  0  0  0
  190.8870  173.7520  136.9010 C   0  0  0  0  0  2  0  0  0  0  0  0
  192.5930  174.9210  135.8200 C   0  0  1  0  0  0  0  0  0  0  0  0
  192.7760  176.1750  134.9800 C   0  0  0  0  0  1  0  0  0  0  0  0
  191.2250  172.9400  135.6660 C   0  0  0  0  0  2  0  0  0  0  0  0
  193.8910  174.5990  136.5920 C   0  0  0  0  0  2  0  0  0  0  0  0
  194.6890  173.5780  135.9120 N   0  0  0  0  0  0  0  0  0  0  0  0
  196.8990  174.5430  136.5360 C   0  0  0  0  0  2  0  0  0  0  0  0
  195.9660  172.8910  137.9360 C   0  0  0  0  0  2  0  0  0  0  0  0
  197.2050  173.3550  137.3230 N   0  0  0  0  0  2  0  0  0  0  0  0
  194.9720  172.4780  136.8440 C   0  0  0  0  0  2  0  0  0  0  0  0
  195.9310  174.1800  135.4050 C   0  0  0  0  0  2  0  0  0  0  0  0
  185.4020  179.0930  141.9950 N   0  0  0  0  0  2  0  0  0  0  0  0
  184.2180  178.2440  141.9920 C   0  0  1  0  0  3  0  0  0  0  0  0
  183.2760  178.6370  143.1200 C   0  0  0  0  0  1  0  0  0  0  0  0
  183.5210  178.2980  140.6320 C   0  0  0  0  0  2  0  0  0  0  0  0
  184.4420  178.7650  139.5050 C   0  0  2  0  0  3  0  0  0  0  0  0
  184.1830  180.1010  139.1950 O   0  0  0  0  0  1  0  0  0  0  0  0
  185.2770  177.7120  137.3950 O   0  0  0  0  0  0  0  0  0  0  0  0
  183.1180  177.3860  138.0890 O   0  0  0  0  0  1  0  0  0  0  0  0
  184.2360  177.9230  138.2920 C   0  0  0  0  0  0  0  0  0  0  0  0
  1  8  1  0  0  0  0
  1  6  1  0  0  0  0
  2 12  1  0  0  0  0
  3 14  2  0  0  0  0
  3 10  1  0  0  0  0
  4 15  1  0  0  0  0
  4  8  2  0  0  0  0
  5  1  2  0  0  0  0
  7  4  1  0  0  0  0
  9  7  2  0  0  0  0
  9  5  1  0  0  0  0
 10 11  2  0  0  0  0
 11  2  1  0  0  0  0
 11  7  1  0  0  0  0
 12 15  2  0  0  0  0
 13 35  1  0  0  0  0
 13  2  2  0  0  0  0
 14 13  1  0  0  0  0
 16 17  1  0  0  0  0
 16  3  1  1  0  0  0
 18 16  1  0  0  0  0
 19 21  1  6  0  0  0
 19 17  1  0  0  0  0
 20 18  1  0  0  0  0
 20 19  1  0  0  0  0
 22 24  1  0  0  0  0
 22 21  1  0  0  0  0
 23 27  1  0  0  0  0
 23 25  1  0  0  0  0
 25 26  1  6  0  0  0
 25 28  1  0  0  0  0
 25 22  1  0  0  0  0
 27 24  1  0  0  0  0
 29 28  1  0  0  0  0
 29 33  1  0  0  0  0
 30 32  1  0  0  0  0
 32 31  1  0  0  0  0
 33 31  1  0  0  0  0
 34 29  1  0  0  0  0
 34 30  1  0  0  0  0
 36 35  1  0  0  0  0
 36 37  1  1  0  0  0
 38 36  1  0  0  0  0
 39 40  1  6  0  0  0
 39 38  1  0  0  0  0
 41 43  2  0  0  0  0
 42 43  1  0  0  0  0
 43 39  1  0  0  0  0
M  END
>  <MODEL>
6

>  <REMARK>
 VINA RESULT:      -8.5      1.138      1.619
  Name = 
  10 active torsions:
  status: ('A' for Active; 'I' for Inactive)
    1  A    between atoms: C_1  and  C_9
    2  A    between atoms: C_1  and  N_35
    3  A    between atoms: C_2  and  C_13
    4  A    between atoms: C_3  and  N_4
    5  A    between atoms: C_3  and  C_12
    6  A    between atoms: C_9  and  C_32
    7  A    between atoms: N_11  and  C_14
    8  A    between atoms: C_14  and  C_22
    9  A    between atoms: C_32  and  C_37
   10  A    between atoms: C_34  and  N_35
                            x       y       z     vdW  Elec       q    Type
                         _______ _______ _______ _____ _____    ______ ____

>  <TORSDO>
F 10

$$$$
=
 OpenBabel10262422223D

 43 48  0  0  1  0  0  0  0  0999 V2000
  190.9430  176.7260  146.2650 C   0  0  0  0  0  0  0  0  0  0  0  0
  189.2710  177.3650  141.5210 C   0  0  0  0  0  0  0  0  0  0  0  0
  186.8120  178.6530  141.7920 C   0  0  0  0  0  0  0  0  0  0  0  0
  190.7330  176.7460  143.8510 C   0  0  0  0  0  0  0  0  0  0  0  0
  189.6950  177.3440  146.3820 C   0  0  0  0  0  3  0  0  0  0  0  0
  191.8580  176.3240  147.7010 Cl  0  0  0  0  0  0  0  0  0  0  0  0
  189.4680  177.3720  143.9620 C   0  0  0  0  0  0  0  0  0  0  0  0
  191.4610  176.4290  145.0010 C   0  0  0  0  0  3  0  0  0  0  0  0
  188.9600  177.6660  145.2370 C   0  0  0  0  0  3  0  0  0  0  0  0
  187.5380  178.3150  142.8910 N   0  0  0  0  0  0  0  0  0  0  0  0
  188.7430  177.6890  142.7980 C   0  0  0  0  0  0  0  0  0  0  0  0
  190.5330  176.7570  141.4420 C   0  0  0  0  0  3  0  0  0  0  0  0
  188.5150  177.6890  140.3670 C   0  0  0  0  0  0  0  0  0  0  0  0
  187.2920  178.3440  140.5200 C   0  0  0  0  0  3  0  0  0  0  0  0
  191.2560  176.4490  142.5940 C   0  0  0  0  0  3  0  0  0  0  0  0
  185.4930  179.3430  141.9340 C   0  0  1  0  0  3  0  0  0  0  0  0
  184.5730  178.9800  140.7810 C   0  0  0  0  0  2  0  0  0  0  0  0
  184.7960  178.9030  143.2140 C   0  0  0  0  0  2  0  0  0  0  0  0
  183.5710  178.0000  141.3440 C   0  0  1  0  0  3  0  0  0  0  0  0
  183.4420  178.3580  142.8080 C   0  0  0  0  0  2  0  0  0  0  0  0
  182.2370  178.1460  140.6330 C   0  0  0  0  0  2  0  0  0  0  0  0
  182.4470  178.5810  139.2520 N   0  0  0  0  0  0  0  0  0  0  0  0
  181.6900  178.3350  137.0090 C   0  0  0  0  0  2  0  0  0  0  0  0
  181.5800  179.7180  138.9840 C   0  0  0  0  0  2  0  0  0  0  0  0
  182.0860  177.5610  138.2530 C   0  0  1  0  0  0  0  0  0  0  0  0
  183.3050  176.7060  137.9460 C   0  0  0  0  0  1  0  0  0  0  0  0
  181.2590  179.6990  137.5020 C   0  0  0  0  0  2  0  0  0  0  0  0
  180.9030  176.6700  138.6900 C   0  0  0  0  0  2  0  0  0  0  0  0
  181.2900  175.2620  138.7910 N   0  0  0  0  0  0  0  0  0  0  0  0
  179.0470  174.4430  139.4990 C   0  0  0  0  0  2  0  0  0  0  0  0
  179.5650  174.4300  137.1990 C   0  0  0  0  0  2  0  0  0  0  0  0
  178.9310  173.6700  138.2690 N   0  0  0  0  0  2  0  0  0  0  0  0
  181.0590  174.5990  137.4990 C   0  0  0  0  0  2  0  0  0  0  0  0
  180.5250  174.6150  139.8660 C   0  0  0  0  0  2  0  0  0  0  0  0
  188.9340  177.3900  139.0230 N   0  0  0  0  0  2  0  0  0  0  0  0
  188.1390  177.5360  137.8100 C   0  0  1  0  0  3  0  0  0  0  0  0
  188.6650  178.6820  136.9610 C   0  0  0  0  0  1  0  0  0  0  0  0
  188.1070  176.2230  137.0280 C   0  0  0  0  0  2  0  0  0  0  0  0
  189.4780  175.8130  136.4900 C   0  0  2  0  0  3  0  0  0  0  0  0
  189.4030  175.5730  135.1170 O   0  0  0  0  0  1  0  0  0  0  0  0
  189.3310  173.3610  136.9650 O   0  0  0  0  0  0  0  0  0  0  0  0
  190.9420  174.6510  137.9610 O   0  0  0  0  0  1  0  0  0  0  0  0
  189.9550  174.5840  137.1850 C   0  0  0  0  0  0  0  0  0  0  0  0
  1  5  1  0  0  0  0
  1  6  1  0  0  0  0
  2 11  1  0  0  0  0
  3 10  1  0  0  0  0
  4  7  2  0  0  0  0
  4  8  1  0  0  0  0
  7  9  1  0  0  0  0
  8  1  2  0  0  0  0
  9  5  2  0  0  0  0
 11 10  2  0  0  0  0
 11  7  1  0  0  0  0
 12  2  1  0  0  0  0
 12 15  2  0  0  0  0
 13 14  1  0  0  0  0
 13  2  2  0  0  0  0
 14  3  2  0  0  0  0
 15  4  1  0  0  0  0
 16  3  1  6  0  0  0
 16 18  1  0  0  0  0
 17 19  1  0  0  0  0
 17 16  1  0  0  0  0
 19 21  1  6  0  0  0
 19 20  1  0  0  0  0
 20 18  1  0  0  0  0
 22 21  1  0  0  0  0
 23 27  1  0  0  0  0
 23 25  1  0  0  0  0
 24 22  1  0  0  0  0
 25 26  1  6  0  0  0
 25 28  1  0  0  0  0
 25 22  1  0  0  0  0
 27 24  1  0  0  0  0
 28 29  1  0  0  0  0
 29 34  1  0  0  0  0
 30 34  1  0  0  0  0
 31 33  1  0  0  0  0
 31 32  1  0  0  0  0
 32 30  1  0  0  0  0
 33 29  1  0  0  0  0
 35 13  1  0  0  0  0
 36 37  1  6  0  0  0
 36 35  1  0  0  0  0
 38 36  1  0  0  0  0
 39 40  1  6  0  0  0
 39 38  1  0  0  0  0
 39 43  1  0  0  0  0
 41 43  2  0  0  0  0
 43 42  1  0  0  0  0
M  END
>  <MODEL>
7

>  <REMARK>
 VINA RESULT:      -8.4      3.669      8.579
  Name = 
  10 active torsions:
  status: ('A' for Active; 'I' for Inactive)
    1  A    between atoms: C_1  and  C_9
    2  A    between atoms: C_1  and  N_35
    3  A    between atoms: C_2  and  C_13
    4  A    between atoms: C_3  and  N_4
    5  A    between atoms: C_3  and  C_12
    6  A    between atoms: C_9  and  C_32
    7  A    between atoms: N_11  and  C_14
    8  A    between atoms: C_14  and  C_22
    9  A    between atoms: C_32  and  C_37
   10  A    between atoms: C_34  and  N_35
                            x       y       z     vdW  Elec       q    Type
                         _______ _______ _______ _____ _____    ______ ____

>  <TORSDO>
F 10

$$$$
=
 OpenBabel10262422223D

 43 48  0  0  1  0  0  0  0  0999 V2000
  188.1870  177.5030  145.5820 C   0  0  0  0  0  0  0  0  0  0  0  0
  183.7080  178.7300  143.5500 C   0  0  0  0  0  0  0  0  0  0  0  0
  184.0650  178.4530  140.7980 C   0  0  0  0  0  0  0  0  0  0  0  0
  185.8760  178.1550  145.2570 C   0  0  0  0  0  0  0  0  0  0  0  0
  188.3570  177.3990  144.1990 C   0  0  0  0  0  3  0  0  0  0  0  0
  189.5260  177.1620  146.6560 Cl  0  0  0  0  0  0  0  0  0  0  0  0
  186.0410  178.0530  143.8550 C   0  0  0  0  0  0  0  0  0  0  0  0
  186.9480  177.8800  146.1100 C   0  0  0  0  0  3  0  0  0  0  0  0
  187.2900  177.6720  143.3390 C   0  0  0  0  0  3  0  0  0  0  0  0
  185.0930  178.2100  141.6550 N   0  0  0  0  0  0  0  0  0  0  0  0
  184.9550  178.3310  143.0040 C   0  0  0  0  0  0  0  0  0  0  0  0
  183.5710  178.8110  144.9440 C   0  0  0  0  0  3  0  0  0  0  0  0
  182.6340  179.0120  142.6690 C   0  0  0  0  0  0  0  0  0  0  0  0
  182.8270  178.8570  141.2940 C   0  0  0  0  0  3  0  0  0  0  0  0
  184.6440  178.5280  145.7890 C   0  0  0  0  0  3  0  0  0  0  0  0
  184.2540  178.3070  139.3220 C   0  0  1  0  0  3  0  0  0  0  0  0
  184.1390  176.8490  138.9100 C   0  0  0  0  0  2  0  0  0  0  0  0
  183.1740  179.0690  138.5680 C   0  0  0  0  0  2  0  0  0  0  0  0
  182.7830  176.7100  138.2580 C   0  0  1  0  0  3  0  0  0  0  0  0
  182.4860  178.0680  137.6620 C   0  0  0  0  0  2  0  0  0  0  0  0
  182.8280  175.6440  137.1780 C   0  0  0  0  0  2  0  0  0  0  0  0
  184.2140  175.3700  136.7970 N   0  0  0  0  0  0  0  0  0  0  0  0
  185.6340  173.8810  135.6000 C   0  0  0  0  0  2  0  0  0  0  0  0
  184.4780  175.9980  135.5110 C   0  0  0  0  0  2  0  0  0  0  0  0
  184.4990  173.9370  136.6050 C   0  0  1  0  0  0  0  0  0  0  0  0
  184.9650  173.3390  137.9230 C   0  0  0  0  0  1  0  0  0  0  0  0
  185.5480  175.1750  134.8200 C   0  0  0  0  0  2  0  0  0  0  0  0
  183.2950  173.1440  136.0520 C   0  0  0  0  0  2  0  0  0  0  0  0
  182.9560  172.0040  136.9060 N   0  0  0  0  0  0  0  0  0  0  0  0
  180.6660  171.6820  135.9820 C   0  0  0  0  0  2  0  0  0  0  0  0
  182.4380  170.4520  135.0290 C   0  0  0  0  0  2  0  0  0  0  0  0
  181.0490  170.3730  135.4660 N   0  0  0  0  0  2  0  0  0  0  0  0
  183.3410  170.7570  136.2300 C   0  0  0  0  0  2  0  0  0  0  0  0
  181.5180  172.0250  137.2080 C   0  0  0  0  0  2  0  0  0  0  0  0
  181.3330  179.4470  143.1010 N   0  0  0  0  0  2  0  0  0  0  0  0
  180.1020  178.6670  143.0850 C   0  0  1  0  0  3  0  0  0  0  0  0
  179.2970  178.9120  144.3510 C   0  0  0  0  0  1  0  0  0  0  0  0
  179.2870  178.9740  141.8290 C   0  0  0  0  0  2  0  0  0  0  0  0
  178.9500  177.7260  141.0130 C   0  0  2  0  0  3  0  0  0  0  0  0
  179.6540  176.6260  141.5050 O   0  0  0  0  0  1  0  0  0  0  0  0
  179.3120  176.8730  138.6890 O   0  0  0  0  0  0  0  0  0  0  0  0
  179.5660  179.0990  139.1700 O   0  0  0  0  0  1  0  0  0  0  0  0
  179.2990  177.9410  139.5800 C   0  0  0  0  0  0  0  0  0  0  0  0
  1  8  1  0  0  0  0
  1  6  1  0  0  0  0
  2 12  1  0  0  0  0
  3 14  2  0  0  0  0
  3 10  1  0  0  0  0
  4 15  1  0  0  0  0
  4  8  2  0  0  0  0
  5  1  2  0  0  0  0
  7  4  1  0  0  0  0
  9  7  2  0  0  0  0
  9  5  1  0  0  0  0
 10 11  2  0  0  0  0
 11  2  1  0  0  0  0
 11  7  1  0  0  0  0
 12 15  2  0  0  0  0
 13 35  1  0  0  0  0
 13  2  2  0  0  0  0
 14 13  1  0  0  0  0
 16  3  1  1  0  0  0
 17 16  1  0  0  0  0
 18 16  1  0  0  0  0
 19 21  1  6  0  0  0
 19 17  1  0  0  0  0
 20 19  1  0  0  0  0
 20 18  1  0  0  0  0
 22 21  1  0  0  0  0
 23 25  1  0  0  0  0
 24 22  1  0  0  0  0
 25 22  1  0  0  0  0
 25 26  1  1  0  0  0
 27 24  1  0  0  0  0
 27 23  1  0  0  0  0
 28 25  1  0  0  0  0
 28 29  1  0  0  0  0
 29 34  1  0  0  0  0
 30 34  1  0  0  0  0
 31 32  1  0  0  0  0
 31 33  1  0  0  0  0
 32 30  1  0  0  0  0
 33 29  1  0  0  0  0
 36 35  1  0  0  0  0
 36 37  1  1  0  0  0
 38 36  1  0  0  0  0
 39 40  1  1  0  0  0
 39 38  1  0  0  0  0
 41 43  2  0  0  0  0
 42 43  1  0  0  0  0
 43 39  1  0  0  0  0
M  END
>  <MODEL>
8

>  <REMARK>
 VINA RESULT:      -8.2      5.396      6.973
  Name = 
  10 active torsions:
  status: ('A' for Active; 'I' for Inactive)
    1  A    between atoms: C_1  and  C_9
    2  A    between atoms: C_1  and  N_35
    3  A    between atoms: C_2  and  C_13
    4  A    between atoms: C_3  and  N_4
    5  A    between atoms: C_3  and  C_12
    6  A    between atoms: C_9  and  C_32
    7  A    between atoms: N_11  and  C_14
    8  A    between atoms: C_14  and  C_22
    9  A    between atoms: C_32  and  C_37
   10  A    between atoms: C_34  and  N_35
                            x       y       z     vdW  Elec       q    Type
                         _______ _______ _______ _____ _____    ______ ____

>  <TORSDO>
F 10

$$$$
=
 OpenBabel10262422223D

 43 48  0  0  1  0  0  0  0  0999 V2000
  188.1430  177.5570  145.0160 C   0  0  0  0  0  0  0  0  0  0  0  0
  183.5690  178.8350  143.2400 C   0  0  0  0  0  0  0  0  0  0  0  0
  183.8720  178.9260  140.4690 C   0  0  0  0  0  0  0  0  0  0  0  0
  185.8000  178.1430  144.8190 C   0  0  0  0  0  0  0  0  0  0  0  0
  188.2830  177.6370  143.6280 C   0  0  0  0  0  3  0  0  0  0  0  0
  189.5200  177.1410  146.0110 Cl  0  0  0  0  0  0  0  0  0  0  0  0
  185.9350  178.2270  143.4130 C   0  0  0  0  0  0  0  0  0  0  0  0
  186.9030  177.8080  145.6100 C   0  0  0  0  0  3  0  0  0  0  0  0
  187.1860  177.9700  142.8290 C   0  0  0  0  0  3  0  0  0  0  0  0
  184.9290  178.6200  141.2680 N   0  0  0  0  0  0  0  0  0  0  0  0
  184.8180  178.5630  142.6240 C   0  0  0  0  0  0  0  0  0  0  0  0
  183.4630  178.7310  144.6350 C   0  0  0  0  0  3  0  0  0  0  0  0
  182.4640  179.1790  142.4230 C   0  0  0  0  0  0  0  0  0  0  0  0
  182.6310  179.2080  141.0360 C   0  0  0  0  0  3  0  0  0  0  0  0
  184.5660  178.3900  145.4180 C   0  0  0  0  0  3  0  0  0  0  0  0
  184.0320  178.9770  138.9840 C   0  0  1  0  0  3  0  0  0  0  0  0
  185.0830  177.9810  138.5240 C   0  0  0  0  0  2  0  0  0  0  0  0
  182.7290  178.5970  138.2940 C   0  0  0  0  0  2  0  0  0  0  0  0
  184.3210  176.8270  137.9150 C   0  0  1  0  0  3  0  0  0  0  0  0
  183.0440  177.4320  137.3770 C   0  0  0  0  0  2  0  0  0  0  0  0
  185.1320  176.1960  136.7960 C   0  0  0  0  0  2  0  0  0  0  0  0
  186.3030  177.0200  136.4950 N   0  0  0  0  0  0  0  0  0  0  0  0
  188.4440  177.0350  135.4570 C   0  0  0  0  0  2  0  0  0  0  0  0
  186.1210  177.6310  135.1870 C   0  0  0  0  0  2  0  0  0  0  0  0
  187.5560  176.2510  136.4040 C   0  0  1  0  0  0  0  0  0  0  0  0
  188.2100  176.1960  137.7750 C   0  0  0  0  0  1  0  0  0  0  0  0
  187.5010  177.8480  134.5960 C   0  0  0  0  0  2  0  0  0  0  0  0
  187.3570  174.8250  135.8460 C   0  0  0  0  0  2  0  0  0  0  0  0
  187.8620  173.8060  136.7670 N   0  0  0  0  0  0  0  0  0  0  0  0
  186.2620  172.0310  136.0640 C   0  0  0  0  0  2  0  0  0  0  0  0
  188.3650  172.1240  135.0020 C   0  0  0  0  0  2  0  0  0  0  0  0
  187.3670  171.2220  135.5630 N   0  0  0  0  0  2  0  0  0  0  0  0
  188.9210  173.0310  136.1050 C   0  0  0  0  0  2  0  0  0  0  0  0
  186.7560  172.9380  137.1960 C   0  0  0  0  0  2  0  0  0  0  0  0
  181.1570  179.4980  142.9310 N   0  0  0  0  0  2  0  0  0  0  0  0
  179.9980  178.6160  142.9710 C   0  0  1  0  0  3  0  0  0  0  0  0
  179.3420  178.6560  144.3420 C   0  0  0  0  0  1  0  0  0  0  0  0
  179.0090  178.9760  141.8630 C   0  0  0  0  0  2  0  0  0  0  0  0
  178.9510  177.9310  140.7490 C   0  0  2  0  0  3  0  0  0  0  0  0
  179.8790  176.9160  140.9920 O   0  0  0  0  0  1  0  0  0  0  0  0
  179.2150  177.8130  138.2640 O   0  0  0  0  0  0  0  0  0  0  0  0
  179.4940  179.7970  139.3770 O   0  0  0  0  0  1  0  0  0  0  0  0
  179.2410  178.5660  139.4330 C   0  0  0  0  0  0  0  0  0  0  0  0
  1  8  1  0  0  0  0
  1  6  1  0  0  0  0
  2 12  1  0  0  0  0
  3 14  2  0  0  0  0
  3 10  1  0  0  0  0
  4 15  1  0  0  0  0
  4  8  2  0  0  0  0
  5  1  2  0  0  0  0
  7  4  1  0  0  0  0
  9  7  2  0  0  0  0
  9  5  1  0  0  0  0
 10 11  2  0  0  0  0
 11  2  1  0  0  0  0
 11  7  1  0  0  0  0
 12 15  2  0  0  0  0
 13 35  1  0  0  0  0
 13  2  2  0  0  0  0
 14 13  1  0  0  0  0
 16  3  1  1  0  0  0
 17 16  1  0  0  0  0
 18 16  1  0  0  0  0
 19 21  1  6  0  0  0
 19 17  1  0  0  0  0
 20 19  1  0  0  0  0
 20 18  1  0  0  0  0
 22 21  1  0  0  0  0
 23 25  1  0  0  0  0
 24 22  1  0  0  0  0
 25 22  1  0  0  0  0
 25 26  1  1  0  0  0
 27 24  1  0  0  0  0
 27 23  1  0  0  0  0
 28 25  1  0  0  0  0
 28 29  1  0  0  0  0
 29 34  1  0  0  0  0
 30 34  1  0  0  0  0
 31 32  1  0  0  0  0
 31 33  1  0  0  0  0
 32 30  1  0  0  0  0
 33 29  1  0  0  0  0
 35 36  1  0  0  0  0
 36 37  1  1  0  0  0
 38 36  1  0  0  0  0
 39 40  1  1  0  0  0
 39 38  1  0  0  0  0
 41 43  2  0  0  0  0
 42 43  1  0  0  0  0
 43 39  1  0  0  0  0
M  END
>  <MODEL>
9

>  <REMARK>
 VINA RESULT:      -8.1      3.603      5.067
  Name = 
  10 active torsions:
  status: ('A' for Active; 'I' for Inactive)
    1  A    between atoms: C_1  and  C_9
    2  A    between atoms: C_1  and  N_35
    3  A    between atoms: C_2  and  C_13
    4  A    between atoms: C_3  and  N_4
    5  A    between atoms: C_3  and  C_12
    6  A    between atoms: C_9  and  C_32
    7  A    between atoms: N_11  and  C_14
    8  A    between atoms: C_14  and  C_22
    9  A    between atoms: C_32  and  C_37
   10  A    between atoms: C_34  and  N_35
                            x       y       z     vdW  Elec       q    Type
                         _______ _______ _______ _____ _____    ______ ____

>  <TORSDO>
F 10

$$$$
