=
 OpenBabel10252415023D

 34 39  0  0  1  0  0  0  0  0999 V2000
  186.8660  177.9660  145.5260 C   0  0  0  0  0  0  0  0  0  0  0  0
  188.5040  177.1240  143.9280 C   0  0  0  0  0  0  0  0  0  0  0  0
  186.2780  178.1880  143.0920 C   0  0  0  0  0  0  0  0  0  0  0  0
  185.5890  178.6260  140.7640 C   0  0  0  0  0  0  0  0  0  0  0  0
  188.9420  177.0110  146.3150 C   0  0  0  0  0  3  0  0  0  0  0  0
  189.3210  176.7610  145.0030 C   0  0  0  0  0  3  0  0  0  0  0  0
  187.9930  178.4580  141.3870 N   0  0  0  0  0  0  0  0  0  0  0  0
  187.2550  177.7770  144.1690 C   0  0  0  0  0  0  0  0  0  0  0  0
  188.7750  177.2720  141.4590 C   0  0  0  0  0  0  0  0  0  0  0  0
  185.9180  178.4990  139.4190 O   0  0  0  0  0  1  0  0  0  0  0  0
  187.7110  177.5960  146.5740 C   0  0  0  0  0  3  0  0  0  0  0  0
  184.8250  178.3740  143.5220 C   0  0  2  0  0  3  0  0  0  0  0  0
  185.4890  178.4090  145.9190 C   0  0  0  0  0  2  0  0  0  0  0  0
  189.0160  176.6880  142.6220 C   0  0  0  0  0  3  0  0  0  0  0  0
  184.3330  178.8970  141.0900 C   0  0  0  0  0  3  0  0  0  0  0  0
  183.9450  179.1260  142.5130 C   0  0  1  0  0  3  0  0  0  0  0  0
  188.4230  179.5110  140.5670 N   0  0  0  0  0  1  0  0  0  0  0  0
  186.6270  178.4170  141.8010 C   0  0  0  0  0  0  0  0  0  0  0  0
  184.7960  179.1770  144.8140 C   0  0  0  0  0  2  0  0  0  0  0  0
  180.2810  178.3290  141.8520 C   0  0  0  0  0  0  0  0  0  0  0  0
  179.7700  178.3220  143.1530 C   0  0  0  0  0  3  0  0  0  0  0  0
  182.4890  178.8450  142.7210 C   0  0  0  0  0  0  0  0  0  0  0  0
  180.6160  178.5760  144.2380 C   0  0  0  0  0  3  0  0  0  0  0  0
  181.6380  178.5900  141.6350 C   0  0  0  0  0  3  0  0  0  0  0  0
  181.9730  178.8370  144.0220 C   0  0  0  0  0  3  0  0  0  0  0  0
  179.4630  178.0830  140.8020 F   0  0  0  0  0  0  0  0  0  0  0  0
  189.4430  176.7330  140.2340 C   0  0  0  0  0  2  0  0  0  0  0  0
  188.8810  178.1530  137.6750 C   0  0  0  0  0  1  0  0  0  0  0  0
  190.3330  177.7390  139.6470 N   0  0  0  0  0  0  0  0  0  0  0  0
  190.2490  177.7200  138.1740 C   0  0  1  0  0  3  0  0  0  0  0  0
  191.7770  175.6920  138.3560 C   0  0  0  0  0  2  0  0  0  0  0  0
  192.5970  176.7130  139.1310 C   0  0  0  0  0  2  0  0  0  0  0  0
  191.7060  177.4790  140.1230 C   0  0  0  0  0  2  0  0  0  0  0  0
  190.6640  176.3740  137.5580 C   0  0  0  0  0  2  0  0  0  0  0  0
  1 13  1  0  0  0  0
  1 11  1  0  0  0  0
  2  8  1  0  0  0  0
  2  6  2  0  0  0  0
  3 12  1  0  0  0  0
  3  8  1  0  0  0  0
  4 15  2  0  0  0  0
  4 18  1  0  0  0  0
  5 11  2  0  0  0  0
  6  5  1  0  0  0  0
  7  9  1  0  0  0  0
  7 18  1  0  0  0  0
  8  1  2  0  0  0  0
  9 14  2  0  0  0  0
 10  4  1  0  0  0  0
 12 19  1  1  0  0  0
 14  2  1  0  0  0  0
 15 16  1  0  0  0  0
 16 22  1  6  0  0  0
 16 12  1  0  0  0  0
 17  7  1  0  0  0  0
 18  3  2  0  0  0  0
 19 13  1  0  0  0  0
 20 21  1  0  0  0  0
 21 23  2  0  0  0  0
 22 25  2  0  0  0  0
 24 20  2  0  0  0  0
 24 22  1  0  0  0  0
 25 23  1  0  0  0  0
 26 20  1  0  0  0  0
 27  9  1  0  0  0  0
 29 33  1  0  0  0  0
 29 27  1  0  0  0  0
 30 28  1  1  0  0  0
 30 29  1  0  0  0  0
 31 32  1  0  0  0  0
 32 33  1  0  0  0  0
 34 30  1  0  0  0  0
 34 31  1  0  0  0  0
M  END
>  <MODEL>
1

>  <REMARK>
 VINA RESULT:     -10.9      0.000      0.000
  Name = 
  3 active torsions:
  status: ('A' for Active; 'I' for Inactive)
    1  A    between atoms: C_3  and  N_13
    2  A    between atoms: C_3  and  C_17
    3  A    between atoms: C_12  and  C_28
                            x       y       z     vdW  Elec       q    Type
                         _______ _______ _______ _____ _____    ______ ____

>  <TORSDO>
F 3

$$$$
=
 OpenBabel10252415023D

 34 39  0  0  1  0  0  0  0  0999 V2000
  184.0280  178.6510  144.8150 C   0  0  0  0  0  0  0  0  0  0  0  0
  186.3440  177.9350  144.5490 C   0  0  0  0  0  0  0  0  0  0  0  0
  184.8770  178.4440  142.4580 C   0  0  0  0  0  0  0  0  0  0  0  0
  185.5650  178.4420  140.0880 C   0  0  0  0  0  0  0  0  0  0  0  0
  185.3880  178.2150  146.7650 C   0  0  0  0  0  3  0  0  0  0  0  0
  186.4530  177.8740  145.9420 C   0  0  0  0  0  3  0  0  0  0  0  0
  187.2200  178.8110  141.9110 N   0  0  0  0  0  0  0  0  0  0  0  0
  185.1210  178.3660  143.9470 C   0  0  0  0  0  0  0  0  0  0  0  0
  187.9290  177.8130  142.6360 C   0  0  0  0  0  0  0  0  0  0  0  0
  186.5960  178.2070  139.1860 O   0  0  0  0  0  1  0  0  0  0  0  0
  184.1760  178.5860  146.2010 C   0  0  0  0  0  3  0  0  0  0  0  0
  183.4210  178.4060  142.0010 C   0  0  2  0  0  3  0  0  0  0  0  0
  182.6330  178.8740  144.3130 C   0  0  0  0  0  2  0  0  0  0  0  0
  187.5320  177.4390  143.8410 C   0  0  0  0  0  3  0  0  0  0  0  0
  184.3220  178.5100  139.6330 C   0  0  0  0  0  3  0  0  0  0  0  0
  183.1910  178.8430  140.5460 C   0  0  1  0  0  3  0  0  0  0  0  0
  187.9400  179.8120  141.2440 N   0  0  0  0  0  1  0  0  0  0  0  0
  185.8640  178.5670  141.5350 C   0  0  0  0  0  0  0  0  0  0  0  0
  182.6090  179.3490  142.8760 C   0  0  0  0  0  2  0  0  0  0  0  0
  180.4410  176.4760  139.3920 C   0  0  0  0  0  0  0  0  0  0  0  0
  179.4590  177.3850  138.9850 C   0  0  0  0  0  3  0  0  0  0  0  0
  181.8950  178.3210  140.0040 C   0  0  0  0  0  0  0  0  0  0  0  0
  179.6940  178.7600  139.0870 C   0  0  0  0  0  3  0  0  0  0  0  0
  181.6570  176.9420  139.9000 C   0  0  0  0  0  3  0  0  0  0  0  0
  180.9100  179.2270  139.5950 C   0  0  0  0  0  3  0  0  0  0  0  0
  180.2140  175.1450  139.2930 F   0  0  0  0  0  0  0  0  0  0  0  0
  189.2090  177.2560  142.0980 C   0  0  0  0  0  2  0  0  0  0  0  0
  191.7730  177.2670  140.5800 C   0  0  0  0  0  1  0  0  0  0  0  0
  190.3270  178.1580  142.3910 N   0  0  0  0  0  0  0  0  0  0  0  0
  191.6170  177.5190  142.0700 C   0  0  1  0  0  3  0  0  0  0  0  0
  191.2980  176.3180  144.2920 C   0  0  0  0  0  2  0  0  0  0  0  0
  191.1770  177.7640  144.7510 C   0  0  0  0  0  2  0  0  0  0  0  0
  190.2460  178.5510  143.8130 C   0  0  0  0  0  2  0  0  0  0  0  0
  191.8800  176.2380  142.8800 C   0  0  0  0  0  2  0  0  0  0  0  0
  1 11  1  0  0  0  0
  2  6  2  0  0  0  0
  3  8  1  0  0  0  0
  4 18  1  0  0  0  0
  6  5  1  0  0  0  0
  7  9  1  0  0  0  0
  8  2  1  0  0  0  0
  8  1  2  0  0  0  0
  9 14  2  0  0  0  0
 10  4  1  0  0  0  0
 11  5  2  0  0  0  0
 12  3  1  0  0  0  0
 12 19  1  1  0  0  0
 13  1  1  0  0  0  0
 14  2  1  0  0  0  0
 15  4  2  0  0  0  0
 15 16  1  0  0  0  0
 16 22  1  6  0  0  0
 16 12  1  0  0  0  0
 17  7  1  0  0  0  0
 18  7  1  0  0  0  0
 18  3  2  0  0  0  0
 19 13  1  0  0  0  0
 20 24  1  0  0  0  0
 21 23  1  0  0  0  0
 21 20  2  0  0  0  0
 23 25  2  0  0  0  0
 24 22  2  0  0  0  0
 25 22  1  0  0  0  0
 26 20  1  0  0  0  0
 27 29  1  0  0  0  0
 27  9  1  0  0  0  0
 29 33  1  0  0  0  0
 30 28  1  6  0  0  0
 30 29  1  0  0  0  0
 30 34  1  0  0  0  0
 31 32  1  0  0  0  0
 33 32  1  0  0  0  0
 34 31  1  0  0  0  0
M  END
>  <MODEL>
2

>  <REMARK>
 VINA RESULT:      -9.9      1.878      3.281
  Name = 
  3 active torsions:
  status: ('A' for Active; 'I' for Inactive)
    1  A    between atoms: C_3  and  N_13
    2  A    between atoms: C_3  and  C_17
    3  A    between atoms: C_12  and  C_28
                            x       y       z     vdW  Elec       q    Type
                         _______ _______ _______ _____ _____    ______ ____

>  <TORSDO>
F 3

$$$$
=
 OpenBabel10252415023D

 34 39  0  0  1  0  0  0  0  0999 V2000
  188.3520  177.6490  136.9120 C   0  0  0  0  0  0  0  0  0  0  0  0
  185.9300  177.5100  136.6680 C   0  0  0  0  0  0  0  0  0  0  0  0
  186.9870  178.0970  138.9750 C   0  0  0  0  0  0  0  0  0  0  0  0
  185.8240  178.7080  141.0640 C   0  0  0  0  0  0  0  0  0  0  0  0
  187.3840  177.1380  134.7580 C   0  0  0  0  0  3  0  0  0  0  0  0
  186.1140  177.2010  135.3170 C   0  0  0  0  0  3  0  0  0  0  0  0
  184.7550  179.0550  138.8430 N   0  0  0  0  0  0  0  0  0  0  0  0
  187.0610  177.7800  137.5000 C   0  0  0  0  0  0  0  0  0  0  0  0
  183.9900  178.1080  138.1060 C   0  0  0  0  0  0  0  0  0  0  0  0
  184.5970  178.8810  141.6930 O   0  0  0  0  0  1  0  0  0  0  0  0
  188.4970  177.3450  135.5580 C   0  0  0  0  0  3  0  0  0  0  0  0
  188.2510  177.8400  139.7930 C   0  0  2  0  0  3  0  0  0  0  0  0
  189.6150  177.6640  137.7210 C   0  0  0  0  0  2  0  0  0  0  0  0
  184.5310  177.4290  137.1080 C   0  0  0  0  0  3  0  0  0  0  0  0
  186.9140  178.5980  141.8110 C   0  0  0  0  0  3  0  0  0  0  0  0
  188.2630  178.4950  141.1830 C   0  0  1  0  0  3  0  0  0  0  0  0
  184.1860  180.2980  139.1560 N   0  0  0  0  0  1  0  0  0  0  0  0
  185.8890  178.6060  139.5860 C   0  0  0  0  0  0  0  0  0  0  0  0
  189.4460  178.3960  139.0350 C   0  0  0  0  0  2  0  0  0  0  0  0
  191.0270  177.9330  143.7410 C   0  0  0  0  0  0  0  0  0  0  0  0
  191.0320  176.5370  143.8260 C   0  0  0  0  0  3  0  0  0  0  0  0
  189.2330  177.8260  142.1080 C   0  0  0  0  0  0  0  0  0  0  0  0
  190.1390  175.7860  143.0550 C   0  0  0  0  0  3  0  0  0  0  0  0
  190.1300  178.5770  142.8830 C   0  0  0  0  0  3  0  0  0  0  0  0
  189.2420  176.4300  142.1960 C   0  0  0  0  0  3  0  0  0  0  0  0
  191.8910  178.6600  144.4870 F   0  0  0  0  0  0  0  0  0  0  0  0
  182.5250  177.9550  138.3670 C   0  0  0  0  0  2  0  0  0  0  0  0
  182.0560  175.0230  138.1190 C   0  0  0  0  0  1  0  0  0  0  0  0
  182.2950  177.0660  139.5100 N   0  0  0  0  0  0  0  0  0  0  0  0
  181.4090  175.9470  139.1370 C   0  0  1  0  0  3  0  0  0  0  0  0
  179.5420  177.6580  139.4030 C   0  0  0  0  0  2  0  0  0  0  0  0
  180.2060  177.7740  140.7670 C   0  0  0  0  0  2  0  0  0  0  0  0
  181.7340  177.8670  140.6170 C   0  0  0  0  0  2  0  0  0  0  0  0
  180.0180  176.4040  138.6670 C   0  0  0  0  0  2  0  0  0  0  0  0
  1  8  1  0  0  0  0
  1 13  1  0  0  0  0
  2 14  1  0  0  0  0
  2  8  2  0  0  0  0
  3 18  2  0  0  0  0
  3 12  1  0  0  0  0
  4 10  1  0  0  0  0
  4 15  2  0  0  0  0
  5  6  2  0  0  0  0
  5 11  1  0  0  0  0
  6  2  1  0  0  0  0
  7 17  1  0  0  0  0
  7 18  1  0  0  0  0
  8  3  1  0  0  0  0
  9 27  1  0  0  0  0
  9  7  1  0  0  0  0
 11  1  2  0  0  0  0
 12 19  1  6  0  0  0
 12 16  1  0  0  0  0
 13 19  1  0  0  0  0
 14  9  2  0  0  0  0
 16 15  1  0  0  0  0
 16 22  1  1  0  0  0
 18  4  1  0  0  0  0
 20 21  1  0  0  0  0
 20 26  1  0  0  0  0
 22 25  2  0  0  0  0
 22 24  1  0  0  0  0
 23 21  2  0  0  0  0
 24 20  2  0  0  0  0
 25 23  1  0  0  0  0
 27 29  1  0  0  0  0
 29 33  1  0  0  0  0
 30 28  1  6  0  0  0
 30 29  1  0  0  0  0
 31 32  1  0  0  0  0
 33 32  1  0  0  0  0
 34 30  1  0  0  0  0
 34 31  1  0  0  0  0
M  END
>  <MODEL>
3

>  <REMARK>
 VINA RESULT:      -9.7      3.552      8.357
  Name = 
  3 active torsions:
  status: ('A' for Active; 'I' for Inactive)
    1  A    between atoms: C_3  and  N_13
    2  A    between atoms: C_3  and  C_17
    3  A    between atoms: C_12  and  C_28
                            x       y       z     vdW  Elec       q    Type
                         _______ _______ _______ _____ _____    ______ ____

>  <TORSDO>
F 3

$$$$
=
 OpenBabel10252415023D

 34 39  0  0  1  0  0  0  0  0999 V2000
  188.4880  177.5000  144.0820 C   0  0  0  0  0  0  0  0  0  0  0  0
  189.6880  176.7160  142.1090 C   0  0  0  0  0  0  0  0  0  0  0  0
  187.4130  177.9590  141.8570 C   0  0  0  0  0  0  0  0  0  0  0  0
  186.2750  178.6280  139.7710 C   0  0  0  0  0  0  0  0  0  0  0  0
  190.6150  176.3790  144.3300 C   0  0  0  0  0  3  0  0  0  0  0  0
  190.6890  176.2220  142.9520 C   0  0  0  0  0  3  0  0  0  0  0  0
  188.7400  178.2860  139.8440 N   0  0  0  0  0  0  0  0  0  0  0  0
  188.5650  177.4080  142.6620 C   0  0  0  0  0  0  0  0  0  0  0  0
  189.4380  177.0600  139.6580 C   0  0  0  0  0  0  0  0  0  0  0  0
  186.3020  178.5990  138.3820 O   0  0  0  0  0  1  0  0  0  0  0  0
  189.5090  177.0010  144.8910 C   0  0  0  0  0  3  0  0  0  0  0  0
  186.1000  178.1800  142.6040 C   0  0  2  0  0  3  0  0  0  0  0  0
  187.2590  177.9780  144.7960 C   0  0  0  0  0  2  0  0  0  0  0  0
  189.8800  176.3680  140.6950 C   0  0  0  0  0  3  0  0  0  0  0  0
  185.1380  178.9320  140.3810 C   0  0  0  0  0  3  0  0  0  0  0  0
  185.0790  179.0590  141.8670 C   0  0  1  0  0  3  0  0  0  0  0  0
  189.0560  179.3820  139.0280 N   0  0  0  0  0  1  0  0  0  0  0  0
  187.4930  178.2790  140.5410 C   0  0  0  0  0  0  0  0  0  0  0  0
  186.4010  178.8710  143.9260 C   0  0  0  0  0  2  0  0  0  0  0  0
  181.3270  178.4160  141.9620 C   0  0  0  0  0  0  0  0  0  0  0  0
  181.0900  178.4180  143.3400 C   0  0  0  0  0  3  0  0  0  0  0  0
  183.6840  178.8350  142.3660 C   0  0  0  0  0  0  0  0  0  0  0  0
  182.1480  178.6280  144.2310 C   0  0  0  0  0  3  0  0  0  0  0  0
  182.6210  178.6240  141.4750 C   0  0  0  0  0  3  0  0  0  0  0  0
  183.4420  178.8360  143.7440 C   0  0  0  0  0  3  0  0  0  0  0  0
  180.3030  178.2130  141.0990 F   0  0  0  0  0  0  0  0  0  0  0  0
  189.7920  176.5940  138.2820 C   0  0  0  0  0  2  0  0  0  0  0  0
  192.7390  176.7520  138.6860 C   0  0  0  0  0  1  0  0  0  0  0  0
  190.6700  175.4230  138.3430 N   0  0  0  0  0  0  0  0  0  0  0  0
  192.0110  175.7420  137.8160 C   0  0  1  0  0  3  0  0  0  0  0  0
  190.9120  175.4700  135.5360 C   0  0  0  0  0  2  0  0  0  0  0  0
  190.5610  174.1280  136.1620 C   0  0  0  0  0  2  0  0  0  0  0  0
  190.0320  174.3220  137.5930 C   0  0  0  0  0  2  0  0  0  0  0  0
  191.9960  176.1850  136.3440 C   0  0  0  0  0  2  0  0  0  0  0  0
  1 13  1  0  0  0  0
  1 11  1  0  0  0  0
  2  8  1  0  0  0  0
  2  6  2  0  0  0  0
  3 12  1  0  0  0  0
  3  8  1  0  0  0  0
  4 15  2  0  0  0  0
  4 18  1  0  0  0  0
  5 11  2  0  0  0  0
  6  5  1  0  0  0  0
  7 18  1  0  0  0  0
  8  1  2  0  0  0  0
  9  7  1  0  0  0  0
  9 14  2  0  0  0  0
 10  4  1  0  0  0  0
 12 19  1  1  0  0  0
 14  2  1  0  0  0  0
 15 16  1  0  0  0  0
 16 22  1  1  0  0  0
 16 12  1  0  0  0  0
 17  7  1  0  0  0  0
 18  3  2  0  0  0  0
 19 13  1  0  0  0  0
 20 21  1  0  0  0  0
 21 23  2  0  0  0  0
 22 25  2  0  0  0  0
 24 20  2  0  0  0  0
 24 22  1  0  0  0  0
 25 23  1  0  0  0  0
 26 20  1  0  0  0  0
 27 29  1  0  0  0  0
 27  9  1  0  0  0  0
 30 29  1  0  0  0  0
 30 28  1  1  0  0  0
 31 32  1  0  0  0  0
 31 34  1  0  0  0  0
 32 33  1  0  0  0  0
 33 29  1  0  0  0  0
 34 30  1  0  0  0  0
M  END
>  <MODEL>
4

>  <REMARK>
 VINA RESULT:      -9.6      1.290      2.217
  Name = 
  3 active torsions:
  status: ('A' for Active; 'I' for Inactive)
    1  A    between atoms: C_3  and  N_13
    2  A    between atoms: C_3  and  C_17
    3  A    between atoms: C_12  and  C_28
                            x       y       z     vdW  Elec       q    Type
                         _______ _______ _______ _____ _____    ______ ____

>  <TORSDO>
F 3

$$$$
=
 OpenBabel10252415023D

 34 39  0  0  1  0  0  0  0  0999 V2000
  188.0210  178.2500  139.0130 C   0  0  0  0  0  0  0  0  0  0  0  0
  186.1160  177.6510  137.6130 C   0  0  0  0  0  0  0  0  0  0  0  0
  185.7540  178.3530  140.0950 C   0  0  0  0  0  0  0  0  0  0  0  0
  183.6150  178.6540  141.2880 C   0  0  0  0  0  0  0  0  0  0  0  0
  188.3680  177.6340  136.7010 C   0  0  0  0  0  3  0  0  0  0  0  0
  187.0020  177.4300  136.5540 C   0  0  0  0  0  3  0  0  0  0  0  0
  183.7510  178.8630  138.8110 N   0  0  0  0  0  0  0  0  0  0  0  0
  186.6100  178.1080  138.8750 C   0  0  0  0  0  0  0  0  0  0  0  0
  183.6460  177.8110  137.8590 C   0  0  0  0  0  0  0  0  0  0  0  0
  182.2300  178.5630  141.2150 O   0  0  0  0  0  1  0  0  0  0  0  0
  188.8740  178.0270  137.9310 C   0  0  0  0  0  3  0  0  0  0  0  0
  186.4650  178.3190  141.4450 C   0  0  2  0  0  3  0  0  0  0  0  0
  188.6850  178.4820  140.3370 C   0  0  0  0  0  2  0  0  0  0  0  0
  184.7260  177.2840  137.3080 C   0  0  0  0  0  3  0  0  0  0  0  0
  184.1870  178.7330  142.4810 C   0  0  0  0  0  3  0  0  0  0  0  0
  185.6620  178.9160  142.6120 C   0  0  1  0  0  3  0  0  0  0  0  0
  182.8830  179.9600  138.7170 N   0  0  0  0  0  1  0  0  0  0  0  0
  184.4250  178.6180  140.0470 C   0  0  0  0  0  0  0  0  0  0  0  0
  187.7520  179.1230  141.3420 C   0  0  0  0  0  2  0  0  0  0  0  0
  185.9490  178.2760  146.3540 C   0  0  0  0  0  0  0  0  0  0  0  0
  187.0860  177.4640  146.4000 C   0  0  0  0  0  3  0  0  0  0  0  0
  186.1470  178.4170  143.9380 C   0  0  0  0  0  0  0  0  0  0  0  0
  187.7530  177.1280  145.2170 C   0  0  0  0  0  3  0  0  0  0  0  0
  185.4800  178.7530  145.1260 C   0  0  0  0  0  3  0  0  0  0  0  0
  187.2850  177.6040  143.9890 C   0  0  0  0  0  3  0  0  0  0  0  0
  185.3030  178.6020  147.4980 F   0  0  0  0  0  0  0  0  0  0  0  0
  182.3030  177.3670  137.3710 C   0  0  0  0  0  2  0  0  0  0  0  0
  180.8350  175.5270  135.5440 C   0  0  0  0  0  1  0  0  0  0  0  0
  182.1030  175.9400  137.6380 N   0  0  0  0  0  0  0  0  0  0  0  0
  180.8300  175.4690  137.0620 C   0  0  1  0  0  3  0  0  0  0  0  0
  179.7820  176.5520  139.1150 C   0  0  0  0  0  2  0  0  0  0  0  0
  180.7860  175.6240  139.7850 C   0  0  0  0  0  2  0  0  0  0  0  0
  182.1580  175.7280  139.0990 C   0  0  0  0  0  2  0  0  0  0  0  0
  179.5990  176.1860  137.6410 C   0  0  0  0  0  2  0  0  0  0  0  0
  1 13  1  0  0  0  0
  2  8  2  0  0  0  0
  3 12  1  0  0  0  0
  4 15  2  0  0  0  0
  5 11  1  0  0  0  0
  6  5  2  0  0  0  0
  6  2  1  0  0  0  0
  7 18  1  0  0  0  0
  8  1  1  0  0  0  0
  8  3  1  0  0  0  0
  9  7  1  0  0  0  0
 10  4  1  0  0  0  0
 11  1  2  0  0  0  0
 12 19  1  6  0  0  0
 12 16  1  0  0  0  0
 13 19  1  0  0  0  0
 14  2  1  0  0  0  0
 14  9  2  0  0  0  0
 15 16  1  0  0  0  0
 16 22  1  1  0  0  0
 17  7  1  0  0  0  0
 18  3  2  0  0  0  0
 18  4  1  0  0  0  0
 20 21  1  0  0  0  0
 20 26  1  0  0  0  0
 22 25  2  0  0  0  0
 22 24  1  0  0  0  0
 23 21  2  0  0  0  0
 24 20  2  0  0  0  0
 25 23  1  0  0  0  0
 27 29  1  0  0  0  0
 27  9  1  0  0  0  0
 29 33  1  0  0  0  0
 30 28  1  6  0  0  0
 30 29  1  0  0  0  0
 30 34  1  0  0  0  0
 31 32  1  0  0  0  0
 33 32  1  0  0  0  0
 34 31  1  0  0  0  0
M  END
>  <MODEL>
5

>  <REMARK>
 VINA RESULT:      -9.3      3.559      7.184
  Name = 
  3 active torsions:
  status: ('A' for Active; 'I' for Inactive)
    1  A    between atoms: C_3  and  N_13
    2  A    between atoms: C_3  and  C_17
    3  A    between atoms: C_12  and  C_28
                            x       y       z     vdW  Elec       q    Type
                         _______ _______ _______ _____ _____    ______ ____

>  <TORSDO>
F 3

$$$$
=
 OpenBabel10252415023D

 34 39  0  0  1  0  0  0  0  0999 V2000
  189.0650  177.8330  139.3530 C   0  0  0  0  0  0  0  0  0  0  0  0
  187.1020  177.5010  137.9450 C   0  0  0  0  0  0  0  0  0  0  0  0
  186.8280  178.1980  140.4390 C   0  0  0  0  0  0  0  0  0  0  0  0
  184.7420  178.7420  141.6400 C   0  0  0  0  0  0  0  0  0  0  0  0
  189.3350  177.2200  137.0300 C   0  0  0  0  0  3  0  0  0  0  0  0
  187.9550  177.1900  136.8810 C   0  0  0  0  0  3  0  0  0  0  0  0
  184.9060  178.9770  139.1670 N   0  0  0  0  0  0  0  0  0  0  0  0
  187.6480  177.8700  139.2140 C   0  0  0  0  0  0  0  0  0  0  0  0
  184.6710  177.9630  138.1960 C   0  0  0  0  0  0  0  0  0  0  0  0
  183.3570  178.8260  141.5670 O   0  0  0  0  0  1  0  0  0  0  0  0
  189.8860  177.5240  138.2670 C   0  0  0  0  0  3  0  0  0  0  0  0
  187.5270  178.0520  141.7880 C   0  0  2  0  0  3  0  0  0  0  0  0
  189.7510  177.9570  140.6800 C   0  0  0  0  0  2  0  0  0  0  0  0
  185.6780  177.3160  137.6350 C   0  0  0  0  0  3  0  0  0  0  0  0
  185.3180  178.7280  142.8340 C   0  0  0  0  0  3  0  0  0  0  0  0
  186.8040  178.7240  142.9660 C   0  0  1  0  0  3  0  0  0  0  0  0
  184.1810  180.1750  139.0940 N   0  0  0  0  0  1  0  0  0  0  0  0
  185.5420  178.6280  140.3970 C   0  0  0  0  0  0  0  0  0  0  0  0
  188.9050  178.6910  141.6980 C   0  0  0  0  0  2  0  0  0  0  0  0
  188.9070  177.1700  145.7340 C   0  0  0  0  0  0  0  0  0  0  0  0
  187.9640  177.0680  146.7610 C   0  0  0  0  0  3  0  0  0  0  0  0
  187.2220  178.1450  144.2830 C   0  0  0  0  0  0  0  0  0  0  0  0
  186.6510  177.5030  146.5500 C   0  0  0  0  0  3  0  0  0  0  0  0
  188.5380  177.7070  144.4970 C   0  0  0  0  0  3  0  0  0  0  0  0
  186.2810  178.0400  145.3130 C   0  0  0  0  0  3  0  0  0  0  0  0
  190.1780  176.7490  145.9370 F   0  0  0  0  0  0  0  0  0  0  0  0
  183.2840  177.6990  137.7030 C   0  0  0  0  0  2  0  0  0  0  0  0
  181.9830  175.9390  135.6810 C   0  0  0  0  0  1  0  0  0  0  0  0
  182.9020  176.3070  137.9580 N   0  0  0  0  0  0  0  0  0  0  0  0
  181.7080  175.9370  137.1750 C   0  0  1  0  0  3  0  0  0  0  0  0
  180.4310  177.1850  138.9890 C   0  0  0  0  0  2  0  0  0  0  0  0
  181.2070  176.1930  139.8440 C   0  0  0  0  0  2  0  0  0  0  0  0
  182.6810  176.1440  139.4090 C   0  0  0  0  0  2  0  0  0  0  0  0
  180.4710  176.7850  137.5140 C   0  0  0  0  0  2  0  0  0  0  0  0
  1 13  1  0  0  0  0
  2  8  2  0  0  0  0
  3 12  1  0  0  0  0
  4 15  2  0  0  0  0
  5 11  1  0  0  0  0
  6  5  2  0  0  0  0
  6  2  1  0  0  0  0
  7 18  1  0  0  0  0
  8  1  1  0  0  0  0
  8  3  1  0  0  0  0
  9  7  1  0  0  0  0
 10  4  1  0  0  0  0
 11  1  2  0  0  0  0
 12 19  1  6  0  0  0
 12 16  1  0  0  0  0
 13 19  1  0  0  0  0
 14  2  1  0  0  0  0
 14  9  2  0  0  0  0
 15 16  1  0  0  0  0
 16 22  1  1  0  0  0
 17  7  1  0  0  0  0
 18  3  2  0  0  0  0
 18  4  1  0  0  0  0
 20 26  1  0  0  0  0
 20 21  1  0  0  0  0
 22 24  1  0  0  0  0
 22 25  2  0  0  0  0
 23 21  2  0  0  0  0
 24 20  2  0  0  0  0
 25 23  1  0  0  0  0
 27 29  1  0  0  0  0
 27  9  1  0  0  0  0
 29 33  1  0  0  0  0
 30 28  1  6  0  0  0
 30 34  1  0  0  0  0
 30 29  1  0  0  0  0
 31 32  1  0  0  0  0
 33 32  1  0  0  0  0
 34 31  1  0  0  0  0
M  END
>  <MODEL>
6

>  <REMARK>
 VINA RESULT:      -9.3      3.480      7.076
  Name = 
  3 active torsions:
  status: ('A' for Active; 'I' for Inactive)
    1  A    between atoms: C_3  and  N_13
    2  A    between atoms: C_3  and  C_17
    3  A    between atoms: C_12  and  C_28
                            x       y       z     vdW  Elec       q    Type
                         _______ _______ _______ _____ _____    ______ ____

>  <TORSDO>
F 3

$$$$
=
 OpenBabel10252415023D

 34 39  0  0  1  0  0  0  0  0999 V2000
  191.7130  176.3890  138.4530 C   0  0  0  0  0  0  0  0  0  0  0  0
  189.8860  176.1190  136.8600 C   0  0  0  0  0  0  0  0  0  0  0  0
  189.4700  177.2810  139.1540 C   0  0  0  0  0  0  0  0  0  0  0  0
  187.3930  178.3440  139.9590 C   0  0  0  0  0  0  0  0  0  0  0  0
  192.1210  175.3400  136.3140 C   0  0  0  0  0  3  0  0  0  0  0  0
  190.7810  175.4970  135.9850 C   0  0  0  0  0  3  0  0  0  0  0  0
  187.8620  178.1090  137.5250 N   0  0  0  0  0  0  0  0  0  0  0  0
  190.3470  176.6190  138.1180 C   0  0  0  0  0  0  0  0  0  0  0  0
  187.5600  176.9880  136.7020 C   0  0  0  0  0  0  0  0  0  0  0  0
  186.0600  178.6270  139.6850 O   0  0  0  0  0  1  0  0  0  0  0  0
  192.5790  175.7700  137.5510 C   0  0  0  0  0  3  0  0  0  0  0  0
  189.9820  177.2700  140.5920 C   0  0  2  0  0  3  0  0  0  0  0  0
  192.2620  176.6390  139.8250 C   0  0  0  0  0  2  0  0  0  0  0  0
  188.4930  176.1040  136.3920 C   0  0  0  0  0  3  0  0  0  0  0  0
  187.8250  178.4530  141.2080 C   0  0  0  0  0  3  0  0  0  0  0  0
  189.2640  178.2430  141.5400 C   0  0  1  0  0  3  0  0  0  0  0  0
  187.3700  179.3720  137.1670 N   0  0  0  0  0  1  0  0  0  0  0  0
  188.2910  177.8900  138.8700 C   0  0  0  0  0  0  0  0  0  0  0  0
  191.4510  177.6630  140.5900 C   0  0  0  0  0  2  0  0  0  0  0  0
  190.8290  177.4460  144.9180 C   0  0  0  0  0  0  0  0  0  0  0  0
  189.6950  177.1080  145.6640 C   0  0  0  0  0  3  0  0  0  0  0  0
  189.4290  177.8500  142.9750 C   0  0  0  0  0  0  0  0  0  0  0  0
  188.4310  177.1410  145.0680 C   0  0  0  0  0  3  0  0  0  0  0  0
  190.6970  177.8160  143.5760 C   0  0  0  0  0  3  0  0  0  0  0  0
  188.2980  177.5100  143.7260 C   0  0  0  0  0  3  0  0  0  0  0  0
  192.0530  177.4140  145.4950 F   0  0  0  0  0  0  0  0  0  0  0  0
  186.2100  176.8570  136.0720 C   0  0  0  0  0  2  0  0  0  0  0  0
  185.5840  173.9890  136.5840 C   0  0  0  0  0  1  0  0  0  0  0  0
  185.2240  176.4010  137.0550 N   0  0  0  0  0  0  0  0  0  0  0  0
  184.5930  175.1400  136.6210 C   0  0  1  0  0  3  0  0  0  0  0  0
  183.1940  176.6420  135.1150 C   0  0  0  0  0  2  0  0  0  0  0  0
  182.9200  177.2890  136.4650 C   0  0  0  0  0  2  0  0  0  0  0  0
  184.2290  177.4750  137.2500 C   0  0  0  0  0  2  0  0  0  0  0  0
  183.8370  175.2650  135.2880 C   0  0  0  0  0  2  0  0  0  0  0  0
  1 13  1  0  0  0  0
  2  8  2  0  0  0  0
  3 12  1  0  0  0  0
  4 15  2  0  0  0  0
  5 11  1  0  0  0  0
  6  5  2  0  0  0  0
  6  2  1  0  0  0  0
  7 18  1  0  0  0  0
  8  1  1  0  0  0  0
  8  3  1  0  0  0  0
  9  7  1  0  0  0  0
 10  4  1  0  0  0  0
 11  1  2  0  0  0  0
 12 19  1  6  0  0  0
 12 16  1  0  0  0  0
 13 19  1  0  0  0  0
 14  9  2  0  0  0  0
 14  2  1  0  0  0  0
 15 16  1  0  0  0  0
 16 22  1  1  0  0  0
 17  7  1  0  0  0  0
 18  3  2  0  0  0  0
 18  4  1  0  0  0  0
 20 26  1  0  0  0  0
 20 21  1  0  0  0  0
 22 24  1  0  0  0  0
 22 25  2  0  0  0  0
 23 21  2  0  0  0  0
 24 20  2  0  0  0  0
 25 23  1  0  0  0  0
 27  9  1  0  0  0  0
 27 29  1  0  0  0  0
 29 33  1  0  0  0  0
 30 28  1  6  0  0  0
 30 29  1  0  0  0  0
 31 34  1  0  0  0  0
 31 32  1  0  0  0  0
 32 33  1  0  0  0  0
 34 30  1  0  0  0  0
M  END
>  <MODEL>
7

>  <REMARK>
 VINA RESULT:      -9.2      4.089      7.538
  Name = 
  3 active torsions:
  status: ('A' for Active; 'I' for Inactive)
    1  A    between atoms: C_3  and  N_13
    2  A    between atoms: C_3  and  C_17
    3  A    between atoms: C_12  and  C_28
                            x       y       z     vdW  Elec       q    Type
                         _______ _______ _______ _____ _____    ______ ____

>  <TORSDO>
F 3

$$$$
=
 OpenBabel10252415023D

 34 39  0  0  1  0  0  0  0  0999 V2000
  187.1240  178.0010  143.1710 C   0  0  0  0  0  0  0  0  0  0  0  0
  188.9480  177.2010  141.7630 C   0  0  0  0  0  0  0  0  0  0  0  0
  186.7580  178.1100  140.6860 C   0  0  0  0  0  0  0  0  0  0  0  0
  186.2690  178.4320  138.2890 C   0  0  0  0  0  0  0  0  0  0  0  0
  189.1640  177.1920  144.1830 C   0  0  0  0  0  3  0  0  0  0  0  0
  189.6790  176.9210  142.9220 C   0  0  0  0  0  3  0  0  0  0  0  0
  188.6090  178.4210  139.1380 N   0  0  0  0  0  0  0  0  0  0  0  0
  187.6490  177.7900  141.8630 C   0  0  0  0  0  0  0  0  0  0  0  0
  189.4430  177.2830  139.3270 C   0  0  0  0  0  0  0  0  0  0  0  0
  186.7290  178.2800  136.9870 O   0  0  0  0  0  1  0  0  0  0  0  0
  187.8850  177.7150  144.3050 C   0  0  0  0  0  3  0  0  0  0  0  0
  185.2630  178.2270  140.9730 C   0  0  2  0  0  3  0  0  0  0  0  0
  185.6940  178.3790  143.4170 C   0  0  0  0  0  2  0  0  0  0  0  0
  189.6030  176.7530  140.5280 C   0  0  0  0  0  3  0  0  0  0  0  0
  184.9750  178.6420  138.4870 C   0  0  0  0  0  3  0  0  0  0  0  0
  184.4430  178.8960  139.8580 C   0  0  1  0  0  3  0  0  0  0  0  0
  189.0570  179.4690  138.3210 N   0  0  0  0  0  1  0  0  0  0  0  0
  187.2140  178.3160  139.4250 C   0  0  0  0  0  0  0  0  0  0  0  0
  185.0690  179.0700  142.2240 C   0  0  0  0  0  2  0  0  0  0  0  0
  180.6450  179.1660  139.8940 C   0  0  0  0  0  0  0  0  0  0  0  0
  180.2850  177.8310  140.1040 C   0  0  0  0  0  3  0  0  0  0  0  0
  182.9900  178.5390  139.9420 C   0  0  0  0  0  0  0  0  0  0  0  0
  181.2740  176.8510  140.2340 C   0  0  0  0  0  3  0  0  0  0  0  0
  181.9950  179.5200  139.8130 C   0  0  0  0  0  3  0  0  0  0  0  0
  182.6250  177.2050  140.1530 C   0  0  0  0  0  3  0  0  0  0  0  0
  179.6870  180.1150  139.7690 F   0  0  0  0  0  0  0  0  0  0  0  0
  190.2510  176.7430  138.1900 C   0  0  0  0  0  2  0  0  0  0  0  0
  192.1880  174.5600  137.5920 C   0  0  0  0  0  1  0  0  0  0  0  0
  189.8570  175.3640  137.8870 N   0  0  0  0  0  0  0  0  0  0  0  0
  190.8170  174.7350  136.9600 C   0  0  1  0  0  3  0  0  0  0  0  0
  189.5790  176.0530  135.1680 C   0  0  0  0  0  2  0  0  0  0  0  0
  188.4150  175.3020  135.7980 C   0  0  0  0  0  2  0  0  0  0  0  0
  188.4890  175.3820  137.3330 C   0  0  0  0  0  2  0  0  0  0  0  0
  190.9170  175.4550  135.6060 C   0  0  0  0  0  2  0  0  0  0  0  0
  1 13  1  0  0  0  0
  1 11  1  0  0  0  0
  2  8  1  0  0  0  0
  2  6  2  0  0  0  0
  3 12  1  0  0  0  0
  3  8  1  0  0  0  0
  4 15  2  0  0  0  0
  4 18  1  0  0  0  0
  5 11  2  0  0  0  0
  6  5  1  0  0  0  0
  7  9  1  0  0  0  0
  7 18  1  0  0  0  0
  8  1  2  0  0  0  0
  9 14  2  0  0  0  0
 10  4  1  0  0  0  0
 12 19  1  1  0  0  0
 14  2  1  0  0  0  0
 15 16  1  0  0  0  0
 16 22  1  6  0  0  0
 16 12  1  0  0  0  0
 17  7  1  0  0  0  0
 18  3  2  0  0  0  0
 19 13  1  0  0  0  0
 20 21  1  0  0  0  0
 21 23  2  0  0  0  0
 22 25  2  0  0  0  0
 24 20  2  0  0  0  0
 24 22  1  0  0  0  0
 25 23  1  0  0  0  0
 26 20  1  0  0  0  0
 27  9  1  0  0  0  0
 29 27  1  0  0  0  0
 30 28  1  1  0  0  0
 30 29  1  0  0  0  0
 31 34  1  0  0  0  0
 31 32  1  0  0  0  0
 32 33  1  0  0  0  0
 33 29  1  0  0  0  0
 34 30  1  0  0  0  0
M  END
>  <MODEL>
8

>  <REMARK>
 VINA RESULT:      -9.0      1.945      2.978
  Name = 
  3 active torsions:
  status: ('A' for Active; 'I' for Inactive)
    1  A    between atoms: C_3  and  N_13
    2  A    between atoms: C_3  and  C_17
    3  A    between atoms: C_12  and  C_28
                            x       y       z     vdW  Elec       q    Type
                         _______ _______ _______ _____ _____    ______ ____

>  <TORSDO>
F 3

$$$$
=
 OpenBabel10252415023D

 34 39  0  0  1  0  0  0  0  0999 V2000
  184.8380  178.7910  142.0170 C   0  0  0  0  0  0  0  0  0  0  0  0
  186.2200  177.9400  143.8370 C   0  0  0  0  0  0  0  0  0  0  0  0
  187.1710  178.0740  141.4160 C   0  0  0  0  0  0  0  0  0  0  0  0
  189.4620  177.5600  140.6570 C   0  0  0  0  0  0  0  0  0  0  0  0
  183.9540  178.7050  144.2650 C   0  0  0  0  0  3  0  0  0  0  0  0
  185.1510  178.1600  144.7110 C   0  0  0  0  0  3  0  0  0  0  0  0
  189.0020  178.2240  143.0110 N   0  0  0  0  0  0  0  0  0  0  0  0
  186.0980  178.2900  142.4560 C   0  0  0  0  0  0  0  0  0  0  0  0
  188.6280  177.3660  144.0830 C   0  0  0  0  0  0  0  0  0  0  0  0
  190.7240  177.1040  141.0220 O   0  0  0  0  0  1  0  0  0  0  0  0
  183.7950  179.0030  142.9200 C   0  0  0  0  0  3  0  0  0  0  0  0
  186.7100  178.0030  139.9620 C   0  0  2  0  0  3  0  0  0  0  0  0
  184.4970  178.9640  140.5670 C   0  0  0  0  0  2  0  0  0  0  0  0
  187.3650  177.2620  144.4600 C   0  0  0  0  0  3  0  0  0  0  0  0
  189.1400  177.5850  139.3710 C   0  0  0  0  0  3  0  0  0  0  0  0
  187.8320  178.1440  138.9220 C   0  0  1  0  0  3  0  0  0  0  0  0
  190.1350  179.0370  143.1500 N   0  0  0  0  0  1  0  0  0  0  0  0
  188.4920  177.9650  141.7020 C   0  0  0  0  0  0  0  0  0  0  0  0
  185.7290  179.1370  139.7050 C   0  0  0  0  0  2  0  0  0  0  0  0
  186.6250  175.7420  136.2250 C   0  0  0  0  0  0  0  0  0  0  0  0
  186.7080  176.5530  135.0890 C   0  0  0  0  0  3  0  0  0  0  0  0
  187.4370  177.5770  137.5930 C   0  0  0  0  0  0  0  0  0  0  0  0
  187.1540  177.8740  135.2030 C   0  0  0  0  0  3  0  0  0  0  0  0
  186.9900  176.2520  137.4750 C   0  0  0  0  0  3  0  0  0  0  0  0
  187.5180  178.3840  136.4530 C   0  0  0  0  0  3  0  0  0  0  0  0
  186.1940  174.4640  136.1150 F   0  0  0  0  0  0  0  0  0  0  0  0
  189.6760  176.6590  144.8830 C   0  0  0  0  0  2  0  0  0  0  0  0
  192.0550  176.0020  146.5520 C   0  0  0  0  0  1  0  0  0  0  0  0
  190.2080  177.5390  145.9280 N   0  0  0  0  0  0  0  0  0  0  0  0
  190.8200  176.7530  147.0170 C   0  0  1  0  0  3  0  0  0  0  0  0
  188.4180  176.3990  147.7830 C   0  0  0  0  0  2  0  0  0  0  0  0
  188.4590  177.9200  147.7290 C   0  0  0  0  0  2  0  0  0  0  0  0
  189.1090  178.3950  146.4180 C   0  0  0  0  0  2  0  0  0  0  0  0
  189.8280  175.8110  147.7190 C   0  0  0  0  0  2  0  0  0  0  0  0
  1  8  2  0  0  0  0
  1 11  1  0  0  0  0
  2 14  1  0  0  0  0
  2  6  2  0  0  0  0
  3 18  2  0  0  0  0
  3  8  1  0  0  0  0
  4 10  1  0  0  0  0
  4 18  1  0  0  0  0
  5  6  1  0  0  0  0
  7 17  1  0  0  0  0
  7  9  1  0  0  0  0
  8  2  1  0  0  0  0
  9 14  2  0  0  0  0
  9 27  1  0  0  0  0
 11  5  2  0  0  0  0
 12 19  1  6  0  0  0
 12  3  1  0  0  0  0
 13  1  1  0  0  0  0
 15  4  2  0  0  0  0
 16 22  1  6  0  0  0
 16 15  1  0  0  0  0
 16 12  1  0  0  0  0
 18  7  1  0  0  0  0
 19 13  1  0  0  0  0
 20 24  1  0  0  0  0
 21 23  1  0  0  0  0
 21 20  2  0  0  0  0
 23 25  2  0  0  0  0
 24 22  2  0  0  0  0
 25 22  1  0  0  0  0
 26 20  1  0  0  0  0
 27 29  1  0  0  0  0
 29 33  1  0  0  0  0
 29 30  1  0  0  0  0
 30 28  1  6  0  0  0
 30 34  1  0  0  0  0
 32 31  1  0  0  0  0
 33 32  1  0  0  0  0
 34 31  1  0  0  0  0
M  END
>  <MODEL>
9

>  <REMARK>
 VINA RESULT:      -8.9      2.694      6.617
  Name = 
  3 active torsions:
  status: ('A' for Active; 'I' for Inactive)
    1  A    between atoms: C_3  and  N_13
    2  A    between atoms: C_3  and  C_17
    3  A    between atoms: C_12  and  C_28
                            x       y       z     vdW  Elec       q    Type
                         _______ _______ _______ _____ _____    ______ ____

>  <TORSDO>
F 3

$$$$
