=
 OpenBabel10262419393D

 31 34  0  0  1  0  0  0  0  0999 V2000
  189.4970  176.7630  147.3260 C   0  0  0  0  0  3  0  0  0  0  0  0
  187.6660  177.7290  144.0720 C   0  0  0  0  0  0  0  0  0  0  0  0
  186.3970  178.0270  144.5580 C   0  0  0  0  0  0  0  0  0  0  0  0
  184.8630  178.3910  146.4480 C   0  0  0  0  0  3  0  0  0  0  0  0
  188.8130  177.3710  144.9020 C   0  0  0  0  0  0  0  0  0  0  0  0
  191.7050  176.6890  146.1910 C   0  0  0  0  0  3  0  0  0  0  0  0
  186.1080  178.0400  145.9380 C   0  0  0  0  0  3  0  0  0  0  0  0
  189.1510  177.6600  142.1070 C   0  0  0  0  0  0  0  0  0  0  0  0
  190.8040  176.5700  147.3270 C   0  0  0  0  0  3  0  0  0  0  0  0
  185.4790  178.4160  142.3640 C   0  0  0  0  0  3  0  0  0  0  0  0
  183.8430  178.7580  145.5840 C   0  0  0  0  0  3  0  0  0  0  0  0
  190.2300  177.3990  142.9230 C   0  0  0  0  0  3  0  0  0  0  0  0
  187.8740  177.8120  142.6590 C   0  0  0  0  0  0  0  0  0  0  0  0
  188.6220  177.1400  146.2130 C   0  0  0  0  0  3  0  0  0  0  0  0
  182.7180  179.2530  143.1770 Cl  0  0  0  0  0  0  0  0  0  0  0  0
  190.0960  177.2440  144.2930 C   0  0  0  0  0  0  0  0  0  0  0  0
  191.3930  176.9670  144.9330 C   0  0  0  0  0  3  0  0  0  0  0  0
  186.7300  177.9800  141.7000 C   0  0  0  0  0  3  0  0  0  0  0  0
  185.3230  178.4020  143.6860 C   0  0  0  0  0  0  0  0  0  0  0  0
  184.0640  178.7730  144.2110 C   0  0  2  0  0  3  0  0  0  0  0  0
  189.4000  177.7890  140.6340 C   0  0  0  0  0  2  0  0  0  0  0  0
  191.8240  177.4630  140.0820 C   0  0  0  0  0  1  0  0  0  0  0  0
  190.4630  176.7940  140.1690 C   0  0  2  0  0  3  0  0  0  0  0  0
  190.9270  175.0570  138.5660 O   0  0  0  0  0  1  0  0  0  0  0  0
  190.1010  176.1550  138.8280 C   0  0  2  0  0  3  0  0  0  0  0  0
  191.1460  176.7690  136.7470 O   0  0  0  0  0  1  0  0  0  0  0  0
  190.1820  177.1640  137.6780 C   0  0  1  0  0  3  0  0  0  0  0  0
  188.8330  177.3740  136.9850 C   0  0  0  0  0  2  0  0  0  0  0  0
  188.2420  178.7150  137.2750 C   0  0  0  0  0  0  0  0  0  0  0  0
  188.9910  179.6920  137.5370 O   0  0  0  0  0  1  0  0  0  0  0  0
  186.8660  178.8920  137.2280 O   0  0  0  0  0  0  0  0  0  0  0  0
  1  9  1  0  0  0  0
  2  3  1  0  0  0  0
  2  5  2  0  0  0  0
  3  7  2  0  0  0  0
  5 14  1  0  0  0  0
  6  9  2  0  0  0  0
  7  4  1  0  0  0  0
  8 13  1  0  0  0  0
  8 12  2  0  0  0  0
 10 19  2  0  0  0  0
 11  4  2  0  0  0  0
 12 16  1  0  0  0  0
 13  2  1  0  0  0  0
 14  1  2  0  0  0  0
 16  5  1  0  0  0  0
 16 17  2  0  0  0  0
 17  6  1  0  0  0  0
 18 10  1  0  0  0  0
 18 13  2  0  0  0  0
 19 20  1  0  0  0  0
 19  3  1  0  0  0  0
 20 15  1  6  0  0  0
 20 11  1  0  0  0  0
 21  8  1  0  0  0  0
 23 22  1  6  0  0  0
 23 21  1  0  0  0  0
 25 24  1  6  0  0  0
 25 23  1  0  0  0  0
 27 26  1  6  0  0  0
 27 25  1  0  0  0  0
 28 29  1  0  0  0  0
 28 27  1  0  0  0  0
 29 30  1  0  0  0  0
 31 29  2  0  0  0  0
M  END
>  <MODEL>
1

>  <REMARK>
 VINA RESULT:     -10.9      0.000      0.000
  Name = 
  6 active torsions:
  status: ('A' for Active; 'I' for Inactive)
    1  A    between atoms: C_1  and  C_24
    2  A    between atoms: C_9  and  C_22
    3  A    between atoms: C_9  and  C_23
    4  A    between atoms: C_15  and  C_23
    5  A    between atoms: C_19  and  C_22
    6  A    between atoms: C_19  and  C_24
                            x       y       z     vdW  Elec       q    Type
                         _______ _______ _______ _____ _____    ______ ____

>  <TORSDO>
F 6

$$$$
=
 OpenBabel10262419393D

 31 34  0  0  1  0  0  0  0  0999 V2000
  184.0720  178.6280  145.3970 C   0  0  0  0  0  3  0  0  0  0  0  0
  187.6450  178.0430  144.0700 C   0  0  0  0  0  0  0  0  0  0  0  0
  188.3000  177.6460  145.2320 C   0  0  0  0  0  0  0  0  0  0  0  0
  188.2370  176.9950  147.6050 C   0  0  0  0  0  3  0  0  0  0  0  0
  186.2150  178.3220  143.9740 C   0  0  0  0  0  0  0  0  0  0  0  0
  183.1510  178.9140  143.1070 C   0  0  0  0  0  3  0  0  0  0  0  0
  187.6130  177.4460  146.4470 C   0  0  0  0  0  3  0  0  0  0  0  0
  187.8140  178.4100  141.6390 C   0  0  0  0  0  0  0  0  0  0  0  0
  183.0760  178.8570  144.5590 C   0  0  0  0  0  3  0  0  0  0  0  0
  190.4540  177.5210  144.1600 C   0  0  0  0  0  3  0  0  0  0  0  0
  189.5940  176.7140  147.5910 C   0  0  0  0  0  3  0  0  0  0  0  0
  186.4500  178.5930  141.5660 C   0  0  0  0  0  3  0  0  0  0  0  0
  188.4210  178.1500  142.8730 C   0  0  0  0  0  0  0  0  0  0  0  0
  185.4840  178.3740  145.1010 C   0  0  0  0  0  3  0  0  0  0  0  0
  192.0510  176.5060  146.4850 Cl  0  0  0  0  0  0  0  0  0  0  0  0
  185.6410  178.5650  142.6910 C   0  0  0  0  0  0  0  0  0  0  0  0
  184.2290  178.7930  142.3450 C   0  0  0  0  0  3  0  0  0  0  0  0
  189.9210  178.0760  142.8940 C   0  0  0  0  0  2  0  0  0  0  0  0
  189.7040  177.3580  145.2470 C   0  0  0  0  0  0  0  0  0  0  0  0
  190.3300  176.8850  146.4230 C   0  0  0  0  0  0  0  0  0  0  0  0
  188.6010  178.4820  140.3650 C   0  0  0  0  0  2  0  0  0  0  0  0
  190.1170  176.6130  139.6620 C   0  0  0  0  0  1  0  0  0  0  0  0
  188.6830  177.1110  139.6950 C   0  0  2  0  0  3  0  0  0  0  0  0
  189.1180  177.1600  137.3260 O   0  0  0  0  0  1  0  0  0  0  0  0
  188.0970  177.1300  138.2810 C   0  0  2  0  0  3  0  0  0  0  0  0
  187.6370  179.1720  137.0900 O   0  0  0  0  0  1  0  0  0  0  0  0
  187.1460  178.3120  138.0770 C   0  0  1  0  0  3  0  0  0  0  0  0
  185.7230  177.8680  137.7300 C   0  0  0  0  0  2  0  0  0  0  0  0
  184.6910  178.5230  138.5900 C   0  0  0  0  0  0  0  0  0  0  0  0
  183.7310  177.8490  139.0450 O   0  0  0  0  0  1  0  0  0  0  0  0
  184.8060  179.8680  138.9110 O   0  0  0  0  0  0  0  0  0  0  0  0
  2  3  2  0  0  0  0
  3 19  1  0  0  0  0
  3  7  1  0  0  0  0
  5  2  1  0  0  0  0
  5 14  2  0  0  0  0
  6  9  1  0  0  0  0
  7  4  2  0  0  0  0
  8 13  2  0  0  0  0
  9  1  2  0  0  0  0
 10 19  2  0  0  0  0
 11  4  1  0  0  0  0
 12  8  1  0  0  0  0
 12 16  2  0  0  0  0
 13 18  1  0  0  0  0
 13  2  1  0  0  0  0
 14  1  1  0  0  0  0
 16  5  1  0  0  0  0
 17 16  1  0  0  0  0
 17  6  2  0  0  0  0
 18 10  1  0  0  0  0
 19 20  1  0  0  0  0
 20 15  1  0  0  0  0
 20 11  2  0  0  0  0
 21  8  1  0  0  0  0
 23 22  1  6  0  0  0
 23 21  1  0  0  0  0
 25 24  1  6  0  0  0
 25 23  1  0  0  0  0
 27 26  1  6  0  0  0
 27 25  1  0  0  0  0
 28 27  1  0  0  0  0
 28 29  1  0  0  0  0
 29 31  2  0  0  0  0
 29 30  1  0  0  0  0
M  END
>  <MODEL>
2

>  <REMARK>
 VINA RESULT:     -10.7      2.394      4.825
  Name = 
  6 active torsions:
  status: ('A' for Active; 'I' for Inactive)
    1  A    between atoms: C_1  and  C_24
    2  A    between atoms: C_9  and  C_22
    3  A    between atoms: C_9  and  C_23
    4  A    between atoms: C_15  and  C_23
    5  A    between atoms: C_19  and  C_22
    6  A    between atoms: C_19  and  C_24
                            x       y       z     vdW  Elec       q    Type
                         _______ _______ _______ _____ _____    ______ ____

>  <TORSDO>
F 6

$$$$
=
 OpenBabel10262419393D

 31 34  0  0  1  0  0  0  0  0999 V2000
  189.5700  176.7670  147.3250 C   0  0  0  0  0  3  0  0  0  0  0  0
  187.6140  177.7460  144.1480 C   0  0  0  0  0  0  0  0  0  0  0  0
  186.3630  178.0380  144.6830 C   0  0  0  0  0  0  0  0  0  0  0  0
  184.9010  178.3860  146.6330 C   0  0  0  0  0  3  0  0  0  0  0  0
  188.7920  177.3870  144.9320 C   0  0  0  0  0  0  0  0  0  0  0  0
  191.7340  176.7060  146.1060 C   0  0  0  0  0  3  0  0  0  0  0  0
  186.1270  178.0420  146.0740 C   0  0  0  0  0  3  0  0  0  0  0  0
  189.0230  177.6930  142.1280 C   0  0  0  0  0  0  0  0  0  0  0  0
  190.8760  176.5790  147.2740 C   0  0  0  0  0  3  0  0  0  0  0  0
  185.3620  178.4370  142.5290 C   0  0  0  0  0  3  0  0  0  0  0  0
  183.8490  178.7560  145.8100 C   0  0  0  0  0  3  0  0  0  0  0  0
  190.1330  177.4310  142.9010 C   0  0  0  0  0  3  0  0  0  0  0  0
  187.7680  177.8390  142.7290 C   0  0  0  0  0  0  0  0  0  0  0  0
  188.6520  177.1480  146.2480 C   0  0  0  0  0  3  0  0  0  0  0  0
  182.6310  179.2600  143.4510 Cl  0  0  0  0  0  0  0  0  0  0  0  0
  190.0520  177.2670  144.2740 C   0  0  0  0  0  0  0  0  0  0  0  0
  191.3730  176.9910  144.8620 C   0  0  0  0  0  3  0  0  0  0  0  0
  186.5880  178.0090  141.8150 C   0  0  0  0  0  3  0  0  0  0  0  0
  185.2560  178.4140  143.8560 C   0  0  0  0  0  0  0  0  0  0  0  0
  184.0160  178.7790  144.4300 C   0  0  2  0  0  3  0  0  0  0  0  0
  189.2160  177.8320  140.6470 C   0  0  0  0  0  2  0  0  0  0  0  0
  191.6920  177.4740  140.4770 C   0  0  0  0  0  1  0  0  0  0  0  0
  190.3230  176.9030  140.1500 C   0  0  2  0  0  3  0  0  0  0  0  0
  188.9340  176.1480  138.3320 O   0  0  0  0  0  1  0  0  0  0  0  0
  190.2090  176.6290  138.6500 C   0  0  2  0  0  3  0  0  0  0  0  0
  190.7070  174.4050  137.8700 O   0  0  0  0  0  1  0  0  0  0  0  0
  191.2800  175.6450  138.1700 C   0  0  1  0  0  3  0  0  0  0  0  0
  192.0620  176.1700  136.9640 C   0  0  0  0  0  2  0  0  0  0  0  0
  193.5310  176.2610  137.2270 C   0  0  0  0  0  0  0  0  0  0  0  0
  194.3040  176.7030  136.3390 O   0  0  0  0  0  0  0  0  0  0  0  0
  194.0390  175.8830  138.4620 O   0  0  0  0  0  1  0  0  0  0  0  0
  2  3  1  0  0  0  0
  2  5  2  0  0  0  0
  3  7  2  0  0  0  0
  5 14  1  0  0  0  0
  6  9  2  0  0  0  0
  7  4  1  0  0  0  0
  8 13  1  0  0  0  0
  8 12  2  0  0  0  0
  9  1  1  0  0  0  0
 10 19  2  0  0  0  0
 11  4  2  0  0  0  0
 12 16  1  0  0  0  0
 13  2  1  0  0  0  0
 14  1  2  0  0  0  0
 16 17  2  0  0  0  0
 16  5  1  0  0  0  0
 17  6  1  0  0  0  0
 18 10  1  0  0  0  0
 18 13  2  0  0  0  0
 19 20  1  0  0  0  0
 19  3  1  0  0  0  0
 20 15  1  6  0  0  0
 20 11  1  0  0  0  0
 21  8  1  0  0  0  0
 23 22  1  6  0  0  0
 23 21  1  0  0  0  0
 25 24  1  1  0  0  0
 25 23  1  0  0  0  0
 27 26  1  6  0  0  0
 27 25  1  0  0  0  0
 28 29  1  0  0  0  0
 28 27  1  0  0  0  0
 29 31  1  0  0  0  0
 30 29  2  0  0  0  0
M  END
>  <MODEL>
3

>  <REMARK>
 VINA RESULT:     -10.5      1.292      2.296
  Name = 
  6 active torsions:
  status: ('A' for Active; 'I' for Inactive)
    1  A    between atoms: C_1  and  C_24
    2  A    between atoms: C_9  and  C_22
    3  A    between atoms: C_9  and  C_23
    4  A    between atoms: C_15  and  C_23
    5  A    between atoms: C_19  and  C_22
    6  A    between atoms: C_19  and  C_24
                            x       y       z     vdW  Elec       q    Type
                         _______ _______ _______ _____ _____    ______ ____

>  <TORSDO>
F 6

$$$$
=
 OpenBabel10262419393D

 31 34  0  0  1  0  0  0  0  0999 V2000
  183.8910  178.9720  145.3120 C   0  0  0  0  0  3  0  0  0  0  0  0
  187.4740  177.8960  144.3750 C   0  0  0  0  0  0  0  0  0  0  0  0
  188.0390  177.7250  145.6350 C   0  0  0  0  0  0  0  0  0  0  0  0
  187.8100  177.6120  148.0840 C   0  0  0  0  0  3  0  0  0  0  0  0
  186.0750  178.2340  144.1290 C   0  0  0  0  0  0  0  0  0  0  0  0
  183.1090  178.8060  142.9590 C   0  0  0  0  0  3  0  0  0  0  0  0
  187.2790  177.8360  146.8180 C   0  0  0  0  0  3  0  0  0  0  0  0
  187.7900  177.7140  141.9390 C   0  0  0  0  0  0  0  0  0  0  0  0
  182.9570  179.0720  144.3820 C   0  0  0  0  0  3  0  0  0  0  0  0
  190.2300  177.2390  144.7570 C   0  0  0  0  0  3  0  0  0  0  0  0
  189.1420  177.2530  148.2170 C   0  0  0  0  0  3  0  0  0  0  0  0
  186.4490  177.9590  141.7400 C   0  0  0  0  0  3  0  0  0  0  0  0
  188.3140  177.6930  143.2360 C   0  0  0  0  0  0  0  0  0  0  0  0
  185.2940  178.5740  145.1690 C   0  0  0  0  0  3  0  0  0  0  0  0
  191.6300  176.6610  147.3430 Cl  0  0  0  0  0  0  0  0  0  0  0  0
  185.5850  178.2250  142.7900 C   0  0  0  0  0  0  0  0  0  0  0  0
  184.2120  178.4570  142.3120 C   0  0  0  0  0  3  0  0  0  0  0  0
  189.8020  177.5350  143.3690 C   0  0  0  0  0  2  0  0  0  0  0  0
  189.4160  177.3630  145.8030 C   0  0  0  0  0  0  0  0  0  0  0  0
  189.9460  177.1210  147.0910 C   0  0  0  0  0  0  0  0  0  0  0  0
  188.6430  177.4580  140.7320 C   0  0  0  0  0  2  0  0  0  0  0  0
  187.0390  177.8550  138.8470 C   0  0  0  0  0  1  0  0  0  0  0  0
  188.2570  178.3870  139.5820 C   0  0  2  0  0  3  0  0  0  0  0  0
  189.0710  179.5430  137.6320 O   0  0  0  0  0  1  0  0  0  0  0  0
  189.4140  178.5970  138.6040 C   0  0  2  0  0  3  0  0  0  0  0  0
  189.7810  177.4010  136.5460 O   0  0  0  0  0  1  0  0  0  0  0  0
  189.8390  177.2860  137.9380 C   0  0  1  0  0  3  0  0  0  0  0  0
  191.2360  176.8330  138.3710 C   0  0  0  0  0  2  0  0  0  0  0  0
  191.5500  175.4400  137.9310 C   0  0  0  0  0  0  0  0  0  0  0  0
  192.7280  175.1300  137.6120 O   0  0  0  0  0  0  0  0  0  0  0  0
  190.5500  174.4790  137.9010 O   0  0  0  0  0  1  0  0  0  0  0  0
  2  3  2  0  0  0  0
  3 19  1  0  0  0  0
  3  7  1  0  0  0  0
  4 11  1  0  0  0  0
  5  2  1  0  0  0  0
  5 14  2  0  0  0  0
  6  9  1  0  0  0  0
  7  4  2  0  0  0  0
  8 13  2  0  0  0  0
  9  1  2  0  0  0  0
 10 19  2  0  0  0  0
 12  8  1  0  0  0  0
 12 16  2  0  0  0  0
 13 18  1  0  0  0  0
 13  2  1  0  0  0  0
 14  1  1  0  0  0  0
 16  5  1  0  0  0  0
 17 16  1  0  0  0  0
 17  6  2  0  0  0  0
 18 10  1  0  0  0  0
 19 20  1  0  0  0  0
 20 15  1  0  0  0  0
 20 11  2  0  0  0  0
 21  8  1  0  0  0  0
 23 22  1  6  0  0  0
 23 21  1  0  0  0  0
 25 24  1  6  0  0  0
 25 23  1  0  0  0  0
 27 26  1  6  0  0  0
 27 28  1  0  0  0  0
 27 25  1  0  0  0  0
 29 28  1  0  0  0  0
 30 29  2  0  0  0  0
 31 29  1  0  0  0  0
M  END
>  <MODEL>
4

>  <REMARK>
 VINA RESULT:     -10.2      2.176      4.969
  Name = 
  6 active torsions:
  status: ('A' for Active; 'I' for Inactive)
    1  A    between atoms: C_1  and  C_24
    2  A    between atoms: C_9  and  C_22
    3  A    between atoms: C_9  and  C_23
    4  A    between atoms: C_15  and  C_23
    5  A    between atoms: C_19  and  C_22
    6  A    between atoms: C_19  and  C_24
                            x       y       z     vdW  Elec       q    Type
                         _______ _______ _______ _____ _____    ______ ____

>  <TORSDO>
F 6

$$$$
=
 OpenBabel10262419393D

 31 34  0  0  1  0  0  0  0  0999 V2000
  183.5790  178.7290  144.2160 C   0  0  0  0  0  3  0  0  0  0  0  0
  186.7250  178.1010  142.0760 C   0  0  0  0  0  0  0  0  0  0  0  0
  186.2290  178.3310  140.7960 C   0  0  0  0  0  0  0  0  0  0  0  0
  184.4170  179.0880  139.3100 C   0  0  0  0  0  3  0  0  0  0  0  0
  185.9640  178.2790  143.3090 C   0  0  0  0  0  0  0  0  0  0  0  0
  184.8690  178.6310  146.3370 C   0  0  0  0  0  3  0  0  0  0  0  0
  184.9160  178.7970  140.5760 C   0  0  0  0  0  3  0  0  0  0  0  0
  188.7030  177.5780  143.4490 C   0  0  0  0  0  0  0  0  0  0  0  0
  183.6650  178.7820  145.5330 C   0  0  0  0  0  3  0  0  0  0  0  0
  188.2950  177.7230  139.7170 C   0  0  0  0  0  3  0  0  0  0  0  0
  185.2290  178.9290  138.1980 C   0  0  0  0  0  3  0  0  0  0  0  0
  187.9800  177.8270  144.5950 C   0  0  0  0  0  3  0  0  0  0  0  0
  188.0920  177.6970  142.1950 C   0  0  0  0  0  0  0  0  0  0  0  0
  184.6420  178.5140  143.2310 C   0  0  0  0  0  3  0  0  0  0  0  0
  187.5060  178.3040  136.8830 Cl  0  0  0  0  0  0  0  0  0  0  0  0
  186.6360  178.1630  144.5610 C   0  0  0  0  0  0  0  0  0  0  0  0
  186.0980  178.3710  145.9150 C   0  0  0  0  0  3  0  0  0  0  0  0
  188.9070  177.3000  140.9980 C   0  0  0  0  0  3  0  0  0  0  0  0
  187.0430  178.1660  139.6290 C   0  0  0  0  0  0  0  0  0  0  0  0
  186.5360  178.4780  138.3460 C   0  0  2  0  0  3  0  0  0  0  0  0
  190.1460  177.2000  143.5970 C   0  0  0  0  0  2  0  0  0  0  0  0
  191.6040  179.1100  144.3130 C   0  0  0  0  0  1  0  0  0  0  0  0
  190.7820  177.9230  144.7840 C   0  0  2  0  0  3  0  0  0  0  0  0
  191.9580  175.8250  144.9130 O   0  0  0  0  0  1  0  0  0  0  0  0
  191.6450  176.9850  145.6290 C   0  0  2  0  0  3  0  0  0  0  0  0
  191.8910  176.1100  147.8600 O   0  0  0  0  0  1  0  0  0  0  0  0
  190.9610  176.6210  146.9510 C   0  0  1  0  0  3  0  0  0  0  0  0
  190.2140  177.8060  147.5700 C   0  0  0  0  0  2  0  0  0  0  0  0
  188.8540  177.4310  148.0630 C   0  0  0  0  0  0  0  0  0  0  0  0
  188.3670  176.3070  147.7770 O   0  0  0  0  0  0  0  0  0  0  0  0
  188.1380  178.3120  148.8620 O   0  0  0  0  0  1  0  0  0  0  0  0
  1  9  1  0  0  0  0
  2 13  1  0  0  0  0
  2  5  2  0  0  0  0
  3  2  1  0  0  0  0
  4  7  1  0  0  0  0
  5 16  1  0  0  0  0
  7  3  2  0  0  0  0
  8 21  1  0  0  0  0
  8 12  2  0  0  0  0
  9  6  2  0  0  0  0
 10 18  1  0  0  0  0
 11 20  1  0  0  0  0
 11  4  2  0  0  0  0
 13  8  1  0  0  0  0
 14  5  1  0  0  0  0
 14  1  2  0  0  0  0
 16 12  1  0  0  0  0
 16 17  2  0  0  0  0
 17  6  1  0  0  0  0
 18 13  2  0  0  0  0
 19 10  2  0  0  0  0
 19  3  1  0  0  0  0
 20 15  1  6  0  0  0
 20 19  1  0  0  0  0
 21 23  1  0  0  0  0
 23 22  1  6  0  0  0
 23 25  1  0  0  0  0
 25 24  1  6  0  0  0
 25 27  1  0  0  0  0
 27 28  1  0  0  0  0
 27 26  1  1  0  0  0
 28 29  1  0  0  0  0
 29 31  1  0  0  0  0
 30 29  2  0  0  0  0
M  END
>  <MODEL>
5

>  <REMARK>
 VINA RESULT:      -9.8      3.862      6.709
  Name = 
  6 active torsions:
  status: ('A' for Active; 'I' for Inactive)
    1  A    between atoms: C_1  and  C_24
    2  A    between atoms: C_9  and  C_22
    3  A    between atoms: C_9  and  C_23
    4  A    between atoms: C_15  and  C_23
    5  A    between atoms: C_19  and  C_22
    6  A    between atoms: C_19  and  C_24
                            x       y       z     vdW  Elec       q    Type
                         _______ _______ _______ _____ _____    ______ ____

>  <TORSDO>
F 6

$$$$
=
 OpenBabel10262419393D

 31 34  0  0  1  0  0  0  0  0999 V2000
  191.0110  176.9690  141.0880 C   0  0  0  0  0  3  0  0  0  0  0  0
  188.1620  177.7760  143.5600 C   0  0  0  0  0  0  0  0  0  0  0  0
  188.7810  177.5080  144.7770 C   0  0  0  0  0  0  0  0  0  0  0  0
  190.8000  176.9550  146.0730 C   0  0  0  0  0  3  0  0  0  0  0  0
  188.8220  177.7120  142.2590 C   0  0  0  0  0  0  0  0  0  0  0  0
  189.7460  177.8940  139.1600 C   0  0  0  0  0  3  0  0  0  0  0  0
  190.1480  177.1700  144.8640 C   0  0  0  0  0  2  0  0  0  0  0  0
  186.1370  178.5940  142.4210 C   0  0  0  0  0  0  0  0  0  0  0  0
  190.8860  177.2610  139.8060 C   0  0  0  0  0  3  0  0  0  0  0  0
  186.7850  177.9250  146.0610 C   0  0  0  0  0  3  0  0  0  0  0  0
  190.1020  177.0800  147.2640 C   0  0  0  0  0  3  0  0  0  0  0  0
  186.8080  178.5970  141.2170 C   0  0  0  0  0  3  0  0  0  0  0  0
  186.7900  178.1780  143.5860 C   0  0  0  0  0  0  0  0  0  0  0  0
  190.0620  177.1990  142.1810 C   0  0  0  0  0  3  0  0  0  0  0  0
  187.9340  177.5570  148.8050 Cl  0  0  0  0  0  0  0  0  0  0  0  0
  188.1190  178.1630  141.1030 C   0  0  0  0  0  0  0  0  0  0  0  0
  188.6000  178.2610  139.7150 C   0  0  0  0  0  3  0  0  0  0  0  0
  185.9650  178.0910  144.8380 C   0  0  0  0  0  3  0  0  0  0  0  0
  188.0810  177.6210  146.0220 C   0  0  0  0  0  0  0  0  0  0  0  0
  188.7520  177.4160  147.2490 C   0  0  0  0  0  0  0  0  0  0  0  0
  184.7130  179.0630  142.4320 C   0  0  0  0  0  2  0  0  0  0  0  0
  183.9330  179.3700  140.0690 C   0  0  0  0  0  1  0  0  0  0  0  0
  183.9250  178.4480  141.2750 C   0  0  2  0  0  3  0  0  0  0  0  0
  181.6920  177.9180  140.5430 O   0  0  0  0  0  1  0  0  0  0  0  0
  182.4870  178.1140  141.6770 C   0  0  2  0  0  3  0  0  0  0  0  0
  180.8600  179.8770  141.8890 O   0  0  0  0  0  1  0  0  0  0  0  0
  181.8800  179.2030  142.5670 C   0  0  1  0  0  3  0  0  0  0  0  0
  181.3560  178.6500  143.8950 C   0  0  0  0  0  2  0  0  0  0  0  0
  179.8800  178.4190  143.8780 C   0  0  0  0  0  0  0  0  0  0  0  0
  179.3900  177.5300  143.1330 O   0  0  0  0  0  0  0  0  0  0  0  0
  179.0500  179.1640  144.7040 O   0  0  0  0  0  1  0  0  0  0  0  0
  1 14  1  0  0  0  0
  2 13  1  0  0  0  0
  2  3  2  0  0  0  0
  3  7  1  0  0  0  0
  3 19  1  0  0  0  0
  4 11  2  0  0  0  0
  5  2  1  0  0  0  0
  6 17  2  0  0  0  0
  6  9  1  0  0  0  0
  7  4  1  0  0  0  0
  8 21  1  0  0  0  0
  8 13  2  0  0  0  0
  9  1  2  0  0  0  0
 12  8  1  0  0  0  0
 13 18  1  0  0  0  0
 14  5  2  0  0  0  0
 16 12  2  0  0  0  0
 16  5  1  0  0  0  0
 17 16  1  0  0  0  0
 18 10  2  0  0  0  0
 19 10  1  0  0  0  0
 19 20  2  0  0  0  0
 20 11  1  0  0  0  0
 20 15  1  0  0  0  0
 23 22  1  6  0  0  0
 23 25  1  0  0  0  0
 23 21  1  0  0  0  0
 25 24  1  6  0  0  0
 25 27  1  0  0  0  0
 27 26  1  6  0  0  0
 27 28  1  0  0  0  0
 29 28  1  0  0  0  0
 29 31  1  0  0  0  0
 30 29  2  0  0  0  0
M  END
>  <MODEL>
6

>  <REMARK>
 VINA RESULT:      -9.8      3.765      6.978
  Name = 
  6 active torsions:
  status: ('A' for Active; 'I' for Inactive)
    1  A    between atoms: C_1  and  C_24
    2  A    between atoms: C_9  and  C_22
    3  A    between atoms: C_9  and  C_23
    4  A    between atoms: C_15  and  C_23
    5  A    between atoms: C_19  and  C_22
    6  A    between atoms: C_19  and  C_24
                            x       y       z     vdW  Elec       q    Type
                         _______ _______ _______ _____ _____    ______ ____

>  <TORSDO>
F 6

$$$$
=
 OpenBabel10262419393D

 31 34  0  0  1  0  0  0  0  0999 V2000
  189.5660  176.7870  146.9070 C   0  0  0  0  0  3  0  0  0  0  0  0
  187.4430  178.0420  143.9420 C   0  0  0  0  0  0  0  0  0  0  0  0
  186.2030  178.2050  144.5510 C   0  0  0  0  0  0  0  0  0  0  0  0
  184.8040  178.2410  146.5770 C   0  0  0  0  0  3  0  0  0  0  0  0
  188.6670  177.6520  144.6360 C   0  0  0  0  0  0  0  0  0  0  0  0
  191.6800  176.9820  145.6170 C   0  0  0  0  0  3  0  0  0  0  0  0
  186.0220  178.0280  145.9390 C   0  0  0  0  0  3  0  0  0  0  0  0
  188.7710  178.3040  141.8840 C   0  0  0  0  0  0  0  0  0  0  0  0
  190.8770  176.6720  146.7900 C   0  0  0  0  0  3  0  0  0  0  0  0
  185.0990  178.8090  142.4970 C   0  0  0  0  0  3  0  0  0  0  0  0
  183.7040  178.6540  145.8420 C   0  0  0  0  0  3  0  0  0  0  0  0
  189.9220  178.0070  142.5810 C   0  0  0  0  0  3  0  0  0  0  0  0
  187.5360  178.3130  142.5410 C   0  0  0  0  0  0  0  0  0  0  0  0
  188.5900  177.2490  145.9160 C   0  0  0  0  0  3  0  0  0  0  0  0
  182.3720  179.3770  143.6040 Cl  0  0  0  0  0  0  0  0  0  0  0  0
  189.9030  177.6750  143.9260 C   0  0  0  0  0  0  0  0  0  0  0  0
  191.2580  177.3970  144.4310 C   0  0  0  0  0  3  0  0  0  0  0  0
  186.3140  178.5320  141.6950 C   0  0  0  0  0  3  0  0  0  0  0  0
  185.0470  178.6210  143.8130 C   0  0  0  0  0  0  0  0  0  0  0  0
  183.8160  178.8510  144.4700 C   0  0  2  0  0  3  0  0  0  0  0  0
  188.8990  178.6290  140.4260 C   0  0  0  0  0  2  0  0  0  0  0  0
  190.2410  176.6430  139.6900 C   0  0  0  0  0  1  0  0  0  0  0  0
  188.9050  177.3570  139.5790 C   0  0  2  0  0  3  0  0  0  0  0  0
  188.9800  178.9380  137.7630 O   0  0  0  0  0  1  0  0  0  0  0  0
  188.5790  177.6440  138.1120 C   0  0  2  0  0  3  0  0  0  0  0  0
  186.3820  178.6290  138.0780 O   0  0  0  0  0  1  0  0  0  0  0  0
  187.0900  177.4530  137.8140 C   0  0  1  0  0  3  0  0  0  0  0  0
  186.8330  176.9930  136.3770 C   0  0  0  0  0  2  0  0  0  0  0  0
  186.8190  175.5040  136.2450 C   0  0  0  0  0  0  0  0  0  0  0  0
  186.4650  174.7880  137.2170 O   0  0  0  0  0  1  0  0  0  0  0  0
  187.1690  174.9110  135.0400 O   0  0  0  0  0  0  0  0  0  0  0  0
  2  3  1  0  0  0  0
  2  5  2  0  0  0  0
  3  7  2  0  0  0  0
  5 14  1  0  0  0  0
  6  9  2  0  0  0  0
  7  4  1  0  0  0  0
  8 13  1  0  0  0  0
  8 12  2  0  0  0  0
  9  1  1  0  0  0  0
 10 19  2  0  0  0  0
 11  4  2  0  0  0  0
 12 16  1  0  0  0  0
 13  2  1  0  0  0  0
 14  1  2  0  0  0  0
 16 17  2  0  0  0  0
 16  5  1  0  0  0  0
 17  6  1  0  0  0  0
 18 10  1  0  0  0  0
 18 13  2  0  0  0  0
 19 20  1  0  0  0  0
 19  3  1  0  0  0  0
 20 15  1  6  0  0  0
 20 11  1  0  0  0  0
 21  8  1  0  0  0  0
 23 22  1  6  0  0  0
 23 21  1  0  0  0  0
 25 24  1  1  0  0  0
 25 23  1  0  0  0  0
 27 26  1  6  0  0  0
 27 25  1  0  0  0  0
 28 27  1  0  0  0  0
 29 28  1  0  0  0  0
 29 30  1  0  0  0  0
 31 29  2  0  0  0  0
M  END
>  <MODEL>
7

>  <REMARK>
 VINA RESULT:      -9.7      1.446      2.156
  Name = 
  6 active torsions:
  status: ('A' for Active; 'I' for Inactive)
    1  A    between atoms: C_1  and  C_24
    2  A    between atoms: C_9  and  C_22
    3  A    between atoms: C_9  and  C_23
    4  A    between atoms: C_15  and  C_23
    5  A    between atoms: C_19  and  C_22
    6  A    between atoms: C_19  and  C_24
                            x       y       z     vdW  Elec       q    Type
                         _______ _______ _______ _____ _____    ______ ____

>  <TORSDO>
F 6

$$$$
=
 OpenBabel10262419393D

 31 34  0  0  1  0  0  0  0  0999 V2000
  184.4220  178.7710  144.1260 C   0  0  0  0  0  3  0  0  0  0  0  0
  188.1550  177.9170  143.6640 C   0  0  0  0  0  0  0  0  0  0  0  0
  188.5160  177.5850  144.9660 C   0  0  0  0  0  0  0  0  0  0  0  0
  187.8990  177.1290  147.3060 C   0  0  0  0  0  3  0  0  0  0  0  0
  186.8000  178.2530  143.2360 C   0  0  0  0  0  0  0  0  0  0  0  0
  184.0400  178.9150  141.6750 C   0  0  0  0  0  3  0  0  0  0  0  0
  187.5700  177.5140  146.0100 C   0  0  0  0  0  3  0  0  0  0  0  0
  188.8690  178.0810  141.3120 C   0  0  0  0  0  0  0  0  0  0  0  0
  183.6480  178.9770  143.0750 C   0  0  0  0  0  3  0  0  0  0  0  0
  190.8390  177.2750  144.4080 C   0  0  0  0  0  3  0  0  0  0  0  0
  189.2060  176.7850  147.6110 C   0  0  0  0  0  3  0  0  0  0  0  0
  187.5680  178.3200  140.9270 C   0  0  0  0  0  3  0  0  0  0  0  0
  189.1770  177.8920  142.6640 C   0  0  0  0  0  0  0  0  0  0  0  0
  185.8460  178.4290  144.1670 C   0  0  0  0  0  3  0  0  0  0  0  0
  191.8270  176.3760  147.0920 Cl  0  0  0  0  0  0  0  0  0  0  0  0
  186.5340  178.4190  141.8450 C   0  0  0  0  0  0  0  0  0  0  0  0
  185.2480  178.6840  141.1800 C   0  0  0  0  0  3  0  0  0  0  0  0
  190.6290  177.7510  143.0210 C   0  0  0  0  0  2  0  0  0  0  0  0
  189.8620  177.2350  145.3110 C   0  0  0  0  0  0  0  0  0  0  0  0
  190.1870  176.8290  146.6260 C   0  0  0  0  0  0  0  0  0  0  0  0
  189.9170  178.0140  140.2420 C   0  0  0  0  0  2  0  0  0  0  0  0
  191.1730  176.2420  138.9900 C   0  0  0  0  0  1  0  0  0  0  0  0
  189.8040  176.7150  139.4450 C   0  0  2  0  0  3  0  0  0  0  0  0
  188.6170  175.6130  137.6610 O   0  0  0  0  0  1  0  0  0  0  0  0
  188.8690  176.8600  138.2430 C   0  0  2  0  0  3  0  0  0  0  0  0
  189.8000  177.1370  136.0400 O   0  0  0  0  0  1  0  0  0  0  0  0
  189.4340  177.8270  137.1990 C   0  0  1  0  0  3  0  0  0  0  0  0
  188.4580  178.9550  136.8550 C   0  0  0  0  0  2  0  0  0  0  0  0
  187.0340  178.5030  136.8570 C   0  0  0  0  0  0  0  0  0  0  0  0
  186.2640  178.8490  137.7910 O   0  0  0  0  0  1  0  0  0  0  0  0
  186.5510  177.7250  135.8140 O   0  0  0  0  0  0  0  0  0  0  0  0
  1 14  1  0  0  0  0
  2  3  2  0  0  0  0
  3 19  1  0  0  0  0
  3  7  1  0  0  0  0
  4 11  1  0  0  0  0
  5  2  1  0  0  0  0
  5 14  2  0  0  0  0
  6  9  1  0  0  0  0
  7  4  2  0  0  0  0
  8 13  2  0  0  0  0
  9  1  2  0  0  0  0
 10 19  2  0  0  0  0
 12  8  1  0  0  0  0
 12 16  2  0  0  0  0
 13 18  1  0  0  0  0
 13  2  1  0  0  0  0
 16  5  1  0  0  0  0
 17  6  2  0  0  0  0
 17 16  1  0  0  0  0
 18 10  1  0  0  0  0
 19 20  1  0  0  0  0
 20 15  1  0  0  0  0
 20 11  2  0  0  0  0
 21  8  1  0  0  0  0
 23 22  1  6  0  0  0
 23 21  1  0  0  0  0
 25 24  1  6  0  0  0
 25 23  1  0  0  0  0
 27 26  1  6  0  0  0
 27 25  1  0  0  0  0
 28 29  1  0  0  0  0
 28 27  1  0  0  0  0
 29 30  1  0  0  0  0
 31 29  2  0  0  0  0
M  END
>  <MODEL>
8

>  <REMARK>
 VINA RESULT:      -9.7      2.227      4.502
  Name = 
  6 active torsions:
  status: ('A' for Active; 'I' for Inactive)
    1  A    between atoms: C_1  and  C_24
    2  A    between atoms: C_9  and  C_22
    3  A    between atoms: C_9  and  C_23
    4  A    between atoms: C_15  and  C_23
    5  A    between atoms: C_19  and  C_22
    6  A    between atoms: C_19  and  C_24
                            x       y       z     vdW  Elec       q    Type
                         _______ _______ _______ _____ _____    ______ ____

>  <TORSDO>
F 6

$$$$
=
 OpenBabel10262419393D

 31 34  0  0  1  0  0  0  0  0999 V2000
  186.5070  178.0150  146.4520 C   0  0  0  0  0  3  0  0  0  0  0  0
  187.0760  178.1100  142.6380 C   0  0  0  0  0  0  0  0  0  0  0  0
  188.3600  177.5810  142.5460 C   0  0  0  0  0  0  0  0  0  0  0  0
  190.3030  176.4920  143.5950 C   0  0  0  0  0  3  0  0  0  0  0  0
  186.3130  178.2330  143.8770 C   0  0  0  0  0  0  0  0  0  0  0  0
  184.1080  178.6180  146.2180 C   0  0  0  0  0  3  0  0  0  0  0  0
  189.0440  177.0770  143.6720 C   0  0  0  0  0  3  0  0  0  0  0  0
  185.1060  178.9450  141.4180 C   0  0  0  0  0  0  0  0  0  0  0  0
  185.3150  178.2800  146.9570 C   0  0  0  0  0  3  0  0  0  0  0  0
  188.4930  177.9110  140.1640 C   0  0  0  0  0  3  0  0  0  0  0  0
  190.9350  176.3780  142.3660 C   0  0  0  0  0  3  0  0  0  0  0  0
  184.3850  178.9780  142.5920 C   0  0  0  0  0  3  0  0  0  0  0  0
  186.4420  178.5300  141.4270 C   0  0  0  0  0  0  0  0  0  0  0  0
  186.9260  177.9870  145.0480 C   0  0  0  0  0  3  0  0  0  0  0  0
  191.1800  176.6690  139.6900 Cl  0  0  0  0  0  0  0  0  0  0  0  0
  184.9490  178.6450  143.8120 C   0  0  0  0  0  0  0  0  0  0  0  0
  183.9740  178.7680  144.9080 C   0  0  0  0  0  3  0  0  0  0  0  0
  187.1970  178.6280  140.1320 C   0  0  0  0  0  3  0  0  0  0  0  0
  189.0400  177.4600  141.2910 C   0  0  0  0  0  0  0  0  0  0  0  0
  190.3130  176.8510  141.2150 C   0  0  2  0  0  3  0  0  0  0  0  0
  184.4070  179.3460  140.1530 C   0  0  0  0  0  2  0  0  0  0  0  0
  183.4300  177.2990  139.0850 C   0  0  0  0  0  1  0  0  0  0  0  0
  183.1400  178.5180  139.9420 C   0  0  2  0  0  3  0  0  0  0  0  0
  182.5170  180.5280  138.7690 O   0  0  0  0  0  1  0  0  0  0  0  0
  182.0130  179.3450  139.3200 C   0  0  2  0  0  3  0  0  0  0  0  0
  179.6610  179.6720  139.7180 O   0  0  0  0  0  1  0  0  0  0  0  0
  180.9140  179.6620  140.3380 C   0  0  1  0  0  3  0  0  0  0  0  0
  180.9100  178.6890  141.5200 C   0  0  0  0  0  2  0  0  0  0  0  0
  180.5260  179.3490  142.8050 C   0  0  0  0  0  0  0  0  0  0  0  0
  180.1560  180.5520  142.8090 O   0  0  0  0  0  0  0  0  0  0  0  0
  180.5500  178.6280  143.9900 O   0  0  0  0  0  1  0  0  0  0  0  0
  1  9  1  0  0  0  0
  2  5  2  0  0  0  0
  3  2  1  0  0  0  0
  3  7  2  0  0  0  0
  4  7  1  0  0  0  0
  5 14  1  0  0  0  0
  6  9  2  0  0  0  0
  8 13  1  0  0  0  0
  8 12  2  0  0  0  0
 10 19  2  0  0  0  0
 11  4  2  0  0  0  0
 12 16  1  0  0  0  0
 13  2  1  0  0  0  0
 14  1  2  0  0  0  0
 16  5  1  0  0  0  0
 16 17  2  0  0  0  0
 17  6  1  0  0  0  0
 18 10  1  0  0  0  0
 18 13  2  0  0  0  0
 19  3  1  0  0  0  0
 20 15  1  1  0  0  0
 20 19  1  0  0  0  0
 20 11  1  0  0  0  0
 21  8  1  0  0  0  0
 23 22  1  6  0  0  0
 23 21  1  0  0  0  0
 25 24  1  1  0  0  0
 25 23  1  0  0  0  0
 25 27  1  0  0  0  0
 27 26  1  6  0  0  0
 27 28  1  0  0  0  0
 28 29  1  0  0  0  0
 29 30  2  0  0  0  0
 29 31  1  0  0  0  0
M  END
>  <MODEL>
9

>  <REMARK>
 VINA RESULT:      -9.4      3.894      7.017
  Name = 
  6 active torsions:
  status: ('A' for Active; 'I' for Inactive)
    1  A    between atoms: C_1  and  C_24
    2  A    between atoms: C_9  and  C_22
    3  A    between atoms: C_9  and  C_23
    4  A    between atoms: C_15  and  C_23
    5  A    between atoms: C_19  and  C_22
    6  A    between atoms: C_19  and  C_24
                            x       y       z     vdW  Elec       q    Type
                         _______ _______ _______ _____ _____    ______ ____

>  <TORSDO>
F 6

$$$$
