=
 OpenBabel10262420553D

 28 32  0  0  1  0  0  0  0  0999 V2000
  184.2940  178.5690  142.8680 C   0  0  0  0  0  0  0  0  0  0  0  0
  189.0690  177.9630  140.9750 C   0  0  0  0  0  2  0  0  0  0  0  0
  187.2130  177.9060  146.8340 C   0  0  0  0  0  1  0  0  0  0  0  0
  190.3590  177.9730  143.0690 C   0  0  2  0  0  3  0  0  0  0  0  0
  187.9480  177.9780  143.2230 N   0  0  1  0  0  0  0  0  0  0  0  0
  191.5280  177.4230  140.9790 C   0  0  0  0  0  0  0  0  0  0  0  0
  189.0630  177.4760  142.4250 C   0  0  1  0  0  3  0  0  0  0  0  0
  189.3570  177.0240  145.0960 C   0  0  0  0  0  2  0  0  0  0  0  0
  191.5580  177.2500  142.4740 C   0  0  0  0  0  2  0  0  0  0  0  0
  185.6940  178.2030  144.8370 C   0  0  0  0  0  0  0  0  0  0  0  0
  186.6670  177.6960  142.5710 C   0  0  0  0  0  2  0  0  0  0  0  0
  190.3480  177.9540  144.5420 N   0  0  0  0  0  2  0  0  0  0  0  0
  183.4320  179.0460  145.0870 C   0  0  0  0  0  3  0  0  0  0  0  0
  186.9570  177.7950  145.4010 N   0  0  0  0  0  0  0  0  0  0  0  0
  184.6430  178.6440  145.6530 C   0  0  0  0  0  3  0  0  0  0  0  0
  192.5710  177.5890  140.3680 O   0  0  0  0  0  0  0  0  0  0  0  0
  190.2280  177.2980  140.2210 C   0  0  0  0  0  2  0  0  0  0  0  0
  187.9470  177.2190  144.4830 C   0  0  1  0  0  3  0  0  0  0  0  0
  183.2600  179.0080  143.7020 C   0  0  0  0  0  3  0  0  0  0  0  0
  185.5240  178.1810  143.4340 C   0  0  0  0  0  0  0  0  0  0  0  0
  184.0680  178.5310  141.3780 C   0  0  0  0  0  2  0  0  0  0  0  0
  182.8020  177.8930  140.9890 N   0  0  0  0  0  0  0  0  0  0  0  0
  181.4510  177.9950  139.1350 C   0  0  0  0  0  0  0  0  0  0  0  0
  183.0790  176.7740  140.2420 O   0  0  0  0  0  0  0  0  0  0  0  0
  180.8730  179.3730  141.0560 C   0  0  0  0  0  1  0  0  0  0  0  0
  181.9970  178.8190  140.2010 C   0  0  1  0  0  3  0  0  0  0  0  0
  181.1050  178.4930  138.0060 N   0  0  0  0  0  2  0  0  0  0  0  0
  182.1030  176.6850  139.2290 C   0  0  0  0  0  2  0  0  0  0  0  0
  1 20  2  0  0  0  0
  1 19  1  0  0  0  0
  4  9  1  6  0  0  0
  4 12  1  0  0  0  0
  5 11  1  6  0  0  0
  5 18  1  0  0  0  0
  6  9  1  0  0  0  0
  7  2  1  6  0  0  0
  7  4  1  0  0  0  0
  7  5  1  0  0  0  0
 10 14  1  0  0  0  0
 10 15  2  0  0  0  0
 11 20  1  0  0  0  0
 12  8  1  0  0  0  0
 13 15  1  0  0  0  0
 14  3  1  0  0  0  0
 16  6  2  0  0  0  0
 17  2  1  0  0  0  0
 17  6  1  0  0  0  0
 18  8  1  1  0  0  0
 18 14  1  0  0  0  0
 19 13  2  0  0  0  0
 20 10  1  0  0  0  0
 21  1  1  0  0  0  0
 22 21  1  0  0  0  0
 23 28  1  0  0  0  0
 23 26  1  0  0  0  0
 24 22  1  0  0  0  0
 26 22  1  0  0  0  0
 26 25  1  1  0  0  0
 27 23  2  0  0  0  0
 28 24  1  0  0  0  0
M  END
>  <MODEL>
1

>  <REMARK>
 VINA RESULT:      -9.5      0.000      0.000
  Name = 
  2 active torsions:
  status: ('A' for Active; 'I' for Inactive)
    1  A    between atoms: C_1  and  C_2
    2  A    between atoms: C_2  and  N_3
                            x       y       z     vdW  Elec       q    Type
                         _______ _______ _______ _____ _____    ______ ____

>  <TORSDO>
F 2

$$$$
=
 OpenBabel10262420553D

 28 32  0  0  1  0  0  0  0  0999 V2000
  185.2660  178.9510  144.1650 C   0  0  0  0  0  0  0  0  0  0  0  0
  188.2370  178.1520  140.0080 C   0  0  0  0  0  2  0  0  0  0  0  0
  189.3360  176.6670  145.8690 C   0  0  0  0  0  1  0  0  0  0  0  0
  190.2800  177.3260  141.0990 C   0  0  2  0  0  3  0  0  0  0  0  0
  188.3260  177.6850  142.4740 N   0  0  1  0  0  0  0  0  0  0  0  0
  190.1470  177.2360  138.6470 C   0  0  0  0  0  0  0  0  0  0  0  0
  188.7520  177.2640  141.1420 C   0  0  1  0  0  3  0  0  0  0  0  0
  190.0860  175.9980  143.1520 C   0  0  0  0  0  2  0  0  0  0  0  0
  190.8040  176.6240  139.8560 C   0  0  0  0  0  2  0  0  0  0  0  0
  187.2340  177.7900  145.0300 C   0  0  0  0  0  0  0  0  0  0  0  0
  186.8690  177.8250  142.5400 C   0  0  0  0  0  2  0  0  0  0  0  0
  190.9370  176.8730  142.3370 N   0  0  0  0  0  2  0  0  0  0  0  0
  185.6950  178.8840  146.5540 C   0  0  0  0  0  3  0  0  0  0  0  0
  188.4340  177.0300  144.7800 N   0  0  0  0  0  0  0  0  0  0  0  0
  186.8530  178.1370  146.3340 C   0  0  0  0  0  3  0  0  0  0  0  0
  190.7930  177.4000  137.6250 O   0  0  0  0  0  0  0  0  0  0  0  0
  188.6720  177.5580  138.6610 C   0  0  0  0  0  2  0  0  0  0  0  0
  188.6780  176.5970  143.4000 C   0  0  1  0  0  3  0  0  0  0  0  0
  184.9060  179.2880  145.4750 C   0  0  0  0  0  3  0  0  0  0  0  0
  186.4450  178.2150  143.9370 C   0  0  0  0  0  0  0  0  0  0  0  0
  184.3840  179.3950  143.0250 C   0  0  0  0  0  2  0  0  0  0  0  0
  183.3310  178.4300  142.6830 N   0  0  0  0  0  0  0  0  0  0  0  0
  181.3270  178.5610  141.5690 C   0  0  0  0  0  0  0  0  0  0  0  0
  183.5580  177.9550  141.4140 O   0  0  0  0  0  0  0  0  0  0  0  0
  181.2990  178.6540  144.0010 C   0  0  0  0  0  1  0  0  0  0  0  0
  182.0240  179.0750  142.7370 C   0  0  1  0  0  3  0  0  0  0  0  0
  180.3800  179.2140  141.0060 N   0  0  0  0  0  2  0  0  0  0  0  0
  182.3050  177.7980  140.7870 C   0  0  0  0  0  2  0  0  0  0  0  0
  1 19  1  0  0  0  0
  4  9  1  6  0  0  0
  4  7  1  0  0  0  0
  4 12  1  0  0  0  0
  5 11  1  6  0  0  0
  5 18  1  0  0  0  0
  6 17  1  0  0  0  0
  6  9  1  0  0  0  0
  7  2  1  6  0  0  0
  7  5  1  0  0  0  0
 10 15  2  0  0  0  0
 11 20  1  0  0  0  0
 12  8  1  0  0  0  0
 14 10  1  0  0  0  0
 14  3  1  0  0  0  0
 15 13  1  0  0  0  0
 16  6  2  0  0  0  0
 17  2  1  0  0  0  0
 18  8  1  1  0  0  0
 18 14  1  0  0  0  0
 19 13  2  0  0  0  0
 20  1  2  0  0  0  0
 20 10  1  0  0  0  0
 21  1  1  0  0  0  0
 22 26  1  0  0  0  0
 22 21  1  0  0  0  0
 23 26  1  0  0  0  0
 24 22  1  0  0  0  0
 26 25  1  1  0  0  0
 27 23  2  0  0  0  0
 28 24  1  0  0  0  0
 28 23  1  0  0  0  0
M  END
>  <MODEL>
2

>  <REMARK>
 VINA RESULT:      -9.3      1.598      2.192
  Name = 
  2 active torsions:
  status: ('A' for Active; 'I' for Inactive)
    1  A    between atoms: C_1  and  C_2
    2  A    between atoms: C_2  and  N_3
                            x       y       z     vdW  Elec       q    Type
                         _______ _______ _______ _____ _____    ______ ____

>  <TORSDO>
F 2

$$$$
=
 OpenBabel10262420553D

 28 32  0  0  1  0  0  0  0  0999 V2000
  187.1090  178.2260  140.7740 C   0  0  0  0  0  0  0  0  0  0  0  0
  190.4320  177.2750  144.6220 C   0  0  0  0  0  2  0  0  0  0  0  0
  184.4410  178.6070  144.9490 C   0  0  0  0  0  1  0  0  0  0  0  0
  189.0110  177.8200  146.5540 C   0  0  2  0  0  3  0  0  0  0  0  0
  187.9920  177.8140  144.3630 N   0  0  1  0  0  0  0  0  0  0  0  0
  191.2090  176.8020  146.9700 C   0  0  0  0  0  0  0  0  0  0  0  0
  189.0110  177.1550  145.1760 C   0  0  1  0  0  3  0  0  0  0  0  0
  186.6030  177.3730  146.4310 C   0  0  0  0  0  2  0  0  0  0  0  0
  189.8280  176.9980  147.5390 C   0  0  0  0  0  2  0  0  0  0  0  0
  185.7580  178.3780  142.8050 C   0  0  0  0  0  0  0  0  0  0  0  0
  188.0530  177.3560  142.9720 C   0  0  0  0  0  2  0  0  0  0  0  0
  187.6700  178.1600  147.0600 N   0  0  0  0  0  2  0  0  0  0  0  0
  184.8910  179.2110  140.6970 C   0  0  0  0  0  3  0  0  0  0  0  0
  185.6200  178.1460  144.2210 N   0  0  0  0  0  0  0  0  0  0  0  0
  184.7330  178.9830  142.0650 C   0  0  0  0  0  3  0  0  0  0  0  0
  192.1780  176.8350  147.7090 O   0  0  0  0  0  0  0  0  0  0  0  0
  191.3920  176.4700  145.5090 C   0  0  0  0  0  2  0  0  0  0  0  0
  186.6850  177.3840  144.8830 C   0  0  1  0  0  3  0  0  0  0  0  0
  186.0730  178.8340  140.0560 C   0  0  0  0  0  3  0  0  0  0  0  0
  186.9610  178.0130  142.1590 C   0  0  0  0  0  0  0  0  0  0  0  0
  188.3670  177.8220  140.0470 C   0  0  0  0  0  2  0  0  0  0  0  0
  188.1680  177.5880  138.6100 N   0  0  0  0  0  0  0  0  0  0  0  0
  189.5290  176.9240  136.8840 C   0  0  0  0  0  0  0  0  0  0  0  0
  187.9170  176.2530  138.4060 O   0  0  0  0  0  0  0  0  0  0  0  0
  189.1200  179.3060  137.1740 C   0  0  0  0  0  1  0  0  0  0  0  0
  189.3620  177.9790  137.8700 C   0  0  1  0  0  3  0  0  0  0  0  0
  190.6740  176.6440  136.3820 N   0  0  0  0  0  2  0  0  0  0  0  0
  188.5540  175.8770  137.2060 C   0  0  0  0  0  2  0  0  0  0  0  0
  1 20  1  0  0  0  0
  2 17  1  0  0  0  0
  4 12  1  0  0  0  0
  4  9  1  1  0  0  0
  5 11  1  6  0  0  0
  5 18  1  0  0  0  0
  5  7  1  0  0  0  0
  6  9  1  0  0  0  0
  6 16  2  0  0  0  0
  7  2  1  6  0  0  0
  7  4  1  0  0  0  0
  8 12  1  0  0  0  0
 10 14  1  0  0  0  0
 13 15  2  0  0  0  0
 14 18  1  0  0  0  0
 14  3  1  0  0  0  0
 15 10  1  0  0  0  0
 17  6  1  0  0  0  0
 18  8  1  1  0  0  0
 19 13  1  0  0  0  0
 19  1  2  0  0  0  0
 20 10  2  0  0  0  0
 20 11  1  0  0  0  0
 21  1  1  0  0  0  0
 22 21  1  0  0  0  0
 23 28  1  0  0  0  0
 23 26  1  0  0  0  0
 24 22  1  0  0  0  0
 26 25  1  6  0  0  0
 26 22  1  0  0  0  0
 27 23  2  0  0  0  0
 28 24  1  0  0  0  0
M  END
>  <MODEL>
3

>  <REMARK>
 VINA RESULT:      -9.0      3.019      5.167
  Name = 
  2 active torsions:
  status: ('A' for Active; 'I' for Inactive)
    1  A    between atoms: C_1  and  C_2
    2  A    between atoms: C_2  and  N_3
                            x       y       z     vdW  Elec       q    Type
                         _______ _______ _______ _____ _____    ______ ____

>  <TORSDO>
F 2

$$$$
=
 OpenBabel10262420553D

 28 32  0  0  1  0  0  0  0  0999 V2000
  187.2310  178.2290  139.5590 C   0  0  0  0  0  0  0  0  0  0  0  0
  187.4990  177.5110  144.6740 C   0  0  0  0  0  2  0  0  0  0  0  0
  192.0170  177.2960  140.5130 C   0  0  0  0  0  1  0  0  0  0  0  0
  189.8330  176.7650  144.8750 C   0  0  2  0  0  3  0  0  0  0  0  0
  189.0700  177.5280  142.7140 N   0  0  1  0  0  0  0  0  0  0  0  0
  188.5660  177.2070  146.9340 C   0  0  0  0  0  0  0  0  0  0  0  0
  188.9150  177.7500  144.1490 C   0  0  1  0  0  3  0  0  0  0  0  0
  191.5160  177.6750  143.3420 C   0  0  0  0  0  2  0  0  0  0  0  0
  189.9500  177.1350  146.3460 C   0  0  0  0  0  2  0  0  0  0  0  0
  189.5990  177.8170  139.9980 C   0  0  0  0  0  0  0  0  0  0  0  0
  188.0910  178.3090  141.9530 C   0  0  0  0  0  2  0  0  0  0  0  0
  191.1400  176.5660  144.2260 N   0  0  0  0  0  2  0  0  0  0  0  0
  188.7470  177.7350  137.7280 C   0  0  0  0  0  3  0  0  0  0  0  0
  190.6810  177.6980  140.9440 N   0  0  0  0  0  0  0  0  0  0  0  0
  189.8100  177.6280  138.6260 C   0  0  0  0  0  3  0  0  0  0  0  0
  188.3680  176.8020  148.0670 O   0  0  0  0  0  0  0  0  0  0  0  0
  187.4440  177.8640  146.1660 C   0  0  0  0  0  2  0  0  0  0  0  0
  190.3940  178.0480  142.3400 C   0  0  1  0  0  3  0  0  0  0  0  0
  187.4650  178.0340  138.1930 C   0  0  0  0  0  3  0  0  0  0  0  0
  188.2970  178.1020  140.4700 C   0  0  0  0  0  0  0  0  0  0  0  0
  185.8350  178.5620  140.0230 C   0  0  0  0  0  2  0  0  0  0  0  0
  184.9270  178.9460  138.9350 N   0  0  0  0  0  0  0  0  0  0  0  0
  182.6540  178.8400  138.6210 C   0  0  0  0  0  0  0  0  0  0  0  0
  184.4390  180.2050  139.1850 O   0  0  0  0  0  0  0  0  0  0  0  0
  184.0290  177.0710  137.6700 C   0  0  0  0  0  1  0  0  0  0  0  0
  183.8190  178.0010  138.8510 C   0  0  1  0  0  3  0  0  0  0  0  0
  181.4760  178.4670  138.9590 N   0  0  0  0  0  2  0  0  0  0  0  0
  183.0910  180.2320  138.7700 C   0  0  0  0  0  2  0  0  0  0  0  0
  1 21  1  0  0  0  0
  1 20  1  0  0  0  0
  2 17  1  0  0  0  0
  3 14  1  0  0  0  0
  4  9  1  1  0  0  0
  5 11  1  6  0  0  0
  5  7  1  0  0  0  0
  6 16  2  0  0  0  0
  7  2  1  1  0  0  0
  7  4  1  0  0  0  0
  8 12  1  0  0  0  0
  9  6  1  0  0  0  0
 10 20  2  0  0  0  0
 10 14  1  0  0  0  0
 12  4  1  0  0  0  0
 13 19  1  0  0  0  0
 13 15  2  0  0  0  0
 14 18  1  0  0  0  0
 15 10  1  0  0  0  0
 17  6  1  0  0  0  0
 18  5  1  0  0  0  0
 18  8  1  1  0  0  0
 19  1  2  0  0  0  0
 20 11  1  0  0  0  0
 22 24  1  0  0  0  0
 22 21  1  0  0  0  0
 23 28  1  0  0  0  0
 23 26  1  0  0  0  0
 23 27  2  0  0  0  0
 26 25  1  6  0  0  0
 26 22  1  0  0  0  0
 28 24  1  0  0  0  0
M  END
>  <MODEL>
4

>  <REMARK>
 VINA RESULT:      -9.0      2.766      4.984
  Name = 
  2 active torsions:
  status: ('A' for Active; 'I' for Inactive)
    1  A    between atoms: C_1  and  C_2
    2  A    between atoms: C_2  and  N_3
                            x       y       z     vdW  Elec       q    Type
                         _______ _______ _______ _____ _____    ______ ____

>  <TORSDO>
F 2

$$$$
=
 OpenBabel10262420553D

 28 32  0  0  1  0  0  0  0  0999 V2000
  184.6710  178.2380  143.4060 C   0  0  0  0  0  0  0  0  0  0  0  0
  189.2930  177.7140  141.1450 C   0  0  0  0  0  2  0  0  0  0  0  0
  187.9610  178.1610  147.1280 C   0  0  0  0  0  1  0  0  0  0  0  0
  190.7570  178.0160  143.0980 C   0  0  2  0  0  3  0  0  0  0  0  0
  188.3740  177.8990  143.4750 N   0  0  1  0  0  0  0  0  0  0  0  0
  191.7740  177.3210  140.9720 C   0  0  0  0  0  0  0  0  0  0  0  0
  189.4460  177.3810  142.6300 C   0  0  1  0  0  3  0  0  0  0  0  0
  190.0000  177.2280  145.2930 C   0  0  0  0  0  2  0  0  0  0  0  0
  191.9450  177.3060  142.4680 C   0  0  0  0  0  2  0  0  0  0  0  0
  186.2580  178.1600  145.2620 C   0  0  0  0  0  0  0  0  0  0  0  0
  187.0620  177.4770  142.9760 C   0  0  0  0  0  2  0  0  0  0  0  0
  190.8750  178.1500  144.5600 N   0  0  0  0  0  2  0  0  0  0  0  0
  183.9760  178.8930  145.6380 C   0  0  0  0  0  3  0  0  0  0  0  0
  187.5900  177.8870  145.7430 N   0  0  0  0  0  0  0  0  0  0  0  0
  185.2550  178.6230  146.1250 C   0  0  0  0  0  3  0  0  0  0  0  0
  192.7460  177.4810  140.2530 O   0  0  0  0  0  0  0  0  0  0  0  0
  190.4250  177.0420  140.3550 C   0  0  0  0  0  2  0  0  0  0  0  0
  188.5320  177.2770  144.7980 C   0  0  1  0  0  3  0  0  0  0  0  0
  183.6860  178.7020  144.2860 C   0  0  0  0  0  3  0  0  0  0  0  0
  185.9690  177.9830  143.8900 C   0  0  0  0  0  0  0  0  0  0  0  0
  184.3190  178.0320  141.9540 C   0  0  0  0  0  2  0  0  0  0  0  0
  183.3620  179.0180  141.4330 N   0  0  0  0  0  0  0  0  0  0  0  0
  181.6530  178.9480  139.9010 C   0  0  0  0  0  0  0  0  0  0  0  0
  182.1950  178.9280  142.1530 O   0  0  0  0  0  0  0  0  0  0  0  0
  183.8250  179.7630  139.1640 C   0  0  0  0  0  1  0  0  0  0  0  0
  183.0880  178.7540  140.0250 C   0  0  1  0  0  3  0  0  0  0  0  0
  180.9700  178.3680  138.9850 N   0  0  0  0  0  2  0  0  0  0  0  0
  181.1250  179.1250  141.2570 C   0  0  0  0  0  2  0  0  0  0  0  0
  1 20  2  0  0  0  0
  1 19  1  0  0  0  0
  4  9  1  1  0  0  0
  4 12  1  0  0  0  0
  5 11  1  6  0  0  0
  5 18  1  0  0  0  0
  6  9  1  0  0  0  0
  7  2  1  6  0  0  0
  7  4  1  0  0  0  0
  7  5  1  0  0  0  0
 10 14  1  0  0  0  0
 10 15  2  0  0  0  0
 11 20  1  0  0  0  0
 12  8  1  0  0  0  0
 13 15  1  0  0  0  0
 14  3  1  0  0  0  0
 16  6  2  0  0  0  0
 17  6  1  0  0  0  0
 17  2  1  0  0  0  0
 18  8  1  1  0  0  0
 18 14  1  0  0  0  0
 19 13  2  0  0  0  0
 20 10  1  0  0  0  0
 21  1  1  0  0  0  0
 22 21  1  0  0  0  0
 22 24  1  0  0  0  0
 23 26  1  0  0  0  0
 23 28  1  0  0  0  0
 26 25  1  6  0  0  0
 26 22  1  0  0  0  0
 27 23  2  0  0  0  0
 28 24  1  0  0  0  0
M  END
>  <MODEL>
5

>  <REMARK>
 VINA RESULT:      -9.0      0.990      1.283
  Name = 
  2 active torsions:
  status: ('A' for Active; 'I' for Inactive)
    1  A    between atoms: C_1  and  C_2
    2  A    between atoms: C_2  and  N_3
                            x       y       z     vdW  Elec       q    Type
                         _______ _______ _______ _____ _____    ______ ____

>  <TORSDO>
F 2

$$$$
=
 OpenBabel10262420553D

 28 32  0  0  1  0  0  0  0  0999 V2000
  190.2730  176.3810  143.8610 C   0  0  0  0  0  0  0  0  0  0  0  0
  185.2980  177.6560  143.2550 C   0  0  0  0  0  2  0  0  0  0  0  0
  188.8120  178.1320  148.2750 C   0  0  0  0  0  1  0  0  0  0  0  0
  184.7080  178.1820  145.5840 C   0  0  2  0  0  3  0  0  0  0  0  0
  187.0250  177.7220  145.0770 N   0  0  1  0  0  0  0  0  0  0  0  0
  183.0620  178.6650  143.8250 C   0  0  0  0  0  0  0  0  0  0  0  0
  185.8110  178.3230  144.5330 C   0  0  1  0  0  3  0  0  0  0  0  0
  186.4030  179.1770  147.0510 C   0  0  0  0  0  2  0  0  0  0  0  0
  183.5090  179.0400  145.2130 C   0  0  0  0  0  2  0  0  0  0  0  0
  189.6000  177.2760  146.0320 C   0  0  0  0  0  0  0  0  0  0  0  0
  188.0790  177.6560  144.0620 C   0  0  0  0  0  2  0  0  0  0  0  0
  185.1640  178.3950  146.9690 N   0  0  0  0  0  2  0  0  0  0  0  0
  191.6790  176.0460  145.8120 C   0  0  0  0  0  3  0  0  0  0  0  0
  188.6400  177.9970  146.8310 N   0  0  0  0  0  0  0  0  0  0  0  0
  190.7690  176.7510  146.6000 C   0  0  0  0  0  3  0  0  0  0  0  0
  181.8720  178.6280  143.5610 O   0  0  0  0  0  0  0  0  0  0  0  0
  184.0790  178.4290  142.7340 C   0  0  0  0  0  2  0  0  0  0  0  0
  187.5180  178.6280  146.1260 C   0  0  1  0  0  3  0  0  0  0  0  0
  191.4320  175.8620  144.4500 C   0  0  0  0  0  3  0  0  0  0  0  0
  189.3420  177.0750  144.6570 C   0  0  0  0  0  0  0  0  0  0  0  0
  190.0450  176.1730  142.3850 C   0  0  0  0  0  2  0  0  0  0  0  0
  190.2350  177.3890  141.5810 N   0  0  0  0  0  0  0  0  0  0  0  0
  190.2250  177.8490  139.3320 C   0  0  0  0  0  0  0  0  0  0  0  0
  189.0050  177.9320  141.2990 O   0  0  0  0  0  0  0  0  0  0  0  0
  192.3720  177.5030  140.4250 C   0  0  0  0  0  1  0  0  0  0  0  0
  190.9220  177.0640  140.3370 C   0  0  1  0  0  3  0  0  0  0  0  0
  190.1990  177.5000  138.1000 N   0  0  0  0  0  2  0  0  0  0  0  0
  189.0550  178.4440  139.9870 C   0  0  0  0  0  2  0  0  0  0  0  0
  1 19  2  0  0  0  0
  1 20  1  0  0  0  0
  4  9  1  6  0  0  0
  4 12  1  0  0  0  0
  5 11  1  6  0  0  0
  5 18  1  0  0  0  0
  6  9  1  0  0  0  0
  7  2  1  6  0  0  0
  7  5  1  0  0  0  0
  7  4  1  0  0  0  0
 10 15  1  0  0  0  0
 10 14  1  0  0  0  0
 11 20  1  0  0  0  0
 12  8  1  0  0  0  0
 13 15  2  0  0  0  0
 14  3  1  0  0  0  0
 16  6  2  0  0  0  0
 17  2  1  0  0  0  0
 17  6  1  0  0  0  0
 18 14  1  0  0  0  0
 18  8  1  1  0  0  0
 19 13  1  0  0  0  0
 20 10  2  0  0  0  0
 21  1  1  0  0  0  0
 22 21  1  0  0  0  0
 23 28  1  0  0  0  0
 23 26  1  0  0  0  0
 24 22  1  0  0  0  0
 26 25  1  1  0  0  0
 26 22  1  0  0  0  0
 27 23  2  0  0  0  0
 28 24  1  0  0  0  0
M  END
>  <MODEL>
6

>  <REMARK>
 VINA RESULT:      -8.9      2.943      6.854
  Name = 
  2 active torsions:
  status: ('A' for Active; 'I' for Inactive)
    1  A    between atoms: C_1  and  C_2
    2  A    between atoms: C_2  and  N_3
                            x       y       z     vdW  Elec       q    Type
                         _______ _______ _______ _____ _____    ______ ____

>  <TORSDO>
F 2

$$$$
=
 OpenBabel10262420553D

 28 32  0  0  1  0  0  0  0  0999 V2000
  184.6770  179.0050  144.1130 C   0  0  0  0  0  0  0  0  0  0  0  0
  187.9930  178.2370  140.2180 C   0  0  0  0  0  2  0  0  0  0  0  0
  181.8620  178.6260  140.0370 C   0  0  0  0  0  1  0  0  0  0  0  0
  186.4070  177.7680  138.3980 C   0  0  2  0  0  3  0  0  0  0  0  0
  185.5120  178.4720  140.5290 N   0  0  1  0  0  0  0  0  0  0  0  0
  188.7860  178.0230  137.8390 C   0  0  0  0  0  0  0  0  0  0  0  0
  186.6450  178.6500  139.6250 C   0  0  1  0  0  3  0  0  0  0  0  0
  184.2300  178.8950  138.3890 C   0  0  0  0  0  2  0  0  0  0  0  0
  187.3870  178.1240  137.2910 C   0  0  0  0  0  2  0  0  0  0  0  0
  183.2670  178.8670  142.1230 C   0  0  0  0  0  0  0  0  0  0  0  0
  185.7490  179.1450  141.8080 C   0  0  0  0  0  2  0  0  0  0  0  0
  185.0080  177.7350  137.9400 N   0  0  0  0  0  2  0  0  0  0  0  0
  182.2760  178.7240  144.3340 C   0  0  0  0  0  3  0  0  0  0  0  0
  183.1490  178.8600  140.6860 N   0  0  0  0  0  0  0  0  0  0  0  0
  182.1400  178.7280  142.9450 C   0  0  0  0  0  3  0  0  0  0  0  0
  189.6800  177.5780  137.1380 O   0  0  0  0  0  0  0  0  0  0  0  0
  189.1080  178.5560  139.2140 C   0  0  0  0  0  2  0  0  0  0  0  0
  184.3610  179.1500  139.9120 C   0  0  1  0  0  3  0  0  0  0  0  0
  183.5380  178.8620  144.9130 C   0  0  0  0  0  3  0  0  0  0  0  0
  184.5460  178.9890  142.7110 C   0  0  0  0  0  0  0  0  0  0  0  0
  186.0230  179.1640  144.7750 C   0  0  0  0  0  2  0  0  0  0  0  0
  186.5750  177.9070  145.2980 N   0  0  0  0  0  0  0  0  0  0  0  0
  188.6880  177.1670  145.8140 C   0  0  0  0  0  0  0  0  0  0  0  0
  186.7030  178.0100  146.6620 O   0  0  0  0  0  0  0  0  0  0  0  0
  187.7570  176.5670  143.6460 C   0  0  0  0  0  1  0  0  0  0  0  0
  187.8820  177.6480  144.7030 C   0  0  1  0  0  3  0  0  0  0  0  0
  189.9630  177.2870  145.8240 N   0  0  0  0  0  2  0  0  0  0  0  0
  187.8900  177.3440  147.0310 C   0  0  0  0  0  2  0  0  0  0  0  0
  1 21  1  0  0  0  0
  1 19  1  0  0  0  0
  3 14  1  0  0  0  0
  4  9  1  6  0  0  0
  4  7  1  0  0  0  0
  5 11  1  1  0  0  0
  6 17  1  0  0  0  0
  7  2  1  1  0  0  0
  7  5  1  0  0  0  0
  9  6  1  0  0  0  0
 10 20  1  0  0  0  0
 10 15  2  0  0  0  0
 11 20  1  0  0  0  0
 12  8  1  0  0  0  0
 12  4  1  0  0  0  0
 13 19  2  0  0  0  0
 14 10  1  0  0  0  0
 15 13  1  0  0  0  0
 16  6  2  0  0  0  0
 17  2  1  0  0  0  0
 18  8  1  6  0  0  0
 18  5  1  0  0  0  0
 18 14  1  0  0  0  0
 20  1  2  0  0  0  0
 21 22  1  0  0  0  0
 22 24  1  0  0  0  0
 23 27  2  0  0  0  0
 23 28  1  0  0  0  0
 24 28  1  0  0  0  0
 26 25  1  6  0  0  0
 26 22  1  0  0  0  0
 26 23  1  0  0  0  0
M  END
>  <MODEL>
7

>  <REMARK>
 VINA RESULT:      -8.7      2.519      6.110
  Name = 
  2 active torsions:
  status: ('A' for Active; 'I' for Inactive)
    1  A    between atoms: C_1  and  C_2
    2  A    between atoms: C_2  and  N_3
                            x       y       z     vdW  Elec       q    Type
                         _______ _______ _______ _____ _____    ______ ____

>  <TORSDO>
F 2

$$$$
=
 OpenBabel10262420553D

 28 32  0  0  1  0  0  0  0  0999 V2000
  190.1070  177.1700  139.4280 C   0  0  0  0  0  0  0  0  0  0  0  0
  191.6160  176.6970  144.3520 C   0  0  0  0  0  2  0  0  0  0  0  0
  186.1880  178.5560  142.1500 C   0  0  0  0  0  1  0  0  0  0  0  0
  189.6860  177.7150  145.4870 C   0  0  2  0  0  3  0  0  0  0  0  0
  189.5480  177.3760  143.0980 N   0  0  1  0  0  0  0  0  0  0  0  0
  191.4040  176.6170  146.8590 C   0  0  0  0  0  0  0  0  0  0  0  0
  190.0900  176.8030  144.3270 C   0  0  1  0  0  3  0  0  0  0  0  0
  187.4510  177.4530  144.5120 C   0  0  0  0  0  2  0  0  0  0  0  0
  189.9560  177.0310  146.8180 C   0  0  0  0  0  2  0  0  0  0  0  0
  188.1470  177.8160  140.7360 C   0  0  0  0  0  0  0  0  0  0  0  0
  190.0430  176.6590  141.9200 C   0  0  0  0  0  2  0  0  0  0  0  0
  188.3200  178.2540  145.3820 N   0  0  0  0  0  2  0  0  0  0  0  0
  188.2430  178.3020  138.3600 C   0  0  0  0  0  3  0  0  0  0  0  0
  187.4690  177.8700  142.0070 N   0  0  0  0  0  0  0  0  0  0  0  0
  187.5640  178.3520  139.5790 C   0  0  0  0  0  3  0  0  0  0  0  0
  192.0300  176.7100  147.9020 O   0  0  0  0  0  0  0  0  0  0  0  0
  192.0560  175.9990  145.6460 C   0  0  0  0  0  2  0  0  0  0  0  0
  188.0940  177.1630  143.1310 C   0  0  1  0  0  3  0  0  0  0  0  0
  189.5070  177.7140  138.2860 C   0  0  0  0  0  3  0  0  0  0  0  0
  189.4340  177.2370  140.6630 C   0  0  0  0  0  0  0  0  0  0  0  0
  191.4680  176.5330  139.3070 C   0  0  0  0  0  2  0  0  0  0  0  0
  191.7200  175.9210  137.9950 N   0  0  0  0  0  0  0  0  0  0  0  0
  193.2170  174.3700  137.2030 C   0  0  0  0  0  0  0  0  0  0  0  0
  191.0440  174.7270  137.9240 O   0  0  0  0  0  0  0  0  0  0  0  0
  193.7260  176.7290  136.8810 C   0  0  0  0  0  1  0  0  0  0  0  0
  193.1480  175.6850  137.8190 C   0  0  1  0  0  3  0  0  0  0  0  0
  194.2480  173.6210  137.3240 N   0  0  0  0  0  2  0  0  0  0  0  0
  191.8590  173.8170  137.2200 C   0  0  0  0  0  2  0  0  0  0  0  0
  1 20  1  0  0  0  0
  2 17  1  0  0  0  0
  4  9  1  1  0  0  0
  5 11  1  6  0  0  0
  5 18  1  0  0  0  0
  5  7  1  0  0  0  0
  6 16  2  0  0  0  0
  7  2  1  6  0  0  0
  7  4  1  0  0  0  0
  8 12  1  0  0  0  0
  9  6  1  0  0  0  0
 10 14  1  0  0  0  0
 12  4  1  0  0  0  0
 13 15  2  0  0  0  0
 14  3  1  0  0  0  0
 14 18  1  0  0  0  0
 15 10  1  0  0  0  0
 17  6  1  0  0  0  0
 18  8  1  1  0  0  0
 19 13  1  0  0  0  0
 19  1  2  0  0  0  0
 20 10  2  0  0  0  0
 20 11  1  0  0  0  0
 21  1  1  0  0  0  0
 22 21  1  0  0  0  0
 23 28  1  0  0  0  0
 23 27  2  0  0  0  0
 23 26  1  0  0  0  0
 24 22  1  0  0  0  0
 26 25  1  6  0  0  0
 26 22  1  0  0  0  0
 28 24  1  0  0  0  0
M  END
>  <MODEL>
8

>  <REMARK>
 VINA RESULT:      -8.6      3.596      7.412
  Name = 
  2 active torsions:
  status: ('A' for Active; 'I' for Inactive)
    1  A    between atoms: C_1  and  C_2
    2  A    between atoms: C_2  and  N_3
                            x       y       z     vdW  Elec       q    Type
                         _______ _______ _______ _____ _____    ______ ____

>  <TORSDO>
F 2

$$$$
=
 OpenBabel10262420553D

 28 32  0  0  1  0  0  0  0  0999 V2000
  188.8130  177.4160  138.9600 C   0  0  0  0  0  0  0  0  0  0  0  0
  185.6420  178.2600  142.9580 C   0  0  0  0  0  2  0  0  0  0  0  0
  191.6330  176.8890  143.0170 C   0  0  0  0  0  1  0  0  0  0  0  0
  187.1310  177.6470  144.8170 C   0  0  2  0  0  3  0  0  0  0  0  0
  188.0670  177.7180  142.5910 N   0  0  1  0  0  0  0  0  0  0  0  0
  184.9570  178.6610  145.3470 C   0  0  0  0  0  0  0  0  0  0  0  0
  187.0830  178.3550  143.4620 C   0  0  1  0  0  3  0  0  0  0  0  0
  189.5350  178.0860  144.6180 C   0  0  0  0  0  2  0  0  0  0  0  0
  186.3560  178.4410  145.8580 C   0  0  0  0  0  2  0  0  0  0  0  0
  190.2380  177.1930  140.9330 C   0  0  0  0  0  0  0  0  0  0  0  0
  187.9570  178.2210  141.2190 C   0  0  0  0  0  2  0  0  0  0  0  0
  188.4880  177.2850  145.2610 N   0  0  0  0  0  2  0  0  0  0  0  0
  191.0200  176.4240  138.7680 C   0  0  0  0  0  3  0  0  0  0  0  0
  190.4300  177.3790  142.3490 N   0  0  0  0  0  0  0  0  0  0  0  0
  191.2310  176.6070  140.1360 C   0  0  0  0  0  3  0  0  0  0  0  0
  184.0150  178.6090  146.1210 O   0  0  0  0  0  0  0  0  0  0  0  0
  184.7210  179.0410  143.9060 C   0  0  0  0  0  2  0  0  0  0  0  0
  189.3950  178.1240  143.0750 C   0  0  1  0  0  3  0  0  0  0  0  0
  189.8180  176.8270  138.1850 C   0  0  0  0  0  3  0  0  0  0  0  0
  189.0140  177.5840  140.3440 C   0  0  0  0  0  0  0  0  0  0  0  0
  187.5310  177.8490  138.2940 C   0  0  0  0  0  2  0  0  0  0  0  0
  187.3410  177.2790  136.9530 N   0  0  0  0  0  0  0  0  0  0  0  0
  185.5370  177.0140  135.5570 C   0  0  0  0  0  0  0  0  0  0  0  0
  187.4140  178.2890  136.0250 O   0  0  0  0  0  0  0  0  0  0  0  0
  186.2150  175.1230  136.9320 C   0  0  0  0  0  1  0  0  0  0  0  0
  186.0390  176.6290  136.8660 C   0  0  1  0  0  3  0  0  0  0  0  0
  184.2830  177.0550  135.3000 N   0  0  0  0  0  2  0  0  0  0  0  0
  186.4650  178.0130  135.0190 C   0  0  0  0  0  2  0  0  0  0  0  0
  1 20  1  0  0  0  0
  2 17  1  0  0  0  0
  4 12  1  0  0  0  0
  4  9  1  1  0  0  0
  5 11  1  6  0  0  0
  5 18  1  0  0  0  0
  5  7  1  0  0  0  0
  6  9  1  0  0  0  0
  6 16  2  0  0  0  0
  7  2  1  6  0  0  0
  7  4  1  0  0  0  0
  8 12  1  0  0  0  0
 10 14  1  0  0  0  0
 13 15  2  0  0  0  0
 14  3  1  0  0  0  0
 14 18  1  0  0  0  0
 15 10  1  0  0  0  0
 17  6  1  0  0  0  0
 18  8  1  1  0  0  0
 19 13  1  0  0  0  0
 19  1  2  0  0  0  0
 20 10  2  0  0  0  0
 20 11  1  0  0  0  0
 21  1  1  0  0  0  0
 22 21  1  0  0  0  0
 23 26  1  0  0  0  0
 24 22  1  0  0  0  0
 26 25  1  6  0  0  0
 26 22  1  0  0  0  0
 27 23  2  0  0  0  0
 28 23  1  0  0  0  0
 28 24  1  0  0  0  0
M  END
>  <MODEL>
9

>  <REMARK>
 VINA RESULT:      -8.5      3.196      5.988
  Name = 
  2 active torsions:
  status: ('A' for Active; 'I' for Inactive)
    1  A    between atoms: C_1  and  C_2
    2  A    between atoms: C_2  and  N_3
                            x       y       z     vdW  Elec       q    Type
                         _______ _______ _______ _____ _____    ______ ____

>  <TORSDO>
F 2

$$$$
