=
 OpenBabel10262422363D

 43 47  0  0  1  0  0  0  0  0999 V2000
  191.5110  176.3850  147.0480 C   0  0  0  0  0  0  0  0  0  0  0  0
  187.5160  177.8250  144.2840 C   0  0  0  0  0  0  0  0  0  0  0  0
  189.2420  177.4640  142.6050 C   0  0  0  0  0  3  0  0  0  0  0  0
  189.3130  177.0990  146.3230 C   0  0  0  0  0  0  0  0  0  0  0  0
  191.9500  176.3760  145.7220 C   0  0  0  0  0  3  0  0  0  0  0  0
  192.4040  176.0250  148.0950 N   0  0  0  0  0  1  0  0  0  0  0  0
  189.7480  177.0950  144.9760 C   0  0  0  0  0  0  0  0  0  0  0  0
  190.1950  176.7450  147.3480 C   0  0  0  0  0  3  0  0  0  0  0  0
  191.0750  176.7290  144.6910 C   0  0  0  0  0  3  0  0  0  0  0  0
  188.3440  177.8240  141.6000 C   0  0  0  0  0  0  0  0  0  0  0  0
  188.8460  177.4580  143.9520 C   0  0  0  0  0  0  0  0  0  0  0  0
  187.1120  177.8180  145.6270 C   0  0  0  0  0  3  0  0  0  0  0  0
  186.6110  178.2020  143.2720 C   0  0  0  0  0  0  0  0  0  0  0  0
  187.0380  178.1900  141.9380 C   0  0  0  0  0  3  0  0  0  0  0  0
  188.0030  177.4580  146.6370 C   0  0  0  0  0  3  0  0  0  0  0  0
  188.8090  177.8520  140.1800 C   0  0  1  0  0  3  0  0  0  0  0  0
  190.1280  177.1170  140.0220 C   0  0  0  0  0  1  0  0  0  0  0  0
  187.7970  177.2500  139.3160 N   0  0  0  0  0  2  0  0  0  0  0  0
  188.5750  178.9930  137.9650 O   0  0  0  0  0  1  0  0  0  0  0  0
  187.4980  178.1260  138.1770 C   0  0  0  0  0  0  0  0  0  0  0  0
  186.3480  178.8760  138.4490 O   0  0  0  0  0  1  0  0  0  0  0  0
  187.2720  177.3300  136.9560 N   0  0  0  0  0  0  0  0  0  0  0  0
  184.8530  177.0880  137.5070 N   0  0  0  0  0  2  0  0  0  0  0  0
  185.9800  176.7490  136.6850 C   0  0  0  0  0  0  0  0  0  0  0  0
  185.8400  175.9610  135.7100 O   0  0  0  0  0  0  0  0  0  0  0  0
  183.5440  176.5040  137.4500 C   0  0  0  0  0  0  0  0  0  0  0  0
  181.1800  176.7650  136.9630 C   0  0  0  0  0  3  0  0  0  0  0  0
  182.0060  174.6610  137.8300 C   0  0  0  0  0  3  0  0  0  0  0  0
  180.9460  175.4490  137.3750 C   0  0  0  0  0  3  0  0  0  0  0  0
  183.3010  175.1880  137.8690 C   0  0  0  0  0  3  0  0  0  0  0  0
  182.4740  177.2900  137.0060 C   0  0  0  0  0  3  0  0  0  0  0  0
  188.3570  177.0920  136.0010 C   0  0  0  0  0  2  0  0  0  0  0  0
  190.6730  176.2700  136.4380 C   0  0  0  0  0  1  0  0  0  0  0  0
  189.2030  175.9020  136.4310 C   0  0  0  0  0  2  0  0  0  0  0  0
  185.2570  178.5500  143.6130 N   0  0  0  0  0  2  0  0  0  0  0  0
  182.8630  177.7090  140.6870 C   0  0  0  0  0  2  0  0  0  0  0  0
  181.8570  178.8050  141.0140 C   0  0  2  0  0  3  0  0  0  0  0  0
  182.9330  178.8980  143.2820 C   0  0  0  0  0  3  0  0  0  0  0  0
  184.2070  178.0510  141.3240 C   0  0  0  0  0  2  0  0  0  0  0  0
  184.0920  178.4550  142.7800 C   0  0  0  0  0  0  0  0  0  0  0  0
  181.6340  178.8450  142.5250 C   0  0  0  0  0  2  0  0  0  0  0  0
  180.0210  177.4710  140.3250 O   0  0  0  0  0  0  0  0  0  0  0  0
  180.5640  178.5650  140.2970 C   0  0  0  0  0  3  0  0  0  0  0  0
  1  8  1  0  0  0  0
  1  6  1  0  0  0  0
  2 12  1  0  0  0  0
  3 11  2  0  0  0  0
  4 15  1  0  0  0  0
  4  8  2  0  0  0  0
  5  1  2  0  0  0  0
  7  4  1  0  0  0  0
  9  7  2  0  0  0  0
  9  5  1  0  0  0  0
 10 14  2  0  0  0  0
 10  3  1  0  0  0  0
 11  2  1  0  0  0  0
 11  7  1  0  0  0  0
 12 15  2  0  0  0  0
 13 35  1  0  0  0  0
 13  2  2  0  0  0  0
 14 13  1  0  0  0  0
 16 17  1  1  0  0  0
 16 10  1  0  0  0  0
 18 16  1  0  0  0  0
 19 20  1  0  0  0  0
 20 21  1  0  0  0  0
 20 18  1  0  0  0  0
 22 20  1  0  0  0  0
 24 22  1  0  0  0  0
 24 23  1  0  0  0  0
 25 24  2  0  0  0  0
 26 23  1  0  0  0  0
 26 30  1  0  0  0  0
 27 31  1  0  0  0  0
 27 29  2  0  0  0  0
 28 30  2  0  0  0  0
 29 28  1  0  0  0  0
 31 26  2  0  0  0  0
 32 34  1  0  0  0  0
 32 22  1  0  0  0  0
 34 33  1  0  0  0  0
 36 37  1  0  0  0  0
 36 39  1  0  0  0  0
 37 43  1  6  0  0  0
 37 41  1  0  0  0  0
 39 40  1  0  0  0  0
 40 38  2  0  0  0  0
 40 35  1  0  0  0  0
 41 38  1  0  0  0  0
 43 42  2  0  0  0  0
M  END
>  <MODEL>
1

>  <REMARK>
 VINA RESULT:      -9.5      0.000      0.000
  Name = 
  10 active torsions:
  status: ('A' for Active; 'I' for Inactive)
    1  A    between atoms: N_1  and  C_34
    2  A    between atoms: N_1  and  C_35
    3  A    between atoms: C_2  and  N_6
    4  A    between atoms: C_2  and  C_27
    5  A    between atoms: N_4  and  C_12
    6  A    between atoms: N_4  and  C_15
    7  A    between atoms: N_6  and  C_12
    8  A    between atoms: C_11  and  N_14
    9  A    between atoms: C_15  and  C_42
   10  A    between atoms: C_19  and  C_37
                            x       y       z     vdW  Elec       q    Type
                         _______ _______ _______ _____ _____    ______ ____

>  <TORSDO>
F 10

$$$$
=
 OpenBabel10262422363D

 43 47  0  0  1  0  0  0  0  0999 V2000
  187.8350  177.7350  147.4090 C   0  0  0  0  0  0  0  0  0  0  0  0
  185.4860  178.5330  142.9900 C   0  0  0  0  0  0  0  0  0  0  0  0
  187.7910  178.1260  142.3200 C   0  0  0  0  0  3  0  0  0  0  0  0
  186.1850  178.1860  145.6930 C   0  0  0  0  0  0  0  0  0  0  0  0
  188.8250  177.6140  146.4310 C   0  0  0  0  0  3  0  0  0  0  0  0
  188.1670  177.5670  148.7810 N   0  0  0  0  0  1  0  0  0  0  0  0
  187.1820  178.0650  144.6940 C   0  0  0  0  0  0  0  0  0  0  0  0
  186.5180  178.0200  147.0410 C   0  0  0  0  0  3  0  0  0  0  0  0
  188.5020  177.7770  145.0810 C   0  0  0  0  0  3  0  0  0  0  0  0
  187.4360  178.2970  140.9820 C   0  0  0  0  0  0  0  0  0  0  0  0
  186.8310  178.2380  143.3370 C   0  0  0  0  0  0  0  0  0  0  0  0
  184.5210  178.6430  144.0010 C   0  0  0  0  0  3  0  0  0  0  0  0
  185.1270  178.7200  141.6410 C   0  0  0  0  0  0  0  0  0  0  0  0
  186.1100  178.5930  140.6510 C   0  0  0  0  0  3  0  0  0  0  0  0
  184.8670  178.4710  145.3400 C   0  0  0  0  0  3  0  0  0  0  0  0
  188.4900  178.2040  139.9270 C   0  0  1  0  0  3  0  0  0  0  0  0
  189.7620  177.5850  140.4800 C   0  0  0  0  0  1  0  0  0  0  0  0
  187.9980  177.4100  138.8040 N   0  0  0  0  0  2  0  0  0  0  0  0
  189.0060  179.1360  137.5910 O   0  0  0  0  0  1  0  0  0  0  0  0
  187.9520  178.2160  137.5780 C   0  0  0  0  0  0  0  0  0  0  0  0
  186.7370  178.9050  137.5120 O   0  0  0  0  0  1  0  0  0  0  0  0
  188.0790  177.3540  136.3870 N   0  0  0  0  0  0  0  0  0  0  0  0
  185.8470  176.3370  136.8300 N   0  0  0  0  0  2  0  0  0  0  0  0
  187.0720  176.3690  136.0820 C   0  0  0  0  0  0  0  0  0  0  0  0
  187.2620  175.5510  135.1390 O   0  0  0  0  0  0  0  0  0  0  0  0
  184.8120  175.3480  136.7370 C   0  0  0  0  0  0  0  0  0  0  0  0
  182.5640  174.7660  136.0290 C   0  0  0  0  0  3  0  0  0  0  0  0
  183.9140  173.1400  137.2100 C   0  0  0  0  0  3  0  0  0  0  0  0
  182.7180  173.4880  136.5770 C   0  0  0  0  0  3  0  0  0  0  0  0
  184.9570  174.0680  137.2900 C   0  0  0  0  0  3  0  0  0  0  0  0
  183.6060  175.6930  136.1140 C   0  0  0  0  0  3  0  0  0  0  0  0
  189.2390  177.4640  135.4990 C   0  0  0  0  0  2  0  0  0  0  0  0
  191.0210  176.4630  136.9320 C   0  0  0  0  0  1  0  0  0  0  0  0
  190.1770  176.2800  135.6870 C   0  0  0  0  0  2  0  0  0  0  0  0
  183.7570  178.9950  141.2940 N   0  0  0  0  0  2  0  0  0  0  0  0
  182.1090  175.9850  139.4980 C   0  0  0  0  0  2  0  0  0  0  0  0
  180.7480  176.6490  139.3400 C   0  0  2  0  0  3  0  0  0  0  0  0
  181.5070  178.2670  141.1060 C   0  0  0  0  0  3  0  0  0  0  0  0
  183.1730  177.0580  139.7140 C   0  0  0  0  0  2  0  0  0  0  0  0
  182.7880  178.0780  140.7660 C   0  0  0  0  0  0  0  0  0  0  0  0
  180.3900  177.3750  140.6370 C   0  0  0  0  0  2  0  0  0  0  0  0
  179.9990  174.4670  138.7900 O   0  0  0  0  0  0  0  0  0  0  0  0
  179.7010  175.6330  139.0000 C   0  0  0  0  0  3  0  0  0  0  0  0
  1  6  1  0  0  0  0
  2 11  1  0  0  0  0
  2 12  1  0  0  0  0
  3 11  2  0  0  0  0
  4  8  2  0  0  0  0
  5  1  2  0  0  0  0
  7  9  2  0  0  0  0
  7  4  1  0  0  0  0
  8  1  1  0  0  0  0
  9  5  1  0  0  0  0
 10  3  1  0  0  0  0
 11  7  1  0  0  0  0
 12 15  2  0  0  0  0
 13  2  2  0  0  0  0
 14 10  2  0  0  0  0
 14 13  1  0  0  0  0
 15  4  1  0  0  0  0
 16 17  1  1  0  0  0
 16 10  1  0  0  0  0
 18 16  1  0  0  0  0
 20 19  1  0  0  0  0
 20 18  1  0  0  0  0
 21 20  1  0  0  0  0
 22 20  1  0  0  0  0
 24 22  1  0  0  0  0
 24 23  1  0  0  0  0
 25 24  2  0  0  0  0
 26 23  1  0  0  0  0
 26 30  1  0  0  0  0
 27 31  1  0  0  0  0
 27 29  2  0  0  0  0
 28 30  2  0  0  0  0
 29 28  1  0  0  0  0
 31 26  2  0  0  0  0
 32 34  1  0  0  0  0
 32 22  1  0  0  0  0
 34 33  1  0  0  0  0
 35 13  1  0  0  0  0
 36 39  1  0  0  0  0
 37 43  1  1  0  0  0
 37 36  1  0  0  0  0
 37 41  1  0  0  0  0
 39 40  1  0  0  0  0
 40 38  2  0  0  0  0
 40 35  1  0  0  0  0
 41 38  1  0  0  0  0
 42 43  2  0  0  0  0
M  END
>  <MODEL>
2

>  <REMARK>
 VINA RESULT:      -9.5      1.744      2.418
  Name = 
  10 active torsions:
  status: ('A' for Active; 'I' for Inactive)
    1  A    between atoms: N_1  and  C_34
    2  A    between atoms: N_1  and  C_35
    3  A    between atoms: C_2  and  N_6
    4  A    between atoms: C_2  and  C_27
    5  A    between atoms: N_4  and  C_12
    6  A    between atoms: N_4  and  C_15
    7  A    between atoms: N_6  and  C_12
    8  A    between atoms: C_11  and  N_14
    9  A    between atoms: C_15  and  C_42
   10  A    between atoms: C_19  and  C_37
                            x       y       z     vdW  Elec       q    Type
                         _______ _______ _______ _____ _____    ______ ____

>  <TORSDO>
F 10

$$$$
=
 OpenBabel10262422363D

 43 47  0  0  1  0  0  0  0  0999 V2000
  181.3500  178.9950  142.2590 C   0  0  0  0  0  0  0  0  0  0  0  0
  185.9960  178.3320  144.1710 C   0  0  0  0  0  0  0  0  0  0  0  0
  186.3760  178.2500  141.7680 C   0  0  0  0  0  3  0  0  0  0  0  0
  183.2440  178.7380  143.7470 C   0  0  0  0  0  0  0  0  0  0  0  0
  182.1940  178.8570  141.1550 C   0  0  0  0  0  3  0  0  0  0  0  0
  179.9550  179.1970  142.0670 N   0  0  0  0  0  1  0  0  0  0  0  0
  184.1080  178.5960  142.6340 C   0  0  0  0  0  0  0  0  0  0  0  0
  181.8740  178.9360  143.5530 C   0  0  0  0  0  3  0  0  0  0  0  0
  183.5650  178.6590  141.3390 C   0  0  0  0  0  3  0  0  0  0  0  0
  187.7390  178.0520  141.9870 C   0  0  0  0  0  0  0  0  0  0  0  0
  185.4890  178.3940  142.8470 C   0  0  0  0  0  0  0  0  0  0  0  0
  185.1170  178.4790  145.2540 C   0  0  0  0  0  3  0  0  0  0  0  0
  187.3700  178.1180  144.3960 C   0  0  0  0  0  0  0  0  0  0  0  0
  188.2270  177.9860  143.2960 C   0  0  0  0  0  3  0  0  0  0  0  0
  183.7530  178.6800  145.0430 C   0  0  0  0  0  3  0  0  0  0  0  0
  188.6490  177.8690  140.8160 C   0  0  1  0  0  3  0  0  0  0  0  0
  189.8490  177.0150  141.1870 C   0  0  0  0  0  1  0  0  0  0  0  0
  187.9190  177.2490  139.7130 N   0  0  0  0  0  2  0  0  0  0  0  0
  188.9430  179.1040  138.7230 O   0  0  0  0  0  1  0  0  0  0  0  0
  188.0900  178.0230  138.4770 C   0  0  0  0  0  0  0  0  0  0  0  0
  186.8480  178.5010  138.0470 O   0  0  0  0  0  1  0  0  0  0  0  0
  188.6730  177.1810  137.4150 N   0  0  0  0  0  0  0  0  0  0  0  0
  186.5380  175.9140  137.1860 N   0  0  0  0  0  2  0  0  0  0  0  0
  187.9230  176.0860  136.8510 C   0  0  0  0  0  0  0  0  0  0  0  0
  188.4830  175.2940  136.0430 O   0  0  0  0  0  0  0  0  0  0  0  0
  185.6960  174.8140  136.8150 C   0  0  0  0  0  0  0  0  0  0  0  0
  185.0060  172.5170  137.1900 C   0  0  0  0  0  3  0  0  0  0  0  0
  184.0380  173.7830  135.3680 C   0  0  0  0  0  3  0  0  0  0  0  0
  184.1300  172.5980  136.1030 C   0  0  0  0  0  3  0  0  0  0  0  0
  184.8200  174.8870  135.7220 C   0  0  0  0  0  3  0  0  0  0  0  0
  185.7890  173.6200  137.5400 C   0  0  0  0  0  3  0  0  0  0  0  0
  190.0320  177.4210  136.9240 C   0  0  0  0  0  2  0  0  0  0  0  0
  191.8410  175.7040  137.0190 C   0  0  0  0  0  1  0  0  0  0  0  0
  191.0570  176.7300  137.8120 C   0  0  0  0  0  2  0  0  0  0  0  0
  187.8800  178.0800  145.7410 N   0  0  0  0  0  0  0  0  0  0  0  0
  191.4610  176.6050  145.7860 C   0  0  0  0  0  2  0  0  0  0  0  0
  191.3650  176.0570  147.2030 C   0  0  2  0  0  3  0  0  0  0  0  0
  189.4000  177.5940  147.4970 C   0  0  0  0  0  2  0  0  0  0  0  0
  190.0550  176.8160  145.2300 C   0  0  0  0  0  2  0  0  0  0  0  0
  189.1400  177.5570  146.1840 C   0  0  0  0  0  0  0  0  0  0  0  0
  190.6860  177.0940  148.0970 C   0  0  0  0  0  2  0  0  0  0  0  0
  193.2050  176.3250  148.6760 O   0  0  0  0  0  0  0  0  0  0  0  0
  192.7250  175.7170  147.7310 C   0  0  0  0  0  3  0  0  0  0  0  0
  1  8  1  0  0  0  0
  2 13  1  0  0  0  0
  2 12  1  0  0  0  0
  3 10  2  0  0  0  0
  3 11  1  0  0  0  0
  4 15  1  0  0  0  0
  5  9  1  0  0  0  0
  5  1  2  0  0  0  0
  6  1  1  0  0  0  0
  7 11  1  0  0  0  0
  7  4  1  0  0  0  0
  8  4  2  0  0  0  0
  9  7  2  0  0  0  0
 10 14  1  0  0  0  0
 11  2  2  0  0  0  0
 13 35  1  0  0  0  0
 14 13  2  0  0  0  0
 15 12  2  0  0  0  0
 16 17  1  1  0  0  0
 16 10  1  0  0  0  0
 18 16  1  0  0  0  0
 20 19  1  0  0  0  0
 20 18  1  0  0  0  0
 21 20  1  0  0  0  0
 22 20  1  0  0  0  0
 24 23  1  0  0  0  0
 24 22  1  0  0  0  0
 25 24  2  0  0  0  0
 26 23  1  0  0  0  0
 26 31  1  0  0  0  0
 27 31  2  0  0  0  0
 28 30  1  0  0  0  0
 28 29  2  0  0  0  0
 29 27  1  0  0  0  0
 30 26  2  0  0  0  0
 32 22  1  0  0  0  0
 32 34  1  0  0  0  0
 33 34  1  0  0  0  0
 35 40  2  0  0  0  0
 36 37  1  0  0  0  0
 37 43  1  1  0  0  0
 37 41  1  0  0  0  0
 38 41  1  0  0  0  0
 39 36  1  0  0  0  0
 39 40  1  0  0  0  0
 40 38  1  0  0  0  0
 43 42  2  0  0  0  0
M  END
>  <MODEL>
3

>  <REMARK>
 VINA RESULT:      -9.4      2.550      6.592
  Name = 
  10 active torsions:
  status: ('A' for Active; 'I' for Inactive)
    1  A    between atoms: N_1  and  C_34
    2  A    between atoms: N_1  and  C_35
    3  A    between atoms: C_2  and  N_6
    4  A    between atoms: C_2  and  C_27
    5  A    between atoms: N_4  and  C_12
    6  A    between atoms: N_4  and  C_15
    7  A    between atoms: N_6  and  C_12
    8  A    between atoms: C_11  and  N_14
    9  A    between atoms: C_15  and  C_42
   10  A    between atoms: C_19  and  C_37
                            x       y       z     vdW  Elec       q    Type
                         _______ _______ _______ _____ _____    ______ ____

>  <TORSDO>
F 10

$$$$
=
 OpenBabel10262422363D

 43 47  0  0  1  0  0  0  0  0999 V2000
  191.2920  176.6430  147.0310 C   0  0  0  0  0  0  0  0  0  0  0  0
  187.1870  177.8840  144.3320 C   0  0  0  0  0  0  0  0  0  0  0  0
  188.9300  177.7330  142.6390 C   0  0  0  0  0  3  0  0  0  0  0  0
  189.0420  177.2140  146.3380 C   0  0  0  0  0  0  0  0  0  0  0  0
  191.7260  176.7270  145.7050 C   0  0  0  0  0  3  0  0  0  0  0  0
  192.2140  176.3090  148.0610 N   0  0  0  0  0  1  0  0  0  0  0  0
  189.4720  177.3020  144.9910 C   0  0  0  0  0  0  0  0  0  0  0  0
  189.9530  176.8850  147.3460 C   0  0  0  0  0  3  0  0  0  0  0  0
  190.8220  177.0540  144.6910 C   0  0  0  0  0  3  0  0  0  0  0  0
  188.0030  178.0640  141.6510 C   0  0  0  0  0  0  0  0  0  0  0  0
  188.5400  177.6370  143.9840 C   0  0  0  0  0  0  0  0  0  0  0  0
  186.7900  177.7870  145.6740 C   0  0  0  0  0  3  0  0  0  0  0  0
  186.2510  178.2320  143.3380 C   0  0  0  0  0  0  0  0  0  0  0  0
  186.6730  178.3120  142.0050 C   0  0  0  0  0  3  0  0  0  0  0  0
  187.7090  177.4540  146.6670 C   0  0  0  0  0  3  0  0  0  0  0  0
  188.4590  178.1910  140.2330 C   0  0  1  0  0  3  0  0  0  0  0  0
  189.9260  177.8220  140.0970 C   0  0  0  0  0  1  0  0  0  0  0  0
  187.6480  177.3320  139.3740 N   0  0  0  0  0  2  0  0  0  0  0  0
  188.1550  178.9710  137.7850 O   0  0  0  0  0  1  0  0  0  0  0  0
  187.1650  178.0760  138.2030 C   0  0  0  0  0  0  0  0  0  0  0  0
  186.0100  178.7890  138.5420 O   0  0  0  0  0  1  0  0  0  0  0  0
  186.8510  177.1520  137.0970 N   0  0  0  0  0  0  0  0  0  0  0  0
  189.1710  176.2420  137.1380 N   0  0  0  0  0  2  0  0  0  0  0  0
  187.8760  176.3170  136.5220 C   0  0  0  0  0  0  0  0  0  0  0  0
  187.6230  175.6350  135.4910 O   0  0  0  0  0  0  0  0  0  0  0  0
  190.3260  175.5660  136.6230 C   0  0  0  0  0  0  0  0  0  0  0  0
  192.1300  175.4930  135.0000 C   0  0  0  0  0  3  0  0  0  0  0  0
  191.8650  173.6850  136.5870 C   0  0  0  0  0  3  0  0  0  0  0  0
  192.5550  174.2660  135.5200 C   0  0  0  0  0  3  0  0  0  0  0  0
  190.7530  174.3320  137.1360 C   0  0  0  0  0  3  0  0  0  0  0  0
  191.0170  176.1360  135.5470 C   0  0  0  0  0  3  0  0  0  0  0  0
  185.4970  177.0770  136.5410 C   0  0  0  0  0  2  0  0  0  0  0  0
  183.4640  176.2650  137.7390 C   0  0  0  0  0  1  0  0  0  0  0  0
  184.7620  175.8560  137.0740 C   0  0  0  0  0  2  0  0  0  0  0  0
  184.8750  178.4580  143.6940 N   0  0  0  0  0  2  0  0  0  0  0  0
  182.5450  177.9220  140.6470 C   0  0  0  0  0  2  0  0  0  0  0  0
  181.5820  179.0440  141.0130 C   0  0  2  0  0  3  0  0  0  0  0  0
  182.5840  178.9410  143.3140 C   0  0  0  0  0  3  0  0  0  0  0  0
  183.8810  178.1550  141.3470 C   0  0  0  0  0  2  0  0  0  0  0  0
  183.7370  178.4730  142.8210 C   0  0  0  0  0  0  0  0  0  0  0  0
  181.3100  179.0010  142.5160 C   0  0  0  0  0  2  0  0  0  0  0  0
  180.2640  178.3030  139.1850 O   0  0  0  0  0  0  0  0  0  0  0  0
  180.3040  178.9140  140.2430 C   0  0  0  0  0  3  0  0  0  0  0  0
  1  8  1  0  0  0  0
  1  6  1  0  0  0  0
  2 12  1  0  0  0  0
  3 11  2  0  0  0  0
  4 15  1  0  0  0  0
  4  8  2  0  0  0  0
  5  1  2  0  0  0  0
  7  4  1  0  0  0  0
  9  7  2  0  0  0  0
  9  5  1  0  0  0  0
 10 14  2  0  0  0  0
 10  3  1  0  0  0  0
 11  2  1  0  0  0  0
 11  7  1  0  0  0  0
 12 15  2  0  0  0  0
 13 35  1  0  0  0  0
 13  2  2  0  0  0  0
 14 13  1  0  0  0  0
 16 17  1  1  0  0  0
 16 10  1  0  0  0  0
 18 16  1  0  0  0  0
 19 20  1  0  0  0  0
 20 21  1  0  0  0  0
 20 18  1  0  0  0  0
 22 20  1  0  0  0  0
 24 22  1  0  0  0  0
 24 23  1  0  0  0  0
 25 24  2  0  0  0  0
 26 30  1  0  0  0  0
 26 23  1  0  0  0  0
 27 29  2  0  0  0  0
 27 31  1  0  0  0  0
 28 30  2  0  0  0  0
 29 28  1  0  0  0  0
 31 26  2  0  0  0  0
 32 34  1  0  0  0  0
 32 22  1  0  0  0  0
 34 33  1  0  0  0  0
 36 37  1  0  0  0  0
 36 39  1  0  0  0  0
 37 43  1  6  0  0  0
 37 41  1  0  0  0  0
 39 40  1  0  0  0  0
 40 38  2  0  0  0  0
 40 35  1  0  0  0  0
 41 38  1  0  0  0  0
 42 43  2  0  0  0  0
M  END
>  <MODEL>
4

>  <REMARK>
 VINA RESULT:      -9.4      1.030      3.921
  Name = 
  10 active torsions:
  status: ('A' for Active; 'I' for Inactive)
    1  A    between atoms: N_1  and  C_34
    2  A    between atoms: N_1  and  C_35
    3  A    between atoms: C_2  and  N_6
    4  A    between atoms: C_2  and  C_27
    5  A    between atoms: N_4  and  C_12
    6  A    between atoms: N_4  and  C_15
    7  A    between atoms: N_6  and  C_12
    8  A    between atoms: C_11  and  N_14
    9  A    between atoms: C_15  and  C_42
   10  A    between atoms: C_19  and  C_37
                            x       y       z     vdW  Elec       q    Type
                         _______ _______ _______ _____ _____    ______ ____

>  <TORSDO>
F 10

$$$$
=
 OpenBabel10262422363D

 43 47  0  0  1  0  0  0  0  0999 V2000
  192.5570  175.5790  136.0170 C   0  0  0  0  0  0  0  0  0  0  0  0
  189.7230  177.6240  139.6860 C   0  0  0  0  0  0  0  0  0  0  0  0
  188.1300  177.3150  137.8700 C   0  0  0  0  0  3  0  0  0  0  0  0
  191.7770  176.5390  138.1000 C   0  0  0  0  0  0  0  0  0  0  0  0
  191.2700  175.6820  135.4830 C   0  0  0  0  0  3  0  0  0  0  0  0
  193.6110  175.0370  135.2310 N   0  0  0  0  0  1  0  0  0  0  0  0
  190.4700  176.6480  137.5680 C   0  0  0  0  0  0  0  0  0  0  0  0
  192.8100  176.0060  137.3220 C   0  0  0  0  0  3  0  0  0  0  0  0
  190.2320  176.2130  136.2520 C   0  0  0  0  0  3  0  0  0  0  0  0
  187.1160  177.8520  138.6640 C   0  0  0  0  0  0  0  0  0  0  0  0
  189.4380  177.1920  138.3640 C   0  0  0  0  0  0  0  0  0  0  0  0
  191.0270  177.5000  140.1860 C   0  0  0  0  0  3  0  0  0  0  0  0
  188.7040  178.1790  140.4850 C   0  0  0  0  0  0  0  0  0  0  0  0
  187.4080  178.2810  139.9630 C   0  0  0  0  0  3  0  0  0  0  0  0
  192.0450  176.9620  139.4000 C   0  0  0  0  0  3  0  0  0  0  0  0
  185.7420  178.0000  138.0960 C   0  0  1  0  0  3  0  0  0  0  0  0
  185.5030  177.0000  136.9780 C   0  0  0  0  0  1  0  0  0  0  0  0
  184.7480  177.8150  139.1500 N   0  0  0  0  0  2  0  0  0  0  0  0
  183.1780  179.0830  137.9680 O   0  0  0  0  0  1  0  0  0  0  0  0
  183.8260  178.9570  139.2010 C   0  0  0  0  0  0  0  0  0  0  0  0
  184.5430  180.1280  139.4690 O   0  0  0  0  0  1  0  0  0  0  0  0
  182.8170  178.7610  140.2590 N   0  0  0  0  0  0  0  0  0  0  0  0
  184.5810  178.8390  142.0190 N   0  0  0  0  0  2  0  0  0  0  0  0
  183.2150  178.6150  141.6370 C   0  0  0  0  0  0  0  0  0  0  0  0
  182.3540  178.3130  142.5090 O   0  0  0  0  0  0  0  0  0  0  0  0
  185.1570  178.6110  143.3120 C   0  0  0  0  0  0  0  0  0  0  0  0
  185.3030  179.2390  145.6530 C   0  0  0  0  0  3  0  0  0  0  0  0
  186.7150  177.4730  144.7890 C   0  0  0  0  0  3  0  0  0  0  0  0
  186.2900  178.2680  145.8560 C   0  0  0  0  0  3  0  0  0  0  0  0
  186.1520  177.6450  143.5210 C   0  0  0  0  0  3  0  0  0  0  0  0
  184.7440  179.4120  144.3840 C   0  0  0  0  0  3  0  0  0  0  0  0
  181.3900  178.6870  139.9340 C   0  0  0  0  0  2  0  0  0  0  0  0
  179.7620  176.8590  140.4180 C   0  0  0  0  0  1  0  0  0  0  0  0
  180.9820  177.2570  139.6130 C   0  0  0  0  0  2  0  0  0  0  0  0
  188.9940  178.5930  141.8320 N   0  0  0  0  0  2  0  0  0  0  0  0
  190.7880  175.8290  143.8680 C   0  0  0  0  0  2  0  0  0  0  0  0
  191.0330  176.6990  145.0930 C   0  0  2  0  0  3  0  0  0  0  0  0
  190.5820  178.6640  143.5950 C   0  0  0  0  0  3  0  0  0  0  0  0
  189.6520  176.4270  143.0430 C   0  0  0  0  0  2  0  0  0  0  0  0
  189.8080  177.9150  142.8000 C   0  0  0  0  0  0  0  0  0  0  0  0
  191.4940  178.0850  144.6410 C   0  0  0  0  0  2  0  0  0  0  0  0
  192.0860  176.3240  147.1860 O   0  0  0  0  0  0  0  0  0  0  0  0
  192.0550  176.0710  145.9910 C   0  0  0  0  0  3  0  0  0  0  0  0
  1  8  1  0  0  0  0
  2 12  1  0  0  0  0
  2 13  1  0  0  0  0
  3 11  1  0  0  0  0
  3 10  2  0  0  0  0
  4 15  1  0  0  0  0
  5  1  2  0  0  0  0
  5  9  1  0  0  0  0
  6  1  1  0  0  0  0
  7  4  1  0  0  0  0
  7 11  1  0  0  0  0
  8  4  2  0  0  0  0
  9  7  2  0  0  0  0
 10 14  1  0  0  0  0
 11  2  2  0  0  0  0
 13 35  1  0  0  0  0
 14 13  2  0  0  0  0
 15 12  2  0  0  0  0
 16 17  1  6  0  0  0
 16 10  1  0  0  0  0
 16 18  1  0  0  0  0
 18 20  1  0  0  0  0
 19 20  1  0  0  0  0
 20 21  1  0  0  0  0
 20 22  1  0  0  0  0
 22 24  1  0  0  0  0
 23 26  1  0  0  0  0
 24 23  1  0  0  0  0
 24 25  2  0  0  0  0
 26 30  2  0  0  0  0
 26 31  1  0  0  0  0
 27 29  1  0  0  0  0
 28 29  2  0  0  0  0
 30 28  1  0  0  0  0
 31 27  2  0  0  0  0
 32 22  1  0  0  0  0
 34 32  1  0  0  0  0
 34 33  1  0  0  0  0
 35 40  1  0  0  0  0
 36 37  1  0  0  0  0
 37 43  1  1  0  0  0
 38 41  1  0  0  0  0
 39 36  1  0  0  0  0
 40 39  1  0  0  0  0
 40 38  2  0  0  0  0
 41 37  1  0  0  0  0
 43 42  2  0  0  0  0
M  END
>  <MODEL>
5

>  <REMARK>
 VINA RESULT:      -9.0      2.551      7.924
  Name = 
  10 active torsions:
  status: ('A' for Active; 'I' for Inactive)
    1  A    between atoms: N_1  and  C_34
    2  A    between atoms: N_1  and  C_35
    3  A    between atoms: C_2  and  N_6
    4  A    between atoms: C_2  and  C_27
    5  A    between atoms: N_4  and  C_12
    6  A    between atoms: N_4  and  C_15
    7  A    between atoms: N_6  and  C_12
    8  A    between atoms: C_11  and  N_14
    9  A    between atoms: C_15  and  C_42
   10  A    between atoms: C_19  and  C_37
                            x       y       z     vdW  Elec       q    Type
                         _______ _______ _______ _____ _____    ______ ____

>  <TORSDO>
F 10

$$$$
=
 OpenBabel10262422363D

 43 47  0  0  1  0  0  0  0  0999 V2000
  189.4570  177.1990  146.4530 C   0  0  0  0  0  0  0  0  0  0  0  0
  187.5910  178.2130  141.8520 C   0  0  0  0  0  0  0  0  0  0  0  0
  185.6030  178.1950  143.2590 C   0  0  0  0  0  3  0  0  0  0  0  0
  189.2050  177.6450  144.0850 C   0  0  0  0  0  0  0  0  0  0  0  0
  188.0770  177.3250  146.6280 C   0  0  0  0  0  3  0  0  0  0  0  0
  190.2910  176.9090  147.5680 N   0  0  0  0  0  1  0  0  0  0  0  0
  187.8050  177.7740  144.2520 C   0  0  0  0  0  0  0  0  0  0  0  0
  190.0200  177.3590  145.1850 C   0  0  0  0  0  3  0  0  0  0  0  0
  187.2540  177.6110  145.5350 C   0  0  0  0  0  3  0  0  0  0  0  0
  184.8100  178.4790  142.1470 C   0  0  0  0  0  0  0  0  0  0  0  0
  186.9940  178.0600  143.1310 C   0  0  0  0  0  0  0  0  0  0  0  0
  188.9800  178.0820  141.7190 C   0  0  0  0  0  3  0  0  0  0  0  0
  186.7910  178.4850  140.7250 C   0  0  0  0  0  0  0  0  0  0  0  0
  185.4060  178.6210  140.8900 C   0  0  0  0  0  3  0  0  0  0  0  0
  189.7800  177.8010  142.8260 C   0  0  0  0  0  3  0  0  0  0  0  0
  183.3280  178.5830  142.3120 C   0  0  1  0  0  3  0  0  0  0  0  0
  182.9690  179.1010  143.6930 C   0  0  0  0  0  1  0  0  0  0  0  0
  182.7780  179.4690  141.2890 N   0  0  0  0  0  2  0  0  0  0  0  0
  181.5000  177.5220  141.0760 O   0  0  0  0  0  1  0  0  0  0  0  0
  181.7200  178.7910  140.5300 C   0  0  0  0  0  0  0  0  0  0  0  0
  182.1120  178.6580  139.1940 O   0  0  0  0  0  1  0  0  0  0  0  0
  180.4650  179.5640  140.5860 N   0  0  0  0  0  0  0  0  0  0  0  0
  181.1960  180.9750  138.6650 N   0  0  0  0  0  2  0  0  0  0  0  0
  180.2600  180.6960  139.7170 C   0  0  0  0  0  0  0  0  0  0  0  0
  179.2420  181.4270  139.8700 O   0  0  0  0  0  0  0  0  0  0  0  0
  181.2040  182.1240  137.8060 C   0  0  0  0  0  0  0  0  0  0  0  0
  181.8540  184.4350  137.4470 C   0  0  0  0  0  3  0  0  0  0  0  0
  180.5470  183.2770  135.7710 C   0  0  0  0  0  3  0  0  0  0  0  0
  181.2020  184.4300  136.2100 C   0  0  0  0  0  3  0  0  0  0  0  0
  180.5470  182.1280  136.5670 C   0  0  0  0  0  3  0  0  0  0  0  0
  181.8490  183.2870  138.2430 C   0  0  0  0  0  3  0  0  0  0  0  0
  179.4080  179.2160  141.5380 C   0  0  0  0  0  2  0  0  0  0  0  0
  178.9440  179.3850  143.9850 C   0  0  0  0  0  1  0  0  0  0  0  0
  179.4670  180.1150  142.7640 C   0  0  0  0  0  2  0  0  0  0  0  0
  187.4040  178.6630  139.4360 N   0  0  0  0  0  2  0  0  0  0  0  0
  186.7310  176.4040  136.3620 C   0  0  0  0  0  2  0  0  0  0  0  0
  187.7810  175.3620  136.7260 C   0  0  2  0  0  3  0  0  0  0  0  0
  188.7480  177.1010  138.2590 C   0  0  0  0  0  3  0  0  0  0  0  0
  186.3520  177.1960  137.6110 C   0  0  0  0  0  2  0  0  0  0  0  0
  187.5520  177.6860  138.3950 C   0  0  0  0  0  0  0  0  0  0  0  0
  189.0470  176.0720  137.2030 C   0  0  0  0  0  2  0  0  0  0  0  0
  188.0590  173.2660  135.6510 O   0  0  0  0  0  0  0  0  0  0  0  0
  188.0810  174.4830  135.5510 C   0  0  0  0  0  3  0  0  0  0  0  0
  1  5  1  0  0  0  0
  1  6  1  0  0  0  0
  2 11  1  0  0  0  0
  4  7  1  0  0  0  0
  4  8  1  0  0  0  0
  7  9  1  0  0  0  0
  8  1  2  0  0  0  0
  9  5  2  0  0  0  0
 10 16  1  0  0  0  0
 10  3  2  0  0  0  0
 11  3  1  0  0  0  0
 11  7  2  0  0  0  0
 12  2  2  0  0  0  0
 12 15  1  0  0  0  0
 13 14  2  0  0  0  0
 13  2  1  0  0  0  0
 14 10  1  0  0  0  0
 15  4  2  0  0  0  0
 16 17  1  1  0  0  0
 18 16  1  0  0  0  0
 20 22  1  0  0  0  0
 20 19  1  0  0  0  0
 20 18  1  0  0  0  0
 21 20  1  0  0  0  0
 22 32  1  0  0  0  0
 23 24  1  0  0  0  0
 24 25  2  0  0  0  0
 24 22  1  0  0  0  0
 26 31  1  0  0  0  0
 26 23  1  0  0  0  0
 27 31  2  0  0  0  0
 28 29  2  0  0  0  0
 28 30  1  0  0  0  0
 29 27  1  0  0  0  0
 30 26  2  0  0  0  0
 32 34  1  0  0  0  0
 34 33  1  0  0  0  0
 35 13  1  0  0  0  0
 36 37  1  0  0  0  0
 36 39  1  0  0  0  0
 37 43  1  6  0  0  0
 37 41  1  0  0  0  0
 38 40  2  0  0  0  0
 39 40  1  0  0  0  0
 40 35  1  0  0  0  0
 41 38  1  0  0  0  0
 43 42  2  0  0  0  0
M  END
>  <MODEL>
6

>  <REMARK>
 VINA RESULT:      -8.8      2.961      6.816
  Name = 
  10 active torsions:
  status: ('A' for Active; 'I' for Inactive)
    1  A    between atoms: N_1  and  C_34
    2  A    between atoms: N_1  and  C_35
    3  A    between atoms: C_2  and  N_6
    4  A    between atoms: C_2  and  C_27
    5  A    between atoms: N_4  and  C_12
    6  A    between atoms: N_4  and  C_15
    7  A    between atoms: N_6  and  C_12
    8  A    between atoms: C_11  and  N_14
    9  A    between atoms: C_15  and  C_42
   10  A    between atoms: C_19  and  C_37
                            x       y       z     vdW  Elec       q    Type
                         _______ _______ _______ _____ _____    ______ ____

>  <TORSDO>
F 10

$$$$
=
 OpenBabel10262422363D

 43 47  0  0  1  0  0  0  0  0999 V2000
  184.3830  179.0700  139.2470 C   0  0  0  0  0  0  0  0  0  0  0  0
  188.8860  177.1800  137.8950 C   0  0  0  0  0  0  0  0  0  0  0  0
  189.1350  177.5290  140.2910 C   0  0  0  0  0  3  0  0  0  0  0  0
  186.2490  178.1550  138.0020 C   0  0  0  0  0  0  0  0  0  0  0  0
  185.1340  179.0140  140.4230 C   0  0  0  0  0  3  0  0  0  0  0  0
  183.0490  179.5640  139.2780 N   0  0  0  0  0  1  0  0  0  0  0  0
  187.0190  178.0950  139.1890 C   0  0  0  0  0  0  0  0  0  0  0  0
  184.9390  178.6420  138.0390 C   0  0  0  0  0  3  0  0  0  0  0  0
  186.4450  178.5290  140.3960 C   0  0  0  0  0  3  0  0  0  0  0  0
  190.4410  177.0420  140.2290 C   0  0  0  0  0  0  0  0  0  0  0  0
  188.3420  177.6040  139.1350 C   0  0  0  0  0  0  0  0  0  0  0  0
  188.0980  177.2490  136.7360 C   0  0  0  0  0  3  0  0  0  0  0  0
  190.2090  176.7000  137.8270 C   0  0  0  0  0  0  0  0  0  0  0  0
  190.9690  176.6320  139.0010 C   0  0  0  0  0  3  0  0  0  0  0  0
  186.7910  177.7320  136.7900 C   0  0  0  0  0  3  0  0  0  0  0  0
  191.2690  177.0070  141.4730 C   0  0  1  0  0  3  0  0  0  0  0  0
  192.5040  177.8790  141.3300 C   0  0  0  0  0  1  0  0  0  0  0  0
  190.4720  177.4560  142.6110 N   0  0  0  0  0  2  0  0  0  0  0  0
  191.3910  175.5060  143.5190 O   0  0  0  0  0  1  0  0  0  0  0  0
  190.2900  176.3670  143.5800 C   0  0  0  0  0  0  0  0  0  0  0  0
  189.1270  175.6530  143.2720 O   0  0  0  0  0  1  0  0  0  0  0  0
  190.1730  176.9050  144.9480 N   0  0  0  0  0  0  0  0  0  0  0  0
  187.7250  177.2620  144.6480 N   0  0  0  0  0  2  0  0  0  0  0  0
  188.9180  177.4260  145.4290 C   0  0  0  0  0  0  0  0  0  0  0  0
  188.8680  178.0050  146.5500 O   0  0  0  0  0  0  0  0  0  0  0  0
  186.4360  177.8290  144.9220 C   0  0  0  0  0  0  0  0  0  0  0  0
  184.3760  178.7940  144.0750 C   0  0  0  0  0  3  0  0  0  0  0  0
  184.7380  178.6350  146.4630 C   0  0  0  0  0  3  0  0  0  0  0  0
  183.9310  179.0050  145.3840 C   0  0  0  0  0  3  0  0  0  0  0  0
  185.9870  178.0500  146.2320 C   0  0  0  0  0  3  0  0  0  0  0  0
  185.6260  178.2120  143.8470 C   0  0  0  0  0  3  0  0  0  0  0  0
  191.3330  176.9450  145.8430 C   0  0  0  0  0  2  0  0  0  0  0  0
  192.4400  175.6370  147.6580 C   0  0  0  0  0  1  0  0  0  0  0  0
  191.1130  176.0460  147.0510 C   0  0  0  0  0  2  0  0  0  0  0  0
  190.7450  176.2500  136.5700 N   0  0  0  0  0  2  0  0  0  0  0  0
  193.0240  173.1520  136.1070 C   0  0  0  0  0  2  0  0  0  0  0  0
  194.3160  173.8800  136.4510 C   0  0  2  0  0  3  0  0  0  0  0  0
  193.0440  176.0060  136.0360 C   0  0  0  0  0  3  0  0  0  0  0  0
  191.8390  173.9300  136.6740 C   0  0  0  0  0  2  0  0  0  0  0  0
  191.8900  175.4110  136.3570 C   0  0  0  0  0  0  0  0  0  0  0  0
  194.3170  175.2490  135.7710 C   0  0  0  0  0  2  0  0  0  0  0  0
  196.6360  173.5340  136.0960 O   0  0  0  0  0  0  0  0  0  0  0  0
  195.5050  173.0780  136.0200 C   0  0  0  0  0  3  0  0  0  0  0  0
  1  6  1  0  0  0  0
  1  5  1  0  0  0  0
  2 11  1  0  0  0  0
  4  8  1  0  0  0  0
  4  7  2  0  0  0  0
  7  9  1  0  0  0  0
  8  1  2  0  0  0  0
  9  5  2  0  0  0  0
 10  3  1  0  0  0  0
 10 16  1  0  0  0  0
 11  7  1  0  0  0  0
 11  3  2  0  0  0  0
 12 15  2  0  0  0  0
 12  2  1  0  0  0  0
 13  2  2  0  0  0  0
 13 14  1  0  0  0  0
 14 10  2  0  0  0  0
 15  4  1  0  0  0  0
 16 17  1  6  0  0  0
 16 18  1  0  0  0  0
 18 20  1  0  0  0  0
 19 20  1  0  0  0  0
 20 22  1  0  0  0  0
 21 20  1  0  0  0  0
 22 24  1  0  0  0  0
 22 32  1  0  0  0  0
 23 26  1  0  0  0  0
 23 24  1  0  0  0  0
 24 25  2  0  0  0  0
 26 30  1  0  0  0  0
 27 29  2  0  0  0  0
 29 28  1  0  0  0  0
 30 28  2  0  0  0  0
 31 27  1  0  0  0  0
 31 26  2  0  0  0  0
 32 34  1  0  0  0  0
 34 33  1  0  0  0  0
 35 13  1  0  0  0  0
 36 37  1  0  0  0  0
 36 39  1  0  0  0  0
 37 43  1  6  0  0  0
 38 40  2  0  0  0  0
 40 35  1  0  0  0  0
 40 39  1  0  0  0  0
 41 38  1  0  0  0  0
 41 37  1  0  0  0  0
 43 42  2  0  0  0  0
M  END
>  <MODEL>
7

>  <REMARK>
 VINA RESULT:      -8.8      3.391      9.543
  Name = 
  10 active torsions:
  status: ('A' for Active; 'I' for Inactive)
    1  A    between atoms: N_1  and  C_34
    2  A    between atoms: N_1  and  C_35
    3  A    between atoms: C_2  and  N_6
    4  A    between atoms: C_2  and  C_27
    5  A    between atoms: N_4  and  C_12
    6  A    between atoms: N_4  and  C_15
    7  A    between atoms: N_6  and  C_12
    8  A    between atoms: C_11  and  N_14
    9  A    between atoms: C_15  and  C_42
   10  A    between atoms: C_19  and  C_37
                            x       y       z     vdW  Elec       q    Type
                         _______ _______ _______ _____ _____    ______ ____

>  <TORSDO>
F 10

$$$$
=
 OpenBabel10262422363D

 43 47  0  0  1  0  0  0  0  0999 V2000
  191.7680  173.8490  135.5220 C   0  0  0  0  0  0  0  0  0  0  0  0
  188.3770  177.0150  137.5600 C   0  0  0  0  0  0  0  0  0  0  0  0
  190.0130  176.7430  139.3430 C   0  0  0  0  0  3  0  0  0  0  0  0
  189.8590  175.2900  135.9040 C   0  0  0  0  0  0  0  0  0  0  0  0
  192.2360  174.1220  136.8100 C   0  0  0  0  0  3  0  0  0  0  0  0
  192.5000  172.9770  134.6700 N   0  0  0  0  0  1  0  0  0  0  0  0
  190.3250  175.5730  137.2110 C   0  0  0  0  0  0  0  0  0  0  0  0
  190.5820  174.4320  135.0700 C   0  0  0  0  0  3  0  0  0  0  0  0
  191.5200  174.9790  137.6500 C   0  0  0  0  0  3  0  0  0  0  0  0
  189.2730  177.6010  140.1570 C   0  0  0  0  0  0  0  0  0  0  0  0
  189.5820  176.4400  138.0420 C   0  0  0  0  0  0  0  0  0  0  0  0
  187.9420  176.7190  136.2610 C   0  0  0  0  0  3  0  0  0  0  0  0
  187.6200  177.8700  138.3850 C   0  0  0  0  0  0  0  0  0  0  0  0
  188.0840  178.1570  139.6760 C   0  0  0  0  0  3  0  0  0  0  0  0
  188.6760  175.8640  135.4400 C   0  0  0  0  0  3  0  0  0  0  0  0
  189.7430  177.8760  141.5490 C   0  0  1  0  0  3  0  0  0  0  0  0
  189.1780  179.1870  142.0660 C   0  0  0  0  0  1  0  0  0  0  0  0
  189.3470  176.7810  142.4300 N   0  0  0  0  0  2  0  0  0  0  0  0
  191.6790  176.6980  142.5870 O   0  0  0  0  0  1  0  0  0  0  0  0
  190.4930  176.3070  143.2170 C   0  0  0  0  0  0  0  0  0  0  0  0
  190.4560  174.9120  143.3090 O   0  0  0  0  0  1  0  0  0  0  0  0
  190.4590  176.8770  144.5770 N   0  0  0  0  0  0  0  0  0  0  0  0
  187.9800  177.1160  144.4620 N   0  0  0  0  0  2  0  0  0  0  0  0
  189.2220  177.3550  145.1430 C   0  0  0  0  0  0  0  0  0  0  0  0
  189.2320  177.9610  146.2500 O   0  0  0  0  0  0  0  0  0  0  0  0
  186.6920  177.6320  144.8250 C   0  0  0  0  0  0  0  0  0  0  0  0
  184.5970  178.6440  144.1300 C   0  0  0  0  0  3  0  0  0  0  0  0
  185.0250  178.2530  146.4800 C   0  0  0  0  0  3  0  0  0  0  0  0
  184.1850  178.7170  145.4640 C   0  0  0  0  0  3  0  0  0  0  0  0
  186.2750  177.7140  146.1610 C   0  0  0  0  0  3  0  0  0  0  0  0
  185.8480  178.1080  143.8130 C   0  0  0  0  0  3  0  0  0  0  0  0
  191.6810  176.9930  145.3760 C   0  0  0  0  0  2  0  0  0  0  0  0
  191.8840  176.0150  147.6640 C   0  0  0  0  0  1  0  0  0  0  0  0
  191.9240  175.7220  146.1770 C   0  0  0  0  0  2  0  0  0  0  0  0
  186.4120  178.4690  137.8820 N   0  0  0  0  0  2  0  0  0  0  0  0
  183.0140  178.9700  139.6720 C   0  0  0  0  0  2  0  0  0  0  0  0
  182.6280  177.4970  139.6470 C   0  0  2  0  0  3  0  0  0  0  0  0
  184.3900  177.2270  137.8780 C   0  0  0  0  0  3  0  0  0  0  0  0
  184.5260  179.0990  139.5060 C   0  0  0  0  0  2  0  0  0  0  0  0
  185.0730  178.2720  138.3600 C   0  0  0  0  0  0  0  0  0  0  0  0
  182.9750  176.9100  138.2790 C   0  0  0  0  0  2  0  0  0  0  0  0
  180.4290  178.2970  140.0390 O   0  0  0  0  0  0  0  0  0  0  0  0
  181.1680  177.3290  139.9360 C   0  0  0  0  0  3  0  0  0  0  0  0
  1  5  1  0  0  0  0
  2 11  1  0  0  0  0
  2 13  2  0  0  0  0
  3 10  1  0  0  0  0
  4  7  2  0  0  0  0
  5  9  2  0  0  0  0
  6  1  1  0  0  0  0
  7  9  1  0  0  0  0
  7 11  1  0  0  0  0
  8  1  2  0  0  0  0
  8  4  1  0  0  0  0
 10 16  1  0  0  0  0
 11  3  2  0  0  0  0
 12  2  1  0  0  0  0
 13 14  1  0  0  0  0
 14 10  2  0  0  0  0
 15  4  1  0  0  0  0
 15 12  2  0  0  0  0
 16 17  1  1  0  0  0
 16 18  1  0  0  0  0
 18 20  1  0  0  0  0
 19 20  1  0  0  0  0
 20 21  1  0  0  0  0
 20 22  1  0  0  0  0
 22 24  1  0  0  0  0
 22 32  1  0  0  0  0
 23 26  1  0  0  0  0
 23 24  1  0  0  0  0
 24 25  2  0  0  0  0
 26 30  1  0  0  0  0
 27 29  2  0  0  0  0
 29 28  1  0  0  0  0
 30 28  2  0  0  0  0
 31 27  1  0  0  0  0
 31 26  2  0  0  0  0
 32 34  1  0  0  0  0
 34 33  1  0  0  0  0
 35 40  1  0  0  0  0
 35 13  1  0  0  0  0
 37 36  1  0  0  0  0
 37 43  1  6  0  0  0
 38 41  1  0  0  0  0
 38 40  2  0  0  0  0
 39 36  1  0  0  0  0
 40 39  1  0  0  0  0
 41 37  1  0  0  0  0
 43 42  2  0  0  0  0
M  END
>  <MODEL>
8

>  <REMARK>
 VINA RESULT:      -8.6      2.769      7.699
  Name = 
  10 active torsions:
  status: ('A' for Active; 'I' for Inactive)
    1  A    between atoms: N_1  and  C_34
    2  A    between atoms: N_1  and  C_35
    3  A    between atoms: C_2  and  N_6
    4  A    between atoms: C_2  and  C_27
    5  A    between atoms: N_4  and  C_12
    6  A    between atoms: N_4  and  C_15
    7  A    between atoms: N_6  and  C_12
    8  A    between atoms: C_11  and  N_14
    9  A    between atoms: C_15  and  C_42
   10  A    between atoms: C_19  and  C_37
                            x       y       z     vdW  Elec       q    Type
                         _______ _______ _______ _____ _____    ______ ____

>  <TORSDO>
F 10

$$$$
=
 OpenBabel10262422363D

 43 47  0  0  1  0  0  0  0  0999 V2000
  187.1470  177.7270  145.9020 C   0  0  0  0  0  0  0  0  0  0  0  0
  185.2320  178.6380  141.3000 C   0  0  0  0  0  0  0  0  0  0  0  0
  187.5510  178.0680  140.8260 C   0  0  0  0  0  3  0  0  0  0  0  0
  185.6800  178.2710  144.0530 C   0  0  0  0  0  0  0  0  0  0  0  0
  188.2040  177.5280  145.0100 C   0  0  0  0  0  3  0  0  0  0  0  0
  187.3530  177.5500  147.2990 N   0  0  0  0  0  1  0  0  0  0  0  0
  186.7450  178.0730  143.1410 C   0  0  0  0  0  0  0  0  0  0  0  0
  185.8880  178.0970  145.4250 C   0  0  0  0  0  3  0  0  0  0  0  0
  188.0050  177.7000  143.6380 C   0  0  0  0  0  3  0  0  0  0  0  0
  187.3200  178.2490  139.4620 C   0  0  0  0  0  0  0  0  0  0  0  0
  186.5200  178.2560  141.7590 C   0  0  0  0  0  0  0  0  0  0  0  0
  184.1960  178.8240  142.2270 C   0  0  0  0  0  3  0  0  0  0  0  0
  184.9990  178.8360  139.9250 C   0  0  0  0  0  0  0  0  0  0  0  0
  186.0490  178.6320  139.0210 C   0  0  0  0  0  3  0  0  0  0  0  0
  184.4180  178.6420  143.5910 C   0  0  0  0  0  3  0  0  0  0  0  0
  188.4490  178.0740  138.4980 C   0  0  1  0  0  3  0  0  0  0  0  0
  188.6990  179.3500  137.7140 C   0  0  0  0  0  1  0  0  0  0  0  0
  189.6580  177.6860  139.2190 N   0  0  0  0  0  2  0  0  0  0  0  0
  190.3590  177.0890  137.0690 O   0  0  0  0  0  1  0  0  0  0  0  0
  190.4600  176.7480  138.4220 C   0  0  0  0  0  0  0  0  0  0  0  0
  189.9830  175.4470  138.6080 O   0  0  0  0  0  1  0  0  0  0  0  0
  191.8770  176.8020  138.8290 N   0  0  0  0  0  0  0  0  0  0  0  0
  191.2290  176.8930  141.2340 N   0  0  0  0  0  2  0  0  0  0  0  0
  192.2380  176.9640  140.2150 C   0  0  0  0  0  0  0  0  0  0  0  0
  193.4470  177.1440  140.5300 O   0  0  0  0  0  0  0  0  0  0  0  0
  191.4040  177.1590  142.6330 C   0  0  0  0  0  0  0  0  0  0  0  0
  191.6360  176.2960  144.8900 C   0  0  0  0  0  3  0  0  0  0  0  0
  191.5790  178.6870  144.5140 C   0  0  0  0  0  3  0  0  0  0  0  0
  191.6790  177.6020  145.3890 C   0  0  0  0  0  3  0  0  0  0  0  0
  191.4410  178.4650  143.1400 C   0  0  0  0  0  3  0  0  0  0  0  0
  191.4940  176.0770  143.5180 C   0  0  0  0  0  3  0  0  0  0  0  0
  192.9490  176.7150  137.8350 C   0  0  0  0  0  2  0  0  0  0  0  0
  194.6380  174.8780  137.8160 C   0  0  0  0  0  1  0  0  0  0  0  0
  193.2180  175.2660  137.4560 C   0  0  0  0  0  2  0  0  0  0  0  0
  183.6850  179.1990  139.4650 N   0  0  0  0  0  2  0  0  0  0  0  0
  181.1460  176.2870  139.2000 C   0  0  0  0  0  2  0  0  0  0  0  0
  180.9560  176.4080  137.6940 C   0  0  2  0  0  3  0  0  0  0  0  0
  181.9650  178.6980  137.9080 C   0  0  0  0  0  3  0  0  0  0  0  0
  182.4640  176.9450  139.5970 C   0  0  0  0  0  2  0  0  0  0  0  0
  182.6480  178.3250  138.9980 C   0  0  0  0  0  0  0  0  0  0  0  0
  180.8440  177.8860  137.3200 C   0  0  0  0  0  2  0  0  0  0  0  0
  179.7320  175.0060  136.2230 O   0  0  0  0  0  0  0  0  0  0  0  0
  179.7340  175.6600  137.2550 C   0  0  0  0  0  3  0  0  0  0  0  0
  1  6  1  0  0  0  0
  2 11  1  0  0  0  0
  2 12  1  0  0  0  0
  3 11  2  0  0  0  0
  4  8  2  0  0  0  0
  5  1  2  0  0  0  0
  7  9  2  0  0  0  0
  7  4  1  0  0  0  0
  8  1  1  0  0  0  0
  9  5  1  0  0  0  0
 10  3  1  0  0  0  0
 11  7  1  0  0  0  0
 12 15  2  0  0  0  0
 13  2  2  0  0  0  0
 14 10  2  0  0  0  0
 14 13  1  0  0  0  0
 15  4  1  0  0  0  0
 16 17  1  1  0  0  0
 16 18  1  0  0  0  0
 16 10  1  0  0  0  0
 19 20  1  0  0  0  0
 20 21  1  0  0  0  0
 20 22  1  0  0  0  0
 20 18  1  0  0  0  0
 22 24  1  0  0  0  0
 23 26  1  0  0  0  0
 24 25  2  0  0  0  0
 24 23  1  0  0  0  0
 26 30  2  0  0  0  0
 26 31  1  0  0  0  0
 27 29  1  0  0  0  0
 28 29  2  0  0  0  0
 30 28  1  0  0  0  0
 31 27  2  0  0  0  0
 32 22  1  0  0  0  0
 34 33  1  0  0  0  0
 34 32  1  0  0  0  0
 35 13  1  0  0  0  0
 36 39  1  0  0  0  0
 37 43  1  1  0  0  0
 37 36  1  0  0  0  0
 38 40  2  0  0  0  0
 40 35  1  0  0  0  0
 40 39  1  0  0  0  0
 41 37  1  0  0  0  0
 41 38  1  0  0  0  0
 42 43  2  0  0  0  0
M  END
>  <MODEL>
9

>  <REMARK>
 VINA RESULT:      -8.6      2.413      6.053
  Name = 
  10 active torsions:
  status: ('A' for Active; 'I' for Inactive)
    1  A    between atoms: N_1  and  C_34
    2  A    between atoms: N_1  and  C_35
    3  A    between atoms: C_2  and  N_6
    4  A    between atoms: C_2  and  C_27
    5  A    between atoms: N_4  and  C_12
    6  A    between atoms: N_4  and  C_15
    7  A    between atoms: N_6  and  C_12
    8  A    between atoms: C_11  and  N_14
    9  A    between atoms: C_15  and  C_42
   10  A    between atoms: C_19  and  C_37
                            x       y       z     vdW  Elec       q    Type
                         _______ _______ _______ _____ _____    ______ ____

>  <TORSDO>
F 10

$$$$
