=
 OpenBabel10262423183D

 34 38  0  0  1  0  0  0  0  0999 V2000
  188.5060  177.8370  143.7410 C   0  0  2  0  0  3  0  0  0  0  0  0
  191.7280  176.5040  145.4810 C   0  0  0  0  0  2  0  0  0  0  0  0
  191.5050  177.0040  142.8420 S   0  0  0  0  0  0  0  0  0  0  0  0
  188.1200  178.5450  141.4560 C   0  0  0  0  0  3  0  0  0  0  0  0
  189.3860  177.8780  139.4850 C   0  0  0  0  0  3  0  0  0  0  0  0
  188.3080  178.4650  140.0000 C   0  0  0  0  0  3  0  0  0  0  0  0
  190.0230  176.9870  141.7760 C   0  0  1  0  0  3  0  0  0  0  0  0
  188.9360  177.9100  142.3050 C   0  0  0  0  0  0  0  0  0  0  0  0
  190.4940  177.3860  140.3680 C   0  0  0  0  0  2  0  0  0  0  0  0
  191.1160  176.3890  146.8690 C   0  0  2  0  0  3  0  0  0  0  0  0
  190.3000  177.6370  147.1700 C   0  0  0  0  0  2  0  0  0  0  0  0
  190.6510  176.6480  144.4070 C   0  0  2  0  0  3  0  0  0  0  0  0
  189.1620  177.7520  146.1680 C   0  0  0  0  0  2  0  0  0  0  0  0
  189.6850  177.8020  144.7260 C   0  0  2  0  0  3  0  0  0  0  0  0
  192.5080  177.2470  148.7630 O   0  0  0  0  0  1  0  0  0  0  0  0
  192.8190  175.1270  147.9530 O   0  0  0  0  0  0  0  0  0  0  0  0
  192.1900  176.2140  147.8900 C   0  0  0  0  0  0  0  0  0  0  0  0
  187.4780  176.7170  143.9560 C   0  0  0  0  0  2  0  0  0  0  0  0
  186.4070  177.1590  144.7370 O   0  0  0  0  0  0  0  0  0  0  0  0
  186.3740  178.5410  144.5510 C   0  0  0  0  0  2  0  0  0  0  0  0
  182.5800  179.0140  144.2270 C   0  0  0  0  0  2  0  0  0  0  0  0
  184.8790  178.2130  142.5840 C   0  0  0  0  0  2  0  0  0  0  0  0
  180.9660  178.6010  140.7450 C   0  0  2  0  0  0  0  0  0  0  0  0
  181.2790  179.8230  140.1390 O   0  0  0  0  0  1  0  0  0  0  0  0
  181.0490  178.7700  142.2730 C   0  0  0  0  0  2  0  0  0  0  0  0
  182.3780  178.3120  142.8870 C   0  0  1  0  0  3  0  0  0  0  0  0
  183.3980  177.8330  140.6160 C   0  0  0  0  0  2  0  0  0  0  0  0
  183.5510  178.5940  141.9370 C   0  0  2  0  0  3  0  0  0  0  0  0
  181.9400  177.5290  140.2430 C   0  0  0  0  0  2  0  0  0  0  0  0
  185.0570  178.9450  143.9130 C   0  0  1  0  0  3  0  0  0  0  0  0
  183.9080  178.5970  144.8510 C   0  0  0  0  0  2  0  0  0  0  0  0
  179.5670  178.1980  140.3840 C   0  0  0  0  0  0  0  0  0  0  0  0
  178.9660  178.7180  139.2430 O   0  0  0  0  0  0  0  0  0  0  0  0
  178.9320  177.3720  141.0930 O   0  0  0  0  0  1  0  0  0  0  0  0
  1 18  1  6  0  0  0
  1 14  1  0  0  0  0
  2 10  1  0  0  0  0
  3 12  1  0  0  0  0
  4  8  2  0  0  0  0
  5  6  2  0  0  0  0
  5  9  1  0  0  0  0
  6  4  1  0  0  0  0
  7  9  1  6  0  0  0
  7  8  1  0  0  0  0
  7  3  1  0  0  0  0
  8  1  1  0  0  0  0
 10 11  1  0  0  0  0
 10 17  1  1  0  0  0
 12 14  1  0  0  0  0
 12  2  1  1  0  0  0
 13 11  1  0  0  0  0
 14 13  1  1  0  0  0
 17 16  2  0  0  0  0
 17 15  1  0  0  0  0
 18 19  1  0  0  0  0
 20 19  1  0  0  0  0
 21 31  1  0  0  0  0
 22 30  1  0  0  0  0
 23 24  1  6  0  0  0
 23 25  1  0  0  0  0
 26 25  1  6  0  0  0
 26 21  1  0  0  0  0
 28 27  1  6  0  0  0
 28 22  1  0  0  0  0
 28 26  1  0  0  0  0
 29 27  1  0  0  0  0
 29 23  1  0  0  0  0
 30 20  1  1  0  0  0
 30 31  1  0  0  0  0
 32 23  1  0  0  0  0
 32 34  1  0  0  0  0
 33 32  2  0  0  0  0
M  END
>  <MODEL>
1

>  <REMARK>
 VINA RESULT:      -9.7      0.000      0.000
  Name = 
  6 active torsions:
  status: ('A' for Active; 'I' for Inactive)
    1  A    between atoms: C_1  and  C_9
    2  A    between atoms: C_7  and  C_11
    3  A    between atoms: O_8  and  C_9
    4  A    between atoms: O_8  and  C_18
    5  A    between atoms: C_18  and  C_30
    6  A    between atoms: C_23  and  C_25
                            x       y       z     vdW  Elec       q    Type
                         _______ _______ _______ _____ _____    ______ ____

>  <TORSDO>
F 6

$$$$
=
 OpenBabel10262423183D

 34 38  0  0  1  0  0  0  0  0999 V2000
  186.6710  177.6970  142.4350 C   0  0  2  0  0  3  0  0  0  0  0  0
  189.2050  177.2170  145.3560 C   0  0  0  0  0  2  0  0  0  0  0  0
  186.6240  177.9300  145.6660 S   0  0  0  0  0  0  0  0  0  0  0  0
  184.2880  178.1310  142.4640 C   0  0  0  0  0  3  0  0  0  0  0  0
  183.0100  179.1550  144.2670 C   0  0  0  0  0  3  0  0  0  0  0  0
  183.0640  178.7440  143.0030 C   0  0  0  0  0  3  0  0  0  0  0  0
  185.5130  178.8050  144.5120 C   0  0  1  0  0  3  0  0  0  0  0  0
  185.4240  178.1000  143.1670 C   0  0  0  0  0  0  0  0  0  0  0  0
  184.1470  178.9020  145.2120 C   0  0  0  0  0  2  0  0  0  0  0  0
  190.4070  176.9230  144.4700 C   0  0  2  0  0  3  0  0  0  0  0  0
  190.0020  175.9520  143.3710 C   0  0  0  0  0  2  0  0  0  0  0  0
  188.0620  177.8410  144.5570 C   0  0  2  0  0  3  0  0  0  0  0  0
  188.9270  176.5890  142.5030 C   0  0  0  0  0  2  0  0  0  0  0  0
  187.6980  176.9870  143.3300 C   0  0  2  0  0  3  0  0  0  0  0  0
  191.9080  176.9570  146.4720 O   0  0  0  0  0  1  0  0  0  0  0  0
  192.1080  175.3120  144.8890 O   0  0  0  0  0  0  0  0  0  0  0  0
  191.5160  176.3490  145.2850 C   0  0  0  0  0  0  0  0  0  0  0  0
  187.2480  178.8730  141.6330 C   0  0  0  0  0  2  0  0  0  0  0  0
  187.3560  178.5540  140.2780 O   0  0  0  0  0  0  0  0  0  0  0  0
  188.6940  178.7900  139.9590 C   0  0  0  0  0  2  0  0  0  0  0  0
  188.3690  176.1460  137.1970 C   0  0  0  0  0  2  0  0  0  0  0  0
  190.4060  177.2540  139.0010 C   0  0  0  0  0  2  0  0  0  0  0  0
  191.5600  174.3270  136.0100 C   0  0  2  0  0  0  0  0  0  0  0  0
  192.1400  175.2860  135.1740 O   0  0  0  0  0  1  0  0  0  0  0  0
  190.0600  174.6370  136.1540 C   0  0  0  0  0  2  0  0  0  0  0  0
  189.6950  175.4230  137.4190 C   0  0  1  0  0  3  0  0  0  0  0  0
  192.1250  175.6960  138.0910 C   0  0  0  0  0  2  0  0  0  0  0  0
  190.8070  176.4170  137.7910 C   0  0  2  0  0  3  0  0  0  0  0  0
  192.2720  174.3490  137.3680 C   0  0  0  0  0  2  0  0  0  0  0  0
  189.0860  177.9760  138.7390 C   0  0  1  0  0  3  0  0  0  0  0  0
  187.9940  176.9580  138.4330 C   0  0  0  0  0  2  0  0  0  0  0  0
  191.7100  172.9630  135.4030 C   0  0  0  0  0  0  0  0  0  0  0  0
  192.9780  172.4330  135.1910 O   0  0  0  0  0  1  0  0  0  0  0  0
  190.6960  172.2780  135.0980 O   0  0  0  0  0  0  0  0  0  0  0  0
  1 18  1  1  0  0  0
  1  8  1  0  0  0  0
  1 14  1  0  0  0  0
  4  6  1  0  0  0  0
  4  8  2  0  0  0  0
  5  9  1  0  0  0  0
  6  5  2  0  0  0  0
  7  9  1  1  0  0  0
  7  3  1  0  0  0  0
  8  7  1  0  0  0  0
 10 17  1  1  0  0  0
 10  2  1  0  0  0  0
 11 10  1  0  0  0  0
 12  2  1  1  0  0  0
 12  3  1  0  0  0  0
 13 11  1  0  0  0  0
 14 13  1  6  0  0  0
 14 12  1  0  0  0  0
 16 17  2  0  0  0  0
 17 15  1  0  0  0  0
 19 18  1  0  0  0  0
 20 19  1  0  0  0  0
 21 26  1  0  0  0  0
 21 31  1  0  0  0  0
 23 24  1  6  0  0  0
 23 25  1  0  0  0  0
 23 29  1  0  0  0  0
 26 25  1  6  0  0  0
 26 28  1  0  0  0  0
 28 27  1  1  0  0  0
 28 22  1  0  0  0  0
 29 27  1  0  0  0  0
 30 22  1  0  0  0  0
 30 20  1  1  0  0  0
 31 30  1  0  0  0  0
 32 23  1  0  0  0  0
 33 32  1  0  0  0  0
 34 32  2  0  0  0  0
M  END
>  <MODEL>
2

>  <REMARK>
 VINA RESULT:      -9.4      4.428      7.917
  Name = 
  6 active torsions:
  status: ('A' for Active; 'I' for Inactive)
    1  A    between atoms: C_1  and  C_9
    2  A    between atoms: C_7  and  C_11
    3  A    between atoms: O_8  and  C_9
    4  A    between atoms: O_8  and  C_18
    5  A    between atoms: C_18  and  C_30
    6  A    between atoms: C_23  and  C_25
                            x       y       z     vdW  Elec       q    Type
                         _______ _______ _______ _____ _____    ______ ____

>  <TORSDO>
F 6

$$$$
=
 OpenBabel10262423183D

 34 38  0  0  1  0  0  0  0  0999 V2000
  187.5370  177.8190  144.0840 C   0  0  2  0  0  3  0  0  0  0  0  0
  183.7350  178.6660  144.2030 C   0  0  0  0  0  2  0  0  0  0  0  0
  185.3630  178.6100  146.3520 S   0  0  0  0  0  0  0  0  0  0  0  0
  189.2300  177.8970  145.8160 C   0  0  0  0  0  3  0  0  0  0  0  0
  188.8700  177.7550  148.2200 C   0  0  0  0  0  3  0  0  0  0  0  0
  189.7170  177.7360  147.1940 C   0  0  0  0  0  3  0  0  0  0  0  0
  186.8980  177.6600  146.6240 C   0  0  1  0  0  3  0  0  0  0  0  0
  187.9240  177.9170  145.5310 C   0  0  0  0  0  0  0  0  0  0  0  0
  187.4150  178.0570  148.0160 C   0  0  0  0  0  2  0  0  0  0  0  0
  183.4790  178.4270  142.7230 C   0  0  2  0  0  3  0  0  0  0  0  0
  184.5880  179.0710  141.9050 C   0  0  0  0  0  2  0  0  0  0  0  0
  185.0700  178.0650  144.6420 C   0  0  2  0  0  3  0  0  0  0  0  0
  185.9190  178.4230  142.2570 C   0  0  0  0  0  2  0  0  0  0  0  0
  186.2290  178.5530  143.7540 C   0  0  2  0  0  3  0  0  0  0  0  0
  181.7400  178.9730  141.0080 O   0  0  0  0  0  0  0  0  0  0  0  0
  181.4120  179.5010  143.2130 O   0  0  0  0  0  1  0  0  0  0  0  0
  182.1550  178.9930  142.3350 C   0  0  0  0  0  0  0  0  0  0  0  0
  187.5780  176.3630  143.5970 C   0  0  0  0  0  2  0  0  0  0  0  0
  188.8440  176.0300  143.1100 O   0  0  0  0  0  0  0  0  0  0  0  0
  189.1520  177.0350  142.1930 C   0  0  0  0  0  2  0  0  0  0  0  0
  192.5960  177.1420  140.5050 C   0  0  0  0  0  2  0  0  0  0  0  0
  189.8090  176.4840  139.8530 C   0  0  0  0  0  2  0  0  0  0  0  0
  192.9090  175.8440  136.8830 C   0  0  2  0  0  0  0  0  0  0  0  0
  192.9270  174.4590  137.0780 O   0  0  0  0  0  1  0  0  0  0  0  0
  193.3190  176.5340  138.1970 C   0  0  0  0  0  2  0  0  0  0  0  0
  192.1410  177.0110  139.0540 C   0  0  1  0  0  3  0  0  0  0  0  0
  190.4330  175.9690  137.4960 C   0  0  0  0  0  2  0  0  0  0  0  0
  190.9480  176.0500  138.9370 C   0  0  2  0  0  3  0  0  0  0  0  0
  191.5050  176.2700  136.4390 C   0  0  0  0  0  2  0  0  0  0  0  0
  190.2930  176.5870  141.2980 C   0  0  1  0  0  3  0  0  0  0  0  0
  191.4360  177.5910  141.3880 C   0  0  0  0  0  2  0  0  0  0  0  0
  193.8950  176.2210  135.8170 C   0  0  0  0  0  0  0  0  0  0  0  0
  193.8830  175.5580  134.5950 O   0  0  0  0  0  0  0  0  0  0  0  0
  194.7240  177.1510  136.0070 O   0  0  0  0  0  1  0  0  0  0  0  0
  1 18  1  1  0  0  0
  1  8  1  0  0  0  0
  3  7  1  0  0  0  0
  4  6  1  0  0  0  0
  6  5  2  0  0  0  0
  7  9  1  1  0  0  0
  8  4  2  0  0  0  0
  8  7  1  0  0  0  0
  9  5  1  0  0  0  0
 10 17  1  6  0  0  0
 10  2  1  0  0  0  0
 11 13  1  0  0  0  0
 11 10  1  0  0  0  0
 12  2  1  6  0  0  0
 12  3  1  0  0  0  0
 14 13  1  6  0  0  0
 14  1  1  0  0  0  0
 14 12  1  0  0  0  0
 15 17  2  0  0  0  0
 17 16  1  0  0  0  0
 19 18  1  0  0  0  0
 20 19  1  0  0  0  0
 21 31  1  0  0  0  0
 22 30  1  0  0  0  0
 23 24  1  1  0  0  0
 23 25  1  0  0  0  0
 26 25  1  6  0  0  0
 26 21  1  0  0  0  0
 28 27  1  6  0  0  0
 28 26  1  0  0  0  0
 28 22  1  0  0  0  0
 29 23  1  0  0  0  0
 29 27  1  0  0  0  0
 30 31  1  0  0  0  0
 30 20  1  1  0  0  0
 32 34  1  0  0  0  0
 32 23  1  0  0  0  0
 33 32  2  0  0  0  0
M  END
>  <MODEL>
3

>  <REMARK>
 VINA RESULT:      -9.3      4.286      9.400
  Name = 
  6 active torsions:
  status: ('A' for Active; 'I' for Inactive)
    1  A    between atoms: C_1  and  C_9
    2  A    between atoms: C_7  and  C_11
    3  A    between atoms: O_8  and  C_9
    4  A    between atoms: O_8  and  C_18
    5  A    between atoms: C_18  and  C_30
    6  A    between atoms: C_23  and  C_25
                            x       y       z     vdW  Elec       q    Type
                         _______ _______ _______ _____ _____    ______ ____

>  <TORSDO>
F 6

$$$$
=
 OpenBabel10262423183D

 34 38  0  0  1  0  0  0  0  0999 V2000
  185.7800  177.9490  142.7880 C   0  0  2  0  0  3  0  0  0  0  0  0
  187.1400  178.1790  146.4330 C   0  0  0  0  0  2  0  0  0  0  0  0
  184.5760  178.6140  145.7220 S   0  0  0  0  0  0  0  0  0  0  0  0
  183.5180  178.0950  141.9320 C   0  0  0  0  0  3  0  0  0  0  0  0
  181.6210  179.1960  142.9920 C   0  0  0  0  0  3  0  0  0  0  0  0
  182.1460  178.6250  141.9110 C   0  0  0  0  0  3  0  0  0  0  0  0
  183.8920  179.1840  144.1280 C   0  0  1  0  0  3  0  0  0  0  0  0
  184.3310  178.2970  142.9740 C   0  0  0  0  0  0  0  0  0  0  0  0
  182.3640  179.2120  144.2950 C   0  0  0  0  0  2  0  0  0  0  0  0
  188.5940  177.9130  146.0710 C   0  0  2  0  0  3  0  0  0  0  0  0
  188.6670  176.7590  145.0810 C   0  0  0  0  0  2  0  0  0  0  0  0
  186.3170  178.5470  145.1990 C   0  0  2  0  0  3  0  0  0  0  0  0
  187.9320  177.1390  143.8050 C   0  0  0  0  0  2  0  0  0  0  0  0
  186.4660  177.4960  144.0860 C   0  0  2  0  0  3  0  0  0  0  0  0
  189.0670  178.1960  148.5120 O   0  0  0  0  0  1  0  0  0  0  0  0
  190.3320  176.7770  147.2340 O   0  0  0  0  0  0  0  0  0  0  0  0
  189.3770  177.5920  147.2990 C   0  0  0  0  0  0  0  0  0  0  0  0
  186.5260  179.0650  142.0420 C   0  0  0  0  0  2  0  0  0  0  0  0
  186.8380  178.6780  140.7370 O   0  0  0  0  0  0  0  0  0  0  0  0
  188.1990  178.9520  140.5970 C   0  0  0  0  0  2  0  0  0  0  0  0
  191.1670  176.6250  139.8860 C   0  0  0  0  0  2  0  0  0  0  0  0
  188.6630  177.5010  138.6240 C   0  0  0  0  0  2  0  0  0  0  0  0
  191.0640  174.4310  136.7120 C   0  0  2  0  0  0  0  0  0  0  0  0
  190.2080  173.3980  137.1080 O   0  0  0  0  0  1  0  0  0  0  0  0
  191.6450  175.1030  137.9690 C   0  0  0  0  0  2  0  0  0  0  0  0
  190.9090  176.3760  138.4020 C   0  0  1  0  0  3  0  0  0  0  0  0
  189.1270  176.0940  136.6200 C   0  0  0  0  0  2  0  0  0  0  0  0
  189.4030  176.2670  138.1180 C   0  0  2  0  0  3  0  0  0  0  0  0
  190.2780  175.4290  135.8530 C   0  0  0  0  0  2  0  0  0  0  0  0
  188.9280  177.7110  140.1130 C   0  0  1  0  0  3  0  0  0  0  0  0
  190.4250  177.8740  140.3520 C   0  0  0  0  0  2  0  0  0  0  0  0
  192.1960  173.8730  135.9010 C   0  0  0  0  0  0  0  0  0  0  0  0
  193.1470  173.0580  136.5050 O   0  0  0  0  0  1  0  0  0  0  0  0
  192.2860  174.1170  134.6680 O   0  0  0  0  0  0  0  0  0  0  0  0
  1 18  1  1  0  0  0
  1  8  1  0  0  0  0
  1 14  1  0  0  0  0
  4  8  2  0  0  0  0
  5  9  1  0  0  0  0
  6  4  1  0  0  0  0
  6  5  2  0  0  0  0
  7  9  1  1  0  0  0
  7  3  1  0  0  0  0
  8  7  1  0  0  0  0
 10  2  1  0  0  0  0
 10 17  1  1  0  0  0
 11 10  1  0  0  0  0
 12  3  1  0  0  0  0
 12  2  1  1  0  0  0
 13 11  1  0  0  0  0
 14 13  1  6  0  0  0
 14 12  1  0  0  0  0
 16 17  2  0  0  0  0
 17 15  1  0  0  0  0
 19 18  1  0  0  0  0
 20 19  1  0  0  0  0
 21 31  1  0  0  0  0
 22 30  1  0  0  0  0
 23 24  1  1  0  0  0
 23 25  1  0  0  0  0
 26 25  1  1  0  0  0
 26 21  1  0  0  0  0
 28 27  1  6  0  0  0
 28 26  1  0  0  0  0
 28 22  1  0  0  0  0
 29 27  1  0  0  0  0
 29 23  1  0  0  0  0
 30 31  1  0  0  0  0
 30 20  1  6  0  0  0
 32 33  1  0  0  0  0
 32 23  1  0  0  0  0
 34 32  2  0  0  0  0
M  END
>  <MODEL>
4

>  <REMARK>
 VINA RESULT:      -8.9      4.174      7.898
  Name = 
  6 active torsions:
  status: ('A' for Active; 'I' for Inactive)
    1  A    between atoms: C_1  and  C_9
    2  A    between atoms: C_7  and  C_11
    3  A    between atoms: O_8  and  C_9
    4  A    between atoms: O_8  and  C_18
    5  A    between atoms: C_18  and  C_30
    6  A    between atoms: C_23  and  C_25
                            x       y       z     vdW  Elec       q    Type
                         _______ _______ _______ _____ _____    ______ ____

>  <TORSDO>
F 6

$$$$
=
 OpenBabel10262423183D

 34 38  0  0  1  0  0  0  0  0999 V2000
  190.5290  177.0040  138.4760 C   0  0  2  0  0  3  0  0  0  0  0  0
  192.0670  174.2000  136.2500 C   0  0  0  0  0  2  0  0  0  0  0  0
  189.5220  175.0730  136.0780 S   0  0  0  0  0  0  0  0  0  0  0  0
  188.3650  178.0890  138.3830 C   0  0  0  0  0  3  0  0  0  0  0  0
  186.3200  177.1920  137.4110 C   0  0  0  0  0  3  0  0  0  0  0  0
  186.9110  178.1190  138.1610 C   0  0  0  0  0  3  0  0  0  0  0  0
  188.4650  175.8340  137.3570 C   0  0  1  0  0  3  0  0  0  0  0  0
  189.1160  177.0630  137.9720 C   0  0  0  0  0  0  0  0  0  0  0  0
  187.1250  176.1620  136.6770 C   0  0  0  0  0  2  0  0  0  0  0  0
  193.4250  174.1880  136.9350 C   0  0  2  0  0  3  0  0  0  0  0  0
  193.8970  175.6190  137.1520 C   0  0  0  0  0  2  0  0  0  0  0  0
  191.0230  174.9300  137.0950 C   0  0  2  0  0  3  0  0  0  0  0  0
  192.9200  176.3400  138.0680 C   0  0  0  0  0  2  0  0  0  0  0  0
  191.4990  176.3390  137.4880 C   0  0  2  0  0  3  0  0  0  0  0  0
  194.4160  172.0490  136.0950 O   0  0  0  0  0  1  0  0  0  0  0  0
  195.2520  174.0710  135.4130 O   0  0  0  0  0  0  0  0  0  0  0  0
  194.4110  173.4390  136.1040 C   0  0  0  0  0  0  0  0  0  0  0  0
  190.5870  176.4240  139.8970 C   0  0  0  0  0  2  0  0  0  0  0  0
  190.8540  177.4210  140.8380 O   0  0  0  0  0  0  0  0  0  0  0  0
  190.6510  176.8100  142.0760 C   0  0  0  0  0  2  0  0  0  0  0  0
  188.1970  177.5450  144.9330 C   0  0  0  0  0  2  0  0  0  0  0  0
  188.2800  177.5750  141.9970 C   0  0  0  0  0  2  0  0  0  0  0  0
  184.7330  179.0010  144.0520 C   0  0  2  0  0  0  0  0  0  0  0  0
  185.0390  180.3470  143.8230 O   0  0  0  0  0  1  0  0  0  0  0  0
  185.8460  178.3790  144.9130 C   0  0  0  0  0  2  0  0  0  0  0  0
  186.9110  177.6180  144.1140 C   0  0  1  0  0  3  0  0  0  0  0  0
  185.8970  178.2960  141.8910 C   0  0  0  0  0  2  0  0  0  0  0  0
  187.1630  178.2860  142.7540 C   0  0  2  0  0  3  0  0  0  0  0  0
  184.5950  178.2830  142.7040 C   0  0  0  0  0  2  0  0  0  0  0  0
  189.5560  177.5360  142.8370 C   0  0  1  0  0  3  0  0  0  0  0  0
  189.2840  176.8150  144.1520 C   0  0  0  0  0  2  0  0  0  0  0  0
  183.4350  178.8940  144.7970 C   0  0  0  0  0  0  0  0  0  0  0  0
  182.2510  178.6730  144.1020 O   0  0  0  0  0  0  0  0  0  0  0  0
  183.4060  178.9800  146.0550 O   0  0  0  0  0  1  0  0  0  0  0  0
  1 18  1  1  0  0  0
  2 10  1  0  0  0  0
  3 12  1  0  0  0  0
  3  7  1  0  0  0  0
  5  6  2  0  0  0  0
  6  4  1  0  0  0  0
  7  9  1  6  0  0  0
  7  8  1  0  0  0  0
  8  4  2  0  0  0  0
  8  1  1  0  0  0  0
  9  5  1  0  0  0  0
 10 17  1  6  0  0  0
 10 11  1  0  0  0  0
 11 13  1  0  0  0  0
 12  2  1  6  0  0  0
 12 14  1  0  0  0  0
 14 13  1  1  0  0  0
 14  1  1  0  0  0  0
 15 17  1  0  0  0  0
 16 17  2  0  0  0  0
 18 19  1  0  0  0  0
 19 20  1  0  0  0  0
 22 28  1  0  0  0  0
 22 30  1  0  0  0  0
 23 24  1  6  0  0  0
 23 32  1  0  0  0  0
 23 25  1  0  0  0  0
 26 25  1  1  0  0  0
 26 21  1  0  0  0  0
 27 29  1  0  0  0  0
 28 27  1  6  0  0  0
 28 26  1  0  0  0  0
 29 23  1  0  0  0  0
 30 20  1  6  0  0  0
 30 31  1  0  0  0  0
 31 21  1  0  0  0  0
 32 34  1  0  0  0  0
 33 32  2  0  0  0  0
M  END
>  <MODEL>
5

>  <REMARK>
 VINA RESULT:      -8.9      4.500      6.974
  Name = 
  6 active torsions:
  status: ('A' for Active; 'I' for Inactive)
    1  A    between atoms: C_1  and  C_9
    2  A    between atoms: C_7  and  C_11
    3  A    between atoms: O_8  and  C_9
    4  A    between atoms: O_8  and  C_18
    5  A    between atoms: C_18  and  C_30
    6  A    between atoms: C_23  and  C_25
                            x       y       z     vdW  Elec       q    Type
                         _______ _______ _______ _____ _____    ______ ____

>  <TORSDO>
F 6

$$$$
=
 OpenBabel10262423183D

 34 38  0  0  1  0  0  0  0  0999 V2000
  188.7000  177.6980  143.5270 C   0  0  2  0  0  3  0  0  0  0  0  0
  185.0580  178.2020  144.8210 C   0  0  0  0  0  2  0  0  0  0  0  0
  187.2080  177.8130  146.4000 S   0  0  0  0  0  0  0  0  0  0  0  0
  190.7970  177.5330  144.7290 C   0  0  0  0  0  3  0  0  0  0  0  0
  191.1040  176.8510  147.0470 C   0  0  0  0  0  3  0  0  0  0  0  0
  191.6410  177.1190  145.8590 C   0  0  0  0  0  3  0  0  0  0  0  0
  188.7750  176.9490  146.0400 C   0  0  1  0  0  3  0  0  0  0  0  0
  189.4620  177.5130  144.8070 C   0  0  0  0  0  0  0  0  0  0  0  0
  189.6430  177.0760  147.3030 C   0  0  0  0  0  2  0  0  0  0  0  0
  184.4140  178.2680  143.4440 C   0  0  2  0  0  3  0  0  0  0  0  0
  185.2500  179.1560  142.5340 C   0  0  0  0  0  2  0  0  0  0  0  0
  186.4720  177.6270  144.7480 C   0  0  2  0  0  3  0  0  0  0  0  0
  186.6360  178.5530  142.3710 C   0  0  0  0  0  2  0  0  0  0  0  0
  187.3380  178.3820  143.7250 C   0  0  2  0  0  3  0  0  0  0  0  0
  182.2530  178.9960  142.4140 O   0  0  0  0  0  0  0  0  0  0  0  0
  182.5530  179.0830  144.6840 O   0  0  0  0  0  1  0  0  0  0  0  0
  183.0250  178.8000  143.5530 C   0  0  0  0  0  0  0  0  0  0  0  0
  188.6320  176.3880  142.7280 C   0  0  0  0  0  2  0  0  0  0  0  0
  189.6050  176.3570  141.7270 O   0  0  0  0  0  0  0  0  0  0  0  0
  189.4550  177.5640  141.0440 C   0  0  0  0  0  2  0  0  0  0  0  0
  190.1160  176.7220  137.3590 C   0  0  0  0  0  2  0  0  0  0  0  0
  191.5440  176.7940  139.9240 C   0  0  0  0  0  2  0  0  0  0  0  0
  193.7240  175.8700  136.2850 C   0  0  2  0  0  0  0  0  0  0  0  0
  194.3070  177.1400  136.2120 O   0  0  0  0  0  1  0  0  0  0  0  0
  192.1960  176.0190  136.1760 C   0  0  0  0  0  2  0  0  0  0  0  0
  191.4640  176.0270  137.5230 C   0  0  1  0  0  3  0  0  0  0  0  0
  193.6340  175.9810  138.8350 C   0  0  0  0  0  2  0  0  0  0  0  0
  192.3090  176.7150  138.6060 C   0  0  2  0  0  3  0  0  0  0  0  0
  194.1320  175.2070  137.6070 C   0  0  0  0  0  2  0  0  0  0  0  0
  190.2100  177.5100  139.7270 C   0  0  1  0  0  3  0  0  0  0  0  0
  189.3750  176.7670  138.6910 C   0  0  0  0  0  2  0  0  0  0  0  0
  194.2050  175.0220  135.1450 C   0  0  0  0  0  0  0  0  0  0  0  0
  195.5170  175.1370  134.6990 O   0  0  0  0  0  1  0  0  0  0  0  0
  193.4370  174.1870  134.5950 O   0  0  0  0  0  0  0  0  0  0  0  0
  1 18  1  1  0  0  0
  1 14  1  0  0  0  0
  1  8  1  0  0  0  0
  4  8  2  0  0  0  0
  4  6  1  0  0  0  0
  5  9  1  0  0  0  0
  6  5  2  0  0  0  0
  7  3  1  0  0  0  0
  7  9  1  1  0  0  0
  8  7  1  0  0  0  0
 10 17  1  1  0  0  0
 10  2  1  0  0  0  0
 11 10  1  0  0  0  0
 12  2  1  1  0  0  0
 12  3  1  0  0  0  0
 13 11  1  0  0  0  0
 14 13  1  6  0  0  0
 14 12  1  0  0  0  0
 15 17  2  0  0  0  0
 17 16  1  0  0  0  0
 19 18  1  0  0  0  0
 20 19  1  0  0  0  0
 21 26  1  0  0  0  0
 21 31  1  0  0  0  0
 23 24  1  6  0  0  0
 23 29  1  0  0  0  0
 25 23  1  0  0  0  0
 26 25  1  6  0  0  0
 26 28  1  0  0  0  0
 28 27  1  1  0  0  0
 28 22  1  0  0  0  0
 29 27  1  0  0  0  0
 30 22  1  0  0  0  0
 30 20  1  1  0  0  0
 31 30  1  0  0  0  0
 32 23  1  0  0  0  0
 33 32  1  0  0  0  0
 34 32  2  0  0  0  0
M  END
>  <MODEL>
6

>  <REMARK>
 VINA RESULT:      -8.7      4.663      9.406
  Name = 
  6 active torsions:
  status: ('A' for Active; 'I' for Inactive)
    1  A    between atoms: C_1  and  C_9
    2  A    between atoms: C_7  and  C_11
    3  A    between atoms: O_8  and  C_9
    4  A    between atoms: O_8  and  C_18
    5  A    between atoms: C_18  and  C_30
    6  A    between atoms: C_23  and  C_25
                            x       y       z     vdW  Elec       q    Type
                         _______ _______ _______ _____ _____    ______ ____

>  <TORSDO>
F 6

$$$$
=
 OpenBabel10262423183D

 34 38  0  0  1  0  0  0  0  0999 V2000
  188.1770  177.4900  142.2780 C   0  0  2  0  0  3  0  0  0  0  0  0
  192.0170  177.2780  141.6530 C   0  0  0  0  0  2  0  0  0  0  0  0
  190.8530  177.2200  144.0840 S   0  0  0  0  0  0  0  0  0  0  0  0
  186.8910  177.2610  144.3190 C   0  0  0  0  0  3  0  0  0  0  0  0
  187.6810  177.6270  146.5940 C   0  0  0  0  0  3  0  0  0  0  0  0
  186.6610  177.4370  145.7610 C   0  0  0  0  0  3  0  0  0  0  0  0
  189.2600  177.9270  144.6270 C   0  0  1  0  0  3  0  0  0  0  0  0
  188.1010  177.4310  143.7760 C   0  0  0  0  0  0  0  0  0  0  0  0
  189.0990  177.5500  146.1090 C   0  0  0  0  0  2  0  0  0  0  0  0
  191.9370  177.4510  140.1440 C   0  0  2  0  0  3  0  0  0  0  0  0
  190.8170  176.5810  139.5920 C   0  0  0  0  0  2  0  0  0  0  0  0
  190.7100  177.6850  142.3310 C   0  0  2  0  0  3  0  0  0  0  0  0
  189.4890  177.0280  140.1830 C   0  0  0  0  0  2  0  0  0  0  0  0
  189.5030  176.9550  141.7160 C   0  0  2  0  0  3  0  0  0  0  0  0
  193.2970  176.7210  138.1740 O   0  0  0  0  0  0  0  0  0  0  0  0
  194.2880  177.0830  140.2080 O   0  0  0  0  0  1  0  0  0  0  0  0
  193.2380  177.0800  139.5160 C   0  0  0  0  0  0  0  0  0  0  0  0
  187.7920  178.8830  141.7570 C   0  0  0  0  0  2  0  0  0  0  0  0
  186.8500  178.7940  140.7300 O   0  0  0  0  0  0  0  0  0  0  0  0
  185.6530  179.2250  141.3030 C   0  0  0  0  0  2  0  0  0  0  0  0
  182.4440  177.4370  140.1930 C   0  0  0  0  0  2  0  0  0  0  0  0
  185.0100  178.3220  139.0710 C   0  0  0  0  0  2  0  0  0  0  0  0
  182.0180  176.5760  136.4550 C   0  0  2  0  0  0  0  0  0  0  0  0
  181.6440  177.8130  135.9190 O   0  0  0  0  0  1  0  0  0  0  0  0
  181.7210  176.5810  137.9650 C   0  0  0  0  0  2  0  0  0  0  0  0
  182.9320  176.9120  138.8460 C   0  0  1  0  0  3  0  0  0  0  0  0
  184.4090  177.3870  136.8400 C   0  0  0  0  0  2  0  0  0  0  0  0
  183.8510  177.9340  138.1590 C   0  0  2  0  0  3  0  0  0  0  0  0
  183.5070  176.3390  136.1750 C   0  0  0  0  0  2  0  0  0  0  0  0
  184.4870  178.8590  140.4020 C   0  0  1  0  0  3  0  0  0  0  0  0
  183.6290  177.8000  141.0830 C   0  0  0  0  0  2  0  0  0  0  0  0
  181.2190  175.4800  135.8140 C   0  0  0  0  0  0  0  0  0  0  0  0
  179.9980  175.7700  135.2150 O   0  0  0  0  0  0  0  0  0  0  0  0
  181.6520  174.2960  135.7910 O   0  0  0  0  0  1  0  0  0  0  0  0
  1 18  1  1  0  0  0
  1  8  1  0  0  0  0
  3  7  1  0  0  0  0
  4  6  1  0  0  0  0
  6  5  2  0  0  0  0
  7  9  1  1  0  0  0
  8  4  2  0  0  0  0
  8  7  1  0  0  0  0
  9  5  1  0  0  0  0
 10 17  1  6  0  0  0
 10  2  1  0  0  0  0
 11 10  1  0  0  0  0
 11 13  1  0  0  0  0
 12  2  1  6  0  0  0
 12  3  1  0  0  0  0
 14 13  1  6  0  0  0
 14  1  1  0  0  0  0
 14 12  1  0  0  0  0
 15 17  2  0  0  0  0
 17 16  1  0  0  0  0
 19 20  1  0  0  0  0
 19 18  1  0  0  0  0
 21 31  1  0  0  0  0
 22 30  1  0  0  0  0
 23 24  1  6  0  0  0
 23 25  1  0  0  0  0
 26 25  1  6  0  0  0
 26 21  1  0  0  0  0
 28 27  1  6  0  0  0
 28 26  1  0  0  0  0
 28 22  1  0  0  0  0
 29 23  1  0  0  0  0
 29 27  1  0  0  0  0
 30 31  1  0  0  0  0
 30 20  1  1  0  0  0
 32 23  1  0  0  0  0
 33 32  2  0  0  0  0
 34 32  1  0  0  0  0
M  END
>  <MODEL>
7

>  <REMARK>
 VINA RESULT:      -8.6      3.387      5.193
  Name = 
  6 active torsions:
  status: ('A' for Active; 'I' for Inactive)
    1  A    between atoms: C_1  and  C_9
    2  A    between atoms: C_7  and  C_11
    3  A    between atoms: O_8  and  C_9
    4  A    between atoms: O_8  and  C_18
    5  A    between atoms: C_18  and  C_30
    6  A    between atoms: C_23  and  C_25
                            x       y       z     vdW  Elec       q    Type
                         _______ _______ _______ _____ _____    ______ ____

>  <TORSDO>
F 6

$$$$
=
 OpenBabel10262423183D

 34 38  0  0  1  0  0  0  0  0999 V2000
  187.4240  177.5970  143.0680 C   0  0  2  0  0  3  0  0  0  0  0  0
  189.5210  177.1800  146.3250 C   0  0  0  0  0  2  0  0  0  0  0  0
  186.9180  177.8770  146.2550 S   0  0  0  0  0  0  0  0  0  0  0  0
  185.0580  178.0130  142.7520 C   0  0  0  0  0  3  0  0  0  0  0  0
  183.5310  179.0540  144.3400 C   0  0  0  0  0  3  0  0  0  0  0  0
  183.7670  178.6240  143.1020 C   0  0  0  0  0  3  0  0  0  0  0  0
  185.9770  178.7270  144.9420 C   0  0  1  0  0  3  0  0  0  0  0  0
  186.0840  178.0010  143.6100 C   0  0  0  0  0  0  0  0  0  0  0  0
  184.5250  178.8230  145.4400 C   0  0  0  0  0  2  0  0  0  0  0  0
  190.8380  176.8830  145.6230 C   0  0  2  0  0  3  0  0  0  0  0  0
  190.5980  175.8920  144.4930 C   0  0  0  0  0  2  0  0  0  0  0  0
  188.5000  177.7830  145.3620 C   0  0  2  0  0  3  0  0  0  0  0  0
  189.6540  176.5080  143.4710 C   0  0  0  0  0  2  0  0  0  0  0  0
  188.3170  176.9080  144.1100 C   0  0  2  0  0  3  0  0  0  0  0  0
  192.5090  175.1530  146.3140 O   0  0  0  0  0  0  0  0  0  0  0  0
  192.0290  176.9270  147.6830 O   0  0  0  0  0  1  0  0  0  0  0  0
  191.8240  176.3300  146.5950 C   0  0  0  0  0  0  0  0  0  0  0  0
  188.1010  178.7660  142.3370 C   0  0  0  0  0  2  0  0  0  0  0  0
  187.3910  179.1210  141.1880 O   0  0  0  0  0  0  0  0  0  0  0  0
  188.0880  178.5250  140.1360 C   0  0  0  0  0  2  0  0  0  0  0  0
  186.6810  177.0070  136.9050 C   0  0  0  0  0  2  0  0  0  0  0  0
  185.7390  178.4020  139.3120 C   0  0  0  0  0  2  0  0  0  0  0  0
  182.8520  176.9150  136.4320 C   0  0  2  0  0  0  0  0  0  0  0  0
  182.4920  175.8240  137.2300 O   0  0  0  0  0  1  0  0  0  0  0  0
  184.3420  176.7930  136.0670 C   0  0  0  0  0  2  0  0  0  0  0  0
  185.2810  177.6100  136.9630 C   0  0  1  0  0  3  0  0  0  0  0  0
  183.3880  178.3320  138.4880 C   0  0  0  0  0  2  0  0  0  0  0  0
  184.7620  177.6580  138.4080 C   0  0  2  0  0  3  0  0  0  0  0  0
  182.5650  178.2120  137.1980 C   0  0  0  0  0  2  0  0  0  0  0  0
  187.1250  177.7630  139.2440 C   0  0  1  0  0  3  0  0  0  0  0  0
  187.6330  177.7850  137.8080 C   0  0  0  0  0  2  0  0  0  0  0  0
  182.0470  176.9080  135.1660 C   0  0  0  0  0  0  0  0  0  0  0  0
  181.6410  178.1090  134.5940 O   0  0  0  0  0  0  0  0  0  0  0  0
  181.7500  175.8220  134.5980 O   0  0  0  0  0  1  0  0  0  0  0  0
  1 18  1  1  0  0  0
  1  8  1  0  0  0  0
  1 14  1  0  0  0  0
  4  6  1  0  0  0  0
  4  8  2  0  0  0  0
  5  9  1  0  0  0  0
  6  5  2  0  0  0  0
  7  9  1  1  0  0  0
  7  3  1  0  0  0  0
  8  7  1  0  0  0  0
 10  2  1  0  0  0  0
 10 17  1  1  0  0  0
 11 10  1  0  0  0  0
 12  3  1  0  0  0  0
 12  2  1  1  0  0  0
 13 11  1  0  0  0  0
 14 13  1  6  0  0  0
 14 12  1  0  0  0  0
 15 17  2  0  0  0  0
 17 16  1  0  0  0  0
 19 18  1  0  0  0  0
 20 19  1  0  0  0  0
 21 26  1  0  0  0  0
 21 31  1  0  0  0  0
 23 29  1  0  0  0  0
 23 24  1  1  0  0  0
 25 23  1  0  0  0  0
 26 25  1  6  0  0  0
 26 28  1  0  0  0  0
 28 27  1  6  0  0  0
 28 22  1  0  0  0  0
 29 27  1  0  0  0  0
 30 22  1  0  0  0  0
 30 20  1  1  0  0  0
 31 30  1  0  0  0  0
 32 23  1  0  0  0  0
 33 32  2  0  0  0  0
 34 32  1  0  0  0  0
M  END
>  <MODEL>
8

>  <REMARK>
 VINA RESULT:      -8.6      2.935      4.885
  Name = 
  6 active torsions:
  status: ('A' for Active; 'I' for Inactive)
    1  A    between atoms: C_1  and  C_9
    2  A    between atoms: C_7  and  C_11
    3  A    between atoms: O_8  and  C_9
    4  A    between atoms: O_8  and  C_18
    5  A    between atoms: C_18  and  C_30
    6  A    between atoms: C_23  and  C_25
                            x       y       z     vdW  Elec       q    Type
                         _______ _______ _______ _____ _____    ______ ____

>  <TORSDO>
F 6

$$$$
=
 OpenBabel10262423183D

 34 38  0  0  1  0  0  0  0  0999 V2000
  183.6990  178.2470  141.2330 C   0  0  2  0  0  3  0  0  0  0  0  0
  183.9290  178.8960  145.0680 C   0  0  0  0  0  2  0  0  0  0  0  0
  181.6260  178.6620  143.6880 S   0  0  0  0  0  0  0  0  0  0  0  0
  181.7840  177.8040  139.8160 C   0  0  0  0  0  3  0  0  0  0  0  0
  179.4680  178.4230  140.2510 C   0  0  0  0  0  3  0  0  0  0  0  0
  180.3850  177.9750  139.3960 C   0  0  0  0  0  3  0  0  0  0  0  0
  181.2850  179.0050  141.9270 C   0  0  1  0  0  3  0  0  0  0  0  0
  182.2150  178.2270  141.0090 C   0  0  0  0  0  0  0  0  0  0  0  0
  179.8060  178.6550  141.6940 C   0  0  0  0  0  2  0  0  0  0  0  0
  185.4470  178.9910  145.1170 C   0  0  2  0  0  3  0  0  0  0  0  0
  186.0530  177.8690  144.2870 C   0  0  0  0  0  2  0  0  0  0  0  0
  183.4080  179.0170  143.6370 C   0  0  2  0  0  3  0  0  0  0  0  0
  185.6230  178.0220  142.8360 C   0  0  0  0  0  2  0  0  0  0  0  0
  184.0940  178.0100  142.6980 C   0  0  2  0  0  3  0  0  0  0  0  0
  185.7240  179.9660  147.4040 O   0  0  0  0  0  1  0  0  0  0  0  0
  186.5130  177.8690  146.9250 O   0  0  0  0  0  0  0  0  0  0  0  0
  185.9210  178.9050  146.5280 C   0  0  0  0  0  0  0  0  0  0  0  0
  184.3370  179.4950  140.6060 C   0  0  0  0  0  2  0  0  0  0  0  0
  185.7160  179.3320  140.4510 O   0  0  0  0  0  0  0  0  0  0  0  0
  185.8610  178.6190  139.2600 C   0  0  0  0  0  2  0  0  0  0  0  0
  189.3880  177.5320  140.3120 C   0  0  0  0  0  2  0  0  0  0  0  0
  187.6740  177.5460  137.9270 C   0  0  0  0  0  2  0  0  0  0  0  0
  191.5680  175.6380  137.7520 C   0  0  2  0  0  0  0  0  0  0  0  0
  191.0320  174.3480  137.8210 O   0  0  0  0  0  1  0  0  0  0  0  0
  191.2090  176.3930  139.0430 C   0  0  0  0  0  2  0  0  0  0  0  0
  189.9760  177.2980  138.9240 C   0  0  1  0  0  3  0  0  0  0  0  0
  189.4860  176.5160  136.5620 C   0  0  0  0  0  2  0  0  0  0  0  0
  188.9310  176.6850  137.9800 C   0  0  2  0  0  3  0  0  0  0  0  0
  191.0110  176.3460  136.5120 C   0  0  0  0  0  2  0  0  0  0  0  0
  187.1010  177.7460  139.3290 C   0  0  1  0  0  3  0  0  0  0  0  0
  188.1440  178.4100  140.2210 C   0  0  0  0  0  2  0  0  0  0  0  0
  193.0630  175.5640  137.6420 C   0  0  0  0  0  0  0  0  0  0  0  0
  193.7980  176.7140  137.3760 O   0  0  0  0  0  0  0  0  0  0  0  0
  193.6670  174.4700  137.8090 O   0  0  0  0  0  1  0  0  0  0  0  0
  1 18  1  1  0  0  0
  1 14  1  0  0  0  0
  2 10  1  0  0  0  0
  4  8  2  0  0  0  0
  5  9  1  0  0  0  0
  6  4  1  0  0  0  0
  6  5  2  0  0  0  0
  7  9  1  6  0  0  0
  7  3  1  0  0  0  0
  8  1  1  0  0  0  0
  8  7  1  0  0  0  0
 10 17  1  1  0  0  0
 11 10  1  0  0  0  0
 12  3  1  0  0  0  0
 12  2  1  1  0  0  0
 13 11  1  0  0  0  0
 14 13  1  6  0  0  0
 14 12  1  0  0  0  0
 17 16  2  0  0  0  0
 17 15  1  0  0  0  0
 19 18  1  0  0  0  0
 20 19  1  0  0  0  0
 22 28  1  0  0  0  0
 22 30  1  0  0  0  0
 23 24  1  1  0  0  0
 23 25  1  0  0  0  0
 26 25  1  1  0  0  0
 26 21  1  0  0  0  0
 28 27  1  6  0  0  0
 28 26  1  0  0  0  0
 29 27  1  0  0  0  0
 29 23  1  0  0  0  0
 30 20  1  6  0  0  0
 30 31  1  0  0  0  0
 31 21  1  0  0  0  0
 32 23  1  0  0  0  0
 32 34  1  0  0  0  0
 33 32  2  0  0  0  0
M  END
>  <MODEL>
9

>  <REMARK>
 VINA RESULT:      -8.4      3.934      8.648
  Name = 
  6 active torsions:
  status: ('A' for Active; 'I' for Inactive)
    1  A    between atoms: C_1  and  C_9
    2  A    between atoms: C_7  and  C_11
    3  A    between atoms: O_8  and  C_9
    4  A    between atoms: O_8  and  C_18
    5  A    between atoms: C_18  and  C_30
    6  A    between atoms: C_23  and  C_25
                            x       y       z     vdW  Elec       q    Type
                         _______ _______ _______ _____ _____    ______ ____

>  <TORSDO>
F 6

$$$$
