=
 OpenBabel10262422093D

 43 48  0  0  1  0  0  0  0  0999 V2000
  191.2030  176.3900  146.6430 C   0  0  0  0  0  0  0  0  0  0  0  0
  186.9120  177.4780  144.0090 C   0  0  1  0  0  3  0  0  0  0  0  0
  187.9060  178.6580  141.6110 C   0  0  2  0  0  3  0  0  0  0  0  0
  189.0090  177.1870  145.9740 C   0  0  0  0  0  0  0  0  0  0  0  0
  191.5110  176.1070  145.3090 C   0  0  0  0  0  3  0  0  0  0  0  0
  192.2020  176.1200  147.7110 C   0  0  0  0  0  1  0  0  0  0  0  0
  189.3130  176.8830  144.6280 C   0  0  0  0  0  0  0  0  0  0  0  0
  189.9520  176.9220  146.9740 C   0  0  0  0  0  3  0  0  0  0  0  0
  190.5680  176.3520  144.3080 C   0  0  0  0  0  3  0  0  0  0  0  0
  188.8500  178.2770  142.6850 N   0  0  0  0  0  2  0  0  0  0  0  0
  188.3420  177.1780  143.5140 C   0  0  2  0  0  3  0  0  0  0  0  0
  186.9440  178.3920  145.2280 C   0  0  0  0  0  2  0  0  0  0  0  0
  186.1150  178.1570  142.8930 C   0  0  1  0  0  3  0  0  0  0  0  0
  186.7120  177.9040  141.6470 O   0  0  0  0  0  0  0  0  0  0  0  0
  187.6520  177.6870  146.3760 C   0  0  0  0  0  2  0  0  0  0  0  0
  188.5710  178.5080  140.2430 C   0  0  1  0  0  3  0  0  0  0  0  0
  189.6270  177.4160  140.2940 C   0  0  0  0  0  1  0  0  0  0  0  0
  187.5380  178.1570  139.1810 C   0  0  0  0  0  2  0  0  0  0  0  0
  188.1350  178.2560  137.8130 C   0  0  0  0  0  0  0  0  0  0  0  0
  188.7730  179.2940  137.4980 O   0  0  0  0  0  0  0  0  0  0  0  0
  188.0000  177.2280  136.8770 O   0  0  0  0  0  0  0  0  0  0  0  0
  187.5810  175.9120  137.2330 C   0  0  1  0  0  3  0  0  0  0  0  0
  187.3430  173.7020  136.3210 C   0  0  0  0  0  2  0  0  0  0  0  0
  186.1090  175.7230  136.9220 C   0  0  0  0  0  2  0  0  0  0  0  0
  188.3440  174.8310  136.4550 C   0  0  1  0  0  0  0  0  0  0  0  0
  188.7290  175.2710  135.0360 C   0  0  0  0  0  1  0  0  0  0  0  0
  185.9540  174.3150  136.3800 C   0  0  0  0  0  2  0  0  0  0  0  0
  189.4630  174.3430  137.1750 O   0  0  0  0  0  0  0  0  0  0  0  0
  190.6490  174.8510  136.6160 C   0  0  2  0  0  3  0  0  0  0  0  0
  193.2090  176.6080  138.6780 C   0  0  0  0  0  1  0  0  0  0  0  0
  192.7950  174.4930  137.5540 N   0  0  0  0  0  0  0  0  0  0  0  0
  192.3850  175.6680  137.8730 C   0  0  0  0  0  0  0  0  0  0  0  0
  191.7730  173.8220  136.7650 C   0  0  0  0  0  2  0  0  0  0  0  0
  191.1000  175.9990  137.3840 N   0  0  0  0  0  2  0  0  0  0  0  0
  184.8030  177.6800  142.8890 O   0  0  0  0  0  0  0  0  0  0  0  0
  181.5850  179.4370  143.2080 C   0  0  0  0  0  2  0  0  0  0  0  0
  181.1060  178.8560  141.8670 C   0  0  1  0  0  0  0  0  0  0  0  0
  180.1150  177.7410  142.1370 C   0  0  0  0  0  1  0  0  0  0  0  0
  183.5740  179.0010  141.3030 C   0  0  0  0  0  2  0  0  0  0  0  0
  182.8160  178.7060  143.7370 C   0  0  0  0  0  2  0  0  0  0  0  0
  184.0000  178.8170  142.7660 C   0  0  1  0  0  3  0  0  0  0  0  0
  180.4610  179.8610  141.1500 O   0  0  0  0  0  1  0  0  0  0  0  0
  182.2540  178.2920  141.0160 C   0  0  0  0  0  2  0  0  0  0  0  0
  1  8  1  0  0  0  0
  1  6  1  0  0  0  0
  2 12  1  1  0  0  0
  3 16  1  6  0  0  0
  3 14  1  0  0  0  0
  3 10  1  0  0  0  0
  4 15  1  0  0  0  0
  4  8  2  0  0  0  0
  5  1  2  0  0  0  0
  7  4  1  0  0  0  0
  9  7  2  0  0  0  0
  9  5  1  0  0  0  0
 11 10  1  1  0  0  0
 11  2  1  0  0  0  0
 11  7  1  0  0  0  0
 12 15  1  0  0  0  0
 13 35  1  6  0  0  0
 13  2  1  0  0  0  0
 14 13  1  0  0  0  0
 16 17  1  1  0  0  0
 18 16  1  0  0  0  0
 19 18  1  0  0  0  0
 20 19  2  0  0  0  0
 21 19  1  0  0  0  0
 22 21  1  6  0  0  0
 23 27  1  0  0  0  0
 23 25  1  0  0  0  0
 24 22  1  0  0  0  0
 25 26  1  6  0  0  0
 25 28  1  0  0  0  0
 25 22  1  0  0  0  0
 27 24  1  0  0  0  0
 29 33  1  0  0  0  0
 29 28  1  1  0  0  0
 29 34  1  0  0  0  0
 31 32  2  0  0  0  0
 32 30  1  0  0  0  0
 33 31  1  0  0  0  0
 34 32  1  0  0  0  0
 36 40  1  0  0  0  0
 37 38  1  1  0  0  0
 37 36  1  0  0  0  0
 39 41  1  0  0  0  0
 41 35  1  6  0  0  0
 41 40  1  0  0  0  0
 42 37  1  0  0  0  0
 43 39  1  0  0  0  0
 43 37  1  0  0  0  0
M  END
>  <MODEL>
1

>  <REMARK>
 VINA RESULT:      -9.4      0.000      0.000
  Name = 
  9 active torsions:
  status: ('A' for Active; 'I' for Inactive)
    1  A    between atoms: O_1  and  C_34
    2  A    between atoms: O_1  and  C_35
    3  A    between atoms: C_2  and  C_6
    4  A    between atoms: C_2  and  C_13
    5  A    between atoms: O_3  and  C_4
    6  A    between atoms: O_3  and  C_12
    7  A    between atoms: C_6  and  C_12
    8  A    between atoms: C_11  and  O_14
    9  A    between atoms: O_14  and  C_22
                            x       y       z     vdW  Elec       q    Type
                         _______ _______ _______ _____ _____    ______ ____

>  <TORSDO>
F 9

$$$$
=
 OpenBabel10262422093D

 43 48  0  0  1  0  0  0  0  0999 V2000
  191.7990  176.2790  147.3030 C   0  0  0  0  0  0  0  0  0  0  0  0
  189.6650  177.5480  142.7900 C   0  0  1  0  0  3  0  0  0  0  0  0
  186.8700  177.3840  143.3260 C   0  0  2  0  0  3  0  0  0  0  0  0
  191.2100  176.4140  144.9510 C   0  0  0  0  0  0  0  0  0  0  0  0
  190.6820  177.0530  147.6310 C   0  0  0  0  0  3  0  0  0  0  0  0
  192.7080  175.7920  148.3750 C   0  0  0  0  0  1  0  0  0  0  0  0
  190.0920  177.2130  145.2810 C   0  0  0  0  0  0  0  0  0  0  0  0
  192.0650  175.9670  145.9650 C   0  0  0  0  0  3  0  0  0  0  0  0
  189.8350  177.5190  146.6230 C   0  0  0  0  0  3  0  0  0  0  0  0
  187.8400  177.0030  144.3760 N   0  0  0  0  0  2  0  0  0  0  0  0
  189.1270  177.6920  144.2280 C   0  0  2  0  0  3  0  0  0  0  0  0
  190.3570  176.2030  142.6060 C   0  0  0  0  0  2  0  0  0  0  0  0
  188.5080  177.6570  141.7950 C   0  0  1  0  0  3  0  0  0  0  0  0
  187.4110  178.2990  142.3950 O   0  0  0  0  0  0  0  0  0  0  0  0
  191.5700  176.1220  143.5230 C   0  0  0  0  0  2  0  0  0  0  0  0
  185.6100  177.9750  143.9570 C   0  0  1  0  0  3  0  0  0  0  0  0
  185.9300  178.5300  145.3360 C   0  0  0  0  0  1  0  0  0  0  0  0
  185.0470  179.0910  143.0870 C   0  0  0  0  0  2  0  0  0  0  0  0
  183.7100  178.7060  142.5380 C   0  0  0  0  0  0  0  0  0  0  0  0
  182.6710  179.0740  143.1440 O   0  0  0  0  0  0  0  0  0  0  0  0
  183.5860  177.9460  141.3720 O   0  0  0  0  0  0  0  0  0  0  0  0
  183.4390  178.5340  140.0810 C   0  0  1  0  0  3  0  0  0  0  0  0
  182.8530  177.9820  137.8170 C   0  0  0  0  0  2  0  0  0  0  0  0
  184.7380  178.4360  139.3040 C   0  0  0  0  0  2  0  0  0  0  0  0
  182.3640  177.8300  139.2430 C   0  0  1  0  0  0  0  0  0  0  0  0
  182.2640  176.3270  139.5340 C   0  0  0  0  0  1  0  0  0  0  0  0
  184.3650  178.1230  137.8680 C   0  0  0  0  0  2  0  0  0  0  0  0
  181.1020  178.4680  139.3440 O   0  0  0  0  0  0  0  0  0  0  0  0
  181.2660  179.7720  139.8460 C   0  0  2  0  0  3  0  0  0  0  0  0
  179.4020  182.6770  138.4410 C   0  0  0  0  0  1  0  0  0  0  0  0
  179.4560  181.2060  140.3750 N   0  0  0  0  0  0  0  0  0  0  0  0
  179.9350  181.5350  139.2290 C   0  0  0  0  0  0  0  0  0  0  0  0
  180.1880  180.0600  140.8940 C   0  0  0  0  0  2  0  0  0  0  0  0
  181.0180  180.7380  138.7900 N   0  0  0  0  0  2  0  0  0  0  0  0
  188.9150  178.3790  140.6710 O   0  0  0  0  0  0  0  0  0  0  0  0
  188.9460  176.0040  137.8590 C   0  0  0  0  0  2  0  0  0  0  0  0
  189.6450  177.0370  136.9610 C   0  0  1  0  0  0  0  0  0  0  0  0
  191.1090  176.6640  136.8240 C   0  0  0  0  0  1  0  0  0  0  0  0
  188.3070  178.6710  138.3650 C   0  0  0  0  0  2  0  0  0  0  0  0
  189.0050  176.3990  139.3330 C   0  0  0  0  0  2  0  0  0  0  0  0
  188.3060  177.7420  139.5870 C   0  0  1  0  0  3  0  0  0  0  0  0
  189.0580  177.0030  135.6990 O   0  0  0  0  0  1  0  0  0  0  0  0
  189.5570  178.4680  137.5140 C   0  0  0  0  0  2  0  0  0  0  0  0
  1  5  1  0  0  0  0
  1  6  1  0  0  0  0
  2 12  1  1  0  0  0
  2 11  1  0  0  0  0
  3 16  1  1  0  0  0
  3 10  1  0  0  0  0
  4  7  2  0  0  0  0
  4  8  1  0  0  0  0
  7  9  1  0  0  0  0
  8  1  2  0  0  0  0
  9  5  2  0  0  0  0
 11 10  1  6  0  0  0
 11  7  1  0  0  0  0
 12 15  1  0  0  0  0
 13 35  1  6  0  0  0
 13 14  1  0  0  0  0
 13  2  1  0  0  0  0
 14  3  1  0  0  0  0
 15  4  1  0  0  0  0
 16 17  1  1  0  0  0
 18 16  1  0  0  0  0
 19 18  1  0  0  0  0
 19 20  2  0  0  0  0
 21 19  1  0  0  0  0
 22 21  1  1  0  0  0
 23 27  1  0  0  0  0
 23 25  1  0  0  0  0
 24 22  1  0  0  0  0
 25 28  1  0  0  0  0
 25 26  1  1  0  0  0
 25 22  1  0  0  0  0
 27 24  1  0  0  0  0
 29 28  1  6  0  0  0
 29 33  1  0  0  0  0
 30 32  1  0  0  0  0
 31 33  1  0  0  0  0
 32 31  2  0  0  0  0
 34 32  1  0  0  0  0
 34 29  1  0  0  0  0
 36 40  1  0  0  0  0
 37 38  1  6  0  0  0
 37 43  1  0  0  0  0
 37 36  1  0  0  0  0
 39 41  1  0  0  0  0
 40 41  1  0  0  0  0
 41 35  1  1  0  0  0
 42 37  1  0  0  0  0
 43 39  1  0  0  0  0
M  END
>  <MODEL>
2

>  <REMARK>
 VINA RESULT:      -9.4      2.814      7.499
  Name = 
  9 active torsions:
  status: ('A' for Active; 'I' for Inactive)
    1  A    between atoms: O_1  and  C_34
    2  A    between atoms: O_1  and  C_35
    3  A    between atoms: C_2  and  C_6
    4  A    between atoms: C_2  and  C_13
    5  A    between atoms: O_3  and  C_4
    6  A    between atoms: O_3  and  C_12
    7  A    between atoms: C_6  and  C_12
    8  A    between atoms: C_11  and  O_14
    9  A    between atoms: O_14  and  C_22
                            x       y       z     vdW  Elec       q    Type
                         _______ _______ _______ _____ _____    ______ ____

>  <TORSDO>
F 9

$$$$
=
 OpenBabel10262422093D

 43 48  0  0  1  0  0  0  0  0999 V2000
  191.3740  176.2810  146.6660 C   0  0  0  0  0  0  0  0  0  0  0  0
  187.2280  177.4730  143.8520 C   0  0  1  0  0  3  0  0  0  0  0  0
  188.3530  178.5740  141.4760 C   0  0  2  0  0  3  0  0  0  0  0  0
  189.2370  177.1420  145.9010 C   0  0  0  0  0  0  0  0  0  0  0  0
  191.7220  175.9640  145.3500 C   0  0  0  0  0  3  0  0  0  0  0  0
  192.3230  175.9950  147.7760 C   0  0  0  0  0  1  0  0  0  0  0  0
  189.5800  176.8050  144.5730 C   0  0  0  0  0  0  0  0  0  0  0  0
  190.1320  176.8620  146.9410 C   0  0  0  0  0  3  0  0  0  0  0  0
  190.8280  176.2240  144.3090 C   0  0  0  0  0  3  0  0  0  0  0  0
  189.2420  178.1800  142.5910 N   0  0  0  0  0  2  0  0  0  0  0  0
  188.6640  177.1140  143.4180 C   0  0  2  0  0  3  0  0  0  0  0  0
  187.2470  178.4060  145.0570 C   0  0  0  0  0  2  0  0  0  0  0  0
  186.4990  178.1590  142.6970 C   0  0  1  0  0  3  0  0  0  0  0  0
  187.1320  177.8630  141.4780 O   0  0  0  0  0  0  0  0  0  0  0  0
  187.8850  177.6970  146.2430 C   0  0  0  0  0  2  0  0  0  0  0  0
  189.0630  178.3780  140.1370 C   0  0  1  0  0  3  0  0  0  0  0  0
  190.3340  177.5680  140.3350 C   0  0  0  0  0  1  0  0  0  0  0  0
  188.1560  177.6540  139.1500 C   0  0  0  0  0  2  0  0  0  0  0  0
  187.8150  178.5430  137.9980 C   0  0  0  0  0  0  0  0  0  0  0  0
  188.7080  179.2880  137.5150 O   0  0  0  0  0  0  0  0  0  0  0  0
  186.5330  178.5720  137.4470 O   0  0  0  0  0  0  0  0  0  0  0  0
  185.4670  177.7570  137.9300 C   0  0  1  0  0  3  0  0  0  0  0  0
  183.6080  176.4400  137.1670 C   0  0  0  0  0  2  0  0  0  0  0  0
  184.2200  178.5900  138.1510 C   0  0  0  0  0  2  0  0  0  0  0  0
  185.0920  176.6460  136.9410 C   0  0  1  0  0  0  0  0  0  0  0  0
  185.2770  177.0600  135.4750 C   0  0  0  0  0  1  0  0  0  0  0  0
  183.0440  177.7450  137.7030 C   0  0  0  0  0  2  0  0  0  0  0  0
  185.7530  175.4260  137.2280 O   0  0  0  0  0  0  0  0  0  0  0  0
  186.6520  175.1140  136.1930 C   0  0  2  0  0  3  0  0  0  0  0  0
  190.0070  173.6370  136.8660 C   0  0  0  0  0  1  0  0  0  0  0  0
  187.8000  173.0470  136.0350 N   0  0  0  0  0  0  0  0  0  0  0  0
  188.5920  173.9350  136.5200 C   0  0  0  0  0  0  0  0  0  0  0  0
  186.4930  173.6430  135.7970 C   0  0  0  0  0  2  0  0  0  0  0  0
  188.0170  175.2170  136.6790 N   0  0  0  0  0  2  0  0  0  0  0  0
  185.1710  177.7290  142.6500 O   0  0  0  0  0  0  0  0  0  0  0  0
  182.2490  179.4970  144.0220 C   0  0  0  0  0  2  0  0  0  0  0  0
  181.3770  179.0190  142.8490 C   0  0  1  0  0  0  0  0  0  0  0  0
  180.4740  177.9000  143.3280 C   0  0  0  0  0  1  0  0  0  0  0  0
  183.5720  179.1750  141.5880 C   0  0  0  0  0  2  0  0  0  0  0  0
  183.5570  178.7150  144.1130 C   0  0  0  0  0  2  0  0  0  0  0  0
  184.4050  178.8810  142.8440 C   0  0  1  0  0  3  0  0  0  0  0  0
  180.5830  180.0800  142.4220 O   0  0  0  0  0  1  0  0  0  0  0  0
  182.2040  178.5040  141.6610 C   0  0  0  0  0  2  0  0  0  0  0  0
  1  8  1  0  0  0  0
  1  6  1  0  0  0  0
  2 12  1  1  0  0  0
  3 16  1  6  0  0  0
  3 14  1  0  0  0  0
  3 10  1  0  0  0  0
  4 15  1  0  0  0  0
  4  8  2  0  0  0  0
  5  1  2  0  0  0  0
  7  4  1  0  0  0  0
  9  7  2  0  0  0  0
  9  5  1  0  0  0  0
 11 10  1  1  0  0  0
 11  2  1  0  0  0  0
 11  7  1  0  0  0  0
 12 15  1  0  0  0  0
 13 35  1  6  0  0  0
 13  2  1  0  0  0  0
 14 13  1  0  0  0  0
 16 17  1  1  0  0  0
 18 16  1  0  0  0  0
 19 18  1  0  0  0  0
 20 19  2  0  0  0  0
 21 19  1  0  0  0  0
 22 21  1  6  0  0  0
 22 24  1  0  0  0  0
 23 27  1  0  0  0  0
 25 26  1  6  0  0  0
 25 23  1  0  0  0  0
 25 28  1  0  0  0  0
 25 22  1  0  0  0  0
 27 24  1  0  0  0  0
 29 34  1  0  0  0  0
 29 28  1  1  0  0  0
 31 32  2  0  0  0  0
 32 34  1  0  0  0  0
 32 30  1  0  0  0  0
 33 31  1  0  0  0  0
 33 29  1  0  0  0  0
 36 40  1  0  0  0  0
 37 38  1  1  0  0  0
 37 36  1  0  0  0  0
 39 43  1  0  0  0  0
 39 41  1  0  0  0  0
 41 35  1  6  0  0  0
 41 40  1  0  0  0  0
 42 37  1  0  0  0  0
 43 37  1  0  0  0  0
M  END
>  <MODEL>
3

>  <REMARK>
 VINA RESULT:      -9.3      1.541      2.418
  Name = 
  9 active torsions:
  status: ('A' for Active; 'I' for Inactive)
    1  A    between atoms: O_1  and  C_34
    2  A    between atoms: O_1  and  C_35
    3  A    between atoms: C_2  and  C_6
    4  A    between atoms: C_2  and  C_13
    5  A    between atoms: O_3  and  C_4
    6  A    between atoms: O_3  and  C_12
    7  A    between atoms: C_6  and  C_12
    8  A    between atoms: C_11  and  O_14
    9  A    between atoms: O_14  and  C_22
                            x       y       z     vdW  Elec       q    Type
                         _______ _______ _______ _____ _____    ______ ____

>  <TORSDO>
F 9

$$$$
=
 OpenBabel10262422093D

 43 48  0  0  1  0  0  0  0  0999 V2000
  191.6000  176.3550  146.9900 C   0  0  0  0  0  0  0  0  0  0  0  0
  189.5630  177.6760  142.4470 C   0  0  1  0  0  3  0  0  0  0  0  0
  186.7570  177.4860  142.9170 C   0  0  2  0  0  3  0  0  0  0  0  0
  191.0650  176.5220  144.6270 C   0  0  0  0  0  0  0  0  0  0  0  0
  190.4710  177.1170  147.3030 C   0  0  0  0  0  3  0  0  0  0  0  0
  192.4870  175.8590  148.0760 C   0  0  0  0  0  1  0  0  0  0  0  0
  189.9340  177.3080  144.9430 C   0  0  0  0  0  0  0  0  0  0  0  0
  191.8990  176.0650  145.6550 C   0  0  0  0  0  3  0  0  0  0  0  0
  189.6440  177.5920  146.2830 C   0  0  0  0  0  3  0  0  0  0  0  0
  187.7050  177.0960  143.9830 N   0  0  0  0  0  2  0  0  0  0  0  0
  188.9900  177.7960  143.8750 C   0  0  2  0  0  3  0  0  0  0  0  0
  190.2680  176.3390  142.2600 C   0  0  0  0  0  2  0  0  0  0  0  0
  188.4280  177.7930  141.4280 C   0  0  1  0  0  3  0  0  0  0  0  0
  187.3130  178.4180  142.0110 O   0  0  0  0  0  0  0  0  0  0  0  0
  191.4590  176.2530  143.2040 C   0  0  0  0  0  2  0  0  0  0  0  0
  185.4790  178.0590  143.5270 C   0  0  1  0  0  3  0  0  0  0  0  0
  185.7240  178.4530  144.9740 C   0  0  0  0  0  1  0  0  0  0  0  0
  185.0140  179.2820  142.7470 C   0  0  0  0  0  2  0  0  0  0  0  0
  183.8340  178.9440  141.8930 C   0  0  0  0  0  0  0  0  0  0  0  0
  182.7430  178.6490  142.4450 O   0  0  0  0  0  0  0  0  0  0  0  0
  183.9130  178.9450  140.4980 O   0  0  0  0  0  0  0  0  0  0  0  0
  182.8450  178.5010  139.6650 C   0  0  1  0  0  3  0  0  0  0  0  0
  182.3230  178.0150  137.3710 C   0  0  0  0  0  2  0  0  0  0  0  0
  182.0600  179.6850  139.1340 C   0  0  0  0  0  2  0  0  0  0  0  0
  183.3470  177.7160  138.4460 C   0  0  1  0  0  0  0  0  0  0  0  0
  184.7060  178.2100  137.9330 C   0  0  0  0  0  1  0  0  0  0  0  0
  181.7000  179.3620  137.6970 C   0  0  0  0  0  2  0  0  0  0  0  0
  183.3500  176.3170  138.6730 O   0  0  0  0  0  0  0  0  0  0  0  0
  183.5860  175.6380  137.4650 C   0  0  2  0  0  3  0  0  0  0  0  0
  185.9560  172.7700  137.2420 C   0  0  0  0  0  1  0  0  0  0  0  0
  183.5780  173.2770  137.2690 N   0  0  0  0  0  0  0  0  0  0  0  0
  184.7930  173.6920  137.3280 C   0  0  0  0  0  0  0  0  0  0  0  0
  182.6730  174.4110  137.3760 C   0  0  0  0  0  2  0  0  0  0  0  0
  184.9330  175.0930  137.4630 N   0  0  0  0  0  2  0  0  0  0  0  0
  188.8560  178.5330  140.3240 O   0  0  0  0  0  0  0  0  0  0  0  0
  188.4370  176.1970  137.5110 C   0  0  0  0  0  2  0  0  0  0  0  0
  189.3180  177.0810  136.6130 C   0  0  1  0  0  0  0  0  0  0  0  0
  190.6850  176.4390  136.4750 C   0  0  0  0  0  1  0  0  0  0  0  0
  188.3120  178.9370  138.0190 C   0  0  0  0  0  2  0  0  0  0  0  0
  188.5710  176.5730  138.9850 C   0  0  0  0  0  2  0  0  0  0  0  0
  188.1370  178.0240  139.2400 C   0  0  1  0  0  3  0  0  0  0  0  0
  188.7330  177.1590  135.3510 O   0  0  0  0  0  1  0  0  0  0  0  0
  189.5010  178.5020  137.1670 C   0  0  0  0  0  2  0  0  0  0  0  0
  1  5  1  0  0  0  0
  1  6  1  0  0  0  0
  2 12  1  1  0  0  0
  2 11  1  0  0  0  0
  3 16  1  1  0  0  0
  3 10  1  0  0  0  0
  4  7  2  0  0  0  0
  4  8  1  0  0  0  0
  7  9  1  0  0  0  0
  8  1  2  0  0  0  0
  9  5  2  0  0  0  0
 11 10  1  6  0  0  0
 11  7  1  0  0  0  0
 12 15  1  0  0  0  0
 13 35  1  6  0  0  0
 13 14  1  0  0  0  0
 13  2  1  0  0  0  0
 14  3  1  0  0  0  0
 15  4  1  0  0  0  0
 16 17  1  1  0  0  0
 18 16  1  0  0  0  0
 19 20  2  0  0  0  0
 19 18  1  0  0  0  0
 21 19  1  0  0  0  0
 22 21  1  6  0  0  0
 23 27  1  0  0  0  0
 23 25  1  0  0  0  0
 24 22  1  0  0  0  0
 25 26  1  6  0  0  0
 25 28  1  0  0  0  0
 25 22  1  0  0  0  0
 27 24  1  0  0  0  0
 29 28  1  1  0  0  0
 30 32  1  0  0  0  0
 31 32  2  0  0  0  0
 31 33  1  0  0  0  0
 32 34  1  0  0  0  0
 33 29  1  0  0  0  0
 34 29  1  0  0  0  0
 36 40  1  0  0  0  0
 37 38  1  6  0  0  0
 37 43  1  0  0  0  0
 37 36  1  0  0  0  0
 39 41  1  0  0  0  0
 40 41  1  0  0  0  0
 41 35  1  1  0  0  0
 42 37  1  0  0  0  0
 43 39  1  0  0  0  0
M  END
>  <MODEL>
4

>  <REMARK>
 VINA RESULT:      -9.3      2.466      6.173
  Name = 
  9 active torsions:
  status: ('A' for Active; 'I' for Inactive)
    1  A    between atoms: O_1  and  C_34
    2  A    between atoms: O_1  and  C_35
    3  A    between atoms: C_2  and  C_6
    4  A    between atoms: C_2  and  C_13
    5  A    between atoms: O_3  and  C_4
    6  A    between atoms: O_3  and  C_12
    7  A    between atoms: C_6  and  C_12
    8  A    between atoms: C_11  and  O_14
    9  A    between atoms: O_14  and  C_22
                            x       y       z     vdW  Elec       q    Type
                         _______ _______ _______ _____ _____    ______ ____

>  <TORSDO>
F 9

$$$$
=
 OpenBabel10262422093D

 43 48  0  0  1  0  0  0  0  0999 V2000
  191.3060  176.5090  146.6190 C   0  0  0  0  0  0  0  0  0  0  0  0
  189.4290  177.9540  142.0450 C   0  0  1  0  0  3  0  0  0  0  0  0
  186.6150  177.6310  142.3690 C   0  0  2  0  0  3  0  0  0  0  0  0
  190.8750  176.7620  144.2430 C   0  0  0  0  0  0  0  0  0  0  0  0
  190.1320  177.2100  146.9100 C   0  0  0  0  0  3  0  0  0  0  0  0
  192.1620  176.0000  147.7240 C   0  0  0  0  0  1  0  0  0  0  0  0
  189.6990  177.4870  144.5370 C   0  0  0  0  0  0  0  0  0  0  0  0
  191.6790  176.2930  145.2890 C   0  0  0  0  0  3  0  0  0  0  0  0
  189.3340  177.6980  145.8730 C   0  0  0  0  0  3  0  0  0  0  0  0
  187.5280  177.2300  143.4630 N   0  0  0  0  0  2  0  0  0  0  0  0
  188.7850  177.9850  143.4470 C   0  0  2  0  0  3  0  0  0  0  0  0
  190.1980  176.6560  141.8340 C   0  0  0  0  0  2  0  0  0  0  0  0
  188.3390  178.0720  140.9780 C   0  0  1  0  0  3  0  0  0  0  0  0
  187.1730  178.6240  141.5340 O   0  0  0  0  0  0  0  0  0  0  0  0
  191.3460  176.5750  142.8300 C   0  0  0  0  0  2  0  0  0  0  0  0
  185.2860  178.1240  142.9410 C   0  0  1  0  0  3  0  0  0  0  0  0
  185.4340  178.4140  144.4260 C   0  0  0  0  0  1  0  0  0  0  0  0
  184.8310  179.3890  142.2260 C   0  0  0  0  0  2  0  0  0  0  0  0
  184.2410  179.0570  140.8930 C   0  0  0  0  0  0  0  0  0  0  0  0
  184.6410  179.6810  139.8750 O   0  0  0  0  0  0  0  0  0  0  0  0
  183.2580  178.0770  140.7490 O   0  0  0  0  0  0  0  0  0  0  0  0
  182.8640  177.5610  139.4790 C   0  0  1  0  0  3  0  0  0  0  0  0
  180.9100  177.0390  138.1820 C   0  0  0  0  0  2  0  0  0  0  0  0
  182.6790  176.0580  139.5520 C   0  0  0  0  0  2  0  0  0  0  0  0
  181.5310  178.1520  139.0010 C   0  0  1  0  0  0  0  0  0  0  0  0
  180.5670  178.4660  140.1520 C   0  0  0  0  0  1  0  0  0  0  0  0
  181.4660  175.7250  138.7040 C   0  0  0  0  0  2  0  0  0  0  0  0
  181.7150  179.2710  138.1510 O   0  0  0  0  0  0  0  0  0  0  0  0
  180.9820  180.3670  138.6390 C   0  0  2  0  0  3  0  0  0  0  0  0
  181.6660  183.8570  137.5240 C   0  0  0  0  0  1  0  0  0  0  0  0
  180.0630  182.0500  137.2470 N   0  0  0  0  0  0  0  0  0  0  0  0
  181.1530  182.4840  137.7730 C   0  0  0  0  0  0  0  0  0  0  0  0
  179.8270  180.6820  137.6840 C   0  0  0  0  0  2  0  0  0  0  0  0
  181.8100  181.5610  138.6180 N   0  0  0  0  0  2  0  0  0  0  0  0
  188.7860  178.8790  139.9300 O   0  0  0  0  0  0  0  0  0  0  0  0
  189.1930  177.9080  136.4030 C   0  0  0  0  0  2  0  0  0  0  0  0
  187.7370  177.4190  136.3430 C   0  0  1  0  0  0  0  0  0  0  0  0
  186.9040  178.4400  135.5920 C   0  0  0  0  0  1  0  0  0  0  0  0
  188.1730  176.8610  138.7780 C   0  0  0  0  0  2  0  0  0  0  0  0
  189.4530  178.7700  137.6360 C   0  0  0  0  0  2  0  0  0  0  0  0
  189.2010  177.9900  138.9350 C   0  0  1  0  0  3  0  0  0  0  0  0
  187.6980  176.2140  135.6460 O   0  0  0  0  0  1  0  0  0  0  0  0
  187.1170  177.2120  137.7340 C   0  0  0  0  0  2  0  0  0  0  0  0
  1  5  1  0  0  0  0
  1  6  1  0  0  0  0
  2 12  1  6  0  0  0
  2 11  1  0  0  0  0
  3 16  1  1  0  0  0
  3 10  1  0  0  0  0
  4  7  2  0  0  0  0
  4  8  1  0  0  0  0
  7  9  1  0  0  0  0
  8  1  2  0  0  0  0
  9  5  2  0  0  0  0
 11 10  1  6  0  0  0
 11  7  1  0  0  0  0
 12 15  1  0  0  0  0
 13 35  1  6  0  0  0
 13 14  1  0  0  0  0
 13  2  1  0  0  0  0
 14  3  1  0  0  0  0
 15  4  1  0  0  0  0
 16 17  1  1  0  0  0
 18 16  1  0  0  0  0
 19 18  1  0  0  0  0
 20 19  2  0  0  0  0
 21 19  1  0  0  0  0
 22 24  1  0  0  0  0
 22 21  1  1  0  0  0
 23 27  1  0  0  0  0
 23 25  1  0  0  0  0
 25 22  1  0  0  0  0
 25 26  1  1  0  0  0
 27 24  1  0  0  0  0
 28 25  1  0  0  0  0
 29 28  1  6  0  0  0
 30 32  1  0  0  0  0
 31 33  1  0  0  0  0
 31 32  2  0  0  0  0
 32 34  1  0  0  0  0
 33 29  1  0  0  0  0
 34 29  1  0  0  0  0
 36 40  1  0  0  0  0
 37 38  1  6  0  0  0
 37 36  1  0  0  0  0
 37 43  1  0  0  0  0
 39 41  1  0  0  0  0
 40 41  1  0  0  0  0
 41 35  1  1  0  0  0
 42 37  1  0  0  0  0
 43 39  1  0  0  0  0
M  END
>  <MODEL>
5

>  <REMARK>
 VINA RESULT:      -9.2      3.150      7.234
  Name = 
  9 active torsions:
  status: ('A' for Active; 'I' for Inactive)
    1  A    between atoms: O_1  and  C_34
    2  A    between atoms: O_1  and  C_35
    3  A    between atoms: C_2  and  C_6
    4  A    between atoms: C_2  and  C_13
    5  A    between atoms: O_3  and  C_4
    6  A    between atoms: O_3  and  C_12
    7  A    between atoms: C_6  and  C_12
    8  A    between atoms: C_11  and  O_14
    9  A    between atoms: O_14  and  C_22
                            x       y       z     vdW  Elec       q    Type
                         _______ _______ _______ _____ _____    ______ ____

>  <TORSDO>
F 9

$$$$
=
 OpenBabel10262422093D

 43 48  0  0  1  0  0  0  0  0999 V2000
  187.8900  177.8130  147.1220 C   0  0  0  0  0  0  0  0  0  0  0  0
  185.2500  178.1740  142.7140 C   0  0  1  0  0  3  0  0  0  0  0  0
  187.2890  178.6240  140.7730 C   0  0  2  0  0  3  0  0  0  0  0  0
  186.2920  178.4180  145.3960 C   0  0  0  0  0  0  0  0  0  0  0  0
  188.6800  177.1650  146.1680 C   0  0  0  0  0  3  0  0  0  0  0  0
  188.3160  177.8400  148.5460 C   0  0  0  0  0  1  0  0  0  0  0  0
  187.0810  177.7460  144.4360 C   0  0  0  0  0  0  0  0  0  0  0  0
  186.6960  178.4310  146.7370 C   0  0  0  0  0  3  0  0  0  0  0  0
  188.2750  177.1310  144.8320 C   0  0  0  0  0  3  0  0  0  0  0  0
  187.6480  178.5470  142.2060 N   0  0  0  0  0  2  0  0  0  0  0  0
  186.7040  177.7300  142.9770 C   0  0  2  0  0  3  0  0  0  0  0  0
  184.8970  179.3910  143.5590 C   0  0  0  0  0  2  0  0  0  0  0  0
  185.0800  178.5230  141.2340 C   0  0  1  0  0  3  0  0  0  0  0  0
  186.0990  177.9250  140.4740 O   0  0  0  0  0  0  0  0  0  0  0  0
  184.9690  179.0270  145.0350 C   0  0  0  0  0  2  0  0  0  0  0  0
  188.4320  178.0900  139.9100 C   0  0  1  0  0  3  0  0  0  0  0  0
  188.6570  179.0070  138.7190 C   0  0  0  0  0  1  0  0  0  0  0  0
  189.7180  177.9980  140.7210 C   0  0  0  0  0  2  0  0  0  0  0  0
  190.2210  176.5900  140.7530 C   0  0  0  0  0  0  0  0  0  0  0  0
  190.3460  176.0110  141.8630 O   0  0  0  0  0  0  0  0  0  0  0  0
  190.5570  175.9040  139.5840 O   0  0  0  0  0  0  0  0  0  0  0  0
  191.2170  176.5290  138.4860 C   0  0  1  0  0  3  0  0  0  0  0  0
  192.0980  176.0550  136.3010 C   0  0  0  0  0  2  0  0  0  0  0  0
  192.7210  176.4120  138.6360 C   0  0  0  0  0  2  0  0  0  0  0  0
  190.8510  175.8810  137.1440 C   0  0  1  0  0  0  0  0  0  0  0  0
  190.5830  174.3750  137.2580 C   0  0  0  0  0  1  0  0  0  0  0  0
  193.2800  176.1480  137.2510 C   0  0  0  0  0  2  0  0  0  0  0  0
  189.7860  176.5560  136.4960 O   0  0  0  0  0  0  0  0  0  0  0  0
  188.6870  175.6900  136.3570 C   0  0  2  0  0  3  0  0  0  0  0  0
  185.2190  176.7460  137.2230 C   0  0  0  0  0  1  0  0  0  0  0  0
  186.6550  176.3130  135.3100 N   0  0  0  0  0  0  0  0  0  0  0  0
  186.5090  176.3720  136.5850 C   0  0  0  0  0  0  0  0  0  0  0  0
  188.0200  175.9160  134.9980 C   0  0  0  0  0  2  0  0  0  0  0  0
  187.6640  176.0360  137.3290 N   0  0  0  0  0  2  0  0  0  0  0  0
  183.8360  178.0810  140.7810 O   0  0  0  0  0  0  0  0  0  0  0  0
  180.7220  179.8360  139.9040 C   0  0  0  0  0  2  0  0  0  0  0  0
  180.9470  179.5420  138.4120 C   0  0  1  0  0  0  0  0  0  0  0  0
  180.0160  178.4260  137.9820 C   0  0  0  0  0  1  0  0  0  0  0  0
  183.3860  179.7210  139.0840 C   0  0  0  0  0  2  0  0  0  0  0  0
  181.6200  178.9800  140.7940 C   0  0  0  0  0  2  0  0  0  0  0  0
  183.1070  179.2430  140.5160 C   0  0  1  0  0  3  0  0  0  0  0  0
  180.6380  180.6860  137.6790 O   0  0  0  0  0  1  0  0  0  0  0  0
  182.3900  179.1210  138.0960 C   0  0  0  0  0  2  0  0  0  0  0  0
  1  6  1  0  0  0  0
  2 11  1  0  0  0  0
  2 12  1  1  0  0  0
  3 16  1  6  0  0  0
  3 10  1  0  0  0  0
  4  8  2  0  0  0  0
  5  1  2  0  0  0  0
  7  9  2  0  0  0  0
  7  4  1  0  0  0  0
  8  1  1  0  0  0  0
  9  5  1  0  0  0  0
 11 10  1  6  0  0  0
 11  7  1  0  0  0  0
 12 15  1  0  0  0  0
 13 35  1  6  0  0  0
 13  2  1  0  0  0  0
 14  3  1  0  0  0  0
 14 13  1  0  0  0  0
 15  4  1  0  0  0  0
 16 17  1  6  0  0  0
 16 18  1  0  0  0  0
 18 19  1  0  0  0  0
 19 20  2  0  0  0  0
 21 19  1  0  0  0  0
 22 24  1  0  0  0  0
 22 21  1  1  0  0  0
 23 25  1  0  0  0  0
 23 27  1  0  0  0  0
 25 26  1  1  0  0  0
 25 22  1  0  0  0  0
 27 24  1  0  0  0  0
 28 25  1  0  0  0  0
 29 28  1  1  0  0  0
 29 34  1  0  0  0  0
 31 32  2  0  0  0  0
 32 30  1  0  0  0  0
 32 34  1  0  0  0  0
 33 31  1  0  0  0  0
 33 29  1  0  0  0  0
 36 40  1  0  0  0  0
 37 38  1  6  0  0  0
 37 36  1  0  0  0  0
 39 41  1  0  0  0  0
 41 35  1  6  0  0  0
 41 40  1  0  0  0  0
 42 37  1  0  0  0  0
 43 37  1  0  0  0  0
 43 39  1  0  0  0  0
M  END
>  <MODEL>
6

>  <REMARK>
 VINA RESULT:      -9.1      2.004      3.850
  Name = 
  9 active torsions:
  status: ('A' for Active; 'I' for Inactive)
    1  A    between atoms: O_1  and  C_34
    2  A    between atoms: O_1  and  C_35
    3  A    between atoms: C_2  and  C_6
    4  A    between atoms: C_2  and  C_13
    5  A    between atoms: O_3  and  C_4
    6  A    between atoms: O_3  and  C_12
    7  A    between atoms: C_6  and  C_12
    8  A    between atoms: C_11  and  O_14
    9  A    between atoms: O_14  and  C_22
                            x       y       z     vdW  Elec       q    Type
                         _______ _______ _______ _____ _____    ______ ____

>  <TORSDO>
F 9

$$$$
=
 OpenBabel10262422093D

 43 48  0  0  1  0  0  0  0  0999 V2000
  191.6870  176.1910  147.1010 C   0  0  0  0  0  0  0  0  0  0  0  0
  187.5260  177.3660  144.3010 C   0  0  1  0  0  3  0  0  0  0  0  0
  188.6400  178.4520  141.9120 C   0  0  2  0  0  3  0  0  0  0  0  0
  189.5450  177.0480  146.3410 C   0  0  0  0  0  0  0  0  0  0  0  0
  192.0280  175.8660  145.7850 C   0  0  0  0  0  3  0  0  0  0  0  0
  192.6400  175.9120  148.2080 C   0  0  0  0  0  1  0  0  0  0  0  0
  189.8820  176.7020  145.0140 C   0  0  0  0  0  0  0  0  0  0  0  0
  190.4460  176.7740  147.3780 C   0  0  0  0  0  3  0  0  0  0  0  0
  191.1280  176.1190  144.7480 C   0  0  0  0  0  3  0  0  0  0  0  0
  189.5340  178.0640  143.0250 N   0  0  0  0  0  2  0  0  0  0  0  0
  188.9600  177.0040  143.8620 C   0  0  2  0  0  3  0  0  0  0  0  0
  187.5510  178.3070  145.4990 C   0  0  0  0  0  2  0  0  0  0  0  0
  186.7910  178.0450  143.1450 C   0  0  1  0  0  3  0  0  0  0  0  0
  187.4190  177.7420  141.9250 O   0  0  0  0  0  0  0  0  0  0  0  0
  188.1950  177.6050  146.6870 C   0  0  0  0  0  2  0  0  0  0  0  0
  189.3420  178.2470  140.5710 C   0  0  1  0  0  3  0  0  0  0  0  0
  190.4590  177.2270  140.7190 C   0  0  0  0  0  1  0  0  0  0  0  0
  188.3560  177.7610  139.5170 C   0  0  0  0  0  2  0  0  0  0  0  0
  188.8810  178.0270  138.1430 C   0  0  0  0  0  0  0  0  0  0  0  0
  188.4360  179.0120  137.4980 O   0  0  0  0  0  0  0  0  0  0  0  0
  189.8480  177.2090  137.5550 O   0  0  0  0  0  0  0  0  0  0  0  0
  189.7500  175.7860  137.5410 C   0  0  1  0  0  3  0  0  0  0  0  0
  190.4640  173.8620  136.2910 C   0  0  0  0  0  2  0  0  0  0  0  0
  188.5670  175.3460  136.7000 C   0  0  0  0  0  2  0  0  0  0  0  0
  190.9970  175.1250  136.9380 C   0  0  1  0  0  0  0  0  0  0  0  0
  191.6460  175.9660  135.8310 C   0  0  0  0  0  1  0  0  0  0  0  0
  189.0070  174.1100  135.9390 C   0  0  0  0  0  2  0  0  0  0  0  0
  191.9360  174.7480  137.9300 O   0  0  0  0  0  0  0  0  0  0  0  0
  193.2210  174.6670  137.3650 C   0  0  2  0  0  3  0  0  0  0  0  0
  196.2960  174.5110  139.4640 C   0  0  0  0  0  1  0  0  0  0  0  0
  194.8680  173.1190  138.0750 N   0  0  0  0  0  0  0  0  0  0  0  0
  195.1160  174.2680  138.5940 C   0  0  0  0  0  0  0  0  0  0  0  0
  193.6550  173.2010  137.2750 C   0  0  0  0  0  2  0  0  0  0  0  0
  194.1890  175.2820  138.2570 N   0  0  0  0  0  2  0  0  0  0  0  0
  185.4630  177.6150  143.1080 O   0  0  0  0  0  0  0  0  0  0  0  0
  182.4900  179.5010  144.1790 C   0  0  0  0  0  2  0  0  0  0  0  0
  181.6750  178.9320  143.0050 C   0  0  1  0  0  0  0  0  0  0  0  0
  180.7390  177.8590  143.5270 C   0  0  0  0  0  1  0  0  0  0  0  0
  183.9320  178.9750  141.8500 C   0  0  0  0  0  2  0  0  0  0  0  0
  183.7850  178.7240  144.4010 C   0  0  0  0  0  2  0  0  0  0  0  0
  184.6980  178.7820  143.1670 C   0  0  1  0  0  3  0  0  0  0  0  0
  180.9110  179.9570  142.4520 O   0  0  0  0  0  1  0  0  0  0  0  0
  182.5560  178.3180  141.9070 C   0  0  0  0  0  2  0  0  0  0  0  0
  1  8  1  0  0  0  0
  1  6  1  0  0  0  0
  2 12  1  1  0  0  0
  3 16  1  6  0  0  0
  3 14  1  0  0  0  0
  3 10  1  0  0  0  0
  4 15  1  0  0  0  0
  4  8  2  0  0  0  0
  5  1  2  0  0  0  0
  7  4  1  0  0  0  0
  9  7  2  0  0  0  0
  9  5  1  0  0  0  0
 11 10  1  1  0  0  0
 11  2  1  0  0  0  0
 11  7  1  0  0  0  0
 12 15  1  0  0  0  0
 13 35  1  6  0  0  0
 13  2  1  0  0  0  0
 14 13  1  0  0  0  0
 16 17  1  1  0  0  0
 18 16  1  0  0  0  0
 19 18  1  0  0  0  0
 20 19  2  0  0  0  0
 21 19  1  0  0  0  0
 22 21  1  6  0  0  0
 23 25  1  0  0  0  0
 24 22  1  0  0  0  0
 25 26  1  6  0  0  0
 25 22  1  0  0  0  0
 25 28  1  0  0  0  0
 27 23  1  0  0  0  0
 27 24  1  0  0  0  0
 29 28  1  1  0  0  0
 29 34  1  0  0  0  0
 31 32  2  0  0  0  0
 32 30  1  0  0  0  0
 33 29  1  0  0  0  0
 33 31  1  0  0  0  0
 34 32  1  0  0  0  0
 36 40  1  0  0  0  0
 37 38  1  1  0  0  0
 37 36  1  0  0  0  0
 39 43  1  0  0  0  0
 39 41  1  0  0  0  0
 41 35  1  6  0  0  0
 41 40  1  0  0  0  0
 42 37  1  0  0  0  0
 43 37  1  0  0  0  0
M  END
>  <MODEL>
7

>  <REMARK>
 VINA RESULT:      -9.0      1.355      1.765
  Name = 
  9 active torsions:
  status: ('A' for Active; 'I' for Inactive)
    1  A    between atoms: O_1  and  C_34
    2  A    between atoms: O_1  and  C_35
    3  A    between atoms: C_2  and  C_6
    4  A    between atoms: C_2  and  C_13
    5  A    between atoms: O_3  and  C_4
    6  A    between atoms: O_3  and  C_12
    7  A    between atoms: C_6  and  C_12
    8  A    between atoms: C_11  and  O_14
    9  A    between atoms: O_14  and  C_22
                            x       y       z     vdW  Elec       q    Type
                         _______ _______ _______ _____ _____    ______ ____

>  <TORSDO>
F 9

$$$$
=
 OpenBabel10262422093D

 43 48  0  0  1  0  0  0  0  0999 V2000
  187.7850  177.8780  147.3950 C   0  0  0  0  0  0  0  0  0  0  0  0
  184.7900  178.2550  143.2210 C   0  0  1  0  0  3  0  0  0  0  0  0
  186.6390  178.9250  141.1570 C   0  0  2  0  0  3  0  0  0  0  0  0
  186.0220  178.4490  145.8260 C   0  0  0  0  0  0  0  0  0  0  0  0
  188.5370  177.3270  146.3540 C   0  0  0  0  0  3  0  0  0  0  0  0
  188.3180  177.8710  148.7840 C   0  0  0  0  0  1  0  0  0  0  0  0
  186.7740  177.8750  144.7780 C   0  0  0  0  0  0  0  0  0  0  0  0
  186.5270  178.4310  147.1320 C   0  0  0  0  0  3  0  0  0  0  0  0
  188.0320  177.3250  145.0520 C   0  0  0  0  0  3  0  0  0  0  0  0
  187.1120  178.8090  142.5540 N   0  0  0  0  0  2  0  0  0  0  0  0
  186.2850  177.8980  143.3520 C   0  0  2  0  0  3  0  0  0  0  0  0
  184.4280  179.4070  144.1490 C   0  0  0  0  0  2  0  0  0  0  0  0
  184.4830  178.6560  141.7780 C   0  0  1  0  0  3  0  0  0  0  0  0
  185.4750  178.1610  140.9140 O   0  0  0  0  0  0  0  0  0  0  0  0
  184.6380  178.9840  145.5960 C   0  0  0  0  0  2  0  0  0  0  0  0
  187.7420  178.5070  140.1860 C   0  0  1  0  0  3  0  0  0  0  0  0
  188.6740  177.5100  140.8550 C   0  0  0  0  0  1  0  0  0  0  0  0
  187.1450  177.8750  138.9350 C   0  0  0  0  0  2  0  0  0  0  0  0
  188.0930  177.9900  137.7840 C   0  0  0  0  0  0  0  0  0  0  0  0
  188.7400  179.0580  137.6290 O   0  0  0  0  0  0  0  0  0  0  0  0
  188.2750  176.9450  136.8760 O   0  0  0  0  0  0  0  0  0  0  0  0
  188.2790  175.5740  137.2690 C   0  0  1  0  0  3  0  0  0  0  0  0
  188.9580  173.3990  136.5070 C   0  0  0  0  0  2  0  0  0  0  0  0
  187.0300  174.8750  136.7700 C   0  0  0  0  0  2  0  0  0  0  0  0
  189.4780  174.8090  136.6930 C   0  0  1  0  0  0  0  0  0  0  0  0
  189.9100  175.3230  135.3130 C   0  0  0  0  0  1  0  0  0  0  0  0
  187.4520  173.4900  136.3220 C   0  0  0  0  0  2  0  0  0  0  0  0
  190.5680  174.7590  137.5980 O   0  0  0  0  0  0  0  0  0  0  0  0
  191.4100  175.8660  137.3940 C   0  0  2  0  0  3  0  0  0  0  0  0
  193.1880  177.5420  140.2090 C   0  0  0  0  0  1  0  0  0  0  0  0
  193.5790  176.0500  138.3290 N   0  0  0  0  0  0  0  0  0  0  0  0
  192.7560  176.7450  139.0300 C   0  0  0  0  0  0  0  0  0  0  0  0
  192.8590  175.3930  137.2480 C   0  0  0  0  0  2  0  0  0  0  0  0
  191.4160  176.7040  138.5810 N   0  0  0  0  0  2  0  0  0  0  0  0
  183.2380  178.1510  141.3980 O   0  0  0  0  0  0  0  0  0  0  0  0
  181.9810  178.9190  138.0250 C   0  0  0  0  0  2  0  0  0  0  0  0
  180.9120  177.8200  138.1460 C   0  0  1  0  0  0  0  0  0  0  0  0
  179.5650  178.4670  138.4050 C   0  0  0  0  0  1  0  0  0  0  0  0
  182.6960  176.7020  139.5600 C   0  0  0  0  0  2  0  0  0  0  0  0
  182.6000  179.2610  139.3790 C   0  0  0  0  0  2  0  0  0  0  0  0
  183.2940  178.0440  140.0070 C   0  0  1  0  0  3  0  0  0  0  0  0
  180.8480  177.1250  136.9410 O   0  0  0  0  0  1  0  0  0  0  0  0
  181.2010  176.8260  139.2820 C   0  0  0  0  0  2  0  0  0  0  0  0
  1  6  1  0  0  0  0
  2 11  1  0  0  0  0
  2 12  1  1  0  0  0
  3 16  1  6  0  0  0
  3 10  1  0  0  0  0
  4  8  2  0  0  0  0
  5  1  2  0  0  0  0
  7  9  2  0  0  0  0
  7  4  1  0  0  0  0
  8  1  1  0  0  0  0
  9  5  1  0  0  0  0
 11 10  1  6  0  0  0
 11  7  1  0  0  0  0
 12 15  1  0  0  0  0
 13 35  1  6  0  0  0
 13  2  1  0  0  0  0
 14  3  1  0  0  0  0
 14 13  1  0  0  0  0
 15  4  1  0  0  0  0
 16 17  1  1  0  0  0
 18 16  1  0  0  0  0
 19 18  1  0  0  0  0
 20 19  2  0  0  0  0
 21 19  1  0  0  0  0
 22 21  1  6  0  0  0
 23 25  1  0  0  0  0
 24 22  1  0  0  0  0
 25 26  1  6  0  0  0
 25 22  1  0  0  0  0
 25 28  1  0  0  0  0
 27 23  1  0  0  0  0
 27 24  1  0  0  0  0
 29 28  1  1  0  0  0
 29 34  1  0  0  0  0
 31 32  2  0  0  0  0
 32 30  1  0  0  0  0
 33 29  1  0  0  0  0
 33 31  1  0  0  0  0
 34 32  1  0  0  0  0
 36 37  1  0  0  0  0
 36 40  1  0  0  0  0
 37 38  1  1  0  0  0
 37 43  1  0  0  0  0
 39 41  1  0  0  0  0
 40 41  1  0  0  0  0
 41 35  1  1  0  0  0
 42 37  1  0  0  0  0
 43 39  1  0  0  0  0
M  END
>  <MODEL>
8

>  <REMARK>
 VINA RESULT:      -9.0      1.776      2.597
  Name = 
  9 active torsions:
  status: ('A' for Active; 'I' for Inactive)
    1  A    between atoms: O_1  and  C_34
    2  A    between atoms: O_1  and  C_35
    3  A    between atoms: C_2  and  C_6
    4  A    between atoms: C_2  and  C_13
    5  A    between atoms: O_3  and  C_4
    6  A    between atoms: O_3  and  C_12
    7  A    between atoms: C_6  and  C_12
    8  A    between atoms: C_11  and  O_14
    9  A    between atoms: O_14  and  C_22
                            x       y       z     vdW  Elec       q    Type
                         _______ _______ _______ _____ _____    ______ ____

>  <TORSDO>
F 9

$$$$
=
 OpenBabel10262422093D

 43 48  0  0  1  0  0  0  0  0999 V2000
  187.6830  177.8630  147.3650 C   0  0  0  0  0  0  0  0  0  0  0  0
  185.3870  178.1800  142.7660 C   0  0  1  0  0  3  0  0  0  0  0  0
  187.5550  178.7190  140.9950 C   0  0  2  0  0  3  0  0  0  0  0  0
  186.2060  178.4310  145.5240 C   0  0  0  0  0  0  0  0  0  0  0  0
  188.5680  177.2520  146.4720 C   0  0  0  0  0  3  0  0  0  0  0  0
  187.9950  177.8900  148.8190 C   0  0  0  0  0  1  0  0  0  0  0  0
  187.0900  177.7970  144.6230 C   0  0  0  0  0  0  0  0  0  0  0  0
  186.5020  178.4450  146.8920 C   0  0  0  0  0  3  0  0  0  0  0  0
  188.2710  177.2180  145.1080 C   0  0  0  0  0  3  0  0  0  0  0  0
  187.8030  178.6390  142.4520 N   0  0  0  0  0  2  0  0  0  0  0  0
  186.8300  177.7830  143.1390 C   0  0  2  0  0  3  0  0  0  0  0  0
  184.9260  179.3760  143.5900 C   0  0  0  0  0  2  0  0  0  0  0  0
  185.3220  178.5390  141.2800 C   0  0  1  0  0  3  0  0  0  0  0  0
  186.4170  177.9820  140.5980 O   0  0  0  0  0  0  0  0  0  0  0  0
  184.8950  178.9990  145.0640 C   0  0  0  0  0  2  0  0  0  0  0  0
  188.7800  178.2330  140.2220 C   0  0  1  0  0  3  0  0  0  0  0  0
  189.5530  177.2210  141.0530 C   0  0  0  0  0  1  0  0  0  0  0  0
  188.3630  177.5870  138.9070 C   0  0  0  0  0  2  0  0  0  0  0  0
  189.3530  177.8980  137.8300 C   0  0  0  0  0  0  0  0  0  0  0  0
  189.2250  178.9630  137.1720 O   0  0  0  0  0  0  0  0  0  0  0  0
  190.4120  177.0370  137.5350 O   0  0  0  0  0  0  0  0  0  0  0  0
  190.2940  175.6180  137.6070 C   0  0  1  0  0  3  0  0  0  0  0  0
  191.0480  173.6090  136.5250 C   0  0  0  0  0  2  0  0  0  0  0  0
  189.1520  175.1350  136.7340 C   0  0  0  0  0  2  0  0  0  0  0  0
  191.5620  174.9050  137.1160 C   0  0  1  0  0  0  0  0  0  0  0  0
  192.2820  175.6660  135.9940 C   0  0  0  0  0  1  0  0  0  0  0  0
  189.6150  173.8480  136.0790 C   0  0  0  0  0  2  0  0  0  0  0  0
  192.4420  174.5840  138.1800 O   0  0  0  0  0  0  0  0  0  0  0  0
  193.7700  174.5800  137.7170 C   0  0  2  0  0  3  0  0  0  0  0  0
  196.6710  174.9050  140.0340 C   0  0  0  0  0  1  0  0  0  0  0  0
  195.4880  173.2660  138.6830 N   0  0  0  0  0  0  0  0  0  0  0  0
  195.5890  174.4740  139.1090 C   0  0  0  0  0  0  0  0  0  0  0  0
  194.3400  173.1610  137.7950 C   0  0  0  0  0  2  0  0  0  0  0  0
  194.6050  175.3600  138.6140 N   0  0  0  0  0  2  0  0  0  0  0  0
  184.1330  178.0590  140.7270 O   0  0  0  0  0  0  0  0  0  0  0  0
  181.7580  179.8150  138.5310 C   0  0  0  0  0  2  0  0  0  0  0  0
  181.6280  178.5720  137.6360 C   0  0  1  0  0  0  0  0  0  0  0  0
  180.3040  177.8910  137.9240 C   0  0  0  0  0  1  0  0  0  0  0  0
  184.0420  178.2270  138.3320 C   0  0  0  0  0  2  0  0  0  0  0  0
  182.4160  179.4850  139.8690 C   0  0  0  0  0  2  0  0  0  0  0  0
  183.8370  178.9340  139.6790 C   0  0  1  0  0  3  0  0  0  0  0  0
  181.6390  178.9780  136.3030 O   0  0  0  0  0  1  0  0  0  0  0  0
  182.7570  177.5540  137.8570 C   0  0  0  0  0  2  0  0  0  0  0  0
  1  6  1  0  0  0  0
  2 11  1  0  0  0  0
  2 12  1  1  0  0  0
  3 16  1  6  0  0  0
  3 10  1  0  0  0  0
  4  8  2  0  0  0  0
  5  1  2  0  0  0  0
  7  9  2  0  0  0  0
  7  4  1  0  0  0  0
  8  1  1  0  0  0  0
  9  5  1  0  0  0  0
 11 10  1  6  0  0  0
 11  7  1  0  0  0  0
 12 15  1  0  0  0  0
 13 35  1  6  0  0  0
 13  2  1  0  0  0  0
 14  3  1  0  0  0  0
 14 13  1  0  0  0  0
 15  4  1  0  0  0  0
 16 17  1  1  0  0  0
 18 16  1  0  0  0  0
 19 18  1  0  0  0  0
 20 19  2  0  0  0  0
 21 19  1  0  0  0  0
 22 21  1  6  0  0  0
 23 25  1  0  0  0  0
 24 22  1  0  0  0  0
 25 26  1  6  0  0  0
 25 22  1  0  0  0  0
 25 28  1  0  0  0  0
 27 23  1  0  0  0  0
 27 24  1  0  0  0  0
 29 33  1  0  0  0  0
 29 28  1  1  0  0  0
 29 34  1  0  0  0  0
 31 32  2  0  0  0  0
 32 30  1  0  0  0  0
 33 31  1  0  0  0  0
 34 32  1  0  0  0  0
 36 40  1  0  0  0  0
 37 43  1  0  0  0  0
 37 38  1  1  0  0  0
 37 36  1  0  0  0  0
 39 41  1  0  0  0  0
 41 40  1  0  0  0  0
 41 35  1  1  0  0  0
 42 37  1  0  0  0  0
 43 39  1  0  0  0  0
M  END
>  <MODEL>
9

>  <REMARK>
 VINA RESULT:      -9.0      2.161      3.104
  Name = 
  9 active torsions:
  status: ('A' for Active; 'I' for Inactive)
    1  A    between atoms: O_1  and  C_34
    2  A    between atoms: O_1  and  C_35
    3  A    between atoms: C_2  and  C_6
    4  A    between atoms: C_2  and  C_13
    5  A    between atoms: O_3  and  C_4
    6  A    between atoms: O_3  and  C_12
    7  A    between atoms: C_6  and  C_12
    8  A    between atoms: C_11  and  O_14
    9  A    between atoms: O_14  and  C_22
                            x       y       z     vdW  Elec       q    Type
                         _______ _______ _______ _____ _____    ______ ____

>  <TORSDO>
F 9

$$$$
