=
 OpenBabel10262419453D

 25 27  0  0  0  0  0  0  0  0999 V2000
  187.4020  177.8520  145.8180 C   0  0  0  0  0  0  0  0  0  0  0  0
  186.8710  178.0740  144.5320 C   0  0  0  0  0  0  0  0  0  0  0  0
  185.2140  178.3140  146.7510 C   0  0  0  0  0  3  0  0  0  0  0  0
  188.0550  178.0730  141.0500 N   0  0  0  0  0  2  0  0  0  0  0  0
  184.7230  178.5270  145.5030 N   0  0  0  0  0  0  0  0  0  0  0  0
  184.9850  178.6450  143.1200 C   0  0  0  0  0  0  0  0  0  0  0  0
  183.6140  178.9900  142.9430 N   0  0  0  0  0  1  0  0  0  0  0  0
  187.7290  178.2630  139.6640 C   0  0  0  0  0  0  0  0  0  0  0  0
  187.6540  177.9790  143.4200 N   0  0  0  0  0  0  0  0  0  0  0  0
  186.5570  177.9720  146.9280 C   0  0  0  0  0  3  0  0  0  0  0  0
  185.8160  178.5330  142.0040 C   0  0  0  0  0  3  0  0  0  0  0  0
  187.1660  178.1970  142.1680 C   0  0  0  0  0  0  0  0  0  0  0  0
  185.5090  178.4180  144.3980 C   0  0  0  0  0  0  0  0  0  0  0  0
  186.5570  178.5700  139.3150 O   0  0  0  0  0  0  0  0  0  0  0  0
  188.8140  177.4600  146.0210 C   0  0  0  0  0  0  0  0  0  0  0  0
  191.4920  176.6600  146.3240 C   0  0  0  0  0  3  0  0  0  0  0  0
  189.4150  177.4470  147.3000 C   0  0  0  0  0  0  0  0  0  0  0  0
  190.7490  177.0500  147.4400 C   0  0  0  0  0  3  0  0  0  0  0  0
  190.9060  176.6730  145.0580 C   0  0  0  0  0  3  0  0  0  0  0  0
  188.5610  177.9750  148.7440 Cl  0  0  0  0  0  0  0  0  0  0  0  0
  189.5760  177.0700  144.9090 C   0  0  0  0  0  3  0  0  0  0  0  0
  188.7930  178.0920  138.6160 C   0  0  0  0  0  0  0  0  0  0  0  0
  190.0850  177.6300  139.2630 C   0  0  0  0  0  1  0  0  0  0  0  0
  188.3510  177.0570  137.5980 C   0  0  0  0  0  1  0  0  0  0  0  0
  189.0260  179.3010  137.9570 O   0  0  0  0  0  1  0  0  0  0  0  0
  1 15  1  0  0  0  0
  1 10  1  0  0  0  0
  2  1  2  0  0  0  0
  3 10  2  0  0  0  0
  4 12  1  0  0  0  0
  5  3  1  0  0  0  0
  6 13  1  0  0  0  0
  7  6  1  0  0  0  0
  8  4  1  0  0  0  0
  9  2  1  0  0  0  0
 11 12  1  0  0  0  0
 11  6  2  0  0  0  0
 12  9  2  0  0  0  0
 13  2  1  0  0  0  0
 13  5  2  0  0  0  0
 14  8  2  0  0  0  0
 15 17  1  0  0  0  0
 16 18  1  0  0  0  0
 17 18  2  0  0  0  0
 17 20  1  0  0  0  0
 19 16  2  0  0  0  0
 21 19  1  0  0  0  0
 21 15  2  0  0  0  0
 22 23  1  0  0  0  0
 22  8  1  0  0  0  0
 24 22  1  0  0  0  0
 25 22  1  0  0  0  0
M  END
>  <MODEL>
1

>  <REMARK>
 VINA RESULT:     -10.5      0.000      0.000
  Name = 
  2 active torsions:
  status: ('A' for Active; 'I' for Inactive)
    1  A    between atoms: C_1  and  C_5
    2  A    between atoms: C_2  and  C_15
                            x       y       z     vdW  Elec       q    Type
                         _______ _______ _______ _____ _____    ______ ____

>  <TORSDO>
F 2

$$$$
=
 OpenBabel10262419453D

 25 27  0  0  0  0  0  0  0  0999 V2000
  187.1600  177.7480  144.7540 C   0  0  0  0  0  0  0  0  0  0  0  0
  188.1510  177.6510  143.7570 C   0  0  0  0  0  0  0  0  0  0  0  0
  188.8180  177.1100  146.4010 C   0  0  0  0  0  3  0  0  0  0  0  0
  188.4120  178.0770  140.1140 N   0  0  0  0  0  2  0  0  0  0  0  0
  189.7590  177.0180  145.4240 N   0  0  0  0  0  0  0  0  0  0  0  0
  190.4440  177.1740  143.1290 C   0  0  0  0  0  0  0  0  0  0  0  0
  191.7790  176.8020  143.4570 N   0  0  0  0  0  1  0  0  0  0  0  0
  189.2520  178.0310  138.9500 C   0  0  0  0  0  0  0  0  0  0  0  0
  187.8610  177.8960  142.4480 N   0  0  0  0  0  0  0  0  0  0  0  0
  187.5090  177.4770  146.0830 C   0  0  0  0  0  3  0  0  0  0  0  0
  190.1100  177.4370  141.8000 C   0  0  0  0  0  3  0  0  0  0  0  0
  188.7980  177.8000  141.4660 C   0  0  0  0  0  0  0  0  0  0  0  0
  189.4620  177.2770  144.1220 C   0  0  0  0  0  0  0  0  0  0  0  0
  190.4710  177.7230  139.0480 O   0  0  0  0  0  0  0  0  0  0  0  0
  185.7760  178.1650  144.4380 C   0  0  0  0  0  0  0  0  0  0  0  0
  183.1750  178.9760  143.7460 C   0  0  0  0  0  3  0  0  0  0  0  0
  184.8940  178.6560  145.4280 C   0  0  0  0  0  0  0  0  0  0  0  0
  183.6010  179.0550  145.0740 C   0  0  0  0  0  3  0  0  0  0  0  0
  184.0390  178.4900  142.7650 C   0  0  0  0  0  3  0  0  0  0  0  0
  185.3400  178.7330  147.1270 Cl  0  0  0  0  0  0  0  0  0  0  0  0
  185.3310  178.0880  143.1100 C   0  0  0  0  0  3  0  0  0  0  0  0
  188.6780  178.3530  137.5990 C   0  0  0  0  0  0  0  0  0  0  0  0
  189.3900  177.5460  136.5300 C   0  0  0  0  0  1  0  0  0  0  0  0
  187.2000  178.0120  137.5740 C   0  0  0  0  0  1  0  0  0  0  0  0
  188.8310  179.7110  137.3140 O   0  0  0  0  0  1  0  0  0  0  0  0
  1 10  1  0  0  0  0
  2 13  1  0  0  0  0
  2  1  2  0  0  0  0
  4 12  1  0  0  0  0
  5  3  1  0  0  0  0
  6  7  1  0  0  0  0
  6 13  1  0  0  0  0
  8 14  2  0  0  0  0
  8  4  1  0  0  0  0
  9  2  1  0  0  0  0
 10  3  2  0  0  0  0
 11  6  2  0  0  0  0
 12 11  1  0  0  0  0
 12  9  2  0  0  0  0
 13  5  2  0  0  0  0
 15  1  1  0  0  0  0
 15 17  1  0  0  0  0
 16 18  1  0  0  0  0
 17 20  1  0  0  0  0
 18 17  2  0  0  0  0
 19 21  1  0  0  0  0
 19 16  2  0  0  0  0
 21 15  2  0  0  0  0
 22  8  1  0  0  0  0
 23 22  1  0  0  0  0
 24 22  1  0  0  0  0
 25 22  1  0  0  0  0
M  END
>  <MODEL>
2

>  <REMARK>
 VINA RESULT:     -10.4      1.992      4.451
  Name = 
  2 active torsions:
  status: ('A' for Active; 'I' for Inactive)
    1  A    between atoms: C_1  and  C_5
    2  A    between atoms: C_2  and  C_15
                            x       y       z     vdW  Elec       q    Type
                         _______ _______ _______ _____ _____    ______ ____

>  <TORSDO>
F 2

$$$$
=
 OpenBabel10262419453D

 25 27  0  0  0  0  0  0  0  0999 V2000
  188.9360  177.5630  145.0770 C   0  0  0  0  0  0  0  0  0  0  0  0
  187.5700  177.8620  144.8960 C   0  0  0  0  0  0  0  0  0  0  0  0
  188.5770  177.5960  147.4730 C   0  0  0  0  0  3  0  0  0  0  0  0
  185.2500  178.4480  142.1040 N   0  0  0  0  0  2  0  0  0  0  0  0
  187.2650  177.8860  147.2770 N   0  0  0  0  0  0  0  0  0  0  0  0
  185.3890  178.3270  145.8450 C   0  0  0  0  0  0  0  0  0  0  0  0
  184.5210  178.4950  146.9620 N   0  0  0  0  0  1  0  0  0  0  0  0
  183.9090  178.7560  141.6930 C   0  0  0  0  0  0  0  0  0  0  0  0
  187.0420  178.0130  143.6490 N   0  0  0  0  0  0  0  0  0  0  0  0
  189.4300  177.4280  146.3810 C   0  0  0  0  0  3  0  0  0  0  0  0
  184.8820  178.4690  144.5530 C   0  0  0  0  0  3  0  0  0  0  0  0
  185.7290  178.3090  143.4480 C   0  0  0  0  0  0  0  0  0  0  0  0
  186.7430  178.0230  146.0280 C   0  0  0  0  0  0  0  0  0  0  0  0
  183.0000  178.9350  142.5480 O   0  0  0  0  0  0  0  0  0  0  0  0
  189.8460  177.3520  143.9300 C   0  0  0  0  0  0  0  0  0  0  0  0
  191.5630  176.8540  141.7620 C   0  0  0  0  0  3  0  0  0  0  0  0
  190.8370  178.2950  143.5730 C   0  0  0  0  0  0  0  0  0  0  0  0
  191.6850  178.0380  142.4910 C   0  0  0  0  0  3  0  0  0  0  0  0
  190.5860  175.9200  142.1070 C   0  0  0  0  0  3  0  0  0  0  0  0
  191.0160  179.8310  144.4090 Cl  0  0  0  0  0  0  0  0  0  0  0  0
  189.7340  176.1690  143.1840 C   0  0  0  0  0  3  0  0  0  0  0  0
  183.5810  178.8650  140.2300 C   0  0  0  0  0  0  0  0  0  0  0  0
  183.7410  177.5110  139.5640 C   0  0  0  0  0  1  0  0  0  0  0  0
  182.1490  179.3360  140.0580 C   0  0  0  0  0  1  0  0  0  0  0  0
  184.4330  179.7780  139.6050 O   0  0  0  0  0  1  0  0  0  0  0  0
  1 10  1  0  0  0  0
  2  1  2  0  0  0  0
  2 13  1  0  0  0  0
  4 12  1  0  0  0  0
  5  3  1  0  0  0  0
  6 13  1  0  0  0  0
  6  7  1  0  0  0  0
  8  4  1  0  0  0  0
  8 14  2  0  0  0  0
  9  2  1  0  0  0  0
 10  3  2  0  0  0  0
 11  6  2  0  0  0  0
 12  9  2  0  0  0  0
 12 11  1  0  0  0  0
 13  5  2  0  0  0  0
 15  1  1  0  0  0  0
 16 19  2  0  0  0  0
 16 18  1  0  0  0  0
 17 15  1  0  0  0  0
 17 20  1  0  0  0  0
 18 17  2  0  0  0  0
 19 21  1  0  0  0  0
 21 15  2  0  0  0  0
 22  8  1  0  0  0  0
 23 22  1  0  0  0  0
 24 22  1  0  0  0  0
 25 22  1  0  0  0  0
M  END
>  <MODEL>
3

>  <REMARK>
 VINA RESULT:     -10.2      2.569      3.910
  Name = 
  2 active torsions:
  status: ('A' for Active; 'I' for Inactive)
    1  A    between atoms: C_1  and  C_5
    2  A    between atoms: C_2  and  C_15
                            x       y       z     vdW  Elec       q    Type
                         _______ _______ _______ _____ _____    ______ ____

>  <TORSDO>
F 2

$$$$
=
 OpenBabel10262419453D

 25 27  0  0  0  0  0  0  0  0999 V2000
  189.4220  177.3860  144.3400 C   0  0  0  0  0  0  0  0  0  0  0  0
  189.1190  177.5640  142.9750 C   0  0  0  0  0  0  0  0  0  0  0  0
  191.6800  176.7750  143.7120 C   0  0  0  0  0  3  0  0  0  0  0  0
  186.2170  178.5030  140.9200 N   0  0  0  0  0  2  0  0  0  0  0  0
  191.3670  176.9480  142.4010 N   0  0  0  0  0  0  0  0  0  0  0  0
  189.8170  177.5020  140.6540 C   0  0  0  0  0  0  0  0  0  0  0  0
  190.8040  177.2820  139.6500 N   0  0  0  0  0  1  0  0  0  0  0  0
  185.6940  178.7310  139.6020 C   0  0  0  0  0  0  0  0  0  0  0  0
  187.8720  177.9370  142.5720 N   0  0  0  0  0  0  0  0  0  0  0  0
  190.7170  176.9930  144.6980 C   0  0  0  0  0  3  0  0  0  0  0  0
  188.5300  177.8900  140.2810 C   0  0  0  0  0  3  0  0  0  0  0  0
  187.5520  178.1060  141.2600 C   0  0  0  0  0  0  0  0  0  0  0  0
  190.1220  177.3320  142.0100 C   0  0  0  0  0  0  0  0  0  0  0  0
  186.4270  178.5870  138.5860 O   0  0  0  0  0  0  0  0  0  0  0  0
  188.4220  177.6420  145.3990 C   0  0  0  0  0  0  0  0  0  0  0  0
  186.4700  178.1840  147.3480 C   0  0  0  0  0  3  0  0  0  0  0  0
  188.7500  177.5860  146.7730 C   0  0  0  0  0  0  0  0  0  0  0  0
  187.7710  177.8560  147.7350 C   0  0  0  0  0  3  0  0  0  0  0  0
  186.1380  178.2380  145.9950 C   0  0  0  0  0  3  0  0  0  0  0  0
  190.3510  177.1280  147.3370 Cl  0  0  0  0  0  0  0  0  0  0  0  0
  187.1090  177.9690  145.0270 C   0  0  0  0  0  3  0  0  0  0  0  0
  184.2600  179.1460  139.4280 C   0  0  0  0  0  0  0  0  0  0  0  0
  183.6190  178.3300  138.3210 C   0  0  0  0  0  1  0  0  0  0  0  0
  183.4970  178.9160  140.7190 C   0  0  0  0  0  1  0  0  0  0  0  0
  184.1810  180.4990  139.0940 O   0  0  0  0  0  1  0  0  0  0  0  0
  1 10  1  0  0  0  0
  1 15  1  0  0  0  0
  2  1  2  0  0  0  0
  3 10  2  0  0  0  0
  4 12  1  0  0  0  0
  5  3  1  0  0  0  0
  6 13  1  0  0  0  0
  7  6  1  0  0  0  0
  8  4  1  0  0  0  0
  9  2  1  0  0  0  0
 11  6  2  0  0  0  0
 11 12  1  0  0  0  0
 12  9  2  0  0  0  0
 13  5  2  0  0  0  0
 13  2  1  0  0  0  0
 14  8  2  0  0  0  0
 15 17  1  0  0  0  0
 16 18  1  0  0  0  0
 17 20  1  0  0  0  0
 17 18  2  0  0  0  0
 19 16  2  0  0  0  0
 21 15  2  0  0  0  0
 21 19  1  0  0  0  0
 22  8  1  0  0  0  0
 22 24  1  0  0  0  0
 23 22  1  0  0  0  0
 25 22  1  0  0  0  0
M  END
>  <MODEL>
4

>  <REMARK>
 VINA RESULT:      -9.7      2.078      4.469
  Name = 
  2 active torsions:
  status: ('A' for Active; 'I' for Inactive)
    1  A    between atoms: C_1  and  C_5
    2  A    between atoms: C_2  and  C_15
                            x       y       z     vdW  Elec       q    Type
                         _______ _______ _______ _____ _____    ______ ____

>  <TORSDO>
F 2

$$$$
=
 OpenBabel10262419453D

 25 27  0  0  0  0  0  0  0  0999 V2000
  183.4200  178.3180  141.4130 C   0  0  0  0  0  0  0  0  0  0  0  0
  184.2900  178.3010  142.5220 C   0  0  0  0  0  0  0  0  0  0  0  0
  181.6250  179.0030  142.8890 C   0  0  0  0  0  3  0  0  0  0  0  0
  187.8200  177.5410  143.2140 N   0  0  0  0  0  2  0  0  0  0  0  0
  182.4780  178.9770  143.9460 N   0  0  0  0  0  0  0  0  0  0  0  0
  184.6510  178.6130  144.8990 C   0  0  0  0  0  0  0  0  0  0  0  0
  184.1820  178.9480  146.2020 N   0  0  0  0  0  1  0  0  0  0  0  0
  188.8660  177.4500  144.1950 C   0  0  0  0  0  0  0  0  0  0  0  0
  185.5990  177.9510  142.3860 N   0  0  0  0  0  0  0  0  0  0  0  0
  182.0810  178.6770  141.6100 C   0  0  0  0  0  3  0  0  0  0  0  0
  185.9870  178.2530  144.7200 C   0  0  0  0  0  3  0  0  0  0  0  0
  186.4560  177.9180  143.4430 C   0  0  0  0  0  0  0  0  0  0  0  0
  183.7870  178.6370  143.7970 C   0  0  0  0  0  0  0  0  0  0  0  0
  188.6370  177.7150  145.4060 O   0  0  0  0  0  0  0  0  0  0  0  0
  183.8940  178.0060  140.0470 C   0  0  0  0  0  0  0  0  0  0  0  0
  184.8280  177.5050  137.4440 C   0  0  0  0  0  3  0  0  0  0  0  0
  183.3120  176.9830  139.2640 C   0  0  0  0  0  0  0  0  0  0  0  0
  183.7860  176.7400  137.9710 C   0  0  0  0  0  3  0  0  0  0  0  0
  185.4090  178.5150  138.2110 C   0  0  0  0  0  3  0  0  0  0  0  0
  182.0340  175.9440  139.8790 Cl  0  0  0  0  0  0  0  0  0  0  0  0
  184.9440  178.7630  139.5040 C   0  0  0  0  0  3  0  0  0  0  0  0
  190.2490  177.0350  143.7770 C   0  0  0  0  0  0  0  0  0  0  0  0
  191.0950  176.7530  145.0040 C   0  0  0  0  0  1  0  0  0  0  0  0
  190.1750  175.7810  142.9270 C   0  0  0  0  0  1  0  0  0  0  0  0
  190.8580  178.0480  143.0330 O   0  0  0  0  0  1  0  0  0  0  0  0
  1 10  2  0  0  0  0
  1  2  1  0  0  0  0
  2 13  2  0  0  0  0
  3  5  2  0  0  0  0
  4 12  1  0  0  0  0
  4  8  1  0  0  0  0
  6  7  1  0  0  0  0
  8 14  2  0  0  0  0
  9  2  1  0  0  0  0
  9 12  2  0  0  0  0
 10  3  1  0  0  0  0
 11  6  2  0  0  0  0
 12 11  1  0  0  0  0
 13  5  1  0  0  0  0
 13  6  1  0  0  0  0
 15  1  1  0  0  0  0
 16 18  2  0  0  0  0
 16 19  1  0  0  0  0
 17 20  1  0  0  0  0
 17 15  2  0  0  0  0
 18 17  1  0  0  0  0
 19 21  2  0  0  0  0
 21 15  1  0  0  0  0
 22  8  1  0  0  0  0
 22 23  1  0  0  0  0
 24 22  1  0  0  0  0
 25 22  1  0  0  0  0
M  END
>  <MODEL>
5

>  <REMARK>
 VINA RESULT:      -9.6      3.583      6.467
  Name = 
  2 active torsions:
  status: ('A' for Active; 'I' for Inactive)
    1  A    between atoms: C_1  and  C_5
    2  A    between atoms: C_2  and  C_15
                            x       y       z     vdW  Elec       q    Type
                         _______ _______ _______ _____ _____    ______ ____

>  <TORSDO>
F 2

$$$$
=
 OpenBabel10262419453D

 25 27  0  0  0  0  0  0  0  0999 V2000
  185.5370  178.3010  144.3400 C   0  0  0  0  0  0  0  0  0  0  0  0
  185.4040  178.4440  142.9440 C   0  0  0  0  0  0  0  0  0  0  0  0
  183.1810  178.8180  144.5710 C   0  0  0  0  0  3  0  0  0  0  0  0
  187.5420  178.2300  139.9600 N   0  0  0  0  0  2  0  0  0  0  0  0
  183.0740  178.9550  143.2240 N   0  0  0  0  0  0  0  0  0  0  0  0
  184.0160  178.9260  141.0160 C   0  0  0  0  0  0  0  0  0  0  0  0
  182.7610  179.2600  140.4300 N   0  0  0  0  0  1  0  0  0  0  0  0
  187.6340  178.3340  138.5310 C   0  0  0  0  0  0  0  0  0  0  0  0
  186.4720  178.2810  142.1140 N   0  0  0  0  0  0  0  0  0  0  0  0
  184.4090  178.4890  145.1490 C   0  0  0  0  0  3  0  0  0  0  0  0
  185.1310  178.7470  140.1970 C   0  0  0  0  0  3  0  0  0  0  0  0
  186.3710  178.4210  140.7640 C   0  0  0  0  0  0  0  0  0  0  0  0
  184.1440  178.7780  142.4020 C   0  0  0  0  0  0  0  0  0  0  0  0
  186.6180  178.6200  137.8400 O   0  0  0  0  0  0  0  0  0  0  0  0
  186.8230  177.9220  144.9650 C   0  0  0  0  0  0  0  0  0  0  0  0
  189.2730  177.1270  146.0890 C   0  0  0  0  0  3  0  0  0  0  0  0
  187.1330  178.2480  146.3050 C   0  0  0  0  0  0  0  0  0  0  0  0
  188.3560  177.8490  146.8540 C   0  0  0  0  0  3  0  0  0  0  0  0
  188.9760  176.8050  144.7650 C   0  0  0  0  0  3  0  0  0  0  0  0
  186.0520  179.2000  147.3130 Cl  0  0  0  0  0  0  0  0  0  0  0  0
  187.7580  177.2000  144.2080 C   0  0  0  0  0  3  0  0  0  0  0  0
  188.9520  178.1010  137.8460 C   0  0  0  0  0  0  0  0  0  0  0  0
  189.9760  177.6140  138.8540 C   0  0  0  0  0  1  0  0  0  0  0  0
  188.7890  177.0530  136.7610 C   0  0  0  0  0  1  0  0  0  0  0  0
  189.4170  179.2820  137.2660 O   0  0  0  0  0  1  0  0  0  0  0  0
  1 15  1  0  0  0  0
  1 10  1  0  0  0  0
  2  1  2  0  0  0  0
  3 10  2  0  0  0  0
  4 12  1  0  0  0  0
  5  3  1  0  0  0  0
  6 13  1  0  0  0  0
  7  6  1  0  0  0  0
  8  4  1  0  0  0  0
  9  2  1  0  0  0  0
 11 12  1  0  0  0  0
 11  6  2  0  0  0  0
 12  9  2  0  0  0  0
 13  2  1  0  0  0  0
 13  5  2  0  0  0  0
 14  8  2  0  0  0  0
 15 17  1  0  0  0  0
 16 18  1  0  0  0  0
 17 18  2  0  0  0  0
 17 20  1  0  0  0  0
 19 16  2  0  0  0  0
 21 19  1  0  0  0  0
 21 15  2  0  0  0  0
 22  8  1  0  0  0  0
 22 23  1  0  0  0  0
 24 22  1  0  0  0  0
 25 22  1  0  0  0  0
M  END
>  <MODEL>
6

>  <REMARK>
 VINA RESULT:      -9.4      1.453      2.125
  Name = 
  2 active torsions:
  status: ('A' for Active; 'I' for Inactive)
    1  A    between atoms: C_1  and  C_5
    2  A    between atoms: C_2  and  C_15
                            x       y       z     vdW  Elec       q    Type
                         _______ _______ _______ _____ _____    ______ ____

>  <TORSDO>
F 2

$$$$
=
 OpenBabel10262419453D

 25 27  0  0  0  0  0  0  0  0999 V2000
  188.2320  177.8790  143.5350 C   0  0  0  0  0  0  0  0  0  0  0  0
  186.8640  178.1130  143.7790 C   0  0  0  0  0  0  0  0  0  0  0  0
  188.6120  177.8780  145.9280 C   0  0  0  0  0  3  0  0  0  0  0  0
  183.7870  178.6070  141.8280 N   0  0  0  0  0  2  0  0  0  0  0  0
  187.2900  178.1070  146.1420 N   0  0  0  0  0  0  0  0  0  0  0  0
  185.0520  178.4670  145.3510 C   0  0  0  0  0  0  0  0  0  0  0  0
  184.5560  178.5860  146.6800 N   0  0  0  0  0  1  0  0  0  0  0  0
  182.3720  178.8530  141.8460 C   0  0  0  0  0  0  0  0  0  0  0  0
  185.9780  178.2470  142.7530 N   0  0  0  0  0  0  0  0  0  0  0  0
  189.1020  177.7580  144.6260 C   0  0  0  0  0  3  0  0  0  0  0  0
  184.1740  178.5930  144.2740 C   0  0  0  0  0  3  0  0  0  0  0  0
  184.6540  178.4810  142.9620 C   0  0  0  0  0  0  0  0  0  0  0  0
  186.4110  178.2270  145.1110 C   0  0  0  0  0  0  0  0  0  0  0  0
  181.7560  178.9820  142.9390 O   0  0  0  0  0  0  0  0  0  0  0  0
  188.7630  177.7190  142.1630 C   0  0  0  0  0  0  0  0  0  0  0  0
  189.6880  177.4570  139.5230 C   0  0  0  0  0  3  0  0  0  0  0  0
  189.7010  176.7150  141.8320 C   0  0  0  0  0  0  0  0  0  0  0  0
  190.1570  176.5950  140.5150 C   0  0  0  0  0  3  0  0  0  0  0  0
  188.7640  178.4510  139.8430 C   0  0  0  0  0  3  0  0  0  0  0  0
  190.3770  175.6280  143.0370 Cl  0  0  0  0  0  0  0  0  0  0  0  0
  188.3050  178.5810  141.1550 C   0  0  0  0  0  3  0  0  0  0  0  0
  181.6130  178.9560  140.5520 C   0  0  0  0  0  0  0  0  0  0  0  0
  182.5510  179.3810  139.4380 C   0  0  0  0  0  1  0  0  0  0  0  0
  181.0080  177.6090  140.2030 C   0  0  0  0  0  1  0  0  0  0  0  0
  180.5870  179.8960  140.6620 O   0  0  0  0  0  1  0  0  0  0  0  0
  1  2  2  0  0  0  0
  1 10  1  0  0  0  0
  2 13  1  0  0  0  0
  3  5  1  0  0  0  0
  4  8  1  0  0  0  0
  4 12  1  0  0  0  0
  6  7  1  0  0  0  0
  8 14  2  0  0  0  0
  9 12  2  0  0  0  0
  9  2  1  0  0  0  0
 10  3  2  0  0  0  0
 11  6  2  0  0  0  0
 12 11  1  0  0  0  0
 13  6  1  0  0  0  0
 13  5  2  0  0  0  0
 15  1  1  0  0  0  0
 16 19  2  0  0  0  0
 16 18  1  0  0  0  0
 17 15  1  0  0  0  0
 17 20  1  0  0  0  0
 18 17  2  0  0  0  0
 19 21  1  0  0  0  0
 21 15  2  0  0  0  0
 22 25  1  0  0  0  0
 22  8  1  0  0  0  0
 23 22  1  0  0  0  0
 24 22  1  0  0  0  0
M  END
>  <MODEL>
7

>  <REMARK>
 VINA RESULT:      -9.4      3.001      5.142
  Name = 
  2 active torsions:
  status: ('A' for Active; 'I' for Inactive)
    1  A    between atoms: C_1  and  C_5
    2  A    between atoms: C_2  and  C_15
                            x       y       z     vdW  Elec       q    Type
                         _______ _______ _______ _____ _____    ______ ____

>  <TORSDO>
F 2

$$$$
=
 OpenBabel10262419453D

 25 27  0  0  0  0  0  0  0  0999 V2000
  188.0330  177.7930  144.7800 C   0  0  0  0  0  0  0  0  0  0  0  0
  188.6740  177.6700  143.5310 C   0  0  0  0  0  0  0  0  0  0  0  0
  190.1650  177.3930  145.8600 C   0  0  0  0  0  3  0  0  0  0  0  0
  187.7640  177.8040  139.9700 N   0  0  0  0  0  2  0  0  0  0  0  0
  190.7630  177.2750  144.6460 N   0  0  0  0  0  0  0  0  0  0  0  0
  190.6920  177.2770  142.2460 C   0  0  0  0  0  0  0  0  0  0  0  0
  192.0890  177.0120  142.1630 N   0  0  0  0  0  1  0  0  0  0  0  0
  188.2050  177.7090  138.6070 C   0  0  0  0  0  0  0  0  0  0  0  0
  187.9750  177.7870  142.3660 N   0  0  0  0  0  0  0  0  0  0  0  0
  188.7960  177.6550  145.9470 C   0  0  0  0  0  3  0  0  0  0  0  0
  189.9440  177.4070  141.0760 C   0  0  0  0  0  3  0  0  0  0  0  0
  188.5690  177.6640  141.1480 C   0  0  0  0  0  0  0  0  0  0  0  0
  190.0590  177.4050  143.4890 C   0  0  0  0  0  0  0  0  0  0  0  0
  189.4160  177.4810  138.3370 O   0  0  0  0  0  0  0  0  0  0  0  0
  186.5900  178.1000  144.8890 C   0  0  0  0  0  0  0  0  0  0  0  0
  183.8500  178.7150  145.0020 C   0  0  0  0  0  3  0  0  0  0  0  0
  185.9770  178.4020  146.1260 C   0  0  0  0  0  0  0  0  0  0  0  0
  184.6120  178.7050  146.1720 C   0  0  0  0  0  3  0  0  0  0  0  0
  184.4480  178.4160  143.7780 C   0  0  0  0  0  3  0  0  0  0  0  0
  186.8590  178.3550  147.6470 Cl  0  0  0  0  0  0  0  0  0  0  0  0
  185.8090  178.1110  143.7230 C   0  0  0  0  0  3  0  0  0  0  0  0
  187.2180  177.8820  137.4870 C   0  0  0  0  0  0  0  0  0  0  0  0
  185.8640  178.2730  138.0490 C   0  0  0  0  0  1  0  0  0  0  0  0
  187.6960  178.9710  136.5440 C   0  0  0  0  0  1  0  0  0  0  0  0
  187.0810  176.6930  136.7680 O   0  0  0  0  0  1  0  0  0  0  0  0
  1 15  1  0  0  0  0
  1 10  1  0  0  0  0
  2  1  2  0  0  0  0
  3 10  2  0  0  0  0
  4 12  1  0  0  0  0
  5  3  1  0  0  0  0
  6 13  1  0  0  0  0
  7  6  1  0  0  0  0
  8  4  1  0  0  0  0
  9  2  1  0  0  0  0
 11 12  1  0  0  0  0
 11  6  2  0  0  0  0
 12  9  2  0  0  0  0
 13  2  1  0  0  0  0
 13  5  2  0  0  0  0
 14  8  2  0  0  0  0
 15 17  1  0  0  0  0
 16 18  1  0  0  0  0
 17 18  2  0  0  0  0
 17 20  1  0  0  0  0
 19 16  2  0  0  0  0
 21 19  1  0  0  0  0
 21 15  2  0  0  0  0
 22 23  1  0  0  0  0
 22  8  1  0  0  0  0
 24 22  1  0  0  0  0
 25 22  1  0  0  0  0
M  END
>  <MODEL>
8

>  <REMARK>
 VINA RESULT:      -9.4      1.946      4.396
  Name = 
  2 active torsions:
  status: ('A' for Active; 'I' for Inactive)
    1  A    between atoms: C_1  and  C_5
    2  A    between atoms: C_2  and  C_15
                            x       y       z     vdW  Elec       q    Type
                         _______ _______ _______ _____ _____    ______ ____

>  <TORSDO>
F 2

$$$$
=
 OpenBabel10262419453D

 25 27  0  0  0  0  0  0  0  0999 V2000
  187.2620  177.8280  145.8200 C   0  0  0  0  0  0  0  0  0  0  0  0
  188.5120  177.5590  145.2270 C   0  0  0  0  0  0  0  0  0  0  0  0
  188.3100  177.6510  147.9980 C   0  0  0  0  0  3  0  0  0  0  0  0
  189.9030  177.1750  141.8450 N   0  0  0  0  0  2  0  0  0  0  0  0
  189.5040  177.3900  147.4060 N   0  0  0  0  0  0  0  0  0  0  0  0
  190.8730  177.0620  145.4620 C   0  0  0  0  0  0  0  0  0  0  0  0
  192.0300  176.8360  146.2610 N   0  0  0  0  0  1  0  0  0  0  0  0
  191.0630  176.9100  141.0390 C   0  0  0  0  0  0  0  0  0  0  0  0
  188.6490  177.4920  143.8730 N   0  0  0  0  0  0  0  0  0  0  0  0
  187.1740  177.8760  147.2170 C   0  0  0  0  0  3  0  0  0  0  0  0
  190.9760  177.0070  144.0710 C   0  0  0  0  0  3  0  0  0  0  0  0
  189.8430  177.2250  143.2760 C   0  0  0  0  0  0  0  0  0  0  0  0
  189.6340  177.3370  146.0530 C   0  0  0  0  0  0  0  0  0  0  0  0
  192.1820  176.6890  141.5760 O   0  0  0  0  0  0  0  0  0  0  0  0
  186.0560  178.0990  145.0080 C   0  0  0  0  0  0  0  0  0  0  0  0
  183.8230  178.6450  143.3910 C   0  0  0  0  0  3  0  0  0  0  0  0
  184.7970  178.3630  145.5940 C   0  0  0  0  0  0  0  0  0  0  0  0
  183.6920  178.6310  144.7810 C   0  0  0  0  0  3  0  0  0  0  0  0
  185.0610  178.3840  142.8050 C   0  0  0  0  0  3  0  0  0  0  0  0
  184.5430  178.3090  147.3340 Cl  0  0  0  0  0  0  0  0  0  0  0  0
  186.1700  178.1120  143.6090 C   0  0  0  0  0  3  0  0  0  0  0  0
  190.9450  176.8960  139.5410 C   0  0  0  0  0  0  0  0  0  0  0  0
  189.9070  177.9090  139.0960 C   0  0  0  0  0  1  0  0  0  0  0  0
  192.2820  177.2500  138.9170 C   0  0  0  0  0  1  0  0  0  0  0  0
  190.5600  175.6310  139.0930 O   0  0  0  0  0  1  0  0  0  0  0  0
  1 10  1  0  0  0  0
  2  1  2  0  0  0  0
  2 13  1  0  0  0  0
  4 12  1  0  0  0  0
  5  3  1  0  0  0  0
  6 13  1  0  0  0  0
  6  7  1  0  0  0  0
  8 14  2  0  0  0  0
  8  4  1  0  0  0  0
  9  2  1  0  0  0  0
 10  3  2  0  0  0  0
 11  6  2  0  0  0  0
 12  9  2  0  0  0  0
 12 11  1  0  0  0  0
 13  5  2  0  0  0  0
 15 17  1  0  0  0  0
 15  1  1  0  0  0  0
 16 18  1  0  0  0  0
 17 20  1  0  0  0  0
 18 17  2  0  0  0  0
 19 16  2  0  0  0  0
 19 21  1  0  0  0  0
 21 15  2  0  0  0  0
 22  8  1  0  0  0  0
 23 22  1  0  0  0  0
 24 22  1  0  0  0  0
 25 22  1  0  0  0  0
M  END
>  <MODEL>
9

>  <REMARK>
 VINA RESULT:      -9.2      2.427      4.810
  Name = 
  2 active torsions:
  status: ('A' for Active; 'I' for Inactive)
    1  A    between atoms: C_1  and  C_5
    2  A    between atoms: C_2  and  C_15
                            x       y       z     vdW  Elec       q    Type
                         _______ _______ _______ _____ _____    ______ ____

>  <TORSDO>
F 2

$$$$
