=
 OpenBabel10262419533D

 25 28  0  0  1  0  0  0  0  0999 V2000
  187.1350  177.9880  145.6200 C   0  0  0  0  0  0  0  0  0  0  0  0
  188.4040  177.2510  145.3210 C   0  0  1  0  0  3  0  0  0  0  0  0
  187.5460  178.1300  148.0100 C   0  0  0  0  0  3  0  0  0  0  0  0
  186.0510  178.2110  144.9000 C   0  0  0  0  0  0  0  0  0  0  0  0
  183.5530  178.8130  143.8590 C   0  0  0  0  0  3  0  0  0  0  0  0
  188.9180  177.6220  147.7600 C   0  0  0  0  0  3  0  0  0  0  0  0
  185.0510  178.6990  145.7340 C   0  0  0  0  0  0  0  0  0  0  0  0
  183.7890  179.0130  145.2310 C   0  0  0  0  0  3  0  0  0  0  0  0
  190.7480  176.9020  146.2800 C   0  0  0  0  0  0  0  0  0  0  0  0
  191.7970  176.3490  147.5760 Cl  0  0  0  0  0  0  0  0  0  0  0  0
  189.1050  177.7420  144.0850 C   0  0  0  0  0  3  0  0  0  0  0  0
  184.5660  178.3010  143.0220 C   0  0  0  0  0  3  0  0  0  0  0  0
  186.7420  178.3160  146.9660 C   0  0  0  0  0  0  0  0  0  0  0  0
  185.3960  178.7820  146.9840 N   0  0  0  0  0  0  0  0  0  0  0  0
  191.2540  177.0610  145.0520 C   0  0  0  0  0  3  0  0  0  0  0  0
  185.8330  177.9880  143.5410 C   0  0  0  0  0  3  0  0  0  0  0  0
  190.4300  177.5850  143.9370 C   0  0  0  0  0  0  0  0  0  0  0  0
  189.3380  177.2610  146.5260 C   0  0  0  0  0  0  0  0  0  0  0  0
  191.0790  177.9800  142.7260 N   0  0  0  0  0  2  0  0  0  0  0  0
  191.4440  177.0520  141.7330 N   0  0  0  0  0  2  0  0  0  0  0  0
  190.8850  177.4710  140.4440 C   0  0  2  0  0  3  0  0  0  0  0  0
  189.4310  177.5120  140.4860 N   0  0  0  0  0  1  0  0  0  0  0  0
  191.3740  176.6120  139.3190 C   0  0  0  0  0  0  0  0  0  0  0  0
  192.6350  176.8350  138.7840 O   0  0  0  0  0  0  0  0  0  0  0  0
  190.6670  175.6680  138.8770 O   0  0  0  0  0  1  0  0  0  0  0  0
  1 13  1  0  0  0  0
  2 11  1  6  0  0  0
  2  1  1  0  0  0  0
  2 18  1  0  0  0  0
  4  1  2  0  0  0  0
  4  7  1  0  0  0  0
  5  8  2  0  0  0  0
  6  3  1  0  0  0  0
  7 14  2  0  0  0  0
  8  7  1  0  0  0  0
  9 18  1  0  0  0  0
  9 10  1  0  0  0  0
 12 16  2  0  0  0  0
 12  5  1  0  0  0  0
 13 14  1  0  0  0  0
 13  3  2  0  0  0  0
 15  9  2  0  0  0  0
 16  4  1  0  0  0  0
 17 11  2  0  0  0  0
 17 15  1  0  0  0  0
 18  6  2  0  0  0  0
 19 17  1  0  0  0  0
 20 19  1  0  0  0  0
 21 22  1  1  0  0  0
 21 20  1  0  0  0  0
 23 21  1  0  0  0  0
 24 23  2  0  0  0  0
 25 23  1  0  0  0  0
M  END
>  <MODEL>
1

>  <REMARK>
 VINA RESULT:     -10.7      0.000      0.000
  Name = 
  4 active torsions:
  status: ('A' for Active; 'I' for Inactive)
    1  A    between atoms: C_2  and  C_21
    2  A    between atoms: N_6  and  N_15
    3  A    between atoms: N_6  and  C_23
    4  A    between atoms: N_15  and  C_21
                            x       y       z     vdW  Elec       q    Type
                         _______ _______ _______ _____ _____    ______ ____

>  <TORSDO>
F 4

$$$$
=
 OpenBabel10262419533D

 25 28  0  0  1  0  0  0  0  0999 V2000
  185.9640  178.1400  144.7000 C   0  0  0  0  0  0  0  0  0  0  0  0
  187.2350  177.3530  144.6000 C   0  0  1  0  0  3  0  0  0  0  0  0
  186.1340  178.4910  147.0970 C   0  0  0  0  0  3  0  0  0  0  0  0
  184.9670  178.3180  143.8530 C   0  0  0  0  0  0  0  0  0  0  0  0
  182.6060  178.8720  142.5100 C   0  0  0  0  0  3  0  0  0  0  0  0
  187.5090  177.9350  147.0370 C   0  0  0  0  0  3  0  0  0  0  0  0
  183.9010  178.9000  144.5330 C   0  0  0  0  0  0  0  0  0  0  0  0
  182.7060  179.1910  143.8750 C   0  0  0  0  0  3  0  0  0  0  0  0
  189.4580  177.0460  145.8240 C   0  0  0  0  0  0  0  0  0  0  0  0
  190.3530  176.5940  147.2660 Cl  0  0  0  0  0  0  0  0  0  0  0  0
  188.0720  177.7160  143.4050 C   0  0  0  0  0  3  0  0  0  0  0  0
  183.6830  178.2660  141.8310 C   0  0  0  0  0  3  0  0  0  0  0  0
  185.4460  178.5970  145.9630 C   0  0  0  0  0  0  0  0  0  0  0  0
  184.1200  179.0890  145.8000 N   0  0  0  0  0  0  0  0  0  0  0  0
  190.0910  177.0830  144.6460 C   0  0  0  0  0  3  0  0  0  0  0  0
  184.8810  177.9760  142.5050 C   0  0  0  0  0  3  0  0  0  0  0  0
  189.4000  177.5190  143.4100 C   0  0  0  0  0  0  0  0  0  0  0  0
  188.0420  177.4550  145.8910 C   0  0  0  0  0  0  0  0  0  0  0  0
  190.1810  177.7890  142.2430 N   0  0  0  0  0  2  0  0  0  0  0  0
  190.2130  176.9130  141.1430 N   0  0  0  0  0  2  0  0  0  0  0  0
  190.0120  177.6740  139.9060 C   0  0  2  0  0  3  0  0  0  0  0  0
  188.6560  178.1970  139.8220 N   0  0  0  0  0  1  0  0  0  0  0  0
  190.3620  176.8690  138.6930 C   0  0  0  0  0  0  0  0  0  0  0  0
  190.7620  175.5480  138.8380 O   0  0  0  0  0  1  0  0  0  0  0  0
  190.2630  177.3680  137.5400 O   0  0  0  0  0  0  0  0  0  0  0  0
  1 13  1  0  0  0  0
  2 11  1  6  0  0  0
  2  1  1  0  0  0  0
  2 18  1  0  0  0  0
  4  7  1  0  0  0  0
  4  1  2  0  0  0  0
  5  8  2  0  0  0  0
  6  3  1  0  0  0  0
  7 14  2  0  0  0  0
  8  7  1  0  0  0  0
  9 18  1  0  0  0  0
  9 10  1  0  0  0  0
 11 17  2  0  0  0  0
 12 16  2  0  0  0  0
 12  5  1  0  0  0  0
 13  3  2  0  0  0  0
 14 13  1  0  0  0  0
 15  9  2  0  0  0  0
 16  4  1  0  0  0  0
 17 15  1  0  0  0  0
 18  6  2  0  0  0  0
 19 17  1  0  0  0  0
 20 19  1  0  0  0  0
 21 22  1  6  0  0  0
 21 20  1  0  0  0  0
 23 24  1  0  0  0  0
 23 21  1  0  0  0  0
 25 23  2  0  0  0  0
M  END
>  <MODEL>
2

>  <REMARK>
 VINA RESULT:     -10.1      1.121      1.527
  Name = 
  4 active torsions:
  status: ('A' for Active; 'I' for Inactive)
    1  A    between atoms: C_2  and  C_21
    2  A    between atoms: N_6  and  N_15
    3  A    between atoms: N_6  and  C_23
    4  A    between atoms: N_15  and  C_21
                            x       y       z     vdW  Elec       q    Type
                         _______ _______ _______ _____ _____    ______ ____

>  <TORSDO>
F 4

$$$$
=
 OpenBabel10262419533D

 25 28  0  0  1  0  0  0  0  0999 V2000
  186.7780  177.8360  144.0310 C   0  0  0  0  0  0  0  0  0  0  0  0
  187.7670  177.1200  143.1630 C   0  0  0  0  0  0  0  0  0  0  0  0
  188.0700  177.5680  146.0700 C   0  0  0  0  0  3  0  0  0  0  0  0
  185.5280  178.2090  143.8250 C   0  0  0  0  0  0  0  0  0  0  0  0
  182.8890  179.0510  143.9270 C   0  0  0  0  0  3  0  0  0  0  0  0
  189.1940  177.0670  145.2400 C   0  0  0  0  0  3  0  0  0  0  0  0
  184.9650  178.5820  145.0410 C   0  0  0  0  0  0  0  0  0  0  0  0
  183.6410  179.0140  145.1140 C   0  0  0  0  0  3  0  0  0  0  0  0
  190.2560  176.5450  143.0820 C   0  0  0  0  0  0  0  0  0  0  0  0
  191.6610  175.7540  143.7790 Cl  0  0  0  0  0  0  0  0  0  0  0  0
  187.9920  177.7880  141.8350 C   0  0  0  0  0  2  0  0  0  0  0  0
  183.4600  178.6540  142.7000 C   0  0  0  0  0  3  0  0  0  0  0  0
  186.9530  177.9490  145.4550 C   0  0  0  0  0  0  0  0  0  0  0  0
  185.7620  178.4470  146.0580 N   0  0  0  0  0  0  0  0  0  0  0  0
  190.2750  176.8900  141.7890 C   0  0  0  0  0  3  0  0  0  0  0  0
  184.7950  178.2210  142.6390 C   0  0  0  0  0  3  0  0  0  0  0  0
  189.1440  177.6160  141.1660 C   0  0  0  0  0  0  0  0  0  0  0  0
  189.0830  176.9020  143.9020 C   0  0  0  0  0  0  0  0  0  0  0  0
  189.3220  178.1860  139.8670 N   0  0  0  0  0  2  0  0  0  0  0  0
  189.4820  177.3940  138.7150 N   0  0  0  0  0  2  0  0  0  0  0  0
  188.7100  177.9730  137.6120 C   0  0  2  0  0  3  0  0  0  0  0  0
  188.9500  179.4040  137.4930 N   0  0  0  0  0  1  0  0  0  0  0  0
  187.2480  177.6730  137.7360 C   0  0  0  0  0  0  0  0  0  0  0  0
  186.3770  178.6700  138.1530 O   0  0  0  0  0  1  0  0  0  0  0  0
  186.7970  176.5370  137.4320 O   0  0  0  0  0  0  0  0  0  0  0  0
  1 13  1  0  0  0  0
  2 18  1  0  0  0  0
  2  1  2  0  0  0  0
  4  1  1  0  0  0  0
  4  7  1  0  0  0  0
  5  8  1  0  0  0  0
  6  3  2  0  0  0  0
  7  8  2  0  0  0  0
  7 14  1  0  0  0  0
  9 10  1  0  0  0  0
  9 18  2  0  0  0  0
 11  2  1  0  0  0  0
 12  5  2  0  0  0  0
 13 14  2  0  0  0  0
 13  3  1  0  0  0  0
 15  9  1  0  0  0  0
 16 12  1  0  0  0  0
 16  4  2  0  0  0  0
 17 15  2  0  0  0  0
 17 11  1  0  0  0  0
 18  6  1  0  0  0  0
 19 17  1  0  0  0  0
 20 19  1  0  0  0  0
 21 22  1  1  0  0  0
 21 23  1  0  0  0  0
 21 20  1  0  0  0  0
 23 24  1  0  0  0  0
 25 23  2  0  0  0  0
M  END
>  <MODEL>
3

>  <REMARK>
 VINA RESULT:      -9.9      2.319      2.963
  Name = 
  4 active torsions:
  status: ('A' for Active; 'I' for Inactive)
    1  A    between atoms: C_2  and  C_21
    2  A    between atoms: N_6  and  N_15
    3  A    between atoms: N_6  and  C_23
    4  A    between atoms: N_15  and  C_21
                            x       y       z     vdW  Elec       q    Type
                         _______ _______ _______ _____ _____    ______ ____

>  <TORSDO>
F 4

$$$$
=
 OpenBabel10262419533D

 25 28  0  0  1  0  0  0  0  0999 V2000
  187.6510  177.9490  142.2260 C   0  0  0  0  0  0  0  0  0  0  0  0
  187.3360  177.4790  143.6130 C   0  0  1  0  0  3  0  0  0  0  0  0
  185.4910  179.0040  141.8780 C   0  0  0  0  0  3  0  0  0  0  0  0
  188.6250  177.6430  141.3890 C   0  0  0  0  0  0  0  0  0  0  0  0
  190.3540  177.2330  139.2610 C   0  0  0  0  0  3  0  0  0  0  0  0
  185.2010  178.7840  143.3170 C   0  0  0  0  0  3  0  0  0  0  0  0
  188.3040  178.1360  140.1280 C   0  0  0  0  0  0  0  0  0  0  0  0
  189.1620  177.9450  139.0450 C   0  0  0  0  0  3  0  0  0  0  0  0
  185.8160  178.0540  145.5860 C   0  0  0  0  0  0  0  0  0  0  0  0
  184.2070  178.2530  146.2610 Cl  0  0  0  0  0  0  0  0  0  0  0  0
  188.4730  177.6650  144.5800 C   0  0  0  0  0  3  0  0  0  0  0  0
  190.6660  176.7200  140.5380 C   0  0  0  0  0  3  0  0  0  0  0  0
  186.6750  178.6190  141.4070 C   0  0  0  0  0  0  0  0  0  0  0  0
  187.1480  178.7270  140.0680 N   0  0  0  0  0  0  0  0  0  0  0  0
  186.8560  177.8940  146.4110 C   0  0  0  0  0  3  0  0  0  0  0  0
  189.7930  176.9180  141.6210 C   0  0  0  0  0  3  0  0  0  0  0  0
  188.2420  177.7870  145.8970 C   0  0  0  0  0  0  0  0  0  0  0  0
  186.0580  178.1300  144.1320 C   0  0  0  0  0  0  0  0  0  0  0  0
  189.3290  177.8800  146.8210 N   0  0  0  0  0  2  0  0  0  0  0  0
  190.0670  176.7540  147.2290 N   0  0  0  0  0  2  0  0  0  0  0  0
  191.4860  176.9640  146.9270 C   0  0  2  0  0  3  0  0  0  0  0  0
  191.6730  177.4300  145.5610 N   0  0  0  0  0  1  0  0  0  0  0  0
  192.3020  175.7390  147.2020 C   0  0  0  0  0  0  0  0  0  0  0  0
  192.8210  175.5310  148.4720 O   0  0  0  0  0  1  0  0  0  0  0  0
  192.4920  174.8780  146.3010 O   0  0  0  0  0  0  0  0  0  0  0  0
  1  2  1  0  0  0  0
  2 18  1  0  0  0  0
  2 11  1  1  0  0  0
  3  6  1  0  0  0  0
  4 16  1  0  0  0  0
  4  1  2  0  0  0  0
  5 12  1  0  0  0  0
  6 18  2  0  0  0  0
  7  4  1  0  0  0  0
  8  5  2  0  0  0  0
  8  7  1  0  0  0  0
  9 10  1  0  0  0  0
  9 15  2  0  0  0  0
 11 17  2  0  0  0  0
 12 16  2  0  0  0  0
 13  3  2  0  0  0  0
 13  1  1  0  0  0  0
 14  7  2  0  0  0  0
 14 13  1  0  0  0  0
 17 15  1  0  0  0  0
 17 19  1  0  0  0  0
 18  9  1  0  0  0  0
 19 20  1  0  0  0  0
 21 22  1  6  0  0  0
 21 23  1  0  0  0  0
 21 20  1  0  0  0  0
 23 24  1  0  0  0  0
 25 23  2  0  0  0  0
M  END
>  <MODEL>
4

>  <REMARK>
 VINA RESULT:      -9.3      3.581      6.076
  Name = 
  4 active torsions:
  status: ('A' for Active; 'I' for Inactive)
    1  A    between atoms: C_2  and  C_21
    2  A    between atoms: N_6  and  N_15
    3  A    between atoms: N_6  and  C_23
    4  A    between atoms: N_15  and  C_21
                            x       y       z     vdW  Elec       q    Type
                         _______ _______ _______ _____ _____    ______ ____

>  <TORSDO>
F 4

$$$$
=
 OpenBabel10262419533D

 25 28  0  0  1  0  0  0  0  0999 V2000
  189.3080  177.3880  144.1780 C   0  0  0  0  0  0  0  0  0  0  0  0
  188.9300  177.0490  142.7690 C   0  0  0  0  0  0  0  0  0  0  0  0
  191.6800  176.9760  143.8530 C   0  0  0  0  0  3  0  0  0  0  0  0
  188.5860  177.5550  145.2710 C   0  0  0  0  0  0  0  0  0  0  0  0
  187.5420  177.8570  147.8210 C   0  0  0  0  0  3  0  0  0  0  0  0
  191.4160  176.8620  142.3970 C   0  0  0  0  0  3  0  0  0  0  0  0
  189.4370  177.5760  146.3720 C   0  0  0  0  0  0  0  0  0  0  0  0
  188.9330  177.7320  147.6620 C   0  0  0  0  0  3  0  0  0  0  0  0
  189.9480  176.9730  140.4250 C   0  0  0  0  0  0  0  0  0  0  0  0
  191.1380  176.3360  139.3010 Cl  0  0  0  0  0  0  0  0  0  0  0  0
  187.9180  177.9900  142.1770 C   0  0  0  0  0  3  0  0  0  0  0  0
  186.6830  177.8170  146.7030 C   0  0  0  0  0  3  0  0  0  0  0  0
  190.6580  177.2550  144.6600 C   0  0  0  0  0  0  0  0  0  0  0  0
  190.6900  177.3970  146.0770 N   0  0  0  0  0  0  0  0  0  0  0  0
  188.8440  177.5570  139.9470 C   0  0  0  0  0  3  0  0  0  0  0  0
  187.2030  177.6590  145.4080 C   0  0  0  0  0  3  0  0  0  0  0  0
  187.8390  178.1680  140.8490 C   0  0  0  0  0  0  0  0  0  0  0  0
  190.1670  176.9410  141.8840 C   0  0  2  0  0  3  0  0  0  0  0  0
  186.8220  179.0010  140.2850 N   0  0  0  0  0  2  0  0  0  0  0  0
  185.6630  179.3570  140.9970 N   0  0  0  0  0  2  0  0  0  0  0  0
  184.4770  179.0020  140.2120 C   0  0  2  0  0  3  0  0  0  0  0  0
  184.2400  179.9670  139.1470 N   0  0  0  0  0  1  0  0  0  0  0  0
  183.2660  178.8340  141.0750 C   0  0  0  0  0  0  0  0  0  0  0  0
  183.4180  178.6230  142.4380 O   0  0  0  0  0  1  0  0  0  0  0  0
  182.1090  178.9160  140.5820 O   0  0  0  0  0  0  0  0  0  0  0  0
  1 13  1  0  0  0  0
  1  4  1  0  0  0  0
  2  1  2  0  0  0  0
  3 13  1  0  0  0  0
  4 16  2  0  0  0  0
  4  7  1  0  0  0  0
  6  3  2  0  0  0  0
  7  8  2  0  0  0  0
  8  5  1  0  0  0  0
  9 18  1  0  0  0  0
 10  9  1  0  0  0  0
 11  2  1  0  0  0  0
 12  5  2  0  0  0  0
 13 14  2  0  0  0  0
 14  7  1  0  0  0  0
 15  9  2  0  0  0  0
 15 17  1  0  0  0  0
 16 12  1  0  0  0  0
 17 11  2  0  0  0  0
 18  6  1  1  0  0  0
 18  2  1  0  0  0  0
 19 17  1  0  0  0  0
 19 20  1  0  0  0  0
 21 22  1  6  0  0  0
 21 20  1  0  0  0  0
 21 23  1  0  0  0  0
 23 24  1  0  0  0  0
 25 23  2  0  0  0  0
M  END
>  <MODEL>
5

>  <REMARK>
 VINA RESULT:      -9.3      3.804      5.798
  Name = 
  4 active torsions:
  status: ('A' for Active; 'I' for Inactive)
    1  A    between atoms: C_2  and  C_21
    2  A    between atoms: N_6  and  N_15
    3  A    between atoms: N_6  and  C_23
    4  A    between atoms: N_15  and  C_21
                            x       y       z     vdW  Elec       q    Type
                         _______ _______ _______ _____ _____    ______ ____

>  <TORSDO>
F 4

$$$$
=
 OpenBabel10262419533D

 25 28  0  0  1  0  0  0  0  0999 V2000
  185.2260  178.3220  143.8780 C   0  0  0  0  0  0  0  0  0  0  0  0
  186.4980  177.6620  143.4400 C   0  0  1  0  0  3  0  0  0  0  0  0
  185.8660  178.4530  146.2170 C   0  0  0  0  0  3  0  0  0  0  0  0
  184.0650  178.4930  143.2730 C   0  0  0  0  0  0  0  0  0  0  0  0
  181.4460  178.9660  142.4970 C   0  0  0  0  0  3  0  0  0  0  0  0
  187.2320  178.0280  145.8230 C   0  0  0  0  0  3  0  0  0  0  0  0
  183.1280  178.9110  144.2120 C   0  0  0  0  0  0  0  0  0  0  0  0
  181.8060  179.1590  143.8430 C   0  0  0  0  0  3  0  0  0  0  0  0
  188.9420  177.4340  144.1540 C   0  0  0  0  0  0  0  0  0  0  0  0
  190.1440  176.9250  145.3280 Cl  0  0  0  0  0  0  0  0  0  0  0  0
  187.0430  178.2110  142.1500 C   0  0  0  0  0  3  0  0  0  0  0  0
  182.3970  178.5250  141.5540 C   0  0  0  0  0  3  0  0  0  0  0  0
  184.9530  178.6080  145.2620 C   0  0  0  0  0  0  0  0  0  0  0  0
  183.5910  178.9960  145.4230 N   0  0  0  0  0  0  0  0  0  0  0  0
  189.3120  177.6400  142.8850 C   0  0  0  0  0  3  0  0  0  0  0  0
  183.7250  178.2770  141.9390 C   0  0  0  0  0  3  0  0  0  0  0  0
  188.3530  178.1320  141.8690 C   0  0  0  0  0  0  0  0  0  0  0  0
  187.5460  177.7090  144.5460 C   0  0  0  0  0  0  0  0  0  0  0  0
  188.8560  178.5800  140.6070 N   0  0  0  0  0  2  0  0  0  0  0  0
  188.5300  177.9380  139.3990 N   0  0  0  0  0  2  0  0  0  0  0  0
  189.6140  178.1360  138.4320 C   0  0  2  0  0  3  0  0  0  0  0  0
  189.1500  178.8580  137.2560 N   0  0  0  0  0  1  0  0  0  0  0  0
  190.2680  176.8430  138.0550 C   0  0  0  0  0  0  0  0  0  0  0  0
  190.4710  175.8690  139.0230 O   0  0  0  0  0  1  0  0  0  0  0  0
  190.6040  176.6170  136.8620 O   0  0  0  0  0  0  0  0  0  0  0  0
  1 13  1  0  0  0  0
  2 11  1  6  0  0  0
  2  1  1  0  0  0  0
  2 18  1  0  0  0  0
  4  1  2  0  0  0  0
  4  7  1  0  0  0  0
  5  8  2  0  0  0  0
  6  3  1  0  0  0  0
  7 14  2  0  0  0  0
  8  7  1  0  0  0  0
  9 18  1  0  0  0  0
  9 10  1  0  0  0  0
 12 16  2  0  0  0  0
 12  5  1  0  0  0  0
 13 14  1  0  0  0  0
 13  3  2  0  0  0  0
 15  9  2  0  0  0  0
 16  4  1  0  0  0  0
 17 11  2  0  0  0  0
 17 15  1  0  0  0  0
 18  6  2  0  0  0  0
 19 17  1  0  0  0  0
 20 19  1  0  0  0  0
 21 22  1  6  0  0  0
 21 20  1  0  0  0  0
 23 21  1  0  0  0  0
 23 24  1  0  0  0  0
 25 23  2  0  0  0  0
M  END
>  <MODEL>
6

>  <REMARK>
 VINA RESULT:      -9.1      1.913      2.711
  Name = 
  4 active torsions:
  status: ('A' for Active; 'I' for Inactive)
    1  A    between atoms: C_2  and  C_21
    2  A    between atoms: N_6  and  N_15
    3  A    between atoms: N_6  and  C_23
    4  A    between atoms: N_15  and  C_21
                            x       y       z     vdW  Elec       q    Type
                         _______ _______ _______ _____ _____    ______ ____

>  <TORSDO>
F 4

$$$$
=
 OpenBabel10262419533D

 25 28  0  0  1  0  0  0  0  0999 V2000
  189.3810  177.4760  143.4250 C   0  0  0  0  0  0  0  0  0  0  0  0
  189.2690  177.0470  141.9950 C   0  0  0  0  0  0  0  0  0  0  0  0
  191.8100  177.5270  143.4280 C   0  0  0  0  0  3  0  0  0  0  0  0
  188.5000  177.5180  144.4070 C   0  0  0  0  0  0  0  0  0  0  0  0
  187.0820  177.6530  146.7860 C   0  0  0  0  0  3  0  0  0  0  0  0
  191.7720  177.3390  141.9560 C   0  0  0  0  0  3  0  0  0  0  0  0
  189.1740  177.7210  145.6070 C   0  0  0  0  0  0  0  0  0  0  0  0
  188.4810  177.7970  146.8140 C   0  0  0  0  0  3  0  0  0  0  0  0
  190.5900  177.1310  139.8070 C   0  0  0  0  0  0  0  0  0  0  0  0
  192.0200  176.7190  138.8750 Cl  0  0  0  0  0  0  0  0  0  0  0  0
  188.1860  177.7640  141.2370 C   0  0  0  0  0  2  0  0  0  0  0  0
  186.4060  177.4290  145.5690 C   0  0  0  0  0  3  0  0  0  0  0  0
  190.6540  177.6150  144.0830 C   0  0  0  0  0  0  0  0  0  0  0  0
  190.4670  177.7840  145.4850 N   0  0  0  0  0  0  0  0  0  0  0  0
  189.4700  177.4820  139.1660 C   0  0  0  0  0  3  0  0  0  0  0  0
  187.1160  177.3530  144.3590 C   0  0  0  0  0  3  0  0  0  0  0  0
  188.2540  177.9010  139.9030 C   0  0  0  0  0  0  0  0  0  0  0  0
  190.6120  177.1660  141.2820 C   0  0  0  0  0  0  0  0  0  0  0  0
  187.1840  178.5110  139.1780 N   0  0  0  0  0  2  0  0  0  0  0  0
  185.9760  178.8830  139.7950 N   0  0  0  0  0  2  0  0  0  0  0  0
  184.8500  178.3140  139.0490 C   0  0  2  0  0  3  0  0  0  0  0  0
  185.2980  177.6780  137.8180 N   0  0  0  0  0  1  0  0  0  0  0  0
  183.7860  179.3330  138.7790 C   0  0  0  0  0  0  0  0  0  0  0  0
  184.0550  180.6770  138.9930 O   0  0  0  0  0  1  0  0  0  0  0  0
  182.6620  178.9850  138.3290 O   0  0  0  0  0  0  0  0  0  0  0  0
  1 13  1  0  0  0  0
  1  4  1  0  0  0  0
  2  1  2  0  0  0  0
  3 13  1  0  0  0  0
  4  7  1  0  0  0  0
  5  8  1  0  0  0  0
  6  3  2  0  0  0  0
  7  8  2  0  0  0  0
  9 18  2  0  0  0  0
 10  9  1  0  0  0  0
 11  2  1  0  0  0  0
 12  5  2  0  0  0  0
 13 14  2  0  0  0  0
 14  7  1  0  0  0  0
 15  9  1  0  0  0  0
 15 17  2  0  0  0  0
 16  4  2  0  0  0  0
 16 12  1  0  0  0  0
 17 11  1  0  0  0  0
 18  6  1  0  0  0  0
 18  2  1  0  0  0  0
 19 20  1  0  0  0  0
 19 17  1  0  0  0  0
 21 22  1  6  0  0  0
 21 20  1  0  0  0  0
 23 24  1  0  0  0  0
 23 21  1  0  0  0  0
 25 23  2  0  0  0  0
M  END
>  <MODEL>
7

>  <REMARK>
 VINA RESULT:      -8.9      3.727      5.711
  Name = 
  4 active torsions:
  status: ('A' for Active; 'I' for Inactive)
    1  A    between atoms: C_2  and  C_21
    2  A    between atoms: N_6  and  N_15
    3  A    between atoms: N_6  and  C_23
    4  A    between atoms: N_15  and  C_21
                            x       y       z     vdW  Elec       q    Type
                         _______ _______ _______ _____ _____    ______ ____

>  <TORSDO>
F 4

$$$$
=
 OpenBabel10262419533D

 25 28  0  0  1  0  0  0  0  0999 V2000
  186.2850  178.3120  142.7500 C   0  0  0  0  0  0  0  0  0  0  0  0
  187.7080  178.2630  142.2850 C   0  0  0  0  0  0  0  0  0  0  0  0
  185.3750  178.8080  140.5530 C   0  0  0  0  0  3  0  0  0  0  0  0
  185.7500  178.3670  143.9560 C   0  0  0  0  0  0  0  0  0  0  0  0
  184.1800  178.6280  146.2260 C   0  0  0  0  0  3  0  0  0  0  0  0
  186.7190  178.5390  139.9830 C   0  0  0  0  0  3  0  0  0  0  0  0
  184.4010  178.6830  143.8340 C   0  0  1  0  0  3  0  0  0  0  0  0
  183.5920  178.8150  144.9620 C   0  0  0  0  0  3  0  0  0  0  0  0
  189.0700  177.8330  140.1650 C   0  0  0  0  0  0  0  0  0  0  0  0
  189.4940  178.2590  138.5150 Cl  0  0  0  0  0  0  0  0  0  0  0  0
  188.4950  177.1310  142.8850 C   0  0  0  0  0  3  0  0  0  0  0  0
  185.5520  178.3250  146.3430 C   0  0  0  0  0  3  0  0  0  0  0  0
  185.2050  178.6620  141.8650 C   0  0  0  0  0  0  0  0  0  0  0  0
  184.0100  178.8780  142.6100 N   0  0  0  0  0  0  0  0  0  0  0  0
  189.9030  177.0670  140.8770 C   0  0  0  0  0  3  0  0  0  0  0  0
  186.3570  178.1970  145.1990 C   0  0  0  0  0  3  0  0  0  0  0  0
  189.5650  176.6250  142.2510 C   0  0  0  0  0  0  0  0  0  0  0  0
  187.7840  178.2420  140.7620 C   0  0  0  0  0  0  0  0  0  0  0  0
  190.3580  175.6050  142.8620 N   0  0  0  0  0  2  0  0  0  0  0  0
  191.5220  175.8970  143.5950 N   0  0  0  0  0  2  0  0  0  0  0  0
  191.2050  176.8640  144.6510 C   0  0  2  0  0  3  0  0  0  0  0  0
  191.7230  178.1860  144.3300 N   0  0  0  0  0  1  0  0  0  0  0  0
  191.6820  176.4020  145.9930 C   0  0  0  0  0  0  0  0  0  0  0  0
  192.4290  175.2360  146.0910 O   0  0  0  0  0  0  0  0  0  0  0  0
  191.4420  177.0780  147.0280 O   0  0  0  0  0  1  0  0  0  0  0  0
  1  4  2  0  0  0  0
  2  1  1  0  0  0  0
  2 11  1  0  0  0  0
  3 13  1  0  0  0  0
  4 16  1  0  0  0  0
  5 12  1  0  0  0  0
  6  3  2  0  0  0  0
  6 18  1  0  0  0  0
  7  4  1  0  0  0  0
  7  8  1  1  0  0  0
  8  5  2  0  0  0  0
  9 18  1  0  0  0  0
  9 15  2  0  0  0  0
 10  9  1  0  0  0  0
 13 14  2  0  0  0  0
 13  1  1  0  0  0  0
 14  7  1  0  0  0  0
 15 17  1  0  0  0  0
 16 12  2  0  0  0  0
 17 19  1  0  0  0  0
 17 11  2  0  0  0  0
 18  2  2  0  0  0  0
 19 20  1  0  0  0  0
 20 21  1  0  0  0  0
 21 22  1  6  0  0  0
 21 23  1  0  0  0  0
 23 24  2  0  0  0  0
 23 25  1  0  0  0  0
M  END
>  <MODEL>
8

>  <REMARK>
 VINA RESULT:      -8.8      3.487      5.046
  Name = 
  4 active torsions:
  status: ('A' for Active; 'I' for Inactive)
    1  A    between atoms: C_2  and  C_21
    2  A    between atoms: N_6  and  N_15
    3  A    between atoms: N_6  and  C_23
    4  A    between atoms: N_15  and  C_21
                            x       y       z     vdW  Elec       q    Type
                         _______ _______ _______ _____ _____    ______ ____

>  <TORSDO>
F 4

$$$$
=
 OpenBabel10262419533D

 25 28  0  0  1  0  0  0  0  0999 V2000
  184.5820  178.3320  143.6050 C   0  0  0  0  0  0  0  0  0  0  0  0
  185.8370  177.6660  144.0800 C   0  0  1  0  0  3  0  0  0  0  0  0
  183.8160  178.9260  145.8320 C   0  0  0  0  0  3  0  0  0  0  0  0
  183.9690  178.3300  142.4350 C   0  0  0  0  0  0  0  0  0  0  0  0
  182.2630  178.5200  140.2590 C   0  0  0  0  0  3  0  0  0  0  0  0
  185.1400  178.5040  146.3530 C   0  0  0  0  0  3  0  0  0  0  0  0
  182.6960  178.8670  142.5960 C   0  0  0  0  0  0  0  0  0  0  0  0
  181.8230  178.9770  141.5140 C   0  0  0  0  0  3  0  0  0  0  0  0
  187.4480  177.6960  146.0650 C   0  0  0  0  0  0  0  0  0  0  0  0
  187.7570  177.4740  147.7790 Cl  0  0  0  0  0  0  0  0  0  0  0  0
  187.0420  177.9930  143.2410 C   0  0  0  0  0  3  0  0  0  0  0  0
  183.5470  177.9590  140.1060 C   0  0  0  0  0  3  0  0  0  0  0  0
  183.6020  178.8550  144.5200 C   0  0  0  0  0  0  0  0  0  0  0  0
  182.4100  179.1980  143.8200 N   0  0  0  0  0  0  0  0  0  0  0  0
  188.4750  177.6810  145.2080 C   0  0  0  0  0  3  0  0  0  0  0  0
  184.4170  177.8540  141.2040 C   0  0  0  0  0  3  0  0  0  0  0  0
  188.2790  177.9280  143.7600 C   0  0  0  0  0  0  0  0  0  0  0  0
  186.0910  177.9700  145.5530 C   0  0  0  0  0  0  0  0  0  0  0  0
  189.4260  178.1590  142.9380 N   0  0  0  0  0  2  0  0  0  0  0  0
  190.6280  178.6760  143.4550 N   0  0  0  0  0  2  0  0  0  0  0  0
  191.7190  177.7350  143.1890 C   0  0  2  0  0  3  0  0  0  0  0  0
  191.6920  177.2690  141.8100 N   0  0  0  0  0  1  0  0  0  0  0  0
  191.7150  176.5880  144.1520 C   0  0  0  0  0  0  0  0  0  0  0  0
  191.7710  176.8380  145.5160 O   0  0  0  0  0  1  0  0  0  0  0  0
  191.6270  175.4020  143.7380 O   0  0  0  0  0  0  0  0  0  0  0  0
  1  2  1  0  0  0  0
  1 13  1  0  0  0  0
  2 11  1  6  0  0  0
  2 18  1  0  0  0  0
  3  6  1  0  0  0  0
  4  7  1  0  0  0  0
  4  1  2  0  0  0  0
  5  8  2  0  0  0  0
  7 14  2  0  0  0  0
  8  7  1  0  0  0  0
  9 10  1  0  0  0  0
 11 17  2  0  0  0  0
 12  5  1  0  0  0  0
 12 16  2  0  0  0  0
 13  3  2  0  0  0  0
 14 13  1  0  0  0  0
 15  9  2  0  0  0  0
 16  4  1  0  0  0  0
 17 15  1  0  0  0  0
 18  9  1  0  0  0  0
 18  6  2  0  0  0  0
 19 20  1  0  0  0  0
 19 17  1  0  0  0  0
 21 22  1  6  0  0  0
 21 20  1  0  0  0  0
 21 23  1  0  0  0  0
 23 24  1  0  0  0  0
 25 23  2  0  0  0  0
M  END
>  <MODEL>
9

>  <REMARK>
 VINA RESULT:      -8.7      2.516      3.707
  Name = 
  4 active torsions:
  status: ('A' for Active; 'I' for Inactive)
    1  A    between atoms: C_2  and  C_21
    2  A    between atoms: N_6  and  N_15
    3  A    between atoms: N_6  and  C_23
    4  A    between atoms: N_15  and  C_21
                            x       y       z     vdW  Elec       q    Type
                         _______ _______ _______ _____ _____    ______ ____

>  <TORSDO>
F 4

$$$$
