=
 OpenBabel10262422083D

 43 48  0  0  1  0  0  0  0  0999 V2000
  181.7860  178.9860  141.5860 C   0  0  0  0  0  0  0  0  0  0  0  0
  185.5750  178.2700  144.8550 C   0  0  0  0  0  0  0  0  0  0  0  0
  187.8280  177.5140  143.3120 C   0  0  0  0  0  0  0  0  0  0  0  0
  183.1260  178.8090  143.5740 C   0  0  0  0  0  0  0  0  0  0  0  0
  182.7820  178.6200  140.7770 C   0  0  0  0  0  3  0  0  0  0  0  0
  180.4540  179.3110  141.0110 C   0  0  0  0  0  1  0  0  0  0  0  0
  184.2480  178.4170  142.8100 C   0  0  0  0  0  0  0  0  0  0  0  0
  181.9880  179.0700  143.0030 N   0  0  0  0  0  0  0  0  0  0  0  0
  184.1460  178.2800  141.3100 C   0  0  0  0  0  2  0  0  0  0  0  0
  186.5910  177.7680  142.7020 O   0  0  0  0  0  0  0  0  0  0  0  0
  185.4680  178.1520  143.4520 C   0  0  0  0  0  0  0  0  0  0  0  0
  184.4470  178.6530  145.5990 C   0  0  0  0  0  3  0  0  0  0  0  0
  186.7590  178.0130  145.4530 C   0  0  0  0  0  0  0  0  0  0  0  0
  187.9320  177.6250  144.6430 C   0  0  0  0  0  3  0  0  0  0  0  0
  183.2350  178.9220  144.9610 C   0  0  0  0  0  3  0  0  0  0  0  0
  188.9620  177.1430  142.5070 N   0  0  0  0  0  0  0  0  0  0  0  0
  189.5570  175.8150  142.6270 C   0  0  0  0  0  1  0  0  0  0  0  0
  189.4030  178.0090  141.4140 C   0  0  2  0  0  3  0  0  0  0  0  0
  188.8930  177.4810  140.0820 C   0  0  2  0  0  3  0  0  0  0  0  0
  190.3320  177.2540  140.4790 C   0  0  0  0  0  2  0  0  0  0  0  0
  188.8140  178.6320  139.0990 C   0  0  0  0  0  2  0  0  0  0  0  0
  187.8550  178.2930  137.9700 C   0  0  2  0  0  3  0  0  0  0  0  0
  186.5150  176.1670  137.0810 S   0  0  0  0  0  0  0  0  0  0  0  0
  186.4840  178.3360  138.4450 N   0  0  0  0  0  2  0  0  0  0  0  0
  188.1250  176.8930  137.4750 C   0  0  1  0  0  3  0  0  0  0  0  0
  185.7040  177.6890  137.4730 N   0  0  0  0  0  2  0  0  0  0  0  0
  190.0840  175.9690  136.1250 N   0  0  0  0  0  0  0  0  0  0  0  0
  189.0130  176.9170  136.2670 C   0  0  0  0  0  0  0  0  0  0  0  0
  191.0290  176.0990  135.0280 C   0  0  0  0  0  1  0  0  0  0  0  0
  188.8250  177.7910  135.3770 O   0  0  0  0  0  0  0  0  0  0  0  0
  190.3380  174.9400  137.1280 C   0  0  0  0  0  2  0  0  0  0  0  0
  190.1250  173.5470  136.5480 C   0  0  0  0  0  2  0  0  0  0  0  0
  188.1120  172.5540  135.7230 O   0  0  0  0  0  1  0  0  0  0  0  0
  188.7410  173.0130  136.8820 C   0  0  0  0  0  2  0  0  0  0  0  0
  186.9250  178.0770  146.9430 C   0  0  0  0  0  2  0  0  0  0  0  0
  190.2960  178.2350  148.6700 C   0  0  0  0  0  3  0  0  0  0  0  0
  191.0030  177.2290  148.0000 C   0  0  0  0  0  0  0  0  0  0  0  0
  189.0370  176.7550  146.6560 C   0  0  0  0  0  3  0  0  0  0  0  0
  188.9660  178.5020  148.3320 C   0  0  0  0  0  3  0  0  0  0  0  0
  188.3340  177.7610  147.3280 C   0  0  0  0  0  0  0  0  0  0  0  0
  190.3670  176.4880  146.9930 C   0  0  0  0  0  3  0  0  0  0  0  0
  192.8360  175.7400  148.2920 O   0  0  0  0  0  1  0  0  0  0  0  0
  192.3300  176.9790  148.3440 O   0  0  0  0  0  0  0  0  0  0  0  0
  1  8  1  0  0  0  0
  2 13  2  0  0  0  0
  2 12  1  0  0  0  0
  3 14  2  0  0  0  0
  4 15  1  0  0  0  0
  5  9  1  0  0  0  0
  5  1  2  0  0  0  0
  6  1  1  0  0  0  0
  7 11  2  0  0  0  0
  7  4  1  0  0  0  0
  8  4  2  0  0  0  0
  9  7  1  0  0  0  0
 10  3  1  0  0  0  0
 10 11  1  0  0  0  0
 11  2  1  0  0  0  0
 13 35  1  0  0  0  0
 14 13  1  0  0  0  0
 15 12  2  0  0  0  0
 16 17  1  0  0  0  0
 16  3  1  0  0  0  0
 18 16  1  1  0  0  0
 19 21  1  6  0  0  0
 19 20  1  0  0  0  0
 19 18  1  0  0  0  0
 20 18  1  0  0  0  0
 22 24  1  0  0  0  0
 22 21  1  1  0  0  0
 23 26  1  0  0  0  0
 23 25  1  0  0  0  0
 25 28  1  6  0  0  0
 25 22  1  0  0  0  0
 26 24  1  0  0  0  0
 27 28  1  0  0  0  0
 27 31  1  0  0  0  0
 29 27  1  0  0  0  0
 30 28  2  0  0  0  0
 32 34  1  0  0  0  0
 32 31  1  0  0  0  0
 33 34  1  0  0  0  0
 35 40  1  0  0  0  0
 37 43  1  0  0  0  0
 37 36  2  0  0  0  0
 38 41  2  0  0  0  0
 38 40  1  0  0  0  0
 39 36  1  0  0  0  0
 40 39  2  0  0  0  0
 41 37  1  0  0  0  0
 42 43  1  0  0  0  0
M  END
>  <MODEL>
1

>  <REMARK>
 VINA RESULT:      -9.8      0.000      0.000
  Name = 
  11 active torsions:
  status: ('A' for Active; 'I' for Inactive)
    1  A    between atoms: C_1  and  C_34
    2  A    between atoms: C_1  and  C_35
    3  A    between atoms: N_2  and  C_6
    4  A    between atoms: N_2  and  C_13
    5  A    between atoms: C_3  and  C_4
    6  A    between atoms: C_3  and  C_12
    7  A    between atoms: N_11  and  C_36
    8  A    between atoms: C_14  and  C_22
    9  A    between atoms: C_19  and  O_37
   10  A    between atoms: C_29  and  C_31
   11  A    between atoms: C_29  and  C_36
                            x       y       z     vdW  Elec       q    Type
                         _______ _______ _______ _____ _____    ______ ____

>  <TORSDO>
F 11

$$$$
=
 OpenBabel10262422083D

 43 48  0  0  1  0  0  0  0  0999 V2000
  191.3850  176.4270  147.0750 C   0  0  0  0  0  0  0  0  0  0  0  0
  186.9720  177.9440  145.1310 C   0  0  0  0  0  0  0  0  0  0  0  0
  187.3660  178.1630  142.3330 C   0  0  0  0  0  0  0  0  0  0  0  0
  189.1050  177.1290  146.7790 C   0  0  0  0  0  0  0  0  0  0  0  0
  191.6740  176.5180  145.7750 C   0  0  0  0  0  3  0  0  0  0  0  0
  192.4340  175.9880  148.0320 C   0  0  0  0  0  1  0  0  0  0  0  0
  189.3010  177.2540  145.3850 C   0  0  0  0  0  0  0  0  0  0  0  0
  190.0730  176.7460  147.5580 N   0  0  0  0  0  0  0  0  0  0  0  0
  190.6470  176.9580  144.7690 C   0  0  0  0  0  2  0  0  0  0  0  0
  188.4160  177.7790  143.1790 O   0  0  0  0  0  0  0  0  0  0  0  0
  188.2350  177.6570  144.5660 C   0  0  0  0  0  0  0  0  0  0  0  0
  186.7980  177.8210  146.5190 C   0  0  0  0  0  3  0  0  0  0  0  0
  185.9580  178.3280  144.3250 C   0  0  0  0  0  0  0  0  0  0  0  0
  186.1680  178.4350  142.8660 C   0  0  0  0  0  3  0  0  0  0  0  0
  187.8560  177.4150  147.3330 C   0  0  0  0  0  3  0  0  0  0  0  0
  187.5860  178.2550  140.9140 N   0  0  0  0  0  0  0  0  0  0  0  0
  186.4710  178.5040  140.0030 C   0  0  0  0  0  1  0  0  0  0  0  0
  188.9470  178.3120  140.3820 C   0  0  2  0  0  3  0  0  0  0  0  0
  189.2240  177.0980  139.5090 C   0  0  2  0  0  3  0  0  0  0  0  0
  189.7740  177.1540  140.9140 C   0  0  0  0  0  2  0  0  0  0  0  0
  190.3200  177.4470  138.5210 C   0  0  0  0  0  2  0  0  0  0  0  0
  191.1450  176.2130  138.1950 C   0  0  2  0  0  3  0  0  0  0  0  0
  192.3500  175.1400  136.0740 S   0  0  0  0  0  0  0  0  0  0  0  0
  192.5600  176.5350  138.2130 N   0  0  0  0  0  2  0  0  0  0  0  0
  190.8040  175.7230  136.8090 C   0  0  1  0  0  3  0  0  0  0  0  0
  193.2200  175.4710  137.5780 N   0  0  0  0  0  2  0  0  0  0  0  0
  188.4890  174.7880  136.2810 N   0  0  0  0  0  0  0  0  0  0  0  0
  189.7890  174.6210  136.8690 C   0  0  0  0  0  0  0  0  0  0  0  0
  187.4650  173.7740  136.4780 C   0  0  0  0  0  1  0  0  0  0  0  0
  190.0780  173.5430  137.4590 O   0  0  0  0  0  0  0  0  0  0  0  0
  188.1110  176.0150  135.5880 C   0  0  0  0  0  2  0  0  0  0  0  0
  187.2140  176.8830  136.4630 C   0  0  0  0  0  2  0  0  0  0  0  0
  187.7100  179.1860  136.8780 O   0  0  0  0  0  1  0  0  0  0  0  0
  187.1490  178.3110  135.9450 C   0  0  0  0  0  2  0  0  0  0  0  0
  184.6060  178.6900  144.8680 C   0  0  0  0  0  2  0  0  0  0  0  0
  182.9990  178.3130  141.4560 C   0  0  0  0  0  3  0  0  0  0  0  0
  181.6800  178.6990  141.7220 C   0  0  0  0  0  0  0  0  0  0  0  0
  182.2630  179.0530  144.0520 C   0  0  0  0  0  3  0  0  0  0  0  0
  183.9480  178.3000  142.4840 C   0  0  0  0  0  3  0  0  0  0  0  0
  183.5810  178.6660  143.7830 C   0  0  0  0  0  0  0  0  0  0  0  0
  181.3150  179.0670  143.0260 C   0  0  0  0  0  3  0  0  0  0  0  0
  181.0640  179.1980  139.4780 O   0  0  0  0  0  1  0  0  0  0  0  0
  180.7480  178.7120  140.6860 O   0  0  0  0  0  0  0  0  0  0  0  0
  1  8  1  0  0  0  0
  1  6  1  0  0  0  0
  2 12  1  0  0  0  0
  3 14  2  0  0  0  0
  3 10  1  0  0  0  0
  4 15  1  0  0  0  0
  4  8  2  0  0  0  0
  5  1  2  0  0  0  0
  7  4  1  0  0  0  0
  9  7  1  0  0  0  0
  9  5  1  0  0  0  0
 10 11  1  0  0  0  0
 11  2  1  0  0  0  0
 11  7  2  0  0  0  0
 12 15  2  0  0  0  0
 13 35  1  0  0  0  0
 13  2  2  0  0  0  0
 14 13  1  0  0  0  0
 16  3  1  0  0  0  0
 17 16  1  0  0  0  0
 18 16  1  1  0  0  0
 18 20  1  0  0  0  0
 19 21  1  6  0  0  0
 19 18  1  0  0  0  0
 19 20  1  0  0  0  0
 22 24  1  0  0  0  0
 22 21  1  6  0  0  0
 23 25  1  0  0  0  0
 23 26  1  0  0  0  0
 25 28  1  1  0  0  0
 25 22  1  0  0  0  0
 26 24  1  0  0  0  0
 27 29  1  0  0  0  0
 27 28  1  0  0  0  0
 28 30  2  0  0  0  0
 31 27  1  0  0  0  0
 31 32  1  0  0  0  0
 34 32  1  0  0  0  0
 34 33  1  0  0  0  0
 36 37  2  0  0  0  0
 36 39  1  0  0  0  0
 37 41  1  0  0  0  0
 39 40  2  0  0  0  0
 40 38  1  0  0  0  0
 40 35  1  0  0  0  0
 41 38  2  0  0  0  0
 42 43  1  0  0  0  0
 43 37  1  0  0  0  0
M  END
>  <MODEL>
2

>  <REMARK>
 VINA RESULT:      -9.5      2.472      6.846
  Name = 
  11 active torsions:
  status: ('A' for Active; 'I' for Inactive)
    1  A    between atoms: C_1  and  C_34
    2  A    between atoms: C_1  and  C_35
    3  A    between atoms: N_2  and  C_6
    4  A    between atoms: N_2  and  C_13
    5  A    between atoms: C_3  and  C_4
    6  A    between atoms: C_3  and  C_12
    7  A    between atoms: N_11  and  C_36
    8  A    between atoms: C_14  and  C_22
    9  A    between atoms: C_19  and  O_37
   10  A    between atoms: C_29  and  C_31
   11  A    between atoms: C_29  and  C_36
                            x       y       z     vdW  Elec       q    Type
                         _______ _______ _______ _____ _____    ______ ____

>  <TORSDO>
F 11

$$$$
=
 OpenBabel10262422083D

 43 48  0  0  1  0  0  0  0  0999 V2000
  181.3600  179.0270  140.8310 C   0  0  0  0  0  0  0  0  0  0  0  0
  185.0150  178.3640  144.2590 C   0  0  0  0  0  0  0  0  0  0  0  0
  187.3920  177.8530  142.8020 C   0  0  0  0  0  0  0  0  0  0  0  0
  182.6040  178.8180  142.8770 C   0  0  0  0  0  0  0  0  0  0  0  0
  182.4190  178.7770  140.0590 C   0  0  0  0  0  3  0  0  0  0  0  0
  180.0400  179.2980  140.2030 C   0  0  0  0  0  1  0  0  0  0  0  0
  183.7890  178.5470  142.1550 C   0  0  0  0  0  0  0  0  0  0  0  0
  181.4810  179.0380  142.2600 N   0  0  0  0  0  0  0  0  0  0  0  0
  183.7740  178.4960  140.6470 C   0  0  0  0  0  2  0  0  0  0  0  0
  186.1730  178.0620  142.1400 O   0  0  0  0  0  0  0  0  0  0  0  0
  184.9890  178.3250  142.8470 C   0  0  0  0  0  0  0  0  0  0  0  0
  183.8270  178.6270  144.9590 C   0  0  0  0  0  3  0  0  0  0  0  0
  186.1820  178.1500  144.9060 C   0  0  0  0  0  0  0  0  0  0  0  0
  187.4190  177.8900  144.1410 C   0  0  0  0  0  3  0  0  0  0  0  0
  182.6340  178.8540  144.2720 C   0  0  0  0  0  3  0  0  0  0  0  0
  188.5890  177.6080  142.0410 N   0  0  0  0  0  0  0  0  0  0  0  0
  189.5250  176.5620  142.4460 C   0  0  0  0  0  1  0  0  0  0  0  0
  188.7810  178.2530  140.7430 C   0  0  2  0  0  3  0  0  0  0  0  0
  188.3470  177.3230  139.6210 C   0  0  2  0  0  3  0  0  0  0  0  0
  189.8160  177.5010  139.9240 C   0  0  0  0  0  2  0  0  0  0  0  0
  187.9740  178.1580  138.4120 C   0  0  0  0  0  2  0  0  0  0  0  0
  188.1880  177.3600  137.1370 C   0  0  2  0  0  3  0  0  0  0  0  0
  187.2550  177.3260  134.6410 S   0  0  0  0  0  0  0  0  0  0  0  0
  189.1050  178.0580  136.2540 N   0  0  0  0  0  2  0  0  0  0  0  0
  186.8770  177.2050  136.4050 C   0  0  1  0  0  3  0  0  0  0  0  0
  188.9830  177.4540  134.9930 N   0  0  0  0  0  2  0  0  0  0  0  0
  184.8640  175.8180  137.1380 N   0  0  0  0  0  0  0  0  0  0  0  0
  186.2390  175.8870  136.7290 C   0  0  0  0  0  0  0  0  0  0  0  0
  184.3030  174.5570  137.5940 C   0  0  0  0  0  1  0  0  0  0  0  0
  186.9270  174.8310  136.6560 O   0  0  0  0  0  0  0  0  0  0  0  0
  184.0300  177.0120  137.2360 C   0  0  0  0  0  2  0  0  0  0  0  0
  183.0440  177.0860  136.0760 C   0  0  0  0  0  2  0  0  0  0  0  0
  181.2990  178.5600  136.7860 O   0  0  0  0  0  1  0  0  0  0  0  0
  181.6130  177.2160  136.5740 C   0  0  0  0  0  2  0  0  0  0  0  0
  186.2660  178.1330  146.4040 C   0  0  0  0  0  2  0  0  0  0  0  0
  189.7950  176.7570  146.5470 C   0  0  0  0  0  3  0  0  0  0  0  0
  190.2810  177.3480  147.7190 C   0  0  0  0  0  0  0  0  0  0  0  0
  188.1530  178.4760  148.0210 C   0  0  0  0  0  3  0  0  0  0  0  0
  188.4920  177.0220  146.1140 C   0  0  0  0  0  3  0  0  0  0  0  0
  187.6710  177.8850  146.8480 C   0  0  0  0  0  0  0  0  0  0  0  0
  189.4550  178.2110  148.4540 C   0  0  0  0  0  3  0  0  0  0  0  0
  192.4320  176.3960  147.3550 O   0  0  0  0  0  1  0  0  0  0  0  0
  191.5800  177.0680  148.1400 O   0  0  0  0  0  0  0  0  0  0  0  0
  1  8  1  0  0  0  0
  2 13  2  0  0  0  0
  2 12  1  0  0  0  0
  3 14  2  0  0  0  0
  4 15  1  0  0  0  0
  5  9  1  0  0  0  0
  5  1  2  0  0  0  0
  6  1  1  0  0  0  0
  7 11  2  0  0  0  0
  7  4  1  0  0  0  0
  8  4  2  0  0  0  0
  9  7  1  0  0  0  0
 10  3  1  0  0  0  0
 10 11  1  0  0  0  0
 11  2  1  0  0  0  0
 13 35  1  0  0  0  0
 14 13  1  0  0  0  0
 15 12  2  0  0  0  0
 16 17  1  0  0  0  0
 16  3  1  0  0  0  0
 18 16  1  1  0  0  0
 19 21  1  6  0  0  0
 19 20  1  0  0  0  0
 19 18  1  0  0  0  0
 20 18  1  0  0  0  0
 22 21  1  1  0  0  0
 23 26  1  0  0  0  0
 23 25  1  0  0  0  0
 24 22  1  0  0  0  0
 25 28  1  6  0  0  0
 25 22  1  0  0  0  0
 26 24  1  0  0  0  0
 27 31  1  0  0  0  0
 27 29  1  0  0  0  0
 28 27  1  0  0  0  0
 30 28  2  0  0  0  0
 32 34  1  0  0  0  0
 32 31  1  0  0  0  0
 34 33  1  0  0  0  0
 35 40  1  0  0  0  0
 36 37  1  0  0  0  0
 37 43  1  0  0  0  0
 37 41  2  0  0  0  0
 38 41  1  0  0  0  0
 39 36  2  0  0  0  0
 39 40  1  0  0  0  0
 40 38  2  0  0  0  0
 42 43  1  0  0  0  0
M  END
>  <MODEL>
3

>  <REMARK>
 VINA RESULT:      -9.3      2.150      3.237
  Name = 
  11 active torsions:
  status: ('A' for Active; 'I' for Inactive)
    1  A    between atoms: C_1  and  C_34
    2  A    between atoms: C_1  and  C_35
    3  A    between atoms: N_2  and  C_6
    4  A    between atoms: N_2  and  C_13
    5  A    between atoms: C_3  and  C_4
    6  A    between atoms: C_3  and  C_12
    7  A    between atoms: N_11  and  C_36
    8  A    between atoms: C_14  and  C_22
    9  A    between atoms: C_19  and  O_37
   10  A    between atoms: C_29  and  C_31
   11  A    between atoms: C_29  and  C_36
                            x       y       z     vdW  Elec       q    Type
                         _______ _______ _______ _____ _____    ______ ____

>  <TORSDO>
F 11

$$$$
=
 OpenBabel10262422083D

 43 48  0  0  1  0  0  0  0  0999 V2000
  191.3710  176.3670  146.8390 C   0  0  0  0  0  0  0  0  0  0  0  0
  186.9270  177.9720  145.0410 C   0  0  0  0  0  0  0  0  0  0  0  0
  187.2270  178.1660  142.2300 C   0  0  0  0  0  0  0  0  0  0  0  0
  189.0970  177.1180  146.6180 C   0  0  0  0  0  0  0  0  0  0  0  0
  191.6150  176.4450  145.5290 C   0  0  0  0  0  3  0  0  0  0  0  0
  192.4430  175.9100  147.7610 C   0  0  0  0  0  1  0  0  0  0  0  0
  189.2470  177.2320  145.2170 C   0  0  0  0  0  0  0  0  0  0  0  0
  190.0840  176.7190  147.3650 N   0  0  0  0  0  0  0  0  0  0  0  0
  190.5640  176.9020  144.5570 C   0  0  0  0  0  2  0  0  0  0  0  0
  188.2970  177.7640  143.0410 O   0  0  0  0  0  0  0  0  0  0  0  0
  188.1620  177.6540  144.4340 C   0  0  0  0  0  0  0  0  0  0  0  0
  186.7990  177.8610  146.4350 C   0  0  0  0  0  3  0  0  0  0  0  0
  185.8930  178.3740  144.2690 C   0  0  0  0  0  0  0  0  0  0  0  0
  186.0540  178.4680  142.8030 C   0  0  0  0  0  3  0  0  0  0  0  0
  187.8750  177.4350  147.2140 C   0  0  0  0  0  3  0  0  0  0  0  0
  187.3980  178.2460  140.8030 N   0  0  0  0  0  0  0  0  0  0  0  0
  186.2580  178.5190  139.9310 C   0  0  0  0  0  1  0  0  0  0  0  0
  188.7400  178.2650  140.2230 C   0  0  2  0  0  3  0  0  0  0  0  0
  188.9470  177.0510  139.3300 C   0  0  2  0  0  3  0  0  0  0  0  0
  189.5480  177.0750  140.7150 C   0  0  0  0  0  2  0  0  0  0  0  0
  190.0180  177.3760  138.3070 C   0  0  0  0  0  2  0  0  0  0  0  0
  189.7080  176.6880  136.9880 C   0  0  2  0  0  3  0  0  0  0  0  0
  189.5960  174.2050  136.0260 S   0  0  0  0  0  0  0  0  0  0  0  0
  188.3330  176.2230  136.9730 N   0  0  0  0  0  2  0  0  0  0  0  0
  190.6010  175.4830  136.8180 C   0  0  1  0  0  3  0  0  0  0  0  0
  188.2280  175.3190  135.9040 N   0  0  0  0  0  2  0  0  0  0  0  0
  193.1270  175.6260  136.4860 N   0  0  0  0  0  0  0  0  0  0  0  0
  191.7970  175.8210  135.9790 C   0  0  0  0  0  0  0  0  0  0  0  0
  194.2720  176.0980  135.7250 C   0  0  0  0  0  1  0  0  0  0  0  0
  191.6290  176.2980  134.8230 O   0  0  0  0  0  0  0  0  0  0  0  0
  193.3700  175.0760  137.8160 C   0  0  0  0  0  2  0  0  0  0  0  0
  194.2260  173.8170  137.7400 C   0  0  0  0  0  2  0  0  0  0  0  0
  195.5470  175.1780  139.1970 O   0  0  0  0  0  1  0  0  0  0  0  0
  195.3830  173.8740  138.7240 C   0  0  0  0  0  2  0  0  0  0  0  0
  184.5700  178.7690  144.8570 C   0  0  0  0  0  2  0  0  0  0  0  0
  182.8370  178.5400  141.4940 C   0  0  0  0  0  3  0  0  0  0  0  0
  181.4940  178.6880  141.8580 C   0  0  0  0  0  0  0  0  0  0  0  0
  182.1550  178.8620  144.1880 C   0  0  0  0  0  3  0  0  0  0  0  0
  183.8370  178.5560  142.4720 C   0  0  0  0  0  3  0  0  0  0  0  0
  183.4970  178.7130  143.8200 C   0  0  0  0  0  0  0  0  0  0  0  0
  181.1560  178.8460  143.2110 C   0  0  0  0  0  3  0  0  0  0  0  0
  179.7050  177.6180  140.7100 O   0  0  0  0  0  1  0  0  0  0  0  0
  180.5110  178.6760  140.8710 O   0  0  0  0  0  0  0  0  0  0  0  0
  1  8  1  0  0  0  0
  1  6  1  0  0  0  0
  2 12  1  0  0  0  0
  3 14  2  0  0  0  0
  3 10  1  0  0  0  0
  4 15  1  0  0  0  0
  4  8  2  0  0  0  0
  5  1  2  0  0  0  0
  7  4  1  0  0  0  0
  9  7  1  0  0  0  0
  9  5  1  0  0  0  0
 10 11  1  0  0  0  0
 11  2  1  0  0  0  0
 11  7  2  0  0  0  0
 12 15  2  0  0  0  0
 13 35  1  0  0  0  0
 13  2  2  0  0  0  0
 14 13  1  0  0  0  0
 16  3  1  0  0  0  0
 17 16  1  0  0  0  0
 18 20  1  0  0  0  0
 18 16  1  1  0  0  0
 19 21  1  6  0  0  0
 19 18  1  0  0  0  0
 19 20  1  0  0  0  0
 22 21  1  1  0  0  0
 23 25  1  0  0  0  0
 24 22  1  0  0  0  0
 25 28  1  6  0  0  0
 25 22  1  0  0  0  0
 26 23  1  0  0  0  0
 26 24  1  0  0  0  0
 27 31  1  0  0  0  0
 28 27  1  0  0  0  0
 29 27  1  0  0  0  0
 30 28  2  0  0  0  0
 32 31  1  0  0  0  0
 32 34  1  0  0  0  0
 34 33  1  0  0  0  0
 36 37  2  0  0  0  0
 36 39  1  0  0  0  0
 37 41  1  0  0  0  0
 39 40  2  0  0  0  0
 40 38  1  0  0  0  0
 40 35  1  0  0  0  0
 41 38  2  0  0  0  0
 42 43  1  0  0  0  0
 43 37  1  0  0  0  0
M  END
>  <MODEL>
4

>  <REMARK>
 VINA RESULT:      -9.1      2.832      6.718
  Name = 
  11 active torsions:
  status: ('A' for Active; 'I' for Inactive)
    1  A    between atoms: C_1  and  C_34
    2  A    between atoms: C_1  and  C_35
    3  A    between atoms: N_2  and  C_6
    4  A    between atoms: N_2  and  C_13
    5  A    between atoms: C_3  and  C_4
    6  A    between atoms: C_3  and  C_12
    7  A    between atoms: N_11  and  C_36
    8  A    between atoms: C_14  and  C_22
    9  A    between atoms: C_19  and  O_37
   10  A    between atoms: C_29  and  C_31
   11  A    between atoms: C_29  and  C_36
                            x       y       z     vdW  Elec       q    Type
                         _______ _______ _______ _____ _____    ______ ____

>  <TORSDO>
F 11

$$$$
=
 OpenBabel10262422083D

 43 48  0  0  1  0  0  0  0  0999 V2000
  184.9160  178.5250  145.2140 C   0  0  0  0  0  0  0  0  0  0  0  0
  182.3910  178.7410  140.8400 C   0  0  0  0  0  0  0  0  0  0  0  0
  184.2330  178.0000  138.8180 C   0  0  0  0  0  0  0  0  0  0  0  0
  183.2260  178.8110  143.5280 C   0  0  0  0  0  0  0  0  0  0  0  0
  185.8600  178.1830  144.3340 C   0  0  0  0  0  3  0  0  0  0  0  0
  185.2460  178.5770  146.6620 C   0  0  0  0  0  1  0  0  0  0  0  0
  184.1460  178.4570  142.5140 C   0  0  0  0  0  0  0  0  0  0  0  0
  183.5880  178.8430  144.7760 N   0  0  0  0  0  0  0  0  0  0  0  0
  185.5760  178.1190  142.8590 C   0  0  0  0  0  2  0  0  0  0  0  0
  184.6270  178.0640  140.1620 O   0  0  0  0  0  0  0  0  0  0  0  0
  183.7250  178.4200  141.1760 C   0  0  0  0  0  0  0  0  0  0  0  0
  181.4940  179.0990  141.8590 C   0  0  0  0  0  3  0  0  0  0  0  0
  182.0050  178.6970  139.5460 C   0  0  0  0  0  0  0  0  0  0  0  0
  182.9690  178.3040  138.4960 C   0  0  0  0  0  3  0  0  0  0  0  0
  181.9100  179.1310  143.1910 C   0  0  0  0  0  3  0  0  0  0  0  0
  185.1820  177.6090  137.8090 N   0  0  0  0  0  0  0  0  0  0  0  0
  184.8300  176.6070  136.8060 C   0  0  0  0  0  1  0  0  0  0  0  0
  186.4290  178.3540  137.6440 C   0  0  2  0  0  3  0  0  0  0  0  0
  187.6180  177.4060  137.6620 C   0  0  2  0  0  3  0  0  0  0  0  0
  187.2930  178.2270  138.8870 C   0  0  0  0  0  2  0  0  0  0  0  0
  188.7670  178.0500  136.9110 C   0  0  0  0  0  2  0  0  0  0  0  0
  189.8020  177.0020  136.5390 C   0  0  2  0  0  3  0  0  0  0  0  0
  190.3070  174.4390  137.0700 S   0  0  0  0  0  0  0  0  0  0  0  0
  189.3070  176.1640  135.4610 N   0  0  0  0  0  2  0  0  0  0  0  0
  190.0740  176.1090  137.7250 C   0  0  1  0  0  3  0  0  0  0  0  0
  190.1430  175.0380  135.4140 N   0  0  0  0  0  2  0  0  0  0  0  0
  191.2120  176.9230  139.8590 N   0  0  0  0  0  0  0  0  0  0  0  0
  191.2920  176.5680  138.4690 C   0  0  0  0  0  0  0  0  0  0  0  0
  192.3620  177.5090  140.5280 C   0  0  0  0  0  1  0  0  0  0  0  0
  192.3930  176.6590  137.8600 O   0  0  0  0  0  0  0  0  0  0  0  0
  189.9610  176.8320  140.6050 C   0  0  0  0  0  2  0  0  0  0  0  0
  190.0870  177.5040  141.9670 C   0  0  0  0  0  2  0  0  0  0  0  0
  190.2910  175.2710  142.8010 O   0  0  0  0  0  1  0  0  0  0  0  0
  189.7690  176.5330  143.0940 C   0  0  0  0  0  2  0  0  0  0  0  0
  180.6160  179.0710  139.1190 C   0  0  0  0  0  2  0  0  0  0  0  0
  180.3090  181.2280  136.0170 C   0  0  0  0  0  3  0  0  0  0  0  0
  180.7790  182.4610  136.4830 C   0  0  0  0  0  0  0  0  0  0  0  0
  181.1170  181.4890  138.6830 C   0  0  0  0  0  3  0  0  0  0  0  0
  180.2470  180.1280  136.8780 C   0  0  0  0  0  3  0  0  0  0  0  0
  180.6460  180.2580  138.2120 C   0  0  0  0  0  0  0  0  0  0  0  0
  181.1800  182.5880  137.8220 C   0  0  0  0  0  3  0  0  0  0  0  0
  181.0000  184.7940  136.0690 O   0  0  0  0  0  1  0  0  0  0  0  0
  180.8410  183.5450  135.6100 O   0  0  0  0  0  0  0  0  0  0  0  0
  1  6  1  0  0  0  0
  2 11  1  0  0  0  0
  2 12  1  0  0  0  0
  3 10  1  0  0  0  0
  4  8  2  0  0  0  0
  5  1  2  0  0  0  0
  7  9  1  0  0  0  0
  7  4  1  0  0  0  0
  8  1  1  0  0  0  0
  9  5  1  0  0  0  0
 10 11  1  0  0  0  0
 11  7  2  0  0  0  0
 12 15  2  0  0  0  0
 13  2  2  0  0  0  0
 14  3  2  0  0  0  0
 14 13  1  0  0  0  0
 15  4  1  0  0  0  0
 16  3  1  0  0  0  0
 17 16  1  0  0  0  0
 18 19  1  0  0  0  0
 18 16  1  1  0  0  0
 18 20  1  0  0  0  0
 19 21  1  6  0  0  0
 19 20  1  0  0  0  0
 22 21  1  1  0  0  0
 22 25  1  0  0  0  0
 23 25  1  0  0  0  0
 24 22  1  0  0  0  0
 25 28  1  6  0  0  0
 26 24  1  0  0  0  0
 26 23  1  0  0  0  0
 27 29  1  0  0  0  0
 27 31  1  0  0  0  0
 28 27  1  0  0  0  0
 30 28  2  0  0  0  0
 31 32  1  0  0  0  0
 32 34  1  0  0  0  0
 33 34  1  0  0  0  0
 35 13  1  0  0  0  0
 36 37  2  0  0  0  0
 36 39  1  0  0  0  0
 37 41  1  0  0  0  0
 39 40  2  0  0  0  0
 40 38  1  0  0  0  0
 40 35  1  0  0  0  0
 41 38  2  0  0  0  0
 43 42  1  0  0  0  0
 43 37  1  0  0  0  0
M  END
>  <MODEL>
5

>  <REMARK>
 VINA RESULT:      -9.0      3.299      8.176
  Name = 
  11 active torsions:
  status: ('A' for Active; 'I' for Inactive)
    1  A    between atoms: C_1  and  C_34
    2  A    between atoms: C_1  and  C_35
    3  A    between atoms: N_2  and  C_6
    4  A    between atoms: N_2  and  C_13
    5  A    between atoms: C_3  and  C_4
    6  A    between atoms: C_3  and  C_12
    7  A    between atoms: N_11  and  C_36
    8  A    between atoms: C_14  and  C_22
    9  A    between atoms: C_19  and  O_37
   10  A    between atoms: C_29  and  C_31
   11  A    between atoms: C_29  and  C_36
                            x       y       z     vdW  Elec       q    Type
                         _______ _______ _______ _____ _____    ______ ____

>  <TORSDO>
F 11

$$$$
=
 OpenBabel10262422083D

 43 48  0  0  1  0  0  0  0  0999 V2000
  191.3340  176.4300  146.9690 C   0  0  0  0  0  0  0  0  0  0  0  0
  186.8270  178.0400  145.3400 C   0  0  0  0  0  0  0  0  0  0  0  0
  187.0400  178.2940  142.5260 C   0  0  0  0  0  0  0  0  0  0  0  0
  189.0500  177.1700  146.8330 C   0  0  0  0  0  0  0  0  0  0  0  0
  191.5380  176.5360  145.6540 C   0  0  0  0  0  3  0  0  0  0  0  0
  192.4360  175.9620  147.8490 C   0  0  0  0  0  1  0  0  0  0  0  0
  189.1570  177.3130  145.4310 C   0  0  0  0  0  0  0  0  0  0  0  0
  190.0610  176.7620  147.5410 N   0  0  0  0  0  0  0  0  0  0  0  0
  190.4540  177.0060  144.7240 C   0  0  0  0  0  2  0  0  0  0  0  0
  188.1370  177.8820  143.2960 O   0  0  0  0  0  0  0  0  0  0  0  0
  188.0450  177.7430  144.6900 C   0  0  0  0  0  0  0  0  0  0  0  0
  186.7420  177.9000  146.7350 C   0  0  0  0  0  3  0  0  0  0  0  0
  185.7680  178.4510  144.6080 C   0  0  0  0  0  0  0  0  0  0  0  0
  185.8830  178.5750  143.1400 C   0  0  0  0  0  3  0  0  0  0  0  0
  187.8450  177.4660  147.4720 C   0  0  0  0  0  3  0  0  0  0  0  0
  187.1670  178.4030  141.0960 N   0  0  0  0  0  0  0  0  0  0  0  0
  185.9900  178.6270  140.2600 C   0  0  0  0  0  1  0  0  0  0  0  0
  188.4900  178.5020  140.4810 C   0  0  2  0  0  3  0  0  0  0  0  0
  188.6680  177.4140  139.4330 C   0  0  2  0  0  3  0  0  0  0  0  0
  189.3130  177.2640  140.7900 C   0  0  0  0  0  2  0  0  0  0  0  0
  189.7050  177.8730  138.4260 C   0  0  0  0  0  2  0  0  0  0  0  0
  189.0620  178.0700  137.0640 C   0  0  2  0  0  3  0  0  0  0  0  0
  186.9100  177.2120  135.7470 S   0  0  0  0  0  0  0  0  0  0  0  0
  188.0020  179.0590  137.1460 N   0  0  0  0  0  2  0  0  0  0  0  0
  188.4440  176.7740  136.5990 C   0  0  1  0  0  3  0  0  0  0  0  0
  187.2460  178.9330  135.9700 N   0  0  0  0  0  2  0  0  0  0  0  0
  189.6670  174.6470  135.8960 N   0  0  0  0  0  0  0  0  0  0  0  0
  189.3750  176.0380  135.6830 C   0  0  0  0  0  0  0  0  0  0  0  0
  190.6860  173.9870  135.0960 C   0  0  0  0  0  1  0  0  0  0  0  0
  189.9200  176.6550  134.7270 O   0  0  0  0  0  0  0  0  0  0  0  0
  189.0600  173.8930  136.9870 C   0  0  0  0  0  2  0  0  0  0  0  0
  188.3600  172.6430  136.4650 C   0  0  0  0  0  2  0  0  0  0  0  0
  186.4600  173.8870  137.2180 O   0  0  0  0  0  1  0  0  0  0  0  0
  186.8570  172.8500  136.3690 C   0  0  0  0  0  2  0  0  0  0  0  0
  184.4610  178.8250  145.2440 C   0  0  0  0  0  2  0  0  0  0  0  0
  180.9880  178.6270  143.7400 C   0  0  0  0  0  3  0  0  0  0  0  0
  181.2760  178.5790  142.3710 C   0  0  0  0  0  0  0  0  0  0  0  0
  183.6470  178.7200  142.8740 C   0  0  0  0  0  3  0  0  0  0  0  0
  182.0250  178.7170  144.6730 C   0  0  0  0  0  3  0  0  0  0  0  0
  183.3550  178.7680  144.2420 C   0  0  0  0  0  0  0  0  0  0  0  0
  182.6110  178.6290  141.9410 C   0  0  0  0  0  3  0  0  0  0  0  0
  179.0810  177.8760  141.7770 O   0  0  0  0  0  1  0  0  0  0  0  0
  180.2310  178.4820  141.4530 O   0  0  0  0  0  0  0  0  0  0  0  0
  1  8  1  0  0  0  0
  1  6  1  0  0  0  0
  2 12  1  0  0  0  0
  3 14  2  0  0  0  0
  3 10  1  0  0  0  0
  4 15  1  0  0  0  0
  4  8  2  0  0  0  0
  5  1  2  0  0  0  0
  7  4  1  0  0  0  0
  9  7  1  0  0  0  0
  9  5  1  0  0  0  0
 10 11  1  0  0  0  0
 11  2  1  0  0  0  0
 11  7  2  0  0  0  0
 12 15  2  0  0  0  0
 13 35  1  0  0  0  0
 13  2  2  0  0  0  0
 14 13  1  0  0  0  0
 16  3  1  0  0  0  0
 17 16  1  0  0  0  0
 18 20  1  0  0  0  0
 18 16  1  1  0  0  0
 19 21  1  6  0  0  0
 19 18  1  0  0  0  0
 19 20  1  0  0  0  0
 22 24  1  0  0  0  0
 22 21  1  1  0  0  0
 23 26  1  0  0  0  0
 23 25  1  0  0  0  0
 25 28  1  6  0  0  0
 25 22  1  0  0  0  0
 26 24  1  0  0  0  0
 27 31  1  0  0  0  0
 28 27  1  0  0  0  0
 29 27  1  0  0  0  0
 30 28  2  0  0  0  0
 32 31  1  0  0  0  0
 34 32  1  0  0  0  0
 34 33  1  0  0  0  0
 36 39  1  0  0  0  0
 37 36  2  0  0  0  0
 38 40  1  0  0  0  0
 40 39  2  0  0  0  0
 40 35  1  0  0  0  0
 41 37  1  0  0  0  0
 41 38  2  0  0  0  0
 43 42  1  0  0  0  0
 43 37  1  0  0  0  0
M  END
>  <MODEL>
6

>  <REMARK>
 VINA RESULT:      -9.0      2.207      6.320
  Name = 
  11 active torsions:
  status: ('A' for Active; 'I' for Inactive)
    1  A    between atoms: C_1  and  C_34
    2  A    between atoms: C_1  and  C_35
    3  A    between atoms: N_2  and  C_6
    4  A    between atoms: N_2  and  C_13
    5  A    between atoms: C_3  and  C_4
    6  A    between atoms: C_3  and  C_12
    7  A    between atoms: N_11  and  C_36
    8  A    between atoms: C_14  and  C_22
    9  A    between atoms: C_19  and  O_37
   10  A    between atoms: C_29  and  C_31
   11  A    between atoms: C_29  and  C_36
                            x       y       z     vdW  Elec       q    Type
                         _______ _______ _______ _____ _____    ______ ____

>  <TORSDO>
F 11

$$$$
=
 OpenBabel10262422083D

 43 48  0  0  1  0  0  0  0  0999 V2000
  184.6110  177.0480  136.1850 C   0  0  0  0  0  0  0  0  0  0  0  0
  189.2730  175.2450  136.9360 C   0  0  0  0  0  0  0  0  0  0  0  0
  190.2610  176.5300  139.2600 C   0  0  0  0  0  0  0  0  0  0  0  0
  186.6870  175.8500  136.0020 C   0  0  0  0  0  0  0  0  0  0  0  0
  184.9930  177.7170  137.2740 C   0  0  0  0  0  3  0  0  0  0  0  0
  183.2560  177.2780  135.6170 C   0  0  0  0  0  1  0  0  0  0  0  0
  187.1890  176.5000  137.1520 C   0  0  0  0  0  0  0  0  0  0  0  0
  185.4930  176.1070  135.5570 N   0  0  0  0  0  0  0  0  0  0  0  0
  186.3530  177.5200  137.8840 C   0  0  0  0  0  3  0  0  0  0  0  0
  188.9850  176.8280  138.7610 O   0  0  0  0  0  0  0  0  0  0  0  0
  188.4780  176.1930  137.6160 C   0  0  0  0  0  0  0  0  0  0  0  0
  188.7600  174.6150  135.7910 C   0  0  0  0  0  2  0  0  0  0  0  0
  190.5100  174.9620  137.4010 C   0  0  0  0  0  0  0  0  0  0  0  0
  191.0170  175.6310  138.6170 C   0  0  0  0  0  3  0  0  0  0  0  0
  187.4770  174.9140  135.3310 C   0  0  0  0  0  3  0  0  0  0  0  0
  190.7370  177.1860  140.4500 N   0  0  0  0  0  0  0  0  0  0  0  0
  192.1420  177.5640  140.5780 C   0  0  0  0  0  1  0  0  0  0  0  0
  189.7890  177.6700  141.4530 C   0  0  2  0  0  3  0  0  0  0  0  0
  190.3280  177.4200  142.8530 C   0  0  2  0  0  3  0  0  0  0  0  0
  189.2610  176.5150  142.2860 C   0  0  0  0  0  2  0  0  0  0  0  0
  189.6940  178.4170  143.8040 C   0  0  0  0  0  2  0  0  0  0  0  0
  190.1810  178.1710  145.2220 C   0  0  2  0  0  3  0  0  0  0  0  0
  190.3900  176.1260  146.9180 S   0  0  0  0  0  0  0  0  0  0  0  0
  191.5350  177.6490  145.2060 N   0  0  0  0  0  2  0  0  0  0  0  0
  189.3020  177.1440  145.8930 C   0  0  1  0  0  3  0  0  0  0  0  0
  191.7800  177.1320  146.4870 N   0  0  0  0  0  2  0  0  0  0  0  0
  186.8950  177.9130  146.2490 N   0  0  0  0  0  0  0  0  0  0  0  0
  188.2460  177.8070  146.7250 C   0  0  0  0  0  0  0  0  0  0  0  0
  185.9190  178.6900  146.9950 C   0  0  0  0  0  1  0  0  0  0  0  0
  188.5570  178.2930  147.8480 O   0  0  0  0  0  0  0  0  0  0  0  0
  186.4900  177.3660  144.9580 C   0  0  0  0  0  2  0  0  0  0  0  0
  185.6130  178.3530  144.1970 C   0  0  0  0  0  2  0  0  0  0  0  0
  185.5070  179.6010  142.1590 O   0  0  0  0  0  1  0  0  0  0  0  0
  186.0120  178.4310  142.7310 C   0  0  0  0  0  2  0  0  0  0  0  0
  191.4210  173.9980  136.6980 C   0  0  0  0  0  2  0  0  0  0  0  0
  195.1070  174.8760  136.7920 C   0  0  0  0  0  3  0  0  0  0  0  0
  195.1730  175.9160  135.8580 C   0  0  0  0  0  0  0  0  0  0  0  0
  192.7910  175.6880  135.4490 C   0  0  0  0  0  3  0  0  0  0  0  0
  193.8870  174.2460  137.0560 C   0  0  0  0  0  3  0  0  0  0  0  0
  192.7290  174.6470  136.3830 C   0  0  0  0  0  0  0  0  0  0  0  0
  194.0090  176.3180  135.1850 C   0  0  0  0  0  3  0  0  0  0  0  0
  197.5170  176.1230  136.2120 O   0  0  0  0  0  1  0  0  0  0  0  0
  196.3950  176.5380  135.6100 O   0  0  0  0  0  0  0  0  0  0  0  0
  1  5  1  0  0  0  0
  2 13  2  0  0  0  0
  2 11  1  0  0  0  0
  3 16  1  0  0  0  0
  4  7  1  0  0  0  0
  5  9  2  0  0  0  0
  6  1  1  0  0  0  0
  7 11  2  0  0  0  0
  7  9  1  0  0  0  0
  8  4  1  0  0  0  0
  8  1  2  0  0  0  0
 10  3  1  0  0  0  0
 11 10  1  0  0  0  0
 12  2  1  0  0  0  0
 13 14  1  0  0  0  0
 14  3  2  0  0  0  0
 15 12  1  0  0  0  0
 15  4  2  0  0  0  0
 16 17  1  0  0  0  0
 18 16  1  6  0  0  0
 18 20  1  0  0  0  0
 18 19  1  0  0  0  0
 19 21  1  1  0  0  0
 20 19  1  0  0  0  0
 22 21  1  6  0  0  0
 22 25  1  0  0  0  0
 24 22  1  0  0  0  0
 24 26  1  0  0  0  0
 25 28  1  1  0  0  0
 25 23  1  0  0  0  0
 26 23  1  0  0  0  0
 27 28  1  0  0  0  0
 27 29  1  0  0  0  0
 28 30  2  0  0  0  0
 31 27  1  0  0  0  0
 32 31  1  0  0  0  0
 33 34  1  0  0  0  0
 34 32  1  0  0  0  0
 35 13  1  0  0  0  0
 36 39  1  0  0  0  0
 37 36  2  0  0  0  0
 38 40  1  0  0  0  0
 40 35  1  0  0  0  0
 40 39  2  0  0  0  0
 41 38  2  0  0  0  0
 41 37  1  0  0  0  0
 43 37  1  0  0  0  0
 43 42  1  0  0  0  0
M  END
>  <MODEL>
7

>  <REMARK>
 VINA RESULT:      -8.8      3.498      9.322
  Name = 
  11 active torsions:
  status: ('A' for Active; 'I' for Inactive)
    1  A    between atoms: C_1  and  C_34
    2  A    between atoms: C_1  and  C_35
    3  A    between atoms: N_2  and  C_6
    4  A    between atoms: N_2  and  C_13
    5  A    between atoms: C_3  and  C_4
    6  A    between atoms: C_3  and  C_12
    7  A    between atoms: N_11  and  C_36
    8  A    between atoms: C_14  and  C_22
    9  A    between atoms: C_19  and  O_37
   10  A    between atoms: C_29  and  C_31
   11  A    between atoms: C_29  and  C_36
                            x       y       z     vdW  Elec       q    Type
                         _______ _______ _______ _____ _____    ______ ____

>  <TORSDO>
F 11

$$$$
=
 OpenBabel10262422083D

 43 48  0  0  1  0  0  0  0  0999 V2000
  190.9450  176.7570  146.4870 C   0  0  0  0  0  0  0  0  0  0  0  0
  189.7070  177.5850  141.6570 C   0  0  0  0  0  0  0  0  0  0  0  0
  186.9940  178.4060  141.6580 C   0  0  0  0  0  0  0  0  0  0  0  0
  190.9770  176.9690  144.0920 C   0  0  0  0  0  0  0  0  0  0  0  0
  189.6640  177.1150  146.5890 C   0  0  0  0  0  3  0  0  0  0  0  0
  191.7160  176.4270  147.7140 C   0  0  0  0  0  1  0  0  0  0  0  0
  189.6200  177.3640  144.0870 C   0  0  0  0  0  0  0  0  0  0  0  0
  191.5860  176.6870  145.2060 N   0  0  0  0  0  0  0  0  0  0  0  0
  188.8420  177.4560  145.3770 C   0  0  0  0  0  3  0  0  0  0  0  0
  187.6450  178.0730  142.8540 O   0  0  0  0  0  0  0  0  0  0  0  0
  188.9910  177.6730  142.8710 C   0  0  0  0  0  0  0  0  0  0  0  0
  191.0520  177.1830  141.6810 C   0  0  0  0  0  2  0  0  0  0  0  0
  189.0830  177.8900  140.4970 C   0  0  0  0  0  0  0  0  0  0  0  0
  187.6700  178.3230  140.5050 C   0  0  0  0  0  3  0  0  0  0  0  0
  191.6800  176.8810  142.8900 C   0  0  0  0  0  3  0  0  0  0  0  0
  185.6200  178.8320  141.6840 N   0  0  0  0  0  0  0  0  0  0  0  0
  184.9050  178.9600  142.9510 C   0  0  0  0  0  1  0  0  0  0  0  0
  184.9850  179.3420  140.4690 C   0  0  2  0  0  3  0  0  0  0  0  0
  183.7280  178.5460  140.1550 C   0  0  2  0  0  3  0  0  0  0  0  0
  184.9970  178.2850  139.3790 C   0  0  0  0  0  2  0  0  0  0  0  0
  182.7960  179.4100  139.3290 C   0  0  0  0  0  2  0  0  0  0  0  0
  181.3720  178.8890  139.4270 C   0  0  2  0  0  3  0  0  0  0  0  0
  180.0790  176.8650  140.5830 S   0  0  0  0  0  0  0  0  0  0  0  0
  180.7570  179.3340  140.6640 N   0  0  0  0  0  2  0  0  0  0  0  0
  181.3810  177.3800  139.4370 C   0  0  1  0  0  3  0  0  0  0  0  0
  179.6070  178.5500  140.8440 N   0  0  0  0  0  2  0  0  0  0  0  0
  181.9110  175.7400  137.5550 N   0  0  0  0  0  0  0  0  0  0  0  0
  181.1320  176.8360  138.0620 C   0  0  0  0  0  0  0  0  0  0  0  0
  181.7640  175.3240  136.1690 C   0  0  0  0  0  1  0  0  0  0  0  0
  180.2400  177.3610  137.3400 O   0  0  0  0  0  0  0  0  0  0  0  0
  182.9510  175.1020  138.3530 C   0  0  0  0  0  2  0  0  0  0  0  0
  184.1530  174.7340  137.4920 C   0  0  0  0  0  2  0  0  0  0  0  0
  185.8240  173.0890  137.9690 O   0  0  0  0  0  1  0  0  0  0  0  0
  184.4850  173.2540  137.6060 C   0  0  0  0  0  2  0  0  0  0  0  0
  189.7740  177.7720  139.1700 C   0  0  0  0  0  2  0  0  0  0  0  0
  187.1810  176.5930  136.6700 C   0  0  0  0  0  3  0  0  0  0  0  0
  186.9670  177.7530  135.9170 C   0  0  0  0  0  0  0  0  0  0  0  0
  188.5680  178.9380  137.3060 C   0  0  0  0  0  3  0  0  0  0  0  0
  188.0870  176.6030  137.7350 C   0  0  0  0  0  3  0  0  0  0  0  0
  188.7780  177.7760  138.0570 C   0  0  0  0  0  0  0  0  0  0  0  0
  187.6630  178.9270  136.2410 C   0  0  0  0  0  3  0  0  0  0  0  0
  184.9330  177.0130  134.9280 O   0  0  0  0  0  1  0  0  0  0  0  0
  186.0660  177.7240  134.8550 O   0  0  0  0  0  0  0  0  0  0  0  0
  1  5  1  0  0  0  0
  1  6  1  0  0  0  0
  2 12  1  0  0  0  0
  2 11  1  0  0  0  0
  3 16  1  0  0  0  0
  3 10  1  0  0  0  0
  4  8  1  0  0  0  0
  7  4  1  0  0  0  0
  7  9  1  0  0  0  0
  8  1  2  0  0  0  0
  9  5  2  0  0  0  0
 10 11  1  0  0  0  0
 11  7  2  0  0  0  0
 12 15  1  0  0  0  0
 13 14  1  0  0  0  0
 13  2  2  0  0  0  0
 14  3  2  0  0  0  0
 15  4  2  0  0  0  0
 16 17  1  0  0  0  0
 18 16  1  1  0  0  0
 19 21  1  6  0  0  0
 19 18  1  0  0  0  0
 20 19  1  0  0  0  0
 20 18  1  0  0  0  0
 22 21  1  1  0  0  0
 22 25  1  0  0  0  0
 22 24  1  0  0  0  0
 23 26  1  0  0  0  0
 24 26  1  0  0  0  0
 25 28  1  6  0  0  0
 25 23  1  0  0  0  0
 27 28  1  0  0  0  0
 27 31  1  0  0  0  0
 29 27  1  0  0  0  0
 30 28  2  0  0  0  0
 32 34  1  0  0  0  0
 32 31  1  0  0  0  0
 34 33  1  0  0  0  0
 35 13  1  0  0  0  0
 36 39  1  0  0  0  0
 37 41  1  0  0  0  0
 37 36  2  0  0  0  0
 38 40  1  0  0  0  0
 39 40  2  0  0  0  0
 40 35  1  0  0  0  0
 41 38  2  0  0  0  0
 43 42  1  0  0  0  0
 43 37  1  0  0  0  0
M  END
>  <MODEL>
8

>  <REMARK>
 VINA RESULT:      -8.8      3.167      8.282
  Name = 
  11 active torsions:
  status: ('A' for Active; 'I' for Inactive)
    1  A    between atoms: C_1  and  C_34
    2  A    between atoms: C_1  and  C_35
    3  A    between atoms: N_2  and  C_6
    4  A    between atoms: N_2  and  C_13
    5  A    between atoms: C_3  and  C_4
    6  A    between atoms: C_3  and  C_12
    7  A    between atoms: N_11  and  C_36
    8  A    between atoms: C_14  and  C_22
    9  A    between atoms: C_19  and  O_37
   10  A    between atoms: C_29  and  C_31
   11  A    between atoms: C_29  and  C_36
                            x       y       z     vdW  Elec       q    Type
                         _______ _______ _______ _____ _____    ______ ____

>  <TORSDO>
F 11

$$$$
=
 OpenBabel10262422083D

 43 48  0  0  1  0  0  0  0  0999 V2000
  191.1670  176.5790  146.6260 C   0  0  0  0  0  0  0  0  0  0  0  0
  189.3630  177.8160  142.0680 C   0  0  0  0  0  0  0  0  0  0  0  0
  186.5860  178.2700  142.4060 C   0  0  0  0  0  0  0  0  0  0  0  0
  190.9340  177.0810  144.2860 C   0  0  0  0  0  0  0  0  0  0  0  0
  189.8690  176.7520  146.8810 C   0  0  0  0  0  3  0  0  0  0  0  0
  192.0900  176.2070  147.7290 C   0  0  0  0  0  1  0  0  0  0  0  0
  189.5460  177.2930  144.4470 C   0  0  0  0  0  0  0  0  0  0  0  0
  191.6810  176.7490  145.2980 N   0  0  0  0  0  0  0  0  0  0  0  0
  188.8950  177.1270  145.7980 C   0  0  0  0  0  3  0  0  0  0  0  0
  187.3880  177.8830  143.4890 O   0  0  0  0  0  0  0  0  0  0  0  0
  188.7670  177.6630  143.3390 C   0  0  0  0  0  0  0  0  0  0  0  0
  190.7420  177.5930  141.9260 C   0  0  0  0  0  2  0  0  0  0  0  0
  188.5950  178.1740  141.0160 C   0  0  0  0  0  0  0  0  0  0  0  0
  187.1490  178.4150  141.1990 C   0  0  0  0  0  3  0  0  0  0  0  0
  191.5190  177.2310  143.0270 C   0  0  0  0  0  3  0  0  0  0  0  0
  185.1800  178.5070  142.6030 N   0  0  0  0  0  0  0  0  0  0  0  0
  184.7220  179.4730  143.5980 C   0  0  0  0  0  1  0  0  0  0  0  0
  184.2010  177.9450  141.6730 C   0  0  2  0  0  3  0  0  0  0  0  0
  183.7510  179.0020  140.6770 C   0  0  2  0  0  3  0  0  0  0  0  0
  182.8570  178.6330  141.8370 C   0  0  0  0  0  2  0  0  0  0  0  0
  183.2620  178.3090  139.4200 C   0  0  0  0  0  2  0  0  0  0  0  0
  182.4560  179.2770  138.5690 C   0  0  2  0  0  3  0  0  0  0  0  0
  180.2450  180.7470  138.7960 S   0  0  0  0  0  0  0  0  0  0  0  0
  182.8030  180.6470  138.8990 N   0  0  0  0  0  2  0  0  0  0  0  0
  180.9840  179.0970  138.8460 C   0  0  1  0  0  3  0  0  0  0  0  0
  181.8000  181.4580  138.3450 N   0  0  0  0  0  2  0  0  0  0  0  0
  180.0740  176.8210  138.1350 N   0  0  0  0  0  0  0  0  0  0  0  0
  180.3550  178.1960  137.8260 C   0  0  0  0  0  0  0  0  0  0  0  0
  179.6080  175.9220  137.0920 C   0  0  0  0  0  1  0  0  0  0  0  0
  180.0880  178.6500  136.6790 O   0  0  0  0  0  0  0  0  0  0  0  0
  180.3650  176.2530  139.4470 C   0  0  0  0  0  2  0  0  0  0  0  0
  180.0660  174.7590  139.4750 C   0  0  0  0  0  2  0  0  0  0  0  0
  178.9350  175.4740  141.4580 O   0  0  0  0  0  1  0  0  0  0  0  0
  179.4220  174.3480  140.7890 C   0  0  0  0  0  2  0  0  0  0  0  0
  189.1590  178.3080  139.6310 C   0  0  0  0  0  2  0  0  0  0  0  0
  186.2270  177.5990  137.3370 C   0  0  0  0  0  3  0  0  0  0  0  0
  186.5640  176.3390  136.8300 C   0  0  0  0  0  0  0  0  0  0  0  0
  188.6140  176.3740  138.1320 C   0  0  0  0  0  3  0  0  0  0  0  0
  187.0780  178.2440  138.2400 C   0  0  0  0  0  3  0  0  0  0  0  0
  188.2730  177.6340  138.6360 C   0  0  0  0  0  0  0  0  0  0  0  0
  187.7630  175.7290  137.2290 C   0  0  0  0  0  3  0  0  0  0  0  0
  184.5910  175.0930  136.3620 O   0  0  0  0  0  1  0  0  0  0  0  0
  185.7030  175.7070  135.9350 O   0  0  0  0  0  0  0  0  0  0  0  0
  1  5  1  0  0  0  0
  1  6  1  0  0  0  0
  2 11  1  0  0  0  0
  3 16  1  0  0  0  0
  3 10  1  0  0  0  0
  4  7  1  0  0  0  0
  4  8  1  0  0  0  0
  7  9  1  0  0  0  0
  8  1  2  0  0  0  0
  9  5  2  0  0  0  0
 11 10  1  0  0  0  0
 11  7  2  0  0  0  0
 12  2  1  0  0  0  0
 12 15  1  0  0  0  0
 13 14  1  0  0  0  0
 13  2  2  0  0  0  0
 14  3  2  0  0  0  0
 15  4  2  0  0  0  0
 16 17  1  0  0  0  0
 18 20  1  0  0  0  0
 18 16  1  1  0  0  0
 19 21  1  6  0  0  0
 19 18  1  0  0  0  0
 19 20  1  0  0  0  0
 22 25  1  0  0  0  0
 22 24  1  0  0  0  0
 22 21  1  1  0  0  0
 23 25  1  0  0  0  0
 25 28  1  6  0  0  0
 26 23  1  0  0  0  0
 26 24  1  0  0  0  0
 27 31  1  0  0  0  0
 28 27  1  0  0  0  0
 29 27  1  0  0  0  0
 30 28  2  0  0  0  0
 31 32  1  0  0  0  0
 32 34  1  0  0  0  0
 34 33  1  0  0  0  0
 35 13  1  0  0  0  0
 36 39  1  0  0  0  0
 37 41  1  0  0  0  0
 37 36  2  0  0  0  0
 38 40  1  0  0  0  0
 39 40  2  0  0  0  0
 40 35  1  0  0  0  0
 41 38  2  0  0  0  0
 43 42  1  0  0  0  0
 43 37  1  0  0  0  0
M  END
>  <MODEL>
9

>  <REMARK>
 VINA RESULT:      -8.8      3.433      8.642
  Name = 
  11 active torsions:
  status: ('A' for Active; 'I' for Inactive)
    1  A    between atoms: C_1  and  C_34
    2  A    between atoms: C_1  and  C_35
    3  A    between atoms: N_2  and  C_6
    4  A    between atoms: N_2  and  C_13
    5  A    between atoms: C_3  and  C_4
    6  A    between atoms: C_3  and  C_12
    7  A    between atoms: N_11  and  C_36
    8  A    between atoms: C_14  and  C_22
    9  A    between atoms: C_19  and  O_37
   10  A    between atoms: C_29  and  C_31
   11  A    between atoms: C_29  and  C_36
                            x       y       z     vdW  Elec       q    Type
                         _______ _______ _______ _____ _____    ______ ____

>  <TORSDO>
F 11

$$$$
