=
 OpenBabel10262423363D

 34 39  0  0  1  0  0  0  0  0999 V2000
  188.7270  177.7570  140.8950 C   0  0  0  0  0  0  0  0  0  0  0  0
  189.8780  177.8930  143.1500 C   0  0  0  0  0  0  0  0  0  0  0  0
  191.7020  177.4580  141.5810 N   0  0  0  0  0  0  0  0  0  0  0  0
  187.8410  177.6980  138.7660 C   0  0  2  0  0  3  0  0  0  0  0  0
  187.5680  177.8900  140.1480 O   0  0  0  0  0  0  0  0  0  0  0  0
  189.3660  177.5850  138.6690 C   0  0  2  0  0  3  0  0  0  0  0  0
  191.2350  175.9220  138.4010 C   0  0  0  0  0  3  0  0  0  0  0  0
  189.7870  176.2340  138.0830 C   0  0  0  0  0  2  0  0  0  0  0  0
  191.1140  177.1320  140.4690 C   0  0  0  0  0  0  0  0  0  0  0  0
  189.7770  177.6240  140.0990 C   0  0  0  0  0  0  0  0  0  0  0  0
  191.8010  176.3140  139.5100 N   0  0  0  0  0  0  0  0  0  0  0  0
  189.8170  177.7560  144.5390 C   0  0  0  0  0  3  0  0  0  0  0  0
  188.6290  177.3660  145.1710 C   0  0  0  0  0  0  0  0  0  0  0  0
  187.4890  177.1270  144.3940 C   0  0  0  0  0  3  0  0  0  0  0  0
  191.1500  178.3990  142.5490 C   0  0  0  0  0  2  0  0  0  0  0  0
  187.5390  177.2680  143.0060 C   0  0  0  0  0  3  0  0  0  0  0  0
  188.7270  177.6500  142.3690 C   0  0  0  0  0  0  0  0  0  0  0  0
  188.5770  177.2200  146.6360 C   0  0  0  0  0  0  0  0  0  0  0  0
  187.5180  177.4860  147.2640 O   0  0  0  0  0  0  0  0  0  0  0  0
  189.7220  176.7770  147.3580 N   0  0  0  0  0  1  0  0  0  0  0  0
  187.2570  178.8040  137.8620 C   0  0  0  0  0  2  0  0  0  0  0  0
  185.7200  177.3320  136.7170 C   0  0  2  0  0  3  0  0  0  0  0  0
  184.8860  178.6950  138.4450 C   0  0  0  0  0  2  0  0  0  0  0  0
  182.8390  175.0670  137.7080 N   0  0  0  0  0  0  0  0  0  0  0  0
  182.5280  175.7620  138.9210 C   0  0  0  0  0  0  0  0  0  0  0  0
  184.0760  175.3840  137.0030 C   0  0  1  0  0  3  0  0  0  0  0  0
  181.5510  175.4150  139.6370 O   0  0  0  0  0  0  0  0  0  0  0  0
  184.2740  176.9150  136.9130 C   0  0  1  0  0  3  0  0  0  0  0  0
  181.9230  174.0910  137.1420 C   0  0  0  0  0  1  0  0  0  0  0  0
  183.3930  176.9030  139.3350 C   0  0  0  0  0  2  0  0  0  0  0  0
  183.7660  177.7320  138.1060 C   0  0  1  0  0  3  0  0  0  0  0  0
  185.1480  174.7710  137.6550 O   0  0  0  0  0  1  0  0  0  0  0  0
  185.8770  178.6250  137.3740 N   0  0  0  0  0  0  0  0  0  0  0  0
  186.0180  177.4620  135.2350 C   0  0  0  0  0  1  0  0  0  0  0  0
  1 17  1  0  0  0  0
  2 12  1  0  0  0  0
  3 15  1  0  0  0  0
  4 21  1  6  0  0  0
  4  5  1  0  0  0  0
  5  1  1  0  0  0  0
  6  8  1  1  0  0  0
  6  4  1  0  0  0  0
  6 10  1  0  0  0  0
  7 11  2  0  0  0  0
  8  7  1  0  0  0  0
  9  3  2  0  0  0  0
 10  9  1  0  0  0  0
 10  1  2  0  0  0  0
 11  9  1  0  0  0  0
 12 13  2  0  0  0  0
 13 18  1  0  0  0  0
 14 13  1  0  0  0  0
 15  2  1  0  0  0  0
 16 14  2  0  0  0  0
 17 16  1  0  0  0  0
 17  2  2  0  0  0  0
 18 19  2  0  0  0  0
 18 20  1  0  0  0  0
 22 34  1  6  0  0  0
 22 28  1  0  0  0  0
 22 33  1  0  0  0  0
 24 25  1  0  0  0  0
 25 30  1  0  0  0  0
 25 27  2  0  0  0  0
 26 32  1  1  0  0  0
 26 24  1  0  0  0  0
 28 26  1  0  0  0  0
 28 31  1  0  0  0  0
 29 24  1  0  0  0  0
 31 23  1  0  0  0  0
 31 30  1  0  0  0  0
 33 21  1  0  0  0  0
 33 23  1  0  0  0  0
M  END
>  <MODEL>
1

>  <REMARK>
 VINA RESULT:      -8.8      0.000      0.000
  Name = 
  3 active torsions:
  status: ('A' for Active; 'I' for Inactive)
    1  A    between atoms: C_3  and  C_25
    2  A    between atoms: C_8  and  C_18
    3  A    between atoms: C_18  and  N_30
                            x       y       z     vdW  Elec       q    Type
                         _______ _______ _______ _____ _____    ______ ____

>  <TORSDO>
F 3

$$$$
=
 OpenBabel10262423363D

 34 39  0  0  1  0  0  0  0  0999 V2000
  188.7300  177.7990  141.2310 C   0  0  0  0  0  0  0  0  0  0  0  0
  189.7460  178.0690  143.5390 C   0  0  0  0  0  0  0  0  0  0  0  0
  191.6800  177.7910  142.0700 N   0  0  0  0  0  0  0  0  0  0  0  0
  187.9650  177.6330  139.0620 C   0  0  2  0  0  3  0  0  0  0  0  0
  187.6030  177.8130  140.4260 O   0  0  0  0  0  0  0  0  0  0  0  0
  189.4950  177.6640  139.0430 C   0  0  2  0  0  3  0  0  0  0  0  0
  191.5240  176.1830  138.8950 C   0  0  0  0  0  3  0  0  0  0  0  0
  190.0720  176.3530  138.5010 C   0  0  0  0  0  2  0  0  0  0  0  0
  191.1840  177.3980  140.9350 C   0  0  0  0  0  0  0  0  0  0  0  0
  189.8270  177.7570  140.4900 C   0  0  0  0  0  0  0  0  0  0  0  0
  191.9940  176.6390  140.0250 N   0  0  0  0  0  0  0  0  0  0  0  0
  189.6270  177.9420  144.9250 C   0  0  0  0  0  3  0  0  0  0  0  0
  188.4500  177.4490  145.5020 C   0  0  0  0  0  0  0  0  0  0  0  0
  187.3790  177.0940  144.6740 C   0  0  0  0  0  3  0  0  0  0  0  0
  190.9940  178.6860  142.9940 C   0  0  0  0  0  2  0  0  0  0  0  0
  187.4870  177.2230  143.2880 C   0  0  0  0  0  3  0  0  0  0  0  0
  188.6650  177.7090  142.7050 C   0  0  0  0  0  0  0  0  0  0  0  0
  188.3360  177.3150  146.9650 C   0  0  0  0  0  0  0  0  0  0  0  0
  189.0910  176.5250  147.5930 O   0  0  0  0  0  0  0  0  0  0  0  0
  187.3710  178.0760  147.6860 N   0  0  0  0  0  1  0  0  0  0  0  0
  187.3250  178.6690  138.1120 C   0  0  0  0  0  2  0  0  0  0  0  0
  186.9570  176.9460  136.4570 C   0  0  2  0  0  3  0  0  0  0  0  0
  185.0890  177.8510  137.5670 C   0  0  0  0  0  2  0  0  0  0  0  0
  184.7330  173.8870  136.1320 N   0  0  0  0  0  0  0  0  0  0  0  0
  183.7300  174.3480  137.0450 C   0  0  0  0  0  0  0  0  0  0  0  0
  186.0020  174.6010  136.0490 C   0  0  1  0  0  3  0  0  0  0  0  0
  182.6860  173.6760  137.2560 O   0  0  0  0  0  0  0  0  0  0  0  0
  185.7650  176.1280  135.9960 C   0  0  1  0  0  3  0  0  0  0  0  0
  184.4900  172.7550  135.2530 C   0  0  0  0  0  1  0  0  0  0  0  0
  183.9480  175.6390  137.7580 C   0  0  0  0  0  2  0  0  0  0  0  0
  184.5680  176.6530  136.7970 C   0  0  1  0  0  3  0  0  0  0  0  0
  186.8010  174.2500  137.1390 O   0  0  0  0  0  1  0  0  0  0  0  0
  186.4230  178.1620  137.0620 N   0  0  0  0  0  0  0  0  0  0  0  0
  187.8290  177.2970  135.2660 C   0  0  0  0  0  1  0  0  0  0  0  0
  1 17  1  0  0  0  0
  2 12  1  0  0  0  0
  3 15  1  0  0  0  0
  4 21  1  6  0  0  0
  4  5  1  0  0  0  0
  5  1  1  0  0  0  0
  6  8  1  1  0  0  0
  6  4  1  0  0  0  0
  6 10  1  0  0  0  0
  7 11  2  0  0  0  0
  8  7  1  0  0  0  0
  9  3  2  0  0  0  0
 10  9  1  0  0  0  0
 10  1  2  0  0  0  0
 11  9  1  0  0  0  0
 12 13  2  0  0  0  0
 13 18  1  0  0  0  0
 14 13  1  0  0  0  0
 15  2  1  0  0  0  0
 16 14  2  0  0  0  0
 17 16  1  0  0  0  0
 17  2  2  0  0  0  0
 18 19  2  0  0  0  0
 18 20  1  0  0  0  0
 22 34  1  6  0  0  0
 22 33  1  0  0  0  0
 24 25  1  0  0  0  0
 25 27  2  0  0  0  0
 25 30  1  0  0  0  0
 26 24  1  0  0  0  0
 26 32  1  1  0  0  0
 28 26  1  0  0  0  0
 28 22  1  0  0  0  0
 28 31  1  0  0  0  0
 29 24  1  0  0  0  0
 31 23  1  0  0  0  0
 31 30  1  0  0  0  0
 33 23  1  0  0  0  0
 33 21  1  0  0  0  0
M  END
>  <MODEL>
2

>  <REMARK>
 VINA RESULT:      -8.8      1.319      1.517
  Name = 
  3 active torsions:
  status: ('A' for Active; 'I' for Inactive)
    1  A    between atoms: C_3  and  C_25
    2  A    between atoms: C_8  and  C_18
    3  A    between atoms: C_18  and  N_30
                            x       y       z     vdW  Elec       q    Type
                         _______ _______ _______ _____ _____    ______ ____

>  <TORSDO>
F 3

$$$$
=
 OpenBabel10262423363D

 34 39  0  0  1  0  0  0  0  0999 V2000
  186.3930  178.0590  138.8500 C   0  0  0  0  0  0  0  0  0  0  0  0
  184.1610  177.3320  137.8890 C   0  0  0  0  0  0  0  0  0  0  0  0
  185.8080  176.3250  136.3880 N   0  0  0  0  0  0  0  0  0  0  0  0
  188.4960  178.5580  139.6540 C   0  0  2  0  0  3  0  0  0  0  0  0
  187.0950  178.6910  139.8620 O   0  0  0  0  0  0  0  0  0  0  0  0
  188.6370  177.6110  138.4590 C   0  0  2  0  0  3  0  0  0  0  0  0
  189.1230  177.5640  135.9910 C   0  0  0  0  0  3  0  0  0  0  0  0
  189.3740  178.2860  137.2980 C   0  0  0  0  0  2  0  0  0  0  0  0
  186.9350  176.8880  136.7040 C   0  0  0  0  0  0  0  0  0  0  0  0
  187.2210  177.3990  138.0540 C   0  0  0  0  0  0  0  0  0  0  0  0
  187.9910  176.9660  135.7350 N   0  0  0  0  0  0  0  0  0  0  0  0
  182.7940  177.5640  137.7200 C   0  0  0  0  0  3  0  0  0  0  0  0
  182.1830  178.6920  138.2840 C   0  0  0  0  0  0  0  0  0  0  0  0
  182.9550  179.5830  139.0370 C   0  0  0  0  0  3  0  0  0  0  0  0
  184.7320  176.0650  137.3370 C   0  0  0  0  0  2  0  0  0  0  0  0
  184.3210  179.3550  139.2160 C   0  0  0  0  0  3  0  0  0  0  0  0
  184.9390  178.2330  138.6480 C   0  0  0  0  0  0  0  0  0  0  0  0
  180.7410  178.9300  138.0960 C   0  0  0  0  0  0  0  0  0  0  0  0
  179.9640  177.9710  137.8480 O   0  0  0  0  0  0  0  0  0  0  0  0
  180.2100  180.2490  138.1920 N   0  0  0  0  0  1  0  0  0  0  0  0
  189.2620  178.0760  140.9040 C   0  0  0  0  0  2  0  0  0  0  0  0
  189.3540  176.9310  143.0310 C   0  0  2  0  0  3  0  0  0  0  0  0
  187.2880  177.8030  142.3170 C   0  0  0  0  0  2  0  0  0  0  0  0
  187.8820  177.4510  146.4910 N   0  0  0  0  0  0  0  0  0  0  0  0
  186.7650  178.2320  146.0500 C   0  0  0  0  0  0  0  0  0  0  0  0
  188.9620  177.1620  145.5550 C   0  0  1  0  0  3  0  0  0  0  0  0
  185.8890  178.6290  146.8630 O   0  0  0  0  0  0  0  0  0  0  0  0
  188.3940  176.7200  144.1870 C   0  0  1  0  0  3  0  0  0  0  0  0
  187.9340  176.9000  147.8350 C   0  0  0  0  0  1  0  0  0  0  0  0
  186.6620  178.5820  144.6050 C   0  0  0  0  0  2  0  0  0  0  0  0
  187.0790  177.3800  143.7580 C   0  0  1  0  0  3  0  0  0  0  0  0
  189.7750  178.2910  145.4260 O   0  0  0  0  0  1  0  0  0  0  0  0
  188.5390  177.2100  141.8530 N   0  0  0  0  0  0  0  0  0  0  0  0
  190.1740  175.6730  142.8100 C   0  0  0  0  0  1  0  0  0  0  0  0
  1  5  1  0  0  0  0
  2 17  1  0  0  0  0
  3  9  2  0  0  0  0
  3 15  1  0  0  0  0
  4  5  1  0  0  0  0
  4 21  1  1  0  0  0
  6  8  1  6  0  0  0
  6  4  1  0  0  0  0
  7  8  1  0  0  0  0
  9 10  1  0  0  0  0
 10  6  1  0  0  0  0
 10  1  2  0  0  0  0
 11  7  2  0  0  0  0
 11  9  1  0  0  0  0
 12  2  2  0  0  0  0
 12 13  1  0  0  0  0
 13 14  2  0  0  0  0
 14 16  1  0  0  0  0
 15  2  1  0  0  0  0
 17  1  1  0  0  0  0
 17 16  2  0  0  0  0
 18 20  1  0  0  0  0
 18 13  1  0  0  0  0
 19 18  2  0  0  0  0
 21 33  1  0  0  0  0
 22 34  1  6  0  0  0
 22 28  1  0  0  0  0
 23 31  1  0  0  0  0
 24 29  1  0  0  0  0
 25 24  1  0  0  0  0
 25 27  2  0  0  0  0
 26 32  1  6  0  0  0
 26 24  1  0  0  0  0
 28 26  1  0  0  0  0
 30 25  1  0  0  0  0
 31 28  1  0  0  0  0
 31 30  1  0  0  0  0
 33 23  1  0  0  0  0
 33 22  1  0  0  0  0
M  END
>  <MODEL>
3

>  <REMARK>
 VINA RESULT:      -8.7      2.130      7.740
  Name = 
  3 active torsions:
  status: ('A' for Active; 'I' for Inactive)
    1  A    between atoms: C_3  and  C_25
    2  A    between atoms: C_8  and  C_18
    3  A    between atoms: C_18  and  N_30
                            x       y       z     vdW  Elec       q    Type
                         _______ _______ _______ _____ _____    ______ ____

>  <TORSDO>
F 3

$$$$
=
 OpenBabel10262423363D

 34 39  0  0  1  0  0  0  0  0999 V2000
  186.3430  178.3990  141.9600 C   0  0  0  0  0  0  0  0  0  0  0  0
  184.5100  178.9930  143.6090 C   0  0  0  0  0  0  0  0  0  0  0  0
  186.3770  178.2970  145.0260 N   0  0  0  0  0  0  0  0  0  0  0  0
  188.1370  177.9110  140.5940 C   0  0  2  0  0  3  0  0  0  0  0  0
  186.7890  178.3620  140.6490 O   0  0  0  0  0  0  0  0  0  0  0  0
  188.5870  177.8110  142.0540 C   0  0  2  0  0  3  0  0  0  0  0  0
  189.0030  176.1650  143.9110 C   0  0  0  0  0  3  0  0  0  0  0  0
  189.0020  176.3800  142.4120 C   0  0  0  0  0  2  0  0  0  0  0  0
  187.2290  177.7500  144.2100 C   0  0  0  0  0  0  0  0  0  0  0  0
  187.3380  178.1340  142.7940 C   0  0  0  0  0  0  0  0  0  0  0  0
  188.1610  176.7750  144.7000 N   0  0  0  0  0  0  0  0  0  0  0  0
  183.1490  179.1270  143.8930 C   0  0  0  0  0  3  0  0  0  0  0  0
  182.1810  178.8440  142.9210 C   0  0  0  0  0  0  0  0  0  0  0  0
  182.5920  178.4360  141.6470 C   0  0  0  0  0  3  0  0  0  0  0  0
  185.4910  179.3970  144.6620 C   0  0  0  0  0  2  0  0  0  0  0  0
  183.9500  178.3060  141.3520 C   0  0  0  0  0  3  0  0  0  0  0  0
  184.9220  178.5810  142.3230 C   0  0  0  0  0  0  0  0  0  0  0  0
  180.7480  178.9840  143.2330 C   0  0  0  0  0  0  0  0  0  0  0  0
  180.1390  180.0520  142.9610 O   0  0  0  0  0  0  0  0  0  0  0  0
  180.0350  177.9130  143.8460 N   0  0  0  0  0  1  0  0  0  0  0  0
  189.0530  178.8090  139.7360 C   0  0  0  0  0  2  0  0  0  0  0  0
  189.2280  177.0390  138.1000 C   0  0  2  0  0  3  0  0  0  0  0  0
  188.0640  178.9980  137.5100 C   0  0  0  0  0  2  0  0  0  0  0  0
  186.9270  175.4280  135.5470 N   0  0  0  0  0  0  0  0  0  0  0  0
  186.0550  176.5560  135.4150 C   0  0  0  0  0  0  0  0  0  0  0  0
  187.9060  175.4080  136.6270 C   0  0  1  0  0  3  0  0  0  0  0  0
  185.1000  176.5470  134.5950 O   0  0  0  0  0  0  0  0  0  0  0  0
  188.6300  176.7700  136.7320 C   0  0  1  0  0  3  0  0  0  0  0  0
  186.8880  174.3290  134.5960 C   0  0  0  0  0  1  0  0  0  0  0  0
  186.2880  177.7470  136.2820 C   0  0  0  0  0  2  0  0  0  0  0  0
  187.7900  178.0080  136.3970 C   0  0  1  0  0  3  0  0  0  0  0  0
  187.2660  175.0800  137.8250 O   0  0  0  0  0  1  0  0  0  0  0  0
  189.1770  178.4830  138.3040 N   0  0  0  0  0  0  0  0  0  0  0  0
  190.6670  176.5600  138.1330 C   0  0  0  0  0  1  0  0  0  0  0  0
  1 17  1  0  0  0  0
  1 10  2  0  0  0  0
  2 12  1  0  0  0  0
  2 15  1  0  0  0  0
  4 21  1  6  0  0  0
  4  5  1  0  0  0  0
  4  6  1  0  0  0  0
  5  1  1  0  0  0  0
  6  8  1  1  0  0  0
  6 10  1  0  0  0  0
  7 11  2  0  0  0  0
  8  7  1  0  0  0  0
  9 11  1  0  0  0  0
  9  3  2  0  0  0  0
 10  9  1  0  0  0  0
 13 18  1  0  0  0  0
 13 12  2  0  0  0  0
 14 13  1  0  0  0  0
 15  3  1  0  0  0  0
 16 14  2  0  0  0  0
 16 17  1  0  0  0  0
 17  2  2  0  0  0  0
 18 20  1  0  0  0  0
 19 18  2  0  0  0  0
 22 34  1  6  0  0  0
 22 33  1  0  0  0  0
 23 33  1  0  0  0  0
 24 26  1  0  0  0  0
 25 24  1  0  0  0  0
 25 30  1  0  0  0  0
 26 28  1  0  0  0  0
 26 32  1  1  0  0  0
 27 25  2  0  0  0  0
 28 22  1  0  0  0  0
 29 24  1  0  0  0  0
 30 31  1  0  0  0  0
 31 28  1  0  0  0  0
 31 23  1  0  0  0  0
 33 21  1  0  0  0  0
M  END
>  <MODEL>
4

>  <REMARK>
 VINA RESULT:      -8.6      3.042      5.321
  Name = 
  3 active torsions:
  status: ('A' for Active; 'I' for Inactive)
    1  A    between atoms: C_3  and  C_25
    2  A    between atoms: C_8  and  C_18
    3  A    between atoms: C_18  and  N_30
                            x       y       z     vdW  Elec       q    Type
                         _______ _______ _______ _____ _____    ______ ____

>  <TORSDO>
F 3

$$$$
=
 OpenBabel10262423363D

 34 39  0  0  1  0  0  0  0  0999 V2000
  186.8910  176.9080  137.9430 C   0  0  0  0  0  0  0  0  0  0  0  0
  185.4340  175.2000  136.7650 C   0  0  0  0  0  0  0  0  0  0  0  0
  187.6980  174.3040  136.5380 N   0  0  0  0  0  0  0  0  0  0  0  0
  188.3350  178.3200  139.0560 C   0  0  2  0  0  3  0  0  0  0  0  0
  186.9810  178.0590  138.7090 O   0  0  0  0  0  0  0  0  0  0  0  0
  189.1200  177.1020  138.5620 C   0  0  2  0  0  3  0  0  0  0  0  0
  190.6330  176.3120  136.7140 C   0  0  0  0  0  3  0  0  0  0  0  0
  190.1810  177.5030  137.5330 C   0  0  0  0  0  2  0  0  0  0  0  0
  188.4790  175.2760  136.9020 C   0  0  0  0  0  0  0  0  0  0  0  0
  188.0700  176.3100  137.8660 C   0  0  0  0  0  0  0  0  0  0  0  0
  189.8270  175.3310  136.4130 N   0  0  0  0  0  0  0  0  0  0  0  0
  184.2590  174.8980  136.0720 C   0  0  0  0  0  3  0  0  0  0  0  0
  183.3050  175.8890  135.8100 C   0  0  0  0  0  0  0  0  0  0  0  0
  183.5330  177.1940  136.2640 C   0  0  0  0  0  3  0  0  0  0  0  0
  186.3670  174.0770  137.0890 C   0  0  0  0  0  2  0  0  0  0  0  0
  184.7010  177.5030  136.9630 C   0  0  0  0  0  3  0  0  0  0  0  0
  185.6620  176.5160  137.2210 C   0  0  0  0  0  0  0  0  0  0  0  0
  182.0720  175.5620  135.0740 C   0  0  0  0  0  0  0  0  0  0  0  0
  181.3280  176.4800  134.6370 O   0  0  0  0  0  0  0  0  0  0  0  0
  181.7060  174.2030  134.8470 N   0  0  0  0  0  1  0  0  0  0  0  0
  188.5420  178.6070  140.5590 C   0  0  0  0  0  2  0  0  0  0  0  0
  190.1530  177.6830  142.1060 C   0  0  2  0  0  3  0  0  0  0  0  0
  187.8710  177.2250  142.4580 C   0  0  0  0  0  2  0  0  0  0  0  0
  190.3800  177.2000  145.8650 N   0  0  0  0  0  0  0  0  0  0  0  0
  188.9650  177.2070  146.0900 C   0  0  0  0  0  0  0  0  0  0  0  0
  190.8940  177.6010  144.5600 C   0  0  1  0  0  3  0  0  0  0  0  0
  188.4900  177.0160  147.2410 O   0  0  0  0  0  0  0  0  0  0  0  0
  190.0790  176.9380  143.4260 C   0  0  1  0  0  3  0  0  0  0  0  0
  191.3050  176.7530  146.8920 C   0  0  0  0  0  1  0  0  0  0  0  0
  188.0560  177.4620  144.9360 C   0  0  0  0  0  2  0  0  0  0  0  0
  188.5840  176.7320  143.7010 C   0  0  1  0  0  3  0  0  0  0  0  0
  190.8630  178.9930  144.4590 O   0  0  0  0  0  1  0  0  0  0  0  0
  188.8790  177.4650  141.4290 N   0  0  0  0  0  0  0  0  0  0  0  0
  191.2890  177.1270  141.2680 C   0  0  0  0  0  1  0  0  0  0  0  0
  1  5  1  0  0  0  0
  2 15  1  0  0  0  0
  2 17  1  0  0  0  0
  3  9  2  0  0  0  0
  3 15  1  0  0  0  0
  4 21  1  1  0  0  0
  5  4  1  0  0  0  0
  6  8  1  6  0  0  0
  6  4  1  0  0  0  0
  7  8  1  0  0  0  0
  9 10  1  0  0  0  0
 10  1  2  0  0  0  0
 10  6  1  0  0  0  0
 11  7  2  0  0  0  0
 11  9  1  0  0  0  0
 12  2  2  0  0  0  0
 13 12  1  0  0  0  0
 13 14  2  0  0  0  0
 14 16  1  0  0  0  0
 16 17  2  0  0  0  0
 17  1  1  0  0  0  0
 18 13  1  0  0  0  0
 19 18  2  0  0  0  0
 20 18  1  0  0  0  0
 21 33  1  0  0  0  0
 22 34  1  6  0  0  0
 22 28  1  0  0  0  0
 23 31  1  0  0  0  0
 24 25  1  0  0  0  0
 24 29  1  0  0  0  0
 25 27  2  0  0  0  0
 26 32  1  6  0  0  0
 26 24  1  0  0  0  0
 28 31  1  0  0  0  0
 28 26  1  0  0  0  0
 30 25  1  0  0  0  0
 31 30  1  0  0  0  0
 33 22  1  0  0  0  0
 33 23  1  0  0  0  0
M  END
>  <MODEL>
5

>  <REMARK>
 VINA RESULT:      -8.6      2.176      8.304
  Name = 
  3 active torsions:
  status: ('A' for Active; 'I' for Inactive)
    1  A    between atoms: C_3  and  C_25
    2  A    between atoms: C_8  and  C_18
    3  A    between atoms: C_18  and  N_30
                            x       y       z     vdW  Elec       q    Type
                         _______ _______ _______ _____ _____    ______ ____

>  <TORSDO>
F 3

$$$$
=
 OpenBabel10262423363D

 34 39  0  0  1  0  0  0  0  0999 V2000
  182.0500  178.4060  141.1870 C   0  0  0  0  0  0  0  0  0  0  0  0
  182.4630  178.8570  143.6480 C   0  0  0  0  0  0  0  0  0  0  0  0
  180.4400  180.1350  143.1430 N   0  0  0  0  0  0  0  0  0  0  0  0
  181.4890  178.0180  138.9840 C   0  0  2  0  0  3  0  0  0  0  0  0
  182.3970  177.7180  140.0360 O   0  0  0  0  0  0  0  0  0  0  0  0
  180.3920  178.8690  139.6300 C   0  0  2  0  0  3  0  0  0  0  0  0
  179.5770  181.2370  139.8690 C   0  0  0  0  0  3  0  0  0  0  0  0
  180.3020  180.2520  138.9770 C   0  0  0  0  0  2  0  0  0  0  0  0
  180.3560  180.1270  141.8470 C   0  0  0  0  0  0  0  0  0  0  0  0
  180.9000  179.0390  141.0180 C   0  0  0  0  0  0  0  0  0  0  0  0
  179.6480  181.1770  141.1710 N   0  0  0  0  0  0  0  0  0  0  0  0
  183.3560  178.9470  144.7180 C   0  0  0  0  0  3  0  0  0  0  0  0
  184.7230  178.7010  144.5360 C   0  0  0  0  0  0  0  0  0  0  0  0
  185.1890  178.3460  143.2650 C   0  0  0  0  0  3  0  0  0  0  0  0
  181.0070  179.0450  143.9300 C   0  0  0  0  0  2  0  0  0  0  0  0
  184.3030  178.2470  142.1910 C   0  0  0  0  0  3  0  0  0  0  0  0
  182.9360  178.5000  142.3670 C   0  0  0  0  0  0  0  0  0  0  0  0
  185.6570  178.8030  145.6710 C   0  0  0  0  0  0  0  0  0  0  0  0
  185.3060  179.3780  146.7350 O   0  0  0  0  0  0  0  0  0  0  0  0
  186.9680  178.2530  145.5770 N   0  0  0  0  0  1  0  0  0  0  0  0
  180.9420  176.7670  138.2650 C   0  0  0  0  0  2  0  0  0  0  0  0
  182.6940  177.2380  136.6680 C   0  0  2  0  0  3  0  0  0  0  0  0
  182.4100  175.0180  137.3960 C   0  0  0  0  0  2  0  0  0  0  0  0
  186.2900  176.1420  136.1390 N   0  0  0  0  0  0  0  0  0  0  0  0
  186.1610  174.9020  136.8430 C   0  0  0  0  0  0  0  0  0  0  0  0
  185.2190  177.1280  136.2330 C   0  0  1  0  0  3  0  0  0  0  0  0
  187.1220  174.0910  136.9120 O   0  0  0  0  0  0  0  0  0  0  0  0
  183.8400  176.4520  136.0570 C   0  0  1  0  0  3  0  0  0  0  0  0
  187.4410  176.4140  135.2950 C   0  0  0  0  0  1  0  0  0  0  0  0
  184.8660  174.5880  137.5120 C   0  0  0  0  0  2  0  0  0  0  0  0
  183.7090  175.0300  136.6160 C   0  0  1  0  0  3  0  0  0  0  0  0
  185.3070  177.7900  137.4590 O   0  0  0  0  0  1  0  0  0  0  0  0
  181.7020  176.2620  137.1060 N   0  0  0  0  0  0  0  0  0  0  0  0
  182.0910  178.1580  135.6220 C   0  0  0  0  0  1  0  0  0  0  0  0
  1 17  1  0  0  0  0
  2 15  1  0  0  0  0
  2 12  1  0  0  0  0
  3 15  1  0  0  0  0
  4 21  1  1  0  0  0
  4  6  1  0  0  0  0
  4  5  1  0  0  0  0
  5  1  1  0  0  0  0
  6  8  1  6  0  0  0
  6 10  1  0  0  0  0
  7 11  2  0  0  0  0
  8  7  1  0  0  0  0
  9  3  2  0  0  0  0
 10  1  2  0  0  0  0
 10  9  1  0  0  0  0
 11  9  1  0  0  0  0
 13 12  2  0  0  0  0
 13 18  1  0  0  0  0
 14 13  1  0  0  0  0
 16 17  1  0  0  0  0
 16 14  2  0  0  0  0
 17  2  2  0  0  0  0
 18 19  2  0  0  0  0
 20 18  1  0  0  0  0
 22 34  1  6  0  0  0
 22 33  1  0  0  0  0
 24 26  1  0  0  0  0
 24 25  1  0  0  0  0
 25 27  2  0  0  0  0
 25 30  1  0  0  0  0
 26 32  1  1  0  0  0
 28 26  1  0  0  0  0
 28 31  1  0  0  0  0
 28 22  1  0  0  0  0
 29 24  1  0  0  0  0
 31 23  1  0  0  0  0
 31 30  1  0  0  0  0
 33 23  1  0  0  0  0
 33 21  1  0  0  0  0
M  END
>  <MODEL>
6

>  <REMARK>
 VINA RESULT:      -8.6      3.665      6.773
  Name = 
  3 active torsions:
  status: ('A' for Active; 'I' for Inactive)
    1  A    between atoms: C_3  and  C_25
    2  A    between atoms: C_8  and  C_18
    3  A    between atoms: C_18  and  N_30
                            x       y       z     vdW  Elec       q    Type
                         _______ _______ _______ _____ _____    ______ ____

>  <TORSDO>
F 3

$$$$
=
 OpenBabel10262423363D

 34 39  0  0  1  0  0  0  0  0999 V2000
  189.0160  177.3760  140.2040 C   0  0  0  0  0  0  0  0  0  0  0  0
  190.8340  177.3970  141.9720 C   0  0  0  0  0  0  0  0  0  0  0  0
  191.9620  176.5510  139.9740 N   0  0  0  0  0  0  0  0  0  0  0  0
  187.5000  177.3880  138.4660 C   0  0  2  0  0  3  0  0  0  0  0  0
  187.7180  177.6910  139.8380 O   0  0  0  0  0  0  0  0  0  0  0  0
  188.8720  176.9830  137.9200 C   0  0  2  0  0  3  0  0  0  0  0  0
  190.2550  174.9860  137.2670 C   0  0  0  0  0  3  0  0  0  0  0  0
  188.8550  175.5510  137.3770 C   0  0  0  0  0  2  0  0  0  0  0  0
  191.0040  176.2910  139.1350 C   0  0  0  0  0  0  0  0  0  0  0  0
  189.7190  177.0100  139.1430 C   0  0  0  0  0  0  0  0  0  0  0  0
  191.2040  175.3140  138.1030 N   0  0  0  0  0  0  0  0  0  0  0  0
  191.1990  177.3390  143.3190 C   0  0  0  0  0  3  0  0  0  0  0  0
  190.2290  177.2100  144.3210 C   0  0  0  0  0  0  0  0  0  0  0  0
  188.8770  177.1560  143.9600 C   0  0  0  0  0  3  0  0  0  0  0  0
  191.9130  177.6230  140.9610 C   0  0  0  0  0  2  0  0  0  0  0  0
  188.5030  177.2200  142.6160 C   0  0  0  0  0  3  0  0  0  0  0  0
  189.4710  177.3400  141.6100 C   0  0  0  0  0  0  0  0  0  0  0  0
  190.6240  177.1450  145.7380 C   0  0  0  0  0  0  0  0  0  0  0  0
  191.8390  177.0480  146.0570 O   0  0  0  0  0  0  0  0  0  0  0  0
  189.6370  177.1910  146.7650 N   0  0  0  0  0  1  0  0  0  0  0  0
  186.8470  178.5410  137.6750 C   0  0  0  0  0  2  0  0  0  0  0  0
  185.2310  177.0590  136.6600 C   0  0  2  0  0  3  0  0  0  0  0  0
  184.5060  178.5010  138.3720 C   0  0  0  0  0  2  0  0  0  0  0  0
  182.3590  174.8910  137.8690 N   0  0  0  0  0  0  0  0  0  0  0  0
  182.1190  175.6370  139.0680 C   0  0  0  0  0  0  0  0  0  0  0  0
  183.5670  175.1570  137.0960 C   0  0  1  0  0  3  0  0  0  0  0  0
  181.1710  175.3360  139.8410 O   0  0  0  0  0  0  0  0  0  0  0  0
  183.7890  176.6790  136.9380 C   0  0  1  0  0  3  0  0  0  0  0  0
  181.3990  173.9140  137.3840 C   0  0  0  0  0  1  0  0  0  0  0  0
  183.0240  176.7750  139.3980 C   0  0  0  0  0  2  0  0  0  0  0  0
  183.3530  177.5500  138.1230 C   0  0  1  0  0  3  0  0  0  0  0  0
  184.6570  174.5470  137.7190 O   0  0  0  0  0  1  0  0  0  0  0  0
  185.4430  178.3720  137.2600 N   0  0  0  0  0  0  0  0  0  0  0  0
  185.4610  177.1280  135.1610 C   0  0  0  0  0  1  0  0  0  0  0  0
  1 17  1  0  0  0  0
  2 12  1  0  0  0  0
  3 15  1  0  0  0  0
  4 21  1  6  0  0  0
  4  5  1  0  0  0  0
  5  1  1  0  0  0  0
  6  8  1  1  0  0  0
  6  4  1  0  0  0  0
  6 10  1  0  0  0  0
  7  8  1  0  0  0  0
  7 11  2  0  0  0  0
  9 10  1  0  0  0  0
  9  3  2  0  0  0  0
 10  1  2  0  0  0  0
 11  9  1  0  0  0  0
 12 13  2  0  0  0  0
 13 18  1  0  0  0  0
 14 13  1  0  0  0  0
 15  2  1  0  0  0  0
 16 14  2  0  0  0  0
 17  2  2  0  0  0  0
 17 16  1  0  0  0  0
 18 19  2  0  0  0  0
 18 20  1  0  0  0  0
 22 34  1  6  0  0  0
 22 28  1  0  0  0  0
 22 33  1  0  0  0  0
 24 25  1  0  0  0  0
 25 30  1  0  0  0  0
 25 27  2  0  0  0  0
 26 32  1  1  0  0  0
 26 24  1  0  0  0  0
 28 26  1  0  0  0  0
 28 31  1  0  0  0  0
 29 24  1  0  0  0  0
 31 23  1  0  0  0  0
 31 30  1  0  0  0  0
 33 21  1  0  0  0  0
 33 23  1  0  0  0  0
M  END
>  <MODEL>
7

>  <REMARK>
 VINA RESULT:      -8.5      1.190      1.384
  Name = 
  3 active torsions:
  status: ('A' for Active; 'I' for Inactive)
    1  A    between atoms: C_3  and  C_25
    2  A    between atoms: C_8  and  C_18
    3  A    between atoms: C_18  and  N_30
                            x       y       z     vdW  Elec       q    Type
                         _______ _______ _______ _____ _____    ______ ____

>  <TORSDO>
F 3

$$$$
=
 OpenBabel10262423363D

 34 39  0  0  1  0  0  0  0  0999 V2000
  182.3560  178.7000  140.8420 C   0  0  0  0  0  0  0  0  0  0  0  0
  182.4710  178.7490  143.3740 C   0  0  0  0  0  0  0  0  0  0  0  0
  180.3810  179.9070  142.8550 N   0  0  0  0  0  0  0  0  0  0  0  0
  182.0610  178.6550  138.5550 C   0  0  2  0  0  3  0  0  0  0  0  0
  182.8880  178.2590  139.6420 O   0  0  0  0  0  0  0  0  0  0  0  0
  180.8200  179.2780  139.2000 C   0  0  2  0  0  3  0  0  0  0  0  0
  179.7320  181.4840  139.7280 C   0  0  0  0  0  3  0  0  0  0  0  0
  180.6450  180.7390  138.7770 C   0  0  0  0  0  2  0  0  0  0  0  0
  180.4280  180.1190  141.5740 C   0  0  0  0  0  0  0  0  0  0  0  0
  181.1660  179.2470  140.6460 C   0  0  0  0  0  0  0  0  0  0  0  0
  179.6800  181.2030  141.0020 N   0  0  0  0  0  0  0  0  0  0  0  0
  183.2390  178.7300  144.5420 C   0  0  0  0  0  3  0  0  0  0  0  0
  184.6350  178.6440  144.4820 C   0  0  0  0  0  0  0  0  0  0  0  0
  185.2610  178.5610  143.2320 C   0  0  0  0  0  3  0  0  0  0  0  0
  180.9820  178.7520  143.5120 C   0  0  0  0  0  2  0  0  0  0  0  0
  184.5020  178.5720  142.0610 C   0  0  0  0  0  3  0  0  0  0  0  0
  183.1050  178.6660  142.1160 C   0  0  0  0  0  0  0  0  0  0  0  0
  185.4360  178.6300  145.7180 C   0  0  0  0  0  0  0  0  0  0  0  0
  184.9270  178.9970  146.8100 O   0  0  0  0  0  0  0  0  0  0  0  0
  186.7950  178.2010  145.6930 N   0  0  0  0  0  1  0  0  0  0  0  0
  181.7280  177.5050  137.5810 C   0  0  0  0  0  2  0  0  0  0  0  0
  180.4770  175.4740  137.9650 C   0  0  2  0  0  3  0  0  0  0  0  0
  182.7640  175.2970  137.4390 C   0  0  0  0  0  2  0  0  0  0  0  0
  180.2980  172.0240  136.3900 N   0  0  0  0  0  0  0  0  0  0  0  0
  181.6160  172.0590  135.8310 C   0  0  0  0  0  0  0  0  0  0  0  0
  179.7240  173.2490  136.9350 C   0  0  1  0  0  3  0  0  0  0  0  0
  182.0880  171.0660  135.2180 O   0  0  0  0  0  0  0  0  0  0  0  0
  180.7550  173.9890  137.8170 C   0  0  1  0  0  3  0  0  0  0  0  0
  179.5450  170.7840  136.4700 C   0  0  0  0  0  1  0  0  0  0  0  0
  182.4230  173.3040  135.9750 C   0  0  0  0  0  2  0  0  0  0  0  0
  182.2190  173.8850  137.3750 C   0  0  1  0  0  3  0  0  0  0  0  0
  179.2810  174.0580  135.8860 O   0  0  0  0  0  1  0  0  0  0  0  0
  181.7710  176.1310  138.1120 N   0  0  0  0  0  0  0  0  0  0  0  0
  179.6280  175.7150  139.2000 C   0  0  0  0  0  1  0  0  0  0  0  0
  1 17  1  0  0  0  0
  2 15  1  0  0  0  0
  2 12  1  0  0  0  0
  3 15  1  0  0  0  0
  4 21  1  1  0  0  0
  4  6  1  0  0  0  0
  4  5  1  0  0  0  0
  5  1  1  0  0  0  0
  6  8  1  6  0  0  0
  6 10  1  0  0  0  0
  7 11  2  0  0  0  0
  8  7  1  0  0  0  0
  9  3  2  0  0  0  0
 10  1  2  0  0  0  0
 10  9  1  0  0  0  0
 11  9  1  0  0  0  0
 13 12  2  0  0  0  0
 13 18  1  0  0  0  0
 14 13  1  0  0  0  0
 16 17  1  0  0  0  0
 16 14  2  0  0  0  0
 17  2  2  0  0  0  0
 18 19  2  0  0  0  0
 20 18  1  0  0  0  0
 21 33  1  0  0  0  0
 22 33  1  0  0  0  0
 22 34  1  1  0  0  0
 23 33  1  0  0  0  0
 24 29  1  0  0  0  0
 24 26  1  0  0  0  0
 25 30  1  0  0  0  0
 25 24  1  0  0  0  0
 26 32  1  6  0  0  0
 26 28  1  0  0  0  0
 27 25  2  0  0  0  0
 28 22  1  0  0  0  0
 30 31  1  0  0  0  0
 31 23  1  0  0  0  0
 31 28  1  0  0  0  0
M  END
>  <MODEL>
8

>  <REMARK>
 VINA RESULT:      -8.4      4.522      6.973
  Name = 
  3 active torsions:
  status: ('A' for Active; 'I' for Inactive)
    1  A    between atoms: C_3  and  C_25
    2  A    between atoms: C_8  and  C_18
    3  A    between atoms: C_18  and  N_30
                            x       y       z     vdW  Elec       q    Type
                         _______ _______ _______ _____ _____    ______ ____

>  <TORSDO>
F 3

$$$$
=
 OpenBabel10262423363D

 34 39  0  0  1  0  0  0  0  0999 V2000
  185.7430  177.9300  138.0290 C   0  0  0  0  0  0  0  0  0  0  0  0
  183.2660  177.7410  137.5240 C   0  0  0  0  0  0  0  0  0  0  0  0
  184.3390  176.5830  135.6580 N   0  0  0  0  0  0  0  0  0  0  0  0
  188.0200  177.9360  138.3960 C   0  0  2  0  0  3  0  0  0  0  0  0
  186.7470  178.3170  138.9020 O   0  0  0  0  0  0  0  0  0  0  0  0
  187.7240  177.0980  137.1500 C   0  0  2  0  0  3  0  0  0  0  0  0
  187.6960  177.1910  134.6360 C   0  0  0  0  0  3  0  0  0  0  0  0
  188.3430  177.7240  135.8970 C   0  0  0  0  0  2  0  0  0  0  0  0
  185.5990  176.8850  135.7580 C   0  0  0  0  0  0  0  0  0  0  0  0
  186.2440  177.2020  137.0430 C   0  0  0  0  0  0  0  0  0  0  0  0
  186.4360  176.8500  134.5940 N   0  0  0  0  0  0  0  0  0  0  0  0
  181.9710  178.2490  137.6610 C   0  0  0  0  0  3  0  0  0  0  0  0
  181.7300  179.4140  138.3990 C   0  0  0  0  0  0  0  0  0  0  0  0
  182.8040  180.0650  139.0180 C   0  0  0  0  0  3  0  0  0  0  0  0
  183.4400  176.4460  136.7980 C   0  0  0  0  0  2  0  0  0  0  0  0
  184.1000  179.5610  138.8920 C   0  0  0  0  0  3  0  0  0  0  0  0
  184.3470  178.4000  138.1480 C   0  0  0  0  0  0  0  0  0  0  0  0
  180.3620  179.9430  138.5330 C   0  0  0  0  0  0  0  0  0  0  0  0
  179.4080  179.4050  137.9100 O   0  0  0  0  0  0  0  0  0  0  0  0
  180.1010  181.0680  139.3670 N   0  0  0  0  0  1  0  0  0  0  0  0
  188.9000  177.2000  139.4290 C   0  0  0  0  0  2  0  0  0  0  0  0
  188.4640  177.8670  141.7110 C   0  0  2  0  0  3  0  0  0  0  0  0
  190.6980  177.5340  141.0490 C   0  0  0  0  0  2  0  0  0  0  0  0
  189.8010  176.9430  145.1410 N   0  0  0  0  0  0  0  0  0  0  0  0
  191.0720  176.4760  144.6720 C   0  0  0  0  0  0  0  0  0  0  0  0
  188.7430  177.2150  144.1750 C   0  0  1  0  0  3  0  0  0  0  0  0
  191.9580  176.0870  145.4780 O   0  0  0  0  0  0  0  0  0  0  0  0
  189.2950  178.0120  142.9710 C   0  0  1  0  0  3  0  0  0  0  0  0
  189.5660  177.2000  146.5520 C   0  0  0  0  0  1  0  0  0  0  0  0
  191.3250  176.4420  143.2040 C   0  0  0  0  0  2  0  0  0  0  0  0
  190.7360  177.6940  142.5550 C   0  0  1  0  0  3  0  0  0  0  0  0
  188.1720  176.0080  143.7650 O   0  0  0  0  0  1  0  0  0  0  0  0
  189.3850  177.9760  140.5850 N   0  0  0  0  0  0  0  0  0  0  0  0
  187.4320  178.9780  141.6470 C   0  0  0  0  0  1  0  0  0  0  0  0
  1 17  1  0  0  0  0
  1  5  1  0  0  0  0
  2 12  2  0  0  0  0
  2 17  1  0  0  0  0
  3  9  2  0  0  0  0
  3 15  1  0  0  0  0
  4  5  1  0  0  0  0
  4 21  1  1  0  0  0
  6  8  1  6  0  0  0
  6  4  1  0  0  0  0
  7  8  1  0  0  0  0
  9 10  1  0  0  0  0
 10  6  1  0  0  0  0
 10  1  2  0  0  0  0
 11  7  2  0  0  0  0
 11  9  1  0  0  0  0
 12 13  1  0  0  0  0
 13 18  1  0  0  0  0
 13 14  2  0  0  0  0
 15  2  1  0  0  0  0
 16 14  1  0  0  0  0
 17 16  2  0  0  0  0
 18 20  1  0  0  0  0
 19 18  2  0  0  0  0
 21 33  1  0  0  0  0
 22 34  1  6  0  0  0
 22 28  1  0  0  0  0
 23 31  1  0  0  0  0
 24 29  1  0  0  0  0
 25 24  1  0  0  0  0
 25 27  2  0  0  0  0
 26 32  1  6  0  0  0
 26 24  1  0  0  0  0
 28 26  1  0  0  0  0
 30 25  1  0  0  0  0
 31 28  1  0  0  0  0
 31 30  1  0  0  0  0
 33 23  1  0  0  0  0
 33 22  1  0  0  0  0
M  END
>  <MODEL>
9

>  <REMARK>
 VINA RESULT:      -8.2      2.482      8.154
  Name = 
  3 active torsions:
  status: ('A' for Active; 'I' for Inactive)
    1  A    between atoms: C_3  and  C_25
    2  A    between atoms: C_8  and  C_18
    3  A    between atoms: C_18  and  N_30
                            x       y       z     vdW  Elec       q    Type
                         _______ _______ _______ _____ _____    ______ ____

>  <TORSDO>
F 3

$$$$
