=
 OpenBabel10262421223D

 32 37  0  0  1  0  0  0  0  0999 V2000
  183.6200  179.6260  144.5210 C   0  0  0  0  0  3  0  0  0  0  0  0
  187.9470  177.5880  142.8350 C   0  0  0  0  0  0  0  0  0  0  0  0
  190.3270  176.6440  147.1400 C   0  0  0  0  0  2  0  0  0  0  0  0
  191.5210  177.4030  146.5580 C   0  0  0  0  0  2  0  0  0  0  0  0
  189.6690  177.5460  140.8760 C   0  0  0  0  0  0  0  0  0  0  0  0
  189.0680  178.0420  139.6280 C   0  0  0  0  0  0  0  0  0  0  0  0
  185.5410  178.0260  142.7430 C   0  0  2  0  0  3  0  0  0  0  0  0
  186.6840  177.5740  144.9370 C   0  0  0  0  0  3  0  0  0  0  0  0
  191.7680  177.1880  139.6950 N   0  0  0  0  0  0  0  0  0  0  0  0
  184.8330  179.1670  144.8240 C   0  0  0  0  0  3  0  0  0  0  0  0
  189.0820  177.0250  146.4020 C   0  0  0  0  0  2  0  0  0  0  0  0
  187.8580  177.4190  144.3040 C   0  0  0  0  0  0  0  0  0  0  0  0
  189.0850  177.0630  145.0640 C   0  0  0  0  0  0  0  0  0  0  0  0
  190.3480  177.0050  142.9160 N   0  0  0  0  0  0  0  0  0  0  0  0
  191.0840  177.3200  138.4020 C   0  0  0  0  0  2  0  0  0  0  0  0
  183.0980  178.4490  142.3950 C   0  0  0  0  0  3  0  0  0  0  0  0
  185.3960  177.9160  144.2390 C   0  0  0  0  0  0  0  0  0  0  0  0
  189.7680  177.9840  138.5290 N   0  0  0  0  0  0  0  0  0  0  0  0
  184.4860  178.2090  141.9490 C   0  0  0  0  0  3  0  0  0  0  0  0
  182.6910  179.0320  143.5370 C   0  0  0  0  0  0  0  0  0  0  0  0
  191.6050  177.3180  145.0200 C   0  0  0  0  0  2  0  0  0  0  0  0
  190.3710  176.6860  144.3470 C   0  0  0  0  0  0  0  0  0  0  0  0
  191.3960  176.8490  142.1170 N   0  0  0  0  0  0  0  0  0  0  0  0
  186.8550  177.8490  142.1140 C   0  0  0  0  0  3  0  0  0  0  0  0
  187.8210  178.7250  139.6180 N   0  0  0  0  0  1  0  0  0  0  0  0
  193.1750  176.8270  139.7280 C   0  0  0  0  0  1  0  0  0  0  0  0
  189.2680  177.4090  142.2040 C   0  0  0  0  0  0  0  0  0  0  0  0
  190.9800  177.1800  140.8830 C   0  0  0  0  0  0  0  0  0  0  0  0
  180.3340  179.8410  142.8980 C   0  0  0  0  0  0  0  0  0  0  0  0
  181.2910  179.2370  143.7790 N   0  0  0  0  0  2  0  0  0  0  0  0
  180.6570  180.2240  141.7420 O   0  0  0  0  0  0  0  0  0  0  0  0
  178.9310  180.0100  143.3550 C   0  0  0  0  0  1  0  0  0  0  0  0
  1 10  1  0  0  0  0
  2 12  1  0  0  0  0
  4  3  1  0  0  0  0
  5 28  1  0  0  0  0
  5 27  2  0  0  0  0
  6  5  1  0  0  0  0
  7 19  1  6  0  0  0
  7 17  1  0  0  0  0
  9 26  1  0  0  0  0
  9 28  1  0  0  0  0
 11  3  1  0  0  0  0
 12  8  2  0  0  0  0
 12 13  1  0  0  0  0
 13 11  1  0  0  0  0
 14 22  1  0  0  0  0
 15 18  1  0  0  0  0
 15  9  1  0  0  0  0
 16 20  1  0  0  0  0
 17 10  2  0  0  0  0
 17  8  1  0  0  0  0
 18  6  2  0  0  0  0
 19 16  2  0  0  0  0
 20 30  1  0  0  0  0
 20  1  2  0  0  0  0
 21  4  1  0  0  0  0
 22 21  1  0  0  0  0
 22 13  2  0  0  0  0
 23 14  1  0  0  0  0
 24  7  1  0  0  0  0
 24  2  2  0  0  0  0
 25  6  1  0  0  0  0
 27  2  1  0  0  0  0
 27 14  1  0  0  0  0
 28 23  2  0  0  0  0
 29 32  1  0  0  0  0
 29 30  1  0  0  0  0
 31 29  2  0  0  0  0
M  END
>  <MODEL>
1

>  <REMARK>
 VINA RESULT:     -11.5      0.000      0.000
  Name = 
  1 active torsions:
  status: ('A' for Active; 'I' for Inactive)
    1  A    between atoms: N_10  and  C_24
                            x       y       z     vdW  Elec       q    Type
                         _______ _______ _______ _____ _____    ______ ____

>  <TORSDO>
F 1

$$$$
=
 OpenBabel10262421223D

 32 37  0  0  0  0  0  0  0  0999 V2000
  189.6020  176.3940  146.8750 C   0  0  0  0  0  3  0  0  0  0  0  0
  187.9830  178.1060  142.3840 C   0  0  0  0  0  0  0  0  0  0  0  0
  183.1780  179.1030  143.3900 C   0  0  0  0  0  2  0  0  0  0  0  0
  182.8250  178.2520  142.1690 C   0  0  0  0  0  2  0  0  0  0  0  0
  188.3050  177.9630  139.8000 C   0  0  0  0  0  0  0  0  0  0  0  0
  189.6410  177.4470  139.4580 C   0  0  0  0  0  0  0  0  0  0  0  0
  189.6490  177.8010  144.1500 C   0  0  0  0  0  0  0  0  0  0  0  0
  187.2470  178.2850  144.7170 C   0  0  0  0  0  3  0  0  0  0  0  0
  187.7950  178.1480  137.4260 N   0  0  0  0  0  0  0  0  0  0  0  0
  188.5680  176.7970  146.1370 C   0  0  0  0  0  3  0  0  0  0  0  0
  184.5590  178.7610  143.8580 C   0  0  0  0  0  2  0  0  0  0  0  0
  186.9420  178.3450  143.4100 C   0  0  0  0  0  0  0  0  0  0  0  0
  185.5580  178.6640  142.9720 C   0  0  0  0  0  0  0  0  0  0  0  0
  186.3260  178.5540  140.6040 N   0  0  0  0  0  0  0  0  0  0  0  0
  189.2170  177.9970  137.0900 C   0  0  0  0  0  2  0  0  0  0  0  0
  191.5320  177.5040  145.7720 C   0  0  0  0  0  3  0  0  0  0  0  0
  188.6260  177.9860  145.2400 C   0  0  0  0  0  0  0  0  0  0  0  0
  189.9980  177.4160  138.2030 N   0  0  0  0  0  0  0  0  0  0  0  0
  190.9440  177.6450  144.4240 C   0  0  0  0  0  3  0  0  0  0  0  0
  190.9510  176.9960  146.8740 C   0  0  0  0  0  0  0  0  0  0  0  0
  183.9190  178.2640  141.0820 C   0  0  0  0  0  2  0  0  0  0  0  0
  185.2390  178.9340  141.5110 C   0  0  0  0  0  0  0  0  0  0  0  0
  186.2280  178.6150  139.2820 N   0  0  0  0  0  0  0  0  0  0  0  0
  189.2470  177.8760  142.7400 C   0  0  0  0  0  2  0  0  0  0  0  0
  190.4790  176.8360  140.4300 N   0  0  0  0  0  1  0  0  0  0  0  0
  186.8350  178.4290  136.3720 C   0  0  0  0  0  1  0  0  0  0  0  0
  187.5770  178.1810  140.9670 C   0  0  0  0  0  0  0  0  0  0  0  0
  187.4290  178.2530  138.8000 C   0  0  0  0  0  0  0  0  0  0  0  0
  192.8050  176.0080  148.3580 C   0  0  0  0  0  0  0  0  0  0  0  0
  191.7000  176.8820  148.0940 N   0  0  0  0  0  2  0  0  0  0  0  0
  193.2720  175.2530  147.4640 O   0  0  0  0  0  0  0  0  0  0  0  0
  193.4200  176.0020  149.7100 C   0  0  0  0  0  1  0  0  0  0  0  0
  2 24  1  0  0  0  0
  2 12  2  0  0  0  0
  3 11  1  0  0  0  0
  4  3  1  0  0  0  0
  5 27  2  0  0  0  0
  6  5  1  0  0  0  0
  6 25  1  0  0  0  0
  7 19  2  0  0  0  0
  7 17  1  0  0  0  0
  8 17  2  0  0  0  0
  9 28  1  0  0  0  0
 10  1  2  0  0  0  0
 12  8  1  0  0  0  0
 13 12  1  0  0  0  0
 13 11  1  0  0  0  0
 14 27  1  0  0  0  0
 14 22  1  0  0  0  0
 15  9  1  0  0  0  0
 15 18  1  0  0  0  0
 16 20  2  0  0  0  0
 17 10  1  0  0  0  0
 18  6  2  0  0  0  0
 19 16  1  0  0  0  0
 20  1  1  0  0  0  0
 20 30  1  0  0  0  0
 21 22  1  0  0  0  0
 21  4  1  0  0  0  0
 22 13  2  0  0  0  0
 23 14  1  0  0  0  0
 24  7  1  0  0  0  0
 26  9  1  0  0  0  0
 27  2  1  0  0  0  0
 28 23  2  0  0  0  0
 28  5  1  0  0  0  0
 29 32  1  0  0  0  0
 30 29  1  0  0  0  0
 31 29  2  0  0  0  0
M  END
>  <MODEL>
2

>  <REMARK>
 VINA RESULT:     -10.4      3.230      7.196
  Name = 
  1 active torsions:
  status: ('A' for Active; 'I' for Inactive)
    1  A    between atoms: N_10  and  C_24
                            x       y       z     vdW  Elec       q    Type
                         _______ _______ _______ _____ _____    ______ ____

>  <TORSDO>
F 1

$$$$
=
 OpenBabel10262421223D

 32 37  0  0  1  0  0  0  0  0999 V2000
  182.6840  178.0070  140.7640 C   0  0  0  0  0  3  0  0  0  0  0  0
  187.1860  178.0790  143.1000 C   0  0  0  0  0  0  0  0  0  0  0  0
  190.3150  177.7240  139.2050 C   0  0  0  0  0  2  0  0  0  0  0  0
  190.9750  176.5560  139.9400 C   0  0  0  0  0  2  0  0  0  0  0  0
  188.4680  177.4710  145.2880 C   0  0  0  0  0  0  0  0  0  0  0  0
  187.5450  177.3350  146.4260 C   0  0  0  0  0  0  0  0  0  0  0  0
  184.8370  178.7130  142.8330 C   0  0  0  0  0  0  0  0  0  0  0  0
  186.3580  178.5360  140.8370 C   0  0  0  0  0  3  0  0  0  0  0  0
  190.3310  176.9520  146.7680 N   0  0  0  0  0  0  0  0  0  0  0  0
  184.0070  177.8910  140.6500 C   0  0  0  0  0  3  0  0  0  0  0  0
  188.9370  177.9440  139.7470 C   0  0  0  0  0  2  0  0  0  0  0  0
  187.3840  178.2040  141.6370 C   0  0  0  0  0  0  0  0  0  0  0  0
  188.7380  177.9680  141.0710 C   0  0  0  0  0  0  0  0  0  0  0  0
  189.5900  177.5780  143.3790 N   0  0  0  0  0  0  0  0  0  0  0  0
  189.4830  177.1820  147.9450 C   0  0  0  0  0  2  0  0  0  0  0  0
  182.4270  179.3890  142.8140 C   0  0  0  0  0  3  0  0  0  0  0  0
  184.9640  178.8070  141.3340 C   0  0  1  0  0  3  0  0  0  0  0  0
  188.0420  177.1370  147.6160 N   0  0  0  0  0  0  0  0  0  0  0  0
  183.7070  179.0340  143.4610 C   0  0  0  0  0  3  0  0  0  0  0  0
  181.9720  178.9840  141.6150 C   0  0  0  0  0  0  0  0  0  0  0  0
  190.8720  176.6650  141.4750 C   0  0  0  0  0  2  0  0  0  0  0  0
  189.9470  177.7930  141.9740 C   0  0  0  0  0  0  0  0  0  0  0  0
  190.4810  177.3090  144.3250 N   0  0  0  0  0  0  0  0  0  0  0  0
  185.9990  178.3410  143.6500 C   0  0  0  0  0  3  0  0  0  0  0  0
  186.1380  177.2500  146.2420 N   0  0  0  0  0  1  0  0  0  0  0  0
  191.7460  176.6770  146.9470 C   0  0  0  0  0  1  0  0  0  0  0  0
  188.3540  177.7050  143.9190 C   0  0  0  0  0  0  0  0  0  0  0  0
  189.7960  177.2420  145.4790 C   0  0  0  0  0  0  0  0  0  0  0  0
  180.3530  180.2660  140.0820 C   0  0  0  0  0  0  0  0  0  0  0  0
  180.6680  179.3840  141.1680 N   0  0  0  0  0  2  0  0  0  0  0  0
  181.2550  180.7570  139.3520 O   0  0  0  0  0  0  0  0  0  0  0  0
  178.9310  180.5990  139.8060 C   0  0  0  0  0  1  0  0  0  0  0  0
  1 20  1  0  0  0  0
  2 24  2  0  0  0  0
  2 27  1  0  0  0  0
  3 11  1  0  0  0  0
  3  4  1  0  0  0  0
  4 21  1  0  0  0  0
  5 28  1  0  0  0  0
  5  6  1  0  0  0  0
  6 18  2  0  0  0  0
  7 19  2  0  0  0  0
  7 24  1  0  0  0  0
  8 17  1  0  0  0  0
  8 12  2  0  0  0  0
  9 26  1  0  0  0  0
  9 15  1  0  0  0  0
 10  1  2  0  0  0  0
 11 13  1  0  0  0  0
 12  2  1  0  0  0  0
 13 12  1  0  0  0  0
 13 22  2  0  0  0  0
 14 27  1  0  0  0  0
 14 23  1  0  0  0  0
 16 19  1  0  0  0  0
 17 10  1  6  0  0  0
 17  7  1  0  0  0  0
 18 15  1  0  0  0  0
 20 16  2  0  0  0  0
 21 22  1  0  0  0  0
 22 14  1  0  0  0  0
 23 28  2  0  0  0  0
 25  6  1  0  0  0  0
 27  5  2  0  0  0  0
 28  9  1  0  0  0  0
 29 30  1  0  0  0  0
 30 20  1  0  0  0  0
 31 29  2  0  0  0  0
 32 29  1  0  0  0  0
M  END
>  <MODEL>
3

>  <REMARK>
 VINA RESULT:     -10.4      2.058      4.847
  Name = 
  1 active torsions:
  status: ('A' for Active; 'I' for Inactive)
    1  A    between atoms: N_10  and  C_24
                            x       y       z     vdW  Elec       q    Type
                         _______ _______ _______ _____ _____    ______ ____

>  <TORSDO>
F 1

$$$$
=
 OpenBabel10262421223D

 32 37  0  0  0  0  0  0  0  0999 V2000
  190.8210  178.3040  144.9950 C   0  0  0  0  0  3  0  0  0  0  0  0
  187.0340  178.0010  141.6340 C   0  0  0  0  0  0  0  0  0  0  0  0
  189.5680  177.8500  137.3160 C   0  0  0  0  0  2  0  0  0  0  0  0
  188.6810  179.0030  136.8430 C   0  0  0  0  0  2  0  0  0  0  0  0
  184.5520  178.6350  141.1500 C   0  0  0  0  0  0  0  0  0  0  0  0
  183.8210  178.9180  142.3960 C   0  0  0  0  0  0  0  0  0  0  0  0
  188.1020  177.5510  143.7900 C   0  0  0  0  0  0  0  0  0  0  0  0
  189.4300  177.4750  141.6550 C   0  0  0  0  0  3  0  0  0  0  0  0
  182.5210  179.0870  139.8840 N   0  0  0  0  0  0  0  0  0  0  0  0
  190.4600  178.3020  143.7130 C   0  0  0  0  0  3  0  0  0  0  0  0
  189.5460  177.7810  138.8120 C   0  0  0  0  0  2  0  0  0  0  0  0
  188.3270  177.7700  140.9480 C   0  0  0  0  0  0  0  0  0  0  0  0
  188.3810  177.8560  139.4650 C   0  0  0  0  0  0  0  0  0  0  0  0
  185.9320  178.3160  139.4450 N   0  0  0  0  0  0  0  0  0  0  0  0
  181.7170  179.0030  141.1110 C   0  0  0  0  0  2  0  0  0  0  0  0
  188.9580  177.0790  146.0940 C   0  0  0  0  0  3  0  0  0  0  0  0
  189.4540  177.3530  143.1540 C   0  0  0  0  0  0  0  0  0  0  0  0
  182.5380  179.1470  142.3320 N   0  0  0  0  0  0  0  0  0  0  0  0
  187.9080  177.3650  145.0950 C   0  0  0  0  0  3  0  0  0  0  0  0
  190.2520  177.4450  146.0550 C   0  0  0  0  0  0  0  0  0  0  0  0
  187.2800  178.9980  137.4900 C   0  0  0  0  0  2  0  0  0  0  0  0
  187.1120  177.9850  138.6400 C   0  0  0  0  0  0  0  0  0  0  0  0
  184.7390  178.5680  138.9210 N   0  0  0  0  0  0  0  0  0  0  0  0
  186.9360  177.8740  142.9580 C   0  0  0  0  0  2  0  0  0  0  0  0
  184.4960  179.1090  143.6320 N   0  0  0  0  0  1  0  0  0  0  0  0
  181.8580  179.2540  138.6020 C   0  0  0  0  0  1  0  0  0  0  0  0
  185.8640  178.3260  140.7980 C   0  0  0  0  0  0  0  0  0  0  0  0
  183.9070  178.7640  139.9580 C   0  0  0  0  0  0  0  0  0  0  0  0
  192.0550  176.0420  147.2370 C   0  0  0  0  0  0  0  0  0  0  0  0
  191.1230  177.1280  147.1520 N   0  0  0  0  0  2  0  0  0  0  0  0
  192.2330  175.2530  146.2720 O   0  0  0  0  0  0  0  0  0  0  0  0
  192.8360  175.8510  148.4870 C   0  0  0  0  0  1  0  0  0  0  0  0
  1 20  1  0  0  0  0
  2 24  1  0  0  0  0
  3 11  1  0  0  0  0
  4  3  1  0  0  0  0
  4 21  1  0  0  0  0
  5  6  1  0  0  0  0
  6 25  1  0  0  0  0
  7 19  2  0  0  0  0
  8 17  2  0  0  0  0
  9 28  1  0  0  0  0
  9 15  1  0  0  0  0
 10  1  2  0  0  0  0
 11 13  1  0  0  0  0
 12  2  2  0  0  0  0
 12  8  1  0  0  0  0
 13 12  1  0  0  0  0
 14 27  1  0  0  0  0
 15 18  1  0  0  0  0
 17 10  1  0  0  0  0
 17  7  1  0  0  0  0
 18  6  2  0  0  0  0
 19 16  1  0  0  0  0
 20 16  2  0  0  0  0
 20 30  1  0  0  0  0
 21 22  1  0  0  0  0
 22 14  1  0  0  0  0
 22 13  2  0  0  0  0
 23 14  1  0  0  0  0
 23 28  2  0  0  0  0
 24  7  1  0  0  0  0
 26  9  1  0  0  0  0
 27  5  2  0  0  0  0
 27  2  1  0  0  0  0
 28  5  1  0  0  0  0
 29 32  1  0  0  0  0
 30 29  1  0  0  0  0
 31 29  2  0  0  0  0
M  END
>  <MODEL>
4

>  <REMARK>
 VINA RESULT:     -10.3      3.346      7.987
  Name = 
  1 active torsions:
  status: ('A' for Active; 'I' for Inactive)
    1  A    between atoms: N_10  and  C_24
                            x       y       z     vdW  Elec       q    Type
                         _______ _______ _______ _____ _____    ______ ____

>  <TORSDO>
F 1

$$$$
=
 OpenBabel10262421223D

 32 37  0  0  0  0  0  0  0  0999 V2000
  189.4900  178.4600  138.2600 C   0  0  0  0  0  3  0  0  0  0  0  0
  188.2380  177.6440  143.1060 C   0  0  0  0  0  0  0  0  0  0  0  0
  183.3730  178.8390  143.0750 C   0  0  0  0  0  2  0  0  0  0  0  0
  183.6710  179.7630  144.2570 C   0  0  0  0  0  2  0  0  0  0  0  0
  189.1040  177.6420  145.5660 C   0  0  0  0  0  0  0  0  0  0  0  0
  190.5700  177.5250  145.6140 C   0  0  0  0  0  0  0  0  0  0  0  0
  189.4810  177.1840  141.0500 C   0  0  0  0  0  0  0  0  0  0  0  0
  187.0430  177.7940  140.9700 C   0  0  0  0  0  2  0  0  0  0  0  0
  189.0530  177.7070  148.0000 N   0  0  0  0  0  0  0  0  0  0  0  0
  188.5560  178.5520  139.2050 C   0  0  0  0  0  3  0  0  0  0  0  0
  184.6420  178.5430  142.3370 C   0  0  0  0  0  2  0  0  0  0  0  0
  187.0110  177.8790  142.3100 C   0  0  0  0  0  0  0  0  0  0  0  0
  185.7430  178.1980  143.0170 C   0  0  0  0  0  0  0  0  0  0  0  0
  186.9450  177.9700  145.1880 N   0  0  0  0  0  0  0  0  0  0  0  0
  190.4390  177.2240  148.0600 C   0  0  0  0  0  2  0  0  0  0  0  0
  190.9410  176.6240  139.0950 C   0  0  0  0  0  3  0  0  0  0  0  0
  188.2800  177.4600  140.1830 C   0  0  0  0  0  0  0  0  0  0  0  0
  191.1510  177.4020  146.7760 N   0  0  0  0  0  0  0  0  0  0  0  0
  190.6340  176.7590  140.5340 C   0  0  0  0  0  3  0  0  0  0  0  0
  190.4240  177.3300  138.0740 C   0  0  0  0  0  0  0  0  0  0  0  0
  184.8500  179.2800  145.1260 C   0  0  0  0  0  2  0  0  0  0  0  0
  185.6410  178.0990  144.5290 C   0  0  0  0  0  0  0  0  0  0  0  0
  187.0990  177.9630  146.5060 N   0  0  0  0  0  0  0  0  0  0  0  0
  189.3790  177.2980  142.5100 C   0  0  0  0  0  3  0  0  0  0  0  0
  191.3740  177.7050  144.4560 N   0  0  0  0  0  1  0  0  0  0  0  0
  188.2990  177.8770  149.2300 C   0  0  0  0  0  1  0  0  0  0  0  0
  188.1340  177.7590  144.5730 C   0  0  0  0  0  0  0  0  0  0  0  0
  188.4090  177.7670  146.7300 C   0  0  0  0  0  0  0  0  0  0  0  0
  190.7510  175.9040  135.9590 C   0  0  0  0  0  0  0  0  0  0  0  0
  190.8870  177.1020  136.7340 N   0  0  0  0  0  2  0  0  0  0  0  0
  190.1300  174.9020  136.4020 O   0  0  0  0  0  0  0  0  0  0  0  0
  191.3470  175.8470  134.5980 C   0  0  0  0  0  1  0  0  0  0  0  0
  1 10  1  0  0  0  0
  2 27  1  0  0  0  0
  3  4  1  0  0  0  0
  4 21  1  0  0  0  0
  5  6  1  0  0  0  0
  5 28  1  0  0  0  0
  6 18  2  0  0  0  0
  7 24  2  0  0  0  0
  8 12  1  0  0  0  0
  9 15  1  0  0  0  0
  9 26  1  0  0  0  0
 10 17  2  0  0  0  0
 11 13  1  0  0  0  0
 11  3  1  0  0  0  0
 12 13  1  0  0  0  0
 12  2  2  0  0  0  0
 13 22  2  0  0  0  0
 14 23  1  0  0  0  0
 16 19  2  0  0  0  0
 17  8  1  0  0  0  0
 17  7  1  0  0  0  0
 18 15  1  0  0  0  0
 19  7  1  0  0  0  0
 20  1  2  0  0  0  0
 20 16  1  0  0  0  0
 22 21  1  0  0  0  0
 22 14  1  0  0  0  0
 23 28  2  0  0  0  0
 24  2  1  0  0  0  0
 25  6  1  0  0  0  0
 27 14  1  0  0  0  0
 27  5  2  0  0  0  0
 28  9  1  0  0  0  0
 29 31  2  0  0  0  0
 29 30  1  0  0  0  0
 30 20  1  0  0  0  0
 32 29  1  0  0  0  0
M  END
>  <MODEL>
5

>  <REMARK>
 VINA RESULT:      -9.9      3.009      7.797
  Name = 
  1 active torsions:
  status: ('A' for Active; 'I' for Inactive)
    1  A    between atoms: N_10  and  C_24
                            x       y       z     vdW  Elec       q    Type
                         _______ _______ _______ _____ _____    ______ ____

>  <TORSDO>
F 1

$$$$
=
 OpenBabel10262421223D

 32 37  0  0  1  0  0  0  0  0999 V2000
  190.2440  176.3850  140.8110 C   0  0  0  0  0  3  0  0  0  0  0  0
  185.8370  178.4820  142.1950 C   0  0  0  0  0  0  0  0  0  0  0  0
  186.3340  178.6070  147.1770 C   0  0  0  0  0  2  0  0  0  0  0  0
  184.9780  177.9020  147.2530 C   0  0  0  0  0  2  0  0  0  0  0  0
  183.3200  178.7680  141.5770 C   0  0  0  0  0  0  0  0  0  0  0  0
  183.0900  178.5090  140.1460 C   0  0  0  0  0  0  0  0  0  0  0  0
  187.7500  178.1690  140.7010 C   0  0  2  0  0  3  0  0  0  0  0  0
  188.0600  178.2070  143.1960 C   0  0  0  0  0  3  0  0  0  0  0  0
  180.9440  179.2230  141.8520 N   0  0  0  0  0  0  0  0  0  0  0  0
  189.4360  176.7360  141.8120 C   0  0  0  0  0  3  0  0  0  0  0  0
  186.9290  178.4050  145.8180 C   0  0  0  0  0  2  0  0  0  0  0  0
  186.7430  178.4130  143.3650 C   0  0  0  0  0  0  0  0  0  0  0  0
  186.1740  178.5860  144.7270 C   0  0  0  0  0  0  0  0  0  0  0  0
  183.9310  178.9390  143.7010 N   0  0  0  0  0  0  0  0  0  0  0  0
  180.7780  179.3320  140.3970 C   0  0  0  0  0  2  0  0  0  0  0  0
  189.5510  177.9150  138.9800 C   0  0  0  0  0  3  0  0  0  0  0  0
  188.7140  178.0400  141.8520 C   0  0  0  0  0  0  0  0  0  0  0  0
  181.8980  178.7150  139.6560 N   0  0  0  0  0  0  0  0  0  0  0  0
  188.1670  178.1650  139.4350 C   0  0  0  0  0  3  0  0  0  0  0  0
  190.4940  177.1720  139.5860 C   0  0  0  0  0  0  0  0  0  0  0  0
  184.0520  178.2320  146.0660 C   0  0  0  0  0  2  0  0  0  0  0  0
  184.7310  179.0190  144.9260 C   0  0  0  0  0  0  0  0  0  0  0  0
  182.6260  179.1780  143.6640 N   0  0  0  0  0  0  0  0  0  0  0  0
  186.3210  178.3890  140.9550 C   0  0  0  0  0  3  0  0  0  0  0  0
  184.0760  177.8910  139.3300 N   0  0  0  0  0  1  0  0  0  0  0  0
  179.8200  179.5120  142.7260 C   0  0  0  0  0  1  0  0  0  0  0  0
  184.4020  178.7030  142.4520 C   0  0  0  0  0  0  0  0  0  0  0  0
  182.2610  179.0700  142.3760 C   0  0  0  0  0  0  0  0  0  0  0  0
  192.2310  175.8490  138.2260 C   0  0  0  0  0  0  0  0  0  0  0  0
  191.7750  176.9900  138.9640 N   0  0  0  0  0  2  0  0  0  0  0  0
  191.4750  174.8660  138.0070 O   0  0  0  0  0  0  0  0  0  0  0  0
  193.6200  175.8310  137.6990 C   0  0  0  0  0  1  0  0  0  0  0  0
  1 10  1  0  0  0  0
  2 27  1  0  0  0  0
  2 12  1  0  0  0  0
  3  4  1  0  0  0  0
  5 28  1  0  0  0  0
  5 27  2  0  0  0  0
  6  5  1  0  0  0  0
  7 19  1  6  0  0  0
  7 24  1  0  0  0  0
  7 17  1  0  0  0  0
  8 12  2  0  0  0  0
  9 28  1  0  0  0  0
  9 26  1  0  0  0  0
 10 17  2  0  0  0  0
 11  3  1  0  0  0  0
 12 13  1  0  0  0  0
 13 22  2  0  0  0  0
 13 11  1  0  0  0  0
 14 22  1  0  0  0  0
 15  9  1  0  0  0  0
 16 19  2  0  0  0  0
 16 20  1  0  0  0  0
 17  8  1  0  0  0  0
 18  6  2  0  0  0  0
 18 15  1  0  0  0  0
 20  1  2  0  0  0  0
 21  4  1  0  0  0  0
 22 21  1  0  0  0  0
 23 14  1  0  0  0  0
 24  2  2  0  0  0  0
 25  6  1  0  0  0  0
 27 14  1  0  0  0  0
 28 23  2  0  0  0  0
 29 30  1  0  0  0  0
 30 20  1  0  0  0  0
 31 29  2  0  0  0  0
 32 29  1  0  0  0  0
M  END
>  <MODEL>
6

>  <REMARK>
 VINA RESULT:      -9.2      3.101      8.002
  Name = 
  1 active torsions:
  status: ('A' for Active; 'I' for Inactive)
    1  A    between atoms: N_10  and  C_24
                            x       y       z     vdW  Elec       q    Type
                         _______ _______ _______ _____ _____    ______ ____

>  <TORSDO>
F 1

$$$$
=
 OpenBabel10262421223D

 32 37  0  0  1  0  0  0  0  0999 V2000
  190.6700  176.1980  139.1210 C   0  0  0  0  0  3  0  0  0  0  0  0
  186.9090  178.1120  141.9340 C   0  0  0  0  0  0  0  0  0  0  0  0
  188.8940  177.8570  146.5260 C   0  0  0  0  0  2  0  0  0  0  0  0
  187.6190  177.1280  146.9530 C   0  0  0  0  0  2  0  0  0  0  0  0
  184.3250  178.4050  142.1320 C   0  0  0  0  0  0  0  0  0  0  0  0
  183.6700  178.2550  140.8230 C   0  0  0  0  0  0  0  0  0  0  0  0
  188.2760  177.9450  139.9110 C   0  0  2  0  0  3  0  0  0  0  0  0
  189.3280  177.7950  142.1910 C   0  0  0  0  0  3  0  0  0  0  0  0
  182.1480  178.8000  143.1500 N   0  0  0  0  0  0  0  0  0  0  0  0
  190.2070  176.4570  140.3430 C   0  0  0  0  0  3  0  0  0  0  0  0
  189.0470  177.7710  145.0390 C   0  0  0  0  0  2  0  0  0  0  0  0
  188.1260  177.9660  142.7660 C   0  0  0  0  0  0  0  0  0  0  0  0
  187.9990  178.0240  144.2460 C   0  0  0  0  0  0  0  0  0  0  0  0
  185.5530  178.4210  143.9780 N   0  0  0  0  0  0  0  0  0  0  0  0
  181.5500  179.0200  141.8260 C   0  0  0  0  0  2  0  0  0  0  0  0
  189.4670  177.8540  137.7110 C   0  0  0  0  0  3  0  0  0  0  0  0
  189.5420  177.7430  140.7020 C   0  0  0  0  0  0  0  0  0  0  0  0
  182.3880  178.4790  140.7350 N   0  0  0  0  0  0  0  0  0  0  0  0
  188.2890  178.0460  138.5820 C   0  0  0  0  0  3  0  0  0  0  0  0
  190.5430  177.0810  137.9420 C   0  0  0  0  0  0  0  0  0  0  0  0
  186.3790  177.5350  146.1320 C   0  0  0  0  0  2  0  0  0  0  0  0
  186.6880  178.4180  144.9060 C   0  0  0  0  0  0  0  0  0  0  0  0
  184.3010  178.6410  144.3580 N   0  0  0  0  0  0  0  0  0  0  0  0
  186.9930  178.1230  140.6030 C   0  0  0  0  0  3  0  0  0  0  0  0
  184.3570  177.7180  139.7000 N   0  0  0  0  0  1  0  0  0  0  0  0
  181.3450  179.0030  144.3430 C   0  0  0  0  0  1  0  0  0  0  0  0
  185.6210  178.2900  142.6310 C   0  0  0  0  0  0  0  0  0  0  0  0
  183.5610  178.6280  143.2360 C   0  0  0  0  0  0  0  0  0  0  0  0
  191.6850  175.9800  135.9180 C   0  0  0  0  0  0  0  0  0  0  0  0
  191.5740  176.9680  136.9500 N   0  0  0  0  0  2  0  0  0  0  0  0
  190.8000  175.0970  135.7570 O   0  0  0  0  0  0  0  0  0  0  0  0
  192.8620  176.0030  135.0120 C   0  0  0  0  0  1  0  0  0  0  0  0
  1 10  1  0  0  0  0
  2 27  1  0  0  0  0
  2 12  1  0  0  0  0
  3  4  1  0  0  0  0
  5 27  2  0  0  0  0
  5 28  1  0  0  0  0
  6  5  1  0  0  0  0
  7 19  1  1  0  0  0
  7 24  1  0  0  0  0
  7 17  1  0  0  0  0
  8 12  2  0  0  0  0
  9 28  1  0  0  0  0
  9 26  1  0  0  0  0
 10 17  2  0  0  0  0
 11  3  1  0  0  0  0
 12 13  1  0  0  0  0
 13 22  2  0  0  0  0
 13 11  1  0  0  0  0
 14 23  1  0  0  0  0
 14 22  1  0  0  0  0
 15  9  1  0  0  0  0
 16 20  1  0  0  0  0
 16 19  2  0  0  0  0
 17  8  1  0  0  0  0
 18  6  2  0  0  0  0
 18 15  1  0  0  0  0
 20  1  2  0  0  0  0
 21  4  1  0  0  0  0
 22 21  1  0  0  0  0
 24  2  2  0  0  0  0
 25  6  1  0  0  0  0
 27 14  1  0  0  0  0
 28 23  2  0  0  0  0
 29 30  1  0  0  0  0
 30 20  1  0  0  0  0
 31 29  2  0  0  0  0
 32 29  1  0  0  0  0
M  END
>  <MODEL>
7

>  <REMARK>
 VINA RESULT:      -9.1      3.075      7.783
  Name = 
  1 active torsions:
  status: ('A' for Active; 'I' for Inactive)
    1  A    between atoms: N_10  and  C_24
                            x       y       z     vdW  Elec       q    Type
                         _______ _______ _______ _____ _____    ______ ____

>  <TORSDO>
F 1

$$$$
=
 OpenBabel10262421223D

 32 37  0  0  0  0  0  0  0  0999 V2000
  188.6940  176.6320  145.3270 C   0  0  0  0  0  3  0  0  0  0  0  0
  187.3810  178.1950  140.6850 C   0  0  0  0  0  0  0  0  0  0  0  0
  182.4760  179.0160  141.2790 C   0  0  0  0  0  2  0  0  0  0  0  0
  182.2570  178.1290  140.0510 C   0  0  0  0  0  2  0  0  0  0  0  0
  187.9190  178.0180  138.1390 C   0  0  0  0  0  0  0  0  0  0  0  0
  189.2960  177.5500  137.9160 C   0  0  0  0  0  0  0  0  0  0  0  0
  188.9090  177.9900  142.5850 C   0  0  0  0  0  0  0  0  0  0  0  0
  186.4520  178.3870  142.9460 C   0  0  0  0  0  3  0  0  0  0  0  0
  187.5960  178.1390  135.7280 N   0  0  0  0  0  0  0  0  0  0  0  0
  187.7090  176.9790  144.5000 C   0  0  0  0  0  3  0  0  0  0  0  0
  183.8260  178.7380  141.8640 C   0  0  0  0  0  2  0  0  0  0  0  0
  186.2520  178.4100  141.6190 C   0  0  0  0  0  0  0  0  0  0  0  0
  184.8970  178.6650  141.0640 C   0  0  0  0  0  0  0  0  0  0  0  0
  185.8590  178.5430  138.7680 N   0  0  0  0  0  0  0  0  0  0  0  0
  189.0450  178.0390  135.5110 C   0  0  0  0  0  2  0  0  0  0  0  0
  190.6640  177.7980  144.3600 C   0  0  0  0  0  3  0  0  0  0  0  0
  187.7940  178.1530  143.5850 C   0  0  0  0  0  0  0  0  0  0  0  0
  189.7550  177.5100  136.6960 N   0  0  0  0  0  0  0  0  0  0  0  0
  190.1820  177.8900  142.9660 C   0  0  0  0  0  3  0  0  0  0  0  0
  190.0150  177.2870  145.4220 C   0  0  0  0  0  0  0  0  0  0  0  0
  183.4340  178.1650  139.0560 C   0  0  0  0  0  2  0  0  0  0  0  0
  184.6880  178.8960  139.5760 C   0  0  0  0  0  0  0  0  0  0  0  0
  185.8670  178.5760  137.4420 N   0  0  0  0  0  0  0  0  0  0  0  0
  188.6210  178.0220  141.1460 C   0  0  0  0  0  2  0  0  0  0  0  0
  190.0750  176.9910  138.9660 N   0  0  0  0  0  1  0  0  0  0  0  0
  186.7150  178.3620  134.5950 C   0  0  0  0  0  1  0  0  0  0  0  0
  187.0900  178.2270  139.2390 C   0  0  0  0  0  0  0  0  0  0  0  0
  187.1160  178.2540  137.0660 C   0  0  0  0  0  0  0  0  0  0  0  0
  191.7310  176.3500  147.0930 C   0  0  0  0  0  0  0  0  0  0  0  0
  190.6660  177.2250  146.7000 N   0  0  0  0  0  2  0  0  0  0  0  0
  192.2500  175.5410  146.2790 O   0  0  0  0  0  0  0  0  0  0  0  0
  192.2400  176.4040  148.4880 C   0  0  0  0  0  1  0  0  0  0  0  0
  1 20  1  0  0  0  0
  2 24  1  0  0  0  0
  2 12  2  0  0  0  0
  3 11  1  0  0  0  0
  4  3  1  0  0  0  0
  5 27  2  0  0  0  0
  6  5  1  0  0  0  0
  6 25  1  0  0  0  0
  7 19  2  0  0  0  0
  7 17  1  0  0  0  0
  8 17  2  0  0  0  0
  9 28  1  0  0  0  0
 10  1  2  0  0  0  0
 12  8  1  0  0  0  0
 13 12  1  0  0  0  0
 13 11  1  0  0  0  0
 14 27  1  0  0  0  0
 14 22  1  0  0  0  0
 15  9  1  0  0  0  0
 15 18  1  0  0  0  0
 16 20  2  0  0  0  0
 17 10  1  0  0  0  0
 18  6  2  0  0  0  0
 19 16  1  0  0  0  0
 20 30  1  0  0  0  0
 21 22  1  0  0  0  0
 21  4  1  0  0  0  0
 22 13  2  0  0  0  0
 23 14  1  0  0  0  0
 24  7  1  0  0  0  0
 26  9  1  0  0  0  0
 27  2  1  0  0  0  0
 28 23  2  0  0  0  0
 28  5  1  0  0  0  0
 29 32  1  0  0  0  0
 30 29  1  0  0  0  0
 31 29  2  0  0  0  0
M  END
>  <MODEL>
8

>  <REMARK>
 VINA RESULT:      -9.0      3.323      7.211
  Name = 
  1 active torsions:
  status: ('A' for Active; 'I' for Inactive)
    1  A    between atoms: N_10  and  C_24
                            x       y       z     vdW  Elec       q    Type
                         _______ _______ _______ _____ _____    ______ ____

>  <TORSDO>
F 1

$$$$
=
 OpenBabel10262421223D

 32 37  0  0  1  0  0  0  0  0999 V2000
  181.6500  180.3030  139.1570 C   0  0  0  0  0  3  0  0  0  0  0  0
  185.6720  178.2360  141.4540 C   0  0  0  0  0  0  0  0  0  0  0  0
  184.2590  178.4220  146.2560 C   0  0  0  0  0  2  0  0  0  0  0  0
  185.5940  179.1120  146.5420 C   0  0  0  0  0  2  0  0  0  0  0  0
  188.2520  177.8800  141.3320 C   0  0  0  0  0  0  0  0  0  0  0  0
  188.7500  178.0480  139.9570 C   0  0  0  0  0  0  0  0  0  0  0  0
  184.0770  178.4830  139.6140 C   0  0  2  0  0  3  0  0  0  0  0  0
  183.3100  178.6010  142.0070 C   0  0  0  0  0  3  0  0  0  0  0  0
  190.5250  177.4110  142.0710 N   0  0  0  0  0  0  0  0  0  0  0  0
  182.2500  180.0040  140.3080 C   0  0  0  0  0  3  0  0  0  0  0  0
  183.9320  178.5480  144.8000 C   0  0  0  0  0  2  0  0  0  0  0  0
  184.5670  178.3890  142.4290 C   0  0  0  0  0  0  0  0  0  0  0  0
  184.8700  178.2910  143.8810 C   0  0  0  0  0  0  0  0  0  0  0  0
  187.2550  177.8470  143.3120 N   0  0  0  0  0  0  0  0  0  0  0  0
  190.9550  177.2100  140.6810 C   0  0  0  0  0  2  0  0  0  0  0  0
  182.6330  178.6550  137.5770 C   0  0  0  0  0  3  0  0  0  0  0  0
  182.9210  178.6950  140.5570 C   0  0  0  0  0  0  0  0  0  0  0  0
  190.0060  177.7970  139.7100 N   0  0  0  0  0  0  0  0  0  0  0  0
  183.9020  178.4160  138.2950 C   0  0  0  0  0  3  0  0  0  0  0  0
  181.6120  179.4470  137.9530 C   0  0  0  0  0  0  0  0  0  0  0  0
  186.7160  178.6970  145.5680 C   0  0  0  0  0  2  0  0  0  0  0  0
  186.2400  177.8520  144.3690 C   0  0  0  0  0  0  0  0  0  0  0  0
  188.5380  177.5880  143.5330 N   0  0  0  0  0  0  0  0  0  0  0  0
  185.4280  178.2600  140.1420 C   0  0  0  0  0  3  0  0  0  0  0  0
  187.9470  178.6280  138.9370 N   0  0  0  0  0  1  0  0  0  0  0  0
  191.4610  177.1600  143.1540 C   0  0  0  0  0  1  0  0  0  0  0  0
  187.0290  178.0120  141.9860 C   0  0  0  0  0  0  0  0  0  0  0  0
  189.1380  177.6120  142.3310 C   0  0  0  0  0  0  0  0  0  0  0  0
  180.1990  180.6980  136.2060 C   0  0  0  0  0  0  0  0  0  0  0  0
  180.4730  179.6070  137.0940 N   0  0  0  0  0  2  0  0  0  0  0  0
  181.0150  181.6470  136.0610 O   0  0  0  0  0  0  0  0  0  0  0  0
  178.9310  180.7050  135.4320 C   0  0  0  0  0  1  0  0  0  0  0  0
  1 10  1  0  0  0  0
  2 27  1  0  0  0  0
  2 12  1  0  0  0  0
  3  4  1  0  0  0  0
  5 27  2  0  0  0  0
  5 28  1  0  0  0  0
  6  5  1  0  0  0  0
  7 19  1  1  0  0  0
  7 24  1  0  0  0  0
  7 17  1  0  0  0  0
  8 12  2  0  0  0  0
  9 28  1  0  0  0  0
  9 26  1  0  0  0  0
 10 17  2  0  0  0  0
 11  3  1  0  0  0  0
 12 13  1  0  0  0  0
 13 22  2  0  0  0  0
 13 11  1  0  0  0  0
 14 23  1  0  0  0  0
 14 22  1  0  0  0  0
 15  9  1  0  0  0  0
 16 20  1  0  0  0  0
 16 19  2  0  0  0  0
 17  8  1  0  0  0  0
 18  6  2  0  0  0  0
 18 15  1  0  0  0  0
 20  1  2  0  0  0  0
 21  4  1  0  0  0  0
 22 21  1  0  0  0  0
 24  2  2  0  0  0  0
 25  6  1  0  0  0  0
 27 14  1  0  0  0  0
 28 23  2  0  0  0  0
 29 30  1  0  0  0  0
 30 20  1  0  0  0  0
 31 29  2  0  0  0  0
 32 29  1  0  0  0  0
M  END
>  <MODEL>
9

>  <REMARK>
 VINA RESULT:      -8.9      3.139      4.476
  Name = 
  1 active torsions:
  status: ('A' for Active; 'I' for Inactive)
    1  A    between atoms: N_10  and  C_24
                            x       y       z     vdW  Elec       q    Type
                         _______ _______ _______ _____ _____    ______ ____

>  <TORSDO>
F 1

$$$$
