=
 OpenBabel10262422503D

 37 42  0  0  1  0  0  0  0  0999 V2000
  183.2680  176.0610  136.8150 C   0  0  0  0  0  0  0  0  0  0  0  0
  184.5190  178.4590  138.9500 C   0  0  2  0  0  3  0  0  0  0  0  0
  185.7870  176.5300  137.3250 C   0  0  0  0  0  2  0  0  0  0  0  0
  183.9900  177.3710  139.9040 C   0  0  0  0  0  2  0  0  0  0  0  0
  183.9510  178.3290  137.5150 C   0  0  2  0  0  3  0  0  0  0  0  0
  183.8620  177.8600  141.3520 C   0  0  1  0  0  3  0  0  0  0  0  0
  187.0650  178.4620  136.7000 O   0  0  0  0  0  1  0  0  0  0  0  0
  182.4320  178.2850  137.3750 C   0  0  1  0  0  3  0  0  0  0  0  0
  183.5070  174.8370  137.6880 C   0  0  0  0  0  1  0  0  0  0  0  0
  186.8180  178.3110  140.1980 C   0  0  0  0  0  2  0  0  0  0  0  0
  186.7060  177.6630  137.7860 C   0  0  1  0  0  3  0  0  0  0  0  0
  182.0580  176.8110  137.3550 C   0  0  0  0  0  2  0  0  0  0  0  0
  186.0700  178.5310  138.8850 C   0  0  1  0  0  3  0  0  0  0  0  0
  184.4370  177.0640  136.8070 C   0  0  2  0  0  3  0  0  0  0  0  0
  185.2200  178.0010  142.0540 C   0  0  1  0  0  3  0  0  0  0  0  0
  182.9890  175.6110  135.3950 C   0  0  0  0  0  1  0  0  0  0  0  0
  186.1600  178.9960  141.3820 C   0  0  0  0  0  2  0  0  0  0  0  0
  180.2060  179.2440  137.9960 C   0  0  0  0  0  2  0  0  0  0  0  0
  180.1310  180.5620  137.2260 C   0  0  1  0  0  0  0  0  0  0  0  0
  179.4820  182.3920  138.6640 C   0  0  2  0  0  3  0  0  0  0  0  0
  178.9310  181.3800  137.6990 C   0  0  0  0  0  2  0  0  0  0  0  0
  180.9370  182.5260  138.2770 C   0  0  0  0  0  2  0  0  0  0  0  0
  182.1510  180.5230  138.4560 C   0  0  0  0  0  2  0  0  0  0  0  0
  181.3420  181.3290  137.5470 N   0  0  1  0  0  0  0  0  0  0  0  0
  179.3950  181.8880  139.9620 O   0  0  0  0  0  1  0  0  0  0  0  0
  181.6470  179.0970  138.4120 C   0  0  2  0  0  3  0  0  0  0  0  0
  180.1000  180.3480  135.8250 O   0  0  0  0  0  0  0  0  0  0  0  0
  179.1120  181.1570  135.2330 C   0  0  0  0  0  1  0  0  0  0  0  0
  183.9300  178.7880  144.0880 C   0  0  0  0  0  3  0  0  0  0  0  0
  185.0930  178.2340  143.5300 C   0  0  0  0  0  0  0  0  0  0  0  0
  186.1480  177.8570  144.3690 C   0  0  0  0  0  3  0  0  0  0  0  0
  187.3750  177.5710  146.7920 Cl  0  0  0  0  0  0  0  0  0  0  0  0
  184.8920  178.5990  146.3010 C   0  0  0  0  0  3  0  0  0  0  0  0
  186.0500  178.0420  145.7500 C   0  0  0  0  0  0  0  0  0  0  0  0
  183.8310  178.9710  145.4700 C   0  0  0  0  0  3  0  0  0  0  0  0
  182.9870  179.1040  141.4750 C   0  0  0  0  0  2  0  0  0  0  0  0
  181.5500  178.6980  141.7310 C   0  0  0  0  0  1  0  0  0  0  0  0
  1 12  1  0  0  0  0
  1  9  1  0  0  0  0
  2  4  1  1  0  0  0
  3 11  1  0  0  0  0
  4  6  1  0  0  0  0
  5  2  1  0  0  0  0
  6 36  1  0  0  0  0
  6 15  1  0  0  0  0
  7 11  1  0  0  0  0
  8  5  1  0  0  0  0
  8 26  1  0  0  0  0
 10 17  1  0  0  0  0
 11 13  1  0  0  0  0
 12  8  1  0  0  0  0
 13  2  1  0  0  0  0
 13 10  1  0  0  0  0
 14  1  1  0  0  0  0
 14  3  1  0  0  0  0
 14  5  1  0  0  0  0
 15 30  1  0  0  0  0
 16  1  1  0  0  0  0
 17 15  1  0  0  0  0
 18 26  1  0  0  0  0
 19 24  1  0  0  0  0
 19 21  1  0  0  0  0
 19 18  1  0  0  0  0
 20 25  1  0  0  0  0
 21 20  1  0  0  0  0
 22 20  1  0  0  0  0
 24 22  1  0  0  0  0
 24 23  1  0  0  0  0
 26 23  1  0  0  0  0
 27 19  1  0  0  0  0
 28 27  1  0  0  0  0
 29 35  1  0  0  0  0
 30 29  2  0  0  0  0
 30 31  1  0  0  0  0
 31 34  2  0  0  0  0
 34 33  1  0  0  0  0
 34 32  1  0  0  0  0
 35 33  2  0  0  0  0
 36 37  1  0  0  0  0
M  END
>  <MODEL>
1

>  <REMARK>
 VINA RESULT:      -7.7      0.000      0.000
  Name = 
  4 active torsions:
  status: ('A' for Active; 'I' for Inactive)
    1  A    between atoms: C_5  and  O_12
    2  A    between atoms: C_6  and  C_31
    3  A    between atoms: C_7  and  C_14
    4  A    between atoms: C_20  and  C_36
                            x       y       z     vdW  Elec       q    Type
                         _______ _______ _______ _____ _____    ______ ____

>  <TORSDO>
F 4

$$$$
=
 OpenBabel10262422503D

 37 42  0  0  1  0  0  0  0  0999 V2000
  183.6090  176.5480  137.4800 C   0  0  0  0  0  0  0  0  0  0  0  0
  185.2690  178.6750  139.6230 C   0  0  2  0  0  3  0  0  0  0  0  0
  186.1970  176.8250  137.7030 C   0  0  0  0  0  2  0  0  0  0  0  0
  184.7870  177.5400  140.5470 C   0  0  0  0  0  2  0  0  0  0  0  0
  184.5240  178.7030  138.2660 C   0  0  2  0  0  3  0  0  0  0  0  0
  184.8690  177.9070  142.0340 C   0  0  1  0  0  3  0  0  0  0  0  0
  187.5190  178.7280  137.0770 O   0  0  0  0  0  1  0  0  0  0  0  0
  182.9990  178.7590  138.3160 C   0  0  1  0  0  3  0  0  0  0  0  0
  183.8680  175.2400  138.2150 C   0  0  0  0  0  1  0  0  0  0  0  0
  187.6870  178.2860  140.5560 C   0  0  0  0  0  2  0  0  0  0  0  0
  187.2400  177.8580  138.1330 C   0  0  1  0  0  3  0  0  0  0  0  0
  182.5270  177.3160  138.2260 C   0  0  0  0  0  2  0  0  0  0  0  0
  186.8020  178.6620  139.3690 C   0  0  1  0  0  3  0  0  0  0  0  0
  184.8340  177.4790  137.4040 C   0  0  2  0  0  3  0  0  0  0  0  0
  186.3080  177.9080  142.5670 C   0  0  1  0  0  3  0  0  0  0  0  0
  183.1300  176.2400  136.0750 C   0  0  0  0  0  1  0  0  0  0  0  0
  187.2250  178.9020  141.8630 C   0  0  0  0  0  2  0  0  0  0  0  0
  181.2920  178.7290  140.1440 C   0  0  0  0  0  2  0  0  0  0  0  0
  180.0050  179.2060  139.4720 C   0  0  1  0  0  0  0  0  0  0  0  0
  178.9400  180.9630  140.7440 C   0  0  2  0  0  3  0  0  0  0  0  0
  178.9310  179.4760  140.5230 C   0  0  0  0  0  2  0  0  0  0  0  0
  179.5300  181.5270  139.4710 C   0  0  0  0  0  2  0  0  0  0  0  0
  181.7140  180.7820  139.0310 C   0  0  0  0  0  2  0  0  0  0  0  0
  180.3030  180.4820  138.8070 N   0  0  1  0  0  0  0  0  0  0  0  0
  179.7800  181.2660  141.8150 O   0  0  0  0  0  1  0  0  0  0  0  0
  182.4030  179.5210  139.5040 C   0  0  2  0  0  3  0  0  0  0  0  0
  179.5580  178.2890  138.4880 O   0  0  0  0  0  0  0  0  0  0  0  0
  179.2330  177.0570  139.0870 C   0  0  0  0  0  1  0  0  0  0  0  0
  185.3140  178.5520  144.8080 C   0  0  0  0  0  3  0  0  0  0  0  0
  186.3770  178.0180  144.0620 C   0  0  0  0  0  0  0  0  0  0  0  0
  187.5150  177.5450  144.7240 C   0  0  0  0  0  3  0  0  0  0  0  0
  189.0270  177.0250  146.9390 Cl  0  0  0  0  0  0  0  0  0  0  0  0
  186.5410  178.1520  146.8560 C   0  0  0  0  0  3  0  0  0  0  0  0
  187.5990  177.6150  146.1180 C   0  0  0  0  0  0  0  0  0  0  0  0
  185.3970  178.6200  146.2010 C   0  0  0  0  0  3  0  0  0  0  0  0
  184.1020  179.1840  142.3650 C   0  0  0  0  0  2  0  0  0  0  0  0
  182.8340  178.8400  143.1200 C   0  0  0  0  0  1  0  0  0  0  0  0
  1  9  1  0  0  0  0
  1 12  1  0  0  0  0
  2  4  1  6  0  0  0
  3 11  1  0  0  0  0
  4  6  1  0  0  0  0
  5  8  1  0  0  0  0
  5  2  1  0  0  0  0
  6 36  1  0  0  0  0
  6 15  1  0  0  0  0
  7 11  1  0  0  0  0
  8 26  1  0  0  0  0
 10 17  1  0  0  0  0
 11 13  1  0  0  0  0
 12  8  1  0  0  0  0
 13  2  1  0  0  0  0
 13 10  1  0  0  0  0
 14  1  1  0  0  0  0
 14  3  1  0  0  0  0
 14  5  1  0  0  0  0
 15 30  1  0  0  0  0
 16  1  1  0  0  0  0
 17 15  1  0  0  0  0
 19 18  1  0  0  0  0
 19 21  1  0  0  0  0
 20 25  1  0  0  0  0
 21 20  1  0  0  0  0
 22 20  1  0  0  0  0
 23 26  1  0  0  0  0
 24 23  1  0  0  0  0
 24 22  1  0  0  0  0
 24 19  1  0  0  0  0
 26 18  1  0  0  0  0
 27 28  1  0  0  0  0
 27 19  1  0  0  0  0
 29 35  1  0  0  0  0
 30 31  1  0  0  0  0
 30 29  2  0  0  0  0
 31 34  2  0  0  0  0
 34 33  1  0  0  0  0
 34 32  1  0  0  0  0
 35 33  2  0  0  0  0
 36 37  1  0  0  0  0
M  END
>  <MODEL>
2

>  <REMARK>
 VINA RESULT:      -7.4      1.530      1.868
  Name = 
  4 active torsions:
  status: ('A' for Active; 'I' for Inactive)
    1  A    between atoms: C_5  and  O_12
    2  A    between atoms: C_6  and  C_31
    3  A    between atoms: C_7  and  C_14
    4  A    between atoms: C_20  and  C_36
                            x       y       z     vdW  Elec       q    Type
                         _______ _______ _______ _____ _____    ______ ____

>  <TORSDO>
F 4

$$$$
=
 OpenBabel10262422503D

 37 42  0  0  1  0  0  0  0  0999 V2000
  180.3240  180.8320  137.8930 C   0  0  0  0  0  0  0  0  0  0  0  0
  181.7470  178.5730  140.0710 C   0  0  2  0  0  3  0  0  0  0  0  0
  180.1010  180.8270  140.4960 C   0  0  0  0  0  2  0  0  0  0  0  0
  182.9330  179.4640  139.6530 C   0  0  0  0  0  2  0  0  0  0  0  0
  180.5360  178.6950  139.1140 C   0  0  2  0  0  3  0  0  0  0  0  0
  184.2920  178.8540  140.0170 C   0  0  1  0  0  3  0  0  0  0  0  0
  178.9310  179.2320  141.8560 O   0  0  0  0  0  1  0  0  0  0  0  0
  180.8020  178.4520  137.6300 C   0  0  1  0  0  3  0  0  0  0  0  0
  181.2500  182.0110  138.1560 C   0  0  0  0  0  1  0  0  0  0  0  0
  182.3660  179.0750  142.5680 C   0  0  0  0  0  2  0  0  0  0  0  0
  180.1640  179.8640  141.6830 C   0  0  1  0  0  3  0  0  0  0  0  0
  181.0620  179.8220  137.0240 C   0  0  0  0  0  2  0  0  0  0  0  0
  181.2750  178.8100  141.5320 C   0  0  1  0  0  3  0  0  0  0  0  0
  179.8890  180.0790  139.1650 C   0  0  2  0  0  3  0  0  0  0  0  0
  184.5950  178.9290  141.5200 C   0  0  1  0  0  3  0  0  0  0  0  0
  179.0920  181.3220  137.1590 C   0  0  0  0  0  1  0  0  0  0  0  0
  183.5850  178.1890  142.3890 C   0  0  0  0  0  2  0  0  0  0  0  0
  182.0140  177.2150  135.8250 C   0  0  0  0  0  2  0  0  0  0  0  0
  181.1110  176.0240  135.5070 C   0  0  1  0  0  0  0  0  0  0  0  0
  182.3520  173.9510  135.4940 C   0  0  2  0  0  3  0  0  0  0  0  0
  181.8400  175.0400  134.5940 C   0  0  0  0  0  2  0  0  0  0  0  0
  181.4460  174.0070  136.7030 C   0  0  0  0  0  2  0  0  0  0  0  0
  181.5120  176.0630  137.8380 C   0  0  0  0  0  2  0  0  0  0  0  0
  180.8350  175.3300  136.7720 N   0  0  1  0  0  0  0  0  0  0  0  0
  183.6580  174.2480  135.8830 O   0  0  0  0  0  1  0  0  0  0  0  0
  181.8970  177.4280  137.3130 C   0  0  2  0  0  3  0  0  0  0  0  0
  179.8750  176.4380  134.9510 O   0  0  0  0  0  0  0  0  0  0  0  0
  178.9380  175.3900  135.0180 C   0  0  0  0  0  1  0  0  0  0  0  0
  187.0550  178.7770  140.9310 C   0  0  0  0  0  3  0  0  0  0  0  0
  186.0130  178.5680  141.8490 C   0  0  0  0  0  0  0  0  0  0  0  0
  186.3030  178.0420  143.1120 C   0  0  0  0  0  3  0  0  0  0  0  0
  187.9720  177.0560  145.0370 Cl  0  0  0  0  0  0  0  0  0  0  0  0
  188.6520  177.9200  142.5370 C   0  0  0  0  0  3  0  0  0  0  0  0
  187.6180  177.7160  143.4550 C   0  0  0  0  0  0  0  0  0  0  0  0
  188.3700  178.4520  141.2740 C   0  0  0  0  0  3  0  0  0  0  0  0
  184.4830  177.4580  139.4320 C   0  0  0  0  0  2  0  0  0  0  0  0
  185.1190  177.5570  138.0610 C   0  0  0  0  0  1  0  0  0  0  0  0
  1  9  1  0  0  0  0
  1 14  1  0  0  0  0
  2  4  1  6  0  0  0
  2 13  1  0  0  0  0
  3 11  1  0  0  0  0
  4  6  1  0  0  0  0
  5 14  1  0  0  0  0
  5  2  1  0  0  0  0
  6 15  1  0  0  0  0
  8  5  1  0  0  0  0
 11  7  1  0  0  0  0
 12  8  1  0  0  0  0
 12  1  1  0  0  0  0
 13 11  1  0  0  0  0
 13 10  1  0  0  0  0
 14  3  1  0  0  0  0
 15 30  1  0  0  0  0
 15 17  1  0  0  0  0
 16  1  1  0  0  0  0
 17 10  1  0  0  0  0
 18 26  1  0  0  0  0
 19 18  1  0  0  0  0
 19 24  1  0  0  0  0
 20 25  1  0  0  0  0
 20 22  1  0  0  0  0
 21 20  1  0  0  0  0
 21 19  1  0  0  0  0
 22 24  1  0  0  0  0
 24 23  1  0  0  0  0
 26  8  1  0  0  0  0
 26 23  1  0  0  0  0
 27 28  1  0  0  0  0
 27 19  1  0  0  0  0
 29 35  2  0  0  0  0
 29 30  1  0  0  0  0
 30 31  2  0  0  0  0
 31 34  1  0  0  0  0
 33 34  2  0  0  0  0
 34 32  1  0  0  0  0
 35 33  1  0  0  0  0
 36  6  1  0  0  0  0
 37 36  1  0  0  0  0
M  END
>  <MODEL>
3

>  <REMARK>
 VINA RESULT:      -7.0      2.222      5.472
  Name = 
  4 active torsions:
  status: ('A' for Active; 'I' for Inactive)
    1  A    between atoms: C_5  and  O_12
    2  A    between atoms: C_6  and  C_31
    3  A    between atoms: C_7  and  C_14
    4  A    between atoms: C_20  and  C_36
                            x       y       z     vdW  Elec       q    Type
                         _______ _______ _______ _____ _____    ______ ____

>  <TORSDO>
F 4

$$$$
=
 OpenBabel10262422503D

 37 42  0  0  1  0  0  0  0  0999 V2000
  187.3880  177.8860  137.1370 C   0  0  0  0  0  0  0  0  0  0  0  0
  190.1180  176.0170  138.1010 C   0  0  2  0  0  3  0  0  0  0  0  0
  189.0440  178.4360  139.0820 C   0  0  0  0  0  2  0  0  0  0  0  0
  190.5930  176.7030  136.8050 C   0  0  0  0  0  2  0  0  0  0  0  0
  188.5790  176.0370  138.2630 C   0  0  2  0  0  3  0  0  0  0  0  0
  191.8680  176.0740  136.2300 C   0  0  1  0  0  3  0  0  0  0  0  0
  189.2990  177.2570  141.1570 O   0  0  0  0  0  1  0  0  0  0  0  0
  187.7550  175.4730  137.1080 C   0  0  1  0  0  3  0  0  0  0  0  0
  188.1270  179.0150  136.4320 C   0  0  0  0  0  1  0  0  0  0  0  0
  192.2540  176.9720  139.2820 C   0  0  0  0  0  2  0  0  0  0  0  0
  190.0000  177.7380  140.0490 C   0  0  1  0  0  3  0  0  0  0  0  0
  187.3970  176.6620  136.2310 C   0  0  0  0  0  2  0  0  0  0  0  0
  190.7790  176.5890  139.3860 C   0  0  1  0  0  3  0  0  0  0  0  0
  188.0310  177.4500  138.4670 C   0  0  2  0  0  3  0  0  0  0  0  0
  193.1230  176.4320  137.0370 C   0  0  1  0  0  3  0  0  0  0  0  0
  185.9560  178.3130  137.3930 C   0  0  0  0  0  1  0  0  0  0  0  0
  193.0750  175.9720  138.4890 C   0  0  0  0  0  2  0  0  0  0  0  0
  187.5640  173.9370  135.1420 C   0  0  0  0  0  2  0  0  0  0  0  0
  186.6510  172.8100  135.6260 C   0  0  1  0  0  0  0  0  0  0  0  0
  187.5950  170.6380  135.1500 C   0  0  2  0  0  3  0  0  0  0  0  0
  186.6410  171.6680  134.6120 C   0  0  0  0  0  2  0  0  0  0  0  0
  187.6450  170.9120  136.6360 C   0  0  0  0  0  2  0  0  0  0  0  0
  188.4210  173.0630  137.1750 C   0  0  0  0  0  2  0  0  0  0  0  0
  187.2210  172.2880  136.8750 N   0  0  1  0  0  0  0  0  0  0  0  0
  188.8600  170.8480  134.6000 O   0  0  0  0  0  1  0  0  0  0  0  0
  188.4040  174.3200  136.3340 C   0  0  2  0  0  3  0  0  0  0  0  0
  185.3410  173.2800  135.9000 O   0  0  0  0  0  0  0  0  0  0  0  0
  184.8620  174.0360  134.8150 C   0  0  0  0  0  1  0  0  0  0  0  0
  194.8540  176.7100  135.2050 C   0  0  0  0  0  3  0  0  0  0  0  0
  194.3940  176.0330  136.3470 C   0  0  0  0  0  0  0  0  0  0  0  0
  195.1510  174.9820  136.8760 C   0  0  0  0  0  3  0  0  0  0  0  0
  197.2900  173.2840  136.9340 Cl  0  0  0  0  0  0  0  0  0  0  0  0
  196.8010  175.2740  135.1280 C   0  0  0  0  0  3  0  0  0  0  0  0
  196.3500  174.6010  136.2670 C   0  0  0  0  0  0  0  0  0  0  0  0
  196.0530  176.3290  134.5980 C   0  0  0  0  0  3  0  0  0  0  0  0
  191.7190  174.5760  135.9800 C   0  0  0  0  0  2  0  0  0  0  0  0
  192.2280  174.2330  134.5940 C   0  0  0  0  0  1  0  0  0  0  0  0
  1 16  1  0  0  0  0
  1 14  1  0  0  0  0
  2  4  1  6  0  0  0
  2  5  1  0  0  0  0
  2 13  1  0  0  0  0
  3 11  1  0  0  0  0
  5 14  1  0  0  0  0
  6  4  1  0  0  0  0
  6 15  1  0  0  0  0
  8  5  1  0  0  0  0
  9  1  1  0  0  0  0
 10 13  1  0  0  0  0
 11  7  1  0  0  0  0
 12  8  1  0  0  0  0
 12  1  1  0  0  0  0
 13 11  1  0  0  0  0
 14  3  1  0  0  0  0
 15 17  1  0  0  0  0
 17 10  1  0  0  0  0
 18 19  1  0  0  0  0
 18 26  1  0  0  0  0
 19 27  1  0  0  0  0
 19 24  1  0  0  0  0
 20 22  1  0  0  0  0
 21 20  1  0  0  0  0
 21 19  1  0  0  0  0
 22 24  1  0  0  0  0
 24 23  1  0  0  0  0
 25 20  1  0  0  0  0
 26  8  1  0  0  0  0
 26 23  1  0  0  0  0
 28 27  1  0  0  0  0
 29 30  1  0  0  0  0
 30 31  2  0  0  0  0
 30 15  1  0  0  0  0
 33 34  2  0  0  0  0
 34 31  1  0  0  0  0
 34 32  1  0  0  0  0
 35 33  1  0  0  0  0
 35 29  2  0  0  0  0
 36  6  1  0  0  0  0
 37 36  1  0  0  0  0
M  END
>  <MODEL>
4

>  <REMARK>
 VINA RESULT:      -6.3      6.360     10.228
  Name = 
  4 active torsions:
  status: ('A' for Active; 'I' for Inactive)
    1  A    between atoms: C_5  and  O_12
    2  A    between atoms: C_6  and  C_31
    3  A    between atoms: C_7  and  C_14
    4  A    between atoms: C_20  and  C_36
                            x       y       z     vdW  Elec       q    Type
                         _______ _______ _______ _____ _____    ______ ____

>  <TORSDO>
F 4

$$$$
=
 OpenBabel10262422503D

 37 42  0  0  1  0  0  0  0  0999 V2000
  184.8920  178.6970  140.8990 C   0  0  0  0  0  0  0  0  0  0  0  0
  183.6160  177.8770  137.8050 C   0  0  2  0  0  3  0  0  0  0  0  0
  182.4860  179.2100  140.0220 C   0  0  0  0  0  2  0  0  0  0  0  0
  183.6180  176.5330  138.5590 C   0  0  0  0  0  2  0  0  0  0  0  0
  184.5250  178.9410  138.4680 C   0  0  2  0  0  3  0  0  0  0  0  0
  183.4320  175.3280  137.6290 C   0  0  1  0  0  3  0  0  0  0  0  0
  181.8630  180.7480  138.2880 O   0  0  0  0  0  1  0  0  0  0  0  0
  185.9790  178.5490  138.7170 C   0  0  1  0  0  3  0  0  0  0  0  0
  184.1700  177.6430  141.7260 C   0  0  0  0  0  1  0  0  0  0  0  0
  181.0790  177.4770  137.2810 C   0  0  0  0  0  2  0  0  0  0  0  0
  181.7290  179.4240  138.7100 C   0  0  1  0  0  3  0  0  0  0  0  0
  186.0300  178.0230  140.1430 C   0  0  0  0  0  2  0  0  0  0  0  0
  182.1960  178.4710  137.5950 C   0  0  1  0  0  3  0  0  0  0  0  0
  184.0060  179.3780  139.8390 C   0  0  2  0  0  3  0  0  0  0  0  0
  181.9910  175.1890  137.1170 C   0  0  1  0  0  3  0  0  0  0  0  0
  185.4600  179.7530  141.8260 C   0  0  0  0  0  1  0  0  0  0  0  0
  181.5050  176.3890  136.3120 C   0  0  0  0  0  2  0  0  0  0  0  0
  187.7280  176.8100  138.3010 C   0  0  0  0  0  2  0  0  0  0  0  0
  188.9920  177.6090  137.9810 C   0  0  1  0  0  0  0  0  0  0  0  0
  190.0580  176.8120  135.9650 C   0  0  2  0  0  3  0  0  0  0  0  0
  190.0860  176.6790  137.4630 C   0  0  0  0  0  2  0  0  0  0  0  0
  189.4300  178.1650  135.7210 C   0  0  0  0  0  2  0  0  0  0  0  0
  187.2480  178.3610  136.5700 C   0  0  0  0  0  2  0  0  0  0  0  0
  188.6580  178.5450  136.9000 N   0  0  1  0  0  0  0  0  0  0  0  0
  189.2380  175.8190  135.4280 O   0  0  0  0  0  1  0  0  0  0  0  0
  186.5900  177.5870  137.6920 C   0  0  2  0  0  3  0  0  0  0  0  0
  189.4310  178.3630  139.0990 O   0  0  0  0  0  0  0  0  0  0  0  0
  189.7620  177.5030  140.1620 C   0  0  0  0  0  1  0  0  0  0  0  0
  180.7440  173.7570  135.4390 C   0  0  0  0  0  3  0  0  0  0  0  0
  181.7430  173.8860  136.4170 C   0  0  0  0  0  0  0  0  0  0  0  0
  182.5510  172.7870  136.7260 C   0  0  0  0  0  3  0  0  0  0  0  0
  183.3710  170.1940  136.4690 Cl  0  0  0  0  0  0  0  0  0  0  0  0
  181.3580  171.4390  135.1060 C   0  0  0  0  0  3  0  0  0  0  0  0
  182.3580  171.5650  136.0750 C   0  0  0  0  0  0  0  0  0  0  0  0
  180.5510  172.5360  134.7880 C   0  0  0  0  0  3  0  0  0  0  0  0
  184.4740  175.2810  136.5150 C   0  0  0  0  0  2  0  0  0  0  0  0
  185.5550  174.2790  136.8650 C   0  0  0  0  0  1  0  0  0  0  0  0
  1  9  1  0  0  0  0
  1 16  1  0  0  0  0
  2  5  1  0  0  0  0
  2  4  1  1  0  0  0
  5  8  1  0  0  0  0
  5 14  1  0  0  0  0
  6  4  1  0  0  0  0
  7 11  1  0  0  0  0
  8 12  1  0  0  0  0
 10 13  1  0  0  0  0
 11  3  1  0  0  0  0
 12  1  1  0  0  0  0
 13  2  1  0  0  0  0
 13 11  1  0  0  0  0
 14  3  1  0  0  0  0
 14  1  1  0  0  0  0
 15  6  1  0  0  0  0
 17 15  1  0  0  0  0
 17 10  1  0  0  0  0
 19 18  1  0  0  0  0
 19 27  1  0  0  0  0
 20 21  1  0  0  0  0
 21 19  1  0  0  0  0
 22 20  1  0  0  0  0
 22 24  1  0  0  0  0
 23 24  1  0  0  0  0
 23 26  1  0  0  0  0
 24 19  1  0  0  0  0
 25 20  1  0  0  0  0
 26 18  1  0  0  0  0
 26  8  1  0  0  0  0
 27 28  1  0  0  0  0
 29 30  1  0  0  0  0
 30 31  2  0  0  0  0
 30 15  1  0  0  0  0
 33 34  2  0  0  0  0
 34 32  1  0  0  0  0
 34 31  1  0  0  0  0
 35 33  1  0  0  0  0
 35 29  2  0  0  0  0
 36 37  1  0  0  0  0
 36  6  1  0  0  0  0
M  END
>  <MODEL>
5

>  <REMARK>
 VINA RESULT:      -5.7      3.454      8.362
  Name = 
  4 active torsions:
  status: ('A' for Active; 'I' for Inactive)
    1  A    between atoms: C_5  and  O_12
    2  A    between atoms: C_6  and  C_31
    3  A    between atoms: C_7  and  C_14
    4  A    between atoms: C_20  and  C_36
                            x       y       z     vdW  Elec       q    Type
                         _______ _______ _______ _____ _____    ______ ____

>  <TORSDO>
F 4

$$$$
=
 OpenBabel10262422503D

 37 42  0  0  1  0  0  0  0  0999 V2000
  185.2990  175.7720  136.6750 C   0  0  0  0  0  0  0  0  0  0  0  0
  186.9880  178.2450  138.3800 C   0  0  2  0  0  3  0  0  0  0  0  0
  187.7580  176.5480  136.2600 C   0  0  0  0  0  2  0  0  0  0  0  0
  186.9760  177.0680  139.3740 C   0  0  0  0  0  2  0  0  0  0  0  0
  185.9430  178.0870  137.2480 C   0  0  2  0  0  3  0  0  0  0  0  0
  187.3470  177.4910  140.8010 C   0  0  1  0  0  3  0  0  0  0  0  0
  188.4920  178.6480  135.3590 O   0  0  0  0  0  1  0  0  0  0  0  0
  184.4960  177.8500  137.6730 C   0  0  1  0  0  3  0  0  0  0  0  0
  185.9790  174.5620  137.3020 C   0  0  0  0  0  1  0  0  0  0  0  0
  189.5890  178.3570  138.6820 C   0  0  0  0  0  2  0  0  0  0  0  0
  188.6540  177.7750  136.4360 C   0  0  1  0  0  3  0  0  0  0  0  0
  184.3050  176.3420  137.6780 C   0  0  0  0  0  2  0  0  0  0  0  0
  188.3850  178.5190  137.7560 C   0  0  1  0  0  3  0  0  0  0  0  0
  186.2640  176.9180  136.3160 C   0  0  2  0  0  3  0  0  0  0  0  0
  188.8440  177.7860  140.9640 C   0  0  1  0  0  3  0  0  0  0  0  0
  184.5600  175.3340  135.4260 C   0  0  0  0  0  1  0  0  0  0  0  0
  189.3500  178.9140  140.0730 C   0  0  0  0  0  2  0  0  0  0  0  0
  183.2870  177.5650  139.8440 C   0  0  0  0  0  2  0  0  0  0  0  0
  181.8180  177.8100  139.4980 C   0  0  1  0  0  0  0  0  0  0  0  0
  180.7990  179.3840  141.0210 C   0  0  2  0  0  3  0  0  0  0  0  0
  180.9870  177.9120  140.7750 C   0  0  0  0  0  2  0  0  0  0  0  0
  180.9760  180.0180  139.6610 C   0  0  0  0  0  2  0  0  0  0  0  0
  183.0920  179.6410  138.7110 C   0  0  0  0  0  2  0  0  0  0  0  0
  181.7380  179.1060  138.8120 N   0  0  1  0  0  0  0  0  0  0  0  0
  181.8020  179.8410  141.8770 O   0  0  0  0  0  1  0  0  0  0  0  0
  184.0720  178.5210  138.9840 C   0  0  2  0  0  3  0  0  0  0  0  0
  181.3150  176.8140  138.6230 O   0  0  0  0  0  0  0  0  0  0  0  0
  181.0130  175.6440  139.3440 C   0  0  0  0  0  1  0  0  0  0  0  0
  190.4670  178.5680  142.7460 C   0  0  0  0  0  3  0  0  0  0  0  0
  189.2540  177.9540  142.3970 C   0  0  0  0  0  0  0  0  0  0  0  0
  188.3870  177.5170  143.4050 C   0  0  0  0  0  3  0  0  0  0  0  0
  187.6450  177.1280  146.0050 Cl  0  0  0  0  0  0  0  0  0  0  0  0
  189.9440  178.2870  145.0930 C   0  0  0  0  0  3  0  0  0  0  0  0
  188.7330  177.6800  144.7500 C   0  0  0  0  0  0  0  0  0  0  0  0
  190.8110  178.7320  144.0910 C   0  0  0  0  0  3  0  0  0  0  0  0
  186.4510  178.6070  141.3320 C   0  0  0  0  0  2  0  0  0  0  0  0
  185.5390  178.0640  142.4130 C   0  0  0  0  0  1  0  0  0  0  0  0
  1  9  1  0  0  0  0
  1 12  1  0  0  0  0
  2  4  1  6  0  0  0
  3 14  1  0  0  0  0
  3 11  1  0  0  0  0
  4  6  1  0  0  0  0
  5  8  1  0  0  0  0
  5  2  1  0  0  0  0
  6 15  1  0  0  0  0
  6 36  1  0  0  0  0
  7 11  1  0  0  0  0
  8 12  1  0  0  0  0
  8 26  1  0  0  0  0
 10 17  1  0  0  0  0
 11 13  1  0  0  0  0
 13  2  1  0  0  0  0
 13 10  1  0  0  0  0
 14  1  1  0  0  0  0
 14  5  1  0  0  0  0
 15 30  1  0  0  0  0
 16  1  1  0  0  0  0
 17 15  1  0  0  0  0
 19 18  1  0  0  0  0
 19 21  1  0  0  0  0
 20 25  1  0  0  0  0
 21 20  1  0  0  0  0
 22 20  1  0  0  0  0
 23 24  1  0  0  0  0
 23 26  1  0  0  0  0
 24 19  1  0  0  0  0
 24 22  1  0  0  0  0
 26 18  1  0  0  0  0
 27 28  1  0  0  0  0
 27 19  1  0  0  0  0
 29 35  1  0  0  0  0
 30 29  2  0  0  0  0
 30 31  1  0  0  0  0
 31 34  2  0  0  0  0
 34 33  1  0  0  0  0
 34 32  1  0  0  0  0
 35 33  2  0  0  0  0
 36 37  1  0  0  0  0
M  END
>  <MODEL>
6

>  <REMARK>
 VINA RESULT:      -5.2      2.315      3.619
  Name = 
  4 active torsions:
  status: ('A' for Active; 'I' for Inactive)
    1  A    between atoms: C_5  and  O_12
    2  A    between atoms: C_6  and  C_31
    3  A    between atoms: C_7  and  C_14
    4  A    between atoms: C_20  and  C_36
                            x       y       z     vdW  Elec       q    Type
                         _______ _______ _______ _____ _____    ______ ____

>  <TORSDO>
F 4

$$$$
=
 OpenBabel10262422503D

 37 42  0  0  1  0  0  0  0  0999 V2000
  188.8980  177.0990  135.3820 C   0  0  0  0  0  0  0  0  0  0  0  0
  186.5030  176.1000  137.6490 C   0  0  2  0  0  3  0  0  0  0  0  0
  186.8810  175.5060  134.9160 C   0  0  0  0  0  2  0  0  0  0  0  0
  186.1050  177.5520  137.3230 C   0  0  0  0  0  2  0  0  0  0  0  0
  187.9600  175.7700  137.2410 C   0  0  2  0  0  3  0  0  0  0  0  0
  185.0960  178.1310  138.3230 C   0  0  1  0  0  3  0  0  0  0  0  0
  186.5560  173.2800  135.7530 O   0  0  0  0  0  1  0  0  0  0  0  0
  189.0540  176.6870  137.7830 C   0  0  1  0  0  3  0  0  0  0  0  0
  188.0590  178.0950  134.5940 C   0  0  0  0  0  1  0  0  0  0  0  0
  184.0570  175.3850  137.0380 C   0  0  0  0  0  2  0  0  0  0  0  0
  185.9520  174.5340  135.6460 C   0  0  1  0  0  3  0  0  0  0  0  0
  189.2880  177.7370  136.7080 C   0  0  0  0  0  2  0  0  0  0  0  0
  185.5450  175.0390  137.0410 C   0  0  1  0  0  3  0  0  0  0  0  0
  188.1600  175.7910  135.7250 C   0  0  2  0  0  3  0  0  0  0  0  0
  183.6830  177.5620  138.1390 C   0  0  1  0  0  3  0  0  0  0  0  0
  190.1510  176.7710  134.5940 C   0  0  0  0  0  1  0  0  0  0  0  0
  183.5980  176.0510  138.3220 C   0  0  0  0  0  2  0  0  0  0  0  0
  189.8820  178.2500  139.5520 C   0  0  0  0  0  2  0  0  0  0  0  0
  190.9040  177.4290  140.3390 C   0  0  1  0  0  0  0  0  0  0  0  0
  190.5060  177.5650  142.7180 C   0  0  2  0  0  3  0  0  0  0  0  0
  191.3140  178.1750  141.6060 C   0  0  0  0  0  2  0  0  0  0  0  0
  190.1480  176.1870  142.2090 C   0  0  0  0  0  2  0  0  0  0  0  0
  188.8790  176.2100  140.2320 C   0  0  0  0  0  2  0  0  0  0  0  0
  190.2420  176.1840  140.7520 N   0  0  1  0  0  0  0  0  0  0  0  0
  189.3380  178.3060  142.9000 O   0  0  0  0  0  1  0  0  0  0  0  0
  188.7910  177.2840  139.1700 C   0  0  2  0  0  3  0  0  0  0  0  0
  192.0270  177.0900  139.5430 O   0  0  0  0  0  0  0  0  0  0  0  0
  193.2160  177.4220  140.2170 C   0  0  0  0  0  1  0  0  0  0  0  0
  182.1210  177.7670  140.1250 C   0  0  0  0  0  3  0  0  0  0  0  0
  182.6480  178.2990  138.9370 C   0  0  0  0  0  0  0  0  0  0  0  0
  182.2260  179.5590  138.4990 C   0  0  0  0  0  3  0  0  0  0  0  0
  180.7550  181.8540  138.6780 Cl  0  0  0  0  0  0  0  0  0  0  0  0
  180.7530  179.7440  140.4120 C   0  0  0  0  0  3  0  0  0  0  0  0
  181.2790  180.2790  139.2330 C   0  0  0  0  0  0  0  0  0  0  0  0
  181.1750  178.4870  140.8590 C   0  0  0  0  0  3  0  0  0  0  0  0
  185.5920  178.0580  139.7640 C   0  0  0  0  0  2  0  0  0  0  0  0
  185.2030  179.3210  140.5070 C   0  0  0  0  0  1  0  0  0  0  0  0
  1 14  1  0  0  0  0
  1 12  1  0  0  0  0
  2  4  1  6  0  0  0
  3 11  1  0  0  0  0
  3 14  1  0  0  0  0
  4  6  1  0  0  0  0
  5  2  1  0  0  0  0
  5  8  1  0  0  0  0
  6 36  1  0  0  0  0
  8 26  1  0  0  0  0
  9  1  1  0  0  0  0
 10 13  1  0  0  0  0
 10 17  1  0  0  0  0
 11  7  1  0  0  0  0
 11 13  1  0  0  0  0
 12  8  1  0  0  0  0
 13  2  1  0  0  0  0
 14  5  1  0  0  0  0
 15 17  1  0  0  0  0
 15  6  1  0  0  0  0
 15 30  1  0  0  0  0
 16  1  1  0  0  0  0
 18 19  1  0  0  0  0
 19 24  1  0  0  0  0
 19 21  1  0  0  0  0
 20 25  1  0  0  0  0
 21 20  1  0  0  0  0
 22 20  1  0  0  0  0
 23 24  1  0  0  0  0
 24 22  1  0  0  0  0
 26 18  1  0  0  0  0
 26 23  1  0  0  0  0
 27 28  1  0  0  0  0
 27 19  1  0  0  0  0
 29 35  1  0  0  0  0
 30 29  2  0  0  0  0
 31 30  1  0  0  0  0
 31 34  2  0  0  0  0
 32 34  1  0  0  0  0
 33 35  2  0  0  0  0
 34 33  1  0  0  0  0
 36 37  1  0  0  0  0
M  END
>  <MODEL>
7

>  <REMARK>
 VINA RESULT:      -5.2      4.387      7.916
  Name = 
  4 active torsions:
  status: ('A' for Active; 'I' for Inactive)
    1  A    between atoms: C_5  and  O_12
    2  A    between atoms: C_6  and  C_31
    3  A    between atoms: C_7  and  C_14
    4  A    between atoms: C_20  and  C_36
                            x       y       z     vdW  Elec       q    Type
                         _______ _______ _______ _____ _____    ______ ____

>  <TORSDO>
F 4

$$$$
=
 OpenBabel10262422503D

 37 42  0  0  1  0  0  0  0  0999 V2000
  190.5220  174.4050  136.2170 C   0  0  0  0  0  0  0  0  0  0  0  0
  191.3380  177.0370  138.2850 C   0  0  2  0  0  3  0  0  0  0  0  0
  192.9160  175.0660  137.0240 C   0  0  0  0  0  2  0  0  0  0  0  0
  190.7330  175.9980  139.2490 C   0  0  0  0  0  2  0  0  0  0  0  0
  190.9860  176.7600  136.8030 C   0  0  2  0  0  3  0  0  0  0  0  0
  190.3780  176.5920  140.6180 C   0  0  1  0  0  3  0  0  0  0  0  0
  194.1740  177.0180  136.4140 O   0  0  0  0  0  1  0  0  0  0  0  0
  189.5050  176.6120  136.4610 C   0  0  1  0  0  3  0  0  0  0  0  0
  190.6950  173.2710  137.2170 C   0  0  0  0  0  1  0  0  0  0  0  0
  193.4410  177.1290  139.8450 C   0  0  0  0  0  2  0  0  0  0  0  0
  193.7040  176.2860  137.5060 C   0  0  1  0  0  3  0  0  0  0  0  0
  189.2120  175.1210  136.5180 C   0  0  0  0  0  2  0  0  0  0  0  0
  192.8770  177.1980  138.4280 C   0  0  1  0  0  3  0  0  0  0  0  0
  191.6290  175.4740  136.2820 C   0  0  2  0  0  3  0  0  0  0  0  0
  191.6140  176.8710  141.4840 C   0  0  1  0  0  3  0  0  0  0  0  0
  190.4690  173.8280  134.8160 C   0  0  0  0  0  1  0  0  0  0  0  0
  192.5890  177.8650  140.8630 C   0  0  0  0  0  2  0  0  0  0  0  0
  187.5120  176.5800  137.9710 C   0  0  0  0  0  2  0  0  0  0  0  0
  186.3140  176.5580  137.0210 C   0  0  1  0  0  0  0  0  0  0  0  0
  184.6840  178.2400  137.6130 C   0  0  2  0  0  3  0  0  0  0  0  0
  185.0210  176.7870  137.8000 C   0  0  0  0  0  2  0  0  0  0  0  0
  185.3870  178.6260  136.3310 C   0  0  0  0  0  2  0  0  0  0  0  0
  187.7200  178.3630  136.4180 C   0  0  0  0  0  2  0  0  0  0  0  0
  186.4730  177.6810  136.0880 N   0  0  1  0  0  0  0  0  0  0  0  0
  185.2150  178.9790  138.6700 O   0  0  0  0  0  1  0  0  0  0  0  0
  188.5430  177.4540  137.3050 C   0  0  2  0  0  3  0  0  0  0  0  0
  186.2670  175.3590  136.2670 O   0  0  0  0  0  0  0  0  0  0  0  0
  185.5780  174.3630  136.9840 C   0  0  0  0  0  1  0  0  0  0  0  0
  190.5140  178.3530  143.2200 C   0  0  0  0  0  3  0  0  0  0  0  0
  191.2680  177.2120  142.9030 C   0  0  0  0  0  0  0  0  0  0  0  0
  191.6800  176.3520  143.9270 C   0  0  0  0  0  3  0  0  0  0  0  0
  191.8770  175.5530  146.5310 Cl  0  0  0  0  0  0  0  0  0  0  0  0
  190.6080  177.7720  145.5690 C   0  0  0  0  0  3  0  0  0  0  0  0
  191.3550  176.6330  145.2560 C   0  0  0  0  0  0  0  0  0  0  0  0
  190.1870  178.6330  144.5500 C   0  0  0  0  0  3  0  0  0  0  0  0
  189.4340  177.7860  140.5110 C   0  0  0  0  0  2  0  0  0  0  0  0
  188.1580  177.5030  141.2770 C   0  0  0  0  0  1  0  0  0  0  0  0
  1 14  1  0  0  0  0
  1 12  1  0  0  0  0
  1  9  1  0  0  0  0
  2 13  1  0  0  0  0
  2  4  1  1  0  0  0
  3 11  1  0  0  0  0
  4  6  1  0  0  0  0
  5  2  1  0  0  0  0
  6 15  1  0  0  0  0
  7 11  1  0  0  0  0
  8 12  1  0  0  0  0
  8  5  1  0  0  0  0
  8 26  1  0  0  0  0
 10 17  1  0  0  0  0
 11 13  1  0  0  0  0
 13 10  1  0  0  0  0
 14  5  1  0  0  0  0
 14  3  1  0  0  0  0
 15 30  1  0  0  0  0
 16  1  1  0  0  0  0
 17 15  1  0  0  0  0
 19 21  1  0  0  0  0
 19 18  1  0  0  0  0
 20 21  1  0  0  0  0
 20 25  1  0  0  0  0
 22 20  1  0  0  0  0
 23 26  1  0  0  0  0
 24 22  1  0  0  0  0
 24 23  1  0  0  0  0
 24 19  1  0  0  0  0
 26 18  1  0  0  0  0
 27 28  1  0  0  0  0
 27 19  1  0  0  0  0
 29 35  1  0  0  0  0
 30 29  2  0  0  0  0
 30 31  1  0  0  0  0
 31 34  2  0  0  0  0
 34 33  1  0  0  0  0
 34 32  1  0  0  0  0
 35 33  2  0  0  0  0
 36  6  1  0  0  0  0
 36 37  1  0  0  0  0
M  END
>  <MODEL>
8

>  <REMARK>
 VINA RESULT:      -5.2      4.624      6.949
  Name = 
  4 active torsions:
  status: ('A' for Active; 'I' for Inactive)
    1  A    between atoms: C_5  and  O_12
    2  A    between atoms: C_6  and  C_31
    3  A    between atoms: C_7  and  C_14
    4  A    between atoms: C_20  and  C_36
                            x       y       z     vdW  Elec       q    Type
                         _______ _______ _______ _____ _____    ______ ____

>  <TORSDO>
F 4

$$$$
