=
 OpenBabel10262419283D

 31 36  0  0  0  0  0  0  0  0999 V2000
  190.3710  177.1240  146.1790 C   0  0  0  0  0  0  0  0  0  0  0  0
  187.9980  177.7450  143.3440 C   0  0  0  0  0  0  0  0  0  0  0  0
  186.6460  177.8990  143.9830 C   0  0  0  0  0  0  0  0  0  0  0  0
  185.9260  178.0530  146.3480 C   0  0  0  0  0  3  0  0  0  0  0  0
  189.1840  177.4790  144.0790 C   0  0  0  0  0  0  0  0  0  0  0  0
  191.5720  176.9660  145.4860 C   0  0  0  0  0  3  0  0  0  0  0  0
  186.3250  177.1410  145.2380 C   0  0  0  0  0  2  0  0  0  0  0  0
  189.3150  177.7470  141.2690 C   0  0  0  0  0  0  0  0  0  0  0  0
  190.3500  177.0250  147.5980 N   0  0  0  0  0  1  0  0  0  0  0  0
  185.9310  179.1240  141.9550 C   0  0  0  0  0  2  0  0  0  0  0  0
  184.8290  178.8040  146.2960 C   0  0  0  0  0  3  0  0  0  0  0  0
  190.4650  177.4610  142.0070 C   0  0  0  0  0  3  0  0  0  0  0  0
  188.0900  177.9090  141.9400 C   0  0  0  0  0  0  0  0  0  0  0  0
  189.1890  177.3820  145.4800 C   0  0  0  0  0  3  0  0  0  0  0  0
  183.9350  178.8940  145.1290 C   0  0  0  0  0  3  0  0  0  0  0  0
  190.4140  177.3320  143.3910 C   0  0  0  0  0  0  0  0  0  0  0  0
  191.5930  177.0710  144.0950 C   0  0  0  0  0  3  0  0  0  0  0  0
  186.8450  178.2050  141.1540 C   0  0  0  0  0  2  0  0  0  0  0  0
  185.6600  178.5470  143.3150 C   0  0  0  0  0  0  0  0  0  0  0  0
  184.2960  178.7730  143.8450 C   0  0  0  0  0  3  0  0  0  0  0  0
  189.3600  177.8920  139.8380 N   0  0  0  0  0  2  0  0  0  0  0  0
  191.1280  173.2300  135.7570 C   0  0  0  0  0  3  0  0  0  0  0  0
  190.8420  175.2250  137.6990 C   0  0  0  0  0  0  0  0  0  0  0  0
  188.5210  175.5180  137.0410 C   0  0  0  0  0  3  0  0  0  0  0  0
  188.3820  176.5150  138.0120 C   0  0  0  0  0  3  0  0  0  0  0  0
  192.2120  173.5810  136.5680 C   0  0  0  0  0  3  0  0  0  0  0  0
  189.4640  176.8730  138.8320 C   0  0  0  0  0  0  0  0  0  0  0  0
  192.0710  174.5780  137.5380 C   0  0  0  0  0  3  0  0  0  0  0  0
  189.7470  174.8710  136.8800 C   0  0  0  0  0  0  0  0  0  0  0  0
  190.6930  176.2220  138.6670 C   0  0  0  0  0  3  0  0  0  0  0  0
  189.8960  173.8740  135.9120 C   0  0  0  0  0  3  0  0  0  0  0  0
  1  9  1  0  0  0  0
  2  3  1  0  0  0  0
  2  5  1  0  0  0  0
  3  7  1  0  0  0  0
  5 14  1  0  0  0  0
  6  1  1  0  0  0  0
  7  4  1  0  0  0  0
  8 13  1  0  0  0  0
  8 12  2  0  0  0  0
 10 19  1  0  0  0  0
 11  4  2  0  0  0  0
 12 16  1  0  0  0  0
 13  2  2  0  0  0  0
 14  1  2  0  0  0  0
 15 11  1  0  0  0  0
 16  5  2  0  0  0  0
 16 17  1  0  0  0  0
 17  6  2  0  0  0  0
 18 13  1  0  0  0  0
 18 10  1  0  0  0  0
 19 20  1  0  0  0  0
 19  3  2  0  0  0  0
 20 15  2  0  0  0  0
 21  8  1  0  0  0  0
 22 31  2  0  0  0  0
 22 26  1  0  0  0  0
 23 30  1  0  0  0  0
 24 25  2  0  0  0  0
 25 27  1  0  0  0  0
 26 28  2  0  0  0  0
 27 21  1  0  0  0  0
 28 23  1  0  0  0  0
 29 24  1  0  0  0  0
 29 23  2  0  0  0  0
 30 27  2  0  0  0  0
 31 29  1  0  0  0  0
M  END
>  <MODEL>
1

>  <REMARK>
 VINA RESULT:     -11.5      0.000      0.000
  Name = 
  2 active torsions:
  status: ('A' for Active; 'I' for Inactive)
    1  A    between atoms: C_9  and  N_23
    2  A    between atoms: C_15  and  N_23
                            x       y       z     vdW  Elec       q    Type
                         _______ _______ _______ _____ _____    ______ ____

>  <TORSDO>
F 2

$$$$
=
 OpenBabel10262419283D

 31 36  0  0  0  0  0  0  0  0999 V2000
  185.2090  178.3320  145.1400 C   0  0  0  0  0  0  0  0  0  0  0  0
  188.6060  177.8580  143.6240 C   0  0  0  0  0  0  0  0  0  0  0  0
  189.5190  177.5620  144.7810 C   0  0  0  0  0  0  0  0  0  0  0  0
  189.0870  177.1300  147.1810 C   0  0  0  0  0  3  0  0  0  0  0  0
  187.2170  178.1200  143.7730 C   0  0  0  0  0  0  0  0  0  0  0  0
  184.4550  178.6300  144.0040 C   0  0  0  0  0  3  0  0  0  0  0  0
  189.2420  178.1700  146.1240 C   0  0  0  0  0  2  0  0  0  0  0  0
  188.3730  178.1420  141.1940 C   0  0  0  0  0  0  0  0  0  0  0  0
  184.5860  178.2880  146.4170 N   0  0  0  0  0  1  0  0  0  0  0  0
  191.0680  176.5060  143.1650 C   0  0  0  0  0  2  0  0  0  0  0  0
  190.0820  176.3240  147.5420 C   0  0  0  0  0  3  0  0  0  0  0  0
  187.0160  178.4200  141.3640 C   0  0  0  0  0  3  0  0  0  0  0  0
  189.1600  177.8410  142.3210 C   0  0  0  0  0  0  0  0  0  0  0  0
  186.5780  178.0760  145.0230 C   0  0  0  0  0  3  0  0  0  0  0  0
  191.4090  176.2990  146.9000 C   0  0  0  0  0  3  0  0  0  0  0  0
  186.4350  178.4070  142.6270 C   0  0  0  0  0  0  0  0  0  0  0  0
  185.0660  178.6650  142.7510 C   0  0  0  0  0  3  0  0  0  0  0  0
  190.6240  177.5530  142.1510 C   0  0  0  0  0  2  0  0  0  0  0  0
  190.6960  176.9260  144.5580 C   0  0  0  0  0  0  0  0  0  0  0  0
  191.6690  176.5680  145.6150 C   0  0  0  0  0  3  0  0  0  0  0  0
  188.9820  178.1430  139.8900 N   0  0  0  0  0  2  0  0  0  0  0  0
  190.5100  173.3200  135.9000 C   0  0  0  0  0  3  0  0  0  0  0  0
  190.3350  175.3850  137.7830 C   0  0  0  0  0  0  0  0  0  0  0  0
  187.9910  175.6870  137.2170 C   0  0  0  0  0  3  0  0  0  0  0  0
  187.9070  176.7180  138.1580 C   0  0  0  0  0  3  0  0  0  0  0  0
  191.6340  173.6840  136.6500 C   0  0  0  0  0  3  0  0  0  0  0  0
  189.0290  177.0890  138.9170 C   0  0  0  0  0  0  0  0  0  0  0  0
  191.5470  174.7160  137.5910 C   0  0  0  0  0  3  0  0  0  0  0  0
  189.2010  175.0180  137.0250 C   0  0  0  0  0  0  0  0  0  0  0  0
  190.2410  176.4160  138.7210 C   0  0  0  0  0  3  0  0  0  0  0  0
  189.2950  173.9860  136.0860 C   0  0  0  0  0  3  0  0  0  0  0  0
  1  9  1  0  0  0  0
  2  5  1  0  0  0  0
  2  3  1  0  0  0  0
  3  7  1  0  0  0  0
  4 11  2  0  0  0  0
  5 14  2  0  0  0  0
  6  1  2  0  0  0  0
  7  4  1  0  0  0  0
  8 12  2  0  0  0  0
  8 13  1  0  0  0  0
 10 19  1  0  0  0  0
 12 16  1  0  0  0  0
 13  2  2  0  0  0  0
 14  1  1  0  0  0  0
 15 11  1  0  0  0  0
 16 17  2  0  0  0  0
 16  5  1  0  0  0  0
 17  6  1  0  0  0  0
 18 13  1  0  0  0  0
 18 10  1  0  0  0  0
 19  3  2  0  0  0  0
 19 20  1  0  0  0  0
 20 15  2  0  0  0  0
 21  8  1  0  0  0  0
 22 31  2  0  0  0  0
 22 26  1  0  0  0  0
 23 30  1  0  0  0  0
 24 25  2  0  0  0  0
 25 27  1  0  0  0  0
 26 28  2  0  0  0  0
 27 21  1  0  0  0  0
 28 23  1  0  0  0  0
 29 24  1  0  0  0  0
 29 23  2  0  0  0  0
 30 27  2  0  0  0  0
 31 29  1  0  0  0  0
M  END
>  <MODEL>
2

>  <REMARK>
 VINA RESULT:     -11.2      1.375      3.980
  Name = 
  2 active torsions:
  status: ('A' for Active; 'I' for Inactive)
    1  A    between atoms: C_9  and  N_23
    2  A    between atoms: C_15  and  N_23
                            x       y       z     vdW  Elec       q    Type
                         _______ _______ _______ _____ _____    ______ ____

>  <TORSDO>
F 2

$$$$
=
 OpenBabel10262419283D

 31 36  0  0  0  0  0  0  0  0999 V2000
  190.6420  177.0710  145.0160 C   0  0  0  0  0  0  0  0  0  0  0  0
  187.6270  177.9500  142.9670 C   0  0  0  0  0  0  0  0  0  0  0  0
  186.4830  177.9930  143.9410 C   0  0  0  0  0  0  0  0  0  0  0  0
  186.3890  177.8550  146.4120 C   0  0  0  0  0  3  0  0  0  0  0  0
  188.9610  177.6320  143.3420 C   0  0  0  0  0  0  0  0  0  0  0  0
  191.6260  177.0250  144.0280 C   0  0  0  0  0  3  0  0  0  0  0  0
  186.4890  177.0880  145.1380 C   0  0  0  0  0  2  0  0  0  0  0  0
  188.3740  178.2260  140.6410 C   0  0  0  0  0  0  0  0  0  0  0  0
  190.9810  176.8080  146.3720 N   0  0  0  0  0  1  0  0  0  0  0  0
  185.2800  179.4230  142.3190 C   0  0  0  0  0  2  0  0  0  0  0  0
  185.3180  178.5780  146.7290 C   0  0  0  0  0  3  0  0  0  0  0  0
  189.6720  177.8870  141.0260 C   0  0  0  0  0  3  0  0  0  0  0  0
  187.3600  178.2760  141.6150 C   0  0  0  0  0  0  0  0  0  0  0  0
  189.3220  177.3760  144.6750 C   0  0  0  0  0  3  0  0  0  0  0  0
  184.1560  178.7770  145.8440 C   0  0  0  0  0  3  0  0  0  0  0  0
  189.9750  177.5990  142.3520 C   0  0  0  0  0  0  0  0  0  0  0  0
  191.2930  177.2910  142.7000 C   0  0  0  0  0  3  0  0  0  0  0  0
  185.9570  178.6270  141.2100 C   0  0  0  0  0  2  0  0  0  0  0  0
  185.3620  178.6870  143.6250 C   0  0  0  0  0  0  0  0  0  0  0  0
  184.1790  178.8140  144.5060 C   0  0  0  0  0  3  0  0  0  0  0  0
  188.0530  178.5350  139.2730 N   0  0  0  0  0  2  0  0  0  0  0  0
  186.8550  173.8930  134.9680 C   0  0  0  0  0  3  0  0  0  0  0  0
  187.7900  175.6310  136.9540 C   0  0  0  0  0  0  0  0  0  0  0  0
  185.8860  177.0890  136.5580 C   0  0  0  0  0  3  0  0  0  0  0  0
  186.3560  177.9550  137.5500 C   0  0  0  0  0  3  0  0  0  0  0  0
  188.0360  173.6000  135.6590 C   0  0  0  0  0  3  0  0  0  0  0  0
  187.5390  177.6690  138.2500 C   0  0  0  0  0  0  0  0  0  0  0  0
  188.5040  174.4680  136.6510 C   0  0  0  0  0  3  0  0  0  0  0  0
  186.5980  175.9270  136.2550 C   0  0  0  0  0  0  0  0  0  0  0  0
  188.2510  176.5030  137.9440 C   0  0  0  0  0  3  0  0  0  0  0  0
  186.1370  175.0550  135.2650 C   0  0  0  0  0  3  0  0  0  0  0  0
  1  9  1  0  0  0  0
  2  5  1  0  0  0  0
  2  3  1  0  0  0  0
  3  7  1  0  0  0  0
  4 11  2  0  0  0  0
  5 14  2  0  0  0  0
  6  1  2  0  0  0  0
  7  4  1  0  0  0  0
  8 12  2  0  0  0  0
  8 13  1  0  0  0  0
 10 19  1  0  0  0  0
 12 16  1  0  0  0  0
 13  2  2  0  0  0  0
 14  1  1  0  0  0  0
 15 11  1  0  0  0  0
 16 17  2  0  0  0  0
 16  5  1  0  0  0  0
 17  6  1  0  0  0  0
 18 13  1  0  0  0  0
 18 10  1  0  0  0  0
 19  3  2  0  0  0  0
 19 20  1  0  0  0  0
 20 15  2  0  0  0  0
 21  8  1  0  0  0  0
 22 31  2  0  0  0  0
 22 26  1  0  0  0  0
 23 30  1  0  0  0  0
 24 25  2  0  0  0  0
 25 27  1  0  0  0  0
 26 28  2  0  0  0  0
 27 21  1  0  0  0  0
 28 23  1  0  0  0  0
 29 24  1  0  0  0  0
 29 23  2  0  0  0  0
 30 27  2  0  0  0  0
 31 29  1  0  0  0  0
M  END
>  <MODEL>
3

>  <REMARK>
 VINA RESULT:     -11.1      1.529      2.098
  Name = 
  2 active torsions:
  status: ('A' for Active; 'I' for Inactive)
    1  A    between atoms: C_9  and  N_23
    2  A    between atoms: C_15  and  N_23
                            x       y       z     vdW  Elec       q    Type
                         _______ _______ _______ _____ _____    ______ ____

>  <TORSDO>
F 2

$$$$
=
 OpenBabel10262419283D

 31 36  0  0  0  0  0  0  0  0999 V2000
  190.4830  177.1210  145.9150 C   0  0  0  0  0  0  0  0  0  0  0  0
  187.8920  177.8700  143.3110 C   0  0  0  0  0  0  0  0  0  0  0  0
  186.5910  177.9590  144.0580 C   0  0  0  0  0  0  0  0  0  0  0  0
  186.0510  177.9540  146.4760 C   0  0  0  0  0  3  0  0  0  0  0  0
  189.1350  177.5810  143.9370 C   0  0  0  0  0  0  0  0  0  0  0  0
  191.6300  177.0270  145.1250 C   0  0  0  0  0  3  0  0  0  0  0  0
  186.3770  177.1200  145.2830 C   0  0  0  0  0  2  0  0  0  0  0  0
  189.0470  178.0240  141.1470 C   0  0  0  0  0  0  0  0  0  0  0  0
  190.5710  176.9330  147.3220 N   0  0  0  0  0  1  0  0  0  0  0  0
  185.7060  179.2930  142.1710 C   0  0  0  0  0  2  0  0  0  0  0  0
  184.9430  178.6870  146.5540 C   0  0  0  0  0  3  0  0  0  0  0  0
  190.2540  177.7140  141.7770 C   0  0  0  0  0  3  0  0  0  0  0  0
  187.8740  178.1220  141.9170 C   0  0  0  0  0  0  0  0  0  0  0  0
  189.2480  177.3990  145.3250 C   0  0  0  0  0  3  0  0  0  0  0  0
  183.9610  178.8310  145.4650 C   0  0  0  0  0  3  0  0  0  0  0  0
  190.3100  177.5000  143.1500 C   0  0  0  0  0  0  0  0  0  0  0  0
  191.5430  177.2190  143.7460 C   0  0  0  0  0  3  0  0  0  0  0  0
  186.5690  178.4420  141.2470 C   0  0  0  0  0  2  0  0  0  0  0  0
  185.5480  178.6290  143.5080 C   0  0  0  0  0  0  0  0  0  0  0  0
  184.2260  178.7970  144.1530 C   0  0  0  0  0  3  0  0  0  0  0  0
  188.9810  178.2580  139.7280 N   0  0  0  0  0  2  0  0  0  0  0  0
  187.4080  174.5520  134.6970 C   0  0  0  0  0  3  0  0  0  0  0  0
  187.6410  176.3900  136.7950 C   0  0  0  0  0  0  0  0  0  0  0  0
  189.8050  175.4440  137.3690 C   0  0  0  0  0  3  0  0  0  0  0  0
  189.9180  176.3640  138.4170 C   0  0  0  0  0  3  0  0  0  0  0  0
  186.3890  175.4800  134.9340 C   0  0  0  0  0  3  0  0  0  0  0  0
  188.9010  177.3010  138.6610 C   0  0  0  0  0  0  0  0  0  0  0  0
  186.5040  176.3990  135.9830 C   0  0  0  0  0  3  0  0  0  0  0  0
  188.6700  175.4520  136.5560 C   0  0  0  0  0  0  0  0  0  0  0  0
  187.7640  177.3060  137.8440 C   0  0  0  0  0  3  0  0  0  0  0  0
  188.5480  174.5370  135.5070 C   0  0  0  0  0  3  0  0  0  0  0  0
  1  9  1  0  0  0  0
  2  5  1  0  0  0  0
  2  3  1  0  0  0  0
  3  7  1  0  0  0  0
  4 11  2  0  0  0  0
  5 14  2  0  0  0  0
  6  1  2  0  0  0  0
  7  4  1  0  0  0  0
  8 12  2  0  0  0  0
  8 13  1  0  0  0  0
 10 19  1  0  0  0  0
 12 16  1  0  0  0  0
 13  2  2  0  0  0  0
 14  1  1  0  0  0  0
 15 11  1  0  0  0  0
 16 17  2  0  0  0  0
 16  5  1  0  0  0  0
 17  6  1  0  0  0  0
 18 13  1  0  0  0  0
 18 10  1  0  0  0  0
 19  3  2  0  0  0  0
 19 20  1  0  0  0  0
 20 15  2  0  0  0  0
 21  8  1  0  0  0  0
 22 26  2  0  0  0  0
 22 31  1  0  0  0  0
 23 30  1  0  0  0  0
 24 25  2  0  0  0  0
 25 27  1  0  0  0  0
 26 28  1  0  0  0  0
 27 21  1  0  0  0  0
 28 23  2  0  0  0  0
 29 23  1  0  0  0  0
 29 24  1  0  0  0  0
 30 27  2  0  0  0  0
 31 29  2  0  0  0  0
M  END
>  <MODEL>
4

>  <REMARK>
 VINA RESULT:     -11.1      1.033      2.027
  Name = 
  2 active torsions:
  status: ('A' for Active; 'I' for Inactive)
    1  A    between atoms: C_9  and  N_23
    2  A    between atoms: C_15  and  N_23
                            x       y       z     vdW  Elec       q    Type
                         _______ _______ _______ _____ _____    ______ ____

>  <TORSDO>
F 2

$$$$
=
 OpenBabel10262419283D

 31 36  0  0  0  0  0  0  0  0999 V2000
  185.1840  178.3600  145.6290 C   0  0  0  0  0  0  0  0  0  0  0  0
  188.3800  178.0130  143.7000 C   0  0  0  0  0  0  0  0  0  0  0  0
  189.4300  177.6880  144.7250 C   0  0  0  0  0  0  0  0  0  0  0  0
  189.2960  177.1520  147.1390 C   0  0  0  0  0  3  0  0  0  0  0  0
  187.0150  178.2410  144.0240 C   0  0  0  0  0  0  0  0  0  0  0  0
  184.2940  178.6880  144.6050 C   0  0  0  0  0  3  0  0  0  0  0  0
  189.3080  178.2360  146.1160 C   0  0  0  0  0  2  0  0  0  0  0  0
  187.8520  178.3890  141.3290 C   0  0  0  0  0  0  0  0  0  0  0  0
  184.7190  178.2530  146.9690 N   0  0  0  0  0  1  0  0  0  0  0  0
  190.7870  176.7280  142.8920 C   0  0  0  0  0  2  0  0  0  0  0  0
  190.3390  176.3520  147.3440 C   0  0  0  0  0  3  0  0  0  0  0  0
  186.5210  178.6350  141.6710 C   0  0  0  0  0  3  0  0  0  0  0  0
  188.7730  178.0590  142.3390 C   0  0  0  0  0  0  0  0  0  0  0  0
  186.5320  178.1350  145.3380 C   0  0  0  0  0  3  0  0  0  0  0  0
  191.5780  176.3770  146.5470 C   0  0  0  0  0  3  0  0  0  0  0  0
  186.0960  178.5590  142.9930 C   0  0  0  0  0  0  0  0  0  0  0  0
  184.7490  178.7860  143.2900 C   0  0  0  0  0  3  0  0  0  0  0  0
  190.2090  177.8060  141.9830 C   0  0  0  0  0  2  0  0  0  0  0  0
  190.5800  177.0850  144.3360 C   0  0  0  0  0  0  0  0  0  0  0  0
  191.6780  176.7030  145.2530 C   0  0  0  0  0  3  0  0  0  0  0  0
  188.2990  178.4550  139.9620 N   0  0  0  0  0  2  0  0  0  0  0  0
  187.1380  174.5350  134.9820 C   0  0  0  0  0  3  0  0  0  0  0  0
  188.0570  175.9460  137.2190 C   0  0  0  0  0  0  0  0  0  0  0  0
  186.1500  177.4430  137.0440 C   0  0  0  0  0  3  0  0  0  0  0  0
  186.6120  178.1450  138.1610 C   0  0  0  0  0  3  0  0  0  0  0  0
  188.3160  174.1410  135.6260 C   0  0  0  0  0  3  0  0  0  0  0  0
  187.7930  177.7570  138.8150 C   0  0  0  0  0  0  0  0  0  0  0  0
  188.7770  174.8460  136.7430 C   0  0  0  0  0  3  0  0  0  0  0  0
  186.8670  176.3440  136.5680 C   0  0  0  0  0  0  0  0  0  0  0  0
  188.5100  176.6540  138.3350 C   0  0  0  0  0  3  0  0  0  0  0  0
  186.4140  175.6350  135.4520 C   0  0  0  0  0  3  0  0  0  0  0  0
  1  9  1  0  0  0  0
  2  5  1  0  0  0  0
  2  3  1  0  0  0  0
  3  7  1  0  0  0  0
  4 11  2  0  0  0  0
  5 14  2  0  0  0  0
  6  1  2  0  0  0  0
  7  4  1  0  0  0  0
  8 12  2  0  0  0  0
  8 13  1  0  0  0  0
 10 19  1  0  0  0  0
 12 16  1  0  0  0  0
 13  2  2  0  0  0  0
 14  1  1  0  0  0  0
 15 11  1  0  0  0  0
 16 17  2  0  0  0  0
 16  5  1  0  0  0  0
 17  6  1  0  0  0  0
 18 13  1  0  0  0  0
 18 10  1  0  0  0  0
 19  3  2  0  0  0  0
 19 20  1  0  0  0  0
 20 15  2  0  0  0  0
 21  8  1  0  0  0  0
 22 31  2  0  0  0  0
 22 26  1  0  0  0  0
 23 30  1  0  0  0  0
 24 25  2  0  0  0  0
 25 27  1  0  0  0  0
 26 28  2  0  0  0  0
 27 21  1  0  0  0  0
 28 23  1  0  0  0  0
 29 24  1  0  0  0  0
 29 23  2  0  0  0  0
 30 27  2  0  0  0  0
 31 29  1  0  0  0  0
M  END
>  <MODEL>
5

>  <REMARK>
 VINA RESULT:     -10.9      1.778      4.385
  Name = 
  2 active torsions:
  status: ('A' for Active; 'I' for Inactive)
    1  A    between atoms: C_9  and  N_23
    2  A    between atoms: C_15  and  N_23
                            x       y       z     vdW  Elec       q    Type
                         _______ _______ _______ _____ _____    ______ ____

>  <TORSDO>
F 2

$$$$
=
 OpenBabel10262419283D

 31 36  0  0  0  0  0  0  0  0999 V2000
  190.1740  177.5050  141.4450 C   0  0  0  0  0  0  0  0  0  0  0  0
  186.8770  178.0790  143.1360 C   0  0  0  0  0  0  0  0  0  0  0  0
  187.1250  177.8040  144.5930 C   0  0  0  0  0  0  0  0  0  0  0  0
  189.1940  177.3590  145.8800 C   0  0  0  0  0  3  0  0  0  0  0  0
  187.8810  177.9570  142.1360 C   0  0  0  0  0  0  0  0  0  0  0  0
  189.8330  177.7500  140.1140 C   0  0  0  0  0  3  0  0  0  0  0  0
  188.1430  176.7780  144.9950 C   0  0  0  0  0  2  0  0  0  0  0  0
  185.2700  178.7550  141.4030 C   0  0  0  0  0  0  0  0  0  0  0  0
  191.5080  177.1460  141.7830 N   0  0  0  0  0  1  0  0  0  0  0  0
  185.1320  179.1830  145.0930 C   0  0  0  0  0  2  0  0  0  0  0  0
  188.9220  177.8400  147.0900 C   0  0  0  0  0  3  0  0  0  0  0  0
  186.2640  178.6060  140.4340 C   0  0  0  0  0  3  0  0  0  0  0  0
  185.5840  178.5110  142.7520 C   0  0  0  0  0  0  0  0  0  0  0  0
  189.2060  177.6120  142.4470 C   0  0  0  0  0  3  0  0  0  0  0  0
  187.5690  177.9360  147.6650 C   0  0  0  0  0  3  0  0  0  0  0  0
  187.5530  178.2200  140.7830 C   0  0  0  0  0  0  0  0  0  0  0  0
  188.5260  178.1090  139.7850 C   0  0  0  0  0  3  0  0  0  0  0  0
  184.5190  178.6560  143.8010 C   0  0  0  0  0  2  0  0  0  0  0  0
  186.2860  178.3230  145.5230 C   0  0  0  0  0  0  0  0  0  0  0  0
  186.4340  178.1350  146.9840 C   0  0  0  0  0  3  0  0  0  0  0  0
  183.9360  179.1640  141.0520 N   0  0  0  0  0  2  0  0  0  0  0  0
  179.6350  174.8360  138.9800 C   0  0  0  0  0  3  0  0  0  0  0  0
  181.8300  176.4700  139.5720 C   0  0  0  0  0  0  0  0  0  0  0  0
  180.4420  177.7670  141.0890 C   0  0  0  0  0  3  0  0  0  0  0  0
  181.5400  178.5810  141.3820 C   0  0  0  0  0  3  0  0  0  0  0  0
  180.8720  174.5980  138.3720 C   0  0  0  0  0  3  0  0  0  0  0  0
  182.7870  178.3480  140.7780 C   0  0  0  0  0  0  0  0  0  0  0  0
  181.9700  175.4140  138.6670 C   0  0  0  0  0  3  0  0  0  0  0  0
  180.5800  176.7110  140.1850 C   0  0  0  0  0  0  0  0  0  0  0  0
  182.9220  177.2890  139.8720 C   0  0  0  0  0  3  0  0  0  0  0  0
  179.4880  175.8920  139.8850 C   0  0  0  0  0  3  0  0  0  0  0  0
  1  9  1  0  0  0  0
  1 14  1  0  0  0  0
  2  3  1  0  0  0  0
  3  7  1  0  0  0  0
  3 19  2  0  0  0  0
  4 11  2  0  0  0  0
  5 14  2  0  0  0  0
  5  2  1  0  0  0  0
  6  1  2  0  0  0  0
  7  4  1  0  0  0  0
  8 13  1  0  0  0  0
 10 19  1  0  0  0  0
 11 15  1  0  0  0  0
 12 16  1  0  0  0  0
 12  8  2  0  0  0  0
 13  2  2  0  0  0  0
 13 18  1  0  0  0  0
 16  5  1  0  0  0  0
 17  6  1  0  0  0  0
 17 16  2  0  0  0  0
 18 10  1  0  0  0  0
 19 20  1  0  0  0  0
 20 15  2  0  0  0  0
 21  8  1  0  0  0  0
 22 31  1  0  0  0  0
 23 30  1  0  0  0  0
 23 29  1  0  0  0  0
 24 25  2  0  0  0  0
 26 28  1  0  0  0  0
 26 22  2  0  0  0  0
 27 21  1  0  0  0  0
 27 25  1  0  0  0  0
 28 23  2  0  0  0  0
 29 24  1  0  0  0  0
 30 27  2  0  0  0  0
 31 29  2  0  0  0  0
M  END
>  <MODEL>
6

>  <REMARK>
 VINA RESULT:     -10.9      3.563      6.439
  Name = 
  2 active torsions:
  status: ('A' for Active; 'I' for Inactive)
    1  A    between atoms: C_9  and  N_23
    2  A    between atoms: C_15  and  N_23
                            x       y       z     vdW  Elec       q    Type
                         _______ _______ _______ _____ _____    ______ ____

>  <TORSDO>
F 2

$$$$
=
 OpenBabel10262419283D

 31 36  0  0  0  0  0  0  0  0999 V2000
  190.1050  177.6020  141.2530 C   0  0  0  0  0  0  0  0  0  0  0  0
  186.7990  178.0590  142.9620 C   0  0  0  0  0  0  0  0  0  0  0  0
  187.0630  177.7860  144.4170 C   0  0  0  0  0  0  0  0  0  0  0  0
  189.1520  177.4040  145.6910 C   0  0  0  0  0  3  0  0  0  0  0  0
  187.8010  177.9760  141.9570 C   0  0  0  0  0  0  0  0  0  0  0  0
  189.7490  177.8430  139.9250 C   0  0  0  0  0  3  0  0  0  0  0  0
  188.1160  176.7930  144.8100 C   0  0  0  0  0  2  0  0  0  0  0  0
  185.1620  178.6900  141.2410 C   0  0  0  0  0  0  0  0  0  0  0  0
  191.4520  177.2870  141.5830 N   0  0  0  0  0  1  0  0  0  0  0  0
  185.0280  179.0970  144.9330 C   0  0  0  0  0  2  0  0  0  0  0  0
  188.8710  177.8700  146.9060 C   0  0  0  0  0  3  0  0  0  0  0  0
  186.1550  178.5780  140.2660 C   0  0  0  0  0  3  0  0  0  0  0  0
  185.4910  178.4500  142.5870 C   0  0  0  0  0  0  0  0  0  0  0  0
  189.1390  177.6730  142.2600 C   0  0  0  0  0  3  0  0  0  0  0  0
  187.5180  177.9190  147.4870 C   0  0  0  0  0  3  0  0  0  0  0  0
  187.4590  178.2330  140.6070 C   0  0  0  0  0  0  0  0  0  0  0  0
  188.4290  178.1590  139.6030 C   0  0  0  0  0  3  0  0  0  0  0  0
  184.4270  178.5550  143.6420 C   0  0  0  0  0  2  0  0  0  0  0  0
  186.2120  178.2740  145.3530 C   0  0  0  0  0  0  0  0  0  0  0  0
  186.3730  178.0840  146.8130 C   0  0  0  0  0  3  0  0  0  0  0  0
  183.8130  179.0560  140.8980 N   0  0  0  0  0  2  0  0  0  0  0  0
  180.4090  179.6410  135.4590 C   0  0  0  0  0  3  0  0  0  0  0  0
  181.7780  179.8830  137.8890 C   0  0  0  0  0  0  0  0  0  0  0  0
  182.4080  177.5390  137.7540 C   0  0  0  0  0  3  0  0  0  0  0  0
  183.0910  177.6630  138.9680 C   0  0  0  0  0  3  0  0  0  0  0  0
  180.4360  180.8680  136.1320 C   0  0  0  0  0  3  0  0  0  0  0  0
  183.1250  178.8910  139.6490 C   0  0  0  0  0  0  0  0  0  0  0  0
  181.1190  180.9890  137.3460 C   0  0  0  0  0  3  0  0  0  0  0  0
  181.7500  178.6440  137.2100 C   0  0  0  0  0  0  0  0  0  0  0  0
  182.4630  179.9970  139.1020 C   0  0  0  0  0  3  0  0  0  0  0  0
  181.0650  178.5300  135.9980 C   0  0  0  0  0  3  0  0  0  0  0  0
  1  9  1  0  0  0  0
  1 14  1  0  0  0  0
  2  3  1  0  0  0  0
  3  7  1  0  0  0  0
  3 19  2  0  0  0  0
  4 11  2  0  0  0  0
  5 14  2  0  0  0  0
  5  2  1  0  0  0  0
  6  1  2  0  0  0  0
  7  4  1  0  0  0  0
  8 13  1  0  0  0  0
 10 19  1  0  0  0  0
 11 15  1  0  0  0  0
 12 16  1  0  0  0  0
 12  8  2  0  0  0  0
 13  2  2  0  0  0  0
 13 18  1  0  0  0  0
 16  5  1  0  0  0  0
 17  6  1  0  0  0  0
 17 16  2  0  0  0  0
 18 10  1  0  0  0  0
 19 20  1  0  0  0  0
 20 15  2  0  0  0  0
 21  8  1  0  0  0  0
 22 31  2  0  0  0  0
 22 26  1  0  0  0  0
 23 30  1  0  0  0  0
 24 25  2  0  0  0  0
 25 27  1  0  0  0  0
 26 28  2  0  0  0  0
 27 21  1  0  0  0  0
 28 23  1  0  0  0  0
 29 24  1  0  0  0  0
 29 23  2  0  0  0  0
 30 27  2  0  0  0  0
 31 29  1  0  0  0  0
M  END
>  <MODEL>
7

>  <REMARK>
 VINA RESULT:     -10.5      3.901      6.547
  Name = 
  2 active torsions:
  status: ('A' for Active; 'I' for Inactive)
    1  A    between atoms: C_9  and  N_23
    2  A    between atoms: C_15  and  N_23
                            x       y       z     vdW  Elec       q    Type
                         _______ _______ _______ _____ _____    ______ ____

>  <TORSDO>
F 2

$$$$
=
 OpenBabel10262419283D

 31 36  0  0  0  0  0  0  0  0999 V2000
  190.5590  176.9700  142.8990 C   0  0  0  0  0  0  0  0  0  0  0  0
  186.9680  178.0470  142.9420 C   0  0  0  0  0  0  0  0  0  0  0  0
  186.5400  177.9460  144.3800 C   0  0  0  0  0  0  0  0  0  0  0  0
  187.7940  177.4940  146.4670 C   0  0  0  0  0  3  0  0  0  0  0  0
  188.2720  177.7080  142.4900 C   0  0  0  0  0  0  0  0  0  0  0  0
  190.8450  177.0670  141.5360 C   0  0  0  0  0  3  0  0  0  0  0  0
  187.1450  176.8970  145.2650 C   0  0  0  0  0  2  0  0  0  0  0  0
  186.3460  178.6280  140.6360 C   0  0  0  0  0  0  0  0  0  0  0  0
  191.5650  176.5430  143.8090 N   0  0  0  0  0  1  0  0  0  0  0  0
  184.7280  179.5480  143.8540 C   0  0  0  0  0  2  0  0  0  0  0  0
  187.1070  178.1520  147.3970 C   0  0  0  0  0  3  0  0  0  0  0  0
  187.6250  178.2670  140.2080 C   0  0  0  0  0  3  0  0  0  0  0  0
  186.0270  178.5370  142.0030 C   0  0  0  0  0  0  0  0  0  0  0  0
  189.2830  177.2920  143.3700 C   0  0  0  0  0  3  0  0  0  0  0  0
  185.6640  178.4410  147.3190 C   0  0  0  0  0  3  0  0  0  0  0  0
  188.5820  177.8180  141.1120 C   0  0  0  0  0  0  0  0  0  0  0  0
  189.8600  177.4920  140.6450 C   0  0  0  0  0  3  0  0  0  0  0  0
  184.6510  178.9110  142.4720 C   0  0  0  0  0  2  0  0  0  0  0  0
  185.4670  178.6550  144.8090 C   0  0  0  0  0  0  0  0  0  0  0  0
  184.9590  178.6480  146.2000 C   0  0  0  0  0  3  0  0  0  0  0  0
  185.3520  179.1030  139.7100 N   0  0  0  0  0  2  0  0  0  0  0  0
  183.2980  175.6450  134.6760 C   0  0  0  0  0  3  0  0  0  0  0  0
  184.6540  177.0910  136.6530 C   0  0  0  0  0  0  0  0  0  0  0  0
  182.5480  177.4670  137.8070 C   0  0  0  0  0  3  0  0  0  0  0  0
  183.2290  178.1890  138.7930 C   0  0  0  0  0  3  0  0  0  0  0  0
  184.6840  175.8190  134.5940 C   0  0  0  0  0  3  0  0  0  0  0  0
  184.6200  178.3660  138.7190 C   0  0  0  0  0  0  0  0  0  0  0  0
  185.3620  176.5410  135.5810 C   0  0  0  0  0  3  0  0  0  0  0  0
  183.2540  176.9170  136.7360 C   0  0  0  0  0  0  0  0  0  0  0  0
  185.3250  177.8140  137.6430 C   0  0  0  0  0  3  0  0  0  0  0  0
  182.5830  176.1940  135.7460 C   0  0  0  0  0  3  0  0  0  0  0  0
  1 14  1  0  0  0  0
  1  9  1  0  0  0  0
  2  3  1  0  0  0  0
  3 19  2  0  0  0  0
  3  7  1  0  0  0  0
  4 11  2  0  0  0  0
  5  2  1  0  0  0  0
  5 14  2  0  0  0  0
  6  1  2  0  0  0  0
  7  4  1  0  0  0  0
  8 13  1  0  0  0  0
 10 19  1  0  0  0  0
 12  8  2  0  0  0  0
 12 16  1  0  0  0  0
 13 18  1  0  0  0  0
 13  2  2  0  0  0  0
 15 11  1  0  0  0  0
 16  5  1  0  0  0  0
 17 16  2  0  0  0  0
 17  6  1  0  0  0  0
 18 10  1  0  0  0  0
 19 20  1  0  0  0  0
 20 15  2  0  0  0  0
 21  8  1  0  0  0  0
 22 31  1  0  0  0  0
 23 29  1  0  0  0  0
 23 30  1  0  0  0  0
 24 25  2  0  0  0  0
 26 22  2  0  0  0  0
 26 28  1  0  0  0  0
 27 25  1  0  0  0  0
 27 21  1  0  0  0  0
 28 23  2  0  0  0  0
 29 24  1  0  0  0  0
 30 27  2  0  0  0  0
 31 29  2  0  0  0  0
M  END
>  <MODEL>
8

>  <REMARK>
 VINA RESULT:     -10.5      2.961      4.484
  Name = 
  2 active torsions:
  status: ('A' for Active; 'I' for Inactive)
    1  A    between atoms: C_9  and  N_23
    2  A    between atoms: C_15  and  N_23
                            x       y       z     vdW  Elec       q    Type
                         _______ _______ _______ _____ _____    ______ ____

>  <TORSDO>
F 2

$$$$
=
 OpenBabel10262419283D

 31 36  0  0  0  0  0  0  0  0999 V2000
  190.5830  177.4860  140.5930 C   0  0  0  0  0  0  0  0  0  0  0  0
  188.4230  177.4000  143.6560 C   0  0  0  0  0  0  0  0  0  0  0  0
  189.3120  176.8870  144.7540 C   0  0  0  0  0  0  0  0  0  0  0  0
  191.7430  176.4230  144.8550 C   0  0  0  0  0  3  0  0  0  0  0  0
  188.8590  177.5690  142.3130 C   0  0  0  0  0  0  0  0  0  0  0  0
  189.6690  177.9380  139.6400 C   0  0  0  0  0  3  0  0  0  0  0  0
  190.4070  175.9120  144.4330 C   0  0  0  0  0  2  0  0  0  0  0  0
  186.1980  178.2200  143.0100 C   0  0  0  0  0  0  0  0  0  0  0  0
  191.9260  177.2080  140.2150 N   0  0  0  0  0  1  0  0  0  0  0  0
  187.7620  177.9410  146.3710 C   0  0  0  0  0  2  0  0  0  0  0  0
  192.0530  176.6410  146.1310 C   0  0  0  0  0  3  0  0  0  0  0  0
  186.6380  178.3550  141.6920 C   0  0  0  0  0  3  0  0  0  0  0  0
  187.0960  177.7630  143.9910 C   0  0  0  0  0  0  0  0  0  0  0  0
  190.1810  177.3070  141.9180 C   0  0  0  0  0  3  0  0  0  0  0  0
  191.1130  176.4910  147.2550 C   0  0  0  0  0  3  0  0  0  0  0  0
  187.9460  178.0430  141.3390 C   0  0  0  0  0  0  0  0  0  0  0  0
  188.3540  178.2180  140.0130 C   0  0  0  0  0  3  0  0  0  0  0  0
  186.6290  177.6030  145.4100 C   0  0  0  0  0  2  0  0  0  0  0  0
  188.9890  177.1370  146.0470 C   0  0  0  0  0  0  0  0  0  0  0  0
  189.7910  176.6980  147.2120 C   0  0  0  0  0  3  0  0  0  0  0  0
  184.8490  178.5500  143.3880 N   0  0  0  0  0  2  0  0  0  0  0  0
  178.9310  179.0440  140.8880 C   0  0  0  0  0  3  0  0  0  0  0  0
  181.2920  179.0380  142.3920 C   0  0  0  0  0  0  0  0  0  0  0  0
  182.4730  178.0460  140.5140 C   0  0  0  0  0  3  0  0  0  0  0  0
  183.6500  178.0440  141.2680 C   0  0  0  0  0  3  0  0  0  0  0  0
  178.9310  179.5360  142.1980 C   0  0  0  0  0  3  0  0  0  0  0  0
  183.6600  178.5380  142.5830 C   0  0  0  0  0  0  0  0  0  0  0  0
  180.1100  179.5330  142.9500 C   0  0  0  0  0  3  0  0  0  0  0  0
  181.2920  178.5400  141.0700 C   0  0  0  0  0  0  0  0  0  0  0  0
  182.4740  179.0320  143.1380 C   0  0  0  0  0  3  0  0  0  0  0  0
  180.1100  178.5460  140.3240 C   0  0  0  0  0  3  0  0  0  0  0  0
  1 14  1  0  0  0  0
  2 13  2  0  0  0  0
  2  3  1  0  0  0  0
  3 19  2  0  0  0  0
  4 11  2  0  0  0  0
  5  2  1  0  0  0  0
  6 17  1  0  0  0  0
  6  1  2  0  0  0  0
  7  3  1  0  0  0  0
  7  4  1  0  0  0  0
  8 21  1  0  0  0  0
  8 13  1  0  0  0  0
  9  1  1  0  0  0  0
 11 15  1  0  0  0  0
 12  8  2  0  0  0  0
 13 18  1  0  0  0  0
 14  5  2  0  0  0  0
 16 12  1  0  0  0  0
 16  5  1  0  0  0  0
 17 16  2  0  0  0  0
 18 10  1  0  0  0  0
 19 10  1  0  0  0  0
 19 20  1  0  0  0  0
 20 15  2  0  0  0  0
 22 26  1  0  0  0  0
 23 28  1  0  0  0  0
 23 30  1  0  0  0  0
 24 29  1  0  0  0  0
 24 25  2  0  0  0  0
 25 27  1  0  0  0  0
 26 28  2  0  0  0  0
 27 30  2  0  0  0  0
 27 21  1  0  0  0  0
 29 23  2  0  0  0  0
 31 22  2  0  0  0  0
 31 29  1  0  0  0  0
M  END
>  <MODEL>
9

>  <REMARK>
 VINA RESULT:     -10.4      2.922      7.616
  Name = 
  2 active torsions:
  status: ('A' for Active; 'I' for Inactive)
    1  A    between atoms: C_9  and  N_23
    2  A    between atoms: C_15  and  N_23
                            x       y       z     vdW  Elec       q    Type
                         _______ _______ _______ _____ _____    ______ ____

>  <TORSDO>
F 2

$$$$
