=
 OpenBabel10262419473D

 25 28  0  0  1  0  0  0  0  0999 V2000
  187.0320  177.1370  144.1560 C   0  0  1  0  0  3  0  0  0  0  0  0
  188.0790  177.8870  143.3310 C   0  0  2  0  0  3  0  0  0  0  0  0
  189.8650  177.3490  146.6050 C   0  0  0  0  0  1  0  0  0  0  0  0
  188.9600  177.4440  145.4250 C   0  0  0  0  0  0  0  0  0  0  0  0
  190.5930  178.4090  143.6730 C   0  0  1  0  0  3  0  0  0  0  0  0
  191.7890  178.2070  144.5870 C   0  0  0  0  0  1  0  0  0  0  0  0
  188.4270  177.1390  142.0490 C   0  0  0  0  0  2  0  0  0  0  0  0
  187.6190  176.9890  145.4810 N   0  0  0  0  0  2  0  0  0  0  0  0
  190.8700  177.7170  142.3350 C   0  0  0  0  0  2  0  0  0  0  0  0
  189.6540  177.7830  141.3910 C   0  0  1  0  0  3  0  0  0  0  0  0
  189.2730  177.9170  144.2230 C   0  0  0  0  0  0  0  0  0  0  0  0
  185.7450  177.9010  144.2220 C   0  0  0  0  0  0  0  0  0  0  0  0
  183.3520  179.3600  144.3260 C   0  0  0  0  0  3  0  0  0  0  0  0
  185.0310  178.1730  143.0440 C   0  0  0  0  0  0  0  0  0  0  0  0
  183.8370  178.8990  143.1000 C   0  0  0  0  0  3  0  0  0  0  0  0
  184.0590  179.0970  145.5020 C   0  0  0  0  0  3  0  0  0  0  0  0
  185.4890  177.7380  141.8450 F   0  0  0  0  0  0  0  0  0  0  0  0
  185.2530  178.3720  145.4510 C   0  0  0  0  0  3  0  0  0  0  0  0
  189.9090  177.1630  140.0070 C   0  0  1  0  0  0  0  0  0  0  0  0
  191.2770  177.1180  139.4460 C   0  0  0  0  0  2  0  0  0  0  0  0
  190.6900  175.9960  140.0720 O   0  0  0  0  0  0  0  0  0  0  0  0
  188.7610  177.0130  139.0190 C   0  0  0  0  0  2  0  0  0  0  0  0
  186.9380  178.5450  139.0790 O   0  0  0  0  0  1  0  0  0  0  0  0
  188.8690  179.3410  138.1350 O   0  0  0  0  0  0  0  0  0  0  0  0
  188.1300  178.3320  138.7380 C   0  0  0  0  0  0  0  0  0  0  0  0
  1 12  1  1  0  0  0
  1  8  1  0  0  0  0
  2  7  1  6  0  0  0
  2  1  1  0  0  0  0
  2 11  1  0  0  0  0
  4  8  1  0  0  0  0
  4  3  1  0  0  0  0
  5 11  1  0  0  0  0
  5  6  1  1  0  0  0
  9  5  1  0  0  0  0
 10  7  1  1  0  0  0
 10  9  1  0  0  0  0
 11  4  2  0  0  0  0
 12 18  1  0  0  0  0
 13 16  1  0  0  0  0
 14 15  1  0  0  0  0
 14 12  2  0  0  0  0
 15 13  2  0  0  0  0
 17 14  1  0  0  0  0
 18 16  2  0  0  0  0
 19 22  1  6  0  0  0
 19 21  1  0  0  0  0
 19 10  1  0  0  0  0
 20 19  1  0  0  0  0
 20 21  1  0  0  0  0
 24 25  2  0  0  0  0
 25 22  1  0  0  0  0
 25 23  1  0  0  0  0
M  END
>  <MODEL>
1

>  <REMARK>
 VINA RESULT:      -8.9      0.000      0.000
  Name = 
  4 active torsions:
  status: ('A' for Active; 'I' for Inactive)
    1  A    between atoms: C_1  and  C_5
    2  A    between atoms: C_2  and  C_6
    3  A    between atoms: C_2  and  C_21
    4  A    between atoms: C_6  and  C_23
                            x       y       z     vdW  Elec       q    Type
                         _______ _______ _______ _____ _____    ______ ____

>  <TORSDO>
F 4

$$$$
=
 OpenBabel10262419473D

 25 28  0  0  1  0  0  0  0  0999 V2000
  188.0820  176.7050  144.4310 C   0  0  1  0  0  3  0  0  0  0  0  0
  187.5130  177.8600  143.6050 C   0  0  2  0  0  3  0  0  0  0  0  0
  190.3700  176.6640  141.4590 C   0  0  0  0  0  1  0  0  0  0  0  0
  189.3170  176.9540  142.4720 C   0  0  0  0  0  0  0  0  0  0  0  0
  187.9230  178.7120  141.1930 C   0  0  1  0  0  3  0  0  0  0  0  0
  188.6810  178.4620  139.9010 C   0  0  0  0  0  1  0  0  0  0  0  0
  186.0470  177.6340  143.2570 C   0  0  0  0  0  2  0  0  0  0  0  0
  189.2650  176.2600  143.7060 N   0  0  0  0  0  2  0  0  0  0  0  0
  186.4240  178.5420  140.9290 C   0  0  0  0  0  2  0  0  0  0  0  0
  185.5940  178.6720  142.2220 C   0  0  1  0  0  3  0  0  0  0  0  0
  188.3260  177.8320  142.3550 C   0  0  0  0  0  0  0  0  0  0  0  0
  188.4370  177.1520  145.8160 C   0  0  0  0  0  0  0  0  0  0  0  0
  189.0880  178.0230  148.4010 C   0  0  0  0  0  3  0  0  0  0  0  0
  187.4220  177.5110  146.7170 C   0  0  0  0  0  0  0  0  0  0  0  0
  187.7500  177.9440  148.0060 C   0  0  0  0  0  3  0  0  0  0  0  0
  190.1040  177.6710  147.5080 C   0  0  0  0  0  3  0  0  0  0  0  0
  186.1190  177.4460  146.3490 F   0  0  0  0  0  0  0  0  0  0  0  0
  189.7790  177.2380  146.2190 C   0  0  0  0  0  3  0  0  0  0  0  0
  184.0760  178.5790  141.9950 C   0  0  1  0  0  0  0  0  0  0  0  0
  183.4780  179.0470  140.7260 C   0  0  0  0  0  2  0  0  0  0  0  0
  183.7350  177.6800  140.9710 O   0  0  0  0  0  0  0  0  0  0  0  0
  183.1380  178.4520  143.1860 C   0  0  0  0  0  2  0  0  0  0  0  0
  183.7230  180.6200  143.9810 O   0  0  0  0  0  0  0  0  0  0  0  0
  183.6020  178.9810  145.5780 O   0  0  0  0  0  1  0  0  0  0  0  0
  183.5160  179.4110  144.2610 C   0  0  0  0  0  0  0  0  0  0  0  0
  1 12  1  1  0  0  0
  2  7  1  6  0  0  0
  2  1  1  0  0  0  0
  3  4  1  0  0  0  0
  4  8  1  0  0  0  0
  5  6  1  6  0  0  0
  5 11  1  0  0  0  0
  8  1  1  0  0  0  0
  9  5  1  0  0  0  0
 10  9  1  6  0  0  0
 10  7  1  0  0  0  0
 11  4  2  0  0  0  0
 11  2  1  0  0  0  0
 12 18  2  0  0  0  0
 12 14  1  0  0  0  0
 14 15  2  0  0  0  0
 15 13  1  0  0  0  0
 16 13  2  0  0  0  0
 17 14  1  0  0  0  0
 18 16  1  0  0  0  0
 19 10  1  0  0  0  0
 19 22  1  1  0  0  0
 20 21  1  0  0  0  0
 20 19  1  0  0  0  0
 21 19  1  0  0  0  0
 22 25  1  0  0  0  0
 23 25  2  0  0  0  0
 25 24  1  0  0  0  0
M  END
>  <MODEL>
2

>  <REMARK>
 VINA RESULT:      -8.4      2.666      5.415
  Name = 
  4 active torsions:
  status: ('A' for Active; 'I' for Inactive)
    1  A    between atoms: C_1  and  C_5
    2  A    between atoms: C_2  and  C_6
    3  A    between atoms: C_2  and  C_21
    4  A    between atoms: C_6  and  C_23
                            x       y       z     vdW  Elec       q    Type
                         _______ _______ _______ _____ _____    ______ ____

>  <TORSDO>
F 4

$$$$
=
 OpenBabel10262419473D

 25 28  0  0  1  0  0  0  0  0999 V2000
  187.0950  177.0880  144.1710 C   0  0  1  0  0  3  0  0  0  0  0  0
  188.0530  177.9060  143.3020 C   0  0  2  0  0  3  0  0  0  0  0  0
  190.1290  177.2290  146.3730 C   0  0  0  0  0  1  0  0  0  0  0  0
  189.1220  177.3690  145.2840 C   0  0  0  0  0  0  0  0  0  0  0  0
  190.5780  178.4640  143.4530 C   0  0  1  0  0  3  0  0  0  0  0  0
  191.8530  178.2380  144.2470 C   0  0  0  0  0  1  0  0  0  0  0  0
  188.2990  177.2370  141.9550 C   0  0  0  0  0  2  0  0  0  0  0  0
  187.8000  176.8810  145.4300 N   0  0  0  0  0  2  0  0  0  0  0  0
  190.7480  177.8520  142.0600 C   0  0  0  0  0  2  0  0  0  0  0  0
  189.4520  177.9430  141.2300 C   0  0  1  0  0  3  0  0  0  0  0  0
  189.3200  177.9130  144.0870 C   0  0  0  0  0  0  0  0  0  0  0  0
  185.8060  177.8190  144.3920 C   0  0  0  0  0  0  0  0  0  0  0  0
  183.4060  179.2160  144.7850 C   0  0  0  0  0  3  0  0  0  0  0  0
  184.9630  178.0950  143.3040 C   0  0  0  0  0  0  0  0  0  0  0  0
  183.7660  178.7910  143.5030 C   0  0  0  0  0  3  0  0  0  0  0  0
  184.2430  178.9490  145.8720 C   0  0  0  0  0  3  0  0  0  0  0  0
  185.2990  177.6950  142.0530 F   0  0  0  0  0  0  0  0  0  0  0  0
  185.4400  178.2540  145.6760 C   0  0  0  0  0  3  0  0  0  0  0  0
  189.5950  177.4050  139.7960 C   0  0  1  0  0  0  0  0  0  0  0  0
  188.5500  177.6790  138.7850 C   0  0  0  0  0  2  0  0  0  0  0  0
  189.7450  178.4300  138.8460 O   0  0  0  0  0  0  0  0  0  0  0  0
  190.5300  176.2390  139.5130 C   0  0  0  0  0  2  0  0  0  0  0  0
  192.7360  177.1340  139.4160 O   0  0  0  0  0  1  0  0  0  0  0  0
  191.7890  176.6150  137.3940 O   0  0  0  0  0  0  0  0  0  0  0  0
  191.7410  176.6990  138.7790 C   0  0  0  0  0  0  0  0  0  0  0  0
  1 12  1  1  0  0  0
  1  8  1  0  0  0  0
  2  7  1  6  0  0  0
  2 11  1  0  0  0  0
  2  1  1  0  0  0  0
  4  8  1  0  0  0  0
  4  3  1  0  0  0  0
  5 11  1  0  0  0  0
  5  6  1  1  0  0  0
  9  5  1  0  0  0  0
 10  7  1  1  0  0  0
 10  9  1  0  0  0  0
 11  4  2  0  0  0  0
 12 18  1  0  0  0  0
 13 16  1  0  0  0  0
 14 15  1  0  0  0  0
 14 12  2  0  0  0  0
 15 13  2  0  0  0  0
 17 14  1  0  0  0  0
 18 16  2  0  0  0  0
 19 22  1  6  0  0  0
 19 10  1  0  0  0  0
 20 21  1  0  0  0  0
 20 19  1  0  0  0  0
 21 19  1  0  0  0  0
 24 25  2  0  0  0  0
 25 23  1  0  0  0  0
 25 22  1  0  0  0  0
M  END
>  <MODEL>
3

>  <REMARK>
 VINA RESULT:      -8.4      0.923      1.900
  Name = 
  4 active torsions:
  status: ('A' for Active; 'I' for Inactive)
    1  A    between atoms: C_1  and  C_5
    2  A    between atoms: C_2  and  C_6
    3  A    between atoms: C_2  and  C_21
    4  A    between atoms: C_6  and  C_23
                            x       y       z     vdW  Elec       q    Type
                         _______ _______ _______ _____ _____    ______ ____

>  <TORSDO>
F 4

$$$$
=
 OpenBabel10262419473D

 25 28  0  0  1  0  0  0  0  0999 V2000
  189.4470  178.3660  142.3860 C   0  0  1  0  0  3  0  0  0  0  0  0
  188.4480  177.6650  143.3090 C   0  0  2  0  0  3  0  0  0  0  0  0
  191.6550  177.4510  145.2770 C   0  0  0  0  0  1  0  0  0  0  0  0
  190.5310  177.6510  144.3190 C   0  0  0  0  0  0  0  0  0  0  0  0
  188.5490  176.8400  145.7620 C   0  0  1  0  0  3  0  0  0  0  0  0
  189.4120  176.7600  147.0100 C   0  0  0  0  0  1  0  0  0  0  0  0
  187.2900  178.5820  143.6830 C   0  0  0  0  0  2  0  0  0  0  0  0
  190.7410  178.2240  143.0400 N   0  0  0  0  0  0  0  0  0  0  0  0
  187.3310  177.7190  146.0580 C   0  0  0  0  0  2  0  0  0  0  0  0
  186.4630  177.9400  144.8040 C   0  0  1  0  0  3  0  0  0  0  0  0
  189.2510  177.3620  144.5280 C   0  0  1  0  0  3  0  0  0  0  0  0
  189.4620  177.7360  141.0260 C   0  0  0  0  0  0  0  0  0  0  0  0
  189.4600  176.5380  138.4910 C   0  0  0  0  0  3  0  0  0  0  0  0
  188.3920  177.9520  140.1440 C   0  0  0  0  0  0  0  0  0  0  0  0
  188.3950  177.3530  138.8790 C   0  0  0  0  0  3  0  0  0  0  0  0
  190.5270  176.3150  139.3660 C   0  0  0  0  0  3  0  0  0  0  0  0
  187.3470  178.7360  140.5050 F   0  0  0  0  0  0  0  0  0  0  0  0
  190.5270  176.9110  140.6300 C   0  0  0  0  0  3  0  0  0  0  0  0
  185.1880  178.7590  145.0680 C   0  0  1  0  0  0  0  0  0  0  0  0
  184.2960  178.4130  146.1960 C   0  0  0  0  0  2  0  0  0  0  0  0
  185.2390  179.4620  146.2840 O   0  0  0  0  0  0  0  0  0  0  0  0
  184.5870  179.6070  143.9570 C   0  0  0  0  0  2  0  0  0  0  0  0
  182.4550  178.8170  143.2440 O   0  0  0  0  0  1  0  0  0  0  0  0
  184.2510  178.0100  142.0710 O   0  0  0  0  0  0  0  0  0  0  0  0
  183.7030  178.7840  143.0850 C   0  0  0  0  0  0  0  0  0  0  0  0
  1 12  1  6  0  0  0
  1  8  1  0  0  0  0
  1  2  1  0  0  0  0
  2  7  1  1  0  0  0
  2 11  1  0  0  0  0
  4  3  1  0  0  0  0
  5  9  1  0  0  0  0
  5  6  1  1  0  0  0
  8  4  2  0  0  0  0
 10  7  1  6  0  0  0
 10 19  1  0  0  0  0
 10  9  1  0  0  0  0
 11  4  1  1  0  0  0
 11  5  1  0  0  0  0
 13 15  2  0  0  0  0
 13 16  1  0  0  0  0
 14 17  1  0  0  0  0
 14 12  2  0  0  0  0
 15 14  1  0  0  0  0
 16 18  2  0  0  0  0
 18 12  1  0  0  0  0
 19 22  1  6  0  0  0
 19 20  1  0  0  0  0
 19 21  1  0  0  0  0
 20 21  1  0  0  0  0
 24 25  2  0  0  0  0
 25 23  1  0  0  0  0
 25 22  1  0  0  0  0
M  END
>  <MODEL>
4

>  <REMARK>
 VINA RESULT:      -8.2      2.469      5.716
  Name = 
  4 active torsions:
  status: ('A' for Active; 'I' for Inactive)
    1  A    between atoms: C_1  and  C_5
    2  A    between atoms: C_2  and  C_6
    3  A    between atoms: C_2  and  C_21
    4  A    between atoms: C_6  and  C_23
                            x       y       z     vdW  Elec       q    Type
                         _______ _______ _______ _____ _____    ______ ____

>  <TORSDO>
F 4

$$$$
=
 OpenBabel10262419473D

 25 28  0  0  1  0  0  0  0  0999 V2000
  188.0930  176.7550  144.4530 C   0  0  1  0  0  3  0  0  0  0  0  0
  187.5730  177.8860  143.5630 C   0  0  2  0  0  3  0  0  0  0  0  0
  190.5650  176.6530  141.6330 C   0  0  0  0  0  1  0  0  0  0  0  0
  189.4490  176.9620  142.5700 C   0  0  0  0  0  0  0  0  0  0  0  0
  188.1300  178.6790  141.1610 C   0  0  1  0  0  3  0  0  0  0  0  0
  188.9690  178.4000  139.9260 C   0  0  0  0  0  1  0  0  0  0  0  0
  186.1320  177.6430  143.1300 C   0  0  0  0  0  2  0  0  0  0  0  0
  189.3220  176.2990  143.8160 N   0  0  0  0  0  2  0  0  0  0  0  0
  186.6520  178.4940  140.8080 C   0  0  0  0  0  2  0  0  0  0  0  0
  185.7420  178.6510  142.0420 C   0  0  1  0  0  3  0  0  0  0  0  0
  188.4630  177.8310  142.3690 C   0  0  0  0  0  0  0  0  0  0  0  0
  188.3590  177.2390  145.8460 C   0  0  0  0  0  0  0  0  0  0  0  0
  188.8420  178.1780  148.4430 C   0  0  0  0  0  3  0  0  0  0  0  0
  187.2880  177.6180  146.6700 C   0  0  0  0  0  0  0  0  0  0  0  0
  187.5320  178.0850  147.9660 C   0  0  0  0  0  3  0  0  0  0  0  0
  189.9130  177.8070  147.6270 C   0  0  0  0  0  3  0  0  0  0  0  0
  186.0110  177.5390  146.2220 F   0  0  0  0  0  0  0  0  0  0  0  0
  189.6730  177.3400  146.3310 C   0  0  0  0  0  3  0  0  0  0  0  0
  184.2410  178.5440  141.7230 C   0  0  1  0  0  0  0  0  0  0  0  0
  183.2580  178.3320  142.8080 C   0  0  0  0  0  2  0  0  0  0  0  0
  183.4970  179.6110  142.2570 O   0  0  0  0  0  0  0  0  0  0  0  0
  183.7880  178.1970  140.3130 C   0  0  0  0  0  2  0  0  0  0  0  0
  184.2980  180.1920  139.1160 O   0  0  0  0  0  0  0  0  0  0  0  0
  182.0680  179.7080  139.3260 O   0  0  0  0  0  1  0  0  0  0  0  0
  183.4060  179.4260  139.5640 C   0  0  0  0  0  0  0  0  0  0  0  0
  1 12  1  1  0  0  0
  2  7  1  6  0  0  0
  2  1  1  0  0  0  0
  3  4  1  0  0  0  0
  4  8  1  0  0  0  0
  5  6  1  6  0  0  0
  5 11  1  0  0  0  0
  8  1  1  0  0  0  0
  9  5  1  0  0  0  0
 10  9  1  6  0  0  0
 10  7  1  0  0  0  0
 11  4  2  0  0  0  0
 11  2  1  0  0  0  0
 12 18  2  0  0  0  0
 12 14  1  0  0  0  0
 14 15  2  0  0  0  0
 15 13  1  0  0  0  0
 16 13  2  0  0  0  0
 17 14  1  0  0  0  0
 18 16  1  0  0  0  0
 19 22  1  6  0  0  0
 19 10  1  0  0  0  0
 19 21  1  0  0  0  0
 19 20  1  0  0  0  0
 21 20  1  0  0  0  0
 23 25  2  0  0  0  0
 24 25  1  0  0  0  0
 25 22  1  0  0  0  0
M  END
>  <MODEL>
5

>  <REMARK>
 VINA RESULT:      -8.1      2.639      4.987
  Name = 
  4 active torsions:
  status: ('A' for Active; 'I' for Inactive)
    1  A    between atoms: C_1  and  C_5
    2  A    between atoms: C_2  and  C_6
    3  A    between atoms: C_2  and  C_21
    4  A    between atoms: C_6  and  C_23
                            x       y       z     vdW  Elec       q    Type
                         _______ _______ _______ _____ _____    ______ ____

>  <TORSDO>
F 4

$$$$
=
 OpenBabel10262419473D

 25 28  0  0  1  0  0  0  0  0999 V2000
  186.0410  179.1340  142.9070 C   0  0  1  0  0  3  0  0  0  0  0  0
  186.7840  177.9140  143.4550 C   0  0  2  0  0  3  0  0  0  0  0  0
  188.1990  178.2260  139.9760 C   0  0  0  0  0  1  0  0  0  0  0  0
  187.4930  178.3050  141.2860 C   0  0  0  0  0  0  0  0  0  0  0  0
  188.7970  176.5150  142.6170 C   0  0  1  0  0  3  0  0  0  0  0  0
  189.8420  176.3780  141.5240 C   0  0  0  0  0  1  0  0  0  0  0  0
  187.5680  178.2540  144.7170 C   0  0  0  0  0  2  0  0  0  0  0  0
  186.4630  179.2490  141.5170 N   0  0  0  0  0  0  0  0  0  0  0  0
  189.5020  176.8230  143.9400 C   0  0  0  0  0  2  0  0  0  0  0  0
  188.4970  177.0880  145.0790 C   0  0  1  0  0  3  0  0  0  0  0  0
  187.7360  177.5630  142.3630 C   0  0  1  0  0  3  0  0  0  0  0  0
  184.5560  178.9520  143.0030 C   0  0  0  0  0  0  0  0  0  0  0  0
  181.7840  178.5820  143.2060 C   0  0  0  0  0  3  0  0  0  0  0  0
  183.9160  179.0790  144.2460 C   0  0  0  0  0  0  0  0  0  0  0  0
  182.5330  178.8950  144.3430 C   0  0  0  0  0  3  0  0  0  0  0  0
  182.4160  178.4490  141.9660 C   0  0  0  0  0  3  0  0  0  0  0  0
  184.6270  179.3780  145.3610 F   0  0  0  0  0  0  0  0  0  0  0  0
  183.7980  178.6320  141.8660 C   0  0  0  0  0  3  0  0  0  0  0  0
  189.1580  177.3320  146.4460 C   0  0  1  0  0  0  0  0  0  0  0  0
  188.3300  177.4980  147.6600 C   0  0  0  0  0  2  0  0  0  0  0  0
  188.9530  176.2700  147.3430 O   0  0  0  0  0  0  0  0  0  0  0  0
  190.5850  177.8550  146.5160 C   0  0  0  0  0  2  0  0  0  0  0  0
  191.8790  175.9450  145.9230 O   0  0  0  0  0  0  0  0  0  0  0  0
  192.0780  176.6380  148.0990 O   0  0  0  0  0  1  0  0  0  0  0  0
  191.5370  176.7530  146.8250 C   0  0  0  0  0  0  0  0  0  0  0  0
  1 12  1  6  0  0  0
  1  2  1  0  0  0  0
  2  7  1  1  0  0  0
  3  4  1  0  0  0  0
  4  8  2  0  0  0  0
  5  6  1  6  0  0  0
  5  9  1  0  0  0  0
  7 10  1  0  0  0  0
  8  1  1  0  0  0  0
 10  9  1  6  0  0  0
 10 19  1  0  0  0  0
 11  4  1  1  0  0  0
 11  5  1  0  0  0  0
 11  2  1  0  0  0  0
 12 14  1  0  0  0  0
 13 15  1  0  0  0  0
 14 15  2  0  0  0  0
 14 17  1  0  0  0  0
 16 13  2  0  0  0  0
 18 16  1  0  0  0  0
 18 12  2  0  0  0  0
 19 22  1  1  0  0  0
 19 21  1  0  0  0  0
 19 20  1  0  0  0  0
 21 20  1  0  0  0  0
 22 25  1  0  0  0  0
 23 25  2  0  0  0  0
 25 24  1  0  0  0  0
M  END
>  <MODEL>
6

>  <REMARK>
 VINA RESULT:      -8.0      3.318      5.398
  Name = 
  4 active torsions:
  status: ('A' for Active; 'I' for Inactive)
    1  A    between atoms: C_1  and  C_5
    2  A    between atoms: C_2  and  C_6
    3  A    between atoms: C_2  and  C_21
    4  A    between atoms: C_6  and  C_23
                            x       y       z     vdW  Elec       q    Type
                         _______ _______ _______ _____ _____    ______ ____

>  <TORSDO>
F 4

$$$$
=
 OpenBabel10262419473D

 25 28  0  0  1  0  0  0  0  0999 V2000
  187.2740  176.9040  143.9780 C   0  0  1  0  0  3  0  0  0  0  0  0
  187.0800  177.9930  142.9220 C   0  0  2  0  0  3  0  0  0  0  0  0
  190.3200  176.3960  141.8500 C   0  0  0  0  0  1  0  0  0  0  0  0
  189.0470  176.8600  142.4690 C   0  0  0  0  0  0  0  0  0  0  0  0
  188.2560  178.5460  140.6810 C   0  0  1  0  0  3  0  0  0  0  0  0
  189.3340  178.1090  139.7040 C   0  0  0  0  0  1  0  0  0  0  0  0
  185.7660  177.8200  142.1700 C   0  0  0  0  0  2  0  0  0  0  0  0
  188.5720  176.3110  143.6860 N   0  0  0  0  0  2  0  0  0  0  0  0
  186.8920  178.4400  139.9930 C   0  0  0  0  0  2  0  0  0  0  0  0
  185.7340  178.7620  140.9590 C   0  0  1  0  0  3  0  0  0  0  0  0
  188.2180  177.7780  141.9820 C   0  0  0  0  0  0  0  0  0  0  0  0
  187.2460  177.4790  145.3620 C   0  0  0  0  0  0  0  0  0  0  0  0
  187.1880  178.5900  147.9360 C   0  0  0  0  0  3  0  0  0  0  0  0
  186.0690  178.0680  145.8510 C   0  0  0  0  0  0  0  0  0  0  0  0
  186.0430  178.6200  147.1350 C   0  0  0  0  0  3  0  0  0  0  0  0
  188.3650  178.0110  147.4540 C   0  0  0  0  0  3  0  0  0  0  0  0
  184.9500  178.1090  145.0870 F   0  0  0  0  0  0  0  0  0  0  0  0
  188.3940  177.4580  146.1700 C   0  0  0  0  0  3  0  0  0  0  0  0
  184.3470  178.7380  140.2950 C   0  0  1  0  0  0  0  0  0  0  0  0
  183.9460  179.8110  139.3590 C   0  0  0  0  0  2  0  0  0  0  0  0
  184.4170  178.5590  138.9030 O   0  0  0  0  0  0  0  0  0  0  0  0
  183.2270  177.9120  140.9090 C   0  0  0  0  0  2  0  0  0  0  0  0
  181.2480  179.1800  141.3030 O   0  0  0  0  0  0  0  0  0  0  0  0
  182.7180  179.0690  143.0580 O   0  0  0  0  0  1  0  0  0  0  0  0
  182.3460  178.7640  141.7560 C   0  0  0  0  0  0  0  0  0  0  0  0
  1 12  1  1  0  0  0
  2  7  1  6  0  0  0
  2  1  1  0  0  0  0
  3  4  1  0  0  0  0
  4  8  1  0  0  0  0
  5  6  1  6  0  0  0
  5 11  1  0  0  0  0
  8  1  1  0  0  0  0
  9  5  1  0  0  0  0
 10  9  1  6  0  0  0
 10  7  1  0  0  0  0
 11  4  2  0  0  0  0
 11  2  1  0  0  0  0
 12 14  2  0  0  0  0
 12 18  1  0  0  0  0
 14 15  1  0  0  0  0
 15 13  2  0  0  0  0
 16 13  1  0  0  0  0
 17 14  1  0  0  0  0
 18 16  2  0  0  0  0
 19 22  1  1  0  0  0
 19 10  1  0  0  0  0
 20 19  1  0  0  0  0
 21 20  1  0  0  0  0
 21 19  1  0  0  0  0
 22 25  1  0  0  0  0
 23 25  2  0  0  0  0
 25 24  1  0  0  0  0
M  END
>  <MODEL>
7

>  <REMARK>
 VINA RESULT:      -8.0      2.575      4.743
  Name = 
  4 active torsions:
  status: ('A' for Active; 'I' for Inactive)
    1  A    between atoms: C_1  and  C_5
    2  A    between atoms: C_2  and  C_6
    3  A    between atoms: C_2  and  C_21
    4  A    between atoms: C_6  and  C_23
                            x       y       z     vdW  Elec       q    Type
                         _______ _______ _______ _____ _____    ______ ____

>  <TORSDO>
F 4

$$$$
=
 OpenBabel10262419473D

 25 28  0  0  1  0  0  0  0  0999 V2000
  186.3300  179.1120  142.7010 C   0  0  1  0  0  3  0  0  0  0  0  0
  187.0290  177.8470  143.2040 C   0  0  2  0  0  3  0  0  0  0  0  0
  188.6130  178.3570  139.8230 C   0  0  0  0  0  1  0  0  0  0  0  0
  187.8470  178.3640  141.1010 C   0  0  0  0  0  0  0  0  0  0  0  0
  189.0590  176.4700  142.3720 C   0  0  1  0  0  3  0  0  0  0  0  0
  190.1540  176.3850  141.3230 C   0  0  0  0  0  1  0  0  0  0  0  0
  187.7560  178.0910  144.5200 C   0  0  0  0  0  2  0  0  0  0  0  0
  186.8200  179.3090  141.3440 N   0  0  0  0  0  0  0  0  0  0  0  0
  189.7030  176.6800  143.7450 C   0  0  0  0  0  2  0  0  0  0  0  0
  188.6490  176.8880  144.8490 C   0  0  1  0  0  3  0  0  0  0  0  0
  188.0270  177.5500  142.1370 C   0  0  1  0  0  3  0  0  0  0  0  0
  184.8400  178.9510  142.7160 C   0  0  0  0  0  0  0  0  0  0  0  0
  182.0560  178.6200  142.7660 C   0  0  0  0  0  3  0  0  0  0  0  0
  184.1290  179.1330  143.9120 C   0  0  0  0  0  0  0  0  0  0  0  0
  182.7400  178.9690  143.9330 C   0  0  0  0  0  3  0  0  0  0  0  0
  182.7590  178.4320  141.5720 C   0  0  0  0  0  3  0  0  0  0  0  0
  184.7760  179.4670  145.0550 F   0  0  0  0  0  0  0  0  0  0  0  0
  184.1470  178.5950  141.5480 C   0  0  0  0  0  3  0  0  0  0  0  0
  189.2470  177.0320  146.2590 C   0  0  1  0  0  0  0  0  0  0  0  0
  190.7130  177.0700  146.4500 C   0  0  0  0  0  2  0  0  0  0  0  0
  189.9310  178.2470  146.4350 O   0  0  0  0  0  0  0  0  0  0  0  0
  188.4080  176.6810  147.4790 C   0  0  0  0  0  2  0  0  0  0  0  0
  188.5910  178.3850  149.1330 O   0  0  0  0  0  1  0  0  0  0  0  0
  186.7950  178.5670  147.7210 O   0  0  0  0  0  0  0  0  0  0  0  0
  187.9360  177.9150  148.1670 C   0  0  0  0  0  0  0  0  0  0  0  0
  1 12  1  6  0  0  0
  1  2  1  0  0  0  0
  2  7  1  1  0  0  0
  3  4  1  0  0  0  0
  4  8  2  0  0  0  0
  5  6  1  6  0  0  0
  5  9  1  0  0  0  0
  7 10  1  0  0  0  0
  8  1  1  0  0  0  0
 10  9  1  6  0  0  0
 10 19  1  0  0  0  0
 11  4  1  1  0  0  0
 11  5  1  0  0  0  0
 11  2  1  0  0  0  0
 12 14  1  0  0  0  0
 13 15  1  0  0  0  0
 14 15  2  0  0  0  0
 14 17  1  0  0  0  0
 16 13  2  0  0  0  0
 18 16  1  0  0  0  0
 18 12  2  0  0  0  0
 19 21  1  0  0  0  0
 19 20  1  0  0  0  0
 19 22  1  1  0  0  0
 21 20  1  0  0  0  0
 22 25  1  0  0  0  0
 24 25  2  0  0  0  0
 25 23  1  0  0  0  0
M  END
>  <MODEL>
8

>  <REMARK>
 VINA RESULT:      -7.8      3.399      5.344
  Name = 
  4 active torsions:
  status: ('A' for Active; 'I' for Inactive)
    1  A    between atoms: C_1  and  C_5
    2  A    between atoms: C_2  and  C_6
    3  A    between atoms: C_2  and  C_21
    4  A    between atoms: C_6  and  C_23
                            x       y       z     vdW  Elec       q    Type
                         _______ _______ _______ _____ _____    ______ ____

>  <TORSDO>
F 4

$$$$
=
 OpenBabel10262419473D

 25 28  0  0  1  0  0  0  0  0999 V2000
  184.8290  179.1220  142.1990 C   0  0  1  0  0  3  0  0  0  0  0  0
  185.4620  178.0920  143.1380 C   0  0  2  0  0  3  0  0  0  0  0  0
  188.1010  178.4870  140.4780 C   0  0  0  0  0  1  0  0  0  0  0  0
  186.9220  178.4990  141.3890 C   0  0  0  0  0  0  0  0  0  0  0  0
  187.8270  177.0550  143.3290 C   0  0  1  0  0  3  0  0  0  0  0  0
  189.2340  177.0610  142.7570 C   0  0  0  0  0  1  0  0  0  0  0  0
  185.6050  178.6370  144.5540 C   0  0  0  0  0  2  0  0  0  0  0  0
  185.7560  179.2430  141.0820 N   0  0  0  0  0  0  0  0  0  0  0  0
  187.8790  177.5570  144.7750 C   0  0  0  0  0  2  0  0  0  0  0  0
  186.4710  177.6850  145.3900 C   0  0  1  0  0  3  0  0  0  0  0  0
  186.8160  177.8710  142.5560 C   0  0  1  0  0  3  0  0  0  0  0  0
  183.4800  178.6700  141.7300 C   0  0  0  0  0  0  0  0  0  0  0  0
  180.9520  177.8020  140.8810 C   0  0  0  0  0  3  0  0  0  0  0  0
  182.3450  178.9240  142.5160 C   0  0  0  0  0  0  0  0  0  0  0  0
  181.0850  178.4910  142.0890 C   0  0  0  0  0  3  0  0  0  0  0  0
  182.0780  177.5420  140.0950 C   0  0  0  0  0  3  0  0  0  0  0  0
  182.4560  179.5860  143.6940 F   0  0  0  0  0  0  0  0  0  0  0  0
  183.3380  177.9730  140.5190 C   0  0  0  0  0  3  0  0  0  0  0  0
  186.4750  178.1180  146.8650 C   0  0  1  0  0  0  0  0  0  0  0  0
  186.2670  179.5360  147.2310 C   0  0  0  0  0  2  0  0  0  0  0  0
  185.2220  178.5870  147.2950 O   0  0  0  0  0  0  0  0  0  0  0  0
  187.1300  177.2310  147.9140 C   0  0  0  0  0  2  0  0  0  0  0  0
  189.3630  176.5660  147.4160 O   0  0  0  0  0  0  0  0  0  0  0  0
  189.1460  178.5900  148.4690 O   0  0  0  0  0  1  0  0  0  0  0  0
  188.6060  177.4310  147.9270 C   0  0  0  0  0  0  0  0  0  0  0  0
  1 12  1  6  0  0  0
  1  2  1  0  0  0  0
  2  7  1  1  0  0  0
  3  4  1  0  0  0  0
  5  6  1  6  0  0  0
  5  9  1  0  0  0  0
  8  4  2  0  0  0  0
  8  1  1  0  0  0  0
  9 10  1  0  0  0  0
 10  7  1  6  0  0  0
 10 19  1  0  0  0  0
 11  4  1  1  0  0  0
 11  2  1  0  0  0  0
 11  5  1  0  0  0  0
 12 14  1  0  0  0  0
 13 15  1  0  0  0  0
 14 17  1  0  0  0  0
 15 14  2  0  0  0  0
 16 18  1  0  0  0  0
 16 13  2  0  0  0  0
 18 12  2  0  0  0  0
 19 20  1  0  0  0  0
 19 21  1  0  0  0  0
 19 22  1  1  0  0  0
 20 21  1  0  0  0  0
 22 25  1  0  0  0  0
 23 25  2  0  0  0  0
 25 24  1  0  0  0  0
M  END
>  <MODEL>
9

>  <REMARK>
 VINA RESULT:      -7.8      3.681      6.069
  Name = 
  4 active torsions:
  status: ('A' for Active; 'I' for Inactive)
    1  A    between atoms: C_1  and  C_5
    2  A    between atoms: C_2  and  C_6
    3  A    between atoms: C_2  and  C_21
    4  A    between atoms: C_6  and  C_23
                            x       y       z     vdW  Elec       q    Type
                         _______ _______ _______ _____ _____    ______ ____

>  <TORSDO>
F 4

$$$$
