=
 OpenBabel10262419483D

 25 28  0  0  1  0  0  0  0  0999 V2000
  188.3430  177.4420  145.3530 C   0  0  0  0  0  0  0  0  0  0  0  0
  187.0300  177.9630  145.7040 C   0  0  0  0  0  0  0  0  0  0  0  0
  187.6820  178.2150  148.0910 C   0  0  0  0  0  2  0  0  0  0  0  0
  185.9100  178.1920  144.9370 C   0  0  0  0  0  0  0  0  0  0  0  0
  183.3850  178.8760  144.0490 C   0  0  0  0  0  3  0  0  0  0  0  0
  188.9900  177.6720  147.6740 N   0  0  0  0  0  0  0  0  0  0  0  0
  184.9810  178.6840  145.8210 C   0  0  0  0  0  0  0  0  0  0  0  0
  183.6990  179.0400  145.4120 C   0  0  0  0  0  3  0  0  0  0  0  0
  190.6190  176.8020  146.1580 N   0  0  0  0  0  0  0  0  0  0  0  0
  191.6280  176.6470  147.1930 C   0  0  0  0  0  1  0  0  0  0  0  0
  188.6860  177.0790  144.1140 C   0  0  0  0  0  3  0  0  0  0  0  0
  184.3450  178.3690  143.1420 C   0  0  0  0  0  3  0  0  0  0  0  0
  186.7430  178.3110  146.9720 N   0  0  0  0  0  0  0  0  0  0  0  0
  185.4950  178.7570  147.0660 N   0  0  0  0  0  0  0  0  0  0  0  0
  190.9400  176.4230  144.8110 C   0  0  0  0  0  3  0  0  0  0  0  0
  185.6340  178.0160  143.5840 C   0  0  0  0  0  3  0  0  0  0  0  0
  190.0380  176.5530  143.8290 C   0  0  0  0  0  0  0  0  0  0  0  0
  189.3120  177.3200  146.4560 C   0  0  0  0  0  0  0  0  0  0  0  0
  190.3900  176.1370  142.4410 C   0  0  0  0  0  2  0  0  0  0  0  0
  190.4560  177.3390  141.5110 C   0  0  1  0  0  3  0  0  0  0  0  0
  191.8440  177.7130  141.2910 N   0  0  0  0  0  1  0  0  0  0  0  0
  189.8000  176.9800  140.1870 C   0  0  0  0  0  2  0  0  0  0  0  0
  188.2500  178.6970  141.1190 C   0  0  0  0  0  1  0  0  0  0  0  0
  189.0110  178.8240  138.8270 N   0  0  0  0  0  1  0  0  0  0  0  0
  188.6320  177.9040  139.8830 C   0  0  1  0  0  3  0  0  0  0  0  0
  1  2  1  0  0  0  0
  1 18  1  0  0  0  0
  2 13  1  0  0  0  0
  4  2  2  0  0  0  0
  4  7  1  0  0  0  0
  5  8  2  0  0  0  0
  6  3  1  0  0  0  0
  7 14  2  0  0  0  0
  8  7  1  0  0  0  0
  9 18  1  0  0  0  0
  9 10  1  0  0  0  0
 11  1  2  0  0  0  0
 12 16  2  0  0  0  0
 12  5  1  0  0  0  0
 13 14  1  0  0  0  0
 13  3  1  0  0  0  0
 15  9  1  0  0  0  0
 16  4  1  0  0  0  0
 17 11  1  0  0  0  0
 17 15  2  0  0  0  0
 18  6  2  0  0  0  0
 19 17  1  0  0  0  0
 20 21  1  6  0  0  0
 20 19  1  0  0  0  0
 22 20  1  0  0  0  0
 24 25  1  0  0  0  0
 25 22  1  0  0  0  0
 25 23  1  1  0  0  0
M  END
>  <MODEL>
1

>  <REMARK>
 VINA RESULT:     -10.1      0.000      0.000
  Name = 
  4 active torsions:
  status: ('A' for Active; 'I' for Inactive)
    1  A    between atoms: C_6  and  C_15
    2  A    between atoms: C_6  and  C_23
    3  A    between atoms: C_12  and  C_21
    4  A    between atoms: C_15  and  C_21
                            x       y       z     vdW  Elec       q    Type
                         _______ _______ _______ _____ _____    ______ ____

>  <TORSDO>
F 4

$$$$
=
 OpenBabel10262419483D

 25 28  0  0  1  0  0  0  0  0999 V2000
  187.2120  177.6710  144.7780 C   0  0  0  0  0  0  0  0  0  0  0  0
  185.8450  178.1720  144.8150 C   0  0  0  0  0  0  0  0  0  0  0  0
  185.9800  178.5850  147.2630 C   0  0  0  0  0  2  0  0  0  0  0  0
  184.9070  178.3200  143.8190 C   0  0  0  0  0  0  0  0  0  0  0  0
  182.6110  178.8720  142.3840 C   0  0  0  0  0  3  0  0  0  0  0  0
  187.3550  178.0580  147.1630 N   0  0  0  0  0  0  0  0  0  0  0  0
  183.8060  178.8350  144.4570 C   0  0  0  0  0  0  0  0  0  0  0  0
  182.6310  179.1260  143.7690 C   0  0  0  0  0  3  0  0  0  0  0  0
  189.2810  177.1510  146.0770 N   0  0  0  0  0  0  0  0  0  0  0  0
  190.0540  177.0890  147.3060 C   0  0  0  0  0  1  0  0  0  0  0  0
  187.8130  177.2470  143.6630 C   0  0  0  0  0  3  0  0  0  0  0  0
  183.7480  178.3420  141.7310 C   0  0  0  0  0  3  0  0  0  0  0  0
  185.2940  178.5850  145.9700 N   0  0  0  0  0  0  0  0  0  0  0  0
  184.0470  178.9970  145.7740 N   0  0  0  0  0  0  0  0  0  0  0  0
  189.8830  176.7030  144.8530 C   0  0  0  0  0  3  0  0  0  0  0  0
  184.9230  178.0560  142.4520 C   0  0  0  0  0  3  0  0  0  0  0  0
  189.2040  176.7470  143.6990 C   0  0  0  0  0  0  0  0  0  0  0  0
  187.9310  177.6450  146.0640 C   0  0  0  0  0  0  0  0  0  0  0  0
  189.8450  176.2600  142.4440 C   0  0  0  0  0  2  0  0  0  0  0  0
  190.1710  177.4180  141.5140 C   0  0  1  0  0  3  0  0  0  0  0  0
  191.6120  177.5210  141.3440 N   0  0  0  0  0  1  0  0  0  0  0  0
  189.5080  177.1760  140.1670 C   0  0  0  0  0  2  0  0  0  0  0  0
  189.0940  178.5390  138.1200 C   0  0  0  0  0  1  0  0  0  0  0  0
  187.4680  178.4610  139.9090 N   0  0  0  0  0  1  0  0  0  0  0  0
  188.8910  178.4540  139.6210 C   0  0  1  0  0  3  0  0  0  0  0  0
  1  2  1  0  0  0  0
  1 18  1  0  0  0  0
  2 13  1  0  0  0  0
  4  7  1  0  0  0  0
  4  2  2  0  0  0  0
  5  8  2  0  0  0  0
  6  3  1  0  0  0  0
  7 14  2  0  0  0  0
  8  7  1  0  0  0  0
  9 10  1  0  0  0  0
 11 17  1  0  0  0  0
 11  1  2  0  0  0  0
 12  5  1  0  0  0  0
 12 16  2  0  0  0  0
 13  3  1  0  0  0  0
 14 13  1  0  0  0  0
 15  9  1  0  0  0  0
 16  4  1  0  0  0  0
 17 15  2  0  0  0  0
 18  9  1  0  0  0  0
 18  6  2  0  0  0  0
 19 17  1  0  0  0  0
 20 21  1  6  0  0  0
 20 19  1  0  0  0  0
 22 20  1  0  0  0  0
 25 23  1  6  0  0  0
 25 24  1  0  0  0  0
 25 22  1  0  0  0  0
M  END
>  <MODEL>
2

>  <REMARK>
 VINA RESULT:      -9.6      1.150      1.533
  Name = 
  4 active torsions:
  status: ('A' for Active; 'I' for Inactive)
    1  A    between atoms: C_6  and  C_15
    2  A    between atoms: C_6  and  C_23
    3  A    between atoms: C_12  and  C_21
    4  A    between atoms: C_15  and  C_21
                            x       y       z     vdW  Elec       q    Type
                         _______ _______ _______ _____ _____    ______ ____

>  <TORSDO>
F 4

$$$$
=
 OpenBabel10262419483D

 25 28  0  0  1  0  0  0  0  0999 V2000
  187.2300  178.2250  141.6820 C   0  0  0  0  0  0  0  0  0  0  0  0
  185.9710  178.4930  142.3630 C   0  0  0  0  0  0  0  0  0  0  0  0
  184.8240  178.9870  140.2130 C   0  0  0  0  0  2  0  0  0  0  0  0
  185.6380  178.4620  143.6980 C   0  0  0  0  0  0  0  0  0  0  0  0
  184.3020  178.6010  146.1130 C   0  0  0  0  0  3  0  0  0  0  0  0
  186.1300  178.7130  139.5830 N   0  0  0  0  0  0  0  0  0  0  0  0
  184.3090  178.8110  143.7300 C   0  0  0  0  0  0  0  0  0  0  0  0
  183.6020  178.8910  144.9260 C   0  0  0  0  0  3  0  0  0  0  0  0
  188.4440  178.1220  139.5020 N   0  0  0  0  0  0  0  0  0  0  0  0
  188.5170  178.2470  138.0560 C   0  0  0  0  0  1  0  0  0  0  0  0
  188.3510  177.8720  142.3170 C   0  0  0  0  0  3  0  0  0  0  0  0
  185.6700  178.2430  146.0760 C   0  0  0  0  0  3  0  0  0  0  0  0
  184.8740  178.8460  141.6690 N   0  0  0  0  0  0  0  0  0  0  0  0
  183.8450  179.0440  142.4850 N   0  0  0  0  0  0  0  0  0  0  0  0
  189.6240  177.7470  140.2290 C   0  0  0  0  0  3  0  0  0  0  0  0
  186.3610  178.1700  144.8520 C   0  0  0  0  0  3  0  0  0  0  0  0
  189.5970  177.6190  141.5620 C   0  0  0  0  0  0  0  0  0  0  0  0
  187.2210  178.3680  140.2170 C   0  0  0  0  0  0  0  0  0  0  0  0
  190.8400  177.2450  142.2960 C   0  0  0  0  0  2  0  0  0  0  0  0
  190.5260  176.3370  143.4740 C   0  0  1  0  0  3  0  0  0  0  0  0
  190.3480  174.9710  143.0080 N   0  0  0  0  0  1  0  0  0  0  0  0
  191.6740  176.3980  144.4690 C   0  0  0  0  0  2  0  0  0  0  0  0
  189.8010  177.2670  145.8670 C   0  0  0  0  0  1  0  0  0  0  0  0
  191.9190  176.6610  146.8660 N   0  0  0  0  0  1  0  0  0  0  0  0
  191.3060  177.2370  145.6830 C   0  0  1  0  0  3  0  0  0  0  0  0
  1 11  2  0  0  0  0
  1  2  1  0  0  0  0
  2  4  2  0  0  0  0
  3 13  1  0  0  0  0
  4  7  1  0  0  0  0
  4 16  1  0  0  0  0
  6  3  1  0  0  0  0
  6 18  2  0  0  0  0
  7  8  1  0  0  0  0
  8  5  2  0  0  0  0
  9 18  1  0  0  0  0
  9 15  1  0  0  0  0
 10  9  1  0  0  0  0
 12  5  1  0  0  0  0
 13  2  1  0  0  0  0
 13 14  1  0  0  0  0
 14  7  2  0  0  0  0
 15 17  2  0  0  0  0
 16 12  2  0  0  0  0
 17 19  1  0  0  0  0
 17 11  1  0  0  0  0
 18  1  1  0  0  0  0
 19 20  1  0  0  0  0
 20 21  1  6  0  0  0
 20 22  1  0  0  0  0
 22 25  1  0  0  0  0
 25 23  1  1  0  0  0
 25 24  1  0  0  0  0
M  END
>  <MODEL>
3

>  <REMARK>
 VINA RESULT:      -9.2      2.071      5.164
  Name = 
  4 active torsions:
  status: ('A' for Active; 'I' for Inactive)
    1  A    between atoms: C_6  and  C_15
    2  A    between atoms: C_6  and  C_23
    3  A    between atoms: C_12  and  C_21
    4  A    between atoms: C_15  and  C_21
                            x       y       z     vdW  Elec       q    Type
                         _______ _______ _______ _____ _____    ______ ____

>  <TORSDO>
F 4

$$$$
=
 OpenBabel10262419483D

 25 28  0  0  1  0  0  0  0  0999 V2000
  186.8000  178.1720  143.5120 C   0  0  0  0  0  0  0  0  0  0  0  0
  187.4190  178.1780  142.1930 C   0  0  0  0  0  0  0  0  0  0  0  0
  185.3260  179.0020  141.1310 C   0  0  0  0  0  2  0  0  0  0  0  0
  188.6880  177.8370  141.7860 C   0  0  0  0  0  0  0  0  0  0  0  0
  190.9640  177.3390  140.3000 C   0  0  0  0  0  3  0  0  0  0  0  0
  184.7540  178.9640  142.4910 N   0  0  0  0  0  0  0  0  0  0  0  0
  188.6810  178.0440  140.4280 C   0  0  0  0  0  0  0  0  0  0  0  0
  189.8070  177.8050  139.6460 C   0  0  0  0  0  3  0  0  0  0  0  0
  184.7380  178.6000  144.8530 N   0  0  0  0  0  0  0  0  0  0  0  0
  183.3480  179.0030  144.9940 C   0  0  0  0  0  1  0  0  0  0  0  0
  187.4400  177.8020  144.6240 C   0  0  0  0  0  3  0  0  0  0  0  0
  190.9670  177.1280  141.6990 C   0  0  0  0  0  3  0  0  0  0  0  0
  186.7220  178.5610  141.1080 N   0  0  0  0  0  0  0  0  0  0  0  0
  187.4760  178.4880  140.0170 N   0  0  0  0  0  0  0  0  0  0  0  0
  185.4660  178.1910  146.0200 C   0  0  0  0  0  3  0  0  0  0  0  0
  189.8130  177.3770  142.4650 C   0  0  0  0  0  3  0  0  0  0  0  0
  186.7490  177.8160  145.9310 C   0  0  0  0  0  0  0  0  0  0  0  0
  185.3920  178.5980  143.5730 C   0  0  0  0  0  0  0  0  0  0  0  0
  187.4790  177.3790  147.1570 C   0  0  0  0  0  2  0  0  0  0  0  0
  188.9460  177.7720  147.0850 C   0  0  1  0  0  3  0  0  0  0  0  0
  189.3220  178.4850  148.2960 N   0  0  0  0  0  1  0  0  0  0  0  0
  189.7910  176.5160  146.9410 C   0  0  0  0  0  2  0  0  0  0  0  0
  192.0850  175.6270  147.3460 C   0  0  0  0  0  1  0  0  0  0  0  0
  191.6800  177.2810  145.6290 N   0  0  0  0  0  1  0  0  0  0  0  0
  191.2750  176.8470  146.9540 C   0  0  1  0  0  3  0  0  0  0  0  0
  1 18  1  0  0  0  0
  1 11  2  0  0  0  0
  2  1  1  0  0  0  0
  3  6  1  0  0  0  0
  4  2  2  0  0  0  0
  4 16  1  0  0  0  0
  5 12  1  0  0  0  0
  6 18  2  0  0  0  0
  7  4  1  0  0  0  0
  8  5  2  0  0  0  0
  8  7  1  0  0  0  0
  9 10  1  0  0  0  0
  9 15  1  0  0  0  0
 11 17  1  0  0  0  0
 12 16  2  0  0  0  0
 13  3  1  0  0  0  0
 13  2  1  0  0  0  0
 14  7  2  0  0  0  0
 14 13  1  0  0  0  0
 17 15  2  0  0  0  0
 17 19  1  0  0  0  0
 18  9  1  0  0  0  0
 20 19  1  0  0  0  0
 20 21  1  1  0  0  0
 22 25  1  0  0  0  0
 22 20  1  0  0  0  0
 24 25  1  0  0  0  0
 25 23  1  6  0  0  0
M  END
>  <MODEL>
4

>  <REMARK>
 VINA RESULT:      -9.1      1.633      6.398
  Name = 
  4 active torsions:
  status: ('A' for Active; 'I' for Inactive)
    1  A    between atoms: C_6  and  C_15
    2  A    between atoms: C_6  and  C_23
    3  A    between atoms: C_12  and  C_21
    4  A    between atoms: C_15  and  C_21
                            x       y       z     vdW  Elec       q    Type
                         _______ _______ _______ _____ _____    ______ ____

>  <TORSDO>
F 4

$$$$
=
 OpenBabel10262419483D

 25 28  0  0  1  0  0  0  0  0999 V2000
  186.0020  178.2780  144.2070 C   0  0  0  0  0  0  0  0  0  0  0  0
  186.8700  177.9850  145.3390 C   0  0  0  0  0  0  0  0  0  0  0  0
  185.0080  178.3170  146.9530 C   0  0  0  0  0  2  0  0  0  0  0  0
  188.2060  177.6600  145.3960 C   0  0  0  0  0  0  0  0  0  0  0  0
  190.7500  176.9890  146.2420 C   0  0  0  0  0  3  0  0  0  0  0  0
  184.1820  178.6150  145.7660 N   0  0  0  0  0  0  0  0  0  0  0  0
  188.4650  177.5030  146.7360 C   0  0  0  0  0  0  0  0  0  0  0  0
  189.7330  177.1650  147.2010 C   0  0  0  0  0  3  0  0  0  0  0  0
  183.7090  178.9070  143.4420 N   0  0  0  0  0  0  0  0  0  0  0  0
  182.3140  179.2410  143.6770 C   0  0  0  0  0  1  0  0  0  0  0  0
  186.4160  178.2690  142.9380 C   0  0  0  0  0  3  0  0  0  0  0  0
  190.4780  177.1530  144.8640 C   0  0  0  0  0  3  0  0  0  0  0  0
  186.3940  178.0120  146.5970 N   0  0  0  0  0  0  0  0  0  0  0  0
  187.3530  177.7170  147.4680 N   0  0  0  0  0  0  0  0  0  0  0  0
  184.2020  178.8870  142.0940 C   0  0  0  0  0  3  0  0  0  0  0  0
  189.1870  177.4950  144.4210 C   0  0  0  0  0  3  0  0  0  0  0  0
  185.4810  178.5810  141.8360 C   0  0  0  0  0  0  0  0  0  0  0  0
  184.6010  178.6030  144.5280 C   0  0  0  0  0  0  0  0  0  0  0  0
  185.9730  178.5830  140.4280 C   0  0  0  0  0  2  0  0  0  0  0  0
  184.8160  178.6890  139.4470 C   0  0  1  0  0  3  0  0  0  0  0  0
  184.5180  180.0890  139.1890 N   0  0  0  0  0  1  0  0  0  0  0  0
  185.1990  177.9940  138.1500 C   0  0  0  0  0  2  0  0  0  0  0  0
  187.1250  176.5840  137.4260 C   0  0  0  0  0  1  0  0  0  0  0  0
  187.1340  178.9760  137.0700 N   0  0  0  0  0  1  0  0  0  0  0  0
  186.7090  177.9310  137.9850 C   0  0  1  0  0  3  0  0  0  0  0  0
  1 18  1  0  0  0  0
  1  2  1  0  0  0  0
  2  4  2  0  0  0  0
  2 13  1  0  0  0  0
  4  7  1  0  0  0  0
  5  8  2  0  0  0  0
  6  3  1  0  0  0  0
  7  8  1  0  0  0  0
  7 14  2  0  0  0  0
  9 10  1  0  0  0  0
  9 18  1  0  0  0  0
 11  1  2  0  0  0  0
 12  5  1  0  0  0  0
 13  3  1  0  0  0  0
 13 14  1  0  0  0  0
 15  9  1  0  0  0  0
 16 12  2  0  0  0  0
 16  4  1  0  0  0  0
 17 15  2  0  0  0  0
 17 11  1  0  0  0  0
 18  6  2  0  0  0  0
 19 17  1  0  0  0  0
 20 21  1  6  0  0  0
 20 19  1  0  0  0  0
 22 20  1  0  0  0  0
 24 25  1  0  0  0  0
 25 23  1  6  0  0  0
 25 22  1  0  0  0  0
M  END
>  <MODEL>
5

>  <REMARK>
 VINA RESULT:      -8.8      2.252      5.328
  Name = 
  4 active torsions:
  status: ('A' for Active; 'I' for Inactive)
    1  A    between atoms: C_6  and  C_15
    2  A    between atoms: C_6  and  C_23
    3  A    between atoms: C_12  and  C_21
    4  A    between atoms: C_15  and  C_21
                            x       y       z     vdW  Elec       q    Type
                         _______ _______ _______ _____ _____    ______ ____

>  <TORSDO>
F 4

$$$$
=
 OpenBabel10262419483D

 25 28  0  0  1  0  0  0  0  0999 V2000
  185.9140  178.2710  144.1970 C   0  0  0  0  0  0  0  0  0  0  0  0
  186.8670  177.9810  145.2590 C   0  0  0  0  0  0  0  0  0  0  0  0
  185.1350  178.3170  147.0120 C   0  0  0  0  0  2  0  0  0  0  0  0
  188.2040  177.6560  145.2140 C   0  0  0  0  0  0  0  0  0  0  0  0
  190.8050  176.9880  145.8630 C   0  0  0  0  0  3  0  0  0  0  0  0
  184.2200  178.6110  145.8910 N   0  0  0  0  0  0  0  0  0  0  0  0
  188.5650  177.5020  146.5300 C   0  0  0  0  0  0  0  0  0  0  0  0
  189.8650  177.1660  146.8970 C   0  0  0  0  0  3  0  0  0  0  0  0
  183.5690  178.8970  143.6100 N   0  0  0  0  0  0  0  0  0  0  0  0
  182.1960  179.2320  143.9510 C   0  0  0  0  0  1  0  0  0  0  0  0
  186.2290  178.2580  142.9000 C   0  0  0  0  0  3  0  0  0  0  0  0
  190.4280  177.1480  144.5090 C   0  0  0  0  0  3  0  0  0  0  0  0
  186.4890  178.0100  146.5500 N   0  0  0  0  0  0  0  0  0  0  0  0
  187.5130  177.7190  147.3450 N   0  0  0  0  0  0  0  0  0  0  0  0
  183.9560  178.8730  142.2280 C   0  0  0  0  0  3  0  0  0  0  0  0
  189.1060  177.4890  144.1670 C   0  0  0  0  0  3  0  0  0  0  0  0
  185.2110  178.5670  141.8730 C   0  0  0  0  0  0  0  0  0  0  0  0
  184.5420  178.5960  144.6240 C   0  0  0  0  0  0  0  0  0  0  0  0
  185.5930  178.5650  140.4310 C   0  0  0  0  0  2  0  0  0  0  0  0
  184.3820  178.8160  139.5460 C   0  0  1  0  0  3  0  0  0  0  0  0
  184.4290  180.1720  139.0230 N   0  0  0  0  0  1  0  0  0  0  0  0
  184.3890  177.8190  138.3990 C   0  0  0  0  0  2  0  0  0  0  0  0
  182.7120  176.4330  139.6180 C   0  0  0  0  0  1  0  0  0  0  0  0
  182.0180  178.0400  137.9480 N   0  0  0  0  0  1  0  0  0  0  0  0
  183.0590  177.0900  138.2960 C   0  0  1  0  0  3  0  0  0  0  0  0
  1 18  1  0  0  0  0
  1  2  1  0  0  0  0
  2 13  1  0  0  0  0
  4  2  2  0  0  0  0
  4  7  1  0  0  0  0
  5  8  2  0  0  0  0
  6  3  1  0  0  0  0
  7  8  1  0  0  0  0
  7 14  2  0  0  0  0
  9 10  1  0  0  0  0
  9 18  1  0  0  0  0
 11  1  2  0  0  0  0
 12  5  1  0  0  0  0
 13  3  1  0  0  0  0
 13 14  1  0  0  0  0
 15  9  1  0  0  0  0
 16 12  2  0  0  0  0
 16  4  1  0  0  0  0
 17 15  2  0  0  0  0
 17 11  1  0  0  0  0
 18  6  2  0  0  0  0
 19 17  1  0  0  0  0
 20 21  1  6  0  0  0
 20 19  1  0  0  0  0
 22 20  1  0  0  0  0
 24 25  1  0  0  0  0
 25 22  1  0  0  0  0
 25 23  1  1  0  0  0
M  END
>  <MODEL>
6

>  <REMARK>
 VINA RESULT:      -8.5      2.783      5.731
  Name = 
  4 active torsions:
  status: ('A' for Active; 'I' for Inactive)
    1  A    between atoms: C_6  and  C_15
    2  A    between atoms: C_6  and  C_23
    3  A    between atoms: C_12  and  C_21
    4  A    between atoms: C_15  and  C_21
                            x       y       z     vdW  Elec       q    Type
                         _______ _______ _______ _____ _____    ______ ____

>  <TORSDO>
F 4

$$$$
=
 OpenBabel10262419483D

 25 28  0  0  1  0  0  0  0  0999 V2000
  186.7370  178.2750  143.0110 C   0  0  0  0  0  0  0  0  0  0  0  0
  186.6340  178.1400  144.4570 C   0  0  0  0  0  0  0  0  0  0  0  0
  184.1840  178.5600  144.3990 C   0  0  0  0  0  2  0  0  0  0  0  0
  187.5890  177.8810  145.4140 C   0  0  0  0  0  0  0  0  0  0  0  0
  188.9190  177.4120  147.7900 C   0  0  0  0  0  3  0  0  0  0  0  0
  184.3550  178.6950  142.9390 N   0  0  0  0  0  0  0  0  0  0  0  0
  186.8960  177.8760  146.6000 C   0  0  0  0  0  0  0  0  0  0  0  0
  187.5300  177.6430  147.8160 C   0  0  0  0  0  3  0  0  0  0  0  0
  185.5410  178.7210  140.8650 N   0  0  0  0  0  0  0  0  0  0  0  0
  184.3500  179.0180  140.0860 C   0  0  0  0  0  1  0  0  0  0  0  0
  187.8850  178.1510  142.3380 C   0  0  0  0  0  3  0  0  0  0  0  0
  189.6290  177.4180  146.5660 C   0  0  0  0  0  3  0  0  0  0  0  0
  185.4490  178.2780  145.0780 N   0  0  0  0  0  0  0  0  0  0  0  0
  185.5860  178.1180  146.3900 N   0  0  0  0  0  0  0  0  0  0  0  0
  186.7980  178.5810  140.1860 C   0  0  0  0  0  3  0  0  0  0  0  0
  188.9620  177.6570  145.3500 C   0  0  0  0  0  3  0  0  0  0  0  0
  187.9180  178.3040  140.8680 C   0  0  0  0  0  0  0  0  0  0  0  0
  185.4860  178.5710  142.2930 C   0  0  0  0  0  0  0  0  0  0  0  0
  189.2150  178.1800  140.1420 C   0  0  0  0  0  2  0  0  0  0  0  0
  190.0230  177.0050  140.6690 C   0  0  1  0  0  3  0  0  0  0  0  0
  190.1730  176.0050  139.6240 N   0  0  0  0  0  1  0  0  0  0  0  0
  191.3910  177.5000  141.1110 C   0  0  0  0  0  2  0  0  0  0  0  0
  191.5450  178.2980  143.4690 C   0  0  0  0  0  1  0  0  0  0  0  0
  190.7450  176.0730  142.9590 N   0  0  0  0  0  1  0  0  0  0  0  0
  191.6840  177.1000  142.5480 C   0  0  1  0  0  3  0  0  0  0  0  0
  1  2  1  0  0  0  0
  2 13  1  0  0  0  0
  2  4  2  0  0  0  0
  3 13  1  0  0  0  0
  4  7  1  0  0  0  0
  5  8  2  0  0  0  0
  6  3  1  0  0  0  0
  7  8  1  0  0  0  0
  9 18  1  0  0  0  0
 10  9  1  0  0  0  0
 11  1  2  0  0  0  0
 12  5  1  0  0  0  0
 13 14  1  0  0  0  0
 14  7  2  0  0  0  0
 15  9  1  0  0  0  0
 15 17  2  0  0  0  0
 16  4  1  0  0  0  0
 16 12  2  0  0  0  0
 17 11  1  0  0  0  0
 18  6  2  0  0  0  0
 18  1  1  0  0  0  0
 19 20  1  0  0  0  0
 19 17  1  0  0  0  0
 20 21  1  6  0  0  0
 20 22  1  0  0  0  0
 22 25  1  0  0  0  0
 25 24  1  0  0  0  0
 25 23  1  1  0  0  0
M  END
>  <MODEL>
7

>  <REMARK>
 VINA RESULT:      -8.5      1.887      4.773
  Name = 
  4 active torsions:
  status: ('A' for Active; 'I' for Inactive)
    1  A    between atoms: C_6  and  C_15
    2  A    between atoms: C_6  and  C_23
    3  A    between atoms: C_12  and  C_21
    4  A    between atoms: C_15  and  C_21
                            x       y       z     vdW  Elec       q    Type
                         _______ _______ _______ _____ _____    ______ ____

>  <TORSDO>
F 4

$$$$
=
 OpenBabel10262419483D

 25 28  0  0  1  0  0  0  0  0999 V2000
  187.1130  178.3510  141.4910 C   0  0  0  0  0  0  0  0  0  0  0  0
  185.7040  178.5580  141.7960 C   0  0  0  0  0  0  0  0  0  0  0  0
  185.1170  178.6620  139.3820 C   0  0  0  0  0  2  0  0  0  0  0  0
  185.0410  178.6500  142.9980 C   0  0  0  0  0  0  0  0  0  0  0  0
  183.1210  178.9280  144.9660 C   0  0  0  0  0  3  0  0  0  0  0  0
  186.5580  178.4600  139.1380 N   0  0  0  0  0  0  0  0  0  0  0  0
  183.7270  178.8510  142.6520 C   0  0  0  0  0  0  0  0  0  0  0  0
  182.7310  178.9950  143.6140 C   0  0  0  0  0  3  0  0  0  0  0  0
  188.8530  178.1230  139.7140 N   0  0  0  0  0  0  0  0  0  0  0  0
  189.2870  178.0820  138.3270 C   0  0  0  0  0  1  0  0  0  0  0  0
  188.0550  178.2030  142.4250 C   0  0  0  0  0  3  0  0  0  0  0  0
  184.4750  178.7210  145.3180 C   0  0  0  0  0  3  0  0  0  0  0  0
  184.8000  178.7020  140.8100 N   0  0  0  0  0  0  0  0  0  0  0  0
  183.5830  178.8810  141.3120 N   0  0  0  0  0  0  0  0  0  0  0  0
  189.8310  177.9710  140.7540 C   0  0  0  0  0  3  0  0  0  0  0  0
  185.4620  178.5790  144.3240 C   0  0  0  0  0  3  0  0  0  0  0  0
  189.4700  178.0000  142.0440 C   0  0  0  0  0  0  0  0  0  0  0  0
  187.4720  178.3160  140.0630 C   0  0  0  0  0  0  0  0  0  0  0  0
  190.5070  177.8560  143.1060 C   0  0  0  0  0  2  0  0  0  0  0  0
  190.2840  176.5900  143.9170 C   0  0  1  0  0  3  0  0  0  0  0  0
  190.8820  175.4560  143.2300 N   0  0  0  0  0  1  0  0  0  0  0  0
  190.9210  176.7580  145.2880 C   0  0  0  0  0  2  0  0  0  0  0  0
  188.5570  177.2220  145.9350 C   0  0  0  0  0  1  0  0  0  0  0  0
  190.3140  177.1770  147.5970 N   0  0  0  0  0  1  0  0  0  0  0  0
  190.0120  177.5390  146.2240 C   0  0  1  0  0  3  0  0  0  0  0  0
  1  2  1  0  0  0  0
  1 11  2  0  0  0  0
  2  4  2  0  0  0  0
  3 13  1  0  0  0  0
  4 16  1  0  0  0  0
  5 12  1  0  0  0  0
  6  3  1  0  0  0  0
  6 18  2  0  0  0  0
  7  4  1  0  0  0  0
  7  8  1  0  0  0  0
  8  5  2  0  0  0  0
  9 18  1  0  0  0  0
  9 15  1  0  0  0  0
 10  9  1  0  0  0  0
 13 14  1  0  0  0  0
 13  2  1  0  0  0  0
 14  7  2  0  0  0  0
 15 17  2  0  0  0  0
 16 12  2  0  0  0  0
 17 11  1  0  0  0  0
 17 19  1  0  0  0  0
 18  1  1  0  0  0  0
 19 20  1  0  0  0  0
 20 21  1  6  0  0  0
 20 22  1  0  0  0  0
 22 25  1  0  0  0  0
 25 23  1  6  0  0  0
 25 24  1  0  0  0  0
M  END
>  <MODEL>
8

>  <REMARK>
 VINA RESULT:      -8.4      2.114      5.316
  Name = 
  4 active torsions:
  status: ('A' for Active; 'I' for Inactive)
    1  A    between atoms: C_6  and  C_15
    2  A    between atoms: C_6  and  C_23
    3  A    between atoms: C_12  and  C_21
    4  A    between atoms: C_15  and  C_21
                            x       y       z     vdW  Elec       q    Type
                         _______ _______ _______ _____ _____    ______ ____

>  <TORSDO>
F 4

$$$$
=
 OpenBabel10262419483D

 25 28  0  0  1  0  0  0  0  0999 V2000
  188.0990  177.4990  143.3530 C   0  0  0  0  0  0  0  0  0  0  0  0
  186.9010  177.8710  144.0920 C   0  0  0  0  0  0  0  0  0  0  0  0
  188.0620  177.5750  146.2720 C   0  0  0  0  0  2  0  0  0  0  0  0
  185.6460  178.2330  143.6610 C   0  0  0  0  0  0  0  0  0  0  0  0
  182.9970  179.0100  143.5270 C   0  0  0  0  0  3  0  0  0  0  0  0
  189.2390  177.1970  145.4660 N   0  0  0  0  0  0  0  0  0  0  0  0
  184.9390  178.4650  144.8150 C   0  0  0  0  0  0  0  0  0  0  0  0
  183.6040  178.8580  144.7890 C   0  0  0  0  0  3  0  0  0  0  0  0
  190.4860  176.7740  143.4720 N   0  0  0  0  0  0  0  0  0  0  0  0
  191.6940  176.4170  144.1980 C   0  0  0  0  0  1  0  0  0  0  0  0
  188.1590  177.4540  142.0190 C   0  0  0  0  0  3  0  0  0  0  0  0
  183.7290  178.7700  142.3400 C   0  0  0  0  0  3  0  0  0  0  0  0
  186.9030  177.8970  145.4370 N   0  0  0  0  0  0  0  0  0  0  0  0
  185.7120  178.2600  145.9010 N   0  0  0  0  0  0  0  0  0  0  0  0
  190.5010  176.7380  142.0370 C   0  0  0  0  0  3  0  0  0  0  0  0
  185.0790  178.3720  142.3970 C   0  0  0  0  0  3  0  0  0  0  0  0
  189.4080  177.0630  141.3320 C   0  0  0  0  0  0  0  0  0  0  0  0
  189.2830  177.1560  144.1600 C   0  0  0  0  0  0  0  0  0  0  0  0
  189.4430  177.0010  139.8430 C   0  0  0  0  0  2  0  0  0  0  0  0
  188.4020  177.9270  139.2340 C   0  0  1  0  0  3  0  0  0  0  0  0
  189.0470  179.1340  138.7410 N   0  0  0  0  0  1  0  0  0  0  0  0
  187.7050  177.2090  138.0900 C   0  0  0  0  0  2  0  0  0  0  0  0
  186.8110  177.8600  135.8550 C   0  0  0  0  0  1  0  0  0  0  0  0
  185.4100  177.9420  137.8250 N   0  0  0  0  0  1  0  0  0  0  0  0
  186.7650  178.1430  137.3450 C   0  0  1  0  0  3  0  0  0  0  0  0
  1  2  1  0  0  0  0
  1 18  1  0  0  0  0
  2 13  1  0  0  0  0
  4  2  2  0  0  0  0
  4  7  1  0  0  0  0
  5  8  2  0  0  0  0
  6  3  1  0  0  0  0
  7 14  2  0  0  0  0
  8  7  1  0  0  0  0
  9 18  1  0  0  0  0
  9 10  1  0  0  0  0
 11  1  2  0  0  0  0
 12 16  2  0  0  0  0
 12  5  1  0  0  0  0
 13 14  1  0  0  0  0
 13  3  1  0  0  0  0
 15  9  1  0  0  0  0
 16  4  1  0  0  0  0
 17 11  1  0  0  0  0
 17 15  2  0  0  0  0
 18  6  2  0  0  0  0
 19 17  1  0  0  0  0
 20 21  1  6  0  0  0
 20 19  1  0  0  0  0
 22 20  1  0  0  0  0
 25 23  1  6  0  0  0
 25 24  1  0  0  0  0
 25 22  1  0  0  0  0
M  END
>  <MODEL>
9

>  <REMARK>
 VINA RESULT:      -8.3      1.757      2.580
  Name = 
  4 active torsions:
  status: ('A' for Active; 'I' for Inactive)
    1  A    between atoms: C_6  and  C_15
    2  A    between atoms: C_6  and  C_23
    3  A    between atoms: C_12  and  C_21
    4  A    between atoms: C_15  and  C_21
                            x       y       z     vdW  Elec       q    Type
                         _______ _______ _______ _____ _____    ______ ____

>  <TORSDO>
F 4

$$$$
