=
 OpenBabel10262420093D

 27 31  0  0  0  0  0  0  0  0999 V2000
  187.1570  178.1540  141.6840 C   0  0  0  0  0  0  0  0  0  0  0  0
  187.4680  177.8100  144.0740 C   0  0  0  0  0  0  0  0  0  0  0  0
  189.3100  177.5450  142.5540 N   0  0  0  0  0  0  0  0  0  0  0  0
  190.0240  176.8720  147.2920 C   0  0  0  0  0  3  0  0  0  0  0  0
  192.2020  176.2610  148.1270 O   0  0  0  0  0  1  0  0  0  0  0  0
  186.9950  177.7960  145.3960 C   0  0  0  0  0  3  0  0  0  0  0  0
  191.0420  176.8950  144.6840 C   0  0  0  0  0  3  0  0  0  0  0  0
  191.8770  176.5840  145.7600 C   0  0  0  0  0  3  0  0  0  0  0  0
  189.6890  177.1980  144.8990 C   0  0  0  0  0  0  0  0  0  0  0  0
  186.6170  178.1340  142.9910 C   0  0  0  0  0  0  0  0  0  0  0  0
  191.3700  176.5710  147.0610 C   0  0  0  0  0  0  0  0  0  0  0  0
  189.1820  177.1840  146.2210 C   0  0  0  0  0  0  0  0  0  0  0  0
  186.3650  178.4470  140.5610 C   0  0  0  0  0  3  0  0  0  0  0  0
  188.8320  177.5150  143.8270 C   0  0  0  0  0  0  0  0  0  0  0  0
  189.0730  177.8580  140.2090 C   0  0  0  0  0  3  0  0  0  0  0  0
  187.8420  177.4850  146.4590 C   0  0  0  0  0  3  0  0  0  0  0  0
  188.2740  178.1600  139.0960 C   0  0  0  0  0  0  0  0  0  0  0  0
  186.9210  178.4510  139.2800 C   0  0  0  0  0  3  0  0  0  0  0  0
  188.5230  177.8510  141.4940 C   0  0  0  0  0  0  0  0  0  0  0  0
  182.4760  179.0380  143.6560 C   0  0  0  0  0  3  0  0  0  0  0  0
  185.1830  178.4480  143.2210 C   0  0  0  0  0  0  0  0  0  0  0  0
  184.7580  178.9460  144.4610 C   0  0  0  0  0  3  0  0  0  0  0  0
  183.4080  179.2400  144.6770 C   0  0  0  0  0  3  0  0  0  0  0  0
  182.8930  178.5420  142.4180 C   0  0  0  0  0  3  0  0  0  0  0  0
  184.2420  178.2470  142.2010 C   0  0  0  0  0  3  0  0  0  0  0  0
  188.7990  178.1760  137.8000 O   0  0  0  0  0  0  0  0  0  0  0  0
  189.9170  177.3870  137.4150 C   0  0  0  0  0  1  0  0  0  0  0  0
  1 10  2  0  0  0  0
  2  6  1  0  0  0  0
  3 14  1  0  0  0  0
  6 16  2  0  0  0  0
  7  9  2  0  0  0  0
  7  8  1  0  0  0  0
  8 11  2  0  0  0  0
  9 12  1  0  0  0  0
 10 21  1  0  0  0  0
 10  2  1  0  0  0  0
 11  4  1  0  0  0  0
 11  5  1  0  0  0  0
 12 16  1  0  0  0  0
 12  4  2  0  0  0  0
 13  1  1  0  0  0  0
 14  2  2  0  0  0  0
 14  9  1  0  0  0  0
 15 19  1  0  0  0  0
 17 18  1  0  0  0  0
 17 15  2  0  0  0  0
 18 13  2  0  0  0  0
 19  1  1  0  0  0  0
 19  3  2  0  0  0  0
 20 23  1  0  0  0  0
 21 22  1  0  0  0  0
 22 23  2  0  0  0  0
 24 20  2  0  0  0  0
 25 24  1  0  0  0  0
 25 21  2  0  0  0  0
 26 17  1  0  0  0  0
 27 26  1  0  0  0  0
M  END
>  <MODEL>
1

>  <REMARK>
 VINA RESULT:     -11.3      0.000      0.000
  Name = 
  2 active torsions:
  status: ('A' for Active; 'I' for Inactive)
    1  A    between atoms: C_9  and  C_15
    2  A    between atoms: O_10  and  C_22
                            x       y       z     vdW  Elec       q    Type
                         _______ _______ _______ _____ _____    ______ ____

>  <TORSDO>
F 2

$$$$
=
 OpenBabel10262420093D

 27 31  0  0  0  0  0  0  0  0999 V2000
  188.4540  177.5900  143.7180 C   0  0  0  0  0  0  0  0  0  0  0  0
  186.2640  178.1680  144.6120 C   0  0  0  0  0  0  0  0  0  0  0  0
  186.5780  177.8800  142.2470 N   0  0  0  0  0  0  0  0  0  0  0  0
  182.1860  178.9980  143.9420 C   0  0  0  0  0  3  0  0  0  0  0  0
  180.3270  179.2800  142.4330 O   0  0  0  0  0  1  0  0  0  0  0  0
  185.3940  178.4390  145.6810 C   0  0  0  0  0  3  0  0  0  0  0  0
  183.8580  178.4490  141.7640 C   0  0  0  0  0  3  0  0  0  0  0  0
  182.5040  178.7280  141.5570 C   0  0  0  0  0  3  0  0  0  0  0  0
  184.3910  178.4420  143.0620 C   0  0  0  0  0  0  0  0  0  0  0  0
  187.6320  177.8780  144.8320 C   0  0  0  0  0  0  0  0  0  0  0  0
  181.6710  179.0030  142.6430 C   0  0  0  0  0  0  0  0  0  0  0  0
  183.5390  178.7200  144.1580 C   0  0  0  0  0  0  0  0  0  0  0  0
  189.8240  177.3150  143.8610 C   0  0  0  0  0  3  0  0  0  0  0  0
  185.7520  178.1620  143.2900 C   0  0  0  0  0  0  0  0  0  0  0  0
  188.6900  177.3230  141.3080 C   0  0  0  0  0  3  0  0  0  0  0  0
  184.0460  178.7150  145.4570 C   0  0  0  0  0  3  0  0  0  0  0  0
  190.0560  177.0420  141.4640 C   0  0  0  0  0  0  0  0  0  0  0  0
  190.6160  177.0420  142.7440 C   0  0  0  0  0  3  0  0  0  0  0  0
  187.8920  177.5980  142.4220 C   0  0  0  0  0  0  0  0  0  0  0  0
  189.2580  177.8780  148.8020 C   0  0  0  0  0  3  0  0  0  0  0  0
  188.1950  177.8780  146.2070 C   0  0  0  0  0  0  0  0  0  0  0  0
  187.3980  178.2520  147.2990 C   0  0  0  0  0  3  0  0  0  0  0  0
  187.9290  178.2530  148.5920 C   0  0  0  0  0  3  0  0  0  0  0  0
  190.0580  177.5030  147.7190 C   0  0  0  0  0  3  0  0  0  0  0  0
  189.5290  177.5030  146.4260 C   0  0  0  0  0  3  0  0  0  0  0  0
  190.8760  176.7620  140.3680 O   0  0  0  0  0  0  0  0  0  0  0  0
  190.4170  176.8400  139.0250 C   0  0  0  0  0  1  0  0  0  0  0  0
  1 13  1  0  0  0  0
  1 10  2  0  0  0  0
  2 10  1  0  0  0  0
  2  6  1  0  0  0  0
  3 19  2  0  0  0  0
  3 14  1  0  0  0  0
  4 12  1  0  0  0  0
  5 11  1  0  0  0  0
  7  9  1  0  0  0  0
  8  7  2  0  0  0  0
  8 11  1  0  0  0  0
  9 14  1  0  0  0  0
  9 12  2  0  0  0  0
 10 21  1  0  0  0  0
 11  4  2  0  0  0  0
 12 16  1  0  0  0  0
 14  2  2  0  0  0  0
 15 17  2  0  0  0  0
 15 19  1  0  0  0  0
 16  6  2  0  0  0  0
 17 18  1  0  0  0  0
 18 13  2  0  0  0  0
 19  1  1  0  0  0  0
 21 25  2  0  0  0  0
 21 22  1  0  0  0  0
 22 23  2  0  0  0  0
 23 20  1  0  0  0  0
 24 20  2  0  0  0  0
 25 24  1  0  0  0  0
 26 17  1  0  0  0  0
 27 26  1  0  0  0  0
M  END
>  <MODEL>
2

>  <REMARK>
 VINA RESULT:     -11.2      2.355      6.164
  Name = 
  2 active torsions:
  status: ('A' for Active; 'I' for Inactive)
    1  A    between atoms: C_9  and  C_15
    2  A    between atoms: O_10  and  C_22
                            x       y       z     vdW  Elec       q    Type
                         _______ _______ _______ _____ _____    ______ ____

>  <TORSDO>
F 2

$$$$
=
 OpenBabel10262420093D

 27 31  0  0  0  0  0  0  0  0999 V2000
  189.3270  177.4580  142.8120 C   0  0  0  0  0  0  0  0  0  0  0  0
  187.3940  177.8400  144.2420 C   0  0  0  0  0  0  0  0  0  0  0  0
  187.1890  177.9820  141.8520 N   0  0  0  0  0  0  0  0  0  0  0  0
  183.2900  178.7240  144.6180 C   0  0  0  0  0  3  0  0  0  0  0  0
  181.1600  179.2460  143.6170 O   0  0  0  0  0  1  0  0  0  0  0  0
  186.7790  177.9060  145.5030 C   0  0  0  0  0  3  0  0  0  0  0  0
  184.4440  178.5930  142.0710 C   0  0  0  0  0  3  0  0  0  0  0  0
  183.0850  178.8870  142.2110 C   0  0  0  0  0  3  0  0  0  0  0  0
  185.2410  178.3610  143.2030 C   0  0  0  0  0  0  0  0  0  0  0  0
  188.7700  177.5330  144.1080 C   0  0  0  0  0  0  0  0  0  0  0  0
  182.5100  178.9530  143.4820 C   0  0  0  0  0  0  0  0  0  0  0  0
  184.6500  178.4290  144.4870 C   0  0  0  0  0  0  0  0  0  0  0  0
  190.6890  177.1800  142.6070 C   0  0  0  0  0  3  0  0  0  0  0  0
  186.6130  178.0630  143.0810 C   0  0  0  0  0  0  0  0  0  0  0  0
  189.0380  177.6280  140.3980 C   0  0  0  0  0  3  0  0  0  0  0  0
  185.4220  178.1990  145.6250 C   0  0  0  0  0  3  0  0  0  0  0  0
  190.3970  177.3410  140.2060 C   0  0  0  0  0  0  0  0  0  0  0  0
  191.2170  177.1200  141.3150 C   0  0  0  0  0  3  0  0  0  0  0  0
  188.5030  177.6900  141.6880 C   0  0  0  0  0  0  0  0  0  0  0  0
  191.2040  176.8470  147.5740 C   0  0  0  0  0  3  0  0  0  0  0  0
  189.6130  177.2950  145.3090 C   0  0  0  0  0  0  0  0  0  0  0  0
  189.1580  177.6750  146.5800 C   0  0  0  0  0  3  0  0  0  0  0  0
  189.9520  177.4510  147.7080 C   0  0  0  0  0  3  0  0  0  0  0  0
  191.6640  176.4650  146.3100 C   0  0  0  0  0  3  0  0  0  0  0  0
  190.8710  176.6890  145.1810 C   0  0  0  0  0  3  0  0  0  0  0  0
  190.9580  177.2710  138.9270 O   0  0  0  0  0  0  0  0  0  0  0  0
  190.1780  177.0560  137.7580 C   0  0  0  0  0  1  0  0  0  0  0  0
  1 10  2  0  0  0  0
  2  6  1  0  0  0  0
  3 14  1  0  0  0  0
  6 16  2  0  0  0  0
  7  8  2  0  0  0  0
  7  9  1  0  0  0  0
  8 11  1  0  0  0  0
  9 12  2  0  0  0  0
 10  2  1  0  0  0  0
 10 21  1  0  0  0  0
 11  5  1  0  0  0  0
 11  4  2  0  0  0  0
 12  4  1  0  0  0  0
 12 16  1  0  0  0  0
 13  1  1  0  0  0  0
 14  9  1  0  0  0  0
 14  2  2  0  0  0  0
 15 19  1  0  0  0  0
 17 15  2  0  0  0  0
 17 18  1  0  0  0  0
 18 13  2  0  0  0  0
 19  3  2  0  0  0  0
 19  1  1  0  0  0  0
 20 23  1  0  0  0  0
 21 22  1  0  0  0  0
 22 23  2  0  0  0  0
 24 20  2  0  0  0  0
 25 21  2  0  0  0  0
 25 24  1  0  0  0  0
 26 17  1  0  0  0  0
 27 26  1  0  0  0  0
M  END
>  <MODEL>
3

>  <REMARK>
 VINA RESULT:     -11.1      2.156      5.928
  Name = 
  2 active torsions:
  status: ('A' for Active; 'I' for Inactive)
    1  A    between atoms: C_9  and  C_15
    2  A    between atoms: O_10  and  C_22
                            x       y       z     vdW  Elec       q    Type
                         _______ _______ _______ _____ _____    ______ ____

>  <TORSDO>
F 2

$$$$
=
 OpenBabel10262420093D

 27 31  0  0  0  0  0  0  0  0999 V2000
  189.2490  177.2250  144.9790 C   0  0  0  0  0  0  0  0  0  0  0  0
  188.1830  177.7980  142.8670 C   0  0  0  0  0  0  0  0  0  0  0  0
  190.4530  177.0110  142.9130 N   0  0  0  0  0  0  0  0  0  0  0  0
  188.4020  178.1010  138.6680 C   0  0  0  0  0  3  0  0  0  0  0  0
  189.6440  177.8720  136.6140 O   0  0  0  0  0  1  0  0  0  0  0  0
  187.0790  178.2280  142.1120 C   0  0  0  0  0  3  0  0  0  0  0  0
  190.6370  177.2200  140.1060 C   0  0  0  0  0  3  0  0  0  0  0  0
  190.6960  177.3270  138.7140 C   0  0  0  0  0  3  0  0  0  0  0  0
  189.4610  177.5520  140.7940 C   0  0  0  0  0  0  0  0  0  0  0  0
  188.1120  177.6850  144.2760 C   0  0  0  0  0  0  0  0  0  0  0  0
  189.5810  177.7670  137.9960 C   0  0  0  0  0  0  0  0  0  0  0  0
  188.3350  177.9960  140.0610 C   0  0  0  0  0  0  0  0  0  0  0  0
  189.2560  177.1080  146.3790 C   0  0  0  0  0  3  0  0  0  0  0  0
  189.3830  177.4490  142.1970 C   0  0  0  0  0  0  0  0  0  0  0  0
  191.5550  176.4410  144.9410 C   0  0  0  0  0  3  0  0  0  0  0  0
  187.1540  178.3290  140.7230 C   0  0  0  0  0  3  0  0  0  0  0  0
  191.5480  176.3210  146.3390 C   0  0  0  0  0  0  0  0  0  0  0  0
  190.3940  176.6580  147.0510 C   0  0  0  0  0  3  0  0  0  0  0  0
  190.4190  176.8910  144.2620 C   0  0  0  0  0  0  0  0  0  0  0  0
  184.5180  178.7230  146.3770 C   0  0  0  0  0  3  0  0  0  0  0  0
  186.8670  178.0440  145.0040 C   0  0  0  0  0  0  0  0  0  0  0  0
  185.6590  178.1910  144.3080 C   0  0  0  0  0  3  0  0  0  0  0  0
  184.4880  178.5300  144.9930 C   0  0  0  0  0  3  0  0  0  0  0  0
  185.7190  178.5770  147.0760 C   0  0  0  0  0  3  0  0  0  0  0  0
  186.8900  178.2390  146.3920 C   0  0  0  0  0  3  0  0  0  0  0  0
  192.6690  175.8720  147.0420 O   0  0  0  0  0  0  0  0  0  0  0  0
  192.7490  175.9030  148.4610 C   0  0  0  0  0  1  0  0  0  0  0  0
  1 13  1  0  0  0  0
  2 10  2  0  0  0  0
  3 19  1  0  0  0  0
  4 12  1  0  0  0  0
  5 11  1  0  0  0  0
  6  2  1  0  0  0  0
  7  9  1  0  0  0  0
  8  7  2  0  0  0  0
  9 14  1  0  0  0  0
 10  1  1  0  0  0  0
 10 21  1  0  0  0  0
 11  4  2  0  0  0  0
 11  8  1  0  0  0  0
 12 16  1  0  0  0  0
 12  9  2  0  0  0  0
 13 18  2  0  0  0  0
 14  2  1  0  0  0  0
 14  3  2  0  0  0  0
 15 17  2  0  0  0  0
 16  6  2  0  0  0  0
 17 26  1  0  0  0  0
 17 18  1  0  0  0  0
 19 15  1  0  0  0  0
 19  1  2  0  0  0  0
 20 24  1  0  0  0  0
 21 25  1  0  0  0  0
 22 23  1  0  0  0  0
 22 21  2  0  0  0  0
 23 20  2  0  0  0  0
 25 24  2  0  0  0  0
 26 27  1  0  0  0  0
M  END
>  <MODEL>
4

>  <REMARK>
 VINA RESULT:     -11.0      1.259      6.237
  Name = 
  2 active torsions:
  status: ('A' for Active; 'I' for Inactive)
    1  A    between atoms: C_9  and  C_15
    2  A    between atoms: O_10  and  C_22
                            x       y       z     vdW  Elec       q    Type
                         _______ _______ _______ _____ _____    ______ ____

>  <TORSDO>
F 2

$$$$
=
 OpenBabel10262420093D

 27 31  0  0  0  0  0  0  0  0999 V2000
  185.9020  178.3280  144.2350 C   0  0  0  0  0  0  0  0  0  0  0  0
  188.1020  177.7730  143.3540 C   0  0  0  0  0  0  0  0  0  0  0  0
  186.2790  178.2560  141.8650 N   0  0  0  0  0  0  0  0  0  0  0  0
  190.6260  177.1900  140.0280 C   0  0  0  0  0  3  0  0  0  0  0  0
  190.9650  177.1280  137.6420 O   0  0  0  0  0  1  0  0  0  0  0  0
  189.4580  177.4460  143.5210 C   0  0  0  0  0  3  0  0  0  0  0  0
  187.9370  177.8550  139.6190 C   0  0  0  0  0  3  0  0  0  0  0  0
  188.7850  177.6570  138.5260 C   0  0  0  0  0  3  0  0  0  0  0  0
  188.4240  177.7230  140.9280 C   0  0  0  0  0  0  0  0  0  0  0  0
  187.2520  177.9790  144.4660 C   0  0  0  0  0  0  0  0  0  0  0  0
  190.1260  177.3250  138.7300 C   0  0  0  0  0  0  0  0  0  0  0  0
  189.7850  177.3860  141.1270 C   0  0  0  0  0  0  0  0  0  0  0  0
  184.9980  178.5280  145.2920 C   0  0  0  0  0  3  0  0  0  0  0  0
  187.5840  177.9200  142.0420 C   0  0  0  0  0  0  0  0  0  0  0  0
  184.1040  178.7990  142.6590 C   0  0  0  0  0  3  0  0  0  0  0  0
  190.2910  177.2530  142.4190 C   0  0  0  0  0  3  0  0  0  0  0  0
  183.2120  179.0030  143.7230 C   0  0  0  0  0  0  0  0  0  0  0  0
  183.6670  178.8640  145.0370 C   0  0  0  0  0  3  0  0  0  0  0  0
  185.4380  178.4610  142.9080 C   0  0  0  0  0  0  0  0  0  0  0  0
  188.7420  177.5520  148.4670 C   0  0  0  0  0  3  0  0  0  0  0  0
  187.7680  177.8320  145.8520 C   0  0  0  0  0  0  0  0  0  0  0  0
  188.9570  177.1290  146.0930 C   0  0  0  0  0  3  0  0  0  0  0  0
  189.4410  176.9890  147.3970 C   0  0  0  0  0  3  0  0  0  0  0  0
  187.5560  178.2540  148.2340 C   0  0  0  0  0  3  0  0  0  0  0  0
  187.0700  178.3940  146.9310 C   0  0  0  0  0  3  0  0  0  0  0  0
  181.8750  179.3430  143.5030 O   0  0  0  0  0  0  0  0  0  0  0  0
  181.1810  178.9990  142.3110 C   0  0  0  0  0  1  0  0  0  0  0  0
  1 10  1  0  0  0  0
  1 13  1  0  0  0  0
  2  6  1  0  0  0  0
  2 10  2  0  0  0  0
  3 14  2  0  0  0  0
  3 19  1  0  0  0  0
  4 12  1  0  0  0  0
  5 11  1  0  0  0  0
  7  9  1  0  0  0  0
  8 11  1  0  0  0  0
  8  7  2  0  0  0  0
  9 12  2  0  0  0  0
  9 14  1  0  0  0  0
 10 21  1  0  0  0  0
 11  4  2  0  0  0  0
 12 16  1  0  0  0  0
 14  2  1  0  0  0  0
 15 19  1  0  0  0  0
 15 17  2  0  0  0  0
 16  6  2  0  0  0  0
 17 18  1  0  0  0  0
 18 13  2  0  0  0  0
 19  1  2  0  0  0  0
 21 22  2  0  0  0  0
 21 25  1  0  0  0  0
 22 23  1  0  0  0  0
 23 20  2  0  0  0  0
 24 20  1  0  0  0  0
 25 24  2  0  0  0  0
 26 17  1  0  0  0  0
 27 26  1  0  0  0  0
M  END
>  <MODEL>
5

>  <REMARK>
 VINA RESULT:     -10.8      2.467      6.147
  Name = 
  2 active torsions:
  status: ('A' for Active; 'I' for Inactive)
    1  A    between atoms: C_9  and  C_15
    2  A    between atoms: O_10  and  C_22
                            x       y       z     vdW  Elec       q    Type
                         _______ _______ _______ _____ _____    ______ ____

>  <TORSDO>
F 2

$$$$
=
 OpenBabel10262420093D

 27 31  0  0  0  0  0  0  0  0999 V2000
  189.9000  177.1880  144.2760 C   0  0  0  0  0  0  0  0  0  0  0  0
  187.9300  177.7900  142.9790 C   0  0  0  0  0  0  0  0  0  0  0  0
  187.8190  177.6610  145.3760 N   0  0  0  0  0  0  0  0  0  0  0  0
  183.8630  178.8950  142.8800 C   0  0  0  0  0  3  0  0  0  0  0  0
  181.7920  179.3640  144.0210 O   0  0  0  0  0  1  0  0  0  0  0  0
  187.2820  178.0640  141.7640 C   0  0  0  0  0  3  0  0  0  0  0  0
  185.0920  178.3810  145.3420 C   0  0  0  0  0  3  0  0  0  0  0  0
  183.7440  178.7460  145.2940 C   0  0  0  0  0  3  0  0  0  0  0  0
  185.8400  178.2690  144.1600 C   0  0  0  0  0  0  0  0  0  0  0  0
  189.2970  177.4280  143.0200 C   0  0  0  0  0  0  0  0  0  0  0  0
  183.1310  179.0020  144.0650 C   0  0  0  0  0  0  0  0  0  0  0  0
  185.2120  178.5300  142.9190 C   0  0  0  0  0  0  0  0  0  0  0  0
  191.2470  176.8050  144.3890 C   0  0  0  0  0  3  0  0  0  0  0  0
  187.2000  177.9020  144.1900 C   0  0  0  0  0  0  0  0  0  0  0  0
  189.7040  177.0720  146.7020 C   0  0  0  0  0  3  0  0  0  0  0  0
  185.9360  178.4280  141.7330 C   0  0  0  0  0  3  0  0  0  0  0  0
  191.0520  176.6970  146.8020 C   0  0  0  0  0  0  0  0  0  0  0  0
  191.8170  176.5640  145.6410 C   0  0  0  0  0  3  0  0  0  0  0  0
  189.1270  177.3130  145.4510 C   0  0  0  0  0  0  0  0  0  0  0  0
  191.5730  177.0680  139.4010 C   0  0  0  0  0  3  0  0  0  0  0  0
  190.0860  177.3030  141.7670 C   0  0  0  0  0  0  0  0  0  0  0  0
  191.4520  177.6200  141.7550 C   0  0  0  0  0  3  0  0  0  0  0  0
  192.1920  177.5030  140.5750 C   0  0  0  0  0  3  0  0  0  0  0  0
  190.2120  176.7510  139.4050 C   0  0  0  0  0  3  0  0  0  0  0  0
  189.4700  176.8680  140.5840 C   0  0  0  0  0  3  0  0  0  0  0  0
  191.6540  176.4520  148.0400 O   0  0  0  0  0  0  0  0  0  0  0  0
  192.8060  175.6320  148.1840 C   0  0  0  0  0  1  0  0  0  0  0  0
  1 13  2  0  0  0  0
  1 19  1  0  0  0  0
  2 10  2  0  0  0  0
  2 14  1  0  0  0  0
  3 19  1  0  0  0  0
  4 12  2  0  0  0  0
  4 11  1  0  0  0  0
  5 11  1  0  0  0  0
  6  2  1  0  0  0  0
  8  7  1  0  0  0  0
  9 14  1  0  0  0  0
  9  7  2  0  0  0  0
 10  1  1  0  0  0  0
 11  8  2  0  0  0  0
 12  9  1  0  0  0  0
 13 18  1  0  0  0  0
 14  3  2  0  0  0  0
 15 17  1  0  0  0  0
 16  6  2  0  0  0  0
 16 12  1  0  0  0  0
 17 26  1  0  0  0  0
 18 17  2  0  0  0  0
 19 15  2  0  0  0  0
 20 24  2  0  0  0  0
 20 23  1  0  0  0  0
 21 10  1  0  0  0  0
 22 21  1  0  0  0  0
 23 22  2  0  0  0  0
 24 25  1  0  0  0  0
 25 21  2  0  0  0  0
 26 27  1  0  0  0  0
M  END
>  <MODEL>
6

>  <REMARK>
 VINA RESULT:     -10.8      2.332      7.131
  Name = 
  2 active torsions:
  status: ('A' for Active; 'I' for Inactive)
    1  A    between atoms: C_9  and  C_15
    2  A    between atoms: O_10  and  C_22
                            x       y       z     vdW  Elec       q    Type
                         _______ _______ _______ _____ _____    ______ ____

>  <TORSDO>
F 2

$$$$
=
 OpenBabel10262420093D

 27 31  0  0  0  0  0  0  0  0999 V2000
  187.2580  177.9390  144.5020 C   0  0  0  0  0  0  0  0  0  0  0  0
  189.0200  177.5420  142.8700 C   0  0  0  0  0  0  0  0  0  0  0  0
  186.8260  178.2150  142.1560 N   0  0  0  0  0  0  0  0  0  0  0  0
  190.2780  177.4770  138.8470 C   0  0  0  0  0  3  0  0  0  0  0  0
  189.8050  177.7660  136.5000 O   0  0  0  0  0  1  0  0  0  0  0  0
  190.3410  177.2110  142.5280 C   0  0  0  0  0  3  0  0  0  0  0  0
  187.6320  178.1640  139.4530 C   0  0  0  0  0  3  0  0  0  0  0  0
  188.0620  178.1360  138.1240 C   0  0  0  0  0  3  0  0  0  0  0  0
  188.5190  177.8480  140.4940 C   0  0  0  0  0  0  0  0  0  0  0  0
  188.5940  177.5760  144.2190 C   0  0  0  0  0  0  0  0  0  0  0  0
  189.3820  177.7930  137.8210 C   0  0  0  0  0  0  0  0  0  0  0  0
  189.8560  177.5030  140.1790 C   0  0  0  0  0  0  0  0  0  0  0  0
  186.7630  177.9720  145.8160 C   0  0  0  0  0  3  0  0  0  0  0  0
  188.1030  177.8720  141.8400 C   0  0  0  0  0  0  0  0  0  0  0  0
  185.0590  178.6120  143.6970 C   0  0  0  0  0  3  0  0  0  0  0  0
  190.7550  177.1890  141.1970 C   0  0  0  0  0  3  0  0  0  0  0  0
  184.5780  178.6490  145.0140 C   0  0  0  0  0  0  0  0  0  0  0  0
  185.4360  178.3270  146.0680 C   0  0  0  0  0  3  0  0  0  0  0  0
  186.3860  178.2580  143.4370 C   0  0  0  0  0  0  0  0  0  0  0  0
  191.3080  176.5920  147.3930 C   0  0  0  0  0  3  0  0  0  0  0  0
  189.5340  177.2350  145.3190 C   0  0  0  0  0  0  0  0  0  0  0  0
  189.1660  177.4480  146.6550 C   0  0  0  0  0  3  0  0  0  0  0  0
  190.0520  177.1280  147.6880 C   0  0  0  0  0  3  0  0  0  0  0  0
  191.6810  176.3780  146.0630 C   0  0  0  0  0  3  0  0  0  0  0  0
  190.7970  176.6980  145.0290 C   0  0  0  0  0  3  0  0  0  0  0  0
  183.2560  179.0020  145.3020 O   0  0  0  0  0  0  0  0  0  0  0  0
  182.2300  179.0030  144.3180 C   0  0  0  0  0  1  0  0  0  0  0  0
  1 13  1  0  0  0  0
  2 10  2  0  0  0  0
  3 19  1  0  0  0  0
  4 12  1  0  0  0  0
  5 11  1  0  0  0  0
  6  2  1  0  0  0  0
  7  9  1  0  0  0  0
  8  7  2  0  0  0  0
  9 14  1  0  0  0  0
 10  1  1  0  0  0  0
 10 21  1  0  0  0  0
 11  8  1  0  0  0  0
 11  4  2  0  0  0  0
 12  9  2  0  0  0  0
 12 16  1  0  0  0  0
 13 18  2  0  0  0  0
 14  3  2  0  0  0  0
 14  2  1  0  0  0  0
 15 17  2  0  0  0  0
 16  6  2  0  0  0  0
 17 26  1  0  0  0  0
 17 18  1  0  0  0  0
 19 15  1  0  0  0  0
 19  1  2  0  0  0  0
 20 23  1  0  0  0  0
 21 22  1  0  0  0  0
 22 23  2  0  0  0  0
 24 20  2  0  0  0  0
 25 21  2  0  0  0  0
 25 24  1  0  0  0  0
 27 26  1  0  0  0  0
M  END
>  <MODEL>
7

>  <REMARK>
 VINA RESULT:     -10.7      2.157      6.885
  Name = 
  2 active torsions:
  status: ('A' for Active; 'I' for Inactive)
    1  A    between atoms: C_9  and  C_15
    2  A    between atoms: O_10  and  C_22
                            x       y       z     vdW  Elec       q    Type
                         _______ _______ _______ _____ _____    ______ ____

>  <TORSDO>
F 2

$$$$
=
 OpenBabel10262420093D

 27 31  0  0  0  0  0  0  0  0999 V2000
  186.8340  178.1260  141.7310 C   0  0  0  0  0  0  0  0  0  0  0  0
  189.0710  177.5620  142.5090 C   0  0  0  0  0  0  0  0  0  0  0  0
  187.2770  177.8740  144.0770 N   0  0  0  0  0  0  0  0  0  0  0  0
  191.6850  176.7250  145.7080 C   0  0  0  0  0  3  0  0  0  0  0  0
  192.0900  176.4790  148.0720 O   0  0  0  0  0  1  0  0  0  0  0  0
  190.4200  177.2440  142.2790 C   0  0  0  0  0  3  0  0  0  0  0  0
  189.0050  177.3350  146.2410 C   0  0  0  0  0  3  0  0  0  0  0  0
  189.8840  177.0580  147.2920 C   0  0  0  0  0  3  0  0  0  0  0  0
  189.4570  177.3110  144.9120 C   0  0  0  0  0  0  0  0  0  0  0  0
  188.1860  177.8340  141.4390 C   0  0  0  0  0  0  0  0  0  0  0  0
  191.2210  176.7540  147.0260 C   0  0  0  0  0  0  0  0  0  0  0  0
  190.8130  177.0010  144.6510 C   0  0  0  0  0  0  0  0  0  0  0  0
  185.9060  178.4260  140.7200 C   0  0  0  0  0  3  0  0  0  0  0  0
  188.5850  177.5870  143.8400 C   0  0  0  0  0  0  0  0  0  0  0  0
  185.0720  178.4320  143.3850 C   0  0  0  0  0  3  0  0  0  0  0  0
  191.2830  176.9680  143.3390 C   0  0  0  0  0  3  0  0  0  0  0  0
  184.1520  178.7220  142.3660 C   0  0  0  0  0  0  0  0  0  0  0  0
  184.5780  178.7190  141.0360 C   0  0  0  0  0  3  0  0  0  0  0  0
  186.4030  178.1380  143.0760 C   0  0  0  0  0  0  0  0  0  0  0  0
  189.5770  177.7770  137.3800 C   0  0  0  0  0  3  0  0  0  0  0  0
  188.6680  177.8150  140.0330 C   0  0  0  0  0  0  0  0  0  0  0  0
  188.7390  179.0040  139.2930 C   0  0  0  0  0  3  0  0  0  0  0  0
  189.1920  178.9840  137.9700 C   0  0  0  0  0  3  0  0  0  0  0  0
  189.5090  176.5890  138.1130 C   0  0  0  0  0  3  0  0  0  0  0  0
  189.0560  176.6070  139.4350 C   0  0  0  0  0  3  0  0  0  0  0  0
  182.8150  179.0170  142.6480 O   0  0  0  0  0  0  0  0  0  0  0  0
  182.2820  178.9830  143.9650 C   0  0  0  0  0  1  0  0  0  0  0  0
  1 19  1  0  0  0  0
  2 14  1  0  0  0  0
  4 11  2  0  0  0  0
  6  2  2  0  0  0  0
  6 16  1  0  0  0  0
  7  8  2  0  0  0  0
  9  7  1  0  0  0  0
 10  1  2  0  0  0  0
 10  2  1  0  0  0  0
 11  8  1  0  0  0  0
 11  5  1  0  0  0  0
 12  9  1  0  0  0  0
 12  4  1  0  0  0  0
 13 18  2  0  0  0  0
 13  1  1  0  0  0  0
 14  3  1  0  0  0  0
 14  9  2  0  0  0  0
 16 12  2  0  0  0  0
 17 26  1  0  0  0  0
 17 15  2  0  0  0  0
 18 17  1  0  0  0  0
 19 15  1  0  0  0  0
 19  3  2  0  0  0  0
 20 23  2  0  0  0  0
 20 24  1  0  0  0  0
 21 10  1  0  0  0  0
 22 21  2  0  0  0  0
 23 22  1  0  0  0  0
 24 25  2  0  0  0  0
 25 21  1  0  0  0  0
 26 27  1  0  0  0  0
M  END
>  <MODEL>
8

>  <REMARK>
 VINA RESULT:     -10.7      1.777      4.919
  Name = 
  2 active torsions:
  status: ('A' for Active; 'I' for Inactive)
    1  A    between atoms: C_9  and  C_15
    2  A    between atoms: O_10  and  C_22
                            x       y       z     vdW  Elec       q    Type
                         _______ _______ _______ _____ _____    ______ ____

>  <TORSDO>
F 2

$$$$
=
 OpenBabel10262420093D

 27 31  0  0  0  0  0  0  0  0999 V2000
  188.5650  177.8950  140.7360 C   0  0  0  0  0  0  0  0  0  0  0  0
  187.1080  178.0170  142.6820 C   0  0  0  0  0  0  0  0  0  0  0  0
  186.2260  178.3730  140.4760 N   0  0  0  0  0  0  0  0  0  0  0  0
  183.2550  178.6040  144.2870 C   0  0  0  0  0  3  0  0  0  0  0  0
  180.9120  179.0860  143.9850 O   0  0  0  0  0  1  0  0  0  0  0  0
  186.8760  177.9240  144.0640 C   0  0  0  0  0  3  0  0  0  0  0  0
  183.6390  178.7890  141.5200 C   0  0  0  0  0  3  0  0  0  0  0  0
  182.3670  178.9830  142.0660 C   0  0  0  0  0  3  0  0  0  0  0  0
  184.7320  178.5000  142.3510 C   0  0  0  0  0  0  0  0  0  0  0  0
  188.3980  177.8110  142.1370 C   0  0  0  0  0  0  0  0  0  0  0  0
  182.1750  178.8920  143.4460 C   0  0  0  0  0  0  0  0  0  0  0  0
  184.5300  178.4080  143.7490 C   0  0  0  0  0  0  0  0  0  0  0  0
  189.8200  177.7220  140.1290 C   0  0  0  0  0  3  0  0  0  0  0  0
  186.0210  178.3010  141.8180 C   0  0  0  0  0  0  0  0  0  0  0  0
  187.5940  178.2750  138.5330 C   0  0  0  0  0  3  0  0  0  0  0  0
  185.6010  178.1200  144.5930 C   0  0  0  0  0  3  0  0  0  0  0  0
  188.8510  178.0930  137.9380 C   0  0  0  0  0  0  0  0  0  0  0  0
  189.9600  177.8190  138.7420 C   0  0  0  0  0  3  0  0  0  0  0  0
  187.4470  178.1810  139.9200 C   0  0  0  0  0  0  0  0  0  0  0  0
  191.7400  176.9490  144.6850 C   0  0  0  0  0  3  0  0  0  0  0  0
  189.5550  177.5120  143.0200 C   0  0  0  0  0  0  0  0  0  0  0  0
  190.2180  178.5490  143.6920 C   0  0  0  0  0  3  0  0  0  0  0  0
  191.3070  178.2670  144.5210 C   0  0  0  0  0  3  0  0  0  0  0  0
  191.0840  175.9110  144.0180 C   0  0  0  0  0  3  0  0  0  0  0  0
  189.9950  176.1920  143.1870 C   0  0  0  0  0  3  0  0  0  0  0  0
  189.0260  178.1800  136.5540 O   0  0  0  0  0  0  0  0  0  0  0  0
  188.9440  177.0500  135.6970 C   0  0  0  0  0  1  0  0  0  0  0  0
  1 10  2  0  0  0  0
  2  6  1  0  0  0  0
  3 14  1  0  0  0  0
  6 16  2  0  0  0  0
  7  8  2  0  0  0  0
  7  9  1  0  0  0  0
  8 11  1  0  0  0  0
  9 12  2  0  0  0  0
 10  2  1  0  0  0  0
 10 21  1  0  0  0  0
 11  5  1  0  0  0  0
 11  4  2  0  0  0  0
 12  4  1  0  0  0  0
 12 16  1  0  0  0  0
 13  1  1  0  0  0  0
 14  9  1  0  0  0  0
 14  2  2  0  0  0  0
 15 19  1  0  0  0  0
 17 15  2  0  0  0  0
 17 18  1  0  0  0  0
 18 13  2  0  0  0  0
 19  3  2  0  0  0  0
 19  1  1  0  0  0  0
 21 25  2  0  0  0  0
 21 22  1  0  0  0  0
 22 23  2  0  0  0  0
 23 20  1  0  0  0  0
 24 20  2  0  0  0  0
 25 24  1  0  0  0  0
 26 17  1  0  0  0  0
 27 26  1  0  0  0  0
M  END
>  <MODEL>
9

>  <REMARK>
 VINA RESULT:     -10.7      2.817      5.961
  Name = 
  2 active torsions:
  status: ('A' for Active; 'I' for Inactive)
    1  A    between atoms: C_9  and  C_15
    2  A    between atoms: O_10  and  C_22
                            x       y       z     vdW  Elec       q    Type
                         _______ _______ _______ _____ _____    ______ ____

>  <TORSDO>
F 2

$$$$
