=
 OpenBabel10262423013D

 37 45  0  0  1  0  0  0  0  0999 V2000
  189.6220  176.1750  143.2990 C   0  0  1  0  0  3  0  0  0  0  0  0
  188.7910  177.0670  147.8580 C   0  0  2  0  0  3  0  0  0  0  0  0
  185.7780  178.0170  144.6940 C   0  0  1  0  0  3  0  0  0  0  0  0
  186.3510  179.1590  141.1930 C   0  0  0  0  0  2  0  0  0  0  0  0
  186.7380  178.2110  147.0760 C   0  0  2  0  0  3  0  0  0  0  0  0
  186.1990  177.9990  143.4340 C   0  0  1  0  0  3  0  0  0  0  0  0
  191.7200  176.5820  144.6780 C   0  0  0  0  0  1  0  0  0  0  0  0
  186.9070  177.7030  145.6360 C   0  0  2  0  0  3  0  0  0  0  0  0
  185.4740  178.5650  142.2680 C   0  0  0  0  0  0  0  0  0  0  0  0
  185.7930  179.3990  147.1880 C   0  0  0  0  0  2  0  0  0  0  0  0
  188.1450  178.1800  144.8770 C   0  0  1  0  0  3  0  0  0  0  0  0
  189.4510  176.6120  146.5410 C   0  0  1  0  0  3  0  0  0  0  0  0
  183.3570  178.1390  144.5060 C   0  0  0  0  0  3  0  0  0  0  0  0
  190.3910  177.1550  144.2020 C   0  0  2  0  0  3  0  0  0  0  0  0
  184.4440  178.9870  146.6030 C   0  0  0  0  0  2  0  0  0  0  0  0
  189.5020  177.6140  145.3640 C   0  0  1  0  0  3  0  0  0  0  0  0
  187.5970  178.3130  140.9450 C   0  0  0  0  0  2  0  0  0  0  0  0
  184.5600  178.7900  145.0910 C   0  0  1  0  0  3  0  0  0  0  0  0
  187.6790  177.8670  143.4570 C   0  0  2  0  0  0  0  0  0  0  0  0
  188.0770  178.4170  147.7710 C   0  0  0  0  0  2  0  0  0  0  0  0
  184.1140  178.5730  142.1430 C   0  0  0  0  0  0  0  0  0  0  0  0
  190.2820  177.2060  147.6700 C   0  0  0  0  0  2  0  0  0  0  0  0
  188.4720  178.1710  142.1950 C   0  0  1  0  0  3  0  0  0  0  0  0
  188.3090  176.7190  142.6860 C   0  0  1  0  0  3  0  0  0  0  0  0
  183.1800  178.0600  143.1840 C   0  0  0  0  0  3  0  0  0  0  0  0
  184.2190  179.4730  139.8030 C   0  0  0  0  0  3  0  0  0  0  0  0
  183.4590  179.0590  140.9060 C   0  0  0  0  0  0  0  0  0  0  0  0
  182.0630  179.1650  140.8490 C   0  0  0  0  0  3  0  0  0  0  0  0
  180.1060  179.7500  139.6250 F   0  0  0  0  0  0  0  0  0  0  0  0
  182.2160  180.0340  138.6300 N   0  0  0  0  0  0  0  0  0  0  0  0
  181.4550  179.6530  139.6910 C   0  0  0  0  0  0  0  0  0  0  0  0
  183.5740  179.9560  138.6630 C   0  0  0  0  0  3  0  0  0  0  0  0
  190.4250  175.4900  142.3580 O   0  0  0  0  0  0  0  0  0  0  0  0
  190.9650  176.4210  141.4550 C   0  0  0  0  0  2  0  0  0  0  0  0
  190.5540  176.1050  140.1620 O   0  0  0  0  0  0  0  0  0  0  0  0
  190.8690  177.2350  139.4080 C   0  0  0  0  0  2  0  0  0  0  0  0
  189.9110  177.4130  138.4130 O   0  0  0  0  0  1  0  0  0  0  0  0
  1 33  1  6  0  0  0
  1 14  1  0  0  0  0
  2 22  1  1  0  0  0
  3 18  1  0  0  0  0
  3  8  1  0  0  0  0
  4  9  1  0  0  0  0
  5 10  1  0  0  0  0
  5 20  1  0  0  0  0
  6 19  1  0  0  0  0
  6  3  1  0  0  0  0
  8  5  1  0  0  0  0
  9  6  1  0  0  0  0
 11 16  1  0  0  0  0
 11  8  1  0  0  0  0
 12 22  1  0  0  0  0
 12  2  1  0  0  0  0
 13 18  1  0  0  0  0
 14  7  1  0  0  0  0
 14 16  1  0  0  0  0
 15 10  1  0  0  0  0
 16 12  1  0  0  0  0
 17  4  1  0  0  0  0
 17 23  1  0  0  0  0
 18 15  1  0  0  0  0
 19 11  1  0  0  0  0
 20  2  1  0  0  0  0
 21  9  2  0  0  0  0
 21 25  1  0  0  0  0
 23 24  1  0  0  0  0
 23 19  1  0  0  0  0
 24  1  1  0  0  0  0
 24 19  1  0  0  0  0
 25 13  2  0  0  0  0
 26 27  1  0  0  0  0
 27 21  1  0  0  0  0
 28 27  2  0  0  0  0
 29 31  1  0  0  0  0
 30 32  1  0  0  0  0
 30 31  2  0  0  0  0
 31 28  1  0  0  0  0
 32 26  2  0  0  0  0
 34 33  1  0  0  0  0
 35 34  1  0  0  0  0
 36 35  1  0  0  0  0
 37 36  1  0  0  0  0
M  END
>  <MODEL>
1

>  <REMARK>
 VINA RESULT:     -10.2      0.000      0.000
  Name = 
  5 active torsions:
  status: ('A' for Active; 'I' for Inactive)
    1  A    between atoms: C_1  and  O_5
    2  A    between atoms: O_5  and  C_17
    3  A    between atoms: C_6  and  C_31
    4  A    between atoms: C_11  and  O_26
    5  A    between atoms: C_17  and  O_26
                            x       y       z     vdW  Elec       q    Type
                         _______ _______ _______ _____ _____    ______ ____

>  <TORSDO>
F 5

$$$$
=
 OpenBabel10262423013D

 37 45  0  0  1  0  0  0  0  0999 V2000
  188.1650  176.4770  137.4150 C   0  0  1  0  0  3  0  0  0  0  0  0
  192.7280  176.2040  138.5880 C   0  0  2  0  0  3  0  0  0  0  0  0
  189.5650  177.0160  141.6420 C   0  0  1  0  0  3  0  0  0  0  0  0
  186.3980  178.9450  141.2660 C   0  0  0  0  0  2  0  0  0  0  0  0
  192.0100  176.9510  140.8380 C   0  0  2  0  0  3  0  0  0  0  0  0
  188.3620  177.3550  141.1900 C   0  0  1  0  0  3  0  0  0  0  0  0
  189.7620  177.0920  135.5330 C   0  0  0  0  0  1  0  0  0  0  0  0
  190.5200  176.8010  140.5000 C   0  0  2  0  0  3  0  0  0  0  0  0
  187.2670  177.9530  141.9980 C   0  0  0  0  0  0  0  0  0  0  0  0
  192.2670  177.8290  142.0550 C   0  0  0  0  0  2  0  0  0  0  0  0
  189.9660  177.7060  139.4000 C   0  0  1  0  0  3  0  0  0  0  0  0
  191.4070  176.1970  137.7930 C   0  0  1  0  0  3  0  0  0  0  0  0
  189.2080  176.5860  144.0080 C   0  0  0  0  0  3  0  0  0  0  0  0
  189.2950  177.4110  136.9480 C   0  0  2  0  0  3  0  0  0  0  0  0
  191.5070  177.2300  143.2380 C   0  0  0  0  0  2  0  0  0  0  0  0
  190.4460  177.3980  137.9600 C   0  0  1  0  0  3  0  0  0  0  0  0
  186.0970  178.4930  139.8390 C   0  0  0  0  0  2  0  0  0  0  0  0
  190.0000  177.3760  143.0270 C   0  0  1  0  0  3  0  0  0  0  0  0
  188.4790  177.5830  139.7270 C   0  0  2  0  0  0  0  0  0  0  0  0
  192.8380  177.3300  139.6170 C   0  0  0  0  0  2  0  0  0  0  0  0
  187.0370  177.6570  143.3110 C   0  0  0  0  0  0  0  0  0  0  0  0
  192.6910  176.7330  137.1760 C   0  0  0  0  0  2  0  0  0  0  0  0
  187.3660  178.3170  138.9960 C   0  0  1  0  0  3  0  0  0  0  0  0
  187.5610  176.8010  138.8030 C   0  0  1  0  0  3  0  0  0  0  0  0
  187.8840  176.7340  144.1180 C   0  0  0  0  0  3  0  0  0  0  0  0
  185.9190  178.4780  145.4030 C   0  0  0  0  0  3  0  0  0  0  0  0
  185.8640  178.2090  144.0280 C   0  0  0  0  0  0  0  0  0  0  0  0
  184.6590  178.4150  143.3430 C   0  0  0  0  0  3  0  0  0  0  0  0
  182.3840  179.1160  143.3740 F   0  0  0  0  0  0  0  0  0  0  0  0
  183.6340  179.1720  145.3620 N   0  0  0  0  0  0  0  0  0  0  0  0
  183.5490  178.9060  144.0320 C   0  0  0  0  0  0  0  0  0  0  0  0
  184.7870  178.9680  146.0560 C   0  0  0  0  0  3  0  0  0  0  0  0
  187.1810  176.2110  136.4350 O   0  0  0  0  0  0  0  0  0  0  0  0
  186.5640  174.9830  136.7290 C   0  0  0  0  0  2  0  0  0  0  0  0
  187.5140  173.9640  136.6840 O   0  0  0  0  0  0  0  0  0  0  0  0
  186.8170  172.8200  137.0730 C   0  0  0  0  0  2  0  0  0  0  0  0
  185.7780  173.1770  137.9300 O   0  0  0  0  0  1  0  0  0  0  0  0
  1 33  1  6  0  0  0
  1 24  1  0  0  0  0
  2 22  1  6  0  0  0
  2 20  1  0  0  0  0
  3 18  1  0  0  0  0
  4  9  1  0  0  0  0
  5 10  1  0  0  0  0
  6  3  1  0  0  0  0
  6  9  1  0  0  0  0
  7 14  1  0  0  0  0
  8  5  1  0  0  0  0
  8  3  1  0  0  0  0
  9 21  2  0  0  0  0
 10 15  1  0  0  0  0
 11 19  1  0  0  0  0
 11  8  1  0  0  0  0
 12 16  1  0  0  0  0
 12  2  1  0  0  0  0
 13 25  2  0  0  0  0
 14  1  1  0  0  0  0
 14 16  1  0  0  0  0
 16 11  1  0  0  0  0
 17  4  1  0  0  0  0
 18 15  1  0  0  0  0
 18 13  1  0  0  0  0
 19  6  1  0  0  0  0
 20  5  1  0  0  0  0
 21 27  1  0  0  0  0
 21 25  1  0  0  0  0
 22 12  1  0  0  0  0
 23 19  1  0  0  0  0
 23 17  1  0  0  0  0
 24 23  1  0  0  0  0
 24 19  1  0  0  0  0
 26 32  1  0  0  0  0
 27 26  2  0  0  0  0
 28 27  1  0  0  0  0
 28 31  2  0  0  0  0
 29 31  1  0  0  0  0
 30 32  2  0  0  0  0
 31 30  1  0  0  0  0
 33 34  1  0  0  0  0
 35 34  1  0  0  0  0
 35 36  1  0  0  0  0
 36 37  1  0  0  0  0
M  END
>  <MODEL>
2

>  <REMARK>
 VINA RESULT:      -9.4      2.889      6.364
  Name = 
  5 active torsions:
  status: ('A' for Active; 'I' for Inactive)
    1  A    between atoms: C_1  and  O_5
    2  A    between atoms: O_5  and  C_17
    3  A    between atoms: C_6  and  C_31
    4  A    between atoms: C_11  and  O_26
    5  A    between atoms: C_17  and  O_26
                            x       y       z     vdW  Elec       q    Type
                         _______ _______ _______ _____ _____    ______ ____

>  <TORSDO>
F 5

$$$$
=
 OpenBabel10262423013D

 37 45  0  0  1  0  0  0  0  0999 V2000
  185.5390  179.3610  142.6250 C   0  0  1  0  0  3  0  0  0  0  0  0
  186.3290  178.6110  147.2170 C   0  0  2  0  0  3  0  0  0  0  0  0
  189.5310  178.0050  144.1560 C   0  0  1  0  0  3  0  0  0  0  0  0
  189.2080  176.7750  140.6520 C   0  0  0  0  0  2  0  0  0  0  0  0
  188.5280  177.7160  146.5100 C   0  0  2  0  0  3  0  0  0  0  0  0
  189.1500  177.9630  142.8840 C   0  0  1  0  0  3  0  0  0  0  0  0
  183.4630  178.7150  143.9460 C   0  0  0  0  0  1  0  0  0  0  0  0
  188.3440  178.1880  145.0600 C   0  0  2  0  0  3  0  0  0  0  0  0
  189.9740  177.4780  141.7450 C   0  0  0  0  0  0  0  0  0  0  0  0
  189.6040  176.6500  146.6640 C   0  0  0  0  0  2  0  0  0  0  0  0
  187.1960  177.5600  144.2690 C   0  0  1  0  0  3  0  0  0  0  0  0
  185.6610  178.9720  145.8760 C   0  0  1  0  0  3  0  0  0  0  0  0
  191.9540  178.1730  144.0410 C   0  0  0  0  0  3  0  0  0  0  0  0
  184.8660  178.3020  143.5160 C   0  0  2  0  0  3  0  0  0  0  0  0
  190.9120  177.2170  146.1140 C   0  0  0  0  0  2  0  0  0  0  0  0
  185.7670  177.9630  144.7090 C   0  0  1  0  0  3  0  0  0  0  0  0
  187.8780  177.4630  140.3570 C   0  0  0  0  0  2  0  0  0  0  0  0
  190.8200  177.3870  144.5980 C   0  0  1  0  0  3  0  0  0  0  0  0
  187.6650  177.9150  142.8600 C   0  0  2  0  0  0  0  0  0  0  0  0
  187.2020  177.3560  147.1670 C   0  0  0  0  0  2  0  0  0  0  0  0
  191.3280  177.6320  141.6620 C   0  0  0  0  0  0  0  0  0  0  0  0
  184.8730  178.2930  146.9860 C   0  0  0  0  0  2  0  0  0  0  0  0
  186.9530  177.5080  141.5790 C   0  0  1  0  0  3  0  0  0  0  0  0
  186.9260  178.9730  142.0580 C   0  0  1  0  0  3  0  0  0  0  0  0
  192.1610  178.2620  142.7240 C   0  0  0  0  0  3  0  0  0  0  0  0
  193.4710  177.0970  140.4700 C   0  0  0  0  0  3  0  0  0  0  0  0
  192.0740  177.2190  140.4510 C   0  0  0  0  0  0  0  0  0  0  0  0
  191.3900  177.0020  139.2480 C   0  0  0  0  0  3  0  0  0  0  0  0
  191.4470  176.4240  136.9390 F   0  0  0  0  0  0  0  0  0  0  0  0
  193.4560  176.5180  138.1530 N   0  0  0  0  0  0  0  0  0  0  0  0
  192.1030  176.6440  138.1020 C   0  0  0  0  0  0  0  0  0  0  0  0
  194.1490  176.7370  139.3040 C   0  0  0  0  0  3  0  0  0  0  0  0
  184.6890  179.9370  141.6530 O   0  0  0  0  0  0  0  0  0  0  0  0
  184.5240  179.0280  140.5950 C   0  0  0  0  0  2  0  0  0  0  0  0
  184.7430  179.6820  139.3830 O   0  0  0  0  0  0  0  0  0  0  0  0
  184.9260  178.6540  138.4590 C   0  0  0  0  0  2  0  0  0  0  0  0
  186.1490  178.8220  137.8130 O   0  0  0  0  0  1  0  0  0  0  0  0
  1 33  1  6  0  0  0
  1 14  1  0  0  0  0
  2 22  1  1  0  0  0
  3 18  1  0  0  0  0
  3  8  1  0  0  0  0
  4  9  1  0  0  0  0
  5 10  1  0  0  0  0
  5 20  1  0  0  0  0
  6  3  1  0  0  0  0
  8  5  1  0  0  0  0
  9  6  1  0  0  0  0
 11 16  1  0  0  0  0
 11  8  1  0  0  0  0
 12 22  1  0  0  0  0
 12  2  1  0  0  0  0
 13 18  1  0  0  0  0
 14  7  1  0  0  0  0
 14 16  1  0  0  0  0
 15 10  1  0  0  0  0
 16 12  1  0  0  0  0
 17  4  1  0  0  0  0
 17 23  1  0  0  0  0
 18 15  1  0  0  0  0
 19  6  1  0  0  0  0
 19 11  1  0  0  0  0
 20  2  1  0  0  0  0
 21  9  2  0  0  0  0
 21 25  1  0  0  0  0
 23 24  1  0  0  0  0
 23 19  1  0  0  0  0
 24  1  1  0  0  0  0
 24 19  1  0  0  0  0
 25 13  2  0  0  0  0
 27 26  1  0  0  0  0
 27 21  1  0  0  0  0
 28 27  2  0  0  0  0
 29 31  1  0  0  0  0
 30 32  1  0  0  0  0
 31 30  2  0  0  0  0
 31 28  1  0  0  0  0
 32 26  2  0  0  0  0
 34 33  1  0  0  0  0
 35 34  1  0  0  0  0
 36 35  1  0  0  0  0
 37 36  1  0  0  0  0
M  END
>  <MODEL>
3

>  <REMARK>
 VINA RESULT:      -9.2      3.470      6.591
  Name = 
  5 active torsions:
  status: ('A' for Active; 'I' for Inactive)
    1  A    between atoms: C_1  and  O_5
    2  A    between atoms: O_5  and  C_17
    3  A    between atoms: C_6  and  C_31
    4  A    between atoms: C_11  and  O_26
    5  A    between atoms: C_17  and  O_26
                            x       y       z     vdW  Elec       q    Type
                         _______ _______ _______ _____ _____    ______ ____

>  <TORSDO>
F 5

$$$$
=
 OpenBabel10262423013D

 37 45  0  0  1  0  0  0  0  0999 V2000
  187.4000  178.8690  141.2800 C   0  0  1  0  0  3  0  0  0  0  0  0
  183.2950  179.5550  143.5030 C   0  0  2  0  0  3  0  0  0  0  0  0
  186.9990  178.3980  145.7220 C   0  0  1  0  0  3  0  0  0  0  0  0
  189.7860  176.1840  144.6170 C   0  0  0  0  0  2  0  0  0  0  0  0
  184.4500  178.7080  145.5230 C   0  0  2  0  0  3  0  0  0  0  0  0
  188.0220  177.9540  145.0000 C   0  0  1  0  0  3  0  0  0  0  0  0
  185.3510  178.4380  139.8360 C   0  0  0  0  0  1  0  0  0  0  0  0
  185.8260  178.7210  144.8390 C   0  0  2  0  0  3  0  0  0  0  0  0
  189.2150  177.2420  145.5280 C   0  0  0  0  0  0  0  0  0  0  0  0
  184.4080  177.8390  146.7720 C   0  0  0  0  0  2  0  0  0  0  0  0
  186.0130  177.7850  143.6450 C   0  0  1  0  0  3  0  0  0  0  0  0
  184.3830  179.4490  142.4170 C   0  0  1  0  0  3  0  0  0  0  0  0
  187.9480  178.7560  147.9320 C   0  0  0  0  0  3  0  0  0  0  0  0
  186.1070  178.0540  141.1020 C   0  0  2  0  0  3  0  0  0  0  0  0
  185.4810  178.3450  147.7360 C   0  0  0  0  0  2  0  0  0  0  0  0
  185.2360  178.1600  142.3590 C   0  0  1  0  0  3  0  0  0  0  0  0
  189.7810  176.6280  143.1570 C   0  0  0  0  0  2  0  0  0  0  0  0
  186.8730  178.0600  147.1740 C   0  0  1  0  0  3  0  0  0  0  0  0
  187.5390  177.7620  143.6080 C   0  0  2  0  0  0  0  0  0  0  0  0
  183.3240  178.4280  144.5360 C   0  0  0  0  0  2  0  0  0  0  0  0
  189.7780  177.4940  146.7470 C   0  0  0  0  0  0  0  0  0  0  0  0
  182.9440  179.0470  142.1260 C   0  0  0  0  0  2  0  0  0  0  0  0
  188.3720  176.9360  142.6390 C   0  0  1  0  0  3  0  0  0  0  0  0
  188.2830  178.4670  142.4860 C   0  0  1  0  0  3  0  0  0  0  0  0
  189.2390  178.4800  147.7250 C   0  0  0  0  0  3  0  0  0  0  0  0
  191.5480  175.7430  146.4380 C   0  0  0  0  0  3  0  0  0  0  0  0
  191.0290  176.8220  147.1680 C   0  0  0  0  0  0  0  0  0  0  0  0
  191.6780  177.2240  148.3420 C   0  0  0  0  0  3  0  0  0  0  0  0
  193.4770  176.9540  149.8790 F   0  0  0  0  0  0  0  0  0  0  0  0
  193.3300  175.5300  148.0150 N   0  0  0  0  0  0  0  0  0  0  0  0
  192.8390  176.5650  148.7490 C   0  0  0  0  0  0  0  0  0  0  0  0
  192.7120  175.1090  146.8780 C   0  0  0  0  0  3  0  0  0  0  0  0
  188.1440  179.0560  140.0920 O   0  0  0  0  0  0  0  0  0  0  0  0
  188.7540  177.8400  139.7380 C   0  0  0  0  0  2  0  0  0  0  0  0
  189.9050  178.0970  138.9960 O   0  0  0  0  0  0  0  0  0  0  0  0
  190.9110  177.3910  139.6560 C   0  0  0  0  0  2  0  0  0  0  0  0
  190.5660  176.0430  139.7230 O   0  0  0  0  0  1  0  0  0  0  0  0
  1 33  1  6  0  0  0
  1 24  1  0  0  0  0
  2 22  1  6  0  0  0
  2 20  1  0  0  0  0
  3 18  1  0  0  0  0
  4  9  1  0  0  0  0
  5 10  1  0  0  0  0
  6  9  1  0  0  0  0
  6  3  1  0  0  0  0
  7 14  1  0  0  0  0
  8  5  1  0  0  0  0
  8  3  1  0  0  0  0
  9 21  2  0  0  0  0
 10 15  1  0  0  0  0
 11  8  1  0  0  0  0
 12  2  1  0  0  0  0
 14  1  1  0  0  0  0
 14 16  1  0  0  0  0
 16 12  1  0  0  0  0
 16 11  1  0  0  0  0
 17  4  1  0  0  0  0
 18 15  1  0  0  0  0
 18 13  1  0  0  0  0
 19 11  1  0  0  0  0
 19  6  1  0  0  0  0
 20  5  1  0  0  0  0
 21 27  1  0  0  0  0
 21 25  1  0  0  0  0
 22 12  1  0  0  0  0
 23 17  1  0  0  0  0
 23 19  1  0  0  0  0
 24 23  1  0  0  0  0
 24 19  1  0  0  0  0
 25 13  2  0  0  0  0
 26 32  2  0  0  0  0
 26 27  1  0  0  0  0
 27 28  2  0  0  0  0
 28 31  1  0  0  0  0
 30 31  2  0  0  0  0
 31 29  1  0  0  0  0
 32 30  1  0  0  0  0
 34 33  1  0  0  0  0
 35 36  1  0  0  0  0
 35 34  1  0  0  0  0
 36 37  1  0  0  0  0
M  END
>  <MODEL>
4

>  <REMARK>
 VINA RESULT:      -8.4      3.952      7.276
  Name = 
  5 active torsions:
  status: ('A' for Active; 'I' for Inactive)
    1  A    between atoms: C_1  and  O_5
    2  A    between atoms: O_5  and  C_17
    3  A    between atoms: C_6  and  C_31
    4  A    between atoms: C_11  and  O_26
    5  A    between atoms: C_17  and  O_26
                            x       y       z     vdW  Elec       q    Type
                         _______ _______ _______ _____ _____    ______ ____

>  <TORSDO>
F 5

$$$$
=
 OpenBabel10262423013D

 37 45  0  0  1  0  0  0  0  0999 V2000
  185.9450  177.3440  137.4180 C   0  0  1  0  0  3  0  0  0  0  0  0
  190.5430  176.5030  136.7660 C   0  0  2  0  0  3  0  0  0  0  0  0
  188.8050  176.9950  140.8550 C   0  0  1  0  0  3  0  0  0  0  0  0
  186.0110  179.2030  141.9540 C   0  0  0  0  0  2  0  0  0  0  0  0
  190.7760  176.8840  139.2020 C   0  0  2  0  0  3  0  0  0  0  0  0
  187.5800  177.5030  140.9340 C   0  0  1  0  0  3  0  0  0  0  0  0
  186.8460  178.1630  135.1840 C   0  0  0  0  0  1  0  0  0  0  0  0
  189.2570  176.9150  139.4230 C   0  0  2  0  0  3  0  0  0  0  0  0
  186.9350  178.0290  142.1650 C   0  0  0  0  0  0  0  0  0  0  0  0
  191.5650  177.5030  140.3480 C   0  0  0  0  0  2  0  0  0  0  0  0
  188.4830  178.0460  138.7450 C   0  0  1  0  0  3  0  0  0  0  0  0
  189.0400  176.7450  136.5240 C   0  0  1  0  0  3  0  0  0  0  0  0
  189.2480  176.1710  143.0990 C   0  0  0  0  0  3  0  0  0  0  0  0
  186.9580  178.2550  136.7010 C   0  0  2  0  0  3  0  0  0  0  0  0
  191.1940  176.7610  141.6310 C   0  0  0  0  0  2  0  0  0  0  0  0
  188.3780  177.9680  137.2020 C   0  0  1  0  0  3  0  0  0  0  0  0
  185.1680  179.0430  140.6920 C   0  0  0  0  0  2  0  0  0  0  0  0
  189.7460  177.0610  142.0170 C   0  0  1  0  0  3  0  0  0  0  0  0
  187.2050  177.9830  139.5790 C   0  0  2  0  0  0  0  0  0  0  0  0
  191.1650  177.4120  137.8270 C   0  0  0  0  0  2  0  0  0  0  0  0
  187.1430  177.5190  143.4150 C   0  0  0  0  0  0  0  0  0  0  0  0
  190.0860  177.2810  135.5570 C   0  0  0  0  0  2  0  0  0  0  0  0
  186.0200  178.9240  139.4240 C   0  0  1  0  0  3  0  0  0  0  0  0
  185.9210  177.4570  138.9610 C   0  0  1  0  0  3  0  0  0  0  0  0
  188.0820  176.4010  143.7120 C   0  0  0  0  0  3  0  0  0  0  0  0
  187.0090  178.1820  145.8310 C   0  0  0  0  0  3  0  0  0  0  0  0
  186.3870  178.0230  144.5850 C   0  0  0  0  0  0  0  0  0  0  0  0
  185.0170  178.2920  144.4690 C   0  0  0  0  0  3  0  0  0  0  0  0
  182.9820  179.0070  145.4780 F   0  0  0  0  0  0  0  0  0  0  0  0
  184.9360  178.8960  146.7780 N   0  0  0  0  0  0  0  0  0  0  0  0
  184.3050  178.7370  145.5840 C   0  0  0  0  0  0  0  0  0  0  0  0
  186.2620  178.6280  146.9230 C   0  0  0  0  0  3  0  0  0  0  0  0
  184.6530  177.3390  136.8450 O   0  0  0  0  0  0  0  0  0  0  0  0
  183.9790  176.1740  137.2490 C   0  0  0  0  0  2  0  0  0  0  0  0
  182.6180  176.4430  137.3710 O   0  0  0  0  0  0  0  0  0  0  0  0
  182.2220  175.7360  138.5060 C   0  0  0  0  0  2  0  0  0  0  0  0
  182.6980  176.3810  139.6450 O   0  0  0  0  0  1  0  0  0  0  0  0
  1 33  1  6  0  0  0
  1 24  1  0  0  0  0
  2 22  1  6  0  0  0
  2 20  1  0  0  0  0
  3  6  1  0  0  0  0
  3 18  1  0  0  0  0
  4  9  1  0  0  0  0
  5  8  1  0  0  0  0
  5 10  1  0  0  0  0
  6  9  1  0  0  0  0
  7 14  1  0  0  0  0
  8  3  1  0  0  0  0
  9 21  2  0  0  0  0
 10 15  1  0  0  0  0
 11  8  1  0  0  0  0
 11 19  1  0  0  0  0
 12  2  1  0  0  0  0
 12 16  1  0  0  0  0
 13 25  2  0  0  0  0
 14 16  1  0  0  0  0
 14  1  1  0  0  0  0
 15 18  1  0  0  0  0
 16 11  1  0  0  0  0
 17  4  1  0  0  0  0
 18 13  1  0  0  0  0
 19  6  1  0  0  0  0
 20  5  1  0  0  0  0
 21 25  1  0  0  0  0
 21 27  1  0  0  0  0
 22 12  1  0  0  0  0
 23 19  1  0  0  0  0
 23 17  1  0  0  0  0
 24 23  1  0  0  0  0
 24 19  1  0  0  0  0
 26 32  1  0  0  0  0
 27 26  2  0  0  0  0
 28 27  1  0  0  0  0
 28 31  2  0  0  0  0
 29 31  1  0  0  0  0
 30 32  2  0  0  0  0
 31 30  1  0  0  0  0
 33 34  1  0  0  0  0
 34 35  1  0  0  0  0
 35 36  1  0  0  0  0
 36 37  1  0  0  0  0
M  END
>  <MODEL>
5

>  <REMARK>
 VINA RESULT:      -8.4      3.432      7.328
  Name = 
  5 active torsions:
  status: ('A' for Active; 'I' for Inactive)
    1  A    between atoms: C_1  and  O_5
    2  A    between atoms: O_5  and  C_17
    3  A    between atoms: C_6  and  C_31
    4  A    between atoms: C_11  and  O_26
    5  A    between atoms: C_17  and  O_26
                            x       y       z     vdW  Elec       q    Type
                         _______ _______ _______ _____ _____    ______ ____

>  <TORSDO>
F 5

$$$$
=
 OpenBabel10262423013D

 37 45  0  0  1  0  0  0  0  0999 V2000
  182.4580  179.6050  139.7360 C   0  0  1  0  0  3  0  0  0  0  0  0
  183.8420  179.3660  144.2420 C   0  0  2  0  0  3  0  0  0  0  0  0
  186.6490  178.4840  140.8760 C   0  0  1  0  0  3  0  0  0  0  0  0
  185.9230  176.8790  137.5910 C   0  0  0  0  0  2  0  0  0  0  0  0
  185.9590  178.4350  143.3560 C   0  0  2  0  0  3  0  0  0  0  0  0
  186.1120  178.2990  139.6750 C   0  0  1  0  0  3  0  0  0  0  0  0
  180.5850  179.0730  141.3740 C   0  0  0  0  0  1  0  0  0  0  0  0
  185.5800  178.7460  141.9010 C   0  0  2  0  0  3  0  0  0  0  0  0
  186.8000  177.7080  138.4970 C   0  0  0  0  0  0  0  0  0  0  0  0
  187.0770  177.4090  143.4820 C   0  0  0  0  0  2  0  0  0  0  0  0
  184.3610  178.0170  141.3340 C   0  0  1  0  0  3  0  0  0  0  0  0
  182.9990  179.5710  142.9680 C   0  0  1  0  0  3  0  0  0  0  0  0
  189.0320  178.6770  140.4340 C   0  0  0  0  0  3  0  0  0  0  0  0
  181.9340  178.6380  140.8130 C   0  0  2  0  0  3  0  0  0  0  0  0
  188.2890  177.9340  142.7120 C   0  0  0  0  0  2  0  0  0  0  0  0
  182.9880  178.4430  141.9090 C   0  0  1  0  0  3  0  0  0  0  0  0
  184.5470  177.5100  137.3990 C   0  0  0  0  0  2  0  0  0  0  0  0
  188.0010  177.9380  141.2110 C   0  0  1  0  0  3  0  0  0  0  0  0
  184.6380  178.2260  139.8470 C   0  0  2  0  0  0  0  0  0  0  0  0
  184.7380  178.1270  144.2130 C   0  0  0  0  0  2  0  0  0  0  0  0
  188.1280  177.8740  138.2250 C   0  0  0  0  0  0  0  0  0  0  0  0
  182.3780  179.0030  144.2350 C   0  0  0  0  0  2  0  0  0  0  0  0
  183.7830  177.6730  138.7180 C   0  0  1  0  0  3  0  0  0  0  0  0
  183.7730  179.1800  139.0400 C   0  0  1  0  0  3  0  0  0  0  0  0
  189.0690  178.6270  139.1000 C   0  0  0  0  0  3  0  0  0  0  0  0
  188.5720  178.0200  135.7590 C   0  0  0  0  0  3  0  0  0  0  0  0
  188.7270  177.3440  136.9780 C   0  0  0  0  0  0  0  0  0  0  0  0
  189.4110  176.1210  136.9950 C   0  0  0  0  0  3  0  0  0  0  0  0
  190.6150  174.4360  135.8200 F   0  0  0  0  0  0  0  0  0  0  0  0
  189.7930  176.2970  134.6440 N   0  0  0  0  0  0  0  0  0  0  0  0
  189.9450  175.6130  135.8100 C   0  0  0  0  0  0  0  0  0  0  0  0
  189.1210  177.4790  134.5950 C   0  0  0  0  0  3  0  0  0  0  0  0
  181.4760  180.0590  138.8270 O   0  0  0  0  0  0  0  0  0  0  0  0
  181.6030  181.4500  138.6750 C   0  0  0  0  0  2  0  0  0  0  0  0
  180.3760  182.0590  138.9330 O   0  0  0  0  0  0  0  0  0  0  0  0
  180.0190  182.6530  137.7220 C   0  0  0  0  0  2  0  0  0  0  0  0
  180.6760  183.8750  137.5930 O   0  0  0  0  0  1  0  0  0  0  0  0
  1 33  1  6  0  0  0
  1 14  1  0  0  0  0
  2 20  1  6  0  0  0
  3 18  1  0  0  0  0
  3  8  1  0  0  0  0
  4  9  1  0  0  0  0
  5 10  1  0  0  0  0
  5 20  1  0  0  0  0
  6 19  1  0  0  0  0
  6  3  1  0  0  0  0
  8  5  1  0  0  0  0
  9  6  1  0  0  0  0
 11  8  1  0  0  0  0
 11 16  1  0  0  0  0
 12 22  1  0  0  0  0
 12  2  1  0  0  0  0
 13 18  1  0  0  0  0
 14  7  1  0  0  0  0
 14 16  1  0  0  0  0
 15 10  1  0  0  0  0
 16 12  1  0  0  0  0
 17  4  1  0  0  0  0
 17 23  1  0  0  0  0
 18 15  1  0  0  0  0
 19 11  1  0  0  0  0
 21  9  2  0  0  0  0
 21 25  1  0  0  0  0
 22  2  1  0  0  0  0
 23 24  1  0  0  0  0
 23 19  1  0  0  0  0
 24  1  1  0  0  0  0
 24 19  1  0  0  0  0
 25 13  2  0  0  0  0
 26 27  1  0  0  0  0
 27 28  2  0  0  0  0
 27 21  1  0  0  0  0
 30 31  2  0  0  0  0
 31 29  1  0  0  0  0
 31 28  1  0  0  0  0
 32 30  1  0  0  0  0
 32 26  2  0  0  0  0
 34 33  1  0  0  0  0
 34 35  1  0  0  0  0
 36 35  1  0  0  0  0
 37 36  1  0  0  0  0
M  END
>  <MODEL>
6

>  <REMARK>
 VINA RESULT:      -8.4      4.446      7.761
  Name = 
  5 active torsions:
  status: ('A' for Active; 'I' for Inactive)
    1  A    between atoms: C_1  and  O_5
    2  A    between atoms: O_5  and  C_17
    3  A    between atoms: C_6  and  C_31
    4  A    between atoms: C_11  and  O_26
    5  A    between atoms: C_17  and  O_26
                            x       y       z     vdW  Elec       q    Type
                         _______ _______ _______ _____ _____    ______ ____

>  <TORSDO>
F 5

$$$$
=
 OpenBabel10262423013D

 37 45  0  0  1  0  0  0  0  0999 V2000
  183.4370  177.9080  140.6230 C   0  0  1  0  0  3  0  0  0  0  0  0
  186.7520  177.6810  137.2720 C   0  0  2  0  0  3  0  0  0  0  0  0
  187.7850  177.4310  141.6140 C   0  0  1  0  0  3  0  0  0  0  0  0
  186.1700  179.1490  144.5000 C   0  0  0  0  0  2  0  0  0  0  0  0
  188.3850  177.7610  139.1320 C   0  0  2  0  0  3  0  0  0  0  0  0
  186.8420  177.7850  142.4810 C   0  0  1  0  0  3  0  0  0  0  0  0
  182.8210  179.1100  138.4670 C   0  0  0  0  0  1  0  0  0  0  0  0
  187.2960  177.5920  140.2010 C   0  0  2  0  0  3  0  0  0  0  0  0
  187.0510  178.0690  143.9240 C   0  0  0  0  0  0  0  0  0  0  0  0
  189.6940  178.3080  139.6850 C   0  0  0  0  0  2  0  0  0  0  0  0
  186.2580  178.7090  140.3110 C   0  0  1  0  0  3  0  0  0  0  0  0
  185.3980  177.7830  138.0010 C   0  0  1  0  0  3  0  0  0  0  0  0
  189.4870  176.3740  142.9920 C   0  0  0  0  0  3  0  0  0  0  0  0
  183.8130  179.0140  139.6200 C   0  0  2  0  0  3  0  0  0  0  0  0
  190.1690  177.3660  140.7910 C   0  0  0  0  0  2  0  0  0  0  0  0
  185.2550  178.8230  139.1370 C   0  0  1  0  0  3  0  0  0  0  0  0
  184.7420  179.0630  143.9660 C   0  0  0  0  0  2  0  0  0  0  0  0
  189.2320  177.4490  141.9960 C   0  0  1  0  0  3  0  0  0  0  0  0
  185.7290  178.3940  141.7090 C   0  0  2  0  0  0  0  0  0  0  0  0
  187.8730  178.5050  137.9060 C   0  0  0  0  0  2  0  0  0  0  0  0
  187.9680  177.4240  144.7050 C   0  0  0  0  0  0  0  0  0  0  0  0
  185.6560  178.5550  136.7150 C   0  0  0  0  0  2  0  0  0  0  0  0
  184.6730  179.2080  142.4420 C   0  0  1  0  0  3  0  0  0  0  0  0
  184.3350  177.8130  141.8800 C   0  0  1  0  0  3  0  0  0  0  0  0
  188.9130  176.3900  144.1980 C   0  0  0  0  0  3  0  0  0  0  0  0
  186.8970  177.9270  146.9180 C   0  0  0  0  0  3  0  0  0  0  0  0
  188.0520  177.6820  146.1610 C   0  0  0  0  0  0  0  0  0  0  0  0
  189.3030  177.7420  146.7900 C   0  0  0  0  0  3  0  0  0  0  0  0
  190.5800  178.0670  148.7730 F   0  0  0  0  0  0  0  0  0  0  0  0
  188.2380  178.2360  148.8700 N   0  0  0  0  0  0  0  0  0  0  0  0
  189.3750  178.0170  148.1570 C   0  0  0  0  0  0  0  0  0  0  0  0
  187.0110  178.1980  148.2830 C   0  0  0  0  0  3  0  0  0  0  0  0
  182.0580  177.8340  140.9250 O   0  0  0  0  0  0  0  0  0  0  0  0
  181.7280  178.8710  141.8130 C   0  0  0  0  0  2  0  0  0  0  0  0
  180.4640  178.6370  142.3510 O   0  0  0  0  0  0  0  0  0  0  0  0
  180.6760  178.5730  143.7280 C   0  0  0  0  0  2  0  0  0  0  0  0
  179.5020  178.1720  144.3610 O   0  0  0  0  0  1  0  0  0  0  0  0
  1 33  1  1  0  0  0
  1 24  1  0  0  0  0
  2 22  1  6  0  0  0
  2 20  1  0  0  0  0
  2 12  1  0  0  0  0
  3 18  1  0  0  0  0
  3  6  1  0  0  0  0
  5 10  1  0  0  0  0
  5  8  1  0  0  0  0
  6  9  1  0  0  0  0
  7 14  1  0  0  0  0
  8 11  1  0  0  0  0
  8  3  1  0  0  0  0
  9  4  1  0  0  0  0
  9 21  2  0  0  0  0
 10 15  1  0  0  0  0
 11 19  1  0  0  0  0
 12 16  1  0  0  0  0
 13 25  2  0  0  0  0
 14  1  1  0  0  0  0
 15 18  1  0  0  0  0
 16 14  1  0  0  0  0
 16 11  1  0  0  0  0
 17  4  1  0  0  0  0
 18 13  1  0  0  0  0
 19 24  1  0  0  0  0
 19 23  1  0  0  0  0
 19  6  1  0  0  0  0
 20  5  1  0  0  0  0
 21 27  1  0  0  0  0
 22 12  1  0  0  0  0
 23 17  1  0  0  0  0
 24 23  1  0  0  0  0
 25 21  1  0  0  0  0
 26 32  1  0  0  0  0
 27 28  1  0  0  0  0
 27 26  2  0  0  0  0
 28 31  2  0  0  0  0
 31 29  1  0  0  0  0
 31 30  1  0  0  0  0
 32 30  2  0  0  0  0
 33 34  1  0  0  0  0
 34 35  1  0  0  0  0
 35 36  1  0  0  0  0
 36 37  1  0  0  0  0
M  END
>  <MODEL>
7

>  <REMARK>
 VINA RESULT:      -8.4      4.436      8.335
  Name = 
  5 active torsions:
  status: ('A' for Active; 'I' for Inactive)
    1  A    between atoms: C_1  and  O_5
    2  A    between atoms: O_5  and  C_17
    3  A    between atoms: C_6  and  C_31
    4  A    between atoms: C_11  and  O_26
    5  A    between atoms: C_17  and  O_26
                            x       y       z     vdW  Elec       q    Type
                         _______ _______ _______ _____ _____    ______ ____

>  <TORSDO>
F 5

$$$$
=
 OpenBabel10262423013D

 37 45  0  0  1  0  0  0  0  0999 V2000
  188.8980  177.1630  141.1580 C   0  0  1  0  0  3  0  0  0  0  0  0
  186.0440  177.4910  137.4130 C   0  0  2  0  0  3  0  0  0  0  0  0
  190.2040  175.8930  137.0590 C   0  0  1  0  0  3  0  0  0  0  0  0
  193.2610  176.9040  138.9360 C   0  0  0  0  0  2  0  0  0  0  0  0
  188.0210  176.8380  136.0730 C   0  0  2  0  0  3  0  0  0  0  0  0
  191.0200  176.0980  138.0870 C   0  0  1  0  0  3  0  0  0  0  0  0
  187.1420  178.9940  141.3450 C   0  0  0  0  0  1  0  0  0  0  0  0
  188.8570  176.5070  137.3190 C   0  0  2  0  0  3  0  0  0  0  0  0
  192.4970  175.9320  138.0720 C   0  0  0  0  0  0  0  0  0  0  0  0
  188.8620  177.0390  134.8200 C   0  0  0  0  0  2  0  0  0  0  0  0
  189.1730  177.6660  138.2650 C   0  0  1  0  0  3  0  0  0  0  0  0
  186.6070  177.5480  138.8470 C   0  0  1  0  0  3  0  0  0  0  0  0
  191.3930  174.2860  135.6750 C   0  0  0  0  0  3  0  0  0  0  0  0
  188.3220  178.4530  140.5470 C   0  0  2  0  0  3  0  0  0  0  0  0
  189.6850  175.7710  134.5940 C   0  0  0  0  0  2  0  0  0  0  0  0
  187.9760  178.2320  139.0690 C   0  0  1  0  0  3  0  0  0  0  0  0
  192.5620  177.1500  140.2710 C   0  0  0  0  0  2  0  0  0  0  0  0
  190.7400  175.6230  135.6890 C   0  0  1  0  0  3  0  0  0  0  0  0
  190.3400  177.0340  139.0200 C   0  0  2  0  0  0  0  0  0  0  0  0
  187.0220  177.9570  136.3340 C   0  0  0  0  0  2  0  0  0  0  0  0
  193.1510  174.9850  137.3380 C   0  0  0  0  0  0  0  0  0  0  0  0
  185.6500  178.6160  138.3380 C   0  0  0  0  0  2  0  0  0  0  0  0
  191.1540  177.7300  140.1010 C   0  0  1  0  0  3  0  0  0  0  0  0
  190.1660  176.6050  140.4670 C   0  0  1  0  0  3  0  0  0  0  0  0
  192.4730  174.0290  136.4180 C   0  0  0  0  0  3  0  0  0  0  0  0
  195.1890  174.2380  138.5970 C   0  0  0  0  0  3  0  0  0  0  0  0
  194.6170  174.8050  137.4500 C   0  0  0  0  0  0  0  0  0  0  0  0
  195.4580  175.2590  136.4240 C   0  0  0  0  0  3  0  0  0  0  0  0
  197.6590  175.5430  135.5600 F   0  0  0  0  0  0  0  0  0  0  0  0
  197.3680  174.5480  137.6690 N   0  0  0  0  0  0  0  0  0  0  0  0
  196.8410  175.1150  136.5510 C   0  0  0  0  0  0  0  0  0  0  0  0
  196.5770  174.1110  138.6870 C   0  0  0  0  0  3  0  0  0  0  0  0
  189.0000  177.1760  142.5680 O   0  0  0  0  0  0  0  0  0  0  0  0
  189.8070  176.1020  142.9770 C   0  0  0  0  0  2  0  0  0  0  0  0
  190.4160  176.4150  144.1910 O   0  0  0  0  0  0  0  0  0  0  0  0
  191.6230  177.0150  143.8320 C   0  0  0  0  0  2  0  0  0  0  0  0
  191.6780  178.3020  144.3620 O   0  0  0  0  0  1  0  0  0  0  0  0
  1 33  1  1  0  0  0
  2 20  1  6  0  0  0
  2 22  1  0  0  0  0
  2 12  1  0  0  0  0
  3  8  1  0  0  0  0
  3  6  1  0  0  0  0
  4 17  1  0  0  0  0
  5 20  1  0  0  0  0
  5  8  1  0  0  0  0
  6 19  1  0  0  0  0
  8 11  1  0  0  0  0
  9  6  1  0  0  0  0
  9  4  1  0  0  0  0
 10  5  1  0  0  0  0
 11 19  1  0  0  0  0
 11 16  1  0  0  0  0
 12 16  1  0  0  0  0
 13 18  1  0  0  0  0
 13 25  2  0  0  0  0
 14  1  1  0  0  0  0
 14  7  1  0  0  0  0
 15 10  1  0  0  0  0
 15 18  1  0  0  0  0
 16 14  1  0  0  0  0
 18  3  1  0  0  0  0
 19 23  1  0  0  0  0
 19 24  1  0  0  0  0
 21 27  1  0  0  0  0
 21  9  2  0  0  0  0
 22 12  1  0  0  0  0
 23 17  1  0  0  0  0
 23 24  1  0  0  0  0
 24  1  1  0  0  0  0
 25 21  1  0  0  0  0
 26 32  1  0  0  0  0
 27 26  2  0  0  0  0
 28 31  2  0  0  0  0
 28 27  1  0  0  0  0
 29 31  1  0  0  0  0
 30 32  2  0  0  0  0
 31 30  1  0  0  0  0
 33 34  1  0  0  0  0
 34 35  1  0  0  0  0
 36 35  1  0  0  0  0
 36 37  1  0  0  0  0
M  END
>  <MODEL>
8

>  <REMARK>
 VINA RESULT:      -8.3      5.317     10.009
  Name = 
  5 active torsions:
  status: ('A' for Active; 'I' for Inactive)
    1  A    between atoms: C_1  and  O_5
    2  A    between atoms: O_5  and  C_17
    3  A    between atoms: C_6  and  C_31
    4  A    between atoms: C_11  and  O_26
    5  A    between atoms: C_17  and  O_26
                            x       y       z     vdW  Elec       q    Type
                         _______ _______ _______ _____ _____    ______ ____

>  <TORSDO>
F 5

$$$$
=
 OpenBabel10262423013D

 37 45  0  0  1  0  0  0  0  0999 V2000
  185.8710  179.3410  145.0110 C   0  0  1  0  0  3  0  0  0  0  0  0
  188.8390  177.8780  148.3750 C   0  0  2  0  0  3  0  0  0  0  0  0
  189.9410  177.7210  144.0450 C   0  0  1  0  0  3  0  0  0  0  0  0
  187.7520  177.0540  141.1030 C   0  0  0  0  0  2  0  0  0  0  0  0
  190.2700  177.0810  146.5180 C   0  0  2  0  0  3  0  0  0  0  0  0
  188.9580  177.8810  143.1660 C   0  0  1  0  0  3  0  0  0  0  0  0
  184.7220  178.5190  147.1270 C   0  0  0  0  0  1  0  0  0  0  0  0
  189.4100  177.7750  145.4510 C   0  0  2  0  0  3  0  0  0  0  0  0
  189.0310  177.5700  141.7140 C   0  0  0  0  0  0  0  0  0  0  0  0
  191.1720  175.9930  145.9500 C   0  0  0  0  0  2  0  0  0  0  0  0
  187.9680  177.2880  145.3040 C   0  0  1  0  0  3  0  0  0  0  0  0
  187.6120  178.4500  147.6400 C   0  0  1  0  0  3  0  0  0  0  0  0
  191.9630  177.8800  142.7060 C   0  0  0  0  0  3  0  0  0  0  0  0
  185.6600  178.1630  145.9790 C   0  0  2  0  0  3  0  0  0  0  0  0
  192.0550  176.6250  144.8750 C   0  0  0  0  0  2  0  0  0  0  0  0
  187.0120  177.6330  146.4720 C   0  0  1  0  0  3  0  0  0  0  0  0
  186.5280  177.7930  141.6360 C   0  0  0  0  0  2  0  0  0  0  0  0
  191.2120  177.0290  143.6670 C   0  0  1  0  0  3  0  0  0  0  0  0
  187.6750  177.8540  143.9160 C   0  0  2  0  0  0  0  0  0  0  0  0
  189.4450  176.6370  147.7180 C   0  0  0  0  0  2  0  0  0  0  0  0
  190.1570  177.7220  140.9570 C   0  0  0  0  0  0  0  0  0  0  0  0
  187.4500  177.6150  148.9020 C   0  0  0  0  0  2  0  0  0  0  0  0
  186.3730  177.6580  143.1550 C   0  0  1  0  0  3  0  0  0  0  0  0
  186.7270  179.0310  143.7590 C   0  0  1  0  0  3  0  0  0  0  0  0
  191.4710  178.1700  141.4980 C   0  0  0  0  0  3  0  0  0  0  0  0
  190.8620  176.4460  138.9140 C   0  0  0  0  0  3  0  0  0  0  0  0
  190.1330  177.4940  139.4930 C   0  0  0  0  0  0  0  0  0  0  0  0
  189.4220  178.3690  138.6610 C   0  0  0  0  0  3  0  0  0  0  0  0
  188.7380  179.0020  136.4700 F   0  0  0  0  0  0  0  0  0  0  0  0
  190.1340  177.1330  136.7460 N   0  0  0  0  0  0  0  0  0  0  0  0
  189.4300  178.1660  137.2790 C   0  0  0  0  0  0  0  0  0  0  0  0
  190.8450  176.2760  137.5280 C   0  0  0  0  0  3  0  0  0  0  0  0
  184.6980  180.0690  144.7080 O   0  0  0  0  0  0  0  0  0  0  0  0
  183.9710  179.3770  143.7260 C   0  0  0  0  0  2  0  0  0  0  0  0
  182.7190  179.0310  144.2330 O   0  0  0  0  0  0  0  0  0  0  0  0
  181.8850  179.0030  143.1150 C   0  0  0  0  0  2  0  0  0  0  0  0
  182.6230  178.6280  141.9940 O   0  0  0  0  0  1  0  0  0  0  0  0
  1 33  1  6  0  0  0
  1 14  1  0  0  0  0
  2 20  1  6  0  0  0
  2 22  1  0  0  0  0
  3  8  1  0  0  0  0
  4 17  1  0  0  0  0
  4  9  1  0  0  0  0
  5 20  1  0  0  0  0
  6 19  1  0  0  0  0
  6  3  1  0  0  0  0
  8  5  1  0  0  0  0
  9  6  1  0  0  0  0
 10  5  1  0  0  0  0
 11  8  1  0  0  0  0
 11 16  1  0  0  0  0
 12  2  1  0  0  0  0
 12 22  1  0  0  0  0
 13 18  1  0  0  0  0
 14 16  1  0  0  0  0
 14  7  1  0  0  0  0
 15 10  1  0  0  0  0
 16 12  1  0  0  0  0
 17 23  1  0  0  0  0
 18  3  1  0  0  0  0
 18 15  1  0  0  0  0
 19 11  1  0  0  0  0
 21 25  1  0  0  0  0
 21  9  2  0  0  0  0
 23 24  1  0  0  0  0
 23 19  1  0  0  0  0
 24 19  1  0  0  0  0
 24  1  1  0  0  0  0
 25 13  2  0  0  0  0
 26 27  1  0  0  0  0
 27 21  1  0  0  0  0
 28 27  2  0  0  0  0
 29 31  1  0  0  0  0
 30 31  2  0  0  0  0
 30 32  1  0  0  0  0
 31 28  1  0  0  0  0
 32 26  2  0  0  0  0
 34 35  1  0  0  0  0
 34 33  1  0  0  0  0
 36 35  1  0  0  0  0
 37 36  1  0  0  0  0
M  END
>  <MODEL>
9

>  <REMARK>
 VINA RESULT:      -8.3      3.494      6.169
  Name = 
  5 active torsions:
  status: ('A' for Active; 'I' for Inactive)
    1  A    between atoms: C_1  and  O_5
    2  A    between atoms: O_5  and  C_17
    3  A    between atoms: C_6  and  C_31
    4  A    between atoms: C_11  and  O_26
    5  A    between atoms: C_17  and  O_26
                            x       y       z     vdW  Elec       q    Type
                         _______ _______ _______ _____ _____    ______ ____

>  <TORSDO>
F 5

$$$$
