=
 OpenBabel10262422593D

 37 39  0  0  1  0  0  0  0  0999 V2000
  184.7730  178.5810  143.5660 C   0  0  0  0  0  2  0  0  0  0  0  0
  179.5280  177.4820  143.2080 C   0  0  0  0  0  1  0  0  0  0  0  0
  184.5750  178.2920  142.0860 C   0  0  1  0  0  3  0  0  0  0  0  0
  185.5720  176.9570  137.0020 C   0  0  1  0  0  3  0  0  0  0  0  0
  184.5000  179.5010  141.3750 O   0  0  0  0  0  0  0  0  0  0  0  0
  180.2950  176.2400  140.3770 C   0  0  0  0  0  2  0  0  0  0  0  0
  183.6770  178.2480  138.8340 N   0  0  0  0  0  0  0  0  0  0  0  0
  181.7940  176.2900  140.1310 C   0  0  0  0  0  2  0  0  0  0  0  0
  185.0930  178.6610  138.8280 C   0  0  2  0  0  3  0  0  0  0  0  0
  181.5460  179.6310  143.4070 C   0  0  0  0  0  2  0  0  0  0  0  0
  182.4150  178.7100  143.9990 O   0  0  0  0  0  0  0  0  0  0  0  0
  181.0470  179.0950  142.0990 C   0  0  0  0  0  3  0  0  0  0  0  0
  182.1070  176.3180  138.6370 C   0  0  1  0  0  3  0  0  0  0  0  0
  185.7930  178.3910  137.4860 C   0  0  0  0  0  2  0  0  0  0  0  0
  183.5370  176.8370  138.4190 C   0  0  1  0  0  3  0  0  0  0  0  0
  180.1390  178.1180  141.9980 C   0  0  0  0  0  0  0  0  0  0  0  0
  185.7230  178.8080  141.3040 C   0  0  2  0  0  3  0  0  0  0  0  0
  179.7440  177.6340  140.6390 C   0  0  0  0  0  2  0  0  0  0  0  0
  183.6210  179.4020  144.1340 C   0  0  0  0  0  2  0  0  0  0  0  0
  184.0800  176.6050  137.0070 C   0  0  0  0  0  2  0  0  0  0  0  0
  185.8480  178.0220  139.9960 C   0  0  0  0  0  2  0  0  0  0  0  0
  180.7320  174.9490  136.9940 C   0  0  0  0  0  1  0  0  0  0  0  0
  181.8660  174.9380  138.0100 C   0  0  0  0  0  2  0  0  0  0  0  0
  182.9190  179.1360  137.9510 C   0  0  0  0  0  2  0  0  0  0  0  0
  183.2880  181.3200  138.8130 O   0  0  0  0  0  0  0  0  0  0  0  0
  182.4900  180.3530  138.6940 C   0  0  0  0  0  0  0  0  0  0  0  0
  180.3080  181.4620  138.9360 C   0  0  0  0  0  1  0  0  0  0  0  0
  181.2090  180.4090  139.2440 O   0  0  0  0  0  0  0  0  0  0  0  0
  186.2320  176.7350  135.7050 N   0  0  0  0  0  0  0  0  0  0  0  0
  187.0740  175.5420  135.7350 C   0  0  0  0  0  2  0  0  0  0  0  0
  186.8860  174.8170  137.0530 C   0  0  0  0  0  2  0  0  0  0  0  0
  186.3950  173.4110  136.7880 C   0  0  0  0  0  2  0  0  0  0  0  0
  185.2650  173.0840  137.7410 C   0  0  0  0  0  1  0  0  0  0  0  0
  187.0950  177.8730  135.4150 C   0  0  0  0  0  2  0  0  0  0  0  0
  188.5590  177.4740  135.5380 C   0  0  0  0  0  2  0  0  0  0  0  0
  189.4420  177.5110  137.8730 C   0  0  0  0  0  1  0  0  0  0  0  0
  189.2700  178.3080  136.5930 C   0  0  0  0  0  2  0  0  0  0  0  0
  1 19  1  0  0  0  0
  3  1  1  1  0  0  0
  4 29  1  6  0  0  0
  4 20  1  0  0  0  0
  4 14  1  0  0  0  0
  5  3  1  0  0  0  0
  6 18  1  0  0  0  0
  8  6  1  0  0  0  0
  9 14  1  6  0  0  0
  9  7  1  0  0  0  0
  9 21  1  0  0  0  0
 10 11  1  0  0  0  0
 11 19  1  0  0  0  0
 12 10  1  0  0  0  0
 13 23  1  1  0  0  0
 13  8  1  0  0  0  0
 15 20  1  6  0  0  0
 15 13  1  0  0  0  0
 15  7  1  0  0  0  0
 16 12  2  0  0  0  0
 16  2  1  0  0  0  0
 17 21  1  6  0  0  0
 17  5  1  0  0  0  0
 17  3  1  0  0  0  0
 18 16  1  0  0  0  0
 22 23  1  0  0  0  0
 24 26  1  0  0  0  0
 24  7  1  0  0  0  0
 26 25  2  0  0  0  0
 26 28  1  0  0  0  0
 27 28  1  0  0  0  0
 29 30  1  0  0  0  0
 30 31  1  0  0  0  0
 32 31  1  0  0  0  0
 32 33  1  0  0  0  0
 34 35  1  0  0  0  0
 34 29  1  0  0  0  0
 35 37  1  0  0  0  0
 37 36  1  0  0  0  0
M  END
>  <MODEL>
1

>  <REMARK>
 VINA RESULT:      -4.7      0.000      0.000
  Name = 
  11 active torsions:
  status: ('A' for Active; 'I' for Inactive)
    1  A    between atoms: C_1  and  C_23
    2  A    between atoms: C_1  and  N_33
    3  A    between atoms: C_4  and  N_10
    4  A    between atoms: C_4  and  C_24
    5  A    between atoms: C_5  and  C_23
    6  A    between atoms: C_7  and  N_33
    7  A    between atoms: C_17  and  C_26
    8  A    between atoms: C_17  and  N_33
    9  A    between atoms: C_20  and  C_25
   10  A    between atoms: C_24  and  O_28
   11  A    between atoms: C_26  and  C_34
                            x       y       z     vdW  Elec       q    Type
                         _______ _______ _______ _____ _____    ______ ____

>  <TORSDO>
F 11

$$$$
=
 OpenBabel10262422593D

 37 39  0  0  1  0  0  0  0  0999 V2000
  187.8910  177.6880  141.8850 C   0  0  0  0  0  2  0  0  0  0  0  0
  183.4300  177.0320  138.9670 C   0  0  0  0  0  1  0  0  0  0  0  0
  188.4170  177.2010  140.5430 C   0  0  1  0  0  3  0  0  0  0  0  0
  191.6020  175.0430  136.8250 C   0  0  1  0  0  3  0  0  0  0  0  0
  188.8950  178.2930  139.7990 O   0  0  0  0  0  0  0  0  0  0  0  0
  185.3060  175.3190  137.0460 C   0  0  0  0  0  2  0  0  0  0  0  0
  189.2700  176.7590  137.3090 N   0  0  0  0  0  0  0  0  0  0  0  0
  186.7150  175.1950  137.6040 C   0  0  0  0  0  2  0  0  0  0  0  0
  190.5440  177.0350  137.9990 C   0  0  2  0  0  3  0  0  0  0  0  0
  185.3820  178.9930  140.0030 C   0  0  0  0  0  2  0  0  0  0  0  0
  185.6850  178.0950  141.0300 O   0  0  0  0  0  0  0  0  0  0  0  0
  185.5280  178.3170  138.6720 C   0  0  0  0  0  3  0  0  0  0  0  0
  187.7320  174.9720  136.4880 C   0  0  1  0  0  3  0  0  0  0  0  0
  191.7700  176.5070  137.2360 C   0  0  0  0  0  2  0  0  0  0  0  0
  189.1400  175.3210  136.9960 C   0  0  1  0  0  3  0  0  0  0  0  0
  184.6530  177.4220  138.1980 C   0  0  0  0  0  0  0  0  0  0  0  0
  189.8670  177.4890  140.4250 C   0  0  2  0  0  3  0  0  0  0  0  0
  184.9210  176.7810  136.8730 C   0  0  0  0  0  2  0  0  0  0  0  0
  186.7520  178.6850  141.7100 C   0  0  0  0  0  2  0  0  0  0  0  0
  190.2730  174.8330  136.0890 C   0  0  0  0  0  2  0  0  0  0  0  0
  190.5050  176.5090  139.4360 C   0  0  0  0  0  2  0  0  0  0  0  0
  187.6510  172.4930  137.0420 C   0  0  0  0  0  1  0  0  0  0  0  0
  187.6280  173.5430  135.9400 C   0  0  0  0  0  2  0  0  0  0  0  0
  189.2020  177.5720  136.0930 C   0  0  0  0  0  2  0  0  0  0  0  0
  188.8500  179.6330  137.2210 O   0  0  0  0  0  0  0  0  0  0  0  0
  188.4340  178.8200  136.3540 C   0  0  0  0  0  0  0  0  0  0  0  0
  186.8260  178.2160  134.5940 C   0  0  0  0  0  1  0  0  0  0  0  0
  187.2680  179.0760  135.6330 O   0  0  0  0  0  0  0  0  0  0  0  0
  192.7780  174.5710  136.0760 N   0  0  0  0  0  0  0  0  0  0  0  0
  193.7190  173.8740  136.9480 C   0  0  0  0  0  2  0  0  0  0  0  0
  193.7500  172.4010  136.5920 C   0  0  0  0  0  2  0  0  0  0  0  0
  195.0740  171.8080  137.0230 C   0  0  0  0  0  2  0  0  0  0  0  0
  195.5720  172.5300  138.2570 C   0  0  0  0  0  1  0  0  0  0  0  0
  193.4720  175.7240  135.5160 C   0  0  0  0  0  2  0  0  0  0  0  0
  194.8690  175.3310  135.0550 C   0  0  0  0  0  2  0  0  0  0  0  0
  195.5000  177.7160  134.6800 C   0  0  0  0  0  1  0  0  0  0  0  0
  195.8810  176.4220  135.3730 C   0  0  0  0  0  2  0  0  0  0  0  0
  3  1  1  1  0  0  0
  4 29  1  6  0  0  0
  4 14  1  0  0  0  0
  5 17  1  0  0  0  0
  5  3  1  0  0  0  0
  6  8  1  0  0  0  0
  7  9  1  0  0  0  0
  9 14  1  6  0  0  0
  9 21  1  0  0  0  0
 10 11  1  0  0  0  0
 11 19  1  0  0  0  0
 12 10  1  0  0  0  0
 13 23  1  1  0  0  0
 13 15  1  0  0  0  0
 13  8  1  0  0  0  0
 15 20  1  6  0  0  0
 15  7  1  0  0  0  0
 16 12  2  0  0  0  0
 16  2  1  0  0  0  0
 17 21  1  6  0  0  0
 17  3  1  0  0  0  0
 18  6  1  0  0  0  0
 18 16  1  0  0  0  0
 19  1  1  0  0  0  0
 20  4  1  0  0  0  0
 23 22  1  0  0  0  0
 24 26  1  0  0  0  0
 24  7  1  0  0  0  0
 26 25  2  0  0  0  0
 27 28  1  0  0  0  0
 28 26  1  0  0  0  0
 29 30  1  0  0  0  0
 31 30  1  0  0  0  0
 31 32  1  0  0  0  0
 32 33  1  0  0  0  0
 34 29  1  0  0  0  0
 35 37  1  0  0  0  0
 35 34  1  0  0  0  0
 36 37  1  0  0  0  0
M  END
>  <MODEL>
2

>  <REMARK>
 VINA RESULT:      -4.2      4.013      6.365
  Name = 
  11 active torsions:
  status: ('A' for Active; 'I' for Inactive)
    1  A    between atoms: C_1  and  C_23
    2  A    between atoms: C_1  and  N_33
    3  A    between atoms: C_4  and  N_10
    4  A    between atoms: C_4  and  C_24
    5  A    between atoms: C_5  and  C_23
    6  A    between atoms: C_7  and  N_33
    7  A    between atoms: C_17  and  C_26
    8  A    between atoms: C_17  and  N_33
    9  A    between atoms: C_20  and  C_25
   10  A    between atoms: C_24  and  O_28
   11  A    between atoms: C_26  and  C_34
                            x       y       z     vdW  Elec       q    Type
                         _______ _______ _______ _____ _____    ______ ____

>  <TORSDO>
F 11

$$$$
=
 OpenBabel10262422593D

 37 39  0  0  1  0  0  0  0  0999 V2000
  184.6100  178.6490  143.6620 C   0  0  0  0  0  2  0  0  0  0  0  0
  179.4180  177.4490  142.9820 C   0  0  0  0  0  1  0  0  0  0  0  0
  184.5150  178.3200  142.1790 C   0  0  1  0  0  3  0  0  0  0  0  0
  185.8730  176.8810  137.2090 C   0  0  1  0  0  3  0  0  0  0  0  0
  184.4690  179.5100  141.4340 O   0  0  0  0  0  0  0  0  0  0  0  0
  180.3930  176.1530  140.2410 C   0  0  0  0  0  2  0  0  0  0  0  0
  183.8380  178.1830  138.8770 N   0  0  0  0  0  0  0  0  0  0  0  0
  181.9040  176.2240  140.0940 C   0  0  0  0  0  2  0  0  0  0  0  0
  185.2450  178.6200  138.9550 C   0  0  2  0  0  3  0  0  0  0  0  0
  181.3840  179.6380  143.2610 C   0  0  0  0  0  2  0  0  0  0  0  0
  182.2260  178.7470  143.9330 O   0  0  0  0  0  0  0  0  0  0  0  0
  180.9830  179.0620  141.9370 C   0  0  0  0  0  3  0  0  0  0  0  0
  182.3160  176.2210  138.6250 C   0  0  1  0  0  3  0  0  0  0  0  0
  186.0380  178.3300  137.6690 C   0  0  0  0  0  2  0  0  0  0  0  0
  183.7490  176.7600  138.4890 C   0  0  1  0  0  3  0  0  0  0  0  0
  180.0990  178.0660  141.8000 C   0  0  0  0  0  0  0  0  0  0  0  0
  185.7060  178.8370  141.4630 C   0  0  2  0  0  3  0  0  0  0  0  0
  179.8040  177.5430  140.4300 C   0  0  0  0  0  2  0  0  0  0  0  0
  183.4090  179.4630  144.1300 C   0  0  0  0  0  2  0  0  0  0  0  0
  184.3900  176.5030  137.1230 C   0  0  0  0  0  2  0  0  0  0  0  0
  185.9300  178.0220  140.1860 C   0  0  0  0  0  2  0  0  0  0  0  0
  181.0700  174.7870  136.9360 C   0  0  0  0  0  1  0  0  0  0  0  0
  182.1400  174.8220  138.0180 C   0  0  0  0  0  2  0  0  0  0  0  0
  183.1270  179.0350  137.9230 C   0  0  0  0  0  2  0  0  0  0  0  0
  183.2640  181.2450  138.7870 O   0  0  0  0  0  0  0  0  0  0  0  0
  182.5540  180.2180  138.6220 C   0  0  0  0  0  0  0  0  0  0  0  0
  180.3740  181.2990  138.9820 C   0  0  0  0  0  1  0  0  0  0  0  0
  181.2370  180.1760  139.0810 O   0  0  0  0  0  0  0  0  0  0  0  0
  186.6220  176.6390  135.9640 N   0  0  0  0  0  0  0  0  0  0  0  0
  187.1530  177.8830  135.4140 C   0  0  0  0  0  2  0  0  0  0  0  0
  188.6150  177.7020  135.0590 C   0  0  0  0  0  2  0  0  0  0  0  0
  189.2960  176.8880  136.1380 C   0  0  0  0  0  2  0  0  0  0  0  0
  189.6890  177.7970  137.2830 C   0  0  0  0  0  1  0  0  0  0  0  0
  185.7150  176.0730  134.9730 C   0  0  0  0  0  2  0  0  0  0  0  0
  186.1430  174.6570  134.6110 C   0  0  0  0  0  2  0  0  0  0  0  0
  185.3630  173.0040  136.3110 C   0  0  0  0  0  1  0  0  0  0  0  0
  185.0620  173.6470  134.9700 C   0  0  0  0  0  2  0  0  0  0  0  0
  1 19  1  0  0  0  0
  3  1  1  1  0  0  0
  4 29  1  6  0  0  0
  4 14  1  0  0  0  0
  5 17  1  0  0  0  0
  5  3  1  0  0  0  0
  6 18  1  0  0  0  0
  7  9  1  0  0  0  0
  8  6  1  0  0  0  0
  9 14  1  6  0  0  0
  9 21  1  0  0  0  0
 10 11  1  0  0  0  0
 11 19  1  0  0  0  0
 12 10  1  0  0  0  0
 13 23  1  1  0  0  0
 13  8  1  0  0  0  0
 15 20  1  6  0  0  0
 15 13  1  0  0  0  0
 15  7  1  0  0  0  0
 16 12  2  0  0  0  0
 16  2  1  0  0  0  0
 17 21  1  6  0  0  0
 17  3  1  0  0  0  0
 18 16  1  0  0  0  0
 20  4  1  0  0  0  0
 22 23  1  0  0  0  0
 24 26  1  0  0  0  0
 24  7  1  0  0  0  0
 26 25  2  0  0  0  0
 26 28  1  0  0  0  0
 27 28  1  0  0  0  0
 30 29  1  0  0  0  0
 31 30  1  0  0  0  0
 31 32  1  0  0  0  0
 32 33  1  0  0  0  0
 34 29  1  0  0  0  0
 35 37  1  0  0  0  0
 35 34  1  0  0  0  0
 37 36  1  0  0  0  0
M  END
>  <MODEL>
3

>  <REMARK>
 VINA RESULT:      -4.2      0.657      2.248
  Name = 
  11 active torsions:
  status: ('A' for Active; 'I' for Inactive)
    1  A    between atoms: C_1  and  C_23
    2  A    between atoms: C_1  and  N_33
    3  A    between atoms: C_4  and  N_10
    4  A    between atoms: C_4  and  C_24
    5  A    between atoms: C_5  and  C_23
    6  A    between atoms: C_7  and  N_33
    7  A    between atoms: C_17  and  C_26
    8  A    between atoms: C_17  and  N_33
    9  A    between atoms: C_20  and  C_25
   10  A    between atoms: C_24  and  O_28
   11  A    between atoms: C_26  and  C_34
                            x       y       z     vdW  Elec       q    Type
                         _______ _______ _______ _____ _____    ______ ____

>  <TORSDO>
F 11

$$$$
=
 OpenBabel10262422593D

 37 39  0  0  1  0  0  0  0  0999 V2000
  183.2110  174.0800  136.9560 C   0  0  0  0  0  2  0  0  0  0  0  0
  187.5530  176.4280  134.8360 C   0  0  0  0  0  1  0  0  0  0  0  0
  183.4390  175.2810  137.8610 C   0  0  1  0  0  3  0  0  0  0  0  0
  183.3270  178.5110  142.1250 C   0  0  1  0  0  3  0  0  0  0  0  0
  182.5530  176.3130  137.5090 O   0  0  0  0  0  0  0  0  0  0  0  0
  187.7100  177.9560  137.6260 C   0  0  0  0  0  2  0  0  0  0  0  0
  183.8220  178.3380  139.2370 N   0  0  0  0  0  0  0  0  0  0  0  0
  186.6330  177.4790  138.5880 C   0  0  0  0  0  2  0  0  0  0  0  0
  182.5580  177.8280  139.8000 C   0  0  2  0  0  3  0  0  0  0  0  0
  184.6300  176.0680  134.5940 C   0  0  0  0  0  2  0  0  0  0  0  0
  184.7560  174.8650  135.2940 O   0  0  0  0  0  0  0  0  0  0  0  0
  185.2550  177.1830  135.3760 C   0  0  0  0  0  3  0  0  0  0  0  0
  186.2810  178.5630  139.6020 C   0  0  1  0  0  3  0  0  0  0  0  0
  182.1700  178.5060  141.1240 C   0  0  0  0  0  2  0  0  0  0  0  0
  184.9120  178.2570  140.2310 C   0  0  1  0  0  3  0  0  0  0  0  0
  186.5770  177.3500  135.4980 C   0  0  0  0  0  0  0  0  0  0  0  0
  182.2190  175.5650  138.6550 C   0  0  2  0  0  3  0  0  0  0  0  0
  187.0900  178.4770  136.3380 C   0  0  0  0  0  2  0  0  0  0  0  0
  183.4430  174.4330  135.4910 C   0  0  0  0  0  2  0  0  0  0  0  0
  184.6000  179.0780  141.4840 C   0  0  0  0  0  2  0  0  0  0  0  0
  182.6030  176.3050  139.9390 C   0  0  0  0  0  2  0  0  0  0  0  0
  188.3350  177.5110  140.6710 C   0  0  0  0  0  1  0  0  0  0  0  0
  187.4000  178.7130  140.6430 C   0  0  0  0  0  2  0  0  0  0  0  0
  183.6210  179.7160  138.7860 C   0  0  0  0  0  2  0  0  0  0  0  0
  182.1260  179.1430  137.0300 O   0  0  0  0  0  0  0  0  0  0  0  0
  182.3240  179.8330  138.0640 C   0  0  0  0  0  0  0  0  0  0  0  0
  181.0520  181.9320  137.9040 C   0  0  0  0  0  1  0  0  0  0  0  0
  181.3430  180.7000  138.5460 O   0  0  0  0  0  0  0  0  0  0  0  0
  182.9370  179.1880  143.3730 N   0  0  0  0  0  0  0  0  0  0  0  0
  183.1790  178.3380  144.5360 C   0  0  0  0  0  2  0  0  0  0  0  0
  184.1270  179.0360  145.4900 C   0  0  0  0  0  2  0  0  0  0  0  0
  185.5310  178.9880  144.9290 C   0  0  0  0  0  2  0  0  0  0  0  0
  186.1800  177.6730  145.3070 C   0  0  0  0  0  1  0  0  0  0  0  0
  181.5080  179.4700  143.3270 C   0  0  0  0  0  2  0  0  0  0  0  0
  180.7670  178.6320  144.3610 C   0  0  0  0  0  2  0  0  0  0  0  0
  178.9450  179.9160  143.2390 C   0  0  0  0  0  1  0  0  0  0  0  0
  179.2660  178.8660  144.2860 C   0  0  0  0  0  2  0  0  0  0  0  0
  2 16  1  0  0  0  0
  3  1  1  6  0  0  0
  3 17  1  0  0  0  0
  4 29  1  1  0  0  0
  5  3  1  0  0  0  0
  5 17  1  0  0  0  0
  6  8  1  0  0  0  0
  7  9  1  0  0  0  0
  7 15  1  0  0  0  0
  8 13  1  0  0  0  0
  9 21  1  1  0  0  0
  9 14  1  0  0  0  0
 10 11  1  0  0  0  0
 10 12  1  0  0  0  0
 11 19  1  0  0  0  0
 12 16  2  0  0  0  0
 13 15  1  0  0  0  0
 13 23  1  1  0  0  0
 14  4  1  0  0  0  0
 15 20  1  1  0  0  0
 16 18  1  0  0  0  0
 17 21  1  1  0  0  0
 18  6  1  0  0  0  0
 19  1  1  0  0  0  0
 20  4  1  0  0  0  0
 23 22  1  0  0  0  0
 24  7  1  0  0  0  0
 25 26  2  0  0  0  0
 26 28  1  0  0  0  0
 26 24  1  0  0  0  0
 27 28  1  0  0  0  0
 29 30  1  0  0  0  0
 30 31  1  0  0  0  0
 32 33  1  0  0  0  0
 32 31  1  0  0  0  0
 34 29  1  0  0  0  0
 34 35  1  0  0  0  0
 36 37  1  0  0  0  0
 37 35  1  0  0  0  0
M  END
>  <MODEL>
4

>  <REMARK>
 VINA RESULT:      -4.2      2.265      7.665
  Name = 
  11 active torsions:
  status: ('A' for Active; 'I' for Inactive)
    1  A    between atoms: C_1  and  C_23
    2  A    between atoms: C_1  and  N_33
    3  A    between atoms: C_4  and  N_10
    4  A    between atoms: C_4  and  C_24
    5  A    between atoms: C_5  and  C_23
    6  A    between atoms: C_7  and  N_33
    7  A    between atoms: C_17  and  C_26
    8  A    between atoms: C_17  and  N_33
    9  A    between atoms: C_20  and  C_25
   10  A    between atoms: C_24  and  O_28
   11  A    between atoms: C_26  and  C_34
                            x       y       z     vdW  Elec       q    Type
                         _______ _______ _______ _____ _____    ______ ____

>  <TORSDO>
F 11

$$$$
=
 OpenBabel10262422593D

 37 39  0  0  1  0  0  0  0  0999 V2000
  183.2420  178.7260  142.7600 C   0  0  0  0  0  2  0  0  0  0  0  0
  178.9410  176.0240  141.0110 C   0  0  0  0  0  1  0  0  0  0  0  0
  183.6590  178.2600  141.3730 C   0  0  1  0  0  3  0  0  0  0  0  0
  186.6910  176.8580  137.1940 C   0  0  1  0  0  3  0  0  0  0  0  0
  183.5240  179.3180  140.4590 O   0  0  0  0  0  0  0  0  0  0  0  0
  180.9510  174.8370  138.8440 C   0  0  0  0  0  2  0  0  0  0  0  0
  184.0060  177.6530  138.0730 N   0  0  0  0  0  0  0  0  0  0  0  0
  182.3720  175.3290  139.0680 C   0  0  0  0  0  2  0  0  0  0  0  0
  185.1730  178.4830  138.4270 C   0  0  2  0  0  3  0  0  0  0  0  0
  180.1210  178.7030  141.4160 C   0  0  0  0  0  2  0  0  0  0  0  0
  180.9360  178.1540  142.4090 O   0  0  0  0  0  0  0  0  0  0  0  0
  180.2730  177.9250  140.1430 C   0  0  0  0  0  3  0  0  0  0  0  0
  183.1700  175.3200  137.7680 C   0  0  1  0  0  3  0  0  0  0  0  0
  186.3440  178.3270  137.4430 C   0  0  0  0  0  2  0  0  0  0  0  0
  184.3960  176.2370  137.9080 C   0  0  1  0  0  3  0  0  0  0  0  0
  179.7490  176.7090  139.9520 C   0  0  0  0  0  0  0  0  0  0  0  0
  184.8310  179.0360  140.9020 C   0  0  2  0  0  3  0  0  0  0  0  0
  179.9980  176.0080  138.6540 C   0  0  0  0  0  2  0  0  0  0  0  0
  181.7910  179.1950  142.7780 C   0  0  0  0  0  2  0  0  0  0  0  0
  185.4410  176.0610  136.8040 C   0  0  0  0  0  2  0  0  0  0  0  0
  185.6090  178.2150  139.8690 C   0  0  0  0  0  2  0  0  0  0  0  0
  182.8870  173.4600  136.0580 C   0  0  0  0  0  1  0  0  0  0  0  0
  183.5360  173.8840  137.3680 C   0  0  0  0  0  2  0  0  0  0  0  0
  183.4020  178.1790  136.8470 C   0  0  0  0  0  2  0  0  0  0  0  0
  182.1050  179.9250  137.8050 O   0  0  0  0  0  0  0  0  0  0  0  0
  182.1070  178.8430  137.1600 C   0  0  0  0  0  0  0  0  0  0  0  0
  179.7480  179.0370  136.4910 C   0  0  0  0  0  1  0  0  0  0  0  0
  180.9130  178.2630  136.7310 O   0  0  0  0  0  0  0  0  0  0  0  0
  187.7980  176.7380  136.2310 N   0  0  0  0  0  0  0  0  0  0  0  0
  188.3720  175.3950  136.2460 C   0  0  0  0  0  2  0  0  0  0  0  0
  187.8800  174.6160  135.0420 C   0  0  0  0  0  2  0  0  0  0  0  0
  187.9410  173.1340  135.3430 C   0  0  0  0  0  2  0  0  0  0  0  0
  186.8350  172.4230  134.5940 C   0  0  0  0  0  1  0  0  0  0  0  0
  188.8540  177.6690  136.6100 C   0  0  0  0  0  2  0  0  0  0  0  0
  190.0440  176.9150  137.1900 C   0  0  0  0  0  2  0  0  0  0  0  0
  191.2970  176.3120  139.2630 C   0  0  0  0  0  1  0  0  0  0  0  0
  190.1310  177.1010  138.6980 C   0  0  0  0  0  2  0  0  0  0  0  0
  1 19  1  0  0  0  0
  3  1  1  1  0  0  0
  4 29  1  6  0  0  0
  4 14  1  0  0  0  0
  5 17  1  0  0  0  0
  5  3  1  0  0  0  0
  6  8  1  0  0  0  0
  7  9  1  0  0  0  0
  9 14  1  6  0  0  0
  9 21  1  0  0  0  0
 10 11  1  0  0  0  0
 11 19  1  0  0  0  0
 12 10  1  0  0  0  0
 13 23  1  1  0  0  0
 13 15  1  0  0  0  0
 13  8  1  0  0  0  0
 15 20  1  6  0  0  0
 15  7  1  0  0  0  0
 16 12  2  0  0  0  0
 16  2  1  0  0  0  0
 17 21  1  6  0  0  0
 17  3  1  0  0  0  0
 18  6  1  0  0  0  0
 18 16  1  0  0  0  0
 20  4  1  0  0  0  0
 22 23  1  0  0  0  0
 24 26  1  0  0  0  0
 24  7  1  0  0  0  0
 26 25  2  0  0  0  0
 27 28  1  0  0  0  0
 28 26  1  0  0  0  0
 29 30  1  0  0  0  0
 29 34  1  0  0  0  0
 31 32  1  0  0  0  0
 31 30  1  0  0  0  0
 33 32  1  0  0  0  0
 34 35  1  0  0  0  0
 35 37  1  0  0  0  0
 37 36  1  0  0  0  0
M  END
>  <MODEL>
5

>  <REMARK>
 VINA RESULT:      -3.6      1.620      2.105
  Name = 
  11 active torsions:
  status: ('A' for Active; 'I' for Inactive)
    1  A    between atoms: C_1  and  C_23
    2  A    between atoms: C_1  and  N_33
    3  A    between atoms: C_4  and  N_10
    4  A    between atoms: C_4  and  C_24
    5  A    between atoms: C_5  and  C_23
    6  A    between atoms: C_7  and  N_33
    7  A    between atoms: C_17  and  C_26
    8  A    between atoms: C_17  and  N_33
    9  A    between atoms: C_20  and  C_25
   10  A    between atoms: C_24  and  O_28
   11  A    between atoms: C_26  and  C_34
                            x       y       z     vdW  Elec       q    Type
                         _______ _______ _______ _____ _____    ______ ____

>  <TORSDO>
F 11

$$$$
=
 OpenBabel10262422593D

 37 39  0  0  1  0  0  0  0  0999 V2000
  187.5760  172.6380  136.7850 C   0  0  0  0  0  2  0  0  0  0  0  0
  192.0670  175.2760  138.0980 C   0  0  0  0  0  1  0  0  0  0  0  0
  187.0680  174.0100  137.2050 C   0  0  1  0  0  3  0  0  0  0  0  0
  183.8400  177.9120  138.9270 C   0  0  1  0  0  3  0  0  0  0  0  0
  186.7970  174.7820  136.0640 O   0  0  0  0  0  0  0  0  0  0  0  0
  190.0850  177.3060  139.5470 C   0  0  0  0  0  2  0  0  0  0  0  0
  186.3580  177.2890  137.5550 N   0  0  0  0  0  0  0  0  0  0  0  0
  188.6420  176.8350  139.4630 C   0  0  0  0  0  2  0  0  0  0  0  0
  185.0970  176.6790  137.0940 C   0  0  2  0  0  3  0  0  0  0  0  0
  190.3550  174.3650  135.8690 C   0  0  0  0  0  2  0  0  0  0  0  0
  189.8650  173.3570  136.7040 O   0  0  0  0  0  0  0  0  0  0  0  0
  190.1950  175.7010  136.5310 C   0  0  0  0  0  3  0  0  0  0  0  0
  187.6730  178.0110  139.5510 C   0  0  1  0  0  3  0  0  0  0  0  0
  183.8570  177.5150  137.4500 C   0  0  0  0  0  2  0  0  0  0  0  0
  186.3000  177.5910  139.0000 C   0  0  1  0  0  3  0  0  0  0  0  0
  190.9600  176.1190  137.5460 C   0  0  0  0  0  0  0  0  0  0  0  0
  185.6840  174.2160  136.7160 C   0  0  2  0  0  3  0  0  0  0  0  0
  190.6840  177.4570  138.1570 C   0  0  0  0  0  2  0  0  0  0  0  0
  188.8540  172.7450  135.9610 C   0  0  0  0  0  2  0  0  0  0  0  0
  185.1670  178.5650  139.3320 C   0  0  0  0  0  2  0  0  0  0  0  0
  184.9730  175.2410  137.6050 C   0  0  0  0  0  2  0  0  0  0  0  0
  187.9270  177.4840  142.0250 C   0  0  0  0  0  1  0  0  0  0  0  0
  187.6050  178.5500  140.9860 C   0  0  0  0  0  2  0  0  0  0  0  0
  186.6150  178.5000  136.7730 C   0  0  0  0  0  2  0  0  0  0  0  0
  187.7770  177.6200  134.8960 O   0  0  0  0  0  0  0  0  0  0  0  0
  187.8360  178.3220  135.9410 C   0  0  0  0  0  0  0  0  0  0  0  0
  189.0470  180.0400  137.2190 C   0  0  0  0  0  1  0  0  0  0  0  0
  189.0270  178.9380  136.3240 O   0  0  0  0  0  0  0  0  0  0  0  0
  182.6560  178.7320  139.2350 N   0  0  0  0  0  0  0  0  0  0  0  0
  182.8820  180.1360  138.9040 C   0  0  0  0  0  2  0  0  0  0  0  0
  181.6090  180.7410  138.3460 C   0  0  0  0  0  2  0  0  0  0  0  0
  180.9920  179.7830  137.3500 C   0  0  0  0  0  2  0  0  0  0  0  0
  179.7740  180.4260  136.7210 C   0  0  0  0  0  1  0  0  0  0  0  0
  182.3900  178.6560  140.6660 C   0  0  0  0  0  2  0  0  0  0  0  0
  180.9360  178.2790  140.9160 C   0  0  0  0  0  2  0  0  0  0  0  0
  180.9110  179.1420  143.2580 C   0  0  0  0  0  1  0  0  0  0  0  0
  180.2750  179.2480  141.8850 C   0  0  0  0  0  2  0  0  0  0  0  0
  3  1  1  6  0  0  0
  4 29  1  6  0  0  0
  4 20  1  0  0  0  0
  5 17  1  0  0  0  0
  5  3  1  0  0  0  0
  7 15  1  0  0  0  0
  8  6  1  0  0  0  0
  8 13  1  0  0  0  0
  9 14  1  1  0  0  0
  9  7  1  0  0  0  0
  9 21  1  0  0  0  0
 10 12  1  0  0  0  0
 10 11  1  0  0  0  0
 12 16  2  0  0  0  0
 13 23  1  1  0  0  0
 14  4  1  0  0  0  0
 15 20  1  6  0  0  0
 15 13  1  0  0  0  0
 16  2  1  0  0  0  0
 16 18  1  0  0  0  0
 17  3  1  0  0  0  0
 17 21  1  1  0  0  0
 18  6  1  0  0  0  0
 19 11  1  0  0  0  0
 19  1  1  0  0  0  0
 23 22  1  0  0  0  0
 24  7  1  0  0  0  0
 25 26  2  0  0  0  0
 26 28  1  0  0  0  0
 26 24  1  0  0  0  0
 28 27  1  0  0  0  0
 29 34  1  0  0  0  0
 30 29  1  0  0  0  0
 31 30  1  0  0  0  0
 32 31  1  0  0  0  0
 33 32  1  0  0  0  0
 34 35  1  0  0  0  0
 35 37  1  0  0  0  0
 37 36  1  0  0  0  0
M  END
>  <MODEL>
6

>  <REMARK>
 VINA RESULT:      -3.0      3.175      8.290
  Name = 
  11 active torsions:
  status: ('A' for Active; 'I' for Inactive)
    1  A    between atoms: C_1  and  C_23
    2  A    between atoms: C_1  and  N_33
    3  A    between atoms: C_4  and  N_10
    4  A    between atoms: C_4  and  C_24
    5  A    between atoms: C_5  and  C_23
    6  A    between atoms: C_7  and  N_33
    7  A    between atoms: C_17  and  C_26
    8  A    between atoms: C_17  and  N_33
    9  A    between atoms: C_20  and  C_25
   10  A    between atoms: C_24  and  O_28
   11  A    between atoms: C_26  and  C_34
                            x       y       z     vdW  Elec       q    Type
                         _______ _______ _______ _____ _____    ______ ____

>  <TORSDO>
F 11

$$$$
=
 OpenBabel10262422593D

 37 39  0  0  1  0  0  0  0  0999 V2000
  187.5140  178.2840  137.8690 C   0  0  0  0  0  2  0  0  0  0  0  0
  186.1720  174.2410  134.5960 C   0  0  0  0  0  1  0  0  0  0  0  0
  185.9930  178.2960  137.8990 C   0  0  1  0  0  3  0  0  0  0  0  0
  180.9470  179.9710  138.4920 C   0  0  1  0  0  3  0  0  0  0  0  0
  185.5390  177.6670  139.0710 O   0  0  0  0  0  0  0  0  0  0  0  0
  183.2920  175.6010  134.5990 C   0  0  0  0  0  2  0  0  0  0  0  0
  182.7040  177.6330  138.2570 N   0  0  0  0  0  0  0  0  0  0  0  0
  183.2840  176.8950  135.3970 C   0  0  0  0  0  2  0  0  0  0  0  0
  182.9900  178.6710  139.2650 C   0  0  2  0  0  3  0  0  0  0  0  0
  187.0990  174.9580  137.3090 C   0  0  0  0  0  2  0  0  0  0  0  0
  187.6120  176.1460  136.7800 O   0  0  0  0  0  0  0  0  0  0  0  0
  185.6500  174.8220  136.9480 C   0  0  0  0  0  3  0  0  0  0  0  0
  181.8900  177.2010  135.9380 C   0  0  1  0  0  3  0  0  0  0  0  0
  181.7390  179.4550  139.6940 C   0  0  0  0  0  2  0  0  0  0  0  0
  181.9950  178.2060  137.0960 C   0  0  1  0  0  3  0  0  0  0  0  0
  185.2200  174.5050  135.7210 C   0  0  0  0  0  0  0  0  0  0  0  0
  185.5090  179.0750  139.0650 C   0  0  2  0  0  3  0  0  0  0  0  0
  183.7480  174.4360  135.4650 C   0  0  0  0  0  2  0  0  0  0  0  0
  188.0610  176.8610  137.8920 C   0  0  0  0  0  2  0  0  0  0  0  0
  180.6600  178.8380  137.5010 C   0  0  0  0  0  2  0  0  0  0  0  0
  184.1010  179.6050  138.7800 C   0  0  0  0  0  2  0  0  0  0  0  0
  179.7760  176.7530  134.5990 C   0  0  0  0  0  1  0  0  0  0  0  0
  180.9660  177.6780  134.8090 C   0  0  0  0  0  2  0  0  0  0  0  0
  181.9180  176.5670  138.8820 C   0  0  0  0  0  2  0  0  0  0  0  0
  183.6620  174.9730  138.6280 O   0  0  0  0  0  0  0  0  0  0  0  0
  182.4410  175.2360  138.4680 C   0  0  0  0  0  0  0  0  0  0  0  0
  180.2180  174.1920  138.3270 C   0  0  0  0  0  1  0  0  0  0  0  0
  181.5720  174.2960  137.9140 O   0  0  0  0  0  0  0  0  0  0  0  0
  179.7430  180.6960  138.9310 N   0  0  0  0  0  0  0  0  0  0  0  0
  179.4920  181.8660  138.0940 C   0  0  0  0  0  2  0  0  0  0  0  0
  180.7670  182.2640  137.3770 C   0  0  0  0  0  2  0  0  0  0  0  0
  180.6330  183.6800  136.8610 C   0  0  0  0  0  2  0  0  0  0  0  0
  181.6450  184.5670  137.5550 C   0  0  0  0  0  1  0  0  0  0  0  0
  179.9500  181.1690  140.2940 C   0  0  0  0  0  2  0  0  0  0  0  0
  178.9320  180.5370  141.2350 C   0  0  0  0  0  2  0  0  0  0  0  0
  179.4400  179.2780  143.3300 C   0  0  0  0  0  1  0  0  0  0  0  0
  179.3800  180.6500  142.6850 C   0  0  0  0  0  2  0  0  0  0  0  0
  1 19  1  0  0  0  0
  2 16  1  0  0  0  0
  3  1  1  1  0  0  0
  3 17  1  0  0  0  0
  3  5  1  0  0  0  0
  4 29  1  1  0  0  0
  4 14  1  0  0  0  0
  6  8  1  0  0  0  0
  6 18  1  0  0  0  0
  7 24  1  0  0  0  0
  7  9  1  0  0  0  0
  8 13  1  0  0  0  0
  9 21  1  6  0  0  0
  9 14  1  0  0  0  0
 11 10  1  0  0  0  0
 11 19  1  0  0  0  0
 12 10  1  0  0  0  0
 13 23  1  6  0  0  0
 13 15  1  0  0  0  0
 15 20  1  1  0  0  0
 15  7  1  0  0  0  0
 16 12  2  0  0  0  0
 17 21  1  6  0  0  0
 17  5  1  0  0  0  0
 18 16  1  0  0  0  0
 20  4  1  0  0  0  0
 22 23  1  0  0  0  0
 26 25  2  0  0  0  0
 26 24  1  0  0  0  0
 28 27  1  0  0  0  0
 28 26  1  0  0  0  0
 29 34  1  0  0  0  0
 30 29  1  0  0  0  0
 31 30  1  0  0  0  0
 32 31  1  0  0  0  0
 32 33  1  0  0  0  0
 34 35  1  0  0  0  0
 35 37  1  0  0  0  0
 37 36  1  0  0  0  0
M  END
>  <MODEL>
7

>  <REMARK>
 VINA RESULT:      -2.6      2.703      7.437
  Name = 
  11 active torsions:
  status: ('A' for Active; 'I' for Inactive)
    1  A    between atoms: C_1  and  C_23
    2  A    between atoms: C_1  and  N_33
    3  A    between atoms: C_4  and  N_10
    4  A    between atoms: C_4  and  C_24
    5  A    between atoms: C_5  and  C_23
    6  A    between atoms: C_7  and  N_33
    7  A    between atoms: C_17  and  C_26
    8  A    between atoms: C_17  and  N_33
    9  A    between atoms: C_20  and  C_25
   10  A    between atoms: C_24  and  O_28
   11  A    between atoms: C_26  and  C_34
                            x       y       z     vdW  Elec       q    Type
                         _______ _______ _______ _____ _____    ______ ____

>  <TORSDO>
F 11

$$$$
=
 OpenBabel10262422593D

 37 39  0  0  1  0  0  0  0  0999 V2000
  182.2600  177.3170  139.7030 C   0  0  0  0  0  2  0  0  0  0  0  0
  181.2270  172.9510  136.7500 C   0  0  0  0  0  1  0  0  0  0  0  0
  183.6070  176.9890  139.0770 C   0  0  1  0  0  3  0  0  0  0  0  0
  188.8860  176.7530  138.2370 C   0  0  1  0  0  3  0  0  0  0  0  0
  183.8360  177.8340  137.9780 O   0  0  0  0  0  0  0  0  0  0  0  0
  184.3920  172.5970  136.7220 C   0  0  0  0  0  2  0  0  0  0  0  0
  186.2300  176.3880  137.0410 N   0  0  0  0  0  0  0  0  0  0  0  0
  185.0820  173.6560  137.5670 C   0  0  0  0  0  2  0  0  0  0  0  0
  186.5640  177.6540  137.7220 C   0  0  2  0  0  3  0  0  0  0  0  0
  181.0240  175.8960  136.8750 C   0  0  0  0  0  2  0  0  0  0  0  0
  181.0690  175.8040  138.2690 O   0  0  0  0  0  0  0  0  0  0  0  0
  182.1990  175.1810  136.2780 C   0  0  0  0  0  3  0  0  0  0  0  0
  186.5060  173.9080  137.0810 C   0  0  1  0  0  3  0  0  0  0  0  0
  188.0730  177.9490  137.7380 C   0  0  0  0  0  2  0  0  0  0  0  0
  187.0010  175.2640  137.6100 C   0  0  1  0  0  3  0  0  0  0  0  0
  182.3030  173.8480  136.2230 C   0  0  0  0  0  0  0  0  0  0  0  0
  184.5140  178.1580  139.1690 C   0  0  2  0  0  3  0  0  0  0  0  0
  183.5400  173.2420  135.6390 C   0  0  0  0  0  2  0  0  0  0  0  0
  181.1210  177.1290  138.7070 C   0  0  0  0  0  2  0  0  0  0  0  0
  188.5090  175.4800  137.4690 C   0  0  0  0  0  2  0  0  0  0  0  0
  185.9700  177.6830  139.1320 C   0  0  0  0  0  2  0  0  0  0  0  0
  187.8650  171.9200  136.2650 C   0  0  0  0  0  1  0  0  0  0  0  0
  187.4240  172.7410  137.4690 C   0  0  0  0  0  2  0  0  0  0  0  0
  186.4920  176.5360  135.6080 C   0  0  0  0  0  2  0  0  0  0  0  0
  184.4030  177.4640  134.9580 O   0  0  0  0  0  0  0  0  0  0  0  0
  185.6490  177.6250  135.0440 C   0  0  0  0  0  0  0  0  0  0  0  0
  187.6560  178.9910  134.6450 C   0  0  0  0  0  1  0  0  0  0  0  0
  186.2470  178.8140  134.6240 O   0  0  0  0  0  0  0  0  0  0  0  0
  190.3270  177.0550  138.2180 N   0  0  0  0  0  0  0  0  0  0  0  0
  190.9940  176.3910  137.1010 C   0  0  0  0  0  2  0  0  0  0  0  0
  192.2280  175.6680  137.6000 C   0  0  0  0  0  2  0  0  0  0  0  0
  192.9840  175.0910  136.4230 C   0  0  0  0  0  2  0  0  0  0  0  0
  192.8860  173.5800  136.4530 C   0  0  0  0  0  1  0  0  0  0  0  0
  190.9280  176.5540  139.4480 C   0  0  0  0  0  2  0  0  0  0  0  0
  190.0140  176.8280  140.6350 C   0  0  0  0  0  2  0  0  0  0  0  0
  189.9600  178.5520  142.4400 C   0  0  0  0  0  1  0  0  0  0  0  0
  190.7830  177.4570  141.7880 C   0  0  0  0  0  2  0  0  0  0  0  0
  3 17  1  0  0  0  0
  3  1  1  1  0  0  0
  4 29  1  6  0  0  0
  5  3  1  0  0  0  0
  5 17  1  0  0  0  0
  6  8  1  0  0  0  0
  7 15  1  0  0  0  0
  7  9  1  0  0  0  0
  9 14  1  1  0  0  0
  9 21  1  0  0  0  0
 10 11  1  0  0  0  0
 11 19  1  0  0  0  0
 12 10  1  0  0  0  0
 13 23  1  1  0  0  0
 13  8  1  0  0  0  0
 13 15  1  0  0  0  0
 14  4  1  0  0  0  0
 15 20  1  6  0  0  0
 16 12  2  0  0  0  0
 16  2  1  0  0  0  0
 17 21  1  6  0  0  0
 18 16  1  0  0  0  0
 18  6  1  0  0  0  0
 19  1  1  0  0  0  0
 20  4  1  0  0  0  0
 22 23  1  0  0  0  0
 24  7  1  0  0  0  0
 25 26  2  0  0  0  0
 26 24  1  0  0  0  0
 28 27  1  0  0  0  0
 28 26  1  0  0  0  0
 29 34  1  0  0  0  0
 30 31  1  0  0  0  0
 30 29  1  0  0  0  0
 32 33  1  0  0  0  0
 32 31  1  0  0  0  0
 34 35  1  0  0  0  0
 35 37  1  0  0  0  0
 37 36  1  0  0  0  0
M  END
>  <MODEL>
8

>  <REMARK>
 VINA RESULT:      -2.4      2.802      5.687
  Name = 
  11 active torsions:
  status: ('A' for Active; 'I' for Inactive)
    1  A    between atoms: C_1  and  C_23
    2  A    between atoms: C_1  and  N_33
    3  A    between atoms: C_4  and  N_10
    4  A    between atoms: C_4  and  C_24
    5  A    between atoms: C_5  and  C_23
    6  A    between atoms: C_7  and  N_33
    7  A    between atoms: C_17  and  C_26
    8  A    between atoms: C_17  and  N_33
    9  A    between atoms: C_20  and  C_25
   10  A    between atoms: C_24  and  O_28
   11  A    between atoms: C_26  and  C_34
                            x       y       z     vdW  Elec       q    Type
                         _______ _______ _______ _____ _____    ______ ____

>  <TORSDO>
F 11

$$$$
=
 OpenBabel10262422593D

 37 39  0  0  1  0  0  0  0  0999 V2000
  193.2570  177.2220  139.7270 C   0  0  0  0  0  2  0  0  0  0  0  0
  193.1130  175.6480  134.5940 C   0  0  0  0  0  1  0  0  0  0  0  0
  191.7790  177.3040  139.3750 C   0  0  1  0  0  3  0  0  0  0  0  0
  186.6120  178.6880  139.4740 C   0  0  1  0  0  3  0  0  0  0  0  0
  191.1120  176.1720  139.8730 O   0  0  0  0  0  0  0  0  0  0  0  0
  190.2090  176.9580  134.5940 C   0  0  0  0  0  2  0  0  0  0  0  0
  188.5740  176.7430  138.4830 N   0  0  0  0  0  0  0  0  0  0  0  0
  189.8940  177.6200  135.9250 C   0  0  0  0  0  2  0  0  0  0  0  0
  188.5130  177.0610  139.9230 C   0  0  2  0  0  3  0  0  0  0  0  0
  193.2860  174.7450  137.4020 C   0  0  0  0  0  2  0  0  0  0  0  0
  193.8050  175.9990  137.7350 O   0  0  0  0  0  0  0  0  0  0  0  0
  191.9860  174.9070  136.6730 C   0  0  0  0  0  3  0  0  0  0  0  0
  188.3890  177.6690  136.1730 C   0  0  1  0  0  3  0  0  0  0  0  0
  187.1310  177.5640  140.3710 C   0  0  0  0  0  2  0  0  0  0  0  0
  188.1190  177.8890  137.6700 C   0  0  1  0  0  3  0  0  0  0  0  0
  191.8970  175.3220  135.4040 C   0  0  0  0  0  0  0  0  0  0  0  0
  190.9600  177.3630  140.6100 C   0  0  2  0  0  3  0  0  0  0  0  0
  190.5430  175.4860  134.7890 C   0  0  0  0  0  2  0  0  0  0  0  0
  193.9050  175.9800  139.1280 C   0  0  0  0  0  2  0  0  0  0  0  0
  186.6770  178.2810  137.9970 C   0  0  0  0  0  2  0  0  0  0  0  0
  189.6220  178.0440  140.3060 C   0  0  0  0  0  2  0  0  0  0  0  0
  186.4700  178.2140  134.5970 C   0  0  0  0  0  1  0  0  0  0  0  0
  187.7280  178.7290  135.2810 C   0  0  0  0  0  2  0  0  0  0  0  0
  187.7570  175.5550  138.2240 C   0  0  0  0  0  2  0  0  0  0  0  0
  189.6130  174.1330  137.7990 O   0  0  0  0  0  0  0  0  0  0  0  0
  188.5140  174.5880  137.3840 C   0  0  0  0  0  0  0  0  0  0  0  0
  186.6540  174.4720  135.7770 C   0  0  0  0  0  1  0  0  0  0  0  0
  187.9950  174.1920  136.1500 O   0  0  0  0  0  0  0  0  0  0  0  0
  185.2780  179.1330  139.9110 N   0  0  0  0  0  0  0  0  0  0  0  0
  184.7330  178.2470  140.9360 C   0  0  0  0  0  2  0  0  0  0  0  0
  184.4970  179.0280  142.2130 C   0  0  0  0  0  2  0  0  0  0  0  0
  184.6930  178.1150  143.4040 C   0  0  0  0  0  2  0  0  0  0  0  0
  185.9030  178.5680  144.1930 C   0  0  0  0  0  1  0  0  0  0  0  0
  184.3720  179.0930  138.7700 C   0  0  0  0  0  2  0  0  0  0  0  0
  183.1890  178.1800  139.0640 C   0  0  0  0  0  2  0  0  0  0  0  0
  183.2310  177.4540  136.6760 C   0  0  0  0  0  1  0  0  0  0  0  0
  182.3540  177.9410  137.8140 C   0  0  0  0  0  2  0  0  0  0  0  0
  2 16  1  0  0  0  0
  3  1  1  1  0  0  0
  3  5  1  0  0  0  0
  3 17  1  0  0  0  0
  4 29  1  1  0  0  0
  4 14  1  0  0  0  0
  5 17  1  0  0  0  0
  6 18  1  0  0  0  0
  6  8  1  0  0  0  0
  7  9  1  0  0  0  0
  8 13  1  0  0  0  0
  9 21  1  6  0  0  0
  9 14  1  0  0  0  0
 10 11  1  0  0  0  0
 11 19  1  0  0  0  0
 12 10  1  0  0  0  0
 13 23  1  6  0  0  0
 13 15  1  0  0  0  0
 15 20  1  6  0  0  0
 15  7  1  0  0  0  0
 16 12  2  0  0  0  0
 17 21  1  6  0  0  0
 18 16  1  0  0  0  0
 19  1  1  0  0  0  0
 20  4  1  0  0  0  0
 22 23  1  0  0  0  0
 24  7  1  0  0  0  0
 26 25  2  0  0  0  0
 26 24  1  0  0  0  0
 27 28  1  0  0  0  0
 28 26  1  0  0  0  0
 29 30  1  0  0  0  0
 30 31  1  0  0  0  0
 31 32  1  0  0  0  0
 32 33  1  0  0  0  0
 34 35  1  0  0  0  0
 34 29  1  0  0  0  0
 36 37  1  0  0  0  0
 37 35  1  0  0  0  0
M  END
>  <MODEL>
9

>  <REMARK>
 VINA RESULT:      -1.9      3.802      8.710
  Name = 
  11 active torsions:
  status: ('A' for Active; 'I' for Inactive)
    1  A    between atoms: C_1  and  C_23
    2  A    between atoms: C_1  and  N_33
    3  A    between atoms: C_4  and  N_10
    4  A    between atoms: C_4  and  C_24
    5  A    between atoms: C_5  and  C_23
    6  A    between atoms: C_7  and  N_33
    7  A    between atoms: C_17  and  C_26
    8  A    between atoms: C_17  and  N_33
    9  A    between atoms: C_20  and  C_25
   10  A    between atoms: C_24  and  O_28
   11  A    between atoms: C_26  and  C_34
                            x       y       z     vdW  Elec       q    Type
                         _______ _______ _______ _____ _____    ______ ____

>  <TORSDO>
F 11

$$$$
