=
 OpenBabel10262419343D

 31 35  0  0  0  0  0  0  0  0999 V2000
  187.4520  177.7750  144.5430 C   0  0  0  0  0  0  0  0  0  0  0  0
  187.8480  177.8340  145.9040 C   0  0  0  0  0  0  0  0  0  0  0  0
  189.5380  177.6010  147.6430 C   0  0  0  0  0  0  0  0  0  0  0  0
  189.1670  177.5470  146.2980 C   0  0  0  0  0  3  0  0  0  0  0  0
  185.5810  178.4290  146.5520 C   0  0  0  0  0  3  0  0  0  0  0  0
  190.8150  177.3280  148.0050 F   0  0  0  0  0  0  0  0  0  0  0  0
  186.0990  178.0660  144.2050 C   0  0  0  0  0  0  0  0  0  0  0  0
  188.5960  177.9380  148.6160 C   0  0  0  0  0  3  0  0  0  0  0  0
  185.1880  178.3780  145.2180 C   0  0  0  0  0  3  0  0  0  0  0  0
  186.9010  178.1650  146.9020 C   0  0  0  0  0  0  0  0  0  0  0  0
  187.2790  178.2180  148.2460 C   0  0  0  0  0  3  0  0  0  0  0  0
  188.4250  177.3490  143.5130 C   0  0  0  0  0  0  0  0  0  0  0  0
  189.4160  177.5170  141.2890 C   0  0  0  0  0  0  0  0  0  0  0  0
  190.1970  175.6960  142.7990 C   0  0  0  0  0  2  0  0  0  0  0  0
  188.4100  177.8970  142.2950 C   0  0  0  0  0  3  0  0  0  0  0  0
  189.4270  176.3780  143.8390 N   0  0  0  0  0  2  0  0  0  0  0  0
  190.2800  176.5210  141.5430 C   0  0  0  0  0  3  0  0  0  0  0  0
  189.4590  178.2320  140.0880 O   0  0  0  0  0  0  0  0  0  0  0  0
  188.4750  178.0970  139.0700 C   0  0  0  0  0  1  0  0  0  0  0  0
  185.5490  178.0960  142.8320 C   0  0  0  0  0  3  0  0  0  0  0  0
  185.0090  179.1610  142.2480 C   0  0  0  0  0  3  0  0  0  0  0  0
  181.0000  178.1860  138.9100 C   0  0  0  0  0  0  0  0  0  0  0  0
  182.0820  178.3170  141.1050 C   0  0  0  0  0  3  0  0  0  0  0  0
  184.4570  179.3420  138.7390 O   0  0  0  0  0  0  0  0  0  0  0  0
  185.2170  179.4840  139.7940 N   0  0  0  0  0  0  0  0  0  0  0  0
  179.7970  177.8730  138.0950 C   0  0  0  0  0  1  0  0  0  0  0  0
  184.4840  179.1320  140.8770 C   0  0  0  0  0  0  0  0  0  0  0  0
  180.9550  178.0270  140.3140 C   0  0  0  0  0  3  0  0  0  0  0  0
  183.2700  178.9160  139.0890 C   0  0  0  0  0  0  0  0  0  0  0  0
  183.2260  178.7630  140.4460 C   0  0  0  0  0  0  0  0  0  0  0  0
  182.1740  178.6380  138.2770 C   0  0  0  0  0  3  0  0  0  0  0  0
  1  2  1  0  0  0  0
  2  4  2  0  0  0  0
  2 10  1  0  0  0  0
  3  6  1  0  0  0  0
  3  8  2  0  0  0  0
  4  3  1  0  0  0  0
  5 10  1  0  0  0  0
  7  1  2  0  0  0  0
  7  9  1  0  0  0  0
  9  5  2  0  0  0  0
 10 11  2  0  0  0  0
 11  8  1  0  0  0  0
 12 16  1  0  0  0  0
 12  1  1  0  0  0  0
 13 17  2  0  0  0  0
 13 15  1  0  0  0  0
 14 16  1  0  0  0  0
 15 12  2  0  0  0  0
 17 14  1  0  0  0  0
 18 13  1  0  0  0  0
 19 18  1  0  0  0  0
 20  7  1  0  0  0  0
 21 20  2  0  0  0  0
 22 28  1  0  0  0  0
 24 29  1  0  0  0  0
 24 25  1  0  0  0  0
 25 27  2  0  0  0  0
 26 22  1  0  0  0  0
 27 21  1  0  0  0  0
 28 23  2  0  0  0  0
 29 30  2  0  0  0  0
 30 27  1  0  0  0  0
 30 23  1  0  0  0  0
 31 22  2  0  0  0  0
 31 29  1  0  0  0  0
M  END
>  <MODEL>
1

>  <REMARK>
 VINA RESULT:     -11.0      0.000      0.000
  Name = 
  4 active torsions:
  status: ('A' for Active; 'I' for Inactive)
    1  A    between atoms: O_2  and  C_13
    2  A    between atoms: C_4  and  C_12
    3  A    between atoms: C_9  and  C_23
    4  A    between atoms: C_15  and  C_21
                            x       y       z     vdW  Elec       q    Type
                         _______ _______ _______ _____ _____    ______ ____

>  <TORSDO>
F 4

$$$$
=
 OpenBabel10262419343D

 31 35  0  0  0  0  0  0  0  0999 V2000
  187.7660  177.6190  144.0330 C   0  0  0  0  0  0  0  0  0  0  0  0
  187.0940  177.9610  145.2360 C   0  0  0  0  0  0  0  0  0  0  0  0
  187.0110  178.0960  147.6660 C   0  0  0  0  0  0  0  0  0  0  0  0
  187.6910  177.7620  146.4920 C   0  0  0  0  0  3  0  0  0  0  0  0
  185.1520  178.6810  143.9590 C   0  0  0  0  0  3  0  0  0  0  0  0
  187.6040  177.9030  148.8690 F   0  0  0  0  0  0  0  0  0  0  0  0
  187.1070  177.8330  142.7880 C   0  0  0  0  0  0  0  0  0  0  0  0
  185.7230  178.6310  147.6010 C   0  0  0  0  0  3  0  0  0  0  0  0
  185.8090  178.3520  142.7770 C   0  0  0  0  0  3  0  0  0  0  0  0
  185.7840  178.4950  145.1840 C   0  0  0  0  0  0  0  0  0  0  0  0
  185.1100  178.8270  146.3620 C   0  0  0  0  0  3  0  0  0  0  0  0
  189.1020  176.9850  144.0950 C   0  0  0  0  0  0  0  0  0  0  0  0
  191.2650  176.6270  145.1650 C   0  0  0  0  0  0  0  0  0  0  0  0
  190.8490  175.5630  142.9510 C   0  0  0  0  0  2  0  0  0  0  0  0
  189.9590  177.3010  145.0690 C   0  0  0  0  0  3  0  0  0  0  0  0
  189.4610  175.9850  143.1330 N   0  0  0  0  0  2  0  0  0  0  0  0
  191.6600  175.7800  144.2010 C   0  0  0  0  0  3  0  0  0  0  0  0
  192.0590  176.8740  146.2900 O   0  0  0  0  0  0  0  0  0  0  0  0
  192.1120  175.9960  147.4090 C   0  0  0  0  0  1  0  0  0  0  0  0
  187.6940  177.5760  141.4550 C   0  0  0  0  0  3  0  0  0  0  0  0
  187.7990  178.4740  140.4800 C   0  0  0  0  0  3  0  0  0  0  0  0
  191.8560  176.5230  137.6700 C   0  0  0  0  0  0  0  0  0  0  0  0
  190.6620  177.1270  139.7230 C   0  0  0  0  0  3  0  0  0  0  0  0
  188.5880  178.0210  137.0420 O   0  0  0  0  0  0  0  0  0  0  0  0
  187.7860  178.4150  137.9970 N   0  0  0  0  0  0  0  0  0  0  0  0
  193.0600  175.9500  137.0120 C   0  0  0  0  0  1  0  0  0  0  0  0
  188.4000  178.1600  139.1770 C   0  0  0  0  0  0  0  0  0  0  0  0
  191.7920  176.5880  139.0800 C   0  0  0  0  0  3  0  0  0  0  0  0
  189.6880  177.5230  137.5490 C   0  0  0  0  0  0  0  0  0  0  0  0
  189.6260  177.5850  138.9120 C   0  0  0  0  0  0  0  0  0  0  0  0
  190.7900  176.9970  136.8810 C   0  0  0  0  0  3  0  0  0  0  0  0
  1 12  1  0  0  0  0
  1  2  1  0  0  0  0
  2  4  1  0  0  0  0
  3  6  1  0  0  0  0
  4  3  2  0  0  0  0
  5 10  1  0  0  0  0
  7  1  2  0  0  0  0
  8  3  1  0  0  0  0
  9  7  1  0  0  0  0
  9  5  2  0  0  0  0
 10  2  2  0  0  0  0
 10 11  1  0  0  0  0
 11  8  2  0  0  0  0
 12 15  2  0  0  0  0
 13 18  1  0  0  0  0
 14 16  1  0  0  0  0
 14 17  1  0  0  0  0
 15 13  1  0  0  0  0
 16 12  1  0  0  0  0
 17 13  2  0  0  0  0
 18 19  1  0  0  0  0
 20  7  1  0  0  0  0
 21 20  2  0  0  0  0
 22 28  1  0  0  0  0
 24 29  1  0  0  0  0
 24 25  1  0  0  0  0
 25 27  2  0  0  0  0
 26 22  1  0  0  0  0
 27 21  1  0  0  0  0
 28 23  2  0  0  0  0
 29 30  2  0  0  0  0
 30 27  1  0  0  0  0
 30 23  1  0  0  0  0
 31 29  1  0  0  0  0
 31 22  2  0  0  0  0
M  END
>  <MODEL>
2

>  <REMARK>
 VINA RESULT:     -10.8      3.082      5.612
  Name = 
  4 active torsions:
  status: ('A' for Active; 'I' for Inactive)
    1  A    between atoms: O_2  and  C_13
    2  A    between atoms: C_4  and  C_12
    3  A    between atoms: C_9  and  C_23
    4  A    between atoms: C_15  and  C_21
                            x       y       z     vdW  Elec       q    Type
                         _______ _______ _______ _____ _____    ______ ____

>  <TORSDO>
F 4

$$$$
=
 OpenBabel10262419343D

 31 35  0  0  0  0  0  0  0  0999 V2000
  188.9830  177.4560  144.1000 C   0  0  0  0  0  0  0  0  0  0  0  0
  188.6300  177.5870  145.4690 C   0  0  0  0  0  0  0  0  0  0  0  0
  187.0320  178.1760  147.2100 C   0  0  0  0  0  0  0  0  0  0  0  0
  187.3590  178.0440  145.8580 C   0  0  0  0  0  3  0  0  0  0  0  0
  190.8530  176.8470  146.1250 C   0  0  0  0  0  3  0  0  0  0  0  0
  185.8000  178.6120  147.5680 F   0  0  0  0  0  0  0  0  0  0  0  0
  190.2900  176.9970  143.7650 C   0  0  0  0  0  0  0  0  0  0  0  0
  187.9710  177.8570  148.1920 C   0  0  0  0  0  3  0  0  0  0  0  0
  191.2010  176.7110  144.7850 C   0  0  0  0  0  3  0  0  0  0  0  0
  189.5760  177.2760  146.4740 C   0  0  0  0  0  0  0  0  0  0  0  0
  189.2420  177.4110  147.8240 C   0  0  0  0  0  3  0  0  0  0  0  0
  188.0190  177.8590  143.0520 C   0  0  0  0  0  0  0  0  0  0  0  0
  185.7440  178.1410  142.2160 C   0  0  0  0  0  0  0  0  0  0  0  0
  187.6400  178.6190  140.6730 C   0  0  0  0  0  2  0  0  0  0  0  0
  186.7070  177.6850  143.2320 C   0  0  0  0  0  3  0  0  0  0  0  0
  188.4910  178.4910  141.8560 N   0  0  0  0  0  2  0  0  0  0  0  0
  186.1810  178.6210  141.0400 C   0  0  0  0  0  3  0  0  0  0  0  0
  184.3800  178.0840  142.5190 O   0  0  0  0  0  0  0  0  0  0  0  0
  183.8230  178.6560  143.6970 C   0  0  0  0  0  1  0  0  0  0  0  0
  190.7860  176.7610  142.3910 C   0  0  0  0  0  3  0  0  0  0  0  0
  191.7220  177.4840  141.7820 C   0  0  0  0  0  3  0  0  0  0  0  0
  190.6070  176.0310  136.8010 C   0  0  0  0  0  0  0  0  0  0  0  0
  190.0730  176.5620  139.1340 C   0  0  0  0  0  3  0  0  0  0  0  0
  193.5370  176.9610  138.7690 O   0  0  0  0  0  0  0  0  0  0  0  0
  193.4760  177.2820  140.0350 N   0  0  0  0  0  0  0  0  0  0  0  0
  190.1520  175.6130  135.4490 C   0  0  0  0  0  1  0  0  0  0  0  0
  192.1800  177.1970  140.4170 C   0  0  0  0  0  0  0  0  0  0  0  0
  189.6650  176.1680  137.8460 C   0  0  0  0  0  3  0  0  0  0  0  0
  192.3430  176.6740  138.3150 C   0  0  0  0  0  0  0  0  0  0  0  0
  191.4310  176.8060  139.3240 C   0  0  0  0  0  0  0  0  0  0  0  0
  191.9730  176.2860  137.0310 C   0  0  0  0  0  3  0  0  0  0  0  0
  1  2  1  0  0  0  0
  2  4  2  0  0  0  0
  2 10  1  0  0  0  0
  3  6  1  0  0  0  0
  3  8  2  0  0  0  0
  4  3  1  0  0  0  0
  5 10  1  0  0  0  0
  7  1  2  0  0  0  0
  7  9  1  0  0  0  0
  9  5  2  0  0  0  0
 10 11  2  0  0  0  0
 11  8  1  0  0  0  0
 12 15  2  0  0  0  0
 12  1  1  0  0  0  0
 13 18  1  0  0  0  0
 13 15  1  0  0  0  0
 14 17  1  0  0  0  0
 14 16  1  0  0  0  0
 16 12  1  0  0  0  0
 17 13  2  0  0  0  0
 18 19  1  0  0  0  0
 20  7  1  0  0  0  0
 21 20  2  0  0  0  0
 22 31  2  0  0  0  0
 22 28  1  0  0  0  0
 23 30  1  0  0  0  0
 24 25  1  0  0  0  0
 25 27  2  0  0  0  0
 26 22  1  0  0  0  0
 27 21  1  0  0  0  0
 28 23  2  0  0  0  0
 29 24  1  0  0  0  0
 29 30  2  0  0  0  0
 30 27  1  0  0  0  0
 31 29  1  0  0  0  0
M  END
>  <MODEL>
3

>  <REMARK>
 VINA RESULT:     -10.6      2.957      6.299
  Name = 
  4 active torsions:
  status: ('A' for Active; 'I' for Inactive)
    1  A    between atoms: O_2  and  C_13
    2  A    between atoms: C_4  and  C_12
    3  A    between atoms: C_9  and  C_23
    4  A    between atoms: C_15  and  C_21
                            x       y       z     vdW  Elec       q    Type
                         _______ _______ _______ _____ _____    ______ ____

>  <TORSDO>
F 4

$$$$
=
 OpenBabel10262419343D

 31 35  0  0  0  0  0  0  0  0999 V2000
  186.7680  178.1390  144.7290 C   0  0  0  0  0  0  0  0  0  0  0  0
  187.5310  177.9850  145.9160 C   0  0  0  0  0  0  0  0  0  0  0  0
  189.6320  177.5050  147.0510 C   0  0  0  0  0  0  0  0  0  0  0  0
  188.8980  177.6620  145.8730 C   0  0  0  0  0  3  0  0  0  0  0  0
  185.5530  178.4310  147.2610 C   0  0  0  0  0  3  0  0  0  0  0  0
  190.9510  177.1990  146.9910 F   0  0  0  0  0  0  0  0  0  0  0  0
  185.3830  178.4580  144.8360 C   0  0  0  0  0  0  0  0  0  0  0  0
  189.0100  177.6660  148.2900 C   0  0  0  0  0  3  0  0  0  0  0  0
  184.8010  178.5880  146.1000 C   0  0  0  0  0  3  0  0  0  0  0  0
  186.9100  178.1370  147.1790 C   0  0  0  0  0  0  0  0  0  0  0  0
  187.6510  177.9790  148.3540 C   0  0  0  0  0  3  0  0  0  0  0  0
  187.4010  177.9000  143.4140 C   0  0  0  0  0  0  0  0  0  0  0  0
  189.1090  176.8770  142.0030 C   0  0  0  0  0  0  0  0  0  0  0  0
  187.5190  178.4840  140.9590 C   0  0  0  0  0  2  0  0  0  0  0  0
  188.5120  177.1650  143.3190 C   0  0  0  0  0  3  0  0  0  0  0  0
  186.7900  178.4150  142.2250 N   0  0  0  0  0  2  0  0  0  0  0  0
  188.6160  177.4560  140.8970 C   0  0  0  0  0  3  0  0  0  0  0  0
  190.1750  175.9730  141.9410 O   0  0  0  0  0  0  0  0  0  0  0  0
  190.9180  175.5710  143.0860 C   0  0  0  0  0  1  0  0  0  0  0  0
  184.4720  178.6990  143.6950 C   0  0  0  0  0  3  0  0  0  0  0  0
  183.1440  178.7100  143.7670 C   0  0  0  0  0  3  0  0  0  0  0  0
  182.2110  178.1140  138.5770 C   0  0  0  0  0  0  0  0  0  0  0  0
  183.4730  177.8160  140.6570 C   0  0  0  0  0  3  0  0  0  0  0  0
  180.6330  179.7100  141.4550 O   0  0  0  0  0  0  0  0  0  0  0  0
  181.1390  179.6720  142.6610 N   0  0  0  0  0  0  0  0  0  0  0  0
  182.0770  177.8710  137.1170 C   0  0  0  0  0  1  0  0  0  0  0  0
  182.2900  178.9620  142.5990 C   0  0  0  0  0  0  0  0  0  0  0  0
  183.3260  177.5970  139.2740 C   0  0  0  0  0  3  0  0  0  0  0  0
  181.4020  179.0580  140.6200 C   0  0  0  0  0  0  0  0  0  0  0  0
  182.4790  178.5570  141.2930 C   0  0  0  0  0  0  0  0  0  0  0  0
  181.2260  178.8600  139.2530 C   0  0  0  0  0  3  0  0  0  0  0  0
  1  7  2  0  0  0  0
  1  2  1  0  0  0  0
  2 10  1  0  0  0  0
  3  8  2  0  0  0  0
  4  2  2  0  0  0  0
  4  3  1  0  0  0  0
  6  3  1  0  0  0  0
  7  9  1  0  0  0  0
  8 11  1  0  0  0  0
  9  5  2  0  0  0  0
 10  5  1  0  0  0  0
 10 11  2  0  0  0  0
 12  1  1  0  0  0  0
 13 15  1  0  0  0  0
 14 16  1  0  0  0  0
 15 12  2  0  0  0  0
 16 12  1  0  0  0  0
 17 14  1  0  0  0  0
 17 13  2  0  0  0  0
 18 13  1  0  0  0  0
 18 19  1  0  0  0  0
 20 21  2  0  0  0  0
 20  7  1  0  0  0  0
 22 31  2  0  0  0  0
 22 28  1  0  0  0  0
 23 30  1  0  0  0  0
 24 25  1  0  0  0  0
 26 22  1  0  0  0  0
 27 25  2  0  0  0  0
 27 21  1  0  0  0  0
 28 23  2  0  0  0  0
 29 30  2  0  0  0  0
 29 24  1  0  0  0  0
 30 27  1  0  0  0  0
 31 29  1  0  0  0  0
M  END
>  <MODEL>
4

>  <REMARK>
 VINA RESULT:     -10.4      1.752      2.358
  Name = 
  4 active torsions:
  status: ('A' for Active; 'I' for Inactive)
    1  A    between atoms: O_2  and  C_13
    2  A    between atoms: C_4  and  C_12
    3  A    between atoms: C_9  and  C_23
    4  A    between atoms: C_15  and  C_21
                            x       y       z     vdW  Elec       q    Type
                         _______ _______ _______ _____ _____    ______ ____

>  <TORSDO>
F 4

$$$$
=
 OpenBabel10262419343D

 31 35  0  0  0  0  0  0  0  0999 V2000
  188.8440  177.3560  143.7230 C   0  0  0  0  0  0  0  0  0  0  0  0
  188.9880  177.3960  145.1340 C   0  0  0  0  0  0  0  0  0  0  0  0
  188.1120  177.8910  147.3530 C   0  0  0  0  0  0  0  0  0  0  0  0
  187.9500  177.8490  145.9660 C   0  0  0  0  0  3  0  0  0  0  0  0
  191.2660  176.5640  144.9370 C   0  0  0  0  0  3  0  0  0  0  0  0
  187.0990  178.3260  148.1400 F   0  0  0  0  0  0  0  0  0  0  0  0
  189.9350  176.8960  142.9300 C   0  0  0  0  0  0  0  0  0  0  0  0
  189.3160  177.4830  147.9290 C   0  0  0  0  0  3  0  0  0  0  0  0
  191.1270  176.5180  143.5530 C   0  0  0  0  0  3  0  0  0  0  0  0
  190.2070  176.9940  145.7310 C   0  0  0  0  0  0  0  0  0  0  0  0
  190.3630  177.0370  147.1190 C   0  0  0  0  0  3  0  0  0  0  0  0
  187.5980  177.8530  143.0990 C   0  0  0  0  0  0  0  0  0  0  0  0
  185.1910  178.2500  143.1220 C   0  0  0  0  0  0  0  0  0  0  0  0
  186.4580  178.7810  141.0440 C   0  0  0  0  0  2  0  0  0  0  0  0
  186.4230  177.7020  143.7140 C   0  0  0  0  0  3  0  0  0  0  0  0
  187.6570  178.5510  141.8490 N   0  0  0  0  0  2  0  0  0  0  0  0
  185.2170  178.7960  141.8950 C   0  0  0  0  0  3  0  0  0  0  0  0
  184.0140  178.2080  143.8770 O   0  0  0  0  0  0  0  0  0  0  0  0
  183.8220  178.9820  145.0560 C   0  0  0  0  0  1  0  0  0  0  0  0
  189.9190  176.7490  141.4580 C   0  0  0  0  0  3  0  0  0  0  0  0
  190.8750  177.1740  140.6380 C   0  0  0  0  0  3  0  0  0  0  0  0
  188.2160  177.7580  136.0820 C   0  0  0  0  0  0  0  0  0  0  0  0
  188.5500  177.9590  138.5020 C   0  0  0  0  0  3  0  0  0  0  0  0
  191.4160  176.4110  137.2060 O   0  0  0  0  0  0  0  0  0  0  0  0
  191.7950  176.4180  138.4580 N   0  0  0  0  0  0  0  0  0  0  0  0
  187.3620  177.9840  134.8870 C   0  0  0  0  0  1  0  0  0  0  0  0
  190.8060  176.9930  139.1820 C   0  0  0  0  0  0  0  0  0  0  0  0
  187.7580  178.1630  137.3560 C   0  0  0  0  0  3  0  0  0  0  0  0
  190.2310  176.9550  137.0880 C   0  0  0  0  0  0  0  0  0  0  0  0
  189.7880  177.3470  138.3190 C   0  0  0  0  0  0  0  0  0  0  0  0
  189.4740  177.1420  135.9350 C   0  0  0  0  0  3  0  0  0  0  0  0
  1  2  1  0  0  0  0
  2 10  2  0  0  0  0
  2  4  1  0  0  0  0
  3  8  1  0  0  0  0
  3  6  1  0  0  0  0
  4  3  2  0  0  0  0
  5 10  1  0  0  0  0
  7  9  1  0  0  0  0
  7  1  2  0  0  0  0
  9  5  2  0  0  0  0
 10 11  1  0  0  0  0
 11  8  2  0  0  0  0
 12 15  2  0  0  0  0
 12  1  1  0  0  0  0
 13 15  1  0  0  0  0
 13 18  1  0  0  0  0
 14 16  1  0  0  0  0
 14 17  1  0  0  0  0
 16 12  1  0  0  0  0
 17 13  2  0  0  0  0
 18 19  1  0  0  0  0
 20  7  1  0  0  0  0
 21 20  2  0  0  0  0
 22 28  1  0  0  0  0
 24 25  1  0  0  0  0
 25 27  2  0  0  0  0
 26 22  1  0  0  0  0
 27 21  1  0  0  0  0
 28 23  2  0  0  0  0
 29 24  1  0  0  0  0
 29 30  2  0  0  0  0
 30 23  1  0  0  0  0
 30 27  1  0  0  0  0
 31 22  2  0  0  0  0
 31 29  1  0  0  0  0
M  END
>  <MODEL>
5

>  <REMARK>
 VINA RESULT:     -10.3      2.827      5.600
  Name = 
  4 active torsions:
  status: ('A' for Active; 'I' for Inactive)
    1  A    between atoms: O_2  and  C_13
    2  A    between atoms: C_4  and  C_12
    3  A    between atoms: C_9  and  C_23
    4  A    between atoms: C_15  and  C_21
                            x       y       z     vdW  Elec       q    Type
                         _______ _______ _______ _____ _____    ______ ____

>  <TORSDO>
F 4

$$$$
=
 OpenBabel10262419343D

 31 35  0  0  0  0  0  0  0  0999 V2000
  187.7360  177.9560  143.6530 C   0  0  0  0  0  0  0  0  0  0  0  0
  186.4250  178.2070  144.1360 C   0  0  0  0  0  0  0  0  0  0  0  0
  184.8200  178.3560  145.9620 C   0  0  0  0  0  0  0  0  0  0  0  0
  186.1170  178.1140  145.5050 C   0  0  0  0  0  3  0  0  0  0  0  0
  185.6530  178.6130  141.8660 C   0  0  0  0  0  3  0  0  0  0  0  0
  184.5410  178.2670  147.2850 F   0  0  0  0  0  0  0  0  0  0  0  0
  187.9870  178.0560  142.2540 C   0  0  0  0  0  0  0  0  0  0  0  0
  183.8100  178.6900  145.0580 C   0  0  0  0  0  3  0  0  0  0  0  0
  186.9380  178.3740  141.3880 C   0  0  0  0  0  3  0  0  0  0  0  0
  185.3910  178.5380  143.2300 C   0  0  0  0  0  0  0  0  0  0  0  0
  184.0950  178.7790  143.6940 C   0  0  0  0  0  3  0  0  0  0  0  0
  188.7960  177.5310  144.5940 C   0  0  0  0  0  0  0  0  0  0  0  0
  189.7620  177.4050  146.8320 C   0  0  0  0  0  0  0  0  0  0  0  0
  191.0840  176.5100  144.9200 C   0  0  0  0  0  2  0  0  0  0  0  0
  188.7390  177.8780  145.8830 C   0  0  0  0  0  3  0  0  0  0  0  0
  189.8650  176.6950  144.1330 N   0  0  0  0  0  2  0  0  0  0  0  0
  190.8320  176.7260  146.3880 C   0  0  0  0  0  3  0  0  0  0  0  0
  189.5730  177.6590  148.1940 O   0  0  0  0  0  0  0  0  0  0  0  0
  188.3040  177.9770  148.7540 C   0  0  0  0  0  1  0  0  0  0  0  0
  189.3050  177.8740  141.6080 C   0  0  0  0  0  3  0  0  0  0  0  0
  189.5060  177.2840  140.4330 C   0  0  0  0  0  3  0  0  0  0  0  0
  192.5400  175.8720  136.3150 C   0  0  0  0  0  0  0  0  0  0  0  0
  190.4240  176.2030  137.5060 C   0  0  0  0  0  3  0  0  0  0  0  0
  192.9810  177.2120  139.6810 O   0  0  0  0  0  0  0  0  0  0  0  0
  191.9830  177.4640  140.4870 N   0  0  0  0  0  0  0  0  0  0  0  0
  193.2640  175.4390  135.0910 C   0  0  0  0  0  1  0  0  0  0  0  0
  190.8400  177.1390  139.8370 C   0  0  0  0  0  0  0  0  0  0  0  0
  191.1300  175.7990  136.3570 C   0  0  0  0  0  3  0  0  0  0  0  0
  192.5380  176.7410  138.5430 C   0  0  0  0  0  0  0  0  0  0  0  0
  191.1740  176.6710  138.5820 C   0  0  0  0  0  0  0  0  0  0  0  0
  193.2660  176.3500  137.4230 C   0  0  0  0  0  3  0  0  0  0  0  0
  1  2  1  0  0  0  0
  1 12  1  0  0  0  0
  2  4  1  0  0  0  0
  3  6  1  0  0  0  0
  4  3  2  0  0  0  0
  5 10  1  0  0  0  0
  7  1  2  0  0  0  0
  8  3  1  0  0  0  0
  9  5  2  0  0  0  0
  9  7  1  0  0  0  0
 10 11  1  0  0  0  0
 10  2  2  0  0  0  0
 11  8  2  0  0  0  0
 12 15  2  0  0  0  0
 13 18  1  0  0  0  0
 14 17  1  0  0  0  0
 15 13  1  0  0  0  0
 16 12  1  0  0  0  0
 16 14  1  0  0  0  0
 17 13  2  0  0  0  0
 18 19  1  0  0  0  0
 20  7  1  0  0  0  0
 21 20  2  0  0  0  0
 22 28  2  0  0  0  0
 22 31  1  0  0  0  0
 23 30  2  0  0  0  0
 24 25  1  0  0  0  0
 26 22  1  0  0  0  0
 27 21  1  0  0  0  0
 27 25  2  0  0  0  0
 28 23  1  0  0  0  0
 29 30  1  0  0  0  0
 29 24  1  0  0  0  0
 30 27  1  0  0  0  0
 31 29  2  0  0  0  0
M  END
>  <MODEL>
6

>  <REMARK>
 VINA RESULT:     -10.3      3.435      6.976
  Name = 
  4 active torsions:
  status: ('A' for Active; 'I' for Inactive)
    1  A    between atoms: O_2  and  C_13
    2  A    between atoms: C_4  and  C_12
    3  A    between atoms: C_9  and  C_23
    4  A    between atoms: C_15  and  C_21
                            x       y       z     vdW  Elec       q    Type
                         _______ _______ _______ _____ _____    ______ ____

>  <TORSDO>
F 4

$$$$
=
 OpenBabel10262419343D

 31 35  0  0  0  0  0  0  0  0999 V2000
  183.3510  178.2680  141.5630 C   0  0  0  0  0  0  0  0  0  0  0  0
  181.9850  178.6270  141.7040 C   0  0  0  0  0  0  0  0  0  0  0  0
  179.7680  178.9840  140.7610 C   0  0  0  0  0  0  0  0  0  0  0  0
  181.1070  178.6190  140.6060 C   0  0  0  0  0  3  0  0  0  0  0  0
  182.3330  179.0680  144.0710 C   0  0  0  0  0  3  0  0  0  0  0  0
  178.9340  178.9660  139.6930 F   0  0  0  0  0  0  0  0  0  0  0  0
  184.1960  178.3040  142.7100 C   0  0  0  0  0  0  0  0  0  0  0  0
  179.2870  179.3660  142.0140 C   0  0  0  0  0  3  0  0  0  0  0  0
  183.6720  178.7120  143.9390 C   0  0  0  0  0  3  0  0  0  0  0  0
  181.4870  179.0240  142.9670 C   0  0  0  0  0  0  0  0  0  0  0  0
  180.1450  179.3880  143.1150 C   0  0  0  0  0  3  0  0  0  0  0  0
  183.8870  177.9320  140.2260 C   0  0  0  0  0  0  0  0  0  0  0  0
  185.4330  178.2990  138.3740 C   0  0  0  0  0  0  0  0  0  0  0  0
  183.6530  176.5780  138.1050 C   0  0  0  0  0  2  0  0  0  0  0  0
  184.8580  178.6680  139.6780 C   0  0  0  0  0  3  0  0  0  0  0  0
  183.4000  176.7770  139.5320 N   0  0  0  0  0  2  0  0  0  0  0  0
  184.9010  177.2940  137.6610 C   0  0  0  0  0  3  0  0  0  0  0  0
  186.5530  179.0030  137.9180 O   0  0  0  0  0  0  0  0  0  0  0  0
  187.3460  178.5710  136.8180 C   0  0  0  0  0  1  0  0  0  0  0  0
  185.6220  177.9110  142.7320 C   0  0  0  0  0  3  0  0  0  0  0  0
  186.3880  177.8770  143.8190 C   0  0  0  0  0  3  0  0  0  0  0  0
  190.8710  176.6870  146.3980 C   0  0  0  0  0  0  0  0  0  0  0  0
  188.5180  177.3510  146.2200 C   0  0  0  0  0  3  0  0  0  0  0  0
  189.6970  176.9030  142.9490 O   0  0  0  0  0  0  0  0  0  0  0  0
  188.4740  177.2400  142.6290 N   0  0  0  0  0  0  0  0  0  0  0  0
  192.0520  176.3810  147.2460 C   0  0  0  0  0  1  0  0  0  0  0  0
  187.7990  177.4710  143.7800 C   0  0  0  0  0  0  0  0  0  0  0  0
  189.6490  177.0560  147.0050 C   0  0  0  0  0  3  0  0  0  0  0  0
  189.8420  176.9050  144.2500 C   0  0  0  0  0  0  0  0  0  0  0  0
  188.6620  177.2610  144.8370 C   0  0  0  0  0  0  0  0  0  0  0  0
  190.9790  176.6080  144.9960 C   0  0  0  0  0  3  0  0  0  0  0  0
  1  2  2  0  0  0  0
  1  7  1  0  0  0  0
  2 10  1  0  0  0  0
  3  8  1  0  0  0  0
  4  3  2  0  0  0  0
  4  2  1  0  0  0  0
  6  3  1  0  0  0  0
  7 20  1  0  0  0  0
  7  9  2  0  0  0  0
  8 11  2  0  0  0  0
  9  5  1  0  0  0  0
 10 11  1  0  0  0  0
 10  5  2  0  0  0  0
 12  1  1  0  0  0  0
 13 15  1  0  0  0  0
 14 16  1  0  0  0  0
 15 12  2  0  0  0  0
 16 12  1  0  0  0  0
 17 14  1  0  0  0  0
 17 13  2  0  0  0  0
 18 13  1  0  0  0  0
 19 18  1  0  0  0  0
 20 21  2  0  0  0  0
 22 28  1  0  0  0  0
 22 26  1  0  0  0  0
 23 28  2  0  0  0  0
 24 29  1  0  0  0  0
 25 24  1  0  0  0  0
 25 27  2  0  0  0  0
 27 21  1  0  0  0  0
 27 30  1  0  0  0  0
 29 30  2  0  0  0  0
 29 31  1  0  0  0  0
 30 23  1  0  0  0  0
 31 22  2  0  0  0  0
M  END
>  <MODEL>
7

>  <REMARK>
 VINA RESULT:     -10.3      3.290      8.067
  Name = 
  4 active torsions:
  status: ('A' for Active; 'I' for Inactive)
    1  A    between atoms: O_2  and  C_13
    2  A    between atoms: C_4  and  C_12
    3  A    between atoms: C_9  and  C_23
    4  A    between atoms: C_15  and  C_21
                            x       y       z     vdW  Elec       q    Type
                         _______ _______ _______ _____ _____    ______ ____

>  <TORSDO>
F 4

$$$$
=
 OpenBabel10262419343D

 31 35  0  0  0  0  0  0  0  0999 V2000
  187.4530  177.8120  144.5660 C   0  0  0  0  0  0  0  0  0  0  0  0
  187.8140  177.8780  145.9370 C   0  0  0  0  0  0  0  0  0  0  0  0
  189.4650  177.6800  147.7170 C   0  0  0  0  0  0  0  0  0  0  0  0
  189.1290  177.6190  146.3630 C   0  0  0  0  0  3  0  0  0  0  0  0
  185.5190  178.4260  146.5280 C   0  0  0  0  0  3  0  0  0  0  0  0
  190.7380  177.4330  148.1100 F   0  0  0  0  0  0  0  0  0  0  0  0
  186.1020  178.0740  144.1950 C   0  0  0  0  0  0  0  0  0  0  0  0
  188.4920  177.9970  148.6660 C   0  0  0  0  0  3  0  0  0  0  0  0
  185.1610  178.3670  145.1850 C   0  0  0  0  0  3  0  0  0  0  0  0
  186.8350  178.1900  146.9110 C   0  0  0  0  0  0  0  0  0  0  0  0
  187.1790  178.2490  148.2640 C   0  0  0  0  0  3  0  0  0  0  0  0
  188.4600  177.4060  143.5610 C   0  0  0  0  0  0  0  0  0  0  0  0
  190.5790  176.3700  142.9360 C   0  0  0  0  0  0  0  0  0  0  0  0
  189.2470  177.5030  141.1620 C   0  0  0  0  0  2  0  0  0  0  0  0
  189.6030  176.8280  143.9390 C   0  0  0  0  0  3  0  0  0  0  0  0
  188.1860  177.5860  142.1660 N   0  0  0  0  0  2  0  0  0  0  0  0
  190.3880  176.6440  141.6350 C   0  0  0  0  0  3  0  0  0  0  0  0
  191.6820  175.6280  143.3720 O   0  0  0  0  0  0  0  0  0  0  0  0
  192.0220  175.4790  144.7450 C   0  0  0  0  0  1  0  0  0  0  0  0
  185.5860  178.0940  142.8090 C   0  0  0  0  0  3  0  0  0  0  0  0
  184.8650  179.0760  142.2750 C   0  0  0  0  0  3  0  0  0  0  0  0
  180.9560  178.1160  138.8170 C   0  0  0  0  0  0  0  0  0  0  0  0
  181.9690  178.2530  141.0450 C   0  0  0  0  0  3  0  0  0  0  0  0
  184.4290  179.2350  138.7490 O   0  0  0  0  0  0  0  0  0  0  0  0
  185.1560  179.3780  139.8270 N   0  0  0  0  0  0  0  0  0  0  0  0
  179.7770  177.8090  137.9650 C   0  0  0  0  0  1  0  0  0  0  0  0
  184.3850  179.0420  140.8880 C   0  0  0  0  0  0  0  0  0  0  0  0
  180.8650  177.9680  140.2190 C   0  0  0  0  0  3  0  0  0  0  0  0
  183.2270  178.8240  139.0640 C   0  0  0  0  0  0  0  0  0  0  0  0
  183.1370  178.6810  140.4190 C   0  0  0  0  0  0  0  0  0  0  0  0
  182.1550  178.5510  138.2190 C   0  0  0  0  0  3  0  0  0  0  0  0
  1  2  1  0  0  0  0
  2  4  2  0  0  0  0
  2 10  1  0  0  0  0
  3  6  1  0  0  0  0
  3  8  2  0  0  0  0
  4  3  1  0  0  0  0
  5 10  1  0  0  0  0
  7  1  2  0  0  0  0
  7  9  1  0  0  0  0
  9  5  2  0  0  0  0
 10 11  2  0  0  0  0
 11  8  1  0  0  0  0
 12 15  2  0  0  0  0
 12  1  1  0  0  0  0
 13 18  1  0  0  0  0
 13 15  1  0  0  0  0
 14 17  1  0  0  0  0
 14 16  1  0  0  0  0
 16 12  1  0  0  0  0
 17 13  2  0  0  0  0
 18 19  1  0  0  0  0
 20  7  1  0  0  0  0
 21 20  2  0  0  0  0
 22 28  1  0  0  0  0
 24 29  1  0  0  0  0
 24 25  1  0  0  0  0
 25 27  2  0  0  0  0
 26 22  1  0  0  0  0
 27 21  1  0  0  0  0
 28 23  2  0  0  0  0
 29 30  2  0  0  0  0
 30 27  1  0  0  0  0
 30 23  1  0  0  0  0
 31 22  2  0  0  0  0
 31 29  1  0  0  0  0
M  END
>  <MODEL>
8

>  <REMARK>
 VINA RESULT:     -10.2      1.112      1.776
  Name = 
  4 active torsions:
  status: ('A' for Active; 'I' for Inactive)
    1  A    between atoms: O_2  and  C_13
    2  A    between atoms: C_4  and  C_12
    3  A    between atoms: C_9  and  C_23
    4  A    between atoms: C_15  and  C_21
                            x       y       z     vdW  Elec       q    Type
                         _______ _______ _______ _____ _____    ______ ____

>  <TORSDO>
F 4

$$$$
=
 OpenBabel10262419343D

 31 35  0  0  0  0  0  0  0  0999 V2000
  186.9160  178.0900  144.6360 C   0  0  0  0  0  0  0  0  0  0  0  0
  187.7220  177.8790  145.7860 C   0  0  0  0  0  0  0  0  0  0  0  0
  189.8580  177.3250  146.8170 C   0  0  0  0  0  0  0  0  0  0  0  0
  189.0810  177.5370  145.6760 C   0  0  0  0  0  3  0  0  0  0  0  0
  185.8060  178.3010  147.2230 C   0  0  0  0  0  3  0  0  0  0  0  0
  191.1680  177.0010  146.6930 F   0  0  0  0  0  0  0  0  0  0  0  0
  185.5420  178.4240  144.8090 C   0  0  0  0  0  0  0  0  0  0  0  0
  189.2870  177.4460  148.0850 C   0  0  0  0  0  3  0  0  0  0  0  0
  185.0120  178.5140  146.0990 C   0  0  0  0  0  3  0  0  0  0  0  0
  187.1540  177.9900  147.0770 C   0  0  0  0  0  0  0  0  0  0  0  0
  187.9370  177.7760  148.2140 C   0  0  0  0  0  3  0  0  0  0  0  0
  187.4940  177.8930  143.2890 C   0  0  0  0  0  0  0  0  0  0  0  0
  187.4170  178.1230  140.8610 C   0  0  0  0  0  0  0  0  0  0  0  0
  189.3010  176.8440  141.8690 C   0  0  0  0  0  2  0  0  0  0  0  0
  186.8170  178.2640  142.1990 C   0  0  0  0  0  3  0  0  0  0  0  0
  188.8120  177.3490  143.1510 N   0  0  0  0  0  2  0  0  0  0  0  0
  188.5980  177.5020  140.7120 C   0  0  0  0  0  3  0  0  0  0  0  0
  186.7380  178.6720  139.7670 O   0  0  0  0  0  0  0  0  0  0  0  0
  186.8090  178.1230  138.4560 C   0  0  0  0  0  1  0  0  0  0  0  0
  184.5920  178.7230  143.7160 C   0  0  0  0  0  3  0  0  0  0  0  0
  183.2670  178.6870  143.8240 C   0  0  0  0  0  3  0  0  0  0  0  0
  182.0910  178.2730  138.6650 C   0  0  0  0  0  0  0  0  0  0  0  0
  183.4310  177.8730  140.6790 C   0  0  0  0  0  3  0  0  0  0  0  0
  180.6930  179.8340  141.6530 O   0  0  0  0  0  0  0  0  0  0  0  0
  181.2490  179.7450  142.8340 N   0  0  0  0  0  0  0  0  0  0  0  0
  181.8860  178.0770  137.2060 C   0  0  0  0  0  1  0  0  0  0  0  0
  182.3720  179.0010  142.7020 C   0  0  0  0  0  0  0  0  0  0  0  0
  183.2170  177.7000  139.2980 C   0  0  0  0  0  3  0  0  0  0  0  0
  181.4030  179.1820  140.7670 C   0  0  0  0  0  0  0  0  0  0  0  0
  182.4910  178.6270  141.3780 C   0  0  0  0  0  0  0  0  0  0  0  0
  181.1620  179.0300  139.4050 C   0  0  0  0  0  3  0  0  0  0  0  0
  1  7  2  0  0  0  0
  1  2  1  0  0  0  0
  2 10  1  0  0  0  0
  3  8  2  0  0  0  0
  4  2  2  0  0  0  0
  4  3  1  0  0  0  0
  6  3  1  0  0  0  0
  7  9  1  0  0  0  0
  8 11  1  0  0  0  0
  9  5  2  0  0  0  0
 10  5  1  0  0  0  0
 10 11  2  0  0  0  0
 12  1  1  0  0  0  0
 13 15  1  0  0  0  0
 14 16  1  0  0  0  0
 15 12  2  0  0  0  0
 16 12  1  0  0  0  0
 17 13  2  0  0  0  0
 17 14  1  0  0  0  0
 18 13  1  0  0  0  0
 19 18  1  0  0  0  0
 20 21  2  0  0  0  0
 20  7  1  0  0  0  0
 22 28  2  0  0  0  0
 22 31  1  0  0  0  0
 23 30  2  0  0  0  0
 24 25  1  0  0  0  0
 26 22  1  0  0  0  0
 27 25  2  0  0  0  0
 27 21  1  0  0  0  0
 28 23  1  0  0  0  0
 29 30  1  0  0  0  0
 29 24  1  0  0  0  0
 30 27  1  0  0  0  0
 31 29  2  0  0  0  0
M  END
>  <MODEL>
9

>  <REMARK>
 VINA RESULT:     -10.2      1.718      2.007
  Name = 
  4 active torsions:
  status: ('A' for Active; 'I' for Inactive)
    1  A    between atoms: O_2  and  C_13
    2  A    between atoms: C_4  and  C_12
    3  A    between atoms: C_9  and  C_23
    4  A    between atoms: C_15  and  C_21
                            x       y       z     vdW  Elec       q    Type
                         _______ _______ _______ _____ _____    ______ ____

>  <TORSDO>
F 4

$$$$
