=
 OpenBabel10262422383D

 43 48  0  0  1  0  0  0  0  0999 V2000
  186.7610  178.0760  145.7150 N   0  0  0  0  0  2  0  0  0  0  0  0
  180.4690  178.9410  141.7150 C   0  0  0  0  0  0  0  0  0  0  0  0
  184.9480  178.5100  144.0200 C   0  0  0  0  0  0  0  0  0  0  0  0
  185.5840  178.1600  141.6180 C   0  0  0  0  0  2  0  0  0  0  0  0
  182.2400  178.8320  143.3640 C   0  0  0  0  0  0  0  0  0  0  0  0
  181.4010  178.7300  140.6950 C   0  0  0  0  0  3  0  0  0  0  0  0
  179.1260  179.0980  141.4050 O   0  0  0  0  0  1  0  0  0  0  0  0
  183.1900  178.6200  142.3360 C   0  0  0  0  0  0  0  0  0  0  0  0
  180.8870  178.9910  143.0470 C   0  0  0  0  0  3  0  0  0  0  0  0
  182.7540  178.5700  141.0030 C   0  0  0  0  0  3  0  0  0  0  0  0
  186.9390  178.7520  142.0270 C   0  0  1  0  0  3  0  0  0  0  0  0
  184.5490  178.4640  142.6680 C   0  0  0  0  0  0  0  0  0  0  0  0
  183.9950  178.7120  145.0250 C   0  0  0  0  0  3  0  0  0  0  0  0
  186.3790  178.3460  144.3570 C   0  0  0  0  0  0  0  0  0  0  0  0
  187.2740  178.4120  143.4130 N   0  0  0  0  0  0  0  0  0  0  0  0
  182.6480  178.8740  144.6990 C   0  0  0  0  0  3  0  0  0  0  0  0
  189.6140  177.6860  148.1190 C   0  0  0  0  0  3  0  0  0  0  0  0
  190.4620  176.7230  147.3320 C   0  0  1  0  0  3  0  0  0  0  0  0
  188.9780  177.2570  145.3940 C   0  0  0  0  0  3  0  0  0  0  0  0
  188.4800  178.1640  147.5980 C   0  0  0  0  0  3  0  0  0  0  0  0
  188.0820  177.8210  146.2120 C   0  0  0  0  0  0  0  0  0  0  0  0
  190.4020  177.0460  145.8350 C   0  0  0  0  0  2  0  0  0  0  0  0
  192.3650  175.5920  147.3240 C   0  0  0  0  0  1  0  0  0  0  0  0
  191.7830  176.7770  147.7800 O   0  0  0  0  0  0  0  0  0  0  0  0
  188.0800  178.3580  141.0860 C   0  0  1  0  0  3  0  0  0  0  0  0
  188.7690  177.0790  141.5370 C   0  0  0  0  0  1  0  0  0  0  0  0
  187.5970  178.2020  139.6500 C   0  0  0  0  0  2  0  0  0  0  0  0
  190.2560  177.9870  139.2690 O   0  0  0  0  0  0  0  0  0  0  0  0
  188.9700  178.1430  138.5070 S   0  0  0  0  0  0  0  0  0  0  0  0
  188.9960  179.4300  137.7330 O   0  0  0  0  0  0  0  0  0  0  0  0
  188.7790  176.7990  137.4140 N   0  0  0  0  0  0  0  0  0  0  0  0
  187.5360  176.5990  136.7150 C   0  0  0  0  0  0  0  0  0  0  0  0
  187.2370  175.4590  136.2680 O   0  0  0  0  0  0  0  0  0  0  0  0
  190.4730  175.7780  135.9740 C   0  0  0  0  0  2  0  0  0  0  0  0
  189.8240  175.7750  137.3490 C   0  0  0  0  0  3  0  0  0  0  0  0
  191.1840  176.4220  137.1390 C   0  0  0  0  0  2  0  0  0  0  0  0
  186.6050  177.7400  136.4510 C   0  0  0  0  0  2  0  0  0  0  0  0
  185.1880  177.2850  136.5380 C   0  0  0  0  0  0  0  0  0  0  0  0
  183.1110  176.6700  135.4500 C   0  0  0  0  0  3  0  0  0  0  0  0
  183.2510  176.6900  137.8670 C   0  0  0  0  0  3  0  0  0  0  0  0
  182.5130  176.4770  136.7000 C   0  0  0  0  0  3  0  0  0  0  0  0
  184.5870  177.0960  137.7870 C   0  0  0  0  0  3  0  0  0  0  0  0
  184.4460  177.0760  135.3690 C   0  0  0  0  0  3  0  0  0  0  0  0
  1 21  1  0  0  0  0
  2  9  1  0  0  0  0
  3 14  1  0  0  0  0
  3 13  1  0  0  0  0
  4 11  1  0  0  0  0
  4 12  1  0  0  0  0
  5 16  1  0  0  0  0
  6 10  1  0  0  0  0
  6  2  2  0  0  0  0
  7  2  1  0  0  0  0
  8 12  1  0  0  0  0
  8  5  1  0  0  0  0
  9  5  2  0  0  0  0
 10  8  2  0  0  0  0
 11 25  1  6  0  0  0
 11 15  1  0  0  0  0
 12  3  2  0  0  0  0
 14  1  1  0  0  0  0
 15 14  2  0  0  0  0
 16 13  2  0  0  0  0
 18 24  1  1  0  0  0
 18 17  1  0  0  0  0
 19 22  1  0  0  0  0
 19 21  2  0  0  0  0
 20 17  2  0  0  0  0
 21 20  1  0  0  0  0
 22 18  1  0  0  0  0
 23 24  1  0  0  0  0
 25 26  1  1  0  0  0
 27 25  1  0  0  0  0
 29 28  2  0  0  0  0
 29 27  1  0  0  0  0
 30 29  2  0  0  0  0
 31 29  1  0  0  0  0
 32 31  1  0  0  0  0
 33 32  2  0  0  0  0
 34 36  1  0  0  0  0
 34 35  1  0  0  0  0
 35 31  1  0  0  0  0
 36 35  1  0  0  0  0
 37 38  1  0  0  0  0
 37 32  1  0  0  0  0
 38 42  1  0  0  0  0
 39 41  2  0  0  0  0
 41 40  1  0  0  0  0
 42 40  2  0  0  0  0
 43 39  1  0  0  0  0
 43 38  2  0  0  0  0
M  END
>  <MODEL>
1

>  <REMARK>
 VINA RESULT:      -9.9      0.000      0.000
  Name = 
  9 active torsions:
  status: ('A' for Active; 'I' for Inactive)
    1  A    between atoms: N_1  and  C_35
    2  A    between atoms: C_2  and  C_6
    3  A    between atoms: C_2  and  C_27
    4  A    between atoms: N_4  and  S_12
    5  A    between atoms: N_4  and  C_15
    6  A    between atoms: C_6  and  S_12
    7  A    between atoms: C_11  and  C_14
    8  A    between atoms: C_14  and  C_22
    9  A    between atoms: C_19  and  O_37
                            x       y       z     vdW  Elec       q    Type
                         _______ _______ _______ _____ _____    ______ ____

>  <TORSDO>
F 9

$$$$
=
 OpenBabel10262422383D

 43 48  0  0  1  0  0  0  0  0999 V2000
  186.8400  177.7350  144.9450 N   0  0  0  0  0  2  0  0  0  0  0  0
  180.3770  179.2570  141.4450 C   0  0  0  0  0  0  0  0  0  0  0  0
  184.9560  178.4030  143.4120 C   0  0  0  0  0  0  0  0  0  0  0  0
  185.4240  178.2220  140.9530 C   0  0  0  0  0  2  0  0  0  0  0  0
  182.2350  178.9190  142.9610 C   0  0  0  0  0  0  0  0  0  0  0  0
  181.2320  179.0840  140.3530 C   0  0  0  0  0  3  0  0  0  0  0  0
  179.0290  179.5090  141.2360 O   0  0  0  0  0  1  0  0  0  0  0  0
  183.1080  178.7440  141.8600 C   0  0  0  0  0  0  0  0  0  0  0  0
  180.8770  179.1740  142.7460 C   0  0  0  0  0  3  0  0  0  0  0  0
  182.5900  178.8290  140.5580 C   0  0  0  0  0  3  0  0  0  0  0  0
  186.8330  178.7070  141.3200 C   0  0  1  0  0  3  0  0  0  0  0  0
  184.4740  178.4910  142.0900 C   0  0  0  0  0  0  0  0  0  0  0  0
  184.0780  178.5690  144.4900 C   0  0  0  0  0  3  0  0  0  0  0  0
  186.3930  178.1370  143.6410 C   0  0  0  0  0  0  0  0  0  0  0  0
  187.2310  178.2350  142.6490 N   0  0  0  0  0  0  0  0  0  0  0  0
  182.7250  178.8270  144.2660 C   0  0  0  0  0  3  0  0  0  0  0  0
  190.4330  176.6910  144.6830 C   0  0  0  0  0  3  0  0  0  0  0  0
  190.9480  177.2740  145.9730 C   0  0  1  0  0  3  0  0  0  0  0  0
  188.5480  177.5760  146.6010 C   0  0  0  0  0  3  0  0  0  0  0  0
  189.1350  176.7770  144.3770 C   0  0  0  0  0  3  0  0  0  0  0  0
  188.1710  177.3710  145.3340 C   0  0  0  0  0  0  0  0  0  0  0  0
  189.9030  177.1330  147.0850 C   0  0  0  0  0  2  0  0  0  0  0  0
  191.7660  175.7870  147.3940 C   0  0  0  0  0  1  0  0  0  0  0  0
  192.1310  176.6330  146.3450 O   0  0  0  0  0  0  0  0  0  0  0  0
  187.8900  178.3340  140.2780 C   0  0  1  0  0  3  0  0  0  0  0  0
  188.9360  177.3880  140.8460 C   0  0  0  0  0  1  0  0  0  0  0  0
  187.2630  177.7200  139.0340 C   0  0  0  0  0  2  0  0  0  0  0  0
  189.4890  178.6940  137.8680 O   0  0  0  0  0  0  0  0  0  0  0  0
  188.0770  178.2890  137.5480 S   0  0  0  0  0  0  0  0  0  0  0  0
  187.3200  179.4740  137.0190 O   0  0  0  0  0  0  0  0  0  0  0  0
  188.0960  177.0190  136.3540 N   0  0  0  0  0  0  0  0  0  0  0  0
  189.0850  175.9750  136.4160 C   0  0  0  0  0  0  0  0  0  0  0  0
  189.3740  175.3140  135.3820 O   0  0  0  0  0  0  0  0  0  0  0  0
  186.2130  175.9740  135.1910 C   0  0  0  0  0  2  0  0  0  0  0  0
  187.2140  177.1190  135.1890 C   0  0  0  0  0  3  0  0  0  0  0  0
  185.7780  177.3500  135.6320 C   0  0  0  0  0  2  0  0  0  0  0  0
  189.7450  175.6090  137.7080 C   0  0  0  0  0  2  0  0  0  0  0  0
  191.2090  175.4110  137.5060 C   0  0  0  0  0  0  0  0  0  0  0  0
  193.4410  176.3320  137.3000 C   0  0  0  0  0  3  0  0  0  0  0  0
  193.0910  173.9470  137.0740 C   0  0  0  0  0  3  0  0  0  0  0  0
  193.9510  175.0480  137.0820 C   0  0  0  0  0  3  0  0  0  0  0  0
  191.7200  174.1290  137.2840 C   0  0  0  0  0  3  0  0  0  0  0  0
  192.0720  176.5150  137.5100 C   0  0  0  0  0  3  0  0  0  0  0  0
  1 21  1  0  0  0  0
  2  9  1  0  0  0  0
  3 14  1  0  0  0  0
  3 13  1  0  0  0  0
  4 11  1  0  0  0  0
  4 12  1  0  0  0  0
  5 16  1  0  0  0  0
  6 10  1  0  0  0  0
  6  2  2  0  0  0  0
  7  2  1  0  0  0  0
  8 12  1  0  0  0  0
  8  5  1  0  0  0  0
  9  5  2  0  0  0  0
 10  8  2  0  0  0  0
 11 25  1  6  0  0  0
 11 15  1  0  0  0  0
 12  3  2  0  0  0  0
 14  1  1  0  0  0  0
 15 14  2  0  0  0  0
 16 13  2  0  0  0  0
 17 18  1  0  0  0  0
 18 24  1  1  0  0  0
 18 22  1  0  0  0  0
 19 22  1  0  0  0  0
 20 17  2  0  0  0  0
 20 21  1  0  0  0  0
 21 19  2  0  0  0  0
 24 23  1  0  0  0  0
 25 26  1  1  0  0  0
 27 25  1  0  0  0  0
 29 28  2  0  0  0  0
 29 27  1  0  0  0  0
 30 29  2  0  0  0  0
 31 32  1  0  0  0  0
 31 29  1  0  0  0  0
 32 37  1  0  0  0  0
 33 32  2  0  0  0  0
 34 36  1  0  0  0  0
 35 34  1  0  0  0  0
 35 36  1  0  0  0  0
 35 31  1  0  0  0  0
 38 43  1  0  0  0  0
 38 37  1  0  0  0  0
 39 43  2  0  0  0  0
 40 41  2  0  0  0  0
 40 42  1  0  0  0  0
 41 39  1  0  0  0  0
 42 38  2  0  0  0  0
M  END
>  <MODEL>
2

>  <REMARK>
 VINA RESULT:      -9.9      1.330      3.899
  Name = 
  9 active torsions:
  status: ('A' for Active; 'I' for Inactive)
    1  A    between atoms: N_1  and  C_35
    2  A    between atoms: C_2  and  C_6
    3  A    between atoms: C_2  and  C_27
    4  A    between atoms: N_4  and  S_12
    5  A    between atoms: N_4  and  C_15
    6  A    between atoms: C_6  and  S_12
    7  A    between atoms: C_11  and  C_14
    8  A    between atoms: C_14  and  C_22
    9  A    between atoms: C_19  and  O_37
                            x       y       z     vdW  Elec       q    Type
                         _______ _______ _______ _____ _____    ______ ____

>  <TORSDO>
F 9

$$$$
=
 OpenBabel10262422383D

 43 48  0  0  1  0  0  0  0  0999 V2000
  186.6660  177.4670  137.3290 N   0  0  0  0  0  2  0  0  0  0  0  0
  193.6060  175.1520  135.6530 C   0  0  0  0  0  0  0  0  0  0  0  0
  189.1230  176.9370  137.1630 C   0  0  0  0  0  0  0  0  0  0  0  0
  190.3650  176.7930  139.3380 C   0  0  0  0  0  2  0  0  0  0  0  0
  191.3200  175.9500  135.7250 C   0  0  0  0  0  0  0  0  0  0  0  0
  193.7190  175.3390  137.0330 C   0  0  0  0  0  3  0  0  0  0  0  0
  194.6840  174.6610  134.9300 O   0  0  0  0  0  1  0  0  0  0  0  0
  191.4270  176.1440  137.1230 C   0  0  0  0  0  0  0  0  0  0  0  0
  192.4090  175.4560  135.0000 C   0  0  0  0  0  3  0  0  0  0  0  0
  192.6360  175.8320  137.7660 C   0  0  0  0  0  3  0  0  0  0  0  0
  189.4690  177.9600  139.7750 C   0  0  1  0  0  3  0  0  0  0  0  0
  190.3240  176.6440  137.8410 C   0  0  0  0  0  0  0  0  0  0  0  0
  189.0310  176.7310  135.7810 C   0  0  0  0  0  3  0  0  0  0  0  0
  187.9710  177.4620  137.9280 C   0  0  0  0  0  0  0  0  0  0  0  0
  188.1470  177.8820  139.1480 N   0  0  0  0  0  0  0  0  0  0  0  0
  190.1240  176.2420  135.0650 C   0  0  0  0  0  3  0  0  0  0  0  0
  184.2620  179.2410  139.5970 C   0  0  0  0  0  3  0  0  0  0  0  0
  183.0270  179.1770  138.7370 C   0  0  1  0  0  3  0  0  0  0  0  0
  184.2820  177.5210  137.3480 C   0  0  0  0  0  3  0  0  0  0  0  0
  185.3940  178.6570  139.1930 C   0  0  0  0  0  3  0  0  0  0  0  0
  185.4320  177.8700  137.9370 C   0  0  0  0  0  0  0  0  0  0  0  0
  182.9570  177.8420  137.9890 C   0  0  0  0  0  2  0  0  0  0  0  0
  182.0970  178.5160  140.6340 C   0  0  0  0  0  1  0  0  0  0  0  0
  181.8880  179.3420  139.5270 O   0  0  0  0  0  0  0  0  0  0  0  0
  189.3360  178.0830  141.2950 C   0  0  1  0  0  3  0  0  0  0  0  0
  188.2310  179.0500  141.6900 C   0  0  0  0  0  1  0  0  0  0  0  0
  189.0940  176.7310  141.9510 C   0  0  0  0  0  2  0  0  0  0  0  0
  191.7010  176.8930  142.6120 O   0  0  0  0  0  0  0  0  0  0  0  0
  190.4000  176.3240  143.1020 S   0  0  0  0  0  0  0  0  0  0  0  0
  190.5040  174.8280  143.1890 O   0  0  0  0  0  0  0  0  0  0  0  0
  190.0360  176.9850  144.6740 N   0  0  0  0  0  0  0  0  0  0  0  0
  188.6890  177.3680  145.0100 C   0  0  0  0  0  0  0  0  0  0  0  0
  188.4790  178.1980  145.9350 O   0  0  0  0  0  0  0  0  0  0  0  0
  190.9610  176.5780  146.9020 C   0  0  0  0  0  2  0  0  0  0  0  0
  191.1350  177.3140  145.5830 C   0  0  0  0  0  3  0  0  0  0  0  0
  191.9580  176.0720  145.8890 C   0  0  0  0  0  2  0  0  0  0  0  0
  187.5140  176.7520  144.3190 C   0  0  0  0  0  2  0  0  0  0  0  0
  186.2910  177.5730  144.5420 C   0  0  0  0  0  0  0  0  0  0  0  0
  184.7030  178.6030  146.0560 C   0  0  0  0  0  3  0  0  0  0  0  0
  184.3920  178.7960  143.6630 C   0  0  0  0  0  3  0  0  0  0  0  0
  183.9680  179.0760  144.9640 C   0  0  0  0  0  3  0  0  0  0  0  0
  185.5520  178.0440  143.4520 C   0  0  0  0  0  3  0  0  0  0  0  0
  185.8620  177.8510  145.8460 C   0  0  0  0  0  3  0  0  0  0  0  0
  1 14  1  0  0  0  0
  1 21  1  0  0  0  0
  2  6  1  0  0  0  0
  3 12  1  0  0  0  0
  3 14  1  0  0  0  0
  4 11  1  0  0  0  0
  5  8  1  0  0  0  0
  6 10  2  0  0  0  0
  7  2  1  0  0  0  0
  8 10  1  0  0  0  0
  8 12  2  0  0  0  0
  9  2  2  0  0  0  0
  9  5  1  0  0  0  0
 11 25  1  1  0  0  0
 12  4  1  0  0  0  0
 13  3  2  0  0  0  0
 14 15  2  0  0  0  0
 15 11  1  0  0  0  0
 16  5  2  0  0  0  0
 16 13  1  0  0  0  0
 18 24  1  1  0  0  0
 18 17  1  0  0  0  0
 19 21  2  0  0  0  0
 19 22  1  0  0  0  0
 20 17  2  0  0  0  0
 21 20  1  0  0  0  0
 22 18  1  0  0  0  0
 24 23  1  0  0  0  0
 25 26  1  6  0  0  0
 25 27  1  0  0  0  0
 27 29  1  0  0  0  0
 28 29  2  0  0  0  0
 29 30  2  0  0  0  0
 29 31  1  0  0  0  0
 31 32  1  0  0  0  0
 31 35  1  0  0  0  0
 32 33  2  0  0  0  0
 35 36  1  0  0  0  0
 35 34  1  0  0  0  0
 36 34  1  0  0  0  0
 37 38  1  0  0  0  0
 37 32  1  0  0  0  0
 38 43  1  0  0  0  0
 40 41  2  0  0  0  0
 41 39  1  0  0  0  0
 42 40  1  0  0  0  0
 42 38  2  0  0  0  0
 43 39  2  0  0  0  0
M  END
>  <MODEL>
3

>  <REMARK>
 VINA RESULT:      -9.6      2.492      9.526
  Name = 
  9 active torsions:
  status: ('A' for Active; 'I' for Inactive)
    1  A    between atoms: N_1  and  C_35
    2  A    between atoms: C_2  and  C_6
    3  A    between atoms: C_2  and  C_27
    4  A    between atoms: N_4  and  S_12
    5  A    between atoms: N_4  and  C_15
    6  A    between atoms: C_6  and  S_12
    7  A    between atoms: C_11  and  C_14
    8  A    between atoms: C_14  and  C_22
    9  A    between atoms: C_19  and  O_37
                            x       y       z     vdW  Elec       q    Type
                         _______ _______ _______ _____ _____    ______ ____

>  <TORSDO>
F 9

$$$$
=
 OpenBabel10262422383D

 43 48  0  0  1  0  0  0  0  0999 V2000
  188.9170  177.8250  140.3210 N   0  0  0  0  0  2  0  0  0  0  0  0
  188.3480  177.8740  147.8050 C   0  0  0  0  0  0  0  0  0  0  0  0
  188.2850  178.0230  142.7520 C   0  0  0  0  0  0  0  0  0  0  0  0
  185.8450  177.7610  143.2770 C   0  0  0  0  0  2  0  0  0  0  0  0
  188.9790  177.9930  145.4700 C   0  0  0  0  0  0  0  0  0  0  0  0
  187.0010  177.7870  147.4410 C   0  0  0  0  0  3  0  0  0  0  0  0
  188.7050  177.8570  149.1460 O   0  0  0  0  0  1  0  0  0  0  0  0
  187.6170  177.9070  145.0920 C   0  0  0  0  0  0  0  0  0  0  0  0
  189.3340  177.9760  146.8220 C   0  0  0  0  0  3  0  0  0  0  0  0
  186.6360  177.8030  146.0920 C   0  0  0  0  0  3  0  0  0  0  0  0
  185.6160  178.5230  141.9650 C   0  0  1  0  0  3  0  0  0  0  0  0
  187.2710  177.9280  143.7280 C   0  0  0  0  0  0  0  0  0  0  0  0
  189.6270  178.0980  143.1420 C   0  0  0  0  0  3  0  0  0  0  0  0
  187.9100  178.0440  141.3210 C   0  0  0  0  0  0  0  0  0  0  0  0
  186.6650  178.2270  140.9850 N   0  0  0  0  0  0  0  0  0  0  0  0
  189.9730  178.0850  144.4930 C   0  0  0  0  0  3  0  0  0  0  0  0
  187.8330  176.5270  136.9730 C   0  0  0  0  0  3  0  0  0  0  0  0
  187.7700  177.8280  136.2190 C   0  0  1  0  0  3  0  0  0  0  0  0
  189.0010  178.8190  138.1550 C   0  0  0  0  0  3  0  0  0  0  0  0
  188.2480  176.5050  138.2430 C   0  0  0  0  0  3  0  0  0  0  0  0
  188.7300  177.7420  138.9020 C   0  0  0  0  0  0  0  0  0  0  0  0
  188.9060  178.7620  136.6540 C   0  0  0  0  0  2  0  0  0  0  0  0
  189.2100  177.3970  134.5940 C   0  0  0  0  0  1  0  0  0  0  0  0
  187.8500  177.5870  134.8460 O   0  0  0  0  0  0  0  0  0  0  0  0
  184.2310  178.2810  141.3590 C   0  0  1  0  0  3  0  0  0  0  0  0
  183.1210  178.8000  142.2590 C   0  0  0  0  0  1  0  0  0  0  0  0
  184.1040  178.9040  139.9760 C   0  0  0  0  0  2  0  0  0  0  0  0
  183.1070  176.5010  139.2740 O   0  0  0  0  0  0  0  0  0  0  0  0
  182.9950  177.9610  138.9390 S   0  0  0  0  0  0  0  0  0  0  0  0
  183.3860  178.1820  137.5050 O   0  0  0  0  0  0  0  0  0  0  0  0
  181.3520  178.4870  139.1910 N   0  0  0  0  0  0  0  0  0  0  0  0
  181.0460  179.8890  139.3130 C   0  0  0  0  0  0  0  0  0  0  0  0
  179.9870  180.2580  139.8890 O   0  0  0  0  0  0  0  0  0  0  0  0
  179.2710  177.5110  138.3510 C   0  0  0  0  0  2  0  0  0  0  0  0
  180.3140  177.4890  139.4570 C   0  0  0  0  0  3  0  0  0  0  0  0
  180.3160  176.4230  138.3740 C   0  0  0  0  0  2  0  0  0  0  0  0
  181.9350  180.9300  138.7130 C   0  0  0  0  0  2  0  0  0  0  0  0
  181.2580  181.5920  137.5610 C   0  0  0  0  0  0  0  0  0  0  0  0
  180.2260  181.4530  135.3730 C   0  0  0  0  0  3  0  0  0  0  0  0
  180.4470  183.5990  136.4720 C   0  0  0  0  0  3  0  0  0  0  0  0
  180.0280  182.8380  135.3780 C   0  0  0  0  0  3  0  0  0  0  0  0
  181.0630  182.9770  137.5620 C   0  0  0  0  0  3  0  0  0  0  0  0
  180.8420  180.8300  136.4620 C   0  0  0  0  0  3  0  0  0  0  0  0
  1 14  1  0  0  0  0
  2  7  1  0  0  0  0
  3 13  2  0  0  0  0
  3 12  1  0  0  0  0
  4 12  1  0  0  0  0
  5  9  1  0  0  0  0
  6  2  1  0  0  0  0
  8  5  1  0  0  0  0
  8 10  1  0  0  0  0
  9  2  2  0  0  0  0
 10  6  2  0  0  0  0
 11 25  1  6  0  0  0
 11  4  1  0  0  0  0
 12  8  2  0  0  0  0
 13 16  1  0  0  0  0
 14  3  1  0  0  0  0
 15 14  2  0  0  0  0
 15 11  1  0  0  0  0
 16  5  2  0  0  0  0
 17 20  2  0  0  0  0
 18 24  1  6  0  0  0
 18 22  1  0  0  0  0
 18 17  1  0  0  0  0
 19 21  2  0  0  0  0
 20 21  1  0  0  0  0
 21  1  1  0  0  0  0
 22 19  1  0  0  0  0
 23 24  1  0  0  0  0
 25 26  1  1  0  0  0
 27 25  1  0  0  0  0
 29 31  1  0  0  0  0
 29 28  2  0  0  0  0
 29 27  1  0  0  0  0
 30 29  2  0  0  0  0
 31 32  1  0  0  0  0
 31 35  1  0  0  0  0
 32 33  2  0  0  0  0
 34 36  1  0  0  0  0
 34 35  1  0  0  0  0
 36 35  1  0  0  0  0
 37 32  1  0  0  0  0
 38 42  1  0  0  0  0
 38 37  1  0  0  0  0
 39 41  2  0  0  0  0
 39 43  1  0  0  0  0
 40 42  2  0  0  0  0
 41 40  1  0  0  0  0
 43 38  2  0  0  0  0
M  END
>  <MODEL>
4

>  <REMARK>
 VINA RESULT:      -9.5      3.246      7.843
  Name = 
  9 active torsions:
  status: ('A' for Active; 'I' for Inactive)
    1  A    between atoms: N_1  and  C_35
    2  A    between atoms: C_2  and  C_6
    3  A    between atoms: C_2  and  C_27
    4  A    between atoms: N_4  and  S_12
    5  A    between atoms: N_4  and  C_15
    6  A    between atoms: C_6  and  S_12
    7  A    between atoms: C_11  and  C_14
    8  A    between atoms: C_14  and  C_22
    9  A    between atoms: C_19  and  O_37
                            x       y       z     vdW  Elec       q    Type
                         _______ _______ _______ _____ _____    ______ ____

>  <TORSDO>
F 9

$$$$
=
 OpenBabel10262422383D

 43 48  0  0  1  0  0  0  0  0999 V2000
  185.2820  178.3410  142.8600 N   0  0  0  0  0  2  0  0  0  0  0  0
  191.2620  176.7850  147.1200 C   0  0  0  0  0  0  0  0  0  0  0  0
  187.4870  177.6690  143.8750 C   0  0  0  0  0  0  0  0  0  0  0  0
  189.4930  177.8820  142.3830 C   0  0  0  0  0  2  0  0  0  0  0  0
  189.0840  177.1280  146.1170 C   0  0  0  0  0  0  0  0  0  0  0  0
  191.8690  176.9790  145.8770 C   0  0  0  0  0  3  0  0  0  0  0  0
  192.0400  176.5200  148.2380 O   0  0  0  0  0  1  0  0  0  0  0  0
  189.6920  177.3240  144.8530 C   0  0  0  0  0  0  0  0  0  0  0  0
  189.8720  176.8600  147.2400 C   0  0  0  0  0  3  0  0  0  0  0  0
  191.0900  177.2470  144.7490 C   0  0  0  0  0  3  0  0  0  0  0  0
  188.5500  177.4090  141.2680 C   0  0  1  0  0  3  0  0  0  0  0  0
  188.8880  177.5900  143.7290 C   0  0  0  0  0  0  0  0  0  0  0  0
  186.9020  177.4810  145.1330 C   0  0  0  0  0  3  0  0  0  0  0  0
  186.6520  177.9490  142.6860 C   0  0  0  0  0  0  0  0  0  0  0  0
  187.1780  177.8710  141.4980 N   0  0  0  0  0  0  0  0  0  0  0  0
  187.6960  177.2100  146.2480 C   0  0  0  0  0  3  0  0  0  0  0  0
  183.9370  179.3780  139.5150 C   0  0  0  0  0  3  0  0  0  0  0  0
  182.5390  178.8320  139.6380 C   0  0  1  0  0  3  0  0  0  0  0  0
  183.0410  178.5470  142.0700 C   0  0  0  0  0  3  0  0  0  0  0  0
  184.7880  179.2830  140.5410 C   0  0  0  0  0  3  0  0  0  0  0  0
  184.3480  178.7160  141.8380 C   0  0  0  0  0  0  0  0  0  0  0  0
  182.0140  179.0030  141.0680 C   0  0  0  0  0  2  0  0  0  0  0  0
  180.8380  180.2440  139.5360 C   0  0  0  0  0  1  0  0  0  0  0  0
  181.6940  179.4820  138.7370 O   0  0  0  0  0  0  0  0  0  0  0  0
  189.0230  177.8060  139.8680 C   0  0  1  0  0  3  0  0  0  0  0  0
  190.4980  177.4990  139.6600 C   0  0  0  0  0  1  0  0  0  0  0  0
  188.2000  177.1270  138.7820 C   0  0  0  0  0  2  0  0  0  0  0  0
  188.9220  179.3530  137.4460 O   0  0  0  0  0  0  0  0  0  0  0  0
  187.9440  178.2140  137.3860 S   0  0  0  0  0  0  0  0  0  0  0  0
  186.5420  178.7480  137.4530 O   0  0  0  0  0  0  0  0  0  0  0  0
  188.1710  177.3360  135.8970 N   0  0  0  0  0  0  0  0  0  0  0  0
  187.2100  176.3490  135.4790 C   0  0  0  0  0  0  0  0  0  0  0  0
  187.5440  175.4440  134.6670 O   0  0  0  0  0  0  0  0  0  0  0  0
  190.5480  176.7550  135.9040 C   0  0  0  0  0  2  0  0  0  0  0  0
  189.4330  177.4790  135.1670 C   0  0  0  0  0  3  0  0  0  0  0  0
  189.9220  176.1220  134.6860 C   0  0  0  0  0  2  0  0  0  0  0  0
  185.7900  176.4060  135.9440 C   0  0  0  0  0  2  0  0  0  0  0  0
  185.3110  175.0460  136.3230 C   0  0  0  0  0  0  0  0  0  0  0  0
  183.6470  173.2900  136.1730 C   0  0  0  0  0  3  0  0  0  0  0  0
  185.5860  173.0020  137.5950 C   0  0  0  0  0  3  0  0  0  0  0  0
  184.3870  172.5120  137.0690 C   0  0  0  0  0  3  0  0  0  0  0  0
  186.0470  174.2690  137.2230 C   0  0  0  0  0  3  0  0  0  0  0  0
  184.1070  174.5570  135.8010 C   0  0  0  0  0  3  0  0  0  0  0  0
  2  9  1  0  0  0  0
  2  7  1  0  0  0  0
  3 13  1  0  0  0  0
  4 12  1  0  0  0  0
  5 16  1  0  0  0  0
  5  9  2  0  0  0  0
  6  2  2  0  0  0  0
  8  5  1  0  0  0  0
 10  8  2  0  0  0  0
 10  6  1  0  0  0  0
 11 25  1  6  0  0  0
 11 15  1  0  0  0  0
 11  4  1  0  0  0  0
 12  3  2  0  0  0  0
 12  8  1  0  0  0  0
 13 16  2  0  0  0  0
 14  1  1  0  0  0  0
 14  3  1  0  0  0  0
 15 14  2  0  0  0  0
 17 18  1  0  0  0  0
 17 20  2  0  0  0  0
 18 24  1  6  0  0  0
 18 22  1  0  0  0  0
 20 21  1  0  0  0  0
 21 19  2  0  0  0  0
 21  1  1  0  0  0  0
 22 19  1  0  0  0  0
 24 23  1  0  0  0  0
 25 26  1  6  0  0  0
 27 25  1  0  0  0  0
 29 28  2  0  0  0  0
 29 30  2  0  0  0  0
 29 27  1  0  0  0  0
 31 29  1  0  0  0  0
 32 31  1  0  0  0  0
 32 37  1  0  0  0  0
 33 32  2  0  0  0  0
 35 31  1  0  0  0  0
 35 34  1  0  0  0  0
 36 35  1  0  0  0  0
 36 34  1  0  0  0  0
 37 38  1  0  0  0  0
 38 42  1  0  0  0  0
 39 41  2  0  0  0  0
 41 40  1  0  0  0  0
 42 40  2  0  0  0  0
 43 39  1  0  0  0  0
 43 38  2  0  0  0  0
M  END
>  <MODEL>
5

>  <REMARK>
 VINA RESULT:      -9.4      1.914      6.690
  Name = 
  9 active torsions:
  status: ('A' for Active; 'I' for Inactive)
    1  A    between atoms: N_1  and  C_35
    2  A    between atoms: C_2  and  C_6
    3  A    between atoms: C_2  and  C_27
    4  A    between atoms: N_4  and  S_12
    5  A    between atoms: N_4  and  C_15
    6  A    between atoms: C_6  and  S_12
    7  A    between atoms: C_11  and  C_14
    8  A    between atoms: C_14  and  C_22
    9  A    between atoms: C_19  and  O_37
                            x       y       z     vdW  Elec       q    Type
                         _______ _______ _______ _____ _____    ______ ____

>  <TORSDO>
F 9

$$$$
=
 OpenBabel10262422383D

 43 48  0  0  1  0  0  0  0  0999 V2000
  184.6530  178.3580  143.8400 N   0  0  0  0  0  2  0  0  0  0  0  0
  191.2840  176.8360  147.0090 C   0  0  0  0  0  0  0  0  0  0  0  0
  187.0170  177.7390  144.4530 C   0  0  0  0  0  0  0  0  0  0  0  0
  188.7560  178.1730  142.6960 C   0  0  0  0  0  2  0  0  0  0  0  0
  188.9640  177.1280  146.3770 C   0  0  0  0  0  0  0  0  0  0  0  0
  191.6820  177.1540  145.7080 C   0  0  0  0  0  3  0  0  0  0  0  0
  192.2370  176.5350  147.9720 O   0  0  0  0  0  1  0  0  0  0  0  0
  189.3590  177.4490  145.0560 C   0  0  0  0  0  0  0  0  0  0  0  0
  189.9280  176.8240  147.3440 C   0  0  0  0  0  3  0  0  0  0  0  0
  190.7260  177.4590  144.7360 C   0  0  0  0  0  3  0  0  0  0  0  0
  187.6730  177.7300  141.7030 C   0  0  1  0  0  3  0  0  0  0  0  0
  188.3800  177.7500  144.0910 C   0  0  0  0  0  0  0  0  0  0  0  0
  186.6430  177.4280  145.7660 C   0  0  0  0  0  3  0  0  0  0  0  0
  185.9960  178.0580  143.4300 C   0  0  0  0  0  0  0  0  0  0  0  0
  186.3350  178.0960  142.1740 N   0  0  0  0  0  0  0  0  0  0  0  0
  187.6110  177.1220  146.7220 C   0  0  0  0  0  3  0  0  0  0  0  0
  182.6200  179.0030  140.7530 C   0  0  0  0  0  3  0  0  0  0  0  0
  181.2400  178.9000  141.3480 C   0  0  1  0  0  3  0  0  0  0  0  0
  182.3720  179.0020  143.5740 C   0  0  0  0  0  3  0  0  0  0  0  0
  183.6990  178.8940  141.5350 C   0  0  0  0  0  3  0  0  0  0  0  0
  183.5570  178.7530  143.0030 C   0  0  0  0  0  0  0  0  0  0  0  0
  181.2110  179.5030  142.7560 C   0  0  0  0  0  2  0  0  0  0  0  0
  179.7100  180.4990  141.3570 C   0  0  0  0  0  1  0  0  0  0  0  0
  180.3200  179.5550  140.5280 O   0  0  0  0  0  0  0  0  0  0  0  0
  187.9060  178.2530  140.2830 C   0  0  1  0  0  3  0  0  0  0  0  0
  189.3440  178.7010  140.0730 C   0  0  0  0  0  1  0  0  0  0  0  0
  187.5330  177.2150  139.2330 C   0  0  0  0  0  2  0  0  0  0  0  0
  187.3680  178.9840  137.2060 O   0  0  0  0  0  0  0  0  0  0  0  0
  186.5570  177.9410  137.9220 S   0  0  0  0  0  0  0  0  0  0  0  0
  185.3430  178.5790  138.5350 O   0  0  0  0  0  0  0  0  0  0  0  0
  186.0700  176.7090  136.7890 N   0  0  0  0  0  0  0  0  0  0  0  0
  184.6740  176.4500  136.5490 C   0  0  0  0  0  0  0  0  0  0  0  0
  184.3080  175.3390  136.0810 O   0  0  0  0  0  0  0  0  0  0  0  0
  187.3280  176.1710  134.7600 C   0  0  0  0  0  2  0  0  0  0  0  0
  187.0840  175.8200  136.2190 C   0  0  0  0  0  3  0  0  0  0  0  0
  188.3150  176.6150  135.8120 C   0  0  0  0  0  2  0  0  0  0  0  0
  183.6390  177.5030  136.7900 C   0  0  0  0  0  2  0  0  0  0  0  0
  182.5390  176.9660  137.6390 C   0  0  0  0  0  0  0  0  0  0  0  0
  180.1840  176.8640  138.2050 C   0  0  0  0  0  3  0  0  0  0  0  0
  181.7970  175.6150  139.5090 C   0  0  0  0  0  3  0  0  0  0  0  0
  180.4750  175.9950  139.2620 C   0  0  0  0  0  3  0  0  0  0  0  0
  182.8280  176.1010  138.7000 C   0  0  0  0  0  3  0  0  0  0  0  0
  181.2140  177.3510  137.3950 C   0  0  0  0  0  3  0  0  0  0  0  0
  2  9  1  0  0  0  0
  2  7  1  0  0  0  0
  3 13  1  0  0  0  0
  4 12  1  0  0  0  0
  5 16  1  0  0  0  0
  5  9  2  0  0  0  0
  6  2  2  0  0  0  0
  8  5  1  0  0  0  0
 10  8  2  0  0  0  0
 10  6  1  0  0  0  0
 11 25  1  6  0  0  0
 11 15  1  0  0  0  0
 11  4  1  0  0  0  0
 12  3  2  0  0  0  0
 12  8  1  0  0  0  0
 13 16  2  0  0  0  0
 14  1  1  0  0  0  0
 14  3  1  0  0  0  0
 15 14  2  0  0  0  0
 17 18  1  0  0  0  0
 17 20  2  0  0  0  0
 18 24  1  6  0  0  0
 18 22  1  0  0  0  0
 20 21  1  0  0  0  0
 21 19  2  0  0  0  0
 21  1  1  0  0  0  0
 22 19  1  0  0  0  0
 24 23  1  0  0  0  0
 25 26  1  1  0  0  0
 27 25  1  0  0  0  0
 28 29  2  0  0  0  0
 29 30  2  0  0  0  0
 29 27  1  0  0  0  0
 31 29  1  0  0  0  0
 32 31  1  0  0  0  0
 32 37  1  0  0  0  0
 33 32  2  0  0  0  0
 34 36  1  0  0  0  0
 34 35  1  0  0  0  0
 35 31  1  0  0  0  0
 36 35  1  0  0  0  0
 37 38  1  0  0  0  0
 38 42  1  0  0  0  0
 39 41  2  0  0  0  0
 41 40  1  0  0  0  0
 42 40  2  0  0  0  0
 43 38  2  0  0  0  0
 43 39  1  0  0  0  0
M  END
>  <MODEL>
6

>  <REMARK>
 VINA RESULT:      -9.3      1.655      6.699
  Name = 
  9 active torsions:
  status: ('A' for Active; 'I' for Inactive)
    1  A    between atoms: N_1  and  C_35
    2  A    between atoms: C_2  and  C_6
    3  A    between atoms: C_2  and  C_27
    4  A    between atoms: N_4  and  S_12
    5  A    between atoms: N_4  and  C_15
    6  A    between atoms: C_6  and  S_12
    7  A    between atoms: C_11  and  C_14
    8  A    between atoms: C_14  and  C_22
    9  A    between atoms: C_19  and  O_37
                            x       y       z     vdW  Elec       q    Type
                         _______ _______ _______ _____ _____    ______ ____

>  <TORSDO>
F 9

$$$$
=
 OpenBabel10262422383D

 43 48  0  0  1  0  0  0  0  0999 V2000
  188.8140  177.7990  140.1500 N   0  0  0  0  0  2  0  0  0  0  0  0
  188.4550  177.8560  147.6470 C   0  0  0  0  0  0  0  0  0  0  0  0
  188.2530  178.0040  142.5970 C   0  0  0  0  0  0  0  0  0  0  0  0
  185.8260  177.7660  143.1900 C   0  0  0  0  0  2  0  0  0  0  0  0
  189.0220  177.9680  145.2940 C   0  0  0  0  0  0  0  0  0  0  0  0
  187.0980  177.7820  147.3200 C   0  0  0  0  0  3  0  0  0  0  0  0
  188.8490  177.8360  148.9770 O   0  0  0  0  0  1  0  0  0  0  0  0
  187.6490  177.8950  144.9550 C   0  0  0  0  0  0  0  0  0  0  0  0
  189.4150  177.9480  146.6360 C   0  0  0  0  0  3  0  0  0  0  0  0
  186.6960  177.8020  145.9820 C   0  0  0  0  0  3  0  0  0  0  0  0
  185.5680  178.5300  141.8840 C   0  0  1  0  0  3  0  0  0  0  0  0
  187.2660  177.9190  143.6010 C   0  0  0  0  0  0  0  0  0  0  0  0
  189.6060  178.0660  142.9490 C   0  0  0  0  0  3  0  0  0  0  0  0
  187.8380  178.0290  141.1770 C   0  0  0  0  0  0  0  0  0  0  0  0
  186.5860  178.2230  140.8760 N   0  0  0  0  0  0  0  0  0  0  0  0
  189.9890  178.0500  144.2900 C   0  0  0  0  0  3  0  0  0  0  0  0
  187.5320  176.5710  136.8450 C   0  0  0  0  0  3  0  0  0  0  0  0
  187.5780  177.8640  136.0740 C   0  0  1  0  0  3  0  0  0  0  0  0
  188.9440  178.7540  137.9680 C   0  0  0  0  0  3  0  0  0  0  0  0
  187.9720  176.5250  138.1060 C   0  0  0  0  0  3  0  0  0  0  0  0
  188.5870  177.7170  138.7360 C   0  0  0  0  0  0  0  0  0  0  0  0
  188.8080  178.6870  136.4700 C   0  0  0  0  0  2  0  0  0  0  0  0
  187.2580  176.2500  134.5940 C   0  0  0  0  0  1  0  0  0  0  0  0
  187.6010  177.5990  134.7040 O   0  0  0  0  0  0  0  0  0  0  0  0
  184.1640  178.3020  141.3180 C   0  0  1  0  0  3  0  0  0  0  0  0
  183.0860  178.8500  142.2390 C   0  0  0  0  0  1  0  0  0  0  0  0
  184.0110  178.9080  139.9290 C   0  0  0  0  0  2  0  0  0  0  0  0
  181.5130  179.7560  139.3790 O   0  0  0  0  0  0  0  0  0  0  0  0
  182.4010  178.5520  139.2400 S   0  0  0  0  0  0  0  0  0  0  0  0
  181.8080  177.3980  139.9970 O   0  0  0  0  0  0  0  0  0  0  0  0
  182.5530  178.1370  137.5530 N   0  0  0  0  0  0  0  0  0  0  0  0
  183.5990  177.2510  137.1120 C   0  0  0  0  0  0  0  0  0  0  0  0
  183.9760  177.2670  135.9090 O   0  0  0  0  0  0  0  0  0  0  0  0
  180.8620  177.8370  135.8100 C   0  0  0  0  0  2  0  0  0  0  0  0
  181.7250  178.8350  136.5680 C   0  0  0  0  0  3  0  0  0  0  0  0
  180.2520  178.6740  136.9070 C   0  0  0  0  0  2  0  0  0  0  0  0
  184.2160  176.2570  138.0440 C   0  0  0  0  0  2  0  0  0  0  0  0
  183.8130  174.8720  137.6680 C   0  0  0  0  0  0  0  0  0  0  0  0
  184.4080  172.5740  137.1810 C   0  0  0  0  0  3  0  0  0  0  0  0
  182.0980  173.2840  137.0270 C   0  0  0  0  0  3  0  0  0  0  0  0
  183.0650  172.2820  136.9170 C   0  0  0  0  0  3  0  0  0  0  0  0
  182.4720  174.5790  137.4000 C   0  0  0  0  0  3  0  0  0  0  0  0
  184.7820  173.8680  137.5540 C   0  0  0  0  0  3  0  0  0  0  0  0
  1 14  1  0  0  0  0
  2  7  1  0  0  0  0
  3 13  2  0  0  0  0
  3 12  1  0  0  0  0
  4 12  1  0  0  0  0
  5  9  1  0  0  0  0
  6  2  1  0  0  0  0
  8  5  1  0  0  0  0
  8 10  1  0  0  0  0
  9  2  2  0  0  0  0
 10  6  2  0  0  0  0
 11 25  1  6  0  0  0
 11  4  1  0  0  0  0
 12  8  2  0  0  0  0
 13 16  1  0  0  0  0
 14  3  1  0  0  0  0
 15 14  2  0  0  0  0
 15 11  1  0  0  0  0
 16  5  2  0  0  0  0
 17 20  2  0  0  0  0
 18 24  1  6  0  0  0
 18 22  1  0  0  0  0
 18 17  1  0  0  0  0
 19 21  2  0  0  0  0
 20 21  1  0  0  0  0
 21  1  1  0  0  0  0
 22 19  1  0  0  0  0
 23 24  1  0  0  0  0
 25 26  1  1  0  0  0
 27 25  1  0  0  0  0
 29 28  2  0  0  0  0
 29 27  1  0  0  0  0
 29 30  2  0  0  0  0
 31 29  1  0  0  0  0
 32 31  1  0  0  0  0
 32 37  1  0  0  0  0
 33 32  2  0  0  0  0
 34 35  1  0  0  0  0
 34 36  1  0  0  0  0
 35 36  1  0  0  0  0
 35 31  1  0  0  0  0
 38 37  1  0  0  0  0
 39 43  2  0  0  0  0
 40 42  1  0  0  0  0
 41 40  2  0  0  0  0
 41 39  1  0  0  0  0
 42 38  2  0  0  0  0
 43 38  1  0  0  0  0
M  END
>  <MODEL>
7

>  <REMARK>
 VINA RESULT:      -9.2      2.597      7.423
  Name = 
  9 active torsions:
  status: ('A' for Active; 'I' for Inactive)
    1  A    between atoms: N_1  and  C_35
    2  A    between atoms: C_2  and  C_6
    3  A    between atoms: C_2  and  C_27
    4  A    between atoms: N_4  and  S_12
    5  A    between atoms: N_4  and  C_15
    6  A    between atoms: C_6  and  S_12
    7  A    between atoms: C_11  and  C_14
    8  A    between atoms: C_14  and  C_22
    9  A    between atoms: C_19  and  O_37
                            x       y       z     vdW  Elec       q    Type
                         _______ _______ _______ _____ _____    ______ ____

>  <TORSDO>
F 9

$$$$
=
 OpenBabel10262422383D

 43 48  0  0  1  0  0  0  0  0999 V2000
  188.9070  177.7330  140.2430 N   0  0  0  0  0  2  0  0  0  0  0  0
  188.9690  177.8330  147.7480 C   0  0  0  0  0  0  0  0  0  0  0  0
  188.4910  177.9690  142.7160 C   0  0  0  0  0  0  0  0  0  0  0  0
  186.0940  177.8260  143.4450 C   0  0  0  0  0  2  0  0  0  0  0  0
  189.4080  177.9130  145.3670 C   0  0  0  0  0  0  0  0  0  0  0  0
  187.5940  177.8090  147.4970 C   0  0  0  0  0  3  0  0  0  0  0  0
  189.4360  177.8020  149.0540 O   0  0  0  0  0  1  0  0  0  0  0  0
  188.0160  177.8920  145.1050 C   0  0  0  0  0  0  0  0  0  0  0  0
  189.8740  177.8840  146.6850 C   0  0  0  0  0  3  0  0  0  0  0  0
  187.1190  177.8390  146.1840 C   0  0  0  0  0  3  0  0  0  0  0  0
  185.7920  178.5940  142.1510 C   0  0  1  0  0  3  0  0  0  0  0  0
  187.5590  177.9250  143.7740 C   0  0  0  0  0  0  0  0  0  0  0  0
  189.8640  177.9800  142.9920 C   0  0  0  0  0  3  0  0  0  0  0  0
  187.9990  178.0030  141.3220 C   0  0  0  0  0  0  0  0  0  0  0  0
  186.7410  178.2450  141.0900 N   0  0  0  0  0  0  0  0  0  0  0  0
  190.3200  177.9550  144.3100 C   0  0  0  0  0  3  0  0  0  0  0  0
  187.4400  176.5090  137.0150 C   0  0  0  0  0  3  0  0  0  0  0  0
  187.4360  177.8040  136.2460 C   0  0  1  0  0  3  0  0  0  0  0  0
  188.9060  178.6950  138.0610 C   0  0  0  0  0  3  0  0  0  0  0  0
  187.9530  176.4610  138.2480 C   0  0  0  0  0  3  0  0  0  0  0  0
  188.5980  177.6540  138.8450 C   0  0  0  0  0  0  0  0  0  0  0  0
  188.6840  178.6320  136.5730 C   0  0  0  0  0  2  0  0  0  0  0  0
  186.9850  176.2080  134.7810 C   0  0  0  0  0  1  0  0  0  0  0  0
  187.3810  177.5440  134.8760 O   0  0  0  0  0  0  0  0  0  0  0  0
  184.3520  178.4170  141.6650 C   0  0  1  0  0  3  0  0  0  0  0  0
  183.3420  178.7720  142.7440 C   0  0  0  0  0  1  0  0  0  0  0  0
  184.0750  179.2370  140.4120 C   0  0  0  0  0  2  0  0  0  0  0  0
  183.0600  176.8550  139.6650 O   0  0  0  0  0  0  0  0  0  0  0  0
  183.2360  178.2630  139.1710 S   0  0  0  0  0  0  0  0  0  0  0  0
  184.0770  178.2590  137.9260 O   0  0  0  0  0  0  0  0  0  0  0  0
  181.6730  178.9550  138.8260 N   0  0  0  0  0  0  0  0  0  0  0  0
  180.4770  178.3570  139.3600 C   0  0  0  0  0  0  0  0  0  0  0  0
  179.3630  178.5710  138.8110 O   0  0  0  0  0  0  0  0  0  0  0  0
  180.8010  181.2080  138.4380 C   0  0  0  0  0  2  0  0  0  0  0  0
  181.5710  180.0380  137.8460 C   0  0  0  0  0  3  0  0  0  0  0  0
  182.3050  181.2720  138.3440 C   0  0  0  0  0  2  0  0  0  0  0  0
  180.5160  177.5250  140.6020 C   0  0  0  0  0  2  0  0  0  0  0  0
  180.1350  178.3430  141.7890 C   0  0  0  0  0  0  0  0  0  0  0  0
  179.6820  180.5030  142.7890 C   0  0  0  0  0  3  0  0  0  0  0  0
  179.5840  178.4980  144.1430 C   0  0  0  0  0  3  0  0  0  0  0  0
  179.4640  179.8860  144.0250 C   0  0  0  0  0  3  0  0  0  0  0  0
  179.9210  177.7280  143.0270 C   0  0  0  0  0  3  0  0  0  0  0  0
  180.0190  179.7330  141.6720 C   0  0  0  0  0  3  0  0  0  0  0  0
  1 14  1  0  0  0  0
  2  7  1  0  0  0  0
  3 13  2  0  0  0  0
  3 12  1  0  0  0  0
  4 12  1  0  0  0  0
  5  9  1  0  0  0  0
  6  2  1  0  0  0  0
  8  5  1  0  0  0  0
  8 10  1  0  0  0  0
  9  2  2  0  0  0  0
 10  6  2  0  0  0  0
 11 25  1  6  0  0  0
 11  4  1  0  0  0  0
 12  8  2  0  0  0  0
 13 16  1  0  0  0  0
 14  3  1  0  0  0  0
 15 14  2  0  0  0  0
 15 11  1  0  0  0  0
 16  5  2  0  0  0  0
 17 20  2  0  0  0  0
 18 24  1  6  0  0  0
 18 22  1  0  0  0  0
 18 17  1  0  0  0  0
 19 21  2  0  0  0  0
 20 21  1  0  0  0  0
 21  1  1  0  0  0  0
 22 19  1  0  0  0  0
 23 24  1  0  0  0  0
 25 26  1  1  0  0  0
 27 25  1  0  0  0  0
 29 28  2  0  0  0  0
 29 27  1  0  0  0  0
 30 29  2  0  0  0  0
 31 29  1  0  0  0  0
 31 32  1  0  0  0  0
 32 37  1  0  0  0  0
 33 32  2  0  0  0  0
 35 36  1  0  0  0  0
 35 34  1  0  0  0  0
 35 31  1  0  0  0  0
 36 34  1  0  0  0  0
 37 38  1  0  0  0  0
 38 42  1  0  0  0  0
 39 41  2  0  0  0  0
 41 40  1  0  0  0  0
 42 40  2  0  0  0  0
 43 38  2  0  0  0  0
 43 39  1  0  0  0  0
M  END
>  <MODEL>
8

>  <REMARK>
 VINA RESULT:      -9.1      2.521      8.106
  Name = 
  9 active torsions:
  status: ('A' for Active; 'I' for Inactive)
    1  A    between atoms: N_1  and  C_35
    2  A    between atoms: C_2  and  C_6
    3  A    between atoms: C_2  and  C_27
    4  A    between atoms: N_4  and  S_12
    5  A    between atoms: N_4  and  C_15
    6  A    between atoms: C_6  and  S_12
    7  A    between atoms: C_11  and  C_14
    8  A    between atoms: C_14  and  C_22
    9  A    between atoms: C_19  and  O_37
                            x       y       z     vdW  Elec       q    Type
                         _______ _______ _______ _____ _____    ______ ____

>  <TORSDO>
F 9

$$$$
=
 OpenBabel10262422383D

 43 48  0  0  1  0  0  0  0  0999 V2000
  189.0170  177.5430  140.2740 N   0  0  0  0  0  2  0  0  0  0  0  0
  187.4100  177.8290  147.6000 C   0  0  0  0  0  0  0  0  0  0  0  0
  188.1090  177.9190  142.5930 C   0  0  0  0  0  0  0  0  0  0  0  0
  185.6270  178.2520  142.7600 C   0  0  0  0  0  2  0  0  0  0  0  0
  188.3800  177.7610  145.3810 C   0  0  0  0  0  0  0  0  0  0  0  0
  186.1480  178.0590  147.0460 C   0  0  0  0  0  3  0  0  0  0  0  0
  187.5580  177.7450  148.9770 O   0  0  0  0  0  1  0  0  0  0  0  0
  187.1050  177.9970  144.8120 C   0  0  0  0  0  0  0  0  0  0  0  0
  188.5230  177.6790  146.7690 C   0  0  0  0  0  3  0  0  0  0  0  0
  185.9950  178.1430  145.6600 C   0  0  0  0  0  3  0  0  0  0  0  0
  185.7760  179.0290  141.4450 C   0  0  1  0  0  3  0  0  0  0  0  0
  186.9730  178.0810  143.4130 C   0  0  0  0  0  0  0  0  0  0  0  0
  189.3610  177.6780  143.1720 C   0  0  0  0  0  3  0  0  0  0  0  0
  187.9580  178.0090  141.1240 C   0  0  0  0  0  0  0  0  0  0  0  0
  186.8540  178.4780  140.6190 N   0  0  0  0  0  0  0  0  0  0  0  0
  189.4960  177.6010  144.5580 C   0  0  0  0  0  3  0  0  0  0  0  0
  189.2240  176.1550  136.7950 C   0  0  0  0  0  3  0  0  0  0  0  0
  188.4060  177.1930  136.0720 C   0  0  1  0  0  3  0  0  0  0  0  0
  188.6030  178.5590  138.1560 C   0  0  0  0  0  3  0  0  0  0  0  0
  189.4730  176.2850  138.1010 C   0  0  0  0  0  3  0  0  0  0  0  0
  189.0210  177.4870  138.8410 C   0  0  0  0  0  0  0  0  0  0  0  0
  188.6670  178.5880  136.6520 C   0  0  0  0  0  2  0  0  0  0  0  0
  189.8050  176.3140  134.6000 C   0  0  0  0  0  1  0  0  0  0  0  0
  188.7130  177.1770  134.7110 O   0  0  0  0  0  0  0  0  0  0  0  0
  184.4750  179.1150  140.6440 C   0  0  1  0  0  3  0  0  0  0  0  0
  184.7350  179.3640  139.1670 C   0  0  0  0  0  1  0  0  0  0  0  0
  183.6260  177.8620  140.8110 C   0  0  0  0  0  2  0  0  0  0  0  0
  181.5700  179.0830  142.0530 O   0  0  0  0  0  0  0  0  0  0  0  0
  181.8830  178.2570  140.8370 S   0  0  0  0  0  0  0  0  0  0  0  0
  181.1080  176.9710  140.8870 O   0  0  0  0  0  0  0  0  0  0  0  0
  181.4530  179.1510  139.4040 N   0  0  0  0  0  0  0  0  0  0  0  0
  181.6350  178.5690  138.1000 C   0  0  0  0  0  0  0  0  0  0  0  0
  181.7270  179.3100  137.0830 O   0  0  0  0  0  0  0  0  0  0  0  0
  179.7080  180.7930  138.9060 C   0  0  0  0  0  2  0  0  0  0  0  0
  181.0770  180.5610  139.5270 C   0  0  0  0  0  3  0  0  0  0  0  0
  179.8450  180.7040  140.4060 C   0  0  0  0  0  2  0  0  0  0  0  0
  181.6570  177.0860  137.9110 C   0  0  0  0  0  2  0  0  0  0  0  0
  182.7790  176.6930  137.0120 C   0  0  0  0  0  0  0  0  0  0  0  0
  185.0680  175.9510  136.7150 C   0  0  0  0  0  3  0  0  0  0  0  0
  183.6790  176.3940  134.7820 C   0  0  0  0  0  3  0  0  0  0  0  0
  184.9030  175.9980  135.3270 C   0  0  0  0  0  3  0  0  0  0  0  0
  182.6180  176.7430  135.6240 C   0  0  0  0  0  3  0  0  0  0  0  0
  184.0080  176.3000  137.5570 C   0  0  0  0  0  3  0  0  0  0  0  0
  1 14  1  0  0  0  0
  2  7  1  0  0  0  0
  3 13  2  0  0  0  0
  3 12  1  0  0  0  0
  4 12  1  0  0  0  0
  5  9  1  0  0  0  0
  6  2  1  0  0  0  0
  8  5  1  0  0  0  0
  8 10  1  0  0  0  0
  9  2  2  0  0  0  0
 10  6  2  0  0  0  0
 11 25  1  6  0  0  0
 11  4  1  0  0  0  0
 12  8  2  0  0  0  0
 13 16  1  0  0  0  0
 14  3  1  0  0  0  0
 15 14  2  0  0  0  0
 15 11  1  0  0  0  0
 16  5  2  0  0  0  0
 17 20  2  0  0  0  0
 18 24  1  6  0  0  0
 18 22  1  0  0  0  0
 18 17  1  0  0  0  0
 19 21  2  0  0  0  0
 20 21  1  0  0  0  0
 21  1  1  0  0  0  0
 22 19  1  0  0  0  0
 23 24  1  0  0  0  0
 25 26  1  6  0  0  0
 25 27  1  0  0  0  0
 27 29  1  0  0  0  0
 29 30  2  0  0  0  0
 29 28  2  0  0  0  0
 31 35  1  0  0  0  0
 31 29  1  0  0  0  0
 32 31  1  0  0  0  0
 33 32  2  0  0  0  0
 34 35  1  0  0  0  0
 34 36  1  0  0  0  0
 35 36  1  0  0  0  0
 37 32  1  0  0  0  0
 38 43  1  0  0  0  0
 38 37  1  0  0  0  0
 39 43  2  0  0  0  0
 40 41  2  0  0  0  0
 40 42  1  0  0  0  0
 41 39  1  0  0  0  0
 42 38  2  0  0  0  0
M  END
>  <MODEL>
9

>  <REMARK>
 VINA RESULT:      -8.8      2.570      7.506
  Name = 
  9 active torsions:
  status: ('A' for Active; 'I' for Inactive)
    1  A    between atoms: N_1  and  C_35
    2  A    between atoms: C_2  and  C_6
    3  A    between atoms: C_2  and  C_27
    4  A    between atoms: N_4  and  S_12
    5  A    between atoms: N_4  and  C_15
    6  A    between atoms: C_6  and  S_12
    7  A    between atoms: C_11  and  C_14
    8  A    between atoms: C_14  and  C_22
    9  A    between atoms: C_19  and  O_37
                            x       y       z     vdW  Elec       q    Type
                         _______ _______ _______ _____ _____    ______ ____

>  <TORSDO>
F 9

$$$$
