=
 OpenBabel10262419203D

 31 35  0  0  1  0  0  0  0  0999 V2000
  188.8110  178.0120  147.2550 C   0  0  0  0  0  0  0  0  0  0  0  0
  186.5780  177.7810  144.1460 C   0  0  1  0  0  3  0  0  0  0  0  0
  187.7060  177.8060  143.0890 C   0  0  1  0  0  3  0  0  0  0  0  0
  189.6640  176.3330  142.3980 C   0  0  0  0  0  2  0  0  0  0  0  0
  187.0670  177.9320  145.5680 C   0  0  0  0  0  0  0  0  0  0  0  0
  187.8470  178.2180  148.2460 C   0  0  0  0  0  3  0  0  0  0  0  0
  188.3100  176.4000  143.0840 C   0  0  0  0  0  2  0  0  0  0  0  0
  184.4050  178.9160  144.8920 C   0  0  1  0  0  3  0  0  0  0  0  0
  190.1220  177.9530  147.5880 F   0  0  0  0  0  0  0  0  0  0  0  0
  186.2630  179.3410  141.7070 C   0  0  0  0  0  3  0  0  0  0  0  0
  189.4830  176.3440  140.8900 C   0  0  0  0  0  2  0  0  0  0  0  0
  184.6530  178.1480  146.2010 C   0  0  0  0  0  2  0  0  0  0  0  0
  185.4900  178.7480  143.9050 N   0  0  0  0  0  0  0  0  0  0  0  0
  188.4240  177.8660  145.9200 C   0  0  0  0  0  3  0  0  0  0  0  0
  189.3310  177.7460  140.3960 C   0  0  0  0  0  3  0  0  0  0  0  0
  186.1030  178.1350  146.5690 C   0  0  0  0  0  0  0  0  0  0  0  0
  186.4930  178.2760  147.9040 C   0  0  0  0  0  3  0  0  0  0  0  0
  185.4600  179.5730  142.7360 C   0  0  0  0  0  3  0  0  0  0  0  0
  187.1980  178.1740  141.6790 C   0  0  1  0  0  3  0  0  0  0  0  0
  188.3230  178.5530  140.7530 C   0  0  0  0  0  3  0  0  0  0  0  0
  183.0590  178.4910  144.3100 C   0  0  0  0  0  2  0  0  0  0  0  0
  182.4710  179.5570  143.6130 O   0  0  0  0  0  0  0  0  0  0  0  0
  180.5170  178.0110  143.9320 C   0  0  0  0  0  1  0  0  0  0  0  0
  179.6580  181.0260  142.4000 O   0  0  0  0  0  0  0  0  0  0  0  0
  180.4250  180.0300  142.4610 C   0  0  0  0  0  0  0  0  0  0  0  0
  181.2160  178.9000  141.7890 N   0  0  0  0  0  0  0  0  0  0  0  0
  181.2090  179.1260  143.1650 C   0  0  1  0  0  0  0  0  0  0  0  0
  181.6600  178.2010  140.5910 C   0  0  0  0  0  0  0  0  0  0  0  0
  181.6810  179.0960  139.5190 O   0  0  0  0  0  1  0  0  0  0  0  0
  180.7000  177.0710  140.2800 C   0  0  0  0  0  1  0  0  0  0  0  0
  183.0540  177.6370  140.8010 C   0  0  0  0  0  1  0  0  0  0  0  0
  1  9  1  0  0  0  0
  1  6  1  0  0  0  0
  2  5  1  1  0  0  0
  3  7  1  6  0  0  0
  3  2  1  0  0  0  0
  4  7  1  0  0  0  0
  5 14  1  0  0  0  0
  5 16  2  0  0  0  0
  8 21  1  6  0  0  0
  8 12  1  0  0  0  0
 10 18  2  0  0  0  0
 11  4  1  0  0  0  0
 12 16  1  0  0  0  0
 13  2  1  0  0  0  0
 13  8  1  0  0  0  0
 14  1  2  0  0  0  0
 15 20  2  0  0  0  0
 15 11  1  0  0  0  0
 16 17  1  0  0  0  0
 17  6  2  0  0  0  0
 18 13  1  0  0  0  0
 19 20  1  6  0  0  0
 19 10  1  0  0  0  0
 19  3  1  0  0  0  0
 22 21  1  0  0  0  0
 24 25  2  0  0  0  0
 25 27  1  0  0  0  0
 26 25  1  0  0  0  0
 26 27  1  0  0  0  0
 27 22  1  0  0  0  0
 27 23  1  1  0  0  0
 28 31  1  0  0  0  0
 28 26  1  0  0  0  0
 29 28  1  0  0  0  0
 30 28  1  0  0  0  0
M  END
>  <MODEL>
1

>  <REMARK>
 VINA RESULT:      -9.0      0.000      0.000
  Name = 
  4 active torsions:
  status: ('A' for Active; 'I' for Inactive)
    1  A    between atoms: C_1  and  N_19
    2  A    between atoms: O_9  and  C_22
    3  A    between atoms: O_9  and  C_23
    4  A    between atoms: C_15  and  C_23
                            x       y       z     vdW  Elec       q    Type
                         _______ _______ _______ _____ _____    ______ ____

>  <TORSDO>
F 4

$$$$
=
 OpenBabel10262419203D

 31 35  0  0  1  0  0  0  0  0999 V2000
  186.6950  178.5410  146.9650 C   0  0  0  0  0  0  0  0  0  0  0  0
  186.6480  177.6130  143.2440 C   0  0  1  0  0  3  0  0  0  0  0  0
  188.1780  177.5180  143.0440 C   0  0  1  0  0  3  0  0  0  0  0  0
  190.0940  176.0690  143.8860 C   0  0  0  0  0  2  0  0  0  0  0  0
  186.2370  178.0480  144.6320 C   0  0  0  0  0  0  0  0  0  0  0  0
  185.3500  178.8620  147.1640 C   0  0  0  0  0  3  0  0  0  0  0  0
  188.5970  176.1740  143.6440 C   0  0  0  0  0  2  0  0  0  0  0  0
  184.5060  178.7270  142.3840 C   0  0  1  0  0  3  0  0  0  0  0  0
  187.5710  178.6250  147.9940 F   0  0  0  0  0  0  0  0  0  0  0  0
  187.8770  178.6840  140.8310 C   0  0  0  0  0  3  0  0  0  0  0  0
  190.8140  175.7960  142.5780 C   0  0  0  0  0  2  0  0  0  0  0  0
  183.9140  178.2240  143.7110 C   0  0  0  0  0  2  0  0  0  0  0  0
  185.9500  178.4510  142.2500 N   0  0  0  0  0  0  0  0  0  0  0  0
  187.1390  178.1330  145.7040 C   0  0  0  0  0  3  0  0  0  0  0  0
  191.0500  177.0740  141.8390 C   0  0  0  0  0  3  0  0  0  0  0  0
  184.8860  178.3690  144.8400 C   0  0  0  0  0  0  0  0  0  0  0  0
  184.4430  178.7720  146.1040 C   0  0  0  0  0  3  0  0  0  0  0  0
  186.6430  179.0480  141.1490 C   0  0  0  0  0  3  0  0  0  0  0  0
  188.5940  177.5920  141.5590 C   0  0  1  0  0  3  0  0  0  0  0  0
  190.0650  177.8680  141.3970 C   0  0  0  0  0  3  0  0  0  0  0  0
  183.7180  178.1200  141.2240 C   0  0  0  0  0  2  0  0  0  0  0  0
  182.4240  178.6600  141.1780 O   0  0  0  0  0  0  0  0  0  0  0  0
  180.9170  179.8920  139.5920 C   0  0  0  0  0  1  0  0  0  0  0  0
  184.3090  180.4070  138.9560 O   0  0  0  0  0  0  0  0  0  0  0  0
  183.3670  179.6060  139.1900 C   0  0  0  0  0  0  0  0  0  0  0  0
  182.6100  178.3020  138.9040 N   0  0  0  0  0  0  0  0  0  0  0  0
  182.2400  179.2090  139.8970 C   0  0  1  0  0  0  0  0  0  0  0  0
  182.4690  177.0510  138.1730 C   0  0  0  0  0  0  0  0  0  0  0  0
  183.7200  176.4360  138.0710 O   0  0  0  0  0  1  0  0  0  0  0  0
  181.9380  177.3350  136.7830 C   0  0  0  0  0  1  0  0  0  0  0  0
  181.5120  176.1240  138.9000 C   0  0  0  0  0  1  0  0  0  0  0  0
  1  6  1  0  0  0  0
  1  9  1  0  0  0  0
  2  5  1  1  0  0  0
  3  2  1  0  0  0  0
  3  7  1  6  0  0  0
  5 16  2  0  0  0  0
  5 14  1  0  0  0  0
  7  4  1  0  0  0  0
  8 21  1  6  0  0  0
  8 12  1  0  0  0  0
 10 18  2  0  0  0  0
 11  4  1  0  0  0  0
 12 16  1  0  0  0  0
 13  8  1  0  0  0  0
 13  2  1  0  0  0  0
 14  1  2  0  0  0  0
 15 11  1  0  0  0  0
 16 17  1  0  0  0  0
 17  6  2  0  0  0  0
 18 13  1  0  0  0  0
 19 10  1  6  0  0  0
 19  3  1  0  0  0  0
 20 19  1  0  0  0  0
 20 15  2  0  0  0  0
 22 21  1  0  0  0  0
 24 25  2  0  0  0  0
 25 27  1  0  0  0  0
 26 25  1  0  0  0  0
 26 27  1  0  0  0  0
 27 23  1  6  0  0  0
 27 22  1  0  0  0  0
 28 31  1  0  0  0  0
 28 26  1  0  0  0  0
 29 28  1  0  0  0  0
 30 28  1  0  0  0  0
M  END
>  <MODEL>
2

>  <REMARK>
 VINA RESULT:      -8.8      1.841      2.774
  Name = 
  4 active torsions:
  status: ('A' for Active; 'I' for Inactive)
    1  A    between atoms: C_1  and  N_19
    2  A    between atoms: O_9  and  C_22
    3  A    between atoms: O_9  and  C_23
    4  A    between atoms: C_15  and  C_23
                            x       y       z     vdW  Elec       q    Type
                         _______ _______ _______ _____ _____    ______ ____

>  <TORSDO>
F 4

$$$$
=
 OpenBabel10262419203D

 31 35  0  0  1  0  0  0  0  0999 V2000
  186.8620  178.5320  147.0220 C   0  0  0  0  0  0  0  0  0  0  0  0
  186.8550  177.6020  143.3020 C   0  0  1  0  0  3  0  0  0  0  0  0
  188.3870  177.5230  143.1140 C   0  0  1  0  0  3  0  0  0  0  0  0
  190.3120  176.0950  143.9720 C   0  0  0  0  0  2  0  0  0  0  0  0
  186.4290  178.0340  144.6860 C   0  0  0  0  0  0  0  0  0  0  0  0
  185.5120  178.8390  147.2110 C   0  0  0  0  0  3  0  0  0  0  0  0
  188.8160  176.1840  143.7180 C   0  0  0  0  0  2  0  0  0  0  0  0
  184.7080  178.6930  142.4240 C   0  0  1  0  0  3  0  0  0  0  0  0
  187.7300  178.6250  148.0590 F   0  0  0  0  0  0  0  0  0  0  0  0
  188.0920  178.6850  140.8980 C   0  0  0  0  0  3  0  0  0  0  0  0
  191.0450  175.8290  142.6690 C   0  0  0  0  0  2  0  0  0  0  0  0
  184.1110  178.1850  143.7470 C   0  0  0  0  0  2  0  0  0  0  0  0
  186.1560  178.4320  142.3020 N   0  0  0  0  0  0  0  0  0  0  0  0
  187.3210  178.1280  145.7650 C   0  0  0  0  0  3  0  0  0  0  0  0
  191.2730  177.1090  141.9320 C   0  0  0  0  0  3  0  0  0  0  0  0
  185.0720  178.3400  144.8840 C   0  0  0  0  0  0  0  0  0  0  0  0
  184.6160  178.7390  146.1430 C   0  0  0  0  0  3  0  0  0  0  0  0
  186.8510  179.0360  141.2060 C   0  0  0  0  0  3  0  0  0  0  0  0
  188.8140  177.6010  141.6320 C   0  0  1  0  0  3  0  0  0  0  0  0
  190.2830  177.8920  141.4810 C   0  0  0  0  0  3  0  0  0  0  0  0
  183.9360  178.0780  141.2590 C   0  0  0  0  0  2  0  0  0  0  0  0
  183.1460  179.0520  140.6290 O   0  0  0  0  0  0  0  0  0  0  0  0
  181.4710  177.2860  140.0120 C   0  0  0  0  0  1  0  0  0  0  0  0
  180.6460  179.0130  142.9290 O   0  0  0  0  0  0  0  0  0  0  0  0
  181.0180  179.0460  141.7270 C   0  0  0  0  0  0  0  0  0  0  0  0
  180.9330  179.6290  140.3110 N   0  0  0  0  0  0  0  0  0  0  0  0
  181.8130  178.6090  140.6760 C   0  0  1  0  0  0  0  0  0  0  0  0
  180.3760  180.5840  139.3630 C   0  0  0  0  0  0  0  0  0  0  0  0
  179.7460  181.6130  140.0670 O   0  0  0  0  0  1  0  0  0  0  0  0
  179.3610  179.8870  138.4810 C   0  0  0  0  0  1  0  0  0  0  0  0
  181.4800  181.1690  138.5000 C   0  0  0  0  0  1  0  0  0  0  0  0
  1  6  1  0  0  0  0
  1  9  1  0  0  0  0
  2  5  1  1  0  0  0
  3  2  1  0  0  0  0
  3  7  1  6  0  0  0
  5 16  2  0  0  0  0
  5 14  1  0  0  0  0
  7  4  1  0  0  0  0
  8 21  1  6  0  0  0
  8 12  1  0  0  0  0
 10 18  2  0  0  0  0
 11  4  1  0  0  0  0
 12 16  1  0  0  0  0
 13  8  1  0  0  0  0
 13  2  1  0  0  0  0
 14  1  2  0  0  0  0
 15 11  1  0  0  0  0
 16 17  1  0  0  0  0
 17  6  2  0  0  0  0
 18 13  1  0  0  0  0
 19 10  1  6  0  0  0
 19  3  1  0  0  0  0
 20 19  1  0  0  0  0
 20 15  2  0  0  0  0
 22 27  1  0  0  0  0
 22 21  1  0  0  0  0
 25 24  2  0  0  0  0
 26 27  1  0  0  0  0
 26 25  1  0  0  0  0
 27 23  1  6  0  0  0
 27 25  1  0  0  0  0
 28 29  1  0  0  0  0
 28 26  1  0  0  0  0
 30 28  1  0  0  0  0
 31 28  1  0  0  0  0
M  END
>  <MODEL>
3

>  <REMARK>
 VINA RESULT:      -8.6      1.669      2.452
  Name = 
  4 active torsions:
  status: ('A' for Active; 'I' for Inactive)
    1  A    between atoms: C_1  and  N_19
    2  A    between atoms: O_9  and  C_22
    3  A    between atoms: O_9  and  C_23
    4  A    between atoms: C_15  and  C_23
                            x       y       z     vdW  Elec       q    Type
                         _______ _______ _______ _____ _____    ______ ____

>  <TORSDO>
F 4

$$$$
=
 OpenBabel10262419203D

 31 35  0  0  1  0  0  0  0  0999 V2000
  186.6190  178.4590  146.9450 C   0  0  0  0  0  0  0  0  0  0  0  0
  187.0340  177.6260  143.2250 C   0  0  1  0  0  3  0  0  0  0  0  0
  188.5760  177.5290  143.2140 C   0  0  1  0  0  3  0  0  0  0  0  0
  190.3720  176.0510  144.2510 C   0  0  0  0  0  2  0  0  0  0  0  0
  186.4540  178.0280  144.5610 C   0  0  0  0  0  0  0  0  0  0  0  0
  185.2600  178.7810  146.9840 C   0  0  0  0  0  3  0  0  0  0  0  0
  188.9170  176.1690  143.8270 C   0  0  0  0  0  2  0  0  0  0  0  0
  185.0160  178.7700  142.1340 C   0  0  1  0  0  3  0  0  0  0  0  0
  187.3610  178.5130  148.0770 F   0  0  0  0  0  0  0  0  0  0  0  0
  188.5550  178.7530  141.0120 C   0  0  0  0  0  3  0  0  0  0  0  0
  191.2480  175.8090  143.0350 C   0  0  0  0  0  2  0  0  0  0  0  0
  184.2640  178.2370  143.3650 C   0  0  0  0  0  2  0  0  0  0  0  0
  186.4660  178.4920  142.1740 N   0  0  0  0  0  0  0  0  0  0  0  0
  187.2160  178.0810  145.7390 C   0  0  0  0  0  3  0  0  0  0  0  0
  191.5750  177.1040  142.3640 C   0  0  0  0  0  3  0  0  0  0  0  0
  185.0880  178.3490  144.6090 C   0  0  0  0  0  0  0  0  0  0  0  0
  184.4920  178.7220  145.8170 C   0  0  0  0  0  3  0  0  0  0  0  0
  187.2910  179.1140  141.1830 C   0  0  0  0  0  3  0  0  0  0  0  0
  189.1740  177.6390  141.7950 C   0  0  1  0  0  3  0  0  0  0  0  0
  190.6540  177.9130  141.8230 C   0  0  0  0  0  3  0  0  0  0  0  0
  184.3790  178.1970  140.8710 C   0  0  0  0  0  2  0  0  0  0  0  0
  183.1540  177.5850  141.1770 O   0  0  0  0  0  0  0  0  0  0  0  0
  182.5680  179.3100  139.4470 C   0  0  0  0  0  1  0  0  0  0  0  0
  180.7720  176.3390  139.1000 O   0  0  0  0  0  0  0  0  0  0  0  0
  181.1900  177.2630  139.8450 C   0  0  0  0  0  0  0  0  0  0  0  0
  180.9670  178.2960  140.9570 N   0  0  0  0  0  0  0  0  0  0  0  0
  182.1870  178.1140  140.3040 C   0  0  1  0  0  0  0  0  0  0  0  0
  180.1140  178.9150  141.9620 C   0  0  0  0  0  0  0  0  0  0  0  0
  179.0600  178.0490  142.2640 O   0  0  0  0  0  1  0  0  0  0  0  0
  179.5540  180.2130  141.4170 C   0  0  0  0  0  1  0  0  0  0  0  0
  180.9100  179.1970  143.2230 C   0  0  0  0  0  1  0  0  0  0  0  0
  1  6  1  0  0  0  0
  1  9  1  0  0  0  0
  2  5  1  1  0  0  0
  3  2  1  0  0  0  0
  3  7  1  6  0  0  0
  5 16  2  0  0  0  0
  5 14  1  0  0  0  0
  7  4  1  0  0  0  0
  8 21  1  6  0  0  0
  8 13  1  0  0  0  0
  8 12  1  0  0  0  0
 10 18  2  0  0  0  0
 11  4  1  0  0  0  0
 12 16  1  0  0  0  0
 13  2  1  0  0  0  0
 14  1  2  0  0  0  0
 15 11  1  0  0  0  0
 16 17  1  0  0  0  0
 17  6  2  0  0  0  0
 18 13  1  0  0  0  0
 19 10  1  6  0  0  0
 19 20  1  0  0  0  0
 19  3  1  0  0  0  0
 20 15  2  0  0  0  0
 21 22  1  0  0  0  0
 24 25  2  0  0  0  0
 25 27  1  0  0  0  0
 25 26  1  0  0  0  0
 26 28  1  0  0  0  0
 27 23  1  6  0  0  0
 27 26  1  0  0  0  0
 27 22  1  0  0  0  0
 28 29  1  0  0  0  0
 28 31  1  0  0  0  0
 30 28  1  0  0  0  0
M  END
>  <MODEL>
4

>  <REMARK>
 VINA RESULT:      -8.6      1.568      2.908
  Name = 
  4 active torsions:
  status: ('A' for Active; 'I' for Inactive)
    1  A    between atoms: C_1  and  N_19
    2  A    between atoms: O_9  and  C_22
    3  A    between atoms: O_9  and  C_23
    4  A    between atoms: C_15  and  C_23
                            x       y       z     vdW  Elec       q    Type
                         _______ _______ _______ _____ _____    ______ ____

>  <TORSDO>
F 4

$$$$
=
 OpenBabel10262419203D

 31 35  0  0  1  0  0  0  0  0999 V2000
  184.8930  179.3430  143.0500 C   0  0  0  0  0  0  0  0  0  0  0  0
  188.2650  177.5940  143.5780 C   0  0  1  0  0  3  0  0  0  0  0  0
  188.3790  177.8380  145.1000 C   0  0  1  0  0  3  0  0  0  0  0  0
  187.1330  177.1480  147.2100 C   0  0  0  0  0  2  0  0  0  0  0  0
  187.0460  178.2240  142.9460 C   0  0  0  0  0  0  0  0  0  0  0  0
  184.8290  179.3560  141.6540 C   0  0  0  0  0  3  0  0  0  0  0  0
  187.4490  176.8190  145.7600 C   0  0  0  0  0  2  0  0  0  0  0  0
  189.4530  177.9090  141.3280 C   0  0  1  0  0  3  0  0  0  0  0  0
  183.8860  179.8780  143.7800 F   0  0  0  0  0  0  0  0  0  0  0  0
  190.8220  178.3470  144.7510 C   0  0  0  0  0  3  0  0  0  0  0  0
  188.3060  176.7660  148.0960 C   0  0  0  0  0  2  0  0  0  0  0  0
  188.0650  177.5980  140.7450 C   0  0  0  0  0  2  0  0  0  0  0  0
  189.4610  177.9770  142.8040 N   0  0  0  0  0  0  0  0  0  0  0  0
  185.9960  178.7760  143.6960 C   0  0  0  0  0  3  0  0  0  0  0  0
  189.3300  177.8550  148.0990 C   0  0  0  0  0  3  0  0  0  0  0  0
  186.9720  178.2380  141.5430 C   0  0  0  0  0  0  0  0  0  0  0  0
  185.8660  178.8000  140.9000 C   0  0  0  0  0  3  0  0  0  0  0  0
  190.6500  178.4550  143.4410 C   0  0  0  0  0  3  0  0  0  0  0  0
  189.8200  177.6670  145.6280 C   0  0  1  0  0  3  0  0  0  0  0  0
  189.9920  178.2540  147.0040 C   0  0  0  0  0  3  0  0  0  0  0  0
  190.4530  176.8740  140.8190 C   0  0  0  0  0  2  0  0  0  0  0  0
  189.8390  176.0150  139.8950 O   0  0  0  0  0  0  0  0  0  0  0  0
  191.9020  176.8230  138.7130 C   0  0  0  0  0  1  0  0  0  0  0  0
  190.5740  173.9040  137.3380 O   0  0  0  0  0  0  0  0  0  0  0  0
  190.3900  175.0740  137.7640 C   0  0  0  0  0  0  0  0  0  0  0  0
  189.7630  176.4680  137.6320 N   0  0  0  0  0  0  0  0  0  0  0  0
  190.5750  176.0820  138.6990 C   0  0  1  0  0  0  0  0  0  0  0  0
  188.9080  177.4130  136.9280 C   0  0  0  0  0  0  0  0  0  0  0  0
  189.2490  177.4180  135.5730 O   0  0  0  0  0  1  0  0  0  0  0  0
  189.1120  178.8010  137.4990 C   0  0  0  0  0  1  0  0  0  0  0  0
  187.4510  177.0130  137.0770 C   0  0  0  0  0  1  0  0  0  0  0  0
  1 14  1  0  0  0  0
  1  9  1  0  0  0  0
  2  5  1  6  0  0  0
  2  3  1  0  0  0  0
  3 19  1  0  0  0  0
  3  7  1  1  0  0  0
  4 11  1  0  0  0  0
  5 14  2  0  0  0  0
  6  1  2  0  0  0  0
  7  4  1  0  0  0  0
  8 21  1  1  0  0  0
  8 13  1  0  0  0  0
 11 15  1  0  0  0  0
 12  8  1  0  0  0  0
 12 16  1  0  0  0  0
 13 18  1  0  0  0  0
 13  2  1  0  0  0  0
 16  5  1  0  0  0  0
 17 16  2  0  0  0  0
 17  6  1  0  0  0  0
 18 10  2  0  0  0  0
 19 10  1  6  0  0  0
 19 20  1  0  0  0  0
 20 15  2  0  0  0  0
 22 21  1  0  0  0  0
 24 25  2  0  0  0  0
 25 27  1  0  0  0  0
 26 25  1  0  0  0  0
 26 27  1  0  0  0  0
 27 23  1  1  0  0  0
 27 22  1  0  0  0  0
 28 31  1  0  0  0  0
 28 30  1  0  0  0  0
 28 26  1  0  0  0  0
 29 28  1  0  0  0  0
M  END
>  <MODEL>
5

>  <REMARK>
 VINA RESULT:      -8.1      4.307      7.497
  Name = 
  4 active torsions:
  status: ('A' for Active; 'I' for Inactive)
    1  A    between atoms: C_1  and  N_19
    2  A    between atoms: O_9  and  C_22
    3  A    between atoms: O_9  and  C_23
    4  A    between atoms: C_15  and  C_23
                            x       y       z     vdW  Elec       q    Type
                         _______ _______ _______ _____ _____    ______ ____

>  <TORSDO>
F 4

$$$$
=
 OpenBabel10262419203D

 31 35  0  0  1  0  0  0  0  0999 V2000
  186.2460  178.6490  139.8560 C   0  0  0  0  0  0  0  0  0  0  0  0
  189.5220  176.9120  140.8330 C   0  0  1  0  0  3  0  0  0  0  0  0
  189.5820  177.4090  142.2960 C   0  0  1  0  0  3  0  0  0  0  0  0
  188.2230  177.1280  144.4300 C   0  0  0  0  0  2  0  0  0  0  0  0
  188.3560  177.4620  140.0460 C   0  0  0  0  0  0  0  0  0  0  0  0
  186.2410  178.4270  138.4770 C   0  0  0  0  0  3  0  0  0  0  0  0
  188.5850  176.5460  143.0740 C   0  0  0  0  0  2  0  0  0  0  0  0
  190.8150  176.8010  138.6230 C   0  0  1  0  0  3  0  0  0  0  0  0
  185.2300  179.3330  140.4360 F   0  0  0  0  0  0  0  0  0  0  0  0
  192.0550  177.7730  141.9840 C   0  0  0  0  0  3  0  0  0  0  0  0
  189.3420  176.8660  145.4230 C   0  0  0  0  0  2  0  0  0  0  0  0
  189.4410  176.4390  138.0340 C   0  0  0  0  0  2  0  0  0  0  0  0
  190.7640  177.1200  140.0640 N   0  0  0  0  0  0  0  0  0  0  0  0
  187.2980  178.1670  140.6410 C   0  0  0  0  0  3  0  0  0  0  0  0
  190.4070  177.9070  145.2910 C   0  0  0  0  0  3  0  0  0  0  0  0
  188.3420  177.2390  138.6590 C   0  0  0  0  0  0  0  0  0  0  0  0
  187.2870  177.7180  137.8780 C   0  0  0  0  0  3  0  0  0  0  0  0
  191.9430  177.6630  140.6680 C   0  0  0  0  0  3  0  0  0  0  0  0
  190.9910  177.2850  142.9140 C   0  0  1  0  0  3  0  0  0  0  0  0
  191.1280  178.0920  144.1770 C   0  0  0  0  0  3  0  0  0  0  0  0
  191.7950  175.6640  138.3440 C   0  0  0  0  0  2  0  0  0  0  0  0
  193.0190  176.1750  137.8870 O   0  0  0  0  0  0  0  0  0  0  0  0
  192.4660  174.3230  136.2840 C   0  0  0  0  0  1  0  0  0  0  0  0
  194.3120  176.9030  134.8320 O   0  0  0  0  0  0  0  0  0  0  0  0
  194.1570  176.0930  135.7830 C   0  0  0  0  0  0  0  0  0  0  0  0
  194.7170  175.0690  136.7790 N   0  0  0  0  0  0  0  0  0  0  0  0
  193.3760  175.4530  136.7350 C   0  0  1  0  0  0  0  0  0  0  0  0
  195.8370  174.3340  137.3480 C   0  0  0  0  0  0  0  0  0  0  0  0
  196.9320  175.1930  137.4760 O   0  0  0  0  0  1  0  0  0  0  0  0
  196.2070  173.1870  136.4300 C   0  0  0  0  0  1  0  0  0  0  0  0
  195.4650  173.7880  138.7150 C   0  0  0  0  0  1  0  0  0  0  0  0
  1  9  1  0  0  0  0
  1 14  1  0  0  0  0
  2  5  1  6  0  0  0
  2  3  1  0  0  0  0
  3 19  1  0  0  0  0
  3  7  1  1  0  0  0
  4 11  1  0  0  0  0
  5 14  2  0  0  0  0
  6  1  2  0  0  0  0
  7  4  1  0  0  0  0
  8 21  1  1  0  0  0
  8 13  1  0  0  0  0
 12  8  1  0  0  0  0
 12 16  1  0  0  0  0
 13 18  1  0  0  0  0
 13  2  1  0  0  0  0
 15 11  1  0  0  0  0
 16  5  1  0  0  0  0
 17  6  1  0  0  0  0
 17 16  2  0  0  0  0
 18 10  2  0  0  0  0
 19 10  1  6  0  0  0
 19 20  1  0  0  0  0
 20 15  2  0  0  0  0
 22 21  1  0  0  0  0
 24 25  2  0  0  0  0
 25 27  1  0  0  0  0
 25 26  1  0  0  0  0
 26 28  1  0  0  0  0
 27 23  1  6  0  0  0
 27 26  1  0  0  0  0
 27 22  1  0  0  0  0
 28 29  1  0  0  0  0
 28 31  1  0  0  0  0
 30 28  1  0  0  0  0
M  END
>  <MODEL>
6

>  <REMARK>
 VINA RESULT:      -7.6      6.314     10.264
  Name = 
  4 active torsions:
  status: ('A' for Active; 'I' for Inactive)
    1  A    between atoms: C_1  and  N_19
    2  A    between atoms: O_9  and  C_22
    3  A    between atoms: O_9  and  C_23
    4  A    between atoms: C_15  and  C_23
                            x       y       z     vdW  Elec       q    Type
                         _______ _______ _______ _____ _____    ______ ____

>  <TORSDO>
F 4

$$$$
=
 OpenBabel10262419203D

 31 35  0  0  1  0  0  0  0  0999 V2000
  184.6580  178.8820  145.7620 C   0  0  0  0  0  0  0  0  0  0  0  0
  187.0420  177.8250  142.9500 C   0  0  1  0  0  3  0  0  0  0  0  0
  188.3570  177.9280  143.7550 C   0  0  1  0  0  3  0  0  0  0  0  0
  189.4250  176.7790  145.7610 C   0  0  0  0  0  2  0  0  0  0  0  0
  185.8150  178.2510  143.7220 C   0  0  0  0  0  0  0  0  0  0  0  0
  183.4670  179.0280  145.0450 C   0  0  0  0  0  3  0  0  0  0  0  0
  188.4120  176.6740  144.6310 C   0  0  0  0  0  2  0  0  0  0  0  0
  185.8380  178.6120  140.8280 C   0  0  1  0  0  3  0  0  0  0  0  0
  184.6800  179.1190  147.0950 F   0  0  0  0  0  0  0  0  0  0  0  0
  189.4240  178.9650  141.7220 C   0  0  0  0  0  3  0  0  0  0  0  0
  190.8270  176.5580  145.2220 C   0  0  0  0  0  2  0  0  0  0  0  0
  184.5860  178.0820  141.5460 C   0  0  0  0  0  2  0  0  0  0  0  0
  187.0610  178.5270  141.6510 N   0  0  0  0  0  0  0  0  0  0  0  0
  185.8290  178.4930  145.1050 C   0  0  0  0  0  3  0  0  0  0  0  0
  191.3710  177.8290  144.6530 C   0  0  0  0  0  3  0  0  0  0  0  0
  184.6130  178.3950  143.0090 C   0  0  0  0  0  0  0  0  0  0  0  0
  183.4430  178.7800  143.6700 C   0  0  0  0  0  3  0  0  0  0  0  0
  188.2410  179.1710  141.1610 C   0  0  0  0  0  3  0  0  0  0  0  0
  189.6080  178.0040  142.8530 C   0  0  1  0  0  3  0  0  0  0  0  0
  190.8240  178.4680  143.6100 C   0  0  0  0  0  3  0  0  0  0  0  0
  186.0100  177.8650  139.5070 C   0  0  0  0  0  2  0  0  0  0  0  0
  186.2430  178.7710  138.4610 O   0  0  0  0  0  0  0  0  0  0  0  0
  187.0390  178.7860  136.0790 C   0  0  0  0  0  1  0  0  0  0  0  0
  188.2160  176.0610  137.9140 O   0  0  0  0  0  0  0  0  0  0  0  0
  187.2500  176.7900  137.5700 C   0  0  0  0  0  0  0  0  0  0  0  0
  185.8030  176.9640  137.0910 N   0  0  0  0  0  0  0  0  0  0  0  0
  186.6670  178.0300  137.3450 C   0  0  1  0  0  0  0  0  0  0  0  0
  184.5100  176.4010  136.7260 C   0  0  0  0  0  0  0  0  0  0  0  0
  184.2640  175.2740  137.5130 O   0  0  0  0  0  1  0  0  0  0  0  0
  184.5290  175.9980  135.2660 C   0  0  0  0  0  1  0  0  0  0  0  0
  183.4110  177.4230  136.9550 C   0  0  0  0  0  1  0  0  0  0  0  0
  1  9  1  0  0  0  0
  2  5  1  1  0  0  0
  2  3  1  0  0  0  0
  3  7  1  1  0  0  0
  5 14  2  0  0  0  0
  6  1  2  0  0  0  0
  7  4  1  0  0  0  0
  8 21  1  6  0  0  0
  8 12  1  0  0  0  0
  8 13  1  0  0  0  0
 11  4  1  0  0  0  0
 12 16  1  0  0  0  0
 13  2  1  0  0  0  0
 14  1  1  0  0  0  0
 15 11  1  0  0  0  0
 16 17  2  0  0  0  0
 16  5  1  0  0  0  0
 17  6  1  0  0  0  0
 18 13  1  0  0  0  0
 18 10  2  0  0  0  0
 19 10  1  6  0  0  0
 19 20  1  0  0  0  0
 19  3  1  0  0  0  0
 20 15  2  0  0  0  0
 22 21  1  0  0  0  0
 25 24  2  0  0  0  0
 26 27  1  0  0  0  0
 26 25  1  0  0  0  0
 27 23  1  6  0  0  0
 27 25  1  0  0  0  0
 27 22  1  0  0  0  0
 28 31  1  0  0  0  0
 28 26  1  0  0  0  0
 28 29  1  0  0  0  0
 30 28  1  0  0  0  0
M  END
>  <MODEL>
7

>  <REMARK>
 VINA RESULT:      -7.6      3.433      5.337
  Name = 
  4 active torsions:
  status: ('A' for Active; 'I' for Inactive)
    1  A    between atoms: C_1  and  N_19
    2  A    between atoms: O_9  and  C_22
    3  A    between atoms: O_9  and  C_23
    4  A    between atoms: C_15  and  C_23
                            x       y       z     vdW  Elec       q    Type
                         _______ _______ _______ _____ _____    ______ ____

>  <TORSDO>
F 4

$$$$
=
 OpenBabel10262419203D

 31 35  0  0  1  0  0  0  0  0999 V2000
  185.2070  178.9300  145.8370 C   0  0  0  0  0  0  0  0  0  0  0  0
  186.4930  177.7170  142.4350 C   0  0  1  0  0  3  0  0  0  0  0  0
  187.9940  177.6600  142.7980 C   0  0  1  0  0  3  0  0  0  0  0  0
  189.4930  176.3500  144.3850 C   0  0  0  0  0  2  0  0  0  0  0  0
  185.6130  178.2430  143.5440 C   0  0  0  0  0  0  0  0  0  0  0  0
  183.8770  179.2180  145.5190 C   0  0  0  0  0  3  0  0  0  0  0  0
  188.1800  176.3830  143.6200 C   0  0  0  0  0  2  0  0  0  0  0  0
  184.7910  178.6840  140.7800 C   0  0  1  0  0  3  0  0  0  0  0  0
  185.6590  179.1240  147.0990 F   0  0  0  0  0  0  0  0  0  0  0  0
  188.4950  178.6410  140.5320 C   0  0  0  0  0  3  0  0  0  0  0  0
  190.6330  176.0020  143.4440 C   0  0  0  0  0  2  0  0  0  0  0  0
  183.7680  178.2650  141.8490 C   0  0  0  0  0  2  0  0  0  0  0  0
  186.1900  178.4500  141.1900 N   0  0  0  0  0  0  0  0  0  0  0  0
  186.0730  178.4420  144.8550 C   0  0  0  0  0  3  0  0  0  0  0  0
  191.1090  177.2270  142.7310 C   0  0  0  0  0  3  0  0  0  0  0  0
  184.2730  178.5310  143.2330 C   0  0  0  0  0  0  0  0  0  0  0  0
  183.4080  179.0140  144.2180 C   0  0  0  0  0  3  0  0  0  0  0  0
  187.2260  178.9840  140.3590 C   0  0  0  0  0  3  0  0  0  0  0  0
  188.9110  177.6340  141.5570 C   0  0  1  0  0  3  0  0  0  0  0  0
  190.3420  177.9480  141.9030 C   0  0  0  0  0  3  0  0  0  0  0  0
  184.4720  177.9620  139.4720 C   0  0  0  0  0  2  0  0  0  0  0  0
  183.5960  178.7320  138.6920 O   0  0  0  0  0  0  0  0  0  0  0  0
  182.1140  178.0130  136.7960 C   0  0  0  0  0  1  0  0  0  0  0  0
  182.7630  175.4620  139.0850 O   0  0  0  0  0  0  0  0  0  0  0  0
  182.4200  176.6530  138.8700 C   0  0  0  0  0  0  0  0  0  0  0  0
  181.5050  177.8560  139.1350 N   0  0  0  0  0  0  0  0  0  0  0  0
  182.5730  177.8800  138.2380 C   0  0  1  0  0  0  0  0  0  0  0  0
  180.4000  178.4760  139.8530 C   0  0  0  0  0  0  0  0  0  0  0  0
  180.2490  177.8490  141.0920 O   0  0  0  0  0  1  0  0  0  0  0  0
  179.1240  178.3140  139.0520 C   0  0  0  0  0  1  0  0  0  0  0  0
  180.6780  179.9530  140.0680 C   0  0  0  0  0  1  0  0  0  0  0  0
  1  9  1  0  0  0  0
  2  3  1  0  0  0  0
  2  5  1  1  0  0  0
  3  7  1  6  0  0  0
  5 14  1  0  0  0  0
  6  1  1  0  0  0  0
  7  4  1  0  0  0  0
  8 21  1  6  0  0  0
  8 13  1  0  0  0  0
  8 12  1  0  0  0  0
 11  4  1  0  0  0  0
 12 16  1  0  0  0  0
 13  2  1  0  0  0  0
 14  1  2  0  0  0  0
 15 11  1  0  0  0  0
 16  5  2  0  0  0  0
 16 17  1  0  0  0  0
 17  6  2  0  0  0  0
 18 10  2  0  0  0  0
 18 13  1  0  0  0  0
 19 10  1  6  0  0  0
 19 20  1  0  0  0  0
 19  3  1  0  0  0  0
 20 15  2  0  0  0  0
 22 21  1  0  0  0  0
 25 24  2  0  0  0  0
 25 26  1  0  0  0  0
 26 28  1  0  0  0  0
 27 23  1  6  0  0  0
 27 22  1  0  0  0  0
 27 25  1  0  0  0  0
 27 26  1  0  0  0  0
 28 31  1  0  0  0  0
 28 29  1  0  0  0  0
 30 28  1  0  0  0  0
M  END
>  <MODEL>
8

>  <REMARK>
 VINA RESULT:      -7.6      2.225      3.825
  Name = 
  4 active torsions:
  status: ('A' for Active; 'I' for Inactive)
    1  A    between atoms: C_1  and  N_19
    2  A    between atoms: O_9  and  C_22
    3  A    between atoms: O_9  and  C_23
    4  A    between atoms: C_15  and  C_23
                            x       y       z     vdW  Elec       q    Type
                         _______ _______ _______ _____ _____    ______ ____

>  <TORSDO>
F 4

$$$$
=
 OpenBabel10262419203D

 31 35  0  0  1  0  0  0  0  0999 V2000
  190.5600  176.4450  139.1730 C   0  0  0  0  0  0  0  0  0  0  0  0
  188.5310  178.1260  141.9590 C   0  0  1  0  0  3  0  0  0  0  0  0
  189.3740  177.6210  143.1520 C   0  0  1  0  0  3  0  0  0  0  0  0
  191.7470  177.9110  144.0300 C   0  0  0  0  0  2  0  0  0  0  0  0
  188.9870  177.5990  140.6190 C   0  0  0  0  0  0  0  0  0  0  0  0
  189.7260  176.6760  138.0760 C   0  0  0  0  0  3  0  0  0  0  0  0
  190.6310  178.4940  143.1790 C   0  0  0  0  0  2  0  0  0  0  0  0
  186.1620  178.2290  140.9860 C   0  0  1  0  0  3  0  0  0  0  0  0
  191.7260  175.7750  139.0090 F   0  0  0  0  0  0  0  0  0  0  0  0
  187.2220  177.2190  144.3980 C   0  0  0  0  0  3  0  0  0  0  0  0
  191.4560  178.1500  145.5010 C   0  0  0  0  0  2  0  0  0  0  0  0
  186.8950  178.6160  139.6900 C   0  0  0  0  0  2  0  0  0  0  0  0
  187.0790  177.9030  142.0970 N   0  0  0  0  0  0  0  0  0  0  0  0
  190.1950  176.9070  140.4410 C   0  0  0  0  0  3  0  0  0  0  0  0
  190.5390  177.0940  146.0270 C   0  0  0  0  0  3  0  0  0  0  0  0
  188.1550  177.8300  139.5110 C   0  0  0  0  0  0  0  0  0  0  0  0
  188.5250  177.3710  138.2430 C   0  0  0  0  0  3  0  0  0  0  0  0
  186.5120  177.3390  143.2840 C   0  0  0  0  0  3  0  0  0  0  0  0
  188.6270  177.7190  144.4990 C   0  0  1  0  0  3  0  0  0  0  0  0
  189.2910  176.9030  145.5760 C   0  0  0  0  0  3  0  0  0  0  0  0
  185.2030  179.3530  141.3740 C   0  0  0  0  0  2  0  0  0  0  0  0
  183.9790  178.8220  141.8040 O   0  0  0  0  0  0  0  0  0  0  0  0
  183.3240  179.7360  139.5580 C   0  0  0  0  0  1  0  0  0  0  0  0
  182.6940  176.3210  139.8970 O   0  0  0  0  0  0  0  0  0  0  0  0
  182.6050  177.4840  140.3700 C   0  0  0  0  0  0  0  0  0  0  0  0
  181.8030  178.5950  141.0610 N   0  0  0  0  0  0  0  0  0  0  0  0
  183.1390  178.7270  140.6800 C   0  0  1  0  0  0  0  0  0  0  0  0
  180.5800  179.0750  141.6880 C   0  0  0  0  0  0  0  0  0  0  0  0
  180.3470  180.3930  141.2880 O   0  0  0  0  0  1  0  0  0  0  0  0
  180.7330  179.0290  143.1940 C   0  0  0  0  0  1  0  0  0  0  0  0
  179.4040  178.2090  141.2720 C   0  0  0  0  0  1  0  0  0  0  0  0
  1 14  1  0  0  0  0
  2  5  1  6  0  0  0
  2 13  1  0  0  0  0
  2  3  1  0  0  0  0
  3  7  1  1  0  0  0
  3 19  1  0  0  0  0
  4 11  1  0  0  0  0
  6 17  1  0  0  0  0
  6  1  2  0  0  0  0
  7  4  1  0  0  0  0
  8 21  1  1  0  0  0
  8 13  1  0  0  0  0
  9  1  1  0  0  0  0
 11 15  1  0  0  0  0
 12  8  1  0  0  0  0
 13 18  1  0  0  0  0
 14  5  2  0  0  0  0
 16 12  1  0  0  0  0
 16  5  1  0  0  0  0
 17 16  2  0  0  0  0
 18 10  2  0  0  0  0
 19 10  1  6  0  0  0
 19 20  1  0  0  0  0
 20 15  2  0  0  0  0
 21 22  1  0  0  0  0
 24 25  2  0  0  0  0
 25 27  1  0  0  0  0
 25 26  1  0  0  0  0
 26 28  1  0  0  0  0
 27 23  1  6  0  0  0
 27 26  1  0  0  0  0
 27 22  1  0  0  0  0
 28 30  1  0  0  0  0
 29 28  1  0  0  0  0
 31 28  1  0  0  0  0
M  END
>  <MODEL>
9

>  <REMARK>
 VINA RESULT:      -7.4      2.501      5.230
  Name = 
  4 active torsions:
  status: ('A' for Active; 'I' for Inactive)
    1  A    between atoms: C_1  and  N_19
    2  A    between atoms: O_9  and  C_22
    3  A    between atoms: O_9  and  C_23
    4  A    between atoms: C_15  and  C_23
                            x       y       z     vdW  Elec       q    Type
                         _______ _______ _______ _____ _____    ______ ____

>  <TORSDO>
F 4

$$$$
