=
 OpenBabel10262420463D

 28 29  0  0  1  0  0  0  0  0999 V2000
  190.2510  176.6610  143.9140 C   0  0  1  0  0  3  0  0  0  0  0  0
  191.7340  176.3430  143.7780 C   0  0  0  0  0  2  0  0  0  0  0  0
  192.0110  175.1000  144.3490 O   0  0  0  0  0  1  0  0  0  0  0  0
  190.3400  178.9830  144.3640 O   0  0  0  0  0  0  0  0  0  0  0  0
  190.0300  177.8750  144.7740 C   0  0  0  0  0  0  0  0  0  0  0  0
  189.3990  177.7490  146.1330 C   0  0  1  0  0  3  0  0  0  0  0  0
  187.9110  177.9520  146.0720 C   0  0  0  0  0  0  0  0  0  0  0  0
  185.1420  178.3960  145.9540 C   0  0  0  0  0  3  0  0  0  0  0  0
  187.2080  177.7510  144.8720 C   0  0  0  0  0  3  0  0  0  0  0  0
  187.8840  178.6030  148.4110 O   0  0  0  0  0  1  0  0  0  0  0  0
  187.2140  178.3850  147.2130 C   0  0  0  0  0  0  0  0  0  0  0  0
  185.8340  178.6020  147.1510 C   0  0  0  0  0  3  0  0  0  0  0  0
  185.8290  177.9700  144.8150 C   0  0  0  0  0  3  0  0  0  0  0  0
  189.7720  176.4440  146.8270 C   0  0  0  0  0  2  0  0  0  0  0  0
  190.9430  176.6140  147.5630 O   0  0  0  0  0  1  0  0  0  0  0  0
  189.6280  176.8760  142.5460 C   0  0  0  0  0  2  0  0  0  0  0  0
  190.4400  176.2270  141.5210 N   0  0  0  0  0  2  0  0  0  0  0  0
  192.0160  177.6850  140.5490 O   0  0  0  0  0  1  0  0  0  0  0  0
  190.7240  177.1630  140.4320 C   0  0  1  0  0  3  0  0  0  0  0  0
  190.5210  176.5110  139.0680 C   0  0  0  0  0  2  0  0  0  0  0  0
  189.6160  177.4740  137.1400 C   0  0  0  0  0  2  0  0  0  0  0  0
  188.8620  178.1380  139.2400 C   0  0  0  0  0  2  0  0  0  0  0  0
  187.2610  178.3590  136.6970 C   0  0  1  0  0  3  0  0  0  0  0  0
  189.2810  176.9780  138.4690 N   0  0  0  0  0  0  0  0  0  0  0  0
  186.6140  177.8600  137.9920 C   0  0  0  0  0  2  0  0  0  0  0  0
  187.3380  178.2610  139.2840 C   0  0  0  0  0  2  0  0  0  0  0  0
  187.6840  179.6870  136.8020 O   0  0  0  0  0  1  0  0  0  0  0  0
  188.3930  177.4440  136.2270 C   0  0  0  0  0  2  0  0  0  0  0  0
  1 16  1  6  0  0  0
  1  5  1  0  0  0  0
  2  1  1  0  0  0  0
  2  3  1  0  0  0  0
  4  5  2  0  0  0  0
  5  6  1  0  0  0  0
  6 14  1  6  0  0  0
  7  6  1  0  0  0  0
  7 11  1  0  0  0  0
  8 12  1  0  0  0  0
  9  7  2  0  0  0  0
 11 10  1  0  0  0  0
 12 11  2  0  0  0  0
 13  9  1  0  0  0  0
 13  8  2  0  0  0  0
 14 15  1  0  0  0  0
 17 16  1  0  0  0  0
 19 18  1  6  0  0  0
 19 17  1  0  0  0  0
 20 19  1  0  0  0  0
 21 24  1  0  0  0  0
 22 26  1  0  0  0  0
 23 27  1  1  0  0  0
 23 25  1  0  0  0  0
 24 20  1  0  0  0  0
 24 22  1  0  0  0  0
 25 26  1  0  0  0  0
 28 23  1  0  0  0  0
 28 21  1  0  0  0  0
M  END
>  <MODEL>
1

>  <REMARK>
 VINA RESULT:      -7.6      0.000      0.000
  Name = 
  10 active torsions:
  status: ('A' for Active; 'I' for Inactive)
    1  A    between atoms: C_1  and  C_2
    2  A    between atoms: C_1  and  C_3
    3  A    between atoms: C_1  and  C_27
    4  A    between atoms: C_5  and  N_20
    5  A    between atoms: C_5  and  C_21
    6  A    between atoms: C_10  and  N_13
    7  A    between atoms: C_10  and  C_25
    8  A    between atoms: C_16  and  C_21
    9  A    between atoms: N_20  and  C_25
   10  A    between atoms: C_21  and  C_27
                            x       y       z     vdW  Elec       q    Type
                         _______ _______ _______ _____ _____    ______ ____

>  <TORSDO>
F 10

$$$$
=
 OpenBabel10262420463D

 28 29  0  0  1  0  0  0  0  0999 V2000
  188.1510  177.8680  141.5420 C   0  0  1  0  0  3  0  0  0  0  0  0
  188.8780  177.8910  140.2040 C   0  0  0  0  0  2  0  0  0  0  0  0
  188.1730  178.6720  139.2890 O   0  0  0  0  0  1  0  0  0  0  0  0
  189.5680  179.2740  142.8130 O   0  0  0  0  0  0  0  0  0  0  0  0
  189.0900  178.1570  142.6800 C   0  0  0  0  0  0  0  0  0  0  0  0
  189.4310  177.0920  143.6840 C   0  0  1  0  0  3  0  0  0  0  0  0
  188.7550  177.3400  145.0040 C   0  0  0  0  0  0  0  0  0  0  0  0
  187.5150  177.8660  147.4650 C   0  0  0  0  0  3  0  0  0  0  0  0
  187.3700  177.5650  145.0690 C   0  0  0  0  0  3  0  0  0  0  0  0
  190.8910  177.1810  146.1490 O   0  0  0  0  0  1  0  0  0  0  0  0
  189.5170  177.3880  146.1850 C   0  0  0  0  0  0  0  0  0  0  0  0
  188.8940  177.6480  147.4090 C   0  0  0  0  0  3  0  0  0  0  0  0
  186.7530  177.8250  146.2960 C   0  0  0  0  0  3  0  0  0  0  0  0
  189.1590  175.6880  143.1560 C   0  0  0  0  0  2  0  0  0  0  0  0
  190.3610  175.0550  142.8430 O   0  0  0  0  0  1  0  0  0  0  0  0
  187.0120  178.8730  141.5420 C   0  0  0  0  0  2  0  0  0  0  0  0
  185.7720  178.2220  141.9530 N   0  0  0  0  0  2  0  0  0  0  0  0
  185.0140  179.6810  140.2650 O   0  0  0  0  0  1  0  0  0  0  0  0
  184.6210  178.9030  141.3590 C   0  0  1  0  0  3  0  0  0  0  0  0
  183.5310  177.9130  140.9610 C   0  0  0  0  0  2  0  0  0  0  0  0
  181.4960  179.0560  140.8300 C   0  0  0  0  0  2  0  0  0  0  0  0
  182.6840  179.0130  142.8320 C   0  0  0  0  0  2  0  0  0  0  0  0
  179.7080  179.4340  142.6150 C   0  0  1  0  0  3  0  0  0  0  0  0
  182.3050  178.1990  141.6870 N   0  0  0  0  0  0  0  0  0  0  0  0
  180.2960  178.5080  143.6840 C   0  0  0  0  0  2  0  0  0  0  0  0
  181.7700  178.7580  144.0300 C   0  0  0  0  0  2  0  0  0  0  0  0
  180.1010  180.7630  142.8020 O   0  0  0  0  0  1  0  0  0  0  0  0
  180.0190  178.9490  141.1980 C   0  0  0  0  0  2  0  0  0  0  0  0
  1  2  1  6  0  0  0
  1 16  1  0  0  0  0
  1  5  1  0  0  0  0
  3  2  1  0  0  0  0
  5  4  2  0  0  0  0
  5  6  1  0  0  0  0
  6 14  1  6  0  0  0
  6  7  1  0  0  0  0
  7  9  2  0  0  0  0
  7 11  1  0  0  0  0
  9 13  1  0  0  0  0
 10 11  1  0  0  0  0
 11 12  2  0  0  0  0
 12  8  1  0  0  0  0
 13  8  2  0  0  0  0
 15 14  1  0  0  0  0
 16 17  1  0  0  0  0
 19 18  1  6  0  0  0
 19 17  1  0  0  0  0
 20 19  1  0  0  0  0
 20 24  1  0  0  0  0
 21 28  1  0  0  0  0
 21 24  1  0  0  0  0
 22 26  1  0  0  0  0
 23 27  1  1  0  0  0
 23 25  1  0  0  0  0
 24 22  1  0  0  0  0
 25 26  1  0  0  0  0
 28 23  1  0  0  0  0
M  END
>  <MODEL>
2

>  <REMARK>
 VINA RESULT:      -7.5      4.022      5.922
  Name = 
  10 active torsions:
  status: ('A' for Active; 'I' for Inactive)
    1  A    between atoms: C_1  and  C_2
    2  A    between atoms: C_1  and  C_3
    3  A    between atoms: C_1  and  C_27
    4  A    between atoms: C_5  and  N_20
    5  A    between atoms: C_5  and  C_21
    6  A    between atoms: C_10  and  N_13
    7  A    between atoms: C_10  and  C_25
    8  A    between atoms: C_16  and  C_21
    9  A    between atoms: N_20  and  C_25
   10  A    between atoms: C_21  and  C_27
                            x       y       z     vdW  Elec       q    Type
                         _______ _______ _______ _____ _____    ______ ____

>  <TORSDO>
F 10

$$$$
=
 OpenBabel10262420463D

 28 29  0  0  1  0  0  0  0  0999 V2000
  189.0100  177.3850  141.7410 C   0  0  1  0  0  3  0  0  0  0  0  0
  189.7160  177.4770  140.3950 C   0  0  0  0  0  2  0  0  0  0  0  0
  190.4650  176.3230  140.1660 O   0  0  0  0  0  1  0  0  0  0  0  0
  190.0670  179.1570  142.9000 O   0  0  0  0  0  0  0  0  0  0  0  0
  189.8590  177.9540  142.8440 C   0  0  0  0  0  0  0  0  0  0  0  0
  190.4370  177.0620  143.9070 C   0  0  1  0  0  3  0  0  0  0  0  0
  189.6850  177.1890  145.2030 C   0  0  0  0  0  0  0  0  0  0  0  0
  188.3020  177.4880  147.6260 C   0  0  0  0  0  3  0  0  0  0  0  0
  188.2920  177.3660  145.2100 C   0  0  0  0  0  3  0  0  0  0  0  0
  191.7630  177.0080  146.4470 O   0  0  0  0  0  1  0  0  0  0  0  0
  190.3830  177.1700  146.4240 C   0  0  0  0  0  0  0  0  0  0  0  0
  189.6890  177.3170  147.6280 C   0  0  0  0  0  3  0  0  0  0  0  0
  187.6040  177.5130  146.4170 C   0  0  0  0  0  3  0  0  0  0  0  0
  190.5500  175.6130  143.4490 C   0  0  0  0  0  2  0  0  0  0  0  0
  191.8000  175.1000  143.7940 O   0  0  0  0  0  1  0  0  0  0  0  0
  187.6750  178.1080  141.6890 C   0  0  0  0  0  2  0  0  0  0  0  0
  187.4330  178.6120  140.3410 N   0  0  0  0  0  2  0  0  0  0  0  0
  185.2690  179.5300  140.5060 O   0  0  0  0  0  1  0  0  0  0  0  0
  186.0190  178.4670  139.9930 C   0  0  1  0  0  3  0  0  0  0  0  0
  185.8250  178.3420  138.4850 C   0  0  0  0  0  2  0  0  0  0  0  0
  187.5140  178.6100  136.8920 C   0  0  0  0  0  2  0  0  0  0  0  0
  186.4610  176.5490  137.1400 C   0  0  0  0  0  2  0  0  0  0  0  0
  189.2330  176.9320  136.0230 C   0  0  1  0  0  3  0  0  0  0  0  0
  186.9760  177.6880  137.8840 N   0  0  0  0  0  0  0  0  0  0  0  0
  188.9360  175.8080  137.0200 C   0  0  0  0  0  2  0  0  0  0  0  0
  187.4610  175.3930  137.1200 C   0  0  0  0  0  2  0  0  0  0  0  0
  188.5390  176.7620  134.8220 O   0  0  0  0  0  1  0  0  0  0  0  0
  188.9880  178.3170  136.6250 C   0  0  0  0  0  2  0  0  0  0  0  0
  1  2  1  6  0  0  0
  1  5  1  0  0  0  0
  3  2  1  0  0  0  0
  5  4  2  0  0  0  0
  5  6  1  0  0  0  0
  6 14  1  6  0  0  0
  6  7  1  0  0  0  0
  7  9  2  0  0  0  0
  7 11  1  0  0  0  0
  8 12  1  0  0  0  0
  9 13  1  0  0  0  0
 11 10  1  0  0  0  0
 11 12  2  0  0  0  0
 13  8  2  0  0  0  0
 14 15  1  0  0  0  0
 16  1  1  0  0  0  0
 17 16  1  0  0  0  0
 19 17  1  0  0  0  0
 19 18  1  6  0  0  0
 20 19  1  0  0  0  0
 21 24  1  0  0  0  0
 22 24  1  0  0  0  0
 23 27  1  6  0  0  0
 23 28  1  0  0  0  0
 23 25  1  0  0  0  0
 24 20  1  0  0  0  0
 25 26  1  0  0  0  0
 26 22  1  0  0  0  0
 28 21  1  0  0  0  0
M  END
>  <MODEL>
3

>  <REMARK>
 VINA RESULT:      -7.2      1.953      3.551
  Name = 
  10 active torsions:
  status: ('A' for Active; 'I' for Inactive)
    1  A    between atoms: C_1  and  C_2
    2  A    between atoms: C_1  and  C_3
    3  A    between atoms: C_1  and  C_27
    4  A    between atoms: C_5  and  N_20
    5  A    between atoms: C_5  and  C_21
    6  A    between atoms: C_10  and  N_13
    7  A    between atoms: C_10  and  C_25
    8  A    between atoms: C_16  and  C_21
    9  A    between atoms: N_20  and  C_25
   10  A    between atoms: C_21  and  C_27
                            x       y       z     vdW  Elec       q    Type
                         _______ _______ _______ _____ _____    ______ ____

>  <TORSDO>
F 10

$$$$
=
 OpenBabel10262420463D

 28 29  0  0  1  0  0  0  0  0999 V2000
  188.9320  177.3040  141.3900 C   0  0  1  0  0  3  0  0  0  0  0  0
  190.1150  177.4000  140.4370 C   0  0  0  0  0  2  0  0  0  0  0  0
  190.4170  176.1410  139.9190 O   0  0  0  0  0  1  0  0  0  0  0  0
  189.5560  175.8430  143.1440 O   0  0  0  0  0  0  0  0  0  0  0  0
  189.3820  177.0000  142.7920 C   0  0  0  0  0  0  0  0  0  0  0  0
  189.6530  178.1090  143.7700 C   0  0  1  0  0  3  0  0  0  0  0  0
  189.2100  177.7420  145.1580 C   0  0  0  0  0  0  0  0  0  0  0  0
  188.3620  176.9990  147.7280 C   0  0  0  0  0  3  0  0  0  0  0  0
  190.1390  177.2940  146.1130 C   0  0  0  0  0  3  0  0  0  0  0  0
  186.9050  178.2370  144.5750 O   0  0  0  0  0  1  0  0  0  0  0  0
  187.8480  177.8080  145.5020 C   0  0  0  0  0  0  0  0  0  0  0  0
  187.4310  177.4390  146.7840 C   0  0  0  0  0  3  0  0  0  0  0  0
  189.7160  176.9260  147.3920 C   0  0  0  0  0  3  0  0  0  0  0  0
  191.1050  178.5710  143.7340 C   0  0  0  0  0  2  0  0  0  0  0  0
  191.1840  179.9240  144.0620 O   0  0  0  0  0  1  0  0  0  0  0  0
  188.1320  178.5950  141.3720 C   0  0  0  0  0  2  0  0  0  0  0  0
  187.2400  178.6130  140.2160 N   0  0  0  0  0  2  0  0  0  0  0  0
  185.6290  179.6480  141.5890 O   0  0  0  0  0  1  0  0  0  0  0  0
  185.8440  178.6310  140.6540 C   0  0  1  0  0  3  0  0  0  0  0  0
  184.8890  178.7670  139.4720 C   0  0  0  0  0  2  0  0  0  0  0  0
  183.3480  177.0930  138.9380 C   0  0  0  0  0  2  0  0  0  0  0  0
  182.6090  179.2430  139.4400 C   0  0  0  0  0  2  0  0  0  0  0  0
  180.9530  176.7450  139.7550 C   0  0  1  0  0  3  0  0  0  0  0  0
  183.5830  178.2310  139.8180 N   0  0  0  0  0  0  0  0  0  0  0  0
  180.9520  177.8310  140.8360 C   0  0  0  0  0  2  0  0  0  0  0  0
  181.3920  179.2240  140.3660 C   0  0  0  0  0  2  0  0  0  0  0  0
  180.4180  177.2080  138.5500 O   0  0  0  0  0  1  0  0  0  0  0  0
  182.3390  176.1300  139.5580 C   0  0  0  0  0  2  0  0  0  0  0  0
  1  2  1  6  0  0  0
  1  5  1  0  0  0  0
  3  2  1  0  0  0  0
  5  4  2  0  0  0  0
  5  6  1  0  0  0  0
  6 14  1  1  0  0  0
  6  7  1  0  0  0  0
  7 11  2  0  0  0  0
  7  9  1  0  0  0  0
  9 13  2  0  0  0  0
 10 11  1  0  0  0  0
 11 12  1  0  0  0  0
 12  8  2  0  0  0  0
 13  8  1  0  0  0  0
 14 15  1  0  0  0  0
 16  1  1  0  0  0  0
 17 19  1  0  0  0  0
 17 16  1  0  0  0  0
 19 18  1  1  0  0  0
 20 24  1  0  0  0  0
 20 19  1  0  0  0  0
 21 28  1  0  0  0  0
 21 24  1  0  0  0  0
 22 24  1  0  0  0  0
 22 26  1  0  0  0  0
 23 27  1  6  0  0  0
 23 25  1  0  0  0  0
 26 25  1  0  0  0  0
 28 23  1  0  0  0  0
M  END
>  <MODEL>
4

>  <REMARK>
 VINA RESULT:      -7.2      3.573      4.914
  Name = 
  10 active torsions:
  status: ('A' for Active; 'I' for Inactive)
    1  A    between atoms: C_1  and  C_2
    2  A    between atoms: C_1  and  C_3
    3  A    between atoms: C_1  and  C_27
    4  A    between atoms: C_5  and  N_20
    5  A    between atoms: C_5  and  C_21
    6  A    between atoms: C_10  and  N_13
    7  A    between atoms: C_10  and  C_25
    8  A    between atoms: C_16  and  C_21
    9  A    between atoms: N_20  and  C_25
   10  A    between atoms: C_21  and  C_27
                            x       y       z     vdW  Elec       q    Type
                         _______ _______ _______ _____ _____    ______ ____

>  <TORSDO>
F 10

$$$$
=
 OpenBabel10262420463D

 28 29  0  0  1  0  0  0  0  0999 V2000
  189.2760  177.0430  141.1140 C   0  0  1  0  0  3  0  0  0  0  0  0
  190.6060  177.1190  140.3760 C   0  0  0  0  0  2  0  0  0  0  0  0
  190.7990  175.9640  139.6180 O   0  0  0  0  0  1  0  0  0  0  0  0
  189.5700  175.7450  143.0710 O   0  0  0  0  0  0  0  0  0  0  0  0
  189.4810  176.8660  142.5930 C   0  0  0  0  0  0  0  0  0  0  0  0
  189.6110  178.0580  143.4990 C   0  0  1  0  0  3  0  0  0  0  0  0
  188.9790  177.8050  144.8390 C   0  0  0  0  0  0  0  0  0  0  0  0
  187.7840  177.2700  147.3220 C   0  0  0  0  0  3  0  0  0  0  0  0
  189.7700  177.5040  145.9600 C   0  0  0  0  0  3  0  0  0  0  0  0
  186.7700  178.1120  143.8780 O   0  0  0  0  0  1  0  0  0  0  0  0
  187.5790  177.8280  144.9720 C   0  0  0  0  0  0  0  0  0  0  0  0
  186.9890  177.5640  146.2110 C   0  0  0  0  0  3  0  0  0  0  0  0
  189.1750  177.2400  147.1960 C   0  0  0  0  0  3  0  0  0  0  0  0
  191.0530  178.5360  143.6260 C   0  0  0  0  0  2  0  0  0  0  0  0
  191.0790  179.8820  143.9860 O   0  0  0  0  0  1  0  0  0  0  0  0
  188.4540  178.2940  140.8520 C   0  0  0  0  0  2  0  0  0  0  0  0
  188.6280  178.7240  139.4680 N   0  0  0  0  0  2  0  0  0  0  0  0
  186.3580  178.5920  138.8500 O   0  0  0  0  0  1  0  0  0  0  0  0
  187.6360  178.0780  138.6080 C   0  0  1  0  0  3  0  0  0  0  0  0
  188.0050  178.2070  137.1340 C   0  0  0  0  0  2  0  0  0  0  0  0
  187.9040  175.9080  137.5410 C   0  0  0  0  0  2  0  0  0  0  0  0
  189.8310  176.8490  136.6360 C   0  0  0  0  0  2  0  0  0  0  0  0
  189.0090  173.9700  136.2970 C   0  0  1  0  0  3  0  0  0  0  0  0
  188.3780  176.9100  136.5950 N   0  0  0  0  0  0  0  0  0  0  0  0
  189.5520  174.7770  135.1140 C   0  0  0  0  0  2  0  0  0  0  0  0
  190.3900  176.0070  135.4880 C   0  0  0  0  0  2  0  0  0  0  0  0
  189.9690  173.8040  137.3000 O   0  0  0  0  0  1  0  0  0  0  0  0
  187.7110  174.5600  136.8500 C   0  0  0  0  0  2  0  0  0  0  0  0
  1  2  1  6  0  0  0
  1  5  1  0  0  0  0
  3  2  1  0  0  0  0
  5  4  2  0  0  0  0
  5  6  1  0  0  0  0
  6 14  1  1  0  0  0
  6  7  1  0  0  0  0
  7 11  2  0  0  0  0
  7  9  1  0  0  0  0
  9 13  2  0  0  0  0
 10 11  1  0  0  0  0
 11 12  1  0  0  0  0
 12  8  2  0  0  0  0
 13  8  1  0  0  0  0
 14 15  1  0  0  0  0
 16  1  1  0  0  0  0
 17 16  1  0  0  0  0
 19 18  1  6  0  0  0
 19 17  1  0  0  0  0
 20 19  1  0  0  0  0
 23 28  1  0  0  0  0
 23 27  1  1  0  0  0
 24 22  1  0  0  0  0
 24 20  1  0  0  0  0
 24 21  1  0  0  0  0
 25 26  1  0  0  0  0
 25 23  1  0  0  0  0
 26 22  1  0  0  0  0
 28 21  1  0  0  0  0
M  END
>  <MODEL>
5

>  <REMARK>
 VINA RESULT:      -7.2      2.174      3.827
  Name = 
  10 active torsions:
  status: ('A' for Active; 'I' for Inactive)
    1  A    between atoms: C_1  and  C_2
    2  A    between atoms: C_1  and  C_3
    3  A    between atoms: C_1  and  C_27
    4  A    between atoms: C_5  and  N_20
    5  A    between atoms: C_5  and  C_21
    6  A    between atoms: C_10  and  N_13
    7  A    between atoms: C_10  and  C_25
    8  A    between atoms: C_16  and  C_21
    9  A    between atoms: N_20  and  C_25
   10  A    between atoms: C_21  and  C_27
                            x       y       z     vdW  Elec       q    Type
                         _______ _______ _______ _____ _____    ______ ____

>  <TORSDO>
F 10

$$$$
=
 OpenBabel10262420463D

 28 29  0  0  1  0  0  0  0  0999 V2000
  188.4180  177.3140  141.6170 C   0  0  1  0  0  3  0  0  0  0  0  0
  189.4880  177.5280  140.5550 C   0  0  0  0  0  2  0  0  0  0  0  0
  190.4330  176.5040  140.6130 O   0  0  0  0  0  1  0  0  0  0  0  0
  189.2130  175.8150  143.2680 O   0  0  0  0  0  0  0  0  0  0  0  0
  189.0300  176.9810  142.9500 C   0  0  0  0  0  0  0  0  0  0  0  0
  189.4530  178.0710  143.8940 C   0  0  1  0  0  3  0  0  0  0  0  0
  189.0530  177.7620  145.3100 C   0  0  0  0  0  0  0  0  0  0  0  0
  188.2840  177.1250  147.9330 C   0  0  0  0  0  3  0  0  0  0  0  0
  190.0130  177.3670  146.2570 C   0  0  0  0  0  3  0  0  0  0  0  0
  186.7270  178.2040  144.7690 O   0  0  0  0  0  1  0  0  0  0  0  0
  187.7000  177.8270  145.6880 C   0  0  0  0  0  0  0  0  0  0  0  0
  187.3230  177.5110  146.9960 C   0  0  0  0  0  3  0  0  0  0  0  0
  189.6290  177.0520  147.5630 C   0  0  0  0  0  3  0  0  0  0  0  0
  190.9380  178.3960  143.7760 C   0  0  0  0  0  2  0  0  0  0  0  0
  191.1390  179.7680  143.9270 O   0  0  0  0  0  1  0  0  0  0  0  0
  187.5420  178.5480  141.7440 C   0  0  0  0  0  2  0  0  0  0  0  0
  186.6820  178.6710  140.5710 N   0  0  0  0  0  2  0  0  0  0  0  0
  184.7320  179.7680  139.8290 O   0  0  0  0  0  1  0  0  0  0  0  0
  185.3920  179.2520  140.9480 C   0  0  1  0  0  3  0  0  0  0  0  0
  184.5160  178.2380  141.6780 C   0  0  0  0  0  2  0  0  0  0  0  0
  182.6270  178.4640  143.0360 C   0  0  0  0  0  2  0  0  0  0  0  0
  182.3980  177.7750  140.8240 C   0  0  0  0  0  2  0  0  0  0  0  0
  180.2370  179.1300  142.4270 C   0  0  1  0  0  3  0  0  0  0  0  0
  183.1330  178.6860  141.6880 N   0  0  0  0  0  0  0  0  0  0  0  0
  180.5070  179.5310  140.9740 C   0  0  0  0  0  2  0  0  0  0  0  0
  181.2330  178.4780  140.1270 C   0  0  0  0  0  2  0  0  0  0  0  0
  179.7870  177.8110  142.5300 O   0  0  0  0  0  1  0  0  0  0  0  0
  181.4460  179.3850  143.3290 C   0  0  0  0  0  2  0  0  0  0  0  0
  1  2  1  6  0  0  0
  1 16  1  0  0  0  0
  1  5  1  0  0  0  0
  2  3  1  0  0  0  0
  5  4  2  0  0  0  0
  5  6  1  0  0  0  0
  6 14  1  1  0  0  0
  6  7  1  0  0  0  0
  7 11  2  0  0  0  0
  7  9  1  0  0  0  0
  9 13  2  0  0  0  0
 10 11  1  0  0  0  0
 11 12  1  0  0  0  0
 12  8  2  0  0  0  0
 13  8  1  0  0  0  0
 14 15  1  0  0  0  0
 17 19  1  0  0  0  0
 17 16  1  0  0  0  0
 19 18  1  6  0  0  0
 19 20  1  0  0  0  0
 20 24  1  0  0  0  0
 21 28  1  0  0  0  0
 22 24  1  0  0  0  0
 23 27  1  6  0  0  0
 23 28  1  0  0  0  0
 24 21  1  0  0  0  0
 25 23  1  0  0  0  0
 26 22  1  0  0  0  0
 26 25  1  0  0  0  0
M  END
>  <MODEL>
6

>  <REMARK>
 VINA RESULT:      -7.1      3.908      5.646
  Name = 
  10 active torsions:
  status: ('A' for Active; 'I' for Inactive)
    1  A    between atoms: C_1  and  C_2
    2  A    between atoms: C_1  and  C_3
    3  A    between atoms: C_1  and  C_27
    4  A    between atoms: C_5  and  N_20
    5  A    between atoms: C_5  and  C_21
    6  A    between atoms: C_10  and  N_13
    7  A    between atoms: C_10  and  C_25
    8  A    between atoms: C_16  and  C_21
    9  A    between atoms: N_20  and  C_25
   10  A    between atoms: C_21  and  C_27
                            x       y       z     vdW  Elec       q    Type
                         _______ _______ _______ _____ _____    ______ ____

>  <TORSDO>
F 10

$$$$
=
 OpenBabel10262420463D

 28 29  0  0  1  0  0  0  0  0999 V2000
  189.3720  177.4100  142.0100 C   0  0  1  0  0  3  0  0  0  0  0  0
  190.0760  177.5340  140.6660 C   0  0  0  0  0  2  0  0  0  0  0  0
  190.4890  176.2770  140.2240 O   0  0  0  0  0  1  0  0  0  0  0  0
  190.4540  179.1410  143.2070 O   0  0  0  0  0  0  0  0  0  0  0  0
  190.2260  177.9430  143.1270 C   0  0  0  0  0  0  0  0  0  0  0  0
  190.7850  177.0220  144.1740 C   0  0  1  0  0  3  0  0  0  0  0  0
  190.0280  177.1320  145.4680 C   0  0  0  0  0  0  0  0  0  0  0  0
  188.6350  177.4000  147.8900 C   0  0  0  0  0  3  0  0  0  0  0  0
  188.6380  177.3400  145.4710 C   0  0  0  0  0  3  0  0  0  0  0  0
  192.0920  176.8740  146.7210 O   0  0  0  0  0  1  0  0  0  0  0  0
  190.7160  177.0670  146.6930 C   0  0  0  0  0  0  0  0  0  0  0  0
  190.0170  177.1990  147.8960 C   0  0  0  0  0  3  0  0  0  0  0  0
  187.9460  177.4710  146.6780 C   0  0  0  0  0  3  0  0  0  0  0  0
  190.8810  175.5800  143.6870 C   0  0  0  0  0  2  0  0  0  0  0  0
  192.0970  175.0240  144.0790 O   0  0  0  0  0  1  0  0  0  0  0  0
  188.0420  178.1440  141.9800 C   0  0  0  0  0  2  0  0  0  0  0  0
  187.0310  177.3740  142.6990 N   0  0  0  0  0  2  0  0  0  0  0  0
  185.6710  178.5930  144.1880 O   0  0  0  0  0  1  0  0  0  0  0  0
  185.8130  178.1680  142.8630 C   0  0  1  0  0  3  0  0  0  0  0  0
  185.7850  179.3530  141.9040 C   0  0  0  0  0  2  0  0  0  0  0  0
  183.7070  178.3100  141.6660 C   0  0  0  0  0  2  0  0  0  0  0  0
  185.0270  178.7220  139.7930 C   0  0  0  0  0  2  0  0  0  0  0  0
  182.0310  178.4100  139.7410 C   0  0  1  0  0  3  0  0  0  0  0  0
  184.6010  179.2910  141.0630 N   0  0  0  0  0  0  0  0  0  0  0  0
  182.7210  179.5140  138.9340 C   0  0  0  0  0  2  0  0  0  0  0  0
  184.2050  179.2730  138.6280 C   0  0  0  0  0  2  0  0  0  0  0  0
  182.3880  177.1350  139.2940 O   0  0  0  0  0  1  0  0  0  0  0  0
  182.2620  178.5650  141.2450 C   0  0  0  0  0  2  0  0  0  0  0  0
  1  2  1  6  0  0  0
  1  5  1  0  0  0  0
  3  2  1  0  0  0  0
  5  4  2  0  0  0  0
  5  6  1  0  0  0  0
  6 14  1  6  0  0  0
  6  7  1  0  0  0  0
  7  9  2  0  0  0  0
  7 11  1  0  0  0  0
  8 12  1  0  0  0  0
  9 13  1  0  0  0  0
 11 10  1  0  0  0  0
 11 12  2  0  0  0  0
 13  8  2  0  0  0  0
 14 15  1  0  0  0  0
 16  1  1  0  0  0  0
 16 17  1  0  0  0  0
 17 19  1  0  0  0  0
 19 18  1  1  0  0  0
 20 19  1  0  0  0  0
 22 24  1  0  0  0  0
 23 27  1  6  0  0  0
 23 28  1  0  0  0  0
 24 21  1  0  0  0  0
 24 20  1  0  0  0  0
 25 23  1  0  0  0  0
 26 25  1  0  0  0  0
 26 22  1  0  0  0  0
 28 21  1  0  0  0  0
M  END
>  <MODEL>
7

>  <REMARK>
 VINA RESULT:      -7.1      2.984      4.584
  Name = 
  10 active torsions:
  status: ('A' for Active; 'I' for Inactive)
    1  A    between atoms: C_1  and  C_2
    2  A    between atoms: C_1  and  C_3
    3  A    between atoms: C_1  and  C_27
    4  A    between atoms: C_5  and  N_20
    5  A    between atoms: C_5  and  C_21
    6  A    between atoms: C_10  and  N_13
    7  A    between atoms: C_10  and  C_25
    8  A    between atoms: C_16  and  C_21
    9  A    between atoms: N_20  and  C_25
   10  A    between atoms: C_21  and  C_27
                            x       y       z     vdW  Elec       q    Type
                         _______ _______ _______ _____ _____    ______ ____

>  <TORSDO>
F 10

$$$$
=
 OpenBabel10262420463D

 28 29  0  0  1  0  0  0  0  0999 V2000
  189.7850  177.4190  143.1020 C   0  0  1  0  0  3  0  0  0  0  0  0
  190.8850  176.4750  142.6370 C   0  0  0  0  0  2  0  0  0  0  0  0
  190.5240  175.1520  142.8990 O   0  0  0  0  0  1  0  0  0  0  0  0
  190.8430  179.3580  143.9520 O   0  0  0  0  0  0  0  0  0  0  0  0
  190.2650  178.3130  144.2120 C   0  0  0  0  0  0  0  0  0  0  0  0
  190.0160  177.9530  145.6500 C   0  0  1  0  0  3  0  0  0  0  0  0
  188.5490  177.9580  145.9750 C   0  0  0  0  0  0  0  0  0  0  0  0
  185.8100  178.0320  146.5810 C   0  0  0  0  0  3  0  0  0  0  0  0
  187.5910  177.7220  144.9740 C   0  0  0  0  0  3  0  0  0  0  0  0
  189.0440  178.4880  148.2930 O   0  0  0  0  0  1  0  0  0  0  0  0
  188.1200  178.2400  147.2840 C   0  0  0  0  0  0  0  0  0  0  0  0
  186.7540  178.2730  147.5810 C   0  0  0  0  0  3  0  0  0  0  0  0
  186.2280  177.7570  145.2770 C   0  0  0  0  0  3  0  0  0  0  0  0
  190.6870  176.6430  146.0440 C   0  0  0  0  0  2  0  0  0  0  0  0
  191.8340  176.9000  146.7940 O   0  0  0  0  0  1  0  0  0  0  0  0
  189.2840  178.2600  141.9400 C   0  0  0  0  0  2  0  0  0  0  0  0
  188.1080  177.6340  141.3430 N   0  0  0  0  0  2  0  0  0  0  0  0
  187.1040  178.6400  139.4640 O   0  0  0  0  0  1  0  0  0  0  0  0
  188.1330  177.7950  139.8890 C   0  0  1  0  0  3  0  0  0  0  0  0
  189.4880  178.3020  139.4060 C   0  0  0  0  0  2  0  0  0  0  0  0
  188.9990  176.4140  138.1180 C   0  0  0  0  0  2  0  0  0  0  0  0
  191.1170  176.6750  139.0480 C   0  0  0  0  0  2  0  0  0  0  0  0
  190.5130  175.0240  136.6000 C   0  0  1  0  0  3  0  0  0  0  0  0
  190.0330  177.4000  138.4040 N   0  0  0  0  0  0  0  0  0  0  0  0
  191.7380  175.9430  136.6470 C   0  0  0  0  0  2  0  0  0  0  0  0
  192.2230  176.3190  138.0540 C   0  0  0  0  0  2  0  0  0  0  0  0
  190.5970  173.9930  137.5400 O   0  0  0  0  0  1  0  0  0  0  0  0
  189.2030  175.8030  136.7340 C   0  0  0  0  0  2  0  0  0  0  0  0
  1 16  1  6  0  0  0
  1  5  1  0  0  0  0
  2  3  1  0  0  0  0
  2  1  1  0  0  0  0
  4  5  2  0  0  0  0
  5  6  1  0  0  0  0
  6  7  1  0  0  0  0
  6 14  1  6  0  0  0
  7 11  1  0  0  0  0
  8 12  1  0  0  0  0
  9 13  1  0  0  0  0
  9  7  2  0  0  0  0
 11 12  2  0  0  0  0
 11 10  1  0  0  0  0
 13  8  2  0  0  0  0
 14 15  1  0  0  0  0
 17 16  1  0  0  0  0
 19 18  1  1  0  0  0
 19 17  1  0  0  0  0
 20 19  1  0  0  0  0
 21 24  1  0  0  0  0
 23 25  1  0  0  0  0
 23 28  1  0  0  0  0
 23 27  1  1  0  0  0
 24 22  1  0  0  0  0
 24 20  1  0  0  0  0
 25 26  1  0  0  0  0
 26 22  1  0  0  0  0
 28 21  1  0  0  0  0
M  END
>  <MODEL>
8

>  <REMARK>
 VINA RESULT:      -7.0      1.743      2.698
  Name = 
  10 active torsions:
  status: ('A' for Active; 'I' for Inactive)
    1  A    between atoms: C_1  and  C_2
    2  A    between atoms: C_1  and  C_3
    3  A    between atoms: C_1  and  C_27
    4  A    between atoms: C_5  and  N_20
    5  A    between atoms: C_5  and  C_21
    6  A    between atoms: C_10  and  N_13
    7  A    between atoms: C_10  and  C_25
    8  A    between atoms: C_16  and  C_21
    9  A    between atoms: N_20  and  C_25
   10  A    between atoms: C_21  and  C_27
                            x       y       z     vdW  Elec       q    Type
                         _______ _______ _______ _____ _____    ______ ____

>  <TORSDO>
F 10

$$$$
=
 OpenBabel10262420463D

 28 29  0  0  1  0  0  0  0  0999 V2000
  191.5690  177.6830  143.5900 C   0  0  1  0  0  3  0  0  0  0  0  0
  191.9320  179.0210  144.2210 C   0  0  0  0  0  2  0  0  0  0  0  0
  190.9300  179.9580  143.9680 O   0  0  0  0  0  1  0  0  0  0  0  0
  191.0010  175.5240  144.3760 O   0  0  0  0  0  0  0  0  0  0  0  0
  191.0350  176.7220  144.6150 C   0  0  0  0  0  0  0  0  0  0  0  0
  190.5640  177.2130  145.9560 C   0  0  1  0  0  3  0  0  0  0  0  0
  189.0740  177.4140  145.9790 C   0  0  0  0  0  0  0  0  0  0  0  0
  186.3030  177.8550  146.0130 C   0  0  0  0  0  3  0  0  0  0  0  0
  188.2940  177.1270  144.8470 C   0  0  0  0  0  3  0  0  0  0  0  0
  189.2010  178.2350  148.2610 O   0  0  0  0  0  1  0  0  0  0  0  0
  188.4530  177.9320  147.1300 C   0  0  0  0  0  0  0  0  0  0  0  0
  187.0720  178.1470  147.1420 C   0  0  0  0  0  3  0  0  0  0  0  0
  186.9140  177.3450  144.8650 C   0  0  0  0  0  3  0  0  0  0  0  0
  191.0400  176.3230  147.0990 C   0  0  0  0  0  2  0  0  0  0  0  0
  192.4300  176.3720  147.1940 O   0  0  0  0  0  1  0  0  0  0  0  0
  190.5480  177.8810  142.4840 C   0  0  0  0  0  2  0  0  0  0  0  0
  190.6270  176.7780  141.5300 N   0  0  0  0  0  2  0  0  0  0  0  0
  192.4410  177.5060  140.2150 O   0  0  0  0  0  1  0  0  0  0  0  0
  191.0630  177.2700  140.2230 C   0  0  1  0  0  3  0  0  0  0  0  0
  190.6690  176.3100  139.1050 C   0  0  0  0  0  2  0  0  0  0  0  0
  189.4210  178.2520  138.7350 C   0  0  0  0  0  2  0  0  0  0  0  0
  188.6230  176.1950  137.9950 C   0  0  0  0  0  2  0  0  0  0  0  0
  187.8550  178.8570  136.8100 C   0  0  1  0  0  3  0  0  0  0  0  0
  189.8330  176.9920  138.1300 N   0  0  0  0  0  0  0  0  0  0  0  0
  188.1740  177.6580  135.9110 C   0  0  0  0  0  2  0  0  0  0  0  0
  188.0480  176.2830  136.5810 C   0  0  0  0  0  2  0  0  0  0  0  0
  186.7200  178.6340  137.5940 O   0  0  0  0  0  1  0  0  0  0  0  0
  189.0550  179.2740  137.6620 C   0  0  0  0  0  2  0  0  0  0  0  0
  1 16  1  6  0  0  0
  1  2  1  0  0  0  0
  1  5  1  0  0  0  0
  3  2  1  0  0  0  0
  4  5  2  0  0  0  0
  5  6  1  0  0  0  0
  6  7  1  0  0  0  0
  6 14  1  1  0  0  0
  7 11  1  0  0  0  0
  8 12  1  0  0  0  0
  9 13  1  0  0  0  0
  9  7  2  0  0  0  0
 11 12  2  0  0  0  0
 11 10  1  0  0  0  0
 13  8  2  0  0  0  0
 14 15  1  0  0  0  0
 17 16  1  0  0  0  0
 19 18  1  1  0  0  0
 19 17  1  0  0  0  0
 20 19  1  0  0  0  0
 22 24  1  0  0  0  0
 23 27  1  1  0  0  0
 23 28  1  0  0  0  0
 24 21  1  0  0  0  0
 24 20  1  0  0  0  0
 25 26  1  0  0  0  0
 25 23  1  0  0  0  0
 26 22  1  0  0  0  0
 28 21  1  0  0  0  0
M  END
>  <MODEL>
9

>  <REMARK>
 VINA RESULT:      -7.0      1.191      1.955
  Name = 
  10 active torsions:
  status: ('A' for Active; 'I' for Inactive)
    1  A    between atoms: C_1  and  C_2
    2  A    between atoms: C_1  and  C_3
    3  A    between atoms: C_1  and  C_27
    4  A    between atoms: C_5  and  N_20
    5  A    between atoms: C_5  and  C_21
    6  A    between atoms: C_10  and  N_13
    7  A    between atoms: C_10  and  C_25
    8  A    between atoms: C_16  and  C_21
    9  A    between atoms: N_20  and  C_25
   10  A    between atoms: C_21  and  C_27
                            x       y       z     vdW  Elec       q    Type
                         _______ _______ _______ _____ _____    ______ ____

>  <TORSDO>
F 10

$$$$
