=
 OpenBabel10262422473D

 37 41  0  0  1  0  0  0  0  0999 V2000
  181.1690  178.5680  138.1630 C   0  0  2  0  0  3  0  0  0  0  0  0
  182.5730  178.1050  138.6220 C   0  0  2  0  0  3  0  0  0  0  0  0
  183.2330  177.1390  137.6210 C   0  0  2  0  0  3  0  0  0  0  0  0
  181.8920  178.1290  135.7540 C   0  0  0  0  0  2  0  0  0  0  0  0
  179.7770  179.2900  136.1840 C   0  0  0  0  0  1  0  0  0  0  0  0
  181.1870  179.0900  136.7070 C   0  0  1  0  0  3  0  0  0  0  0  0
  183.2940  177.7990  136.2470 C   0  0  0  0  0  2  0  0  0  0  0  0
  184.9640  174.7880  137.0660 C   0  0  0  0  0  3  0  0  0  0  0  0
  183.4630  174.6280  137.2550 C   0  0  2  0  0  0  0  0  0  0  0  0
  182.9980  174.8670  138.6720 C   0  0  0  0  0  2  0  0  0  0  0  0
  182.9120  173.3770  136.6290 C   0  0  0  0  0  2  0  0  0  0  0  0
  182.9460  170.9640  135.0230 C   0  0  0  0  0  1  0  0  0  0  0  0
  184.1400  171.7240  135.2910 N   0  0  0  0  0  0  0  0  0  0  0  0
  184.1360  172.7920  136.0080 C   0  0  0  0  0  0  0  0  0  0  0  0
  182.5160  175.7820  137.5500 C   0  0  1  0  0  3  0  0  0  0  0  0
  185.3860  173.5770  136.2430 C   0  0  0  0  0  3  0  0  0  0  0  0
  182.6400  178.3390  142.5670 C   0  0  2  0  0  3  0  0  0  0  0  0
  183.8760  178.4510  143.2780 O   0  0  0  0  0  0  0  0  0  0  0  0
  184.6430  179.5510  142.8050 C   0  0  0  0  0  2  0  0  0  0  0  0
  185.6440  179.1450  141.6870 C   0  0  2  0  0  3  0  0  0  0  0  0
  185.0100  178.6280  140.3690 C   0  0  0  0  0  2  0  0  0  0  0  0
  182.5570  177.5090  140.0350 C   0  0  1  0  0  3  0  0  0  0  0  0
  183.9220  177.6250  140.7040 C   0  0  2  0  0  3  0  0  0  0  0  0
  182.7990  178.5800  141.0680 C   0  0  2  0  0  3  0  0  0  0  0  0
  186.8000  178.2760  142.1900 C   0  0  0  0  0  2  0  0  0  0  0  0
  187.9650  178.2160  141.2160 C   0  0  0  0  0  1  0  0  0  0  0  0
  180.5700  178.5100  143.9440 C   0  0  0  0  0  1  0  0  0  0  0  0
  181.5940  179.2850  143.1350 C   0  0  0  0  0  2  0  0  0  0  0  0
  180.6140  179.6070  139.1580 C   0  0  2  0  0  3  0  0  0  0  0  0
  179.2050  179.3390  139.6950 C   0  0  2  0  0  3  0  0  0  0  0  0
  179.0320  179.8730  140.9730 O   0  0  0  0  0  1  0  0  0  0  0  0
  178.9310  177.8480  139.7260 C   0  0  0  0  0  1  0  0  0  0  0  0
  181.0410  181.0690  138.9710 C   0  0  0  0  0  2  0  0  0  0  0  0
  179.8730  182.0010  138.6980 C   0  0  0  0  0  2  0  0  0  0  0  0
  179.9930  182.6030  137.3090 C   0  0  0  0  0  2  0  0  0  0  0  0
  180.8750  183.7720  137.3330 C   0  0  0  0  0  0  0  0  0  0  0  0
  181.6000  184.7360  137.3500 C   0  0  0  0  0  3  0  0  0  0  0  0
  1  2  1  0  0  0  0
  1 29  1  1  0  0  0
  2 22  1  1  0  0  0
  3  7  1  6  0  0  0
  3  2  1  0  0  0  0
  4  7  1  0  0  0  0
  4  6  1  0  0  0  0
  6  5  1  6  0  0  0
  6  1  1  0  0  0  0
  8  9  1  0  0  0  0
  9 11  1  6  0  0  0
  9 15  1  0  0  0  0
  9 10  1  0  0  0  0
 12 13  1  0  0  0  0
 13 14  2  0  0  0  0
 14 16  1  0  0  0  0
 14 11  1  0  0  0  0
 15  3  1  0  0  0  0
 15 10  1  1  0  0  0
 16  8  2  0  0  0  0
 17 28  1  1  0  0  0
 17 18  1  0  0  0  0
 19 18  1  0  0  0  0
 20 25  1  1  0  0  0
 20 19  1  0  0  0  0
 21 23  1  0  0  0  0
 21 20  1  0  0  0  0
 22 23  1  0  0  0  0
 22 24  1  0  0  0  0
 23 24  1  0  0  0  0
 24 17  1  0  0  0  0
 26 25  1  0  0  0  0
 28 27  1  0  0  0  0
 29 30  1  0  0  0  0
 30 32  1  0  0  0  0
 30 31  1  0  0  0  0
 33 29  1  0  0  0  0
 34 33  1  0  0  0  0
 35 36  1  0  0  0  0
 35 34  1  0  0  0  0
 36 37  3  0  0  0  0
M  END
>  <MODEL>
1

>  <REMARK>
 VINA RESULT:      -5.1      0.000      0.000
  Name = 
  10 active torsions:
  status: ('A' for Active; 'I' for Inactive)
    1  A    between atoms: C_1  and  C_23
    2  A    between atoms: C_3  and  C_30
    3  A    between atoms: C_4  and  C_13
    4  A    between atoms: C_9  and  C_13
    5  A    between atoms: C_9  and  C_16
    6  A    between atoms: C_10  and  C_29
    7  A    between atoms: C_11  and  C_26
    8  A    between atoms: C_13  and  C_20
    9  A    between atoms: C_14  and  C_31
   10  A    between atoms: C_16  and  C_30
                            x       y       z     vdW  Elec       q    Type
                         _______ _______ _______ _____ _____    ______ ____

>  <TORSDO>
F 10

$$$$
=
 OpenBabel10262422473D

 37 41  0  0  1  0  0  0  0  0999 V2000
  184.4330  177.1240  137.1680 C   0  0  2  0  0  3  0  0  0  0  0  0
  184.1780  177.6760  138.5910 C   0  0  2  0  0  3  0  0  0  0  0  0
  182.8020  178.3530  138.7250 C   0  0  2  0  0  3  0  0  0  0  0  0
  181.9050  176.9390  136.8660 C   0  0  0  0  0  2  0  0  0  0  0  0
  183.3940  175.9400  135.1940 C   0  0  0  0  0  1  0  0  0  0  0  0
  183.2550  176.2530  136.6730 C   0  0  1  0  0  3  0  0  0  0  0  0
  181.7120  177.3690  138.3140 C   0  0  0  0  0  2  0  0  0  0  0  0
  180.8790  180.3750  139.7490 C   0  0  0  0  0  3  0  0  0  0  0  0
  181.6970  180.6370  138.4930 C   0  0  2  0  0  0  0  0  0  0  0  0
  183.1690  180.8410  138.7560 C   0  0  0  0  0  2  0  0  0  0  0  0
  181.0840  181.6690  137.5860 C   0  0  0  0  0  2  0  0  0  0  0  0
  179.0560  183.5030  136.6250 C   0  0  0  0  0  1  0  0  0  0  0  0
  178.9310  182.8120  137.8830 N   0  0  0  0  0  0  0  0  0  0  0  0
  179.8290  182.0010  138.3210 C   0  0  0  0  0  0  0  0  0  0  0  0
  182.7050  179.6550  137.9150 C   0  0  1  0  0  3  0  0  0  0  0  0
  179.6570  181.2750  139.6160 C   0  0  0  0  0  3  0  0  0  0  0  0
  187.4910  178.5070  140.5810 C   0  0  2  0  0  3  0  0  0  0  0  0
  187.4520  178.8300  141.9740 O   0  0  0  0  0  0  0  0  0  0  0  0
  186.7890  177.8170  142.7190 C   0  0  0  0  0  2  0  0  0  0  0  0
  185.2710  178.1020  142.8960 C   0  0  2  0  0  3  0  0  0  0  0  0
  184.4310  178.1190  141.5920 C   0  0  0  0  0  2  0  0  0  0  0  0
  185.3010  178.6080  139.0640 C   0  0  1  0  0  3  0  0  0  0  0  0
  185.1600  178.9410  140.5460 C   0  0  2  0  0  3  0  0  0  0  0  0
  186.1770  177.9150  140.0780 C   0  0  2  0  0  3  0  0  0  0  0  0
  184.9770  179.2820  143.8260 C   0  0  0  0  0  2  0  0  0  0  0  0
  183.5320  179.3230  144.2940 C   0  0  0  0  0  1  0  0  0  0  0  0
  189.6260  178.2200  139.3300 C   0  0  0  0  0  1  0  0  0  0  0  0
  188.6380  177.5580  140.2710 C   0  0  0  0  0  2  0  0  0  0  0  0
  185.7800  176.3740  137.1350 C   0  0  2  0  0  3  0  0  0  0  0  0
  186.8060  176.8760  136.1160 C   0  0  2  0  0  3  0  0  0  0  0  0
  187.9860  177.2920  136.7370 O   0  0  0  0  0  1  0  0  0  0  0  0
  186.2260  178.0220  135.3090 C   0  0  0  0  0  1  0  0  0  0  0  0
  185.7640  174.8720  137.4510 C   0  0  0  0  0  2  0  0  0  0  0  0
  186.7540  174.0770  136.6170 C   0  0  0  0  0  2  0  0  0  0  0  0
  186.0350  172.9800  135.8510 C   0  0  0  0  0  2  0  0  0  0  0  0
  184.8210  172.5720  136.5600 C   0  0  0  0  0  0  0  0  0  0  0  0
  183.8200  172.2340  137.1420 C   0  0  0  0  0  3  0  0  0  0  0  0
  1 29  1  1  0  0  0
  1  2  1  0  0  0  0
  2  3  1  0  0  0  0
  2 22  1  6  0  0  0
  3  7  1  6  0  0  0
  4  7  1  0  0  0  0
  6  5  1  6  0  0  0
  6  4  1  0  0  0  0
  6  1  1  0  0  0  0
  9 11  1  6  0  0  0
  9 10  1  0  0  0  0
  9  8  1  0  0  0  0
 11 14  1  0  0  0  0
 12 13  1  0  0  0  0
 13 14  2  0  0  0  0
 14 16  1  0  0  0  0
 15  9  1  0  0  0  0
 15  3  1  0  0  0  0
 15 10  1  1  0  0  0
 16  8  2  0  0  0  0
 17 28  1  1  0  0  0
 17 18  1  0  0  0  0
 18 19  1  0  0  0  0
 19 20  1  0  0  0  0
 20 25  1  6  0  0  0
 21 20  1  0  0  0  0
 22 24  1  0  0  0  0
 22 23  1  0  0  0  0
 23 21  1  0  0  0  0
 24 23  1  0  0  0  0
 24 17  1  0  0  0  0
 25 26  1  0  0  0  0
 27 28  1  0  0  0  0
 29 33  1  0  0  0  0
 30 31  1  0  0  0  0
 30 29  1  0  0  0  0
 32 30  1  0  0  0  0
 34 33  1  0  0  0  0
 35 36  1  0  0  0  0
 35 34  1  0  0  0  0
 36 37  3  0  0  0  0
M  END
>  <MODEL>
2

>  <REMARK>
 VINA RESULT:      -4.8      3.069      7.387
  Name = 
  10 active torsions:
  status: ('A' for Active; 'I' for Inactive)
    1  A    between atoms: C_1  and  C_23
    2  A    between atoms: C_3  and  C_30
    3  A    between atoms: C_4  and  C_13
    4  A    between atoms: C_9  and  C_13
    5  A    between atoms: C_9  and  C_16
    6  A    between atoms: C_10  and  C_29
    7  A    between atoms: C_11  and  C_26
    8  A    between atoms: C_13  and  C_20
    9  A    between atoms: C_14  and  C_31
   10  A    between atoms: C_16  and  C_30
                            x       y       z     vdW  Elec       q    Type
                         _______ _______ _______ _____ _____    ______ ____

>  <TORSDO>
F 10

$$$$
=
 OpenBabel10262422473D

 37 41  0  0  1  0  0  0  0  0999 V2000
  185.0460  177.7340  137.1450 C   0  0  2  0  0  3  0  0  0  0  0  0
  184.6140  177.9550  138.6150 C   0  0  2  0  0  3  0  0  0  0  0  0
  183.1660  178.4660  138.7350 C   0  0  2  0  0  3  0  0  0  0  0  0
  182.5880  177.3910  136.5500 C   0  0  0  0  0  2  0  0  0  0  0  0
  184.3110  176.8960  134.8790 C   0  0  0  0  0  1  0  0  0  0  0  0
  184.0150  176.8830  136.3680 C   0  0  1  0  0  3  0  0  0  0  0  0
  182.2280  177.4950  138.0260 C   0  0  0  0  0  2  0  0  0  0  0  0
  180.3730  179.4660  138.5680 C   0  0  0  0  0  3  0  0  0  0  0  0
  181.5420  180.3330  138.1280 C   0  0  2  0  0  0  0  0  0  0  0  0
  182.4130  180.8060  139.2660 C   0  0  0  0  0  2  0  0  0  0  0  0
  181.1520  181.4160  137.1600 C   0  0  0  0  0  2  0  0  0  0  0  0
  179.4130  182.8830  135.3640 C   0  0  0  0  0  1  0  0  0  0  0  0
  178.9310  181.8040  136.1860 N   0  0  0  0  0  0  0  0  0  0  0  0
  179.6930  181.1510  136.9920 C   0  0  0  0  0  0  0  0  0  0  0  0
  182.9970  179.8930  138.1910 C   0  0  1  0  0  3  0  0  0  0  0  0
  179.1700  180.0150  137.8100 C   0  0  0  0  0  3  0  0  0  0  0  0
  187.4700  178.6700  141.2530 C   0  0  2  0  0  3  0  0  0  0  0  0
  187.1650  178.8410  142.6400 O   0  0  0  0  0  0  0  0  0  0  0  0
  186.4300  177.7330  143.1460 C   0  0  0  0  0  2  0  0  0  0  0  0
  184.8920  177.9510  143.0680 C   0  0  2  0  0  3  0  0  0  0  0  0
  184.3010  178.0820  141.6400 C   0  0  0  0  0  2  0  0  0  0  0  0
  185.5850  178.8650  139.3770 C   0  0  1  0  0  3  0  0  0  0  0  0
  185.1640  179.0330  140.8330 C   0  0  2  0  0  3  0  0  0  0  0  0
  186.2980  178.0960  140.4600 C   0  0  2  0  0  3  0  0  0  0  0  0
  184.3780  179.0140  144.0410 C   0  0  0  0  0  2  0  0  0  0  0  0
  182.8940  178.8770  144.3400 C   0  0  0  0  0  1  0  0  0  0  0  0
  189.2570  177.9690  139.6660 C   0  0  0  0  0  1  0  0  0  0  0  0
  188.6990  177.7960  141.0660 C   0  0  0  0  0  2  0  0  0  0  0  0
  186.4640  177.1290  137.1060 C   0  0  2  0  0  3  0  0  0  0  0  0
  187.5630  178.0260  136.5320 C   0  0  2  0  0  3  0  0  0  0  0  0
  187.2820  179.3790  136.7360 O   0  0  0  0  0  1  0  0  0  0  0  0
  187.7350  177.7620  135.0490 C   0  0  0  0  0  1  0  0  0  0  0  0
  186.5840  175.6170  136.8770 C   0  0  0  0  0  2  0  0  0  0  0  0
  187.7290  174.9860  137.6520 C   0  0  0  0  0  2  0  0  0  0  0  0
  188.8650  174.6240  136.7120 C   0  0  0  0  0  2  0  0  0  0  0  0
  190.1460  175.0850  137.2530 C   0  0  0  0  0  0  0  0  0  0  0  0
  191.1990  175.4660  137.7010 C   0  0  0  0  0  3  0  0  0  0  0  0
  1 29  1  1  0  0  0
  1  2  1  0  0  0  0
  2  3  1  0  0  0  0
  2 22  1  6  0  0  0
  3  7  1  6  0  0  0
  4  7  1  0  0  0  0
  6  5  1  6  0  0  0
  6  4  1  0  0  0  0
  6  1  1  0  0  0  0
  9 11  1  6  0  0  0
  9 15  1  0  0  0  0
  9  8  1  0  0  0  0
  9 10  1  0  0  0  0
 12 13  1  0  0  0  0
 13 14  2  0  0  0  0
 14 11  1  0  0  0  0
 14 16  1  0  0  0  0
 15  3  1  0  0  0  0
 15 10  1  1  0  0  0
 16  8  2  0  0  0  0
 17 28  1  1  0  0  0
 17 18  1  0  0  0  0
 18 19  1  0  0  0  0
 20 19  1  0  0  0  0
 20 25  1  1  0  0  0
 21 20  1  0  0  0  0
 22 24  1  0  0  0  0
 22 23  1  0  0  0  0
 23 21  1  0  0  0  0
 24 23  1  0  0  0  0
 24 17  1  0  0  0  0
 25 26  1  0  0  0  0
 27 28  1  0  0  0  0
 30 31  1  0  0  0  0
 30 29  1  0  0  0  0
 32 30  1  0  0  0  0
 33 29  1  0  0  0  0
 33 34  1  0  0  0  0
 35 36  1  0  0  0  0
 35 34  1  0  0  0  0
 36 37  3  0  0  0  0
M  END
>  <MODEL>
3

>  <REMARK>
 VINA RESULT:      -4.6      3.195      7.310
  Name = 
  10 active torsions:
  status: ('A' for Active; 'I' for Inactive)
    1  A    between atoms: C_1  and  C_23
    2  A    between atoms: C_3  and  C_30
    3  A    between atoms: C_4  and  C_13
    4  A    between atoms: C_9  and  C_13
    5  A    between atoms: C_9  and  C_16
    6  A    between atoms: C_10  and  C_29
    7  A    between atoms: C_11  and  C_26
    8  A    between atoms: C_13  and  C_20
    9  A    between atoms: C_14  and  C_31
   10  A    between atoms: C_16  and  C_30
                            x       y       z     vdW  Elec       q    Type
                         _______ _______ _______ _____ _____    ______ ____

>  <TORSDO>
F 10

$$$$
=
 OpenBabel10262422473D

 37 41  0  0  1  0  0  0  0  0999 V2000
  191.9010  175.6000  138.2370 C   0  0  2  0  0  3  0  0  0  0  0  0
  190.6450  176.4690  138.4900 C   0  0  2  0  0  3  0  0  0  0  0  0
  190.6880  177.1860  139.8520 C   0  0  2  0  0  3  0  0  0  0  0  0
  193.1890  177.1280  139.8230 C   0  0  0  0  0  2  0  0  0  0  0  0
  194.4090  175.4700  138.4940 C   0  0  0  0  0  1  0  0  0  0  0  0
  193.2040  176.3930  138.4870 C   0  0  1  0  0  3  0  0  0  0  0  0
  191.9610  178.0210  139.9430 C   0  0  0  0  0  2  0  0  0  0  0  0
  190.5420  178.4330  142.5450 C   0  0  0  0  0  3  0  0  0  0  0  0
  190.5170  176.9220  142.3800 C   0  0  2  0  0  0  0  0  0  0  0  0
  189.2470  176.3970  141.7550 C   0  0  0  0  0  2  0  0  0  0  0  0
  190.9490  176.1780  143.6140 C   0  0  0  0  0  2  0  0  0  0  0  0
  192.0280  175.8490  146.2840 C   0  0  0  0  0  1  0  0  0  0  0  0
  191.7660  177.1470  145.7180 N   0  0  0  0  0  0  0  0  0  0  0  0
  191.2810  177.3030  144.5360 C   0  0  0  0  0  0  0  0  0  0  0  0
  190.5790  176.2130  141.0350 C   0  0  1  0  0  3  0  0  0  0  0  0
  191.0490  178.6640  143.9640 C   0  0  0  0  0  3  0  0  0  0  0  0
  187.3470  175.4270  136.5760 C   0  0  2  0  0  3  0  0  0  0  0  0
  186.1530  176.2060  136.6890 O   0  0  0  0  0  0  0  0  0  0  0  0
  186.3910  177.5660  136.3500 C   0  0  0  0  0  2  0  0  0  0  0  0
  186.7440  178.4380  137.5890 C   0  0  2  0  0  3  0  0  0  0  0  0
  188.0620  178.0700  138.3190 C   0  0  0  0  0  2  0  0  0  0  0  0
  189.3430  175.6740  138.3260 C   0  0  1  0  0  3  0  0  0  0  0  0
  188.1200  176.5660  138.5070 C   0  0  2  0  0  3  0  0  0  0  0  0
  188.5750  176.1520  137.1190 C   0  0  2  0  0  3  0  0  0  0  0  0
  185.5610  178.6550  138.5370 C   0  0  0  0  0  2  0  0  0  0  0  0
  185.9670  178.6550  140.0010 C   0  0  0  0  0  1  0  0  0  0  0  0
  187.7710  173.4990  135.0560 C   0  0  0  0  0  1  0  0  0  0  0  0
  187.5900  175.0030  135.1370 C   0  0  0  0  0  2  0  0  0  0  0  0
  191.8360  174.9950  136.8190 C   0  0  2  0  0  3  0  0  0  0  0  0
  191.7880  175.9960  135.6620 C   0  0  2  0  0  3  0  0  0  0  0  0
  190.7890  175.6700  134.7420 O   0  0  0  0  0  1  0  0  0  0  0  0
  193.1290  176.0470  134.9570 C   0  0  0  0  0  1  0  0  0  0  0  0
  191.0860  173.6670  136.6480 C   0  0  0  0  0  2  0  0  0  0  0  0
  191.8770  172.6340  135.8620 C   0  0  0  0  0  2  0  0  0  0  0  0
  193.2570  172.4550  136.4690 C   0  0  0  0  0  2  0  0  0  0  0  0
  194.2910  172.5970  135.4410 C   0  0  0  0  0  0  0  0  0  0  0  0
  195.1410  172.7150  134.5940 C   0  0  0  0  0  3  0  0  0  0  0  0
  1 29  1  6  0  0  0
  1  6  1  0  0  0  0
  1  2  1  0  0  0  0
  2 22  1  1  0  0  0
  2  3  1  0  0  0  0
  3  7  1  1  0  0  0
  3 15  1  0  0  0  0
  4  7  1  0  0  0  0
  6  5  1  1  0  0  0
  6  4  1  0  0  0  0
  8 16  2  0  0  0  0
  9 10  1  1  0  0  0
  9  8  1  0  0  0  0
  9 11  1  0  0  0  0
 11 14  1  0  0  0  0
 13 12  1  0  0  0  0
 14 13  2  0  0  0  0
 15 10  1  6  0  0  0
 15  9  1  0  0  0  0
 16 14  1  0  0  0  0
 17 28  1  6  0  0  0
 17 18  1  0  0  0  0
 17 24  1  0  0  0  0
 19 18  1  0  0  0  0
 19 20  1  0  0  0  0
 20 21  1  0  0  0  0
 20 25  1  1  0  0  0
 21 23  1  0  0  0  0
 22 23  1  0  0  0  0
 24 22  1  0  0  0  0
 24 23  1  0  0  0  0
 25 26  1  0  0  0  0
 27 28  1  0  0  0  0
 30 29  1  0  0  0  0
 31 30  1  0  0  0  0
 32 30  1  0  0  0  0
 33 29  1  0  0  0  0
 34 35  1  0  0  0  0
 34 33  1  0  0  0  0
 36 35  1  0  0  0  0
 37 36  3  0  0  0  0
M  END
>  <MODEL>
4

>  <REMARK>
 VINA RESULT:      -4.1      5.917     11.251
  Name = 
  10 active torsions:
  status: ('A' for Active; 'I' for Inactive)
    1  A    between atoms: C_1  and  C_23
    2  A    between atoms: C_3  and  C_30
    3  A    between atoms: C_4  and  C_13
    4  A    between atoms: C_9  and  C_13
    5  A    between atoms: C_9  and  C_16
    6  A    between atoms: C_10  and  C_29
    7  A    between atoms: C_11  and  C_26
    8  A    between atoms: C_13  and  C_20
    9  A    between atoms: C_14  and  C_31
   10  A    between atoms: C_16  and  C_30
                            x       y       z     vdW  Elec       q    Type
                         _______ _______ _______ _____ _____    ______ ____

>  <TORSDO>
F 10

$$$$
=
 OpenBabel10262422473D

 37 41  0  0  1  0  0  0  0  0999 V2000
  186.5140  177.9030  139.5190 C   0  0  2  0  0  3  0  0  0  0  0  0
  186.1950  178.4420  140.9350 C   0  0  2  0  0  3  0  0  0  0  0  0
  187.4290  178.4470  141.8570 C   0  0  2  0  0  3  0  0  0  0  0  0
  188.9360  178.6300  139.8670 C   0  0  0  0  0  2  0  0  0  0  0  0
  188.2070  177.8910  137.6460 C   0  0  0  0  0  1  0  0  0  0  0  0
  187.7500  178.6020  138.9070 C   0  0  1  0  0  3  0  0  0  0  0  0
  188.5460  179.2520  141.2000 C   0  0  0  0  0  2  0  0  0  0  0  0
  189.2770  178.2460  144.1750 C   0  0  0  0  0  3  0  0  0  0  0  0
  188.8540  177.0070  143.4020 C   0  0  2  0  0  0  0  0  0  0  0  0
  187.4040  176.6320  143.5970 C   0  0  0  0  0  2  0  0  0  0  0  0
  189.8120  175.8560  143.5460 C   0  0  0  0  0  2  0  0  0  0  0  0
  192.2460  174.5010  144.3440 C   0  0  0  0  0  1  0  0  0  0  0  0
  191.9500  175.8500  144.7540 N   0  0  0  0  0  0  0  0  0  0  0  0
  190.8680  176.4570  144.4100 C   0  0  0  0  0  0  0  0  0  0  0  0
  187.9050  177.0300  142.2120 C   0  0  1  0  0  3  0  0  0  0  0  0
  190.6030  177.8680  144.8260 C   0  0  0  0  0  3  0  0  0  0  0  0
  182.6280  178.2520  142.6280 C   0  0  2  0  0  3  0  0  0  0  0  0
  182.4610  178.5130  144.0240 O   0  0  0  0  0  0  0  0  0  0  0  0
  182.9980  179.7810  144.3790 C   0  0  0  0  0  2  0  0  0  0  0  0
  184.4740  179.6920  144.8570 C   0  0  2  0  0  3  0  0  0  0  0  0
  185.5000  179.2130  143.7960 C   0  0  0  0  0  2  0  0  0  0  0  0
  185.0210  177.7020  141.5890 C   0  0  1  0  0  3  0  0  0  0  0  0
  184.9410  177.9960  143.0830 C   0  0  2  0  0  3  0  0  0  0  0  0
  183.9980  178.6800  142.1100 C   0  0  2  0  0  3  0  0  0  0  0  0
  184.6340  179.0030  146.2150 C   0  0  0  0  0  2  0  0  0  0  0  0
  186.0750  178.6350  146.5280 C   0  0  0  0  0  1  0  0  0  0  0  0
  180.8020  177.8880  140.9720 C   0  0  0  0  0  1  0  0  0  0  0  0
  181.5340  178.9190  141.8110 C   0  0  0  0  0  2  0  0  0  0  0  0
  185.2620  178.0220  138.6260 C   0  0  2  0  0  3  0  0  0  0  0  0
  185.0630  176.9080  137.5940 C   0  0  2  0  0  3  0  0  0  0  0  0
  184.9400  177.4210  136.3010 O   0  0  0  0  0  1  0  0  0  0  0  0
  183.8320  176.0920  137.9350 C   0  0  0  0  0  1  0  0  0  0  0  0
  184.7860  179.4320  138.2540 C   0  0  0  0  0  2  0  0  0  0  0  0
  183.5470  179.8640  139.0220 C   0  0  0  0  0  2  0  0  0  0  0  0
  182.3100  179.7070  138.1560 C   0  0  0  0  0  2  0  0  0  0  0  0
  181.3370  180.7600  138.4560 C   0  0  0  0  0  0  0  0  0  0  0  0
  180.5370  181.6270  138.7060 C   0  0  0  0  0  3  0  0  0  0  0  0
  1 29  1  6  0  0  0
  1  2  1  0  0  0  0
  2 22  1  1  0  0  0
  2  3  1  0  0  0  0
  3  7  1  6  0  0  0
  3 15  1  0  0  0  0
  4  7  1  0  0  0  0
  6  5  1  6  0  0  0
  6  1  1  0  0  0  0
  6  4  1  0  0  0  0
  8 16  2  0  0  0  0
  9 11  1  1  0  0  0
  9 10  1  0  0  0  0
  9  8  1  0  0  0  0
 11 14  1  0  0  0  0
 12 13  1  0  0  0  0
 14 13  2  0  0  0  0
 14 16  1  0  0  0  0
 15  9  1  0  0  0  0
 15 10  1  1  0  0  0
 17 28  1  6  0  0  0
 17 18  1  0  0  0  0
 18 19  1  0  0  0  0
 19 20  1  0  0  0  0
 20 25  1  1  0  0  0
 21 20  1  0  0  0  0
 22 24  1  0  0  0  0
 22 23  1  0  0  0  0
 23 21  1  0  0  0  0
 24 17  1  0  0  0  0
 24 23  1  0  0  0  0
 25 26  1  0  0  0  0
 27 28  1  0  0  0  0
 30 32  1  0  0  0  0
 30 29  1  0  0  0  0
 31 30  1  0  0  0  0
 33 29  1  0  0  0  0
 33 34  1  0  0  0  0
 35 36  1  0  0  0  0
 35 34  1  0  0  0  0
 36 37  3  0  0  0  0
M  END
>  <MODEL>
5

>  <REMARK>
 VINA RESULT:      -3.9      3.464      6.651
  Name = 
  10 active torsions:
  status: ('A' for Active; 'I' for Inactive)
    1  A    between atoms: C_1  and  C_23
    2  A    between atoms: C_3  and  C_30
    3  A    between atoms: C_4  and  C_13
    4  A    between atoms: C_9  and  C_13
    5  A    between atoms: C_9  and  C_16
    6  A    between atoms: C_10  and  C_29
    7  A    between atoms: C_11  and  C_26
    8  A    between atoms: C_13  and  C_20
    9  A    between atoms: C_14  and  C_31
   10  A    between atoms: C_16  and  C_30
                            x       y       z     vdW  Elec       q    Type
                         _______ _______ _______ _____ _____    ______ ____

>  <TORSDO>
F 10

$$$$
=
 OpenBabel10262422473D

 37 41  0  0  1  0  0  0  0  0999 V2000
  190.4640  176.7950  138.5510 C   0  0  2  0  0  3  0  0  0  0  0  0
  190.2280  175.5930  137.6050 C   0  0  2  0  0  3  0  0  0  0  0  0
  191.5300  175.0840  136.9600 C   0  0  2  0  0  3  0  0  0  0  0  0
  192.8510  175.9610  138.8970 C   0  0  0  0  0  2  0  0  0  0  0  0
  191.9930  177.7730  140.3060 C   0  0  0  0  0  1  0  0  0  0  0  0
  191.5950  176.5090  139.5670 C   0  0  1  0  0  3  0  0  0  0  0  0
  192.5320  174.7320  138.0560 C   0  0  0  0  0  2  0  0  0  0  0  0
  194.3180  174.5380  136.0880 C   0  0  0  0  0  3  0  0  0  0  0  0
  193.5600  175.7520  135.5720 C   0  0  2  0  0  0  0  0  0  0  0  0
  192.4270  175.4100  134.6340 C   0  0  0  0  0  2  0  0  0  0  0  0
  194.4580  176.8520  135.0780 C   0  0  0  0  0  2  0  0  0  0  0  0
  196.9580  178.2410  134.6090 C   0  0  0  0  0  1  0  0  0  0  0  0
  196.9120  176.9050  135.1450 N   0  0  0  0  0  0  0  0  0  0  0  0
  195.8070  176.2780  135.3510 C   0  0  0  0  0  0  0  0  0  0  0  0
  192.1300  176.0910  135.9670 C   0  0  1  0  0  3  0  0  0  0  0  0
  195.7900  174.9040  135.9380 C   0  0  0  0  0  3  0  0  0  0  0  0
  186.5120  175.8360  136.2770 C   0  0  2  0  0  3  0  0  0  0  0  0
  185.8340  174.6830  135.7710 O   0  0  0  0  0  0  0  0  0  0  0  0
  185.8450  173.6220  136.7190 C   0  0  0  0  0  2  0  0  0  0  0  0
  187.0480  172.6570  136.5210 C   0  0  2  0  0  3  0  0  0  0  0  0
  188.4530  173.2760  136.7410 C   0  0  0  0  0  2  0  0  0  0  0  0
  189.1650  175.8900  136.5390 C   0  0  1  0  0  3  0  0  0  0  0  0
  188.5250  174.6080  136.0190 C   0  0  2  0  0  3  0  0  0  0  0  0
  187.7960  175.4820  137.0240 C   0  0  2  0  0  3  0  0  0  0  0  0
  186.9460  171.8100  135.2500 C   0  0  0  0  0  2  0  0  0  0  0  0
  185.6830  170.9670  135.1980 C   0  0  0  0  0  1  0  0  0  0  0  0
  184.4050  177.1600  136.3900 C   0  0  0  0  0  1  0  0  0  0  0  0
  185.6010  176.6570  137.1750 C   0  0  0  0  0  2  0  0  0  0  0  0
  189.1370  177.1850  139.2350 C   0  0  2  0  0  3  0  0  0  0  0  0
  188.6060  178.5860  138.9250 C   0  0  2  0  0  3  0  0  0  0  0  0
  187.2100  178.6160  138.9100 O   0  0  0  0  0  1  0  0  0  0  0  0
  189.1380  179.0640  137.5880 C   0  0  0  0  0  1  0  0  0  0  0  0
  188.8630  176.6100  140.6310 C   0  0  0  0  0  2  0  0  0  0  0  0
  188.9550  177.6520  141.7330 C   0  0  0  0  0  2  0  0  0  0  0  0
  187.8810  177.4100  142.7790 C   0  0  0  0  0  2  0  0  0  0  0  0
  188.4500  177.4860  144.1260 C   0  0  0  0  0  0  0  0  0  0  0  0
  188.9210  177.5490  145.2350 C   0  0  0  0  0  3  0  0  0  0  0  0
  1 29  1  1  0  0  0
  1  6  1  0  0  0  0
  2 22  1  6  0  0  0
  2  1  1  0  0  0  0
  3  2  1  0  0  0  0
  3  7  1  1  0  0  0
  4  6  1  0  0  0  0
  6  5  1  6  0  0  0
  7  4  1  0  0  0  0
  9 10  1  6  0  0  0
  9 15  1  0  0  0  0
  9  8  1  0  0  0  0
 11 14  1  0  0  0  0
 11  9  1  0  0  0  0
 12 13  1  0  0  0  0
 13 14  2  0  0  0  0
 14 16  1  0  0  0  0
 15 10  1  6  0  0  0
 15  3  1  0  0  0  0
 16  8  2  0  0  0  0
 17 24  1  0  0  0  0
 17 28  1  1  0  0  0
 18 17  1  0  0  0  0
 18 19  1  0  0  0  0
 20 25  1  6  0  0  0
 20 19  1  0  0  0  0
 20 21  1  0  0  0  0
 22 24  1  0  0  0  0
 23 22  1  0  0  0  0
 23 21  1  0  0  0  0
 23 24  1  0  0  0  0
 26 25  1  0  0  0  0
 27 28  1  0  0  0  0
 29 33  1  0  0  0  0
 30 29  1  0  0  0  0
 31 30  1  0  0  0  0
 32 30  1  0  0  0  0
 33 34  1  0  0  0  0
 34 35  1  0  0  0  0
 35 36  1  0  0  0  0
 36 37  3  0  0  0  0
M  END
>  <MODEL>
6

>  <REMARK>
 VINA RESULT:      -3.9      5.883     10.108
  Name = 
  10 active torsions:
  status: ('A' for Active; 'I' for Inactive)
    1  A    between atoms: C_1  and  C_23
    2  A    between atoms: C_3  and  C_30
    3  A    between atoms: C_4  and  C_13
    4  A    between atoms: C_9  and  C_13
    5  A    between atoms: C_9  and  C_16
    6  A    between atoms: C_10  and  C_29
    7  A    between atoms: C_11  and  C_26
    8  A    between atoms: C_13  and  C_20
    9  A    between atoms: C_14  and  C_31
   10  A    between atoms: C_16  and  C_30
                            x       y       z     vdW  Elec       q    Type
                         _______ _______ _______ _____ _____    ______ ____

>  <TORSDO>
F 10

$$$$
=
 OpenBabel10262422473D

 37 41  0  0  1  0  0  0  0  0999 V2000
  181.0640  178.0660  137.5590 C   0  0  2  0  0  3  0  0  0  0  0  0
  182.4530  177.8310  138.2000 C   0  0  2  0  0  3  0  0  0  0  0  0
  183.3430  176.9000  137.3560 C   0  0  2  0  0  3  0  0  0  0  0  0
  182.1110  177.5720  135.2840 C   0  0  0  0  0  2  0  0  0  0  0  0
  179.8290  178.4590  135.3920 C   0  0  0  0  0  1  0  0  0  0  0  0
  181.1830  178.4890  136.0760 C   0  0  1  0  0  3  0  0  0  0  0  0
  183.4780  177.4710  135.9480 C   0  0  0  0  0  2  0  0  0  0  0  0
  185.3120  174.8300  136.5370 C   0  0  0  0  0  3  0  0  0  0  0  0
  183.8800  174.4540  136.8850 C   0  0  2  0  0  0  0  0  0  0  0  0
  183.5490  174.6000  138.3500 C   0  0  0  0  0  2  0  0  0  0  0  0
  183.4410  173.1490  136.2810 C   0  0  0  0  0  2  0  0  0  0  0  0
  183.6300  170.7930  134.6020 C   0  0  0  0  0  1  0  0  0  0  0  0
  184.7290  171.7110  134.7620 N   0  0  0  0  0  0  0  0  0  0  0  0
  184.6570  172.7550  135.5110 C   0  0  0  0  0  0  0  0  0  0  0  0
  182.8200  175.4570  137.3190 C   0  0  1  0  0  3  0  0  0  0  0  0
  185.8040  173.7060  135.6330 C   0  0  0  0  0  3  0  0  0  0  0  0
  182.3060  178.3310  142.1180 C   0  0  2  0  0  3  0  0  0  0  0  0
  183.5030  178.4770  142.8880 O   0  0  0  0  0  0  0  0  0  0  0  0
  184.3110  179.5340  142.3860 C   0  0  0  0  0  2  0  0  0  0  0  0
  185.3660  179.0420  141.3550 C   0  0  2  0  0  3  0  0  0  0  0  0
  184.7980  178.4440  140.0420 C   0  0  0  0  0  2  0  0  0  0  0  0
  182.3500  177.3320  139.6470 C   0  0  1  0  0  3  0  0  0  0  0  0
  183.6780  177.4790  140.3820 C   0  0  2  0  0  3  0  0  0  0  0  0
  182.5510  178.4680  140.6180 C   0  0  2  0  0  3  0  0  0  0  0  0
  186.4790  178.1960  141.9790 C   0  0  0  0  0  2  0  0  0  0  0  0
  187.7580  178.1990  141.1590 C   0  0  0  0  0  1  0  0  0  0  0  0
  180.2120  178.6350  143.4340 C   0  0  0  0  0  1  0  0  0  0  0  0
  181.2440  179.3250  142.5620 C   0  0  0  0  0  2  0  0  0  0  0  0
  180.2680  179.0820  138.4030 C   0  0  2  0  0  3  0  0  0  0  0  0
  181.0240  180.3440  138.8280 C   0  0  2  0  0  3  0  0  0  0  0  0
  180.4210  180.9600  139.9260 O   0  0  0  0  0  1  0  0  0  0  0  0
  181.0980  181.3240  137.6730 C   0  0  0  0  0  1  0  0  0  0  0  0
  179.2050  178.5300  139.3620 C   0  0  0  0  0  2  0  0  0  0  0  0
  179.0460  177.0210  139.2700 C   0  0  0  0  0  2  0  0  0  0  0  0
  178.9320  176.4190  140.6590 C   0  0  0  0  0  2  0  0  0  0  0  0
  179.1340  174.9690  140.6070 C   0  0  0  0  0  0  0  0  0  0  0  0
  179.2980  173.7750  140.5640 C   0  0  0  0  0  3  0  0  0  0  0  0
  1  2  1  0  0  0  0
  1 29  1  1  0  0  0
  2 22  1  1  0  0  0
  3  7  1  6  0  0  0
  3  2  1  0  0  0  0
  4  7  1  0  0  0  0
  4  6  1  0  0  0  0
  6  5  1  6  0  0  0
  6  1  1  0  0  0  0
  8  9  1  0  0  0  0
  9 11  1  6  0  0  0
  9 15  1  0  0  0  0
  9 10  1  0  0  0  0
 12 13  1  0  0  0  0
 13 14  2  0  0  0  0
 14 16  1  0  0  0  0
 14 11  1  0  0  0  0
 15  3  1  0  0  0  0
 15 10  1  1  0  0  0
 16  8  2  0  0  0  0
 17 28  1  1  0  0  0
 17 18  1  0  0  0  0
 19 18  1  0  0  0  0
 20 25  1  1  0  0  0
 20 19  1  0  0  0  0
 21 23  1  0  0  0  0
 21 20  1  0  0  0  0
 22 23  1  0  0  0  0
 22 24  1  0  0  0  0
 23 24  1  0  0  0  0
 24 17  1  0  0  0  0
 26 25  1  0  0  0  0
 28 27  1  0  0  0  0
 29 30  1  0  0  0  0
 29 33  1  0  0  0  0
 30 31  1  0  0  0  0
 32 30  1  0  0  0  0
 34 33  1  0  0  0  0
 34 35  1  0  0  0  0
 36 35  1  0  0  0  0
 37 36  3  0  0  0  0
M  END
>  <MODEL>
7

>  <REMARK>
 VINA RESULT:      -3.8      1.159      3.101
  Name = 
  10 active torsions:
  status: ('A' for Active; 'I' for Inactive)
    1  A    between atoms: C_1  and  C_23
    2  A    between atoms: C_3  and  C_30
    3  A    between atoms: C_4  and  C_13
    4  A    between atoms: C_9  and  C_13
    5  A    between atoms: C_9  and  C_16
    6  A    between atoms: C_10  and  C_29
    7  A    between atoms: C_11  and  C_26
    8  A    between atoms: C_13  and  C_20
    9  A    between atoms: C_14  and  C_31
   10  A    between atoms: C_16  and  C_30
                            x       y       z     vdW  Elec       q    Type
                         _______ _______ _______ _____ _____    ______ ____

>  <TORSDO>
F 10

$$$$
=
 OpenBabel10262422473D

 37 41  0  0  1  0  0  0  0  0999 V2000
  191.7640  175.6130  138.1690 C   0  0  2  0  0  3  0  0  0  0  0  0
  190.5490  176.5170  138.4850 C   0  0  2  0  0  3  0  0  0  0  0  0
  190.6820  177.2330  139.8420 C   0  0  2  0  0  3  0  0  0  0  0  0
  193.1770  177.1030  139.6850 C   0  0  0  0  0  2  0  0  0  0  0  0
  194.2780  175.4110  138.2960 C   0  0  0  0  0  1  0  0  0  0  0  0
  193.1020  176.3680  138.3500 C   0  0  1  0  0  3  0  0  0  0  0  0
  191.9820  178.0300  139.8670 C   0  0  0  0  0  2  0  0  0  0  0  0
  190.4750  178.4880  142.5280 C   0  0  0  0  0  3  0  0  0  0  0  0
  190.5110  176.9760  142.3710 C   0  0  2  0  0  0  0  0  0  0  0  0
  189.2650  176.3980  141.7440 C   0  0  0  0  0  2  0  0  0  0  0  0
  190.9660  176.2570  143.6110 C   0  0  0  0  0  2  0  0  0  0  0  0
  192.0450  175.9850  146.2880 C   0  0  0  0  0  1  0  0  0  0  0  0
  191.7350  177.2690  145.7130 N   0  0  0  0  0  0  0  0  0  0  0  0
  191.2490  177.3990  144.5280 C   0  0  0  0  0  0  0  0  0  0  0  0
  190.6070  176.2620  141.0300 C   0  0  1  0  0  3  0  0  0  0  0  0
  190.9660  178.7470  143.9470 C   0  0  0  0  0  3  0  0  0  0  0  0
  187.0500  175.6970  136.8390 C   0  0  2  0  0  3  0  0  0  0  0  0
  185.8930  176.4820  137.1400 O   0  0  0  0  0  0  0  0  0  0  0  0
  186.1290  177.8630  136.8940 C   0  0  0  0  0  2  0  0  0  0  0  0
  186.6260  178.6180  138.1590 C   0  0  2  0  0  3  0  0  0  0  0  0
  188.0020  178.1680  138.7170 C   0  0  0  0  0  2  0  0  0  0  0  0
  189.2180  175.7600  138.3890 C   0  0  1  0  0  3  0  0  0  0  0  0
  188.0420  176.6520  138.7700 C   0  0  2  0  0  3  0  0  0  0  0  0
  188.3440  176.3530  137.3130 C   0  0  2  0  0  3  0  0  0  0  0  0
  185.5510  178.7710  139.2390 C   0  0  0  0  0  2  0  0  0  0  0  0
  184.1640  179.0060  138.6650 C   0  0  0  0  0  1  0  0  0  0  0  0
  186.2710  174.1980  135.0080 C   0  0  0  0  0  1  0  0  0  0  0  0
  187.1360  175.3960  135.3520 C   0  0  0  0  0  2  0  0  0  0  0  0
  191.6100  175.0110  136.7570 C   0  0  2  0  0  3  0  0  0  0  0  0
  191.6010  176.0090  135.5970 C   0  0  2  0  0  3  0  0  0  0  0  0
  190.5570  175.7530  134.7060 O   0  0  0  0  0  1  0  0  0  0  0  0
  192.9230  175.9610  134.8550 C   0  0  0  0  0  1  0  0  0  0  0  0
  190.7560  173.7440  136.6160 C   0  0  0  0  0  2  0  0  0  0  0  0
  191.3820  172.7020  135.7030 C   0  0  0  0  0  2  0  0  0  0  0  0
  190.4030  172.2980  134.6160 C   0  0  0  0  0  2  0  0  0  0  0  0
  189.1970  171.7110  135.2050 C   0  0  0  0  0  0  0  0  0  0  0  0
  188.2050  171.2260  135.6910 C   0  0  0  0  0  3  0  0  0  0  0  0
  1 29  1  6  0  0  0
  1  6  1  0  0  0  0
  1  2  1  0  0  0  0
  2 22  1  1  0  0  0
  2  3  1  0  0  0  0
  3  7  1  6  0  0  0
  3 15  1  0  0  0  0
  4  7  1  0  0  0  0
  6  5  1  1  0  0  0
  6  4  1  0  0  0  0
  8 16  2  0  0  0  0
  9 10  1  1  0  0  0
  9  8  1  0  0  0  0
  9 11  1  0  0  0  0
 11 14  1  0  0  0  0
 13 12  1  0  0  0  0
 14 13  2  0  0  0  0
 15 10  1  6  0  0  0
 15  9  1  0  0  0  0
 16 14  1  0  0  0  0
 17 28  1  6  0  0  0
 17 18  1  0  0  0  0
 17 24  1  0  0  0  0
 19 18  1  0  0  0  0
 19 20  1  0  0  0  0
 20 21  1  0  0  0  0
 20 25  1  1  0  0  0
 21 23  1  0  0  0  0
 22 23  1  0  0  0  0
 24 22  1  0  0  0  0
 24 23  1  0  0  0  0
 26 25  1  0  0  0  0
 27 28  1  0  0  0  0
 30 29  1  0  0  0  0
 31 30  1  0  0  0  0
 32 30  1  0  0  0  0
 33 29  1  0  0  0  0
 34 33  1  0  0  0  0
 35 36  1  0  0  0  0
 35 34  1  0  0  0  0
 36 37  3  0  0  0  0
M  END
>  <MODEL>
8

>  <REMARK>
 VINA RESULT:      -3.7      5.369     10.800
  Name = 
  10 active torsions:
  status: ('A' for Active; 'I' for Inactive)
    1  A    between atoms: C_1  and  C_23
    2  A    between atoms: C_3  and  C_30
    3  A    between atoms: C_4  and  C_13
    4  A    between atoms: C_9  and  C_13
    5  A    between atoms: C_9  and  C_16
    6  A    between atoms: C_10  and  C_29
    7  A    between atoms: C_11  and  C_26
    8  A    between atoms: C_13  and  C_20
    9  A    between atoms: C_14  and  C_31
   10  A    between atoms: C_16  and  C_30
                            x       y       z     vdW  Elec       q    Type
                         _______ _______ _______ _____ _____    ______ ____

>  <TORSDO>
F 10

$$$$
=
 OpenBabel10262422473D

 37 41  0  0  1  0  0  0  0  0999 V2000
  188.3560  177.1840  137.4510 C   0  0  2  0  0  3  0  0  0  0  0  0
  188.5460  175.6800  137.1400 C   0  0  2  0  0  3  0  0  0  0  0  0
  190.0230  175.2490  137.1830 C   0  0  2  0  0  3  0  0  0  0  0  0
  190.5380  177.1110  138.7740 C   0  0  0  0  0  2  0  0  0  0  0  0
  189.1210  179.1070  138.8980 C   0  0  0  0  0  1  0  0  0  0  0  0
  189.0920  177.5970  138.7470 C   0  0  1  0  0  3  0  0  0  0  0  0
  190.6140  175.6080  138.5420 C   0  0  0  0  0  2  0  0  0  0  0  0
  192.8240  174.2820  136.9490 C   0  0  0  0  0  3  0  0  0  0  0  0
  192.2730  175.3260  135.9890 C   0  0  2  0  0  0  0  0  0  0  0  0
  191.2390  174.7880  135.0300 C   0  0  0  0  0  2  0  0  0  0  0  0
  193.3410  176.1620  135.3380 C   0  0  0  0  0  2  0  0  0  0  0  0
  196.0170  177.1740  134.8730 C   0  0  0  0  0  1  0  0  0  0  0  0
  195.7580  176.0730  135.7640 N   0  0  0  0  0  0  0  0  0  0  0  0
  194.5740  175.6120  135.9720 C   0  0  0  0  0  0  0  0  0  0  0  0
  190.8500  175.8620  136.0420 C   0  0  1  0  0  3  0  0  0  0  0  0
  194.3340  174.4880  136.9280 C   0  0  0  0  0  3  0  0  0  0  0  0
  185.8150  173.8350  134.9570 C   0  0  2  0  0  3  0  0  0  0  0  0
  185.9500  172.4500  134.6250 O   0  0  0  0  0  0  0  0  0  0  0  0
  186.1240  171.6560  135.7910 C   0  0  0  0  0  2  0  0  0  0  0  0
  187.6220  171.4300  136.1430 C   0  0  2  0  0  3  0  0  0  0  0  0
  188.4260  172.7020  136.5180 C   0  0  0  0  0  2  0  0  0  0  0  0
  187.8910  175.2720  135.8140 C   0  0  1  0  0  3  0  0  0  0  0  0
  188.1200  173.7950  135.5110 C   0  0  2  0  0  3  0  0  0  0  0  0
  186.7850  174.2740  136.0510 C   0  0  2  0  0  3  0  0  0  0  0  0
  188.3490  170.5200  135.1500 C   0  0  0  0  0  2  0  0  0  0  0  0
  189.8150  170.8810  134.9780 C   0  0  0  0  0  1  0  0  0  0  0  0
  184.3360  174.5200  136.8410 C   0  0  0  0  0  1  0  0  0  0  0  0
  184.3880  174.1630  135.3670 C   0  0  0  0  0  2  0  0  0  0  0  0
  186.8510  177.5210  137.4890 C   0  0  2  0  0  3  0  0  0  0  0  0
  186.3020  178.2900  136.2860 C   0  0  2  0  0  3  0  0  0  0  0  0
  185.4950  177.4820  135.4830 O   0  0  0  0  0  1  0  0  0  0  0  0
  187.4420  178.8510  135.4570 C   0  0  0  0  0  1  0  0  0  0  0  0
  186.2210  177.7960  138.8610 C   0  0  0  0  0  2  0  0  0  0  0  0
  184.9880  178.6810  138.7830 C   0  0  0  0  0  2  0  0  0  0  0  0
  184.1690  178.5560  140.0560 C   0  0  0  0  0  2  0  0  0  0  0  0
  184.9650  178.9560  141.2180 C   0  0  0  0  0  0  0  0  0  0  0  0
  185.6190  179.2880  142.1760 C   0  0  0  0  0  3  0  0  0  0  0  0
  1 29  1  1  0  0  0
  1  6  1  0  0  0  0
  2 22  1  6  0  0  0
  2  3  1  0  0  0  0
  2  1  1  0  0  0  0
  3  7  1  1  0  0  0
  6  4  1  0  0  0  0
  6  5  1  6  0  0  0
  7  4  1  0  0  0  0
  9 10  1  6  0  0  0
  9 15  1  0  0  0  0
  9  8  1  0  0  0  0
 11 14  1  0  0  0  0
 11  9  1  0  0  0  0
 12 13  1  0  0  0  0
 13 14  2  0  0  0  0
 14 16  1  0  0  0  0
 15 10  1  6  0  0  0
 15  3  1  0  0  0  0
 16  8  2  0  0  0  0
 17 28  1  1  0  0  0
 17 24  1  0  0  0  0
 18 17  1  0  0  0  0
 18 19  1  0  0  0  0
 19 20  1  0  0  0  0
 20 25  1  6  0  0  0
 20 21  1  0  0  0  0
 22 24  1  0  0  0  0
 23 22  1  0  0  0  0
 23 24  1  0  0  0  0
 23 21  1  0  0  0  0
 26 25  1  0  0  0  0
 28 27  1  0  0  0  0
 29 33  1  0  0  0  0
 30 29  1  0  0  0  0
 31 30  1  0  0  0  0
 32 30  1  0  0  0  0
 34 33  1  0  0  0  0
 34 35  1  0  0  0  0
 35 36  1  0  0  0  0
 36 37  3  0  0  0  0
M  END
>  <MODEL>
9

>  <REMARK>
 VINA RESULT:      -3.6      5.418      8.974
  Name = 
  10 active torsions:
  status: ('A' for Active; 'I' for Inactive)
    1  A    between atoms: C_1  and  C_23
    2  A    between atoms: C_3  and  C_30
    3  A    between atoms: C_4  and  C_13
    4  A    between atoms: C_9  and  C_13
    5  A    between atoms: C_9  and  C_16
    6  A    between atoms: C_10  and  C_29
    7  A    between atoms: C_11  and  C_26
    8  A    between atoms: C_13  and  C_20
    9  A    between atoms: C_14  and  C_31
   10  A    between atoms: C_16  and  C_30
                            x       y       z     vdW  Elec       q    Type
                         _______ _______ _______ _____ _____    ______ ____

>  <TORSDO>
F 10

$$$$
