=
 OpenBabel10262419373D

 31 34  0  0  1  0  0  0  0  0999 V2000
  185.1420  178.5390  145.7530 C   0  0  0  0  0  0  0  0  0  0  0  0
  187.1840  178.2610  142.6200 C   0  0  0  0  0  0  0  0  0  0  0  0
  188.6020  178.1140  143.1890 C   0  0  1  0  0  3  0  0  0  0  0  0
  190.2090  176.7270  144.3410 C   0  0  0  0  0  2  0  0  0  0  0  0
  186.0760  178.4080  143.5020 C   0  0  0  0  0  0  0  0  0  0  0  0
  183.8590  178.6860  145.2250 C   0  0  0  0  0  3  0  0  0  0  0  0
  188.7270  177.0340  144.2500 C   0  0  0  0  0  2  0  0  0  0  0  0
  185.6420  178.5890  140.7340 C   0  0  0  0  0  0  0  0  0  0  0  0
  185.3410  178.5210  147.2250 C   0  0  0  0  0  1  0  0  0  0  0  0
  188.9490  177.3750  140.1280 C   0  0  0  0  0  2  0  0  0  0  0  0
  190.8360  177.2170  143.0450 C   0  0  2  0  0  3  0  0  0  0  0  0
  184.5660  178.6600  141.6120 C   0  0  0  0  0  3  0  0  0  0  0  0
  186.9490  178.4020  141.2170 C   0  0  0  0  0  0  0  0  0  0  0  0
  186.2390  178.4040  144.8990 C   0  0  0  0  0  3  0  0  0  0  0  0
  191.7450  178.2360  143.3300 O   0  0  0  0  0  1  0  0  0  0  0  0
  184.7710  178.5830  142.9820 C   0  0  0  0  0  0  0  0  0  0  0  0
  183.6750  178.7110  143.8410 C   0  0  0  0  0  3  0  0  0  0  0  0
  187.9950  178.4270  140.2870 O   0  0  0  0  0  0  0  0  0  0  0  0
  189.2550  176.7550  141.3430 O   0  0  0  0  0  0  0  0  0  0  0  0
  189.7050  177.7690  142.1970 C   0  0  1  0  0  3  0  0  0  0  0  0
  185.3670  178.6900  139.2670 C   0  0  0  0  0  2  0  0  0  0  0  0
  182.9700  177.2470  138.3350 C   0  0  0  0  0  1  0  0  0  0  0  0
  184.0290  180.6360  138.9870 O   0  0  0  0  0  0  0  0  0  0  0  0
  184.0590  179.3750  139.0240 C   0  0  0  0  0  0  0  0  0  0  0  0
  182.8520  178.6110  138.8380 N   0  0  0  0  0  0  0  0  0  0  0  0
  180.7280  179.5210  138.1400 C   0  0  0  0  0  2  0  0  0  0  0  0
  181.5430  179.1620  139.1260 C   0  0  0  0  0  0  0  0  0  0  0  0
  180.7420  178.2250  141.2950 C   0  0  0  0  0  1  0  0  0  0  0  0
  181.1020  179.4850  140.5290 C   0  0  2  0  0  3  0  0  0  0  0  0
  179.9680  180.4610  140.5610 C   0  0  0  0  0  3  0  0  0  0  0  0
  179.3740  180.7810  141.7090 C   0  0  0  0  0  2  0  0  0  0  0  0
  1  9  1  0  0  0  0
  2  3  1  0  0  0  0
  2  5  1  0  0  0  0
  3  7  1  1  0  0  0
  5 14  1  0  0  0  0
  6  1  1  0  0  0  0
  7  4  1  0  0  0  0
  8 13  1  0  0  0  0
  8 12  2  0  0  0  0
 10 18  1  0  0  0  0
 10 19  1  0  0  0  0
 11 15  1  1  0  0  0
 11  4  1  0  0  0  0
 12 16  1  0  0  0  0
 13  2  2  0  0  0  0
 14  1  2  0  0  0  0
 16  5  2  0  0  0  0
 16 17  1  0  0  0  0
 17  6  2  0  0  0  0
 18 13  1  0  0  0  0
 20 19  1  6  0  0  0
 20 11  1  0  0  0  0
 20  3  1  0  0  0  0
 21  8  1  0  0  0  0
 22 25  1  0  0  0  0
 23 24  2  0  0  0  0
 24 21  1  0  0  0  0
 25 24  1  0  0  0  0
 25 27  1  0  0  0  0
 26 27  2  0  0  0  0
 27 29  1  0  0  0  0
 29 30  1  0  0  0  0
 29 28  1  6  0  0  0
 30 31  2  0  0  0  0
M  END
>  <MODEL>
1

>  <REMARK>
 VINA RESULT:      -9.2      0.000      0.000
  Name = 
  5 active torsions:
  status: ('A' for Active; 'I' for Inactive)
    1  A    between atoms: C_1  and  C_24
    2  A    between atoms: C_9  and  C_23
    3  A    between atoms: C_15  and  C_23
    4  A    between atoms: C_19  and  N_22
    5  A    between atoms: C_19  and  C_24
                            x       y       z     vdW  Elec       q    Type
                         _______ _______ _______ _____ _____    ______ ____

>  <TORSDO>
F 5

$$$$
=
 OpenBabel10262419373D

 31 34  0  0  1  0  0  0  0  0999 V2000
  184.9250  178.9490  139.9220 C   0  0  0  0  0  0  0  0  0  0  0  0
  188.2070  177.4770  138.8630 C   0  0  0  0  0  0  0  0  0  0  0  0
  187.9000  177.0460  137.4220 C   0  0  1  0  0  3  0  0  0  0  0  0
  187.4760  177.7060  135.1380 C   0  0  0  0  0  2  0  0  0  0  0  0
  187.1930  178.0910  139.6520 C   0  0  0  0  0  0  0  0  0  0  0  0
  185.2100  179.3240  141.2350 C   0  0  0  0  0  3  0  0  0  0  0  0
  187.2750  178.1420  136.5750 C   0  0  0  0  0  2  0  0  0  0  0  0
  189.6730  177.5120  140.8360 C   0  0  0  0  0  0  0  0  0  0  0  0
  183.5760  179.2070  139.3540 C   0  0  0  0  0  1  0  0  0  0  0  0
  191.0530  176.7990  137.6170 C   0  0  0  0  0  2  0  0  0  0  0  0
  188.6090  176.6910  135.1440 C   0  0  2  0  0  3  0  0  0  0  0  0
  188.6920  178.1730  141.5670 C   0  0  0  0  0  3  0  0  0  0  0  0
  189.4450  177.1490  139.4970 C   0  0  0  0  0  0  0  0  0  0  0  0
  185.9060  178.3370  139.1400 C   0  0  0  0  0  3  0  0  0  0  0  0
  188.1230  175.4570  134.7140 O   0  0  0  0  0  1  0  0  0  0  0  0
  187.4590  178.4540  140.9940 C   0  0  0  0  0  0  0  0  0  0  0  0
  186.4750  179.0730  141.7720 C   0  0  0  0  0  3  0  0  0  0  0  0
  190.4400  176.4080  138.8470 O   0  0  0  0  0  0  0  0  0  0  0  0
  190.1550  177.4540  136.7670 O   0  0  0  0  0  0  0  0  0  0  0  0
  189.0800  176.5770  136.5820 C   0  0  1  0  0  3  0  0  0  0  0  0
  190.9790  177.2220  141.5040 C   0  0  0  0  0  2  0  0  0  0  0  0
  191.7630  178.7650  143.8920 C   0  0  0  0  0  1  0  0  0  0  0  0
  190.4420  175.5090  143.0640 O   0  0  0  0  0  0  0  0  0  0  0  0
  190.7560  176.7190  142.8970 C   0  0  0  0  0  0  0  0  0  0  0  0
  190.8950  177.6010  144.0270 N   0  0  0  0  0  0  0  0  0  0  0  0
  190.7410  176.5560  146.1980 C   0  0  0  0  0  2  0  0  0  0  0  0
  190.2080  177.3560  145.2800 C   0  0  0  0  0  0  0  0  0  0  0  0
  188.4960  177.8430  147.0280 C   0  0  0  0  0  1  0  0  0  0  0  0
  188.8180  177.8670  145.5440 C   0  0  2  0  0  3  0  0  0  0  0  0
  187.7770  177.1200  144.7690 C   0  0  0  0  0  3  0  0  0  0  0  0
  186.4810  177.3700  144.9500 C   0  0  0  0  0  2  0  0  0  0  0  0
  1  6  1  0  0  0  0
  2 13  2  0  0  0  0
  2  5  1  0  0  0  0
  3  7  1  6  0  0  0
  3  2  1  0  0  0  0
  4 11  1  0  0  0  0
  4  7  1  0  0  0  0
  5 16  2  0  0  0  0
  6 17  2  0  0  0  0
  8 21  1  0  0  0  0
  8 12  2  0  0  0  0
  9  1  1  0  0  0  0
 10 18  1  0  0  0  0
 11 15  1  1  0  0  0
 11 20  1  0  0  0  0
 13  8  1  0  0  0  0
 14  5  1  0  0  0  0
 14  1  2  0  0  0  0
 16 12  1  0  0  0  0
 16 17  1  0  0  0  0
 18 13  1  0  0  0  0
 19 10  1  0  0  0  0
 20 19  1  6  0  0  0
 20  3  1  0  0  0  0
 21 24  1  0  0  0  0
 22 25  1  0  0  0  0
 24 23  2  0  0  0  0
 24 25  1  0  0  0  0
 25 27  1  0  0  0  0
 27 29  1  0  0  0  0
 27 26  2  0  0  0  0
 29 28  1  1  0  0  0
 30 31  2  0  0  0  0
 30 29  1  0  0  0  0
M  END
>  <MODEL>
2

>  <REMARK>
 VINA RESULT:      -8.6      3.133      7.426
  Name = 
  5 active torsions:
  status: ('A' for Active; 'I' for Inactive)
    1  A    between atoms: C_1  and  C_24
    2  A    between atoms: C_9  and  C_23
    3  A    between atoms: C_15  and  C_23
    4  A    between atoms: C_19  and  N_22
    5  A    between atoms: C_19  and  C_24
                            x       y       z     vdW  Elec       q    Type
                         _______ _______ _______ _____ _____    ______ ____

>  <TORSDO>
F 5

$$$$
=
 OpenBabel10262419373D

 31 34  0  0  1  0  0  0  0  0999 V2000
  188.7980  177.1990  146.4500 C   0  0  0  0  0  0  0  0  0  0  0  0
  186.9590  178.0480  143.2940 C   0  0  0  0  0  0  0  0  0  0  0  0
  185.5060  178.0870  143.7860 C   0  0  1  0  0  3  0  0  0  0  0  0
  183.8110  179.2370  145.0650 C   0  0  0  0  0  2  0  0  0  0  0  0
  188.0100  177.7410  144.2050 C   0  0  0  0  0  0  0  0  0  0  0  0
  190.1140  177.1520  145.9890 C   0  0  0  0  0  3  0  0  0  0  0  0
  185.2990  178.9530  145.0170 C   0  0  0  0  0  2  0  0  0  0  0  0
  188.6240  178.0730  141.4860 C   0  0  0  0  0  0  0  0  0  0  0  0
  188.5050  176.9450  147.8850 C   0  0  0  0  0  1  0  0  0  0  0  0
  185.3480  179.3760  140.8970 C   0  0  0  0  0  2  0  0  0  0  0  0
  183.2750  178.9950  143.6640 C   0  0  2  0  0  3  0  0  0  0  0  0
  189.6420  177.8420  142.4040 C   0  0  0  0  0  3  0  0  0  0  0  0
  187.2860  178.1670  141.9080 C   0  0  0  0  0  0  0  0  0  0  0  0
  187.7580  177.4880  145.5660 C   0  0  0  0  0  3  0  0  0  0  0  0
  182.3630  177.9400  143.6960 O   0  0  0  0  0  1  0  0  0  0  0  0
  189.3480  177.6650  143.7490 C   0  0  0  0  0  0  0  0  0  0  0  0
  190.3880  177.3810  144.6400 C   0  0  0  0  0  3  0  0  0  0  0  0
  186.3020  178.3140  140.9230 O   0  0  0  0  0  0  0  0  0  0  0  0
  184.9560  179.7620  142.1830 O   0  0  0  0  0  0  0  0  0  0  0  0
  184.4650  178.6080  142.8050 C   0  0  1  0  0  3  0  0  0  0  0  0
  188.9940  178.2430  140.0460 C   0  0  0  0  0  2  0  0  0  0  0  0
  187.7480  176.9470  137.7090 C   0  0  0  0  0  1  0  0  0  0  0  0
  190.3250  176.2760  140.1450 O   0  0  0  0  0  0  0  0  0  0  0  0
  189.4970  176.9540  139.4770 C   0  0  0  0  0  0  0  0  0  0  0  0
  189.0490  176.4940  138.1880 N   0  0  0  0  0  0  0  0  0  0  0  0
  189.5200  174.3140  137.2650 C   0  0  0  0  0  2  0  0  0  0  0  0
  189.8450  175.5980  137.3730 C   0  0  0  0  0  0  0  0  0  0  0  0
  191.1600  175.6960  135.2560 C   0  0  0  0  0  1  0  0  0  0  0  0
  191.1380  176.0320  136.7360 C   0  0  2  0  0  3  0  0  0  0  0  0
  192.3360  175.4550  137.4230 C   0  0  0  0  0  3  0  0  0  0  0  0
  193.1800  176.2360  138.0950 C   0  0  0  0  0  2  0  0  0  0  0  0
  1  9  1  0  0  0  0
  2  3  1  0  0  0  0
  2  5  1  0  0  0  0
  3  7  1  1  0  0  0
  5 14  1  0  0  0  0
  6  1  1  0  0  0  0
  7  4  1  0  0  0  0
  8 13  1  0  0  0  0
  8 12  2  0  0  0  0
 10 18  1  0  0  0  0
 10 19  1  0  0  0  0
 11 15  1  1  0  0  0
 11  4  1  0  0  0  0
 12 16  1  0  0  0  0
 13  2  2  0  0  0  0
 14  1  2  0  0  0  0
 16  5  2  0  0  0  0
 16 17  1  0  0  0  0
 17  6  2  0  0  0  0
 18 13  1  0  0  0  0
 20 19  1  1  0  0  0
 20 11  1  0  0  0  0
 20  3  1  0  0  0  0
 21  8  1  0  0  0  0
 22 25  1  0  0  0  0
 24 21  1  0  0  0  0
 24 23  2  0  0  0  0
 25 24  1  0  0  0  0
 26 27  2  0  0  0  0
 27 25  1  0  0  0  0
 29 28  1  6  0  0  0
 29 27  1  0  0  0  0
 29 30  1  0  0  0  0
 30 31  2  0  0  0  0
M  END
>  <MODEL>
3

>  <REMARK>
 VINA RESULT:      -8.5      2.891      7.057
  Name = 
  5 active torsions:
  status: ('A' for Active; 'I' for Inactive)
    1  A    between atoms: C_1  and  C_24
    2  A    between atoms: C_9  and  C_23
    3  A    between atoms: C_15  and  C_23
    4  A    between atoms: C_19  and  N_22
    5  A    between atoms: C_19  and  C_24
                            x       y       z     vdW  Elec       q    Type
                         _______ _______ _______ _____ _____    ______ ____

>  <TORSDO>
F 5

$$$$
=
 OpenBabel10262419373D

 31 34  0  0  1  0  0  0  0  0999 V2000
  184.9750  178.4240  145.2140 C   0  0  0  0  0  0  0  0  0  0  0  0
  186.9460  178.2630  142.0270 C   0  0  0  0  0  0  0  0  0  0  0  0
  188.3650  178.0090  142.5560 C   0  0  1  0  0  3  0  0  0  0  0  0
  189.9200  176.4700  143.5780 C   0  0  0  0  0  2  0  0  0  0  0  0
  185.8620  178.4020  142.9410 C   0  0  0  0  0  0  0  0  0  0  0  0
  183.6920  178.6680  144.7240 C   0  0  0  0  0  3  0  0  0  0  0  0
  188.4540  176.8530  143.5380 C   0  0  0  0  0  2  0  0  0  0  0  0
  185.3890  178.7930  140.2010 C   0  0  0  0  0  0  0  0  0  0  0  0
  185.1980  178.2950  146.6770 C   0  0  0  0  0  1  0  0  0  0  0  0
  188.6210  177.4660  139.4450 C   0  0  0  0  0  2  0  0  0  0  0  0
  190.5480  177.0160  142.3060 C   0  0  2  0  0  3  0  0  0  0  0  0
  184.3340  178.8570  141.1040 C   0  0  0  0  0  3  0  0  0  0  0  0
  186.6940  178.5110  140.6430 C   0  0  0  0  0  0  0  0  0  0  0  0
  186.0480  178.2950  144.3310 C   0  0  0  0  0  3  0  0  0  0  0  0
  191.5110  177.9680  142.6390 O   0  0  0  0  0  1  0  0  0  0  0  0
  184.5580  178.6760  142.4610 C   0  0  0  0  0  0  0  0  0  0  0  0
  183.4850  178.7980  143.3490 C   0  0  0  0  0  3  0  0  0  0  0  0
  187.7230  178.5490  139.6950 O   0  0  0  0  0  0  0  0  0  0  0  0
  188.9170  176.7490  140.6100 O   0  0  0  0  0  0  0  0  0  0  0  0
  189.4310  177.6790  141.5210 C   0  0  1  0  0  3  0  0  0  0  0  0
  185.0940  179.0090  138.7500 C   0  0  0  0  0  2  0  0  0  0  0  0
  186.4490  178.1400  136.2790 C   0  0  0  0  0  1  0  0  0  0  0  0
  183.7610  177.0650  138.4350 O   0  0  0  0  0  0  0  0  0  0  0  0
  184.7870  177.7070  138.0780 C   0  0  0  0  0  0  0  0  0  0  0  0
  185.6470  177.1920  137.0440 N   0  0  0  0  0  0  0  0  0  0  0  0
  184.7310  175.1640  136.1090 C   0  0  0  0  0  2  0  0  0  0  0  0
  185.7240  175.7770  136.7440 C   0  0  0  0  0  0  0  0  0  0  0  0
  188.1360  175.1860  136.5030 C   0  0  0  0  0  1  0  0  0  0  0  0
  186.8450  174.9110  137.2540 C   0  0  2  0  0  3  0  0  0  0  0  0
  186.5100  173.4530  137.2060 C   0  0  0  0  0  3  0  0  0  0  0  0
  187.4660  172.5300  137.2830 C   0  0  0  0  0  2  0  0  0  0  0  0
  1  9  1  0  0  0  0
  2  3  1  0  0  0  0
  2  5  1  0  0  0  0
  3  7  1  1  0  0  0
  5 14  1  0  0  0  0
  6  1  1  0  0  0  0
  7  4  1  0  0  0  0
  8 13  1  0  0  0  0
  8 12  2  0  0  0  0
 10 18  1  0  0  0  0
 10 19  1  0  0  0  0
 11 15  1  1  0  0  0
 11  4  1  0  0  0  0
 12 16  1  0  0  0  0
 13  2  2  0  0  0  0
 14  1  2  0  0  0  0
 16  5  2  0  0  0  0
 16 17  1  0  0  0  0
 17  6  2  0  0  0  0
 18 13  1  0  0  0  0
 20 19  1  6  0  0  0
 20 11  1  0  0  0  0
 20  3  1  0  0  0  0
 21  8  1  0  0  0  0
 22 25  1  0  0  0  0
 24 23  2  0  0  0  0
 24 21  1  0  0  0  0
 25 24  1  0  0  0  0
 26 27  2  0  0  0  0
 27 25  1  0  0  0  0
 27 29  1  0  0  0  0
 29 28  1  6  0  0  0
 30 29  1  0  0  0  0
 30 31  2  0  0  0  0
M  END
>  <MODEL>
4

>  <REMARK>
 VINA RESULT:      -8.3      2.362      4.169
  Name = 
  5 active torsions:
  status: ('A' for Active; 'I' for Inactive)
    1  A    between atoms: C_1  and  C_24
    2  A    between atoms: C_9  and  C_23
    3  A    between atoms: C_15  and  C_23
    4  A    between atoms: C_19  and  N_22
    5  A    between atoms: C_19  and  C_24
                            x       y       z     vdW  Elec       q    Type
                         _______ _______ _______ _____ _____    ______ ____

>  <TORSDO>
F 5

$$$$
=
 OpenBabel10262419373D

 31 34  0  0  1  0  0  0  0  0999 V2000
  185.0400  178.5220  145.5120 C   0  0  0  0  0  0  0  0  0  0  0  0
  186.8820  178.3360  142.2510 C   0  0  0  0  0  0  0  0  0  0  0  0
  188.3220  178.0910  142.7250 C   0  0  1  0  0  3  0  0  0  0  0  0
  189.9210  176.5660  143.6980 C   0  0  0  0  0  2  0  0  0  0  0  0
  185.8350  178.4820  143.2060 C   0  0  0  0  0  0  0  0  0  0  0  0
  183.7370  178.7590  145.0710 C   0  0  0  0  0  3  0  0  0  0  0  0
  188.4540  176.9450  143.7140 C   0  0  0  0  0  2  0  0  0  0  0  0
  185.2520  178.8460  140.4830 C   0  0  0  0  0  0  0  0  0  0  0  0
  185.3210  178.4080  146.9670 C   0  0  0  0  0  1  0  0  0  0  0  0
  188.4550  177.5190  139.6120 C   0  0  0  0  0  2  0  0  0  0  0  0
  190.4970  177.1010  142.3970 C   0  0  2  0  0  3  0  0  0  0  0  0
  184.2330  178.9150  141.4270 C   0  0  0  0  0  3  0  0  0  0  0  0
  186.5740  178.5710  140.8760 C   0  0  0  0  0  0  0  0  0  0  0  0
  186.0770  178.3880  144.5880 C   0  0  0  0  0  3  0  0  0  0  0  0
  191.4690  178.0590  142.6830 O   0  0  0  0  0  1  0  0  0  0  0  0
  184.5130  178.7480  142.7760 C   0  0  0  0  0  0  0  0  0  0  0  0
  183.4750  178.8750  143.7050 C   0  0  0  0  0  3  0  0  0  0  0  0
  187.5650  178.6020  139.8870 O   0  0  0  0  0  0  0  0  0  0  0  0
  188.8000  176.8150  140.7700 O   0  0  0  0  0  0  0  0  0  0  0  0
  189.3470  177.7540  141.6510 C   0  0  1  0  0  3  0  0  0  0  0  0
  184.8990  179.0460  139.0440 C   0  0  0  0  0  2  0  0  0  0  0  0
  182.2440  180.2720  138.6660 C   0  0  0  0  0  1  0  0  0  0  0  0
  183.7400  176.9890  138.7700 O   0  0  0  0  0  0  0  0  0  0  0  0
  183.6870  178.2460  138.6830 C   0  0  0  0  0  0  0  0  0  0  0  0
  182.4810  178.8970  138.2410 N   0  0  0  0  0  0  0  0  0  0  0  0
  181.5170  178.3940  136.0850 C   0  0  0  0  0  2  0  0  0  0  0  0
  181.5090  178.2240  137.4040 C   0  0  0  0  0  0  0  0  0  0  0  0
  180.2910  177.5950  139.4880 C   0  0  0  0  0  1  0  0  0  0  0  0
  180.3700  177.4260  137.9820 C   0  0  2  0  0  3  0  0  0  0  0  0
  180.4450  175.9760  137.6190 C   0  0  0  0  0  3  0  0  0  0  0  0
  180.7870  175.0620  138.5250 C   0  0  0  0  0  2  0  0  0  0  0  0
  1  9  1  0  0  0  0
  2  3  1  0  0  0  0
  2  5  1  0  0  0  0
  3  7  1  1  0  0  0
  4  7  1  0  0  0  0
  5 14  1  0  0  0  0
  6  1  1  0  0  0  0
  8 13  1  0  0  0  0
  8 12  2  0  0  0  0
 10 18  1  0  0  0  0
 10 19  1  0  0  0  0
 11 15  1  1  0  0  0
 11  4  1  0  0  0  0
 12 16  1  0  0  0  0
 13  2  2  0  0  0  0
 14  1  2  0  0  0  0
 16  5  2  0  0  0  0
 16 17  1  0  0  0  0
 17  6  2  0  0  0  0
 18 13  1  0  0  0  0
 20 19  1  6  0  0  0
 20 11  1  0  0  0  0
 20  3  1  0  0  0  0
 21  8  1  0  0  0  0
 24 23  2  0  0  0  0
 24 21  1  0  0  0  0
 25 22  1  0  0  0  0
 25 24  1  0  0  0  0
 26 27  2  0  0  0  0
 27 29  1  0  0  0  0
 27 25  1  0  0  0  0
 29 28  1  1  0  0  0
 30 29  1  0  0  0  0
 30 31  2  0  0  0  0
M  END
>  <MODEL>
5

>  <REMARK>
 VINA RESULT:      -8.3      1.407      2.052
  Name = 
  5 active torsions:
  status: ('A' for Active; 'I' for Inactive)
    1  A    between atoms: C_1  and  C_24
    2  A    between atoms: C_9  and  C_23
    3  A    between atoms: C_15  and  C_23
    4  A    between atoms: C_19  and  N_22
    5  A    between atoms: C_19  and  C_24
                            x       y       z     vdW  Elec       q    Type
                         _______ _______ _______ _____ _____    ______ ____

>  <TORSDO>
F 5

$$$$
=
 OpenBabel10262419373D

 31 34  0  0  1  0  0  0  0  0999 V2000
  182.2050  178.7860  143.7950 C   0  0  0  0  0  0  0  0  0  0  0  0
  184.6820  178.3650  141.0110 C   0  0  0  0  0  0  0  0  0  0  0  0
  183.7570  178.1080  139.8130 C   0  0  1  0  0  3  0  0  0  0  0  0
  182.1580  178.9980  138.2370 C   0  0  0  0  0  2  0  0  0  0  0  0
  184.1260  178.5730  142.3050 C   0  0  0  0  0  0  0  0  0  0  0  0
  183.0560  179.0040  144.8800 C   0  0  0  0  0  3  0  0  0  0  0  0
  182.6470  179.1350  139.6650 C   0  0  0  0  0  2  0  0  0  0  0  0
  186.9180  178.4460  142.0290 C   0  0  0  0  0  0  0  0  0  0  0  0
  180.7330  178.7880  143.9950 C   0  0  0  0  0  1  0  0  0  0  0  0
  186.5810  178.6240  138.4750 C   0  0  0  0  0  2  0  0  0  0  0  0
  183.2690  178.3100  137.4590 C   0  0  2  0  0  3  0  0  0  0  0  0
  186.3540  178.7170  143.2710 C   0  0  0  0  0  3  0  0  0  0  0  0
  186.1020  178.2580  140.8990 C   0  0  0  0  0  0  0  0  0  0  0  0
  182.7360  178.5700  142.5220 C   0  0  0  0  0  3  0  0  0  0  0  0
  182.8100  177.0790  136.9930 O   0  0  0  0  0  1  0  0  0  0  0  0
  184.9760  178.7710  143.4200 C   0  0  0  0  0  0  0  0  0  0  0  0
  184.4390  178.9930  144.6930 C   0  0  0  0  0  3  0  0  0  0  0  0
  186.7280  177.9010  139.6980 O   0  0  0  0  0  0  0  0  0  0  0  0
  185.2980  179.1630  138.3330 O   0  0  0  0  0  0  0  0  0  0  0  0
  184.4090  178.0870  138.4370 C   0  0  1  0  0  3  0  0  0  0  0  0
  188.4080  178.3870  141.9250 C   0  0  0  0  0  2  0  0  0  0  0  0
  190.6960  179.1860  143.6050 C   0  0  0  0  0  1  0  0  0  0  0  0
  188.6250  176.2880  143.0210 O   0  0  0  0  0  0  0  0  0  0  0  0
  188.9740  177.5000  142.9890 C   0  0  0  0  0  0  0  0  0  0  0  0
  189.8990  178.0190  143.9640 N   0  0  0  0  0  0  0  0  0  0  0  0
  189.1010  177.5140  146.1860 C   0  0  0  0  0  2  0  0  0  0  0  0
  190.0590  177.4110  145.2700 C   0  0  0  0  0  0  0  0  0  0  0  0
  191.7370  175.6360  144.7650 C   0  0  0  0  0  1  0  0  0  0  0  0
  191.3490  176.7670  145.7000 C   0  0  2  0  0  3  0  0  0  0  0  0
  191.3040  176.2850  147.1160 C   0  0  0  0  0  3  0  0  0  0  0  0
  192.3330  175.6270  147.6470 C   0  0  0  0  0  2  0  0  0  0  0  0
  1  9  1  0  0  0  0
  1  6  1  0  0  0  0
  2  5  1  0  0  0  0
  3  7  1  6  0  0  0
  3  2  1  0  0  0  0
  4  7  1  0  0  0  0
  5 14  1  0  0  0  0
  5 16  2  0  0  0  0
  8 12  2  0  0  0  0
 10 18  1  0  0  0  0
 11 15  1  1  0  0  0
 11  4  1  0  0  0  0
 11 20  1  0  0  0  0
 12 16  1  0  0  0  0
 13  2  2  0  0  0  0
 13  8  1  0  0  0  0
 14  1  2  0  0  0  0
 16 17  1  0  0  0  0
 17  6  2  0  0  0  0
 18 13  1  0  0  0  0
 19 10  1  0  0  0  0
 20 19  1  1  0  0  0
 20  3  1  0  0  0  0
 21  8  1  0  0  0  0
 21 24  1  0  0  0  0
 22 25  1  0  0  0  0
 24 23  2  0  0  0  0
 24 25  1  0  0  0  0
 25 27  1  0  0  0  0
 27 29  1  0  0  0  0
 27 26  2  0  0  0  0
 29 28  1  6  0  0  0
 29 30  1  0  0  0  0
 30 31  2  0  0  0  0
M  END
>  <MODEL>
6

>  <REMARK>
 VINA RESULT:      -8.1      2.385      7.668
  Name = 
  5 active torsions:
  status: ('A' for Active; 'I' for Inactive)
    1  A    between atoms: C_1  and  C_24
    2  A    between atoms: C_9  and  C_23
    3  A    between atoms: C_15  and  C_23
    4  A    between atoms: C_19  and  N_22
    5  A    between atoms: C_19  and  C_24
                            x       y       z     vdW  Elec       q    Type
                         _______ _______ _______ _____ _____    ______ ____

>  <TORSDO>
F 5

$$$$
=
 OpenBabel10262419373D

 31 34  0  0  1  0  0  0  0  0999 V2000
  188.8970  177.1790  146.3550 C   0  0  0  0  0  0  0  0  0  0  0  0
  186.9810  178.0410  143.2480 C   0  0  0  0  0  0  0  0  0  0  0  0
  185.5380  178.0590  143.7710 C   0  0  1  0  0  3  0  0  0  0  0  0
  183.8590  179.1770  145.0990 C   0  0  0  0  0  2  0  0  0  0  0  0
  188.0540  177.7370  144.1330 C   0  0  0  0  0  0  0  0  0  0  0  0
  190.2030  177.1510  145.8650 C   0  0  0  0  0  3  0  0  0  0  0  0
  185.3490  178.9100  145.0160 C   0  0  0  0  0  2  0  0  0  0  0  0
  188.6070  178.1050  141.4050 C   0  0  0  0  0  0  0  0  0  0  0  0
  188.6370  176.9060  147.7920 C   0  0  0  0  0  1  0  0  0  0  0  0
  185.3050  179.3780  140.9000 C   0  0  0  0  0  2  0  0  0  0  0  0
  183.2950  178.9440  143.7060 C   0  0  2  0  0  3  0  0  0  0  0  0
  189.6460  177.8740  142.2990 C   0  0  0  0  0  3  0  0  0  0  0  0
  187.2770  178.1790  141.8570 C   0  0  0  0  0  0  0  0  0  0  0  0
  187.8340  177.4660  145.4960 C   0  0  0  0  0  3  0  0  0  0  0  0
  182.3960  177.8790  143.7460 O   0  0  0  0  0  1  0  0  0  0  0  0
  189.3830  177.6800  143.6480 C   0  0  0  0  0  0  0  0  0  0  0  0
  190.4450  177.3980  144.5130 C   0  0  0  0  0  3  0  0  0  0  0  0
  186.2710  178.3260  140.8940 O   0  0  0  0  0  0  0  0  0  0  0  0
  184.9360  179.7460  142.1990 O   0  0  0  0  0  0  0  0  0  0  0  0
  184.4710  178.5800  142.8180 C   0  0  1  0  0  3  0  0  0  0  0  0
  188.9430  178.2940  139.9600 C   0  0  0  0  0  2  0  0  0  0  0  0
  187.6240  176.9730  137.6770 C   0  0  0  0  0  1  0  0  0  0  0  0
  190.3210  176.3570  139.9960 O   0  0  0  0  0  0  0  0  0  0  0  0
  189.4500  177.0170  139.3670 C   0  0  0  0  0  0  0  0  0  0  0  0
  188.9550  176.5490  138.0970 N   0  0  0  0  0  0  0  0  0  0  0  0
  190.6180  176.1710  136.3880 C   0  0  0  0  0  2  0  0  0  0  0  0
  189.7340  175.6720  137.2470 C   0  0  0  0  0  0  0  0  0  0  0  0
  190.7300  173.4430  136.7360 C   0  0  0  0  0  1  0  0  0  0  0  0
  189.4870  174.1880  137.1860 C   0  0  2  0  0  3  0  0  0  0  0  0
  188.3200  173.8370  136.3180 C   0  0  0  0  0  3  0  0  0  0  0  0
  187.2300  173.2720  136.8330 C   0  0  0  0  0  2  0  0  0  0  0  0
  1  9  1  0  0  0  0
  2  3  1  0  0  0  0
  2  5  1  0  0  0  0
  3  7  1  1  0  0  0
  5 14  1  0  0  0  0
  6  1  1  0  0  0  0
  7  4  1  0  0  0  0
  8 13  1  0  0  0  0
  8 12  2  0  0  0  0
 10 19  1  0  0  0  0
 11 15  1  1  0  0  0
 11  4  1  0  0  0  0
 12 16  1  0  0  0  0
 13  2  2  0  0  0  0
 14  1  2  0  0  0  0
 16  5  2  0  0  0  0
 16 17  1  0  0  0  0
 17  6  2  0  0  0  0
 18 10  1  0  0  0  0
 18 13  1  0  0  0  0
 20 19  1  1  0  0  0
 20 11  1  0  0  0  0
 20  3  1  0  0  0  0
 21  8  1  0  0  0  0
 22 25  1  0  0  0  0
 24 21  1  0  0  0  0
 24 23  2  0  0  0  0
 25 24  1  0  0  0  0
 26 27  2  0  0  0  0
 27 25  1  0  0  0  0
 29 28  1  6  0  0  0
 29 27  1  0  0  0  0
 30 31  2  0  0  0  0
 30 29  1  0  0  0  0
M  END
>  <MODEL>
7

>  <REMARK>
 VINA RESULT:      -8.1      2.955      6.673
  Name = 
  5 active torsions:
  status: ('A' for Active; 'I' for Inactive)
    1  A    between atoms: C_1  and  C_24
    2  A    between atoms: C_9  and  C_23
    3  A    between atoms: C_15  and  C_23
    4  A    between atoms: C_19  and  N_22
    5  A    between atoms: C_19  and  C_24
                            x       y       z     vdW  Elec       q    Type
                         _______ _______ _______ _____ _____    ______ ____

>  <TORSDO>
F 5

$$$$
=
 OpenBabel10262419373D

 31 34  0  0  1  0  0  0  0  0999 V2000
  186.4240  177.9850  146.1810 C   0  0  0  0  0  0  0  0  0  0  0  0
  187.3070  178.1450  142.5400 C   0  0  0  0  0  0  0  0  0  0  0  0
  188.7980  177.7830  142.5680 C   0  0  1  0  0  3  0  0  0  0  0  0
  190.4830  176.0840  142.8870 C   0  0  0  0  0  2  0  0  0  0  0  0
  186.5680  178.2090  143.7550 C   0  0  0  0  0  0  0  0  0  0  0  0
  185.0730  178.3290  146.1450 C   0  0  0  0  0  3  0  0  0  0  0  0
  189.1060  176.5160  143.3480 C   0  0  0  0  0  2  0  0  0  0  0  0
  185.3040  178.9410  141.3570 C   0  0  0  0  0  0  0  0  0  0  0  0
  187.0760  177.6750  147.4800 C   0  0  0  0  0  1  0  0  0  0  0  0
  188.0500  177.6100  139.4950 C   0  0  0  0  0  2  0  0  0  0  0  0
  190.7270  176.7580  141.5460 C   0  0  2  0  0  3  0  0  0  0  0  0
  184.5840  178.9300  142.5460 C   0  0  0  0  0  3  0  0  0  0  0  0
  186.6590  178.5650  141.3370 C   0  0  0  0  0  0  0  0  0  0  0  0
  187.1640  177.9290  144.9980 C   0  0  0  0  0  3  0  0  0  0  0  0
  191.8080  177.6310  141.6590 O   0  0  0  0  0  1  0  0  0  0  0  0
  185.2010  178.5800  143.7380 C   0  0  0  0  0  0  0  0  0  0  0  0
  184.4630  178.6290  144.9250 C   0  0  0  0  0  3  0  0  0  0  0  0
  187.3490  178.6840  140.1240 O   0  0  0  0  0  0  0  0  0  0  0  0
  188.6400  176.7500  140.4270 O   0  0  0  0  0  0  0  0  0  0  0  0
  189.4710  177.5460  141.2230 C   0  0  1  0  0  3  0  0  0  0  0  0
  184.5940  179.3390  140.1020 C   0  0  0  0  0  2  0  0  0  0  0  0
  182.2640  180.0910  138.4580 C   0  0  0  0  0  1  0  0  0  0  0  0
  183.4010  177.3140  140.4640 O   0  0  0  0  0  0  0  0  0  0  0  0
  183.4760  178.3880  139.8070 C   0  0  0  0  0  0  0  0  0  0  0  0
  182.5030  178.6910  138.7890 N   0  0  0  0  0  0  0  0  0  0  0  0
  180.5140  177.3610  138.4660 C   0  0  0  0  0  2  0  0  0  0  0  0
  181.7600  177.6520  138.1050 C   0  0  0  0  0  0  0  0  0  0  0  0
  182.9580  175.5030  137.6920 C   0  0  0  0  0  1  0  0  0  0  0  0
  182.3940  176.7660  137.0670 C   0  0  2  0  0  3  0  0  0  0  0  0
  183.4480  177.4760  136.2750 C   0  0  0  0  0  3  0  0  0  0  0  0
  184.7130  177.0630  136.2980 C   0  0  0  0  0  2  0  0  0  0  0  0
  1  9  1  0  0  0  0
  2  3  1  0  0  0  0
  2  5  1  0  0  0  0
  3  7  1  1  0  0  0
  4  7  1  0  0  0  0
  5 14  1  0  0  0  0
  6  1  1  0  0  0  0
  8 12  2  0  0  0  0
 10 18  1  0  0  0  0
 10 19  1  0  0  0  0
 11 15  1  1  0  0  0
 11  4  1  0  0  0  0
 12 16  1  0  0  0  0
 13  8  1  0  0  0  0
 13  2  2  0  0  0  0
 14  1  2  0  0  0  0
 16  5  2  0  0  0  0
 16 17  1  0  0  0  0
 17  6  2  0  0  0  0
 18 13  1  0  0  0  0
 20 19  1  6  0  0  0
 20 11  1  0  0  0  0
 20  3  1  0  0  0  0
 21  8  1  0  0  0  0
 22 25  1  0  0  0  0
 24 21  1  0  0  0  0
 24 23  2  0  0  0  0
 25 24  1  0  0  0  0
 27 26  2  0  0  0  0
 27 25  1  0  0  0  0
 29 28  1  1  0  0  0
 29 27  1  0  0  0  0
 30 31  2  0  0  0  0
 30 29  1  0  0  0  0
M  END
>  <MODEL>
8

>  <REMARK>
 VINA RESULT:      -8.0      1.673      2.662
  Name = 
  5 active torsions:
  status: ('A' for Active; 'I' for Inactive)
    1  A    between atoms: C_1  and  C_24
    2  A    between atoms: C_9  and  C_23
    3  A    between atoms: C_15  and  C_23
    4  A    between atoms: C_19  and  N_22
    5  A    between atoms: C_19  and  C_24
                            x       y       z     vdW  Elec       q    Type
                         _______ _______ _______ _____ _____    ______ ____

>  <TORSDO>
F 5

$$$$
=
 OpenBabel10262419373D

 31 34  0  0  1  0  0  0  0  0999 V2000
  189.7860  177.5030  141.0160 C   0  0  0  0  0  0  0  0  0  0  0  0
  187.1320  177.8810  143.6380 C   0  0  0  0  0  0  0  0  0  0  0  0
  187.8690  177.3960  144.8940 C   0  0  1  0  0  3  0  0  0  0  0  0
  189.5590  177.8220  146.5640 C   0  0  0  0  0  2  0  0  0  0  0  0
  187.8010  177.8900  142.3800 C   0  0  0  0  0  0  0  0  0  0  0  0
  189.1030  177.9330  139.8780 C   0  0  0  0  0  3  0  0  0  0  0  0
  189.2180  178.0610  145.1070 C   0  0  0  0  0  2  0  0  0  0  0  0
  185.0820  178.5840  142.4780 C   0  0  0  0  0  0  0  0  0  0  0  0
  191.2050  177.0740  140.9110 C   0  0  0  0  0  1  0  0  0  0  0  0
  185.2410  178.7390  146.0450 C   0  0  0  0  0  2  0  0  0  0  0  0
  188.2520  177.5030  147.2730 C   0  0  2  0  0  3  0  0  0  0  0  0
  185.7730  178.6510  141.2730 C   0  0  0  0  0  3  0  0  0  0  0  0
  185.7380  178.1930  143.6590 C   0  0  0  0  0  0  0  0  0  0  0  0
  189.1400  177.4800  142.2530 C   0  0  0  0  0  3  0  0  0  0  0  0
  188.3050  176.2030  147.7740 O   0  0  0  0  0  1  0  0  0  0  0  0
  187.1140  178.2990  141.2120 C   0  0  0  0  0  0  0  0  0  0  0  0
  187.7670  178.3270  139.9760 C   0  0  0  0  0  3  0  0  0  0  0  0
  184.9640  178.0610  144.8180 O   0  0  0  0  0  0  0  0  0  0  0  0
  186.6140  178.8860  146.2660 O   0  0  0  0  0  0  0  0  0  0  0  0
  187.1580  177.5970  146.2250 C   0  0  1  0  0  3  0  0  0  0  0  0
  183.6340  178.9600  142.4860 C   0  0  0  0  0  2  0  0  0  0  0  0
  180.7920  179.4740  141.8890 C   0  0  0  0  0  1  0  0  0  0  0  0
  183.4310  177.2350  140.8630 O   0  0  0  0  0  0  0  0  0  0  0  0
  182.9000  178.2480  141.3940 C   0  0  0  0  0  0  0  0  0  0  0  0
  181.6090  178.7120  140.9520 N   0  0  0  0  0  0  0  0  0  0  0  0
  180.2300  177.4580  139.4180 C   0  0  0  0  0  2  0  0  0  0  0  0
  181.1090  178.4340  139.6210 C   0  0  0  0  0  0  0  0  0  0  0  0
  182.6660  178.2510  137.6800 C   0  0  0  0  0  1  0  0  0  0  0  0
  181.6550  179.1250  138.4000 C   0  0  2  0  0  3  0  0  0  0  0  0
  182.2490  180.4620  138.7160 C   0  0  0  0  0  3  0  0  0  0  0  0
  181.5550  181.5810  138.5190 C   0  0  0  0  0  2  0  0  0  0  0  0
  1 14  1  0  0  0  0
  2 13  2  0  0  0  0
  2  3  1  0  0  0  0
  3  7  1  1  0  0  0
  3 20  1  0  0  0  0
  4 11  1  0  0  0  0
  5  2  1  0  0  0  0
  6 17  1  0  0  0  0
  6  1  2  0  0  0  0
  7  4  1  0  0  0  0
  8 21  1  0  0  0  0
  8 13  1  0  0  0  0
  9  1  1  0  0  0  0
 10 19  1  0  0  0  0
 11 15  1  6  0  0  0
 12  8  2  0  0  0  0
 13 18  1  0  0  0  0
 14  5  2  0  0  0  0
 16 12  1  0  0  0  0
 16  5  1  0  0  0  0
 17 16  2  0  0  0  0
 18 10  1  0  0  0  0
 20 19  1  6  0  0  0
 20 11  1  0  0  0  0
 23 24  2  0  0  0  0
 24 21  1  0  0  0  0
 25 24  1  0  0  0  0
 25 22  1  0  0  0  0
 26 27  2  0  0  0  0
 27 25  1  0  0  0  0
 29 28  1  1  0  0  0
 29 30  1  0  0  0  0
 29 27  1  0  0  0  0
 31 30  2  0  0  0  0
M  END
>  <MODEL>
9

>  <REMARK>
 VINA RESULT:      -7.9      2.397      4.338
  Name = 
  5 active torsions:
  status: ('A' for Active; 'I' for Inactive)
    1  A    between atoms: C_1  and  C_24
    2  A    between atoms: C_9  and  C_23
    3  A    between atoms: C_15  and  C_23
    4  A    between atoms: C_19  and  N_22
    5  A    between atoms: C_19  and  C_24
                            x       y       z     vdW  Elec       q    Type
                         _______ _______ _______ _____ _____    ______ ____

>  <TORSDO>
F 5

$$$$
