=
 OpenBabel10252415013D

 34 39  0  0  1  0  0  0  0  0999 V2000
  184.4200  178.7090  144.2550 C   0  0  0  0  0  0  0  0  0  0  0  0
  184.4930  177.9680  141.9410 C   0  0  0  0  0  3  0  0  0  0  0  0
  186.4070  177.3430  143.4730 C   0  0  2  0  0  3  0  0  0  0  0  0
  188.6090  176.4600  142.6510 N   0  0  1  0  0  0  0  0  0  0  0  0
  182.5900  179.2260  142.7500 C   0  0  0  0  0  3  0  0  0  0  0  0
  183.2450  178.5540  141.7150 C   0  0  0  0  0  3  0  0  0  0  0  0
  187.8480  178.4240  141.6010 C   0  0  0  0  0  0  0  0  0  0  0  0
  185.1100  178.0680  143.1980 C   0  0  0  0  0  0  0  0  0  0  0  0
  189.5410  176.8050  141.5690 C   0  0  0  0  0  2  0  0  0  0  0  0
  183.1770  179.3020  144.0160 C   0  0  0  0  0  3  0  0  0  0  0  0
  187.1110  177.8150  144.7350 C   0  0  2  0  0  3  0  0  0  0  0  0
  185.0280  178.8400  145.6270 C   0  0  0  0  0  2  0  0  0  0  0  0
  187.1880  179.4380  141.4370 O   0  0  0  0  0  0  0  0  0  0  0  0
  189.1990  177.0050  143.8180 N   0  0  0  0  0  2  0  0  0  0  0  0
  188.2970  176.8840  144.9620 C   0  0  1  0  0  3  0  0  0  0  0  0
  189.2290  178.2330  141.1080 C   0  0  1  0  0  3  0  0  0  0  0  0
  187.3820  177.1960  142.2890 C   0  0  2  0  0  3  0  0  0  0  0  0
  186.1100  177.7920  145.8850 C   0  0  0  0  0  2  0  0  0  0  0  0
  191.0150  177.0700  147.6220 C   0  0  0  0  0  0  0  0  0  0  0  0
  190.3960  177.8770  148.5810 C   0  0  0  0  0  3  0  0  0  0  0  0
  189.0420  177.2230  146.2180 C   0  0  0  0  0  0  0  0  0  0  0  0
  189.1020  178.3550  148.3620 C   0  0  0  0  0  3  0  0  0  0  0  0
  190.3410  176.7420  146.4420 C   0  0  0  0  0  3  0  0  0  0  0  0
  188.4250  178.0270  147.1820 C   0  0  0  0  0  3  0  0  0  0  0  0
  192.2700  176.6070  147.8350 F   0  0  0  0  0  0  0  0  0  0  0  0
  189.3160  178.3390  139.5870 C   0  0  0  0  0  2  0  0  0  0  0  0
  188.3160  177.5770  138.9710 O   0  0  0  0  0  0  0  0  0  0  0  0
  185.5630  178.2550  138.6050 F   0  0  0  0  0  0  0  0  0  0  0  0
  187.8530  178.3690  137.9140 C   0  0  2  0  0  3  0  0  0  0  0  0
  186.4150  177.9860  137.5490 C   0  0  1  0  0  3  0  0  0  0  0  0
  187.5610  175.9350  135.9520 S   0  0  0  0  0  0  0  0  0  0  0  0
  188.2140  177.5770  135.5020 C   0  0  0  0  0  2  0  0  0  0  0  0
  188.8200  178.2610  136.7250 C   0  0  0  0  0  2  0  0  0  0  0  0
  186.2920  176.5130  137.1520 C   0  0  0  0  0  2  0  0  0  0  0  0
  1 12  1  0  0  0  0
  2  8  1  0  0  0  0
  3  8  1  6  0  0  0
  3 11  1  0  0  0  0
  4  9  1  6  0  0  0
  4 14  1  0  0  0  0
  5 10  2  0  0  0  0
  6  2  2  0  0  0  0
  6  5  1  0  0  0  0
  8  1  2  0  0  0  0
 10  1  1  0  0  0  0
 11 15  1  0  0  0  0
 11 18  1  1  0  0  0
 12 18  1  0  0  0  0
 13  7  2  0  0  0  0
 14 15  1  0  0  0  0
 15 21  1  1  0  0  0
 16 26  1  6  0  0  0
 16  9  1  0  0  0  0
 16  7  1  0  0  0  0
 17  7  1  1  0  0  0
 17  4  1  0  0  0  0
 17  3  1  0  0  0  0
 19 25  1  0  0  0  0
 19 20  1  0  0  0  0
 21 23  1  0  0  0  0
 21 24  2  0  0  0  0
 22 20  2  0  0  0  0
 23 19  2  0  0  0  0
 24 22  1  0  0  0  0
 27 26  1  0  0  0  0
 29 27  1  1  0  0  0
 30 29  1  0  0  0  0
 30 28  1  1  0  0  0
 31 34  1  0  0  0  0
 32 31  1  0  0  0  0
 32 33  1  0  0  0  0
 33 29  1  0  0  0  0
 34 30  1  0  0  0  0
M  END
>  <MODEL>
1

>  <REMARK>
 VINA RESULT:     -10.3      0.000      0.000
  Name = 
  4 active torsions:
  status: ('A' for Active; 'I' for Inactive)
    1  A    between atoms: O_3  and  C_13
    2  A    between atoms: O_3  and  C_17
    3  A    between atoms: C_12  and  C_28
    4  A    between atoms: C_17  and  C_29
                            x       y       z     vdW  Elec       q    Type
                         _______ _______ _______ _____ _____    ______ ____

>  <TORSDO>
F 4

$$$$
=
 OpenBabel10252415013D

 34 39  0  0  1  0  0  0  0  0999 V2000
  188.2120  177.3070  145.9600 C   0  0  0  0  0  0  0  0  0  0  0  0
  190.3910  177.6250  144.9300 C   0  0  0  0  0  3  0  0  0  0  0  0
  188.3310  178.3510  143.6520 C   0  0  2  0  0  3  0  0  0  0  0  0
  188.3400  178.8960  141.2020 N   0  0  1  0  0  0  0  0  0  0  0  0
  190.2290  176.6860  147.1540 C   0  0  0  0  0  3  0  0  0  0  0  0
  191.0070  177.1110  146.0740 C   0  0  0  0  0  3  0  0  0  0  0  0
  189.3380  176.8470  141.7890 C   0  0  0  0  0  0  0  0  0  0  0  0
  188.9920  177.6960  144.8440 C   0  0  0  0  0  0  0  0  0  0  0  0
  188.9200  178.2940  139.9940 C   0  0  0  0  0  2  0  0  0  0  0  0
  188.8370  176.7850  147.0960 C   0  0  0  0  0  3  0  0  0  0  0  0
  186.8460  178.0510  143.5420 C   0  0  2  0  0  3  0  0  0  0  0  0
  186.7070  177.3690  145.9290 C   0  0  0  0  0  2  0  0  0  0  0  0
  189.6120  175.8760  142.4780 O   0  0  0  0  0  0  0  0  0  0  0  0
  186.9750  178.5170  141.1700 N   0  0  0  0  0  2  0  0  0  0  0  0
  186.2980  178.9080  142.4060 C   0  0  1  0  0  3  0  0  0  0  0  0
  189.2760  176.8370  140.3110 C   0  0  1  0  0  3  0  0  0  0  0  0
  189.0520  178.2100  142.2980 C   0  0  2  0  0  3  0  0  0  0  0  0
  186.1880  178.3550  144.8830 C   0  0  0  0  0  2  0  0  0  0  0  0
  182.5600  178.7830  143.1230 C   0  0  0  0  0  0  0  0  0  0  0  0
  182.0610  178.3960  141.8760 C   0  0  0  0  0  3  0  0  0  0  0  0
  184.8190  178.7340  142.2360 C   0  0  0  0  0  0  0  0  0  0  0  0
  182.9380  178.1750  140.8100 C   0  0  0  0  0  3  0  0  0  0  0  0
  183.9360  178.9520  143.3050 C   0  0  0  0  0  3  0  0  0  0  0  0
  184.3150  178.3440  140.9900 C   0  0  0  0  0  3  0  0  0  0  0  0
  181.7100  178.9960  144.1560 F   0  0  0  0  0  0  0  0  0  0  0  0
  190.6150  176.4600  139.6820 C   0  0  0  0  0  2  0  0  0  0  0  0
  190.4400  175.5560  138.6270 O   0  0  0  0  0  0  0  0  0  0  0  0
  189.7280  174.9690  135.9220 F   0  0  0  0  0  0  0  0  0  0  0  0
  191.0520  176.1600  137.5230 C   0  0  2  0  0  3  0  0  0  0  0  0
  191.0310  175.2150  136.3170 C   0  0  1  0  0  3  0  0  0  0  0  0
  193.3840  174.0620  137.4130 S   0  0  0  0  0  0  0  0  0  0  0  0
  193.5730  175.8590  137.1650 C   0  0  0  0  0  2  0  0  0  0  0  0
  192.4690  176.6140  137.9020 C   0  0  0  0  0  2  0  0  0  0  0  0
  191.7390  173.8900  136.6090 C   0  0  0  0  0  2  0  0  0  0  0  0
  1 10  1  0  0  0  0
  2  6  2  0  0  0  0
  3  8  1  1  0  0  0
  4  9  1  6  0  0  0
  4 17  1  0  0  0  0
  6  5  1  0  0  0  0
  7 13  2  0  0  0  0
  8  2  1  0  0  0  0
  8  1  2  0  0  0  0
  9 16  1  0  0  0  0
 10  5  2  0  0  0  0
 11  3  1  0  0  0  0
 11 18  1  1  0  0  0
 12  1  1  0  0  0  0
 14  4  1  0  0  0  0
 14 15  1  0  0  0  0
 15 21  1  6  0  0  0
 15 11  1  0  0  0  0
 16 26  1  6  0  0  0
 16  7  1  0  0  0  0
 17  7  1  6  0  0  0
 17  3  1  0  0  0  0
 18 12  1  0  0  0  0
 19 23  1  0  0  0  0
 19 25  1  0  0  0  0
 20 19  2  0  0  0  0
 21 23  2  0  0  0  0
 22 24  2  0  0  0  0
 22 20  1  0  0  0  0
 24 21  1  0  0  0  0
 27 26  1  0  0  0  0
 29 33  1  0  0  0  0
 29 27  1  1  0  0  0
 30 28  1  1  0  0  0
 30 34  1  0  0  0  0
 30 29  1  0  0  0  0
 32 31  1  0  0  0  0
 32 33  1  0  0  0  0
 34 31  1  0  0  0  0
M  END
>  <MODEL>
2

>  <REMARK>
 VINA RESULT:     -10.1      3.177      5.905
  Name = 
  4 active torsions:
  status: ('A' for Active; 'I' for Inactive)
    1  A    between atoms: O_3  and  C_13
    2  A    between atoms: O_3  and  C_17
    3  A    between atoms: C_12  and  C_28
    4  A    between atoms: C_17  and  C_29
                            x       y       z     vdW  Elec       q    Type
                         _______ _______ _______ _____ _____    ______ ____

>  <TORSDO>
F 4

$$$$
=
 OpenBabel10252415013D

 34 39  0  0  1  0  0  0  0  0999 V2000
  187.1030  177.7160  145.3910 C   0  0  0  0  0  0  0  0  0  0  0  0
  189.4570  177.9550  144.8360 C   0  0  0  0  0  3  0  0  0  0  0  0
  187.7330  178.6120  143.1050 C   0  0  2  0  0  3  0  0  0  0  0  0
  188.2760  179.0020  140.6850 N   0  0  1  0  0  0  0  0  0  0  0  0
  188.8050  177.1590  147.0250 C   0  0  0  0  0  3  0  0  0  0  0  0
  189.8040  177.5110  146.1140 C   0  0  0  0  0  3  0  0  0  0  0  0
  189.0860  176.9880  141.5940 C   0  0  0  0  0  0  0  0  0  0  0  0
  188.1110  178.0290  144.4470 C   0  0  0  0  0  0  0  0  0  0  0  0
  189.0880  178.3210  139.6680 C   0  0  0  0  0  2  0  0  0  0  0  0
  187.4600  177.2620  146.6640 C   0  0  0  0  0  3  0  0  0  0  0  0
  186.3000  178.3150  142.6960 C   0  0  2  0  0  3  0  0  0  0  0  0
  185.6410  177.7850  145.0350 C   0  0  0  0  0  2  0  0  0  0  0  0
  189.1860  176.0610  142.3830 O   0  0  0  0  0  0  0  0  0  0  0  0
  186.9420  178.6300  140.3840 N   0  0  0  0  0  2  0  0  0  0  0  0
  186.0240  179.1020  141.4200 C   0  0  1  0  0  3  0  0  0  0  0  0
  189.3400  176.8850  140.1410 C   0  0  1  0  0  3  0  0  0  0  0  0
  188.7230  178.3820  141.9470 C   0  0  2  0  0  3  0  0  0  0  0  0
  185.3770  178.7060  143.8450 C   0  0  0  0  0  2  0  0  0  0  0  0
  182.9010  179.1580  139.2420 C   0  0  0  0  0  0  0  0  0  0  0  0
  181.9620  178.5850  140.1060 C   0  0  0  0  0  3  0  0  0  0  0  0
  184.6120  178.9270  140.9470 C   0  0  0  0  0  0  0  0  0  0  0  0
  182.3450  178.1870  141.3890 C   0  0  0  0  0  3  0  0  0  0  0  0
  184.2240  179.3290  139.6600 C   0  0  0  0  0  3  0  0  0  0  0  0
  183.6690  178.3580  141.8100 C   0  0  0  0  0  3  0  0  0  0  0  0
  182.5290  179.5450  137.9980 F   0  0  0  0  0  0  0  0  0  0  0  0
  190.7750  176.4620  139.8380 C   0  0  0  0  0  2  0  0  0  0  0  0
  190.8270  175.6210  138.7190 O   0  0  0  0  0  0  0  0  0  0  0  0
  189.5370  176.9510  136.5420 F   0  0  0  0  0  0  0  0  0  0  0  0
  191.5180  176.3510  137.7450 C   0  0  2  0  0  3  0  0  0  0  0  0
  190.7600  176.3190  136.4140 C   0  0  1  0  0  3  0  0  0  0  0  0
  192.0550  173.8330  135.9490 S   0  0  0  0  0  0  0  0  0  0  0  0
  193.2580  175.1620  136.2850 C   0  0  0  0  0  2  0  0  0  0  0  0
  192.9560  175.8230  137.6280 C   0  0  0  0  0  2  0  0  0  0  0  0
  190.5510  174.8910  135.9030 C   0  0  0  0  0  2  0  0  0  0  0  0
  1 10  1  0  0  0  0
  2  6  2  0  0  0  0
  3  8  1  1  0  0  0
  4  9  1  6  0  0  0
  4 17  1  0  0  0  0
  6  5  1  0  0  0  0
  7 13  2  0  0  0  0
  8  2  1  0  0  0  0
  8  1  2  0  0  0  0
  9 16  1  0  0  0  0
 10  5  2  0  0  0  0
 11  3  1  0  0  0  0
 11 18  1  1  0  0  0
 12  1  1  0  0  0  0
 14  4  1  0  0  0  0
 14 15  1  0  0  0  0
 15 21  1  6  0  0  0
 15 11  1  0  0  0  0
 16 26  1  1  0  0  0
 16  7  1  0  0  0  0
 17  7  1  6  0  0  0
 17  3  1  0  0  0  0
 18 12  1  0  0  0  0
 19 23  2  0  0  0  0
 19 20  1  0  0  0  0
 20 22  2  0  0  0  0
 21 24  2  0  0  0  0
 22 24  1  0  0  0  0
 23 21  1  0  0  0  0
 25 19  1  0  0  0  0
 27 26  1  0  0  0  0
 29 27  1  1  0  0  0
 30 28  1  1  0  0  0
 30 29  1  0  0  0  0
 31 32  1  0  0  0  0
 32 33  1  0  0  0  0
 33 29  1  0  0  0  0
 34 31  1  0  0  0  0
 34 30  1  0  0  0  0
M  END
>  <MODEL>
3

>  <REMARK>
 VINA RESULT:      -9.4      3.018      6.086
  Name = 
  4 active torsions:
  status: ('A' for Active; 'I' for Inactive)
    1  A    between atoms: O_3  and  C_13
    2  A    between atoms: O_3  and  C_17
    3  A    between atoms: C_12  and  C_28
    4  A    between atoms: C_17  and  C_29
                            x       y       z     vdW  Elec       q    Type
                         _______ _______ _______ _____ _____    ______ ____

>  <TORSDO>
F 4

$$$$
=
 OpenBabel10252415013D

 34 39  0  0  1  0  0  0  0  0999 V2000
  187.4730  177.7240  144.5000 C   0  0  0  0  0  0  0  0  0  0  0  0
  189.7930  178.0820  143.8670 C   0  0  0  0  0  3  0  0  0  0  0  0
  187.9820  178.6180  142.1830 C   0  0  2  0  0  3  0  0  0  0  0  0
  188.4280  179.0010  139.7420 N   0  0  1  0  0  0  0  0  0  0  0  0
  189.2530  177.2840  146.0870 C   0  0  0  0  0  3  0  0  0  0  0  0
  190.2020  177.6760  145.1400 C   0  0  0  0  0  3  0  0  0  0  0  0
  189.3740  177.0480  140.6520 C   0  0  0  0  0  0  0  0  0  0  0  0
  188.4330  178.0770  143.5210 C   0  0  0  0  0  0  0  0  0  0  0  0
  189.2440  178.3500  138.7090 C   0  0  0  0  0  2  0  0  0  0  0  0
  187.8930  177.3090  145.7670 C   0  0  0  0  0  3  0  0  0  0  0  0
  186.5550  178.2380  141.8240 C   0  0  2  0  0  3  0  0  0  0  0  0
  185.9990  177.7090  144.1890 C   0  0  0  0  0  2  0  0  0  0  0  0
  189.5500  176.1390  141.4490 O   0  0  0  0  0  0  0  0  0  0  0  0
  187.1080  178.5530  139.4880 N   0  0  0  0  0  2  0  0  0  0  0  0
  186.1980  178.9900  140.5470 C   0  0  1  0  0  3  0  0  0  0  0  0
  189.5880  176.9370  139.1930 C   0  0  1  0  0  3  0  0  0  0  0  0
  188.9470  178.4250  140.9980 C   0  0  2  0  0  3  0  0  0  0  0  0
  185.6480  178.5960  142.9960 C   0  0  0  0  0  2  0  0  0  0  0  0
  182.8610  177.2640  139.9240 C   0  0  0  0  0  0  0  0  0  0  0  0
  182.1390  178.2920  139.3090 C   0  0  0  0  0  3  0  0  0  0  0  0
  184.7840  178.7320  140.1220 C   0  0  0  0  0  0  0  0  0  0  0  0
  182.7380  179.5370  139.0970 C   0  0  0  0  0  3  0  0  0  0  0  0
  184.1810  177.4820  140.3300 C   0  0  0  0  0  3  0  0  0  0  0  0
  184.0590  179.7560  139.5030 C   0  0  0  0  0  3  0  0  0  0  0  0
  182.2800  176.0580  140.1280 F   0  0  0  0  0  0  0  0  0  0  0  0
  191.0350  176.5880  138.8500 C   0  0  0  0  0  2  0  0  0  0  0  0
  191.1380  176.1020  137.5410 O   0  0  0  0  0  0  0  0  0  0  0  0
  193.8330  175.3490  138.1250 F   0  0  0  0  0  0  0  0  0  0  0  0
  191.5530  174.7720  137.6760 C   0  0  2  0  0  3  0  0  0  0  0  0
  193.0220  174.6260  137.2690 C   0  0  1  0  0  3  0  0  0  0  0  0
  192.0700  174.4080  134.6010 S   0  0  0  0  0  0  0  0  0  0  0  0
  191.2950  173.1690  135.6920 C   0  0  0  0  0  2  0  0  0  0  0  0
  190.6170  173.8550  136.8750 C   0  0  0  0  0  2  0  0  0  0  0  0
  193.2700  175.0740  135.8260 C   0  0  0  0  0  2  0  0  0  0  0  0
  1 10  1  0  0  0  0
  2  6  2  0  0  0  0
  3  8  1  1  0  0  0
  4  9  1  6  0  0  0
  4 17  1  0  0  0  0
  6  5  1  0  0  0  0
  7 13  2  0  0  0  0
  8  2  1  0  0  0  0
  8  1  2  0  0  0  0
  9 16  1  0  0  0  0
 10  5  2  0  0  0  0
 11  3  1  0  0  0  0
 11 18  1  1  0  0  0
 12  1  1  0  0  0  0
 14  4  1  0  0  0  0
 14 15  1  0  0  0  0
 15 21  1  6  0  0  0
 15 11  1  0  0  0  0
 16 26  1  1  0  0  0
 16  7  1  0  0  0  0
 17  7  1  6  0  0  0
 17  3  1  0  0  0  0
 18 12  1  0  0  0  0
 19 25  1  0  0  0  0
 19 23  1  0  0  0  0
 20 19  2  0  0  0  0
 21 23  2  0  0  0  0
 22 20  1  0  0  0  0
 22 24  2  0  0  0  0
 24 21  1  0  0  0  0
 27 26  1  0  0  0  0
 29 27  1  6  0  0  0
 30 29  1  0  0  0  0
 30 28  1  1  0  0  0
 31 32  1  0  0  0  0
 31 34  1  0  0  0  0
 32 33  1  0  0  0  0
 33 29  1  0  0  0  0
 34 30  1  0  0  0  0
M  END
>  <MODEL>
4

>  <REMARK>
 VINA RESULT:      -8.5      3.300      6.488
  Name = 
  4 active torsions:
  status: ('A' for Active; 'I' for Inactive)
    1  A    between atoms: O_3  and  C_13
    2  A    between atoms: O_3  and  C_17
    3  A    between atoms: C_12  and  C_28
    4  A    between atoms: C_17  and  C_29
                            x       y       z     vdW  Elec       q    Type
                         _______ _______ _______ _____ _____    ______ ____

>  <TORSDO>
F 4

$$$$
=
 OpenBabel10252415013D

 34 39  0  0  1  0  0  0  0  0999 V2000
  184.5640  178.4890  142.1000 C   0  0  0  0  0  0  0  0  0  0  0  0
  186.2250  178.8780  143.8310 C   0  0  0  0  0  3  0  0  0  0  0  0
  187.0050  178.6450  141.4350 C   0  0  2  0  0  3  0  0  0  0  0  0
  189.4020  178.2730  140.7870 N   0  0  1  0  0  0  0  0  0  0  0  0
  183.8770  178.7780  144.4070 C   0  0  0  0  0  3  0  0  0  0  0  0
  185.2100  178.9480  144.7880 C   0  0  0  0  0  3  0  0  0  0  0  0
  188.5650  176.8300  142.4470 C   0  0  0  0  0  0  0  0  0  0  0  0
  185.9200  178.6130  142.4870 C   0  0  0  0  0  0  0  0  0  0  0  0
  190.4980  177.4200  141.2640 C   0  0  0  0  0  2  0  0  0  0  0  0
  183.5560  178.5500  143.0670 C   0  0  0  0  0  3  0  0  0  0  0  0
  186.5900  178.0150  140.1160 C   0  0  2  0  0  3  0  0  0  0  0  0
  184.1750  178.2130  140.6700 C   0  0  0  0  0  2  0  0  0  0  0  0
  187.7350  176.2490  143.1300 O   0  0  0  0  0  0  0  0  0  0  0  0
  188.9270  177.6250  139.6200 N   0  0  0  0  0  2  0  0  0  0  0  0
  187.7160  178.2750  139.1210 C   0  0  1  0  0  3  0  0  0  0  0  0
  189.8920  176.2830  142.0940 C   0  0  1  0  0  3  0  0  0  0  0  0
  188.4090  178.1900  141.8760 C   0  0  2  0  0  3  0  0  0  0  0  0
  185.2630  178.6280  139.6820 C   0  0  0  0  0  2  0  0  0  0  0  0
  186.8850  175.8940  136.2670 C   0  0  0  0  0  0  0  0  0  0  0  0
  186.7960  176.7850  135.1930 C   0  0  0  0  0  3  0  0  0  0  0  0
  187.3930  177.7410  137.7580 C   0  0  0  0  0  0  0  0  0  0  0  0
  187.0080  178.1510  135.3980 C   0  0  0  0  0  3  0  0  0  0  0  0
  187.1830  176.3690  137.5480 C   0  0  0  0  0  3  0  0  0  0  0  0
  187.3070  178.6280  136.6790 C   0  0  0  0  0  3  0  0  0  0  0  0
  186.6800  174.5700  136.0670 F   0  0  0  0  0  0  0  0  0  0  0  0
  190.7450  176.0030  143.3290 C   0  0  0  0  0  2  0  0  0  0  0  0
  189.9890  176.1270  144.5010 O   0  0  0  0  0  0  0  0  0  0  0  0
  192.3560  175.9650  146.0960 F   0  0  0  0  0  0  0  0  0  0  0  0
  190.5380  177.2230  145.1750 C   0  0  2  0  0  3  0  0  0  0  0  0
  191.2770  176.7610  146.4350 C   0  0  1  0  0  3  0  0  0  0  0  0
  188.7430  176.8170  147.7180 S   0  0  0  0  0  0  0  0  0  0  0  0
  189.1450  178.4270  146.9600 C   0  0  0  0  0  2  0  0  0  0  0  0
  189.4380  178.2530  145.4720 C   0  0  0  0  0  2  0  0  0  0  0  0
  190.3600  176.0010  147.3970 C   0  0  0  0  0  2  0  0  0  0  0  0
  1  8  2  0  0  0  0
  1 10  1  0  0  0  0
  2  6  2  0  0  0  0
  3 17  1  0  0  0  0
  3  8  1  1  0  0  0
  4  9  1  1  0  0  0
  4 17  1  0  0  0  0
  5  6  1  0  0  0  0
  7 13  2  0  0  0  0
  8  2  1  0  0  0  0
  9 16  1  0  0  0  0
 10  5  2  0  0  0  0
 11 18  1  6  0  0  0
 11  3  1  0  0  0  0
 12  1  1  0  0  0  0
 14  4  1  0  0  0  0
 15 21  1  6  0  0  0
 15 14  1  0  0  0  0
 15 11  1  0  0  0  0
 16  7  1  0  0  0  0
 16 26  1  1  0  0  0
 17  7  1  6  0  0  0
 18 12  1  0  0  0  0
 19 23  1  0  0  0  0
 20 22  1  0  0  0  0
 20 19  2  0  0  0  0
 22 24  2  0  0  0  0
 23 21  2  0  0  0  0
 24 21  1  0  0  0  0
 25 19  1  0  0  0  0
 26 27  1  0  0  0  0
 29 27  1  1  0  0  0
 29 33  1  0  0  0  0
 29 30  1  0  0  0  0
 30 28  1  6  0  0  0
 30 34  1  0  0  0  0
 32 31  1  0  0  0  0
 33 32  1  0  0  0  0
 34 31  1  0  0  0  0
M  END
>  <MODEL>
5

>  <REMARK>
 VINA RESULT:      -8.5      2.824      7.630
  Name = 
  4 active torsions:
  status: ('A' for Active; 'I' for Inactive)
    1  A    between atoms: O_3  and  C_13
    2  A    between atoms: O_3  and  C_17
    3  A    between atoms: C_12  and  C_28
    4  A    between atoms: C_17  and  C_29
                            x       y       z     vdW  Elec       q    Type
                         _______ _______ _______ _____ _____    ______ ____

>  <TORSDO>
F 4

$$$$
=
 OpenBabel10252415013D

 34 39  0  0  1  0  0  0  0  0999 V2000
  184.6890  178.3500  144.9480 C   0  0  0  0  0  0  0  0  0  0  0  0
  187.0850  178.6280  145.2480 C   0  0  0  0  0  3  0  0  0  0  0  0
  186.1110  178.9380  142.9340 C   0  0  2  0  0  3  0  0  0  0  0  0
  187.4980  179.0030  140.8420 N   0  0  1  0  0  0  0  0  0  0  0  0
  185.6780  178.1220  147.1500 C   0  0  0  0  0  3  0  0  0  0  0  0
  186.9410  178.3900  146.6170 C   0  0  0  0  0  3  0  0  0  0  0  0
  187.9130  177.1850  142.2780 C   0  0  0  0  0  0  0  0  0  0  0  0
  185.9720  178.5750  144.3940 C   0  0  0  0  0  0  0  0  0  0  0  0
  188.6210  178.2260  140.3030 C   0  0  0  0  0  2  0  0  0  0  0  0
  184.5560  178.1030  146.3180 C   0  0  0  0  0  3  0  0  0  0  0  0
  184.9230  178.5120  142.0870 C   0  0  2  0  0  3  0  0  0  0  0  0
  183.4560  178.2910  144.0830 C   0  0  0  0  0  2  0  0  0  0  0  0
  187.7160  176.3880  143.1830 O   0  0  0  0  0  0  0  0  0  0  0  0
  186.3630  178.5220  140.1420 N   0  0  0  0  0  2  0  0  0  0  0  0
  185.1340  179.0910  140.6930 C   0  0  1  0  0  3  0  0  0  0  0  0
  188.6770  176.8880  141.0480 C   0  0  1  0  0  3  0  0  0  0  0  0
  187.4530  178.5950  142.2600 C   0  0  2  0  0  3  0  0  0  0  0  0
  183.6470  179.0160  142.7520 C   0  0  0  0  0  2  0  0  0  0  0  0
  182.2420  179.4800  138.2450 C   0  0  0  0  0  0  0  0  0  0  0  0
  181.8540  178.1470  138.0760 C   0  0  0  0  0  3  0  0  0  0  0  0
  183.9890  178.7780  139.7770 C   0  0  0  0  0  0  0  0  0  0  0  0
  182.5290  177.1310  138.7580 C   0  0  0  0  0  3  0  0  0  0  0  0
  183.3080  179.7960  139.0930 C   0  0  0  0  0  3  0  0  0  0  0  0
  183.5950  177.4460  139.6070 C   0  0  0  0  0  3  0  0  0  0  0  0
  181.5870  180.4650  137.5850 F   0  0  0  0  0  0  0  0  0  0  0  0
  190.1230  176.4990  141.3510 C   0  0  0  0  0  2  0  0  0  0  0  0
  190.2740  176.1270  142.6920 O   0  0  0  0  0  0  0  0  0  0  0  0
  192.0550  174.7170  144.4270 F   0  0  0  0  0  0  0  0  0  0  0  0
  191.5300  176.6170  143.0680 C   0  0  2  0  0  3  0  0  0  0  0  0
  191.9150  176.0930  144.4550 C   0  0  1  0  0  3  0  0  0  0  0  0
  190.3900  178.2530  145.4930 S   0  0  0  0  0  0  0  0  0  0  0  0
  191.6800  178.8360  144.3430 C   0  0  0  0  0  2  0  0  0  0  0  0
  191.5310  178.1510  142.9870 C   0  0  0  0  0  2  0  0  0  0  0  0
  190.8930  176.4840  145.5250 C   0  0  0  0  0  2  0  0  0  0  0  0
  1 10  1  0  0  0  0
  2  6  2  0  0  0  0
  3  8  1  1  0  0  0
  4  9  1  6  0  0  0
  4 17  1  0  0  0  0
  6  5  1  0  0  0  0
  7 13  2  0  0  0  0
  8  1  2  0  0  0  0
  8  2  1  0  0  0  0
  9 16  1  0  0  0  0
 10  5  2  0  0  0  0
 11 18  1  1  0  0  0
 11  3  1  0  0  0  0
 12  1  1  0  0  0  0
 14 15  1  0  0  0  0
 14  4  1  0  0  0  0
 15 21  1  6  0  0  0
 15 11  1  0  0  0  0
 16 26  1  1  0  0  0
 16  7  1  0  0  0  0
 17  7  1  6  0  0  0
 17  3  1  0  0  0  0
 18 12  1  0  0  0  0
 19 23  1  0  0  0  0
 20 19  2  0  0  0  0
 20 22  1  0  0  0  0
 22 24  2  0  0  0  0
 23 21  2  0  0  0  0
 24 21  1  0  0  0  0
 25 19  1  0  0  0  0
 26 27  1  0  0  0  0
 29 27  1  1  0  0  0
 29 30  1  0  0  0  0
 30 28  1  6  0  0  0
 30 34  1  0  0  0  0
 31 34  1  0  0  0  0
 32 31  1  0  0  0  0
 33 29  1  0  0  0  0
 33 32  1  0  0  0  0
M  END
>  <MODEL>
6

>  <REMARK>
 VINA RESULT:      -8.4      3.074      7.254
  Name = 
  4 active torsions:
  status: ('A' for Active; 'I' for Inactive)
    1  A    between atoms: O_3  and  C_13
    2  A    between atoms: O_3  and  C_17
    3  A    between atoms: C_12  and  C_28
    4  A    between atoms: C_17  and  C_29
                            x       y       z     vdW  Elec       q    Type
                         _______ _______ _______ _____ _____    ______ ____

>  <TORSDO>
F 4

$$$$
=
 OpenBabel10252415013D

 34 39  0  0  1  0  0  0  0  0999 V2000
  189.3840  177.8780  146.5080 C   0  0  0  0  0  0  0  0  0  0  0  0
  187.1220  177.5940  147.3510 C   0  0  0  0  0  3  0  0  0  0  0  0
  187.5470  177.2420  144.8810 C   0  0  2  0  0  3  0  0  0  0  0  0
  185.7210  177.1280  143.1620 N   0  0  1  0  0  0  0  0  0  0  0  0
  188.9200  178.1450  148.8730 C   0  0  0  0  0  3  0  0  0  0  0  0
  187.5720  177.8600  148.6470 C   0  0  0  0  0  3  0  0  0  0  0  0
  185.6270  178.9720  144.6210 C   0  0  0  0  0  0  0  0  0  0  0  0
  188.0110  177.6350  146.2650 C   0  0  0  0  0  0  0  0  0  0  0  0
  184.4970  177.8880  142.8790 C   0  0  0  0  0  2  0  0  0  0  0  0
  189.8230  178.1520  147.8070 C   0  0  0  0  0  3  0  0  0  0  0  0
  188.5070  177.6560  143.7790 C   0  0  2  0  0  3  0  0  0  0  0  0
  190.3870  177.9240  145.3840 C   0  0  0  0  0  2  0  0  0  0  0  0
  186.0170  179.7890  145.4420 O   0  0  0  0  0  0  0  0  0  0  0  0
  186.6610  177.5990  142.2140 N   0  0  0  0  0  2  0  0  0  0  0  0
  187.9890  177.0480  142.4810 C   0  0  1  0  0  3  0  0  0  0  0  0
  184.5990  179.2410  143.5930 C   0  0  1  0  0  3  0  0  0  0  0  0
  186.0830  177.5650  144.5250 C   0  0  2  0  0  3  0  0  0  0  0  0
  189.9050  177.1710  144.1450 C   0  0  0  0  0  2  0  0  0  0  0  0
  189.3510  178.4840  139.2270 C   0  0  0  0  0  0  0  0  0  0  0  0
  190.6100  177.8790  139.1730 C   0  0  0  0  0  3  0  0  0  0  0  0
  188.8920  177.3480  141.3220 C   0  0  0  0  0  0  0  0  0  0  0  0
  191.0100  177.0070  140.1890 C   0  0  0  0  0  3  0  0  0  0  0  0
  188.4920  178.2210  140.2990 C   0  0  0  0  0  3  0  0  0  0  0  0
  190.1520  176.7410  141.2620 C   0  0  0  0  0  3  0  0  0  0  0  0
  188.9630  179.3290  138.2410 F   0  0  0  0  0  0  0  0  0  0  0  0
  183.2570  179.6290  144.2090 C   0  0  0  0  0  2  0  0  0  0  0  0
  182.3240  179.9570  143.2180 O   0  0  0  0  0  0  0  0  0  0  0  0
  182.1530  178.3290  140.8750 F   0  0  0  0  0  0  0  0  0  0  0  0
  181.4880  178.8400  143.1180 C   0  0  2  0  0  3  0  0  0  0  0  0
  181.0560  178.6240  141.6640 C   0  0  1  0  0  3  0  0  0  0  0  0
  179.0090  180.5240  142.1840 S   0  0  0  0  0  0  0  0  0  0  0  0
  178.9540  179.1410  143.3710 C   0  0  0  0  0  2  0  0  0  0  0  0
  180.2990  178.9960  144.0780 C   0  0  0  0  0  2  0  0  0  0  0  0
  180.3220  179.8400  141.0930 C   0  0  0  0  0  2  0  0  0  0  0  0
  1 10  1  0  0  0  0
  2  6  2  0  0  0  0
  3  8  1  1  0  0  0
  4  9  1  6  0  0  0
  4 17  1  0  0  0  0
  6  5  1  0  0  0  0
  7 13  2  0  0  0  0
  8  1  2  0  0  0  0
  8  2  1  0  0  0  0
  9 16  1  0  0  0  0
 10  5  2  0  0  0  0
 11 18  1  1  0  0  0
 11  3  1  0  0  0  0
 12  1  1  0  0  0  0
 14 15  1  0  0  0  0
 14  4  1  0  0  0  0
 15 21  1  6  0  0  0
 15 11  1  0  0  0  0
 16 26  1  1  0  0  0
 16  7  1  0  0  0  0
 17  7  1  6  0  0  0
 17  3  1  0  0  0  0
 18 12  1  0  0  0  0
 19 23  1  0  0  0  0
 20 19  2  0  0  0  0
 20 22  1  0  0  0  0
 22 24  2  0  0  0  0
 23 21  2  0  0  0  0
 24 21  1  0  0  0  0
 25 19  1  0  0  0  0
 27 26  1  0  0  0  0
 29 27  1  6  0  0  0
 29 33  1  0  0  0  0
 30 28  1  6  0  0  0
 30 29  1  0  0  0  0
 31 32  1  0  0  0  0
 32 33  1  0  0  0  0
 34 30  1  0  0  0  0
 34 31  1  0  0  0  0
M  END
>  <MODEL>
7

>  <REMARK>
 VINA RESULT:      -8.3      3.520      6.947
  Name = 
  4 active torsions:
  status: ('A' for Active; 'I' for Inactive)
    1  A    between atoms: O_3  and  C_13
    2  A    between atoms: O_3  and  C_17
    3  A    between atoms: C_12  and  C_28
    4  A    between atoms: C_17  and  C_29
                            x       y       z     vdW  Elec       q    Type
                         _______ _______ _______ _____ _____    ______ ____

>  <TORSDO>
F 4

$$$$
=
 OpenBabel10252415013D

 34 39  0  0  1  0  0  0  0  0999 V2000
  185.1630  179.0010  141.5770 C   0  0  0  0  0  0  0  0  0  0  0  0
  186.2950  177.8780  139.7420 C   0  0  0  0  0  3  0  0  0  0  0  0
  187.0420  177.3850  142.1090 C   0  0  2  0  0  3  0  0  0  0  0  0
  189.1950  176.2210  142.6690 N   0  0  1  0  0  0  0  0  0  0  0  0
  184.4580  179.3860  139.2890 C   0  0  0  0  0  3  0  0  0  0  0  0
  185.4400  178.5050  138.8320 C   0  0  0  0  0  3  0  0  0  0  0  0
  189.3790  178.0290  141.1740 C   0  0  0  0  0  0  0  0  0  0  0  0
  186.1910  178.1440  141.1160 C   0  0  0  0  0  0  0  0  0  0  0  0
  190.5880  176.3120  142.2110 C   0  0  0  0  0  2  0  0  0  0  0  0
  184.3200  179.6320  140.6580 C   0  0  0  0  0  3  0  0  0  0  0  0
  187.0640  178.0100  143.4930 C   0  0  2  0  0  3  0  0  0  0  0  0
  184.9970  179.3170  143.0410 C   0  0  0  0  0  2  0  0  0  0  0  0
  189.0540  179.0470  140.5810 O   0  0  0  0  0  0  0  0  0  0  0  0
  189.1810  176.9110  143.9060 N   0  0  0  0  0  2  0  0  0  0  0  0
  187.8150  177.0490  144.4080 C   0  0  1  0  0  3  0  0  0  0  0  0
  190.7720  177.6600  141.5060 C   0  0  1  0  0  3  0  0  0  0  0  0
  188.4500  176.9710  141.6390 C   0  0  2  0  0  3  0  0  0  0  0  0
  185.6270  178.2530  143.9390 C   0  0  0  0  0  2  0  0  0  0  0  0
  189.0550  177.9640  147.8910 C   0  0  0  0  0  0  0  0  0  0  0  0
  187.8850  178.4650  148.4680 C   0  0  0  0  0  3  0  0  0  0  0  0
  187.8550  177.5400  145.8240 C   0  0  0  0  0  0  0  0  0  0  0  0
  186.7010  178.5020  147.7280 C   0  0  0  0  0  3  0  0  0  0  0  0
  189.0420  177.5020  146.5710 C   0  0  0  0  0  3  0  0  0  0  0  0
  186.6850  178.0390  146.4080 C   0  0  0  0  0  3  0  0  0  0  0  0
  190.2030  177.9280  148.6090 F   0  0  0  0  0  0  0  0  0  0  0  0
  191.6370  177.5030  140.2580 C   0  0  0  0  0  2  0  0  0  0  0  0
  191.1980  176.4300  139.4720 O   0  0  0  0  0  0  0  0  0  0  0  0
  189.5080  177.9520  137.7410 F   0  0  0  0  0  0  0  0  0  0  0  0
  191.5480  176.7700  138.1610 C   0  0  2  0  0  3  0  0  0  0  0  0
  190.2940  176.9070  137.2910 C   0  0  1  0  0  3  0  0  0  0  0  0
  190.4450  174.0900  136.9550 S   0  0  0  0  0  0  0  0  0  0  0  0
  191.9980  174.9070  136.4580 C   0  0  0  0  0  2  0  0  0  0  0  0
  192.5490  175.7440  137.6100 C   0  0  0  0  0  2  0  0  0  0  0  0
  189.4680  175.6180  137.2620 C   0  0  0  0  0  2  0  0  0  0  0  0
  1 12  1  0  0  0  0
  2  8  2  0  0  0  0
  3  8  1  6  0  0  0
  3 11  1  0  0  0  0
  4  9  1  6  0  0  0
  4 14  1  0  0  0  0
  5 10  1  0  0  0  0
  6  5  2  0  0  0  0
  6  2  1  0  0  0  0
  7 16  1  0  0  0  0
  8  1  1  0  0  0  0
 10  1  2  0  0  0  0
 11 18  1  1  0  0  0
 11 15  1  0  0  0  0
 12 18  1  0  0  0  0
 13  7  2  0  0  0  0
 14 15  1  0  0  0  0
 15 21  1  1  0  0  0
 16 26  1  6  0  0  0
 16  9  1  0  0  0  0
 17  7  1  1  0  0  0
 17  3  1  0  0  0  0
 17  4  1  0  0  0  0
 19 20  1  0  0  0  0
 19 25  1  0  0  0  0
 21 24  2  0  0  0  0
 21 23  1  0  0  0  0
 22 20  2  0  0  0  0
 23 19  2  0  0  0  0
 24 22  1  0  0  0  0
 27 26  1  0  0  0  0
 29 27  1  1  0  0  0
 30 28  1  1  0  0  0
 30 29  1  0  0  0  0
 31 34  1  0  0  0  0
 32 31  1  0  0  0  0
 32 33  1  0  0  0  0
 33 29  1  0  0  0  0
 34 30  1  0  0  0  0
M  END
>  <MODEL>
8

>  <REMARK>
 VINA RESULT:      -8.0      2.181      2.745
  Name = 
  4 active torsions:
  status: ('A' for Active; 'I' for Inactive)
    1  A    between atoms: O_3  and  C_13
    2  A    between atoms: O_3  and  C_17
    3  A    between atoms: C_12  and  C_28
    4  A    between atoms: C_17  and  C_29
                            x       y       z     vdW  Elec       q    Type
                         _______ _______ _______ _____ _____    ______ ____

>  <TORSDO>
F 4

$$$$
=
 OpenBabel10252415013D

 34 39  0  0  1  0  0  0  0  0999 V2000
  191.3290  176.3290  137.5900 C   0  0  0  0  0  0  0  0  0  0  0  0
  189.9200  177.0070  135.7280 C   0  0  0  0  0  3  0  0  0  0  0  0
  189.2620  177.7180  138.0660 C   0  0  2  0  0  3  0  0  0  0  0  0
  186.9970  178.6280  138.6530 N   0  0  1  0  0  0  0  0  0  0  0  0
  191.9340  175.7300  135.3190 C   0  0  0  0  0  3  0  0  0  0  0  0
  190.8000  176.3870  134.8370 C   0  0  0  0  0  3  0  0  0  0  0  0
  186.9970  176.6180  137.4270 C   0  0  0  0  0  0  0  0  0  0  0  0
  190.1530  176.9560  137.1110 C   0  0  0  0  0  0  0  0  0  0  0  0
  185.6080  178.2740  138.3310 C   0  0  0  0  0  2  0  0  0  0  0  0
  192.1970  175.7020  136.6910 C   0  0  0  0  0  3  0  0  0  0  0  0
  189.4270  177.2970  139.5170 C   0  0  2  0  0  3  0  0  0  0  0  0
  191.6370  176.2510  139.0620 C   0  0  0  0  0  2  0  0  0  0  0  0
  187.4350  175.5850  136.9460 O   0  0  0  0  0  0  0  0  0  0  0  0
  187.1980  178.1280  139.9630 N   0  0  0  0  0  2  0  0  0  0  0  0
  188.5990  178.2600  140.3600 C   0  0  1  0  0  3  0  0  0  0  0  0
  185.5880  176.8270  137.8270 C   0  0  1  0  0  3  0  0  0  0  0  0
  187.7800  177.8540  137.6690 C   0  0  2  0  0  3  0  0  0  0  0  0
  190.9110  177.3290  139.8650 C   0  0  0  0  0  2  0  0  0  0  0  0
  189.8660  178.2530  143.9520 C   0  0  0  0  0  0  0  0  0  0  0  0
  188.9320  177.4100  144.5620 C   0  0  0  0  0  3  0  0  0  0  0  0
  188.7280  177.9740  141.8260 C   0  0  0  0  0  0  0  0  0  0  0  0
  187.9000  176.8460  143.8080 C   0  0  0  0  0  3  0  0  0  0  0  0
  189.7650  178.5360  142.5860 C   0  0  0  0  0  3  0  0  0  0  0  0
  187.7980  177.1280  142.4410 C   0  0  0  0  0  3  0  0  0  0  0  0
  190.8660  178.7980  144.6840 F   0  0  0  0  0  0  0  0  0  0  0  0
  184.6290  176.6800  136.6470 C   0  0  0  0  0  2  0  0  0  0  0  0
  184.4450  175.3330  136.3130 O   0  0  0  0  0  0  0  0  0  0  0  0
  185.6680  173.2520  137.8430 F   0  0  0  0  0  0  0  0  0  0  0  0
  183.8480  174.7550  137.4390 C   0  0  2  0  0  3  0  0  0  0  0  0
  184.3070  173.3020  137.6010 C   0  0  1  0  0  3  0  0  0  0  0  0
  182.2490  172.6410  135.7570 S   0  0  0  0  0  0  0  0  0  0  0  0
  181.5940  173.5590  137.1910 C   0  0  0  0  0  2  0  0  0  0  0  0
  182.3220  174.8920  137.3430 C   0  0  0  0  0  2  0  0  0  0  0  0
  183.9720  172.4510  136.3740 C   0  0  0  0  0  2  0  0  0  0  0  0
  1 12  1  0  0  0  0
  2  8  2  0  0  0  0
  3  8  1  6  0  0  0
  3 11  1  0  0  0  0
  4  9  1  6  0  0  0
  4 14  1  0  0  0  0
  5 10  1  0  0  0  0
  6  5  2  0  0  0  0
  6  2  1  0  0  0  0
  7 16  1  0  0  0  0
  8  1  1  0  0  0  0
 10  1  2  0  0  0  0
 11 18  1  1  0  0  0
 11 15  1  0  0  0  0
 12 18  1  0  0  0  0
 13  7  2  0  0  0  0
 14 15  1  0  0  0  0
 15 21  1  1  0  0  0
 16 26  1  6  0  0  0
 16  9  1  0  0  0  0
 17  7  1  1  0  0  0
 17  3  1  0  0  0  0
 17  4  1  0  0  0  0
 19 20  1  0  0  0  0
 19 25  1  0  0  0  0
 21 24  2  0  0  0  0
 21 23  1  0  0  0  0
 22 20  2  0  0  0  0
 23 19  2  0  0  0  0
 24 22  1  0  0  0  0
 27 26  1  0  0  0  0
 29 27  1  6  0  0  0
 29 30  1  0  0  0  0
 30 28  1  6  0  0  0
 31 34  1  0  0  0  0
 31 32  1  0  0  0  0
 32 33  1  0  0  0  0
 33 29  1  0  0  0  0
 34 30  1  0  0  0  0
M  END
>  <MODEL>
9

>  <REMARK>
 VINA RESULT:      -7.9      3.324      6.693
  Name = 
  4 active torsions:
  status: ('A' for Active; 'I' for Inactive)
    1  A    between atoms: O_3  and  C_13
    2  A    between atoms: O_3  and  C_17
    3  A    between atoms: C_12  and  C_28
    4  A    between atoms: C_17  and  C_29
                            x       y       z     vdW  Elec       q    Type
                         _______ _______ _______ _____ _____    ______ ____

>  <TORSDO>
F 4

$$$$
