=
 OpenBabel10262422273D

 43 47  0  0  1  0  0  0  0  0999 V2000
  191.6050  176.3610  147.2930 C   0  0  0  0  0  0  0  0  0  0  0  0
  187.4830  177.8040  144.8470 C   0  0  0  0  0  0  0  0  0  0  0  0
  188.1050  177.9560  142.1130 C   0  0  0  0  0  0  0  0  0  0  0  0
  189.4060  177.0410  146.7110 C   0  0  0  0  0  0  0  0  0  0  0  0
  192.0030  176.4180  145.9560 C   0  0  0  0  0  3  0  0  0  0  0  0
  192.6780  175.9230  148.4420 S   0  0  0  0  0  0  0  0  0  0  0  0
  189.7610  177.1130  145.3470 C   0  0  0  0  0  0  0  0  0  0  0  0
  190.3280  176.6710  147.6410 N   0  0  0  0  0  2  0  0  0  0  0  0
  191.0770  176.7960  144.9810 C   0  0  0  0  0  3  0  0  0  0  0  0
  189.0900  177.5780  143.0340 C   0  0  0  0  0  3  0  0  0  0  0  0
  188.7920  177.4970  144.4010 C   0  0  0  0  0  0  0  0  0  0  0  0
  187.1820  177.7220  146.1730 N   0  0  0  0  0  0  0  0  0  0  0  0
  186.4940  178.1940  143.9270 C   0  0  0  0  0  0  0  0  0  0  0  0
  186.8190  178.2590  142.5640 C   0  0  0  0  0  3  0  0  0  0  0  0
  188.1040  177.3520  147.1010 C   0  0  0  0  0  3  0  0  0  0  0  0
  188.4050  178.0530  140.6510 C   0  0  2  0  0  3  0  0  0  0  0  0
  187.1280  178.2550  139.8500 C   0  0  0  0  0  1  0  0  0  0  0  0
  189.1700  176.8210  140.1760 C   0  0  0  0  0  2  0  0  0  0  0  0
  190.5150  177.1770  139.6220 C   0  0  0  0  0  0  0  0  0  0  0  0
  191.4060  177.5440  140.3740 O   0  0  0  0  0  0  0  0  0  0  0  0
  190.8010  176.9440  138.1620 C   0  0  0  0  0  2  0  0  0  0  0  0
  189.6230  176.6390  137.3340 N   0  0  0  0  0  0  0  0  0  0  0  0
  189.7160  175.0490  136.6280 S   0  0  0  0  0  0  0  0  0  0  0  0
  190.3510  175.1130  135.2650 O   0  0  0  0  0  0  0  0  0  0  0  0
  190.5270  174.1410  137.5130 O   0  0  0  0  0  0  0  0  0  0  0  0
  188.0660  174.3980  136.4690 C   0  0  1  0  0  3  0  0  0  0  0  0
  185.6730  174.7490  136.9630 C   0  0  0  0  0  2  0  0  0  0  0  0
  186.5790  172.5090  137.1970 C   0  0  0  0  0  3  0  0  0  0  0  0
  185.5720  173.3200  137.2120 N   0  0  0  0  0  0  0  0  0  0  0  0
  188.0000  172.9800  137.0290 C   0  0  0  0  0  2  0  0  0  0  0  0
  187.0810  175.2780  137.2210 C   0  0  0  0  0  2  0  0  0  0  0  0
  189.4450  177.6300  136.2780 C   0  0  0  0  0  2  0  0  0  0  0  0
  188.9520  179.7330  137.2970 O   0  0  0  0  0  1  0  0  0  0  0  0
  188.3700  178.6290  136.6720 C   0  0  0  0  0  2  0  0  0  0  0  0
  185.2010  178.4810  144.4030 O   0  0  0  0  0  0  0  0  0  0  0  0
  181.6190  178.9420  143.6190 C   0  0  0  0  0  3  0  0  0  0  0  0
  181.6080  178.8430  142.2190 C   0  0  0  0  0  0  0  0  0  0  0  0
  184.0070  178.4900  142.2460 C   0  0  0  0  0  3  0  0  0  0  0  0
  182.8190  178.8160  144.3240 C   0  0  0  0  0  3  0  0  0  0  0  0
  184.0210  178.5830  143.6470 C   0  0  0  0  0  0  0  0  0  0  0  0
  182.8080  178.6160  141.5380 C   0  0  0  0  0  3  0  0  0  0  0  0
  180.4260  178.9650  141.4840 O   0  0  0  0  0  0  0  0  0  0  0  0
  180.2250  179.9890  140.5190 C   0  0  0  0  0  1  0  0  0  0  0  0
  1  8  1  0  0  0  0
  1  6  2  0  0  0  0
  2 12  1  0  0  0  0
  3 14  2  0  0  0  0
  3 10  1  0  0  0  0
  4 15  1  0  0  0  0
  4  8  1  0  0  0  0
  5  1  1  0  0  0  0
  7  4  2  0  0  0  0
  9  7  1  0  0  0  0
  9  5  2  0  0  0  0
 10 11  2  0  0  0  0
 11  2  1  0  0  0  0
 11  7  1  0  0  0  0
 12 15  2  0  0  0  0
 13 35  1  0  0  0  0
 13  2  2  0  0  0  0
 14 13  1  0  0  0  0
 16 17  1  6  0  0  0
 16  3  1  0  0  0  0
 18 16  1  0  0  0  0
 19 18  1  0  0  0  0
 19 20  2  0  0  0  0
 21 19  1  0  0  0  0
 22 21  1  0  0  0  0
 23 22  1  0  0  0  0
 23 25  2  0  0  0  0
 24 23  2  0  0  0  0
 26 23  1  1  0  0  0
 26 30  1  0  0  0  0
 26 31  1  0  0  0  0
 27 29  1  0  0  0  0
 27 31  1  0  0  0  0
 28 29  2  0  0  0  0
 30 28  1  0  0  0  0
 32 34  1  0  0  0  0
 32 22  1  0  0  0  0
 34 33  1  0  0  0  0
 36 39  1  0  0  0  0
 37 36  2  0  0  0  0
 38 40  1  0  0  0  0
 40 39  2  0  0  0  0
 40 35  1  0  0  0  0
 41 37  1  0  0  0  0
 41 38  2  0  0  0  0
 42 37  1  0  0  0  0
 43 42  1  0  0  0  0
M  END
>  <MODEL>
1

>  <REMARK>
 VINA RESULT:      -8.9      0.000      0.000
  Name = 
  12 active torsions:
  status: ('A' for Active; 'I' for Inactive)
    1  A    between atoms: O_1  and  C_34
    2  A    between atoms: O_1  and  C_35
    3  A    between atoms: C_2  and  C_6
    4  A    between atoms: C_2  and  C_13
    5  A    between atoms: C_3  and  N_4
    6  A    between atoms: C_3  and  C_12
    7  A    between atoms: N_4  and  S_14
    8  A    between atoms: N_4  and  C_15
    9  A    between atoms: C_6  and  C_12
   10  A    between atoms: C_11  and  S_14
   11  A    between atoms: C_15  and  C_42
   12  A    between atoms: C_19  and  O_25
                            x       y       z     vdW  Elec       q    Type
                         _______ _______ _______ _____ _____    ______ ____

>  <TORSDO>
F 12

$$$$
=
 OpenBabel10262422273D

 43 47  0  0  1  0  0  0  0  0999 V2000
  190.8910  176.5370  146.3850 C   0  0  0  0  0  0  0  0  0  0  0  0
  188.4770  178.0800  142.2810 C   0  0  0  0  0  0  0  0  0  0  0  0
  185.8230  178.6540  143.0000 C   0  0  0  0  0  0  0  0  0  0  0  0
  190.3070  177.1750  144.1750 C   0  0  0  0  0  0  0  0  0  0  0  0
  189.5920  176.7900  146.8280 C   0  0  0  0  0  3  0  0  0  0  0  0
  192.0190  176.0030  147.4370 S   0  0  0  0  0  0  0  0  0  0  0  0
  188.9810  177.4450  144.5740 C   0  0  0  0  0  0  0  0  0  0  0  0
  191.2210  176.7320  145.0800 N   0  0  0  0  0  2  0  0  0  0  0  0
  188.6350  177.2450  145.9180 C   0  0  0  0  0  3  0  0  0  0  0  0
  186.7250  178.1920  143.9670 C   0  0  0  0  0  3  0  0  0  0  0  0
  188.0520  177.9040  143.6220 C   0  0  0  0  0  0  0  0  0  0  0  0
  189.7660  177.8080  141.9370 N   0  0  0  0  0  0  0  0  0  0  0  0
  187.5720  178.5330  141.3050 C   0  0  0  0  0  0  0  0  0  0  0  0
  186.2510  178.8220  141.6820 C   0  0  0  0  0  3  0  0  0  0  0  0
  190.6770  177.3650  142.8440 C   0  0  0  0  0  3  0  0  0  0  0  0
  184.4020  178.9630  143.3480 C   0  0  2  0  0  3  0  0  0  0  0  0
  184.0920  178.5440  144.7770 C   0  0  0  0  0  1  0  0  0  0  0  0
  183.4500  178.3010  142.3560 C   0  0  0  0  0  2  0  0  0  0  0  0
  182.1280  179.0020  142.2950 C   0  0  0  0  0  0  0  0  0  0  0  0
  181.7740  179.7150  143.2220 O   0  0  0  0  0  0  0  0  0  0  0  0
  181.3110  178.9340  141.0320 C   0  0  0  0  0  2  0  0  0  0  0  0
  181.9320  178.1920  139.9230 N   0  0  0  0  0  0  0  0  0  0  0  0
  182.5480  179.2580  138.6910 S   0  0  0  0  0  0  0  0  0  0  0  0
  183.6770  180.0940  139.2320 O   0  0  0  0  0  0  0  0  0  0  0  0
  183.0390  178.4560  137.5170 O   0  0  0  0  0  0  0  0  0  0  0  0
  181.2330  180.3360  138.1600 C   0  0  1  0  0  3  0  0  0  0  0  0
  179.7150  180.9550  136.3150 C   0  0  0  0  0  2  0  0  0  0  0  0
  180.6950  182.7350  137.6430 C   0  0  0  0  0  3  0  0  0  0  0  0
  179.8890  182.3430  136.7110 N   0  0  0  0  0  0  0  0  0  0  0  0
  181.6350  181.7960  138.3530 C   0  0  0  0  0  2  0  0  0  0  0  0
  180.9170  180.0950  136.6930 C   0  0  0  0  0  2  0  0  0  0  0  0
  180.9940  177.2480  139.3250 C   0  0  0  0  0  2  0  0  0  0  0  0
  182.8170  175.7060  139.3980 O   0  0  0  0  0  1  0  0  0  0  0  0
  181.4400  175.8210  139.5970 C   0  0  0  0  0  2  0  0  0  0  0  0
  188.0290  178.7080  139.9860 O   0  0  0  0  0  0  0  0  0  0  0  0
  188.4840  176.0180  137.4930 C   0  0  0  0  0  3  0  0  0  0  0  0
  187.3260  176.1410  136.7110 C   0  0  0  0  0  0  0  0  0  0  0  0
  186.6100  177.9950  138.1000 C   0  0  0  0  0  3  0  0  0  0  0  0
  188.7010  176.8800  138.5720 C   0  0  0  0  0  3  0  0  0  0  0  0
  187.7710  177.8790  138.8810 C   0  0  0  0  0  0  0  0  0  0  0  0
  186.3910  177.1340  137.0210 C   0  0  0  0  0  3  0  0  0  0  0  0
  187.0790  175.2940  135.6270 O   0  0  0  0  0  0  0  0  0  0  0  0
  187.2450  173.8840  135.7010 C   0  0  0  0  0  1  0  0  0  0  0  0
  1  5  1  0  0  0  0
  1  6  2  0  0  0  0
  2 11  1  0  0  0  0
  3 16  1  0  0  0  0
  3 10  1  0  0  0  0
  4  7  2  0  0  0  0
  4  8  1  0  0  0  0
  7  9  1  0  0  0  0
  8  1  1  0  0  0  0
  9  5  2  0  0  0  0
 11 10  2  0  0  0  0
 11  7  1  0  0  0  0
 12  2  1  0  0  0  0
 12 15  2  0  0  0  0
 13 14  1  0  0  0  0
 13  2  2  0  0  0  0
 14  3  2  0  0  0  0
 15  4  1  0  0  0  0
 16 17  1  1  0  0  0
 18 16  1  0  0  0  0
 19 18  1  0  0  0  0
 19 20  2  0  0  0  0
 21 19  1  0  0  0  0
 22 21  1  0  0  0  0
 23 24  2  0  0  0  0
 23 22  1  0  0  0  0
 25 23  2  0  0  0  0
 26 30  1  0  0  0  0
 26 23  1  6  0  0  0
 27 31  1  0  0  0  0
 27 29  1  0  0  0  0
 28 30  1  0  0  0  0
 29 28  2  0  0  0  0
 31 26  1  0  0  0  0
 32 34  1  0  0  0  0
 32 22  1  0  0  0  0
 33 34  1  0  0  0  0
 35 13  1  0  0  0  0
 36 39  1  0  0  0  0
 37 41  1  0  0  0  0
 37 36  2  0  0  0  0
 38 40  1  0  0  0  0
 39 40  2  0  0  0  0
 40 35  1  0  0  0  0
 41 38  2  0  0  0  0
 42 43  1  0  0  0  0
 42 37  1  0  0  0  0
M  END
>  <MODEL>
2

>  <REMARK>
 VINA RESULT:      -8.9      3.312      7.088
  Name = 
  12 active torsions:
  status: ('A' for Active; 'I' for Inactive)
    1  A    between atoms: O_1  and  C_34
    2  A    between atoms: O_1  and  C_35
    3  A    between atoms: C_2  and  C_6
    4  A    between atoms: C_2  and  C_13
    5  A    between atoms: C_3  and  N_4
    6  A    between atoms: C_3  and  C_12
    7  A    between atoms: N_4  and  S_14
    8  A    between atoms: N_4  and  C_15
    9  A    between atoms: C_6  and  C_12
   10  A    between atoms: C_11  and  S_14
   11  A    between atoms: C_15  and  C_42
   12  A    between atoms: C_19  and  O_25
                            x       y       z     vdW  Elec       q    Type
                         _______ _______ _______ _____ _____    ______ ____

>  <TORSDO>
F 12

$$$$
=
 OpenBabel10262422273D

 43 47  0  0  1  0  0  0  0  0999 V2000
  191.3370  176.4190  146.9750 C   0  0  0  0  0  0  0  0  0  0  0  0
  187.1760  177.9360  144.6420 C   0  0  0  0  0  0  0  0  0  0  0  0
  187.7420  178.1290  141.8980 C   0  0  0  0  0  0  0  0  0  0  0  0
  189.1320  177.1260  146.4520 C   0  0  0  0  0  0  0  0  0  0  0  0
  191.7070  176.4960  145.6310 C   0  0  0  0  0  3  0  0  0  0  0  0
  192.4300  175.9530  148.0930 S   0  0  0  0  0  0  0  0  0  0  0  0
  189.4580  177.2180  145.0810 C   0  0  0  0  0  0  0  0  0  0  0  0
  190.0700  176.7330  147.3550 N   0  0  0  0  0  2  0  0  0  0  0  0
  190.7640  176.8970  144.6830 C   0  0  0  0  0  3  0  0  0  0  0  0
  188.7430  177.7290  142.7920 C   0  0  0  0  0  3  0  0  0  0  0  0
  188.4730  177.6260  144.1630 C   0  0  0  0  0  0  0  0  0  0  0  0
  186.9030  177.8340  145.9720 N   0  0  0  0  0  0  0  0  0  0  0  0
  186.1710  178.3500  143.7500 C   0  0  0  0  0  0  0  0  0  0  0  0
  186.4680  178.4350  142.3810 C   0  0  0  0  0  3  0  0  0  0  0  0
  187.8410  177.4410  146.8750 C   0  0  0  0  0  3  0  0  0  0  0  0
  188.0110  178.2490  140.4310 C   0  0  2  0  0  3  0  0  0  0  0  0
  186.7160  178.4430  139.6580 C   0  0  0  0  0  1  0  0  0  0  0  0
  188.7850  177.0350  139.9270 C   0  0  0  0  0  2  0  0  0  0  0  0
  190.0700  177.4250  139.2660 C   0  0  0  0  0  0  0  0  0  0  0  0
  191.0820  177.5670  139.9360 O   0  0  0  0  0  0  0  0  0  0  0  0
  190.1380  177.4990  137.7630 C   0  0  0  0  0  2  0  0  0  0  0  0
  189.4320  176.4230  137.0500 N   0  0  0  0  0  0  0  0  0  0  0  0
  190.5060  175.1300  136.5920 S   0  0  0  0  0  0  0  0  0  0  0  0
  190.2590  173.9130  137.4410 O   0  0  0  0  0  0  0  0  0  0  0  0
  190.2970  174.7790  135.1430 O   0  0  0  0  0  0  0  0  0  0  0  0
  192.1860  175.6730  136.8320 C   0  0  1  0  0  3  0  0  0  0  0  0
  194.3060  176.3050  135.7380 C   0  0  0  0  0  2  0  0  0  0  0  0
  194.4090  174.9550  137.7530 C   0  0  0  0  0  3  0  0  0  0  0  0
  195.0020  175.6230  136.8170 N   0  0  0  0  0  0  0  0  0  0  0  0
  192.9220  174.7160  137.7650 C   0  0  0  0  0  2  0  0  0  0  0  0
  192.9130  175.7300  135.4980 C   0  0  0  0  0  2  0  0  0  0  0  0
  188.7490  176.9310  135.8640 C   0  0  0  0  0  2  0  0  0  0  0  0
  186.8830  176.0160  137.0420 O   0  0  0  0  0  1  0  0  0  0  0  0
  187.2490  176.9820  136.1040 C   0  0  0  0  0  2  0  0  0  0  0  0
  184.8910  178.6390  144.2580 O   0  0  0  0  0  0  0  0  0  0  0  0
  181.2770  179.0050  143.5820 C   0  0  0  0  0  3  0  0  0  0  0  0
  181.2200  178.8550  142.1870 C   0  0  0  0  0  0  0  0  0  0  0  0
  183.6250  178.5490  142.1440 C   0  0  0  0  0  3  0  0  0  0  0  0
  182.5020  178.9260  144.2490 C   0  0  0  0  0  3  0  0  0  0  0  0
  183.6850  178.6920  143.5400 C   0  0  0  0  0  0  0  0  0  0  0  0
  182.4010  178.6270  141.4740 C   0  0  0  0  0  3  0  0  0  0  0  0
  180.0120  178.9300  141.4900 O   0  0  0  0  0  0  0  0  0  0  0  0
  179.9470  179.0020  140.0720 C   0  0  0  0  0  1  0  0  0  0  0  0
  1  8  1  0  0  0  0
  1  6  2  0  0  0  0
  2 12  1  0  0  0  0
  3 14  2  0  0  0  0
  3 10  1  0  0  0  0
  4 15  1  0  0  0  0
  4  8  1  0  0  0  0
  5  1  1  0  0  0  0
  7  4  2  0  0  0  0
  9  7  1  0  0  0  0
  9  5  2  0  0  0  0
 10 11  2  0  0  0  0
 11  2  1  0  0  0  0
 11  7  1  0  0  0  0
 12 15  2  0  0  0  0
 13 35  1  0  0  0  0
 13  2  2  0  0  0  0
 14 13  1  0  0  0  0
 16 17  1  6  0  0  0
 16  3  1  0  0  0  0
 18 16  1  0  0  0  0
 19 18  1  0  0  0  0
 19 20  2  0  0  0  0
 21 19  1  0  0  0  0
 22 21  1  0  0  0  0
 23 22  1  0  0  0  0
 23 24  2  0  0  0  0
 25 23  2  0  0  0  0
 26 23  1  6  0  0  0
 26 30  1  0  0  0  0
 27 29  1  0  0  0  0
 28 30  1  0  0  0  0
 29 28  2  0  0  0  0
 31 27  1  0  0  0  0
 31 26  1  0  0  0  0
 32 34  1  0  0  0  0
 32 22  1  0  0  0  0
 34 33  1  0  0  0  0
 36 39  1  0  0  0  0
 37 36  2  0  0  0  0
 38 40  1  0  0  0  0
 40 39  2  0  0  0  0
 40 35  1  0  0  0  0
 41 38  2  0  0  0  0
 41 37  1  0  0  0  0
 42 37  1  0  0  0  0
 43 42  1  0  0  0  0
M  END
>  <MODEL>
3

>  <REMARK>
 VINA RESULT:      -8.8      1.695      2.926
  Name = 
  12 active torsions:
  status: ('A' for Active; 'I' for Inactive)
    1  A    between atoms: O_1  and  C_34
    2  A    between atoms: O_1  and  C_35
    3  A    between atoms: C_2  and  C_6
    4  A    between atoms: C_2  and  C_13
    5  A    between atoms: C_3  and  N_4
    6  A    between atoms: C_3  and  C_12
    7  A    between atoms: N_4  and  S_14
    8  A    between atoms: N_4  and  C_15
    9  A    between atoms: C_6  and  C_12
   10  A    between atoms: C_11  and  S_14
   11  A    between atoms: C_15  and  C_42
   12  A    between atoms: C_19  and  O_25
                            x       y       z     vdW  Elec       q    Type
                         _______ _______ _______ _____ _____    ______ ____

>  <TORSDO>
F 12

$$$$
=
 OpenBabel10262422273D

 43 47  0  0  1  0  0  0  0  0999 V2000
  191.1400  176.4960  146.4940 C   0  0  0  0  0  0  0  0  0  0  0  0
  189.2620  177.7610  142.0290 C   0  0  0  0  0  0  0  0  0  0  0  0
  186.5600  178.4380  142.3840 C   0  0  0  0  0  0  0  0  0  0  0  0
  190.8350  176.9710  144.1880 C   0  0  0  0  0  0  0  0  0  0  0  0
  189.8040  176.8060  146.7590 C   0  0  0  0  0  3  0  0  0  0  0  0
  192.1210  176.0250  147.7080 S   0  0  0  0  0  0  0  0  0  0  0  0
  189.4790  177.2960  144.4070 C   0  0  0  0  0  0  0  0  0  0  0  0
  191.6240  176.5840  145.2260 N   0  0  0  0  0  2  0  0  0  0  0  0
  188.9730  177.2070  145.7120 C   0  0  0  0  0  3  0  0  0  0  0  0
  187.3300  178.0350  143.4830 C   0  0  0  0  0  3  0  0  0  0  0  0
  188.6800  177.6970  143.3190 C   0  0  0  0  0  0  0  0  0  0  0  0
  190.5750  177.4390  141.8610 N   0  0  0  0  0  0  0  0  0  0  0  0
  188.4900  178.1540  140.9220 C   0  0  0  0  0  0  0  0  0  0  0  0
  187.1430  178.4950  141.1170 C   0  0  0  0  0  3  0  0  0  0  0  0
  191.3620  177.0510  142.9000 C   0  0  0  0  0  3  0  0  0  0  0  0
  185.1170  178.7990  142.5380 C   0  0  2  0  0  3  0  0  0  0  0  0
  184.6890  178.7070  143.9940 C   0  0  0  0  0  1  0  0  0  0  0  0
  184.2450  177.9200  141.6460 C   0  0  0  0  0  2  0  0  0  0  0  0
  183.6000  178.7040  140.5450 C   0  0  0  0  0  0  0  0  0  0  0  0
  184.1250  179.7290  140.1390 O   0  0  0  0  0  0  0  0  0  0  0  0
  182.3850  178.1460  139.8520 C   0  0  0  0  0  2  0  0  0  0  0  0
  182.4000  176.6900  139.6360 N   0  0  0  0  0  0  0  0  0  0  0  0
  182.8700  176.2780  138.0100 S   0  0  0  0  0  0  0  0  0  0  0  0
  181.7190  176.4770  137.0610 O   0  0  0  0  0  0  0  0  0  0  0  0
  184.0280  177.1360  137.5780 O   0  0  0  0  0  0  0  0  0  0  0  0
  183.3590  174.5650  137.9760 C   0  0  1  0  0  3  0  0  0  0  0  0
  185.1940  172.9710  137.5460 C   0  0  0  0  0  2  0  0  0  0  0  0
  182.9660  172.3940  136.7750 C   0  0  0  0  0  3  0  0  0  0  0  0
  184.2090  172.0850  136.9470 N   0  0  0  0  0  0  0  0  0  0  0  0
  182.4190  173.7650  137.0780 C   0  0  0  0  0  2  0  0  0  0  0  0
  184.7800  174.4370  137.4520 C   0  0  0  0  0  2  0  0  0  0  0  0
  181.1000  176.0970  139.9310 C   0  0  0  0  0  2  0  0  0  0  0  0
  179.4910  176.8510  141.5270 O   0  0  0  0  0  1  0  0  0  0  0  0
  180.1040  177.1780  140.3160 C   0  0  0  0  0  2  0  0  0  0  0  0
  189.1030  178.2170  139.6570 O   0  0  0  0  0  0  0  0  0  0  0  0
  189.3790  175.4890  137.1790 C   0  0  0  0  0  3  0  0  0  0  0  0
  188.2940  175.7520  136.3280 C   0  0  0  0  0  0  0  0  0  0  0  0
  187.7260  177.6810  137.6820 C   0  0  0  0  0  3  0  0  0  0  0  0
  189.6320  176.3190  138.2740 C   0  0  0  0  0  3  0  0  0  0  0  0
  188.8140  177.4250  138.5330 C   0  0  0  0  0  0  0  0  0  0  0  0
  187.4710  176.8510  136.5870 C   0  0  0  0  0  3  0  0  0  0  0  0
  188.0130  174.9400  135.2260 O   0  0  0  0  0  0  0  0  0  0  0  0
  188.2470  173.5380  135.2250 C   0  0  0  0  0  1  0  0  0  0  0  0
  1  5  1  0  0  0  0
  1  6  2  0  0  0  0
  2 11  1  0  0  0  0
  3 16  1  0  0  0  0
  3 10  1  0  0  0  0
  4  7  2  0  0  0  0
  4  8  1  0  0  0  0
  7  9  1  0  0  0  0
  8  1  1  0  0  0  0
  9  5  2  0  0  0  0
 11 10  2  0  0  0  0
 11  7  1  0  0  0  0
 12  2  1  0  0  0  0
 12 15  2  0  0  0  0
 13 14  1  0  0  0  0
 13  2  2  0  0  0  0
 14  3  2  0  0  0  0
 15  4  1  0  0  0  0
 16 17  1  1  0  0  0
 18 16  1  0  0  0  0
 19 18  1  0  0  0  0
 20 19  2  0  0  0  0
 21 19  1  0  0  0  0
 22 21  1  0  0  0  0
 22 32  1  0  0  0  0
 23 22  1  0  0  0  0
 24 23  2  0  0  0  0
 25 23  2  0  0  0  0
 26 23  1  6  0  0  0
 28 29  2  0  0  0  0
 28 30  1  0  0  0  0
 29 27  1  0  0  0  0
 30 26  1  0  0  0  0
 31 27  1  0  0  0  0
 31 26  1  0  0  0  0
 32 34  1  0  0  0  0
 34 33  1  0  0  0  0
 35 13  1  0  0  0  0
 36 39  1  0  0  0  0
 37 41  1  0  0  0  0
 37 36  2  0  0  0  0
 38 40  1  0  0  0  0
 39 40  2  0  0  0  0
 40 35  1  0  0  0  0
 41 38  2  0  0  0  0
 42 37  1  0  0  0  0
 43 42  1  0  0  0  0
M  END
>  <MODEL>
4

>  <REMARK>
 VINA RESULT:      -8.7      2.617      6.268
  Name = 
  12 active torsions:
  status: ('A' for Active; 'I' for Inactive)
    1  A    between atoms: O_1  and  C_34
    2  A    between atoms: O_1  and  C_35
    3  A    between atoms: C_2  and  C_6
    4  A    between atoms: C_2  and  C_13
    5  A    between atoms: C_3  and  N_4
    6  A    between atoms: C_3  and  C_12
    7  A    between atoms: N_4  and  S_14
    8  A    between atoms: N_4  and  C_15
    9  A    between atoms: C_6  and  C_12
   10  A    between atoms: C_11  and  S_14
   11  A    between atoms: C_15  and  C_42
   12  A    between atoms: C_19  and  O_25
                            x       y       z     vdW  Elec       q    Type
                         _______ _______ _______ _____ _____    ______ ____

>  <TORSDO>
F 12

$$$$
=
 OpenBabel10262422273D

 43 47  0  0  1  0  0  0  0  0999 V2000
  190.9400  176.5440  146.4590 C   0  0  0  0  0  0  0  0  0  0  0  0
  188.5620  178.0900  142.3350 C   0  0  0  0  0  0  0  0  0  0  0  0
  185.9170  178.7150  143.0420 C   0  0  0  0  0  0  0  0  0  0  0  0
  190.3730  177.1710  144.2410 C   0  0  0  0  0  0  0  0  0  0  0  0
  189.6440  176.8230  146.8960 C   0  0  0  0  0  3  0  0  0  0  0  0
  192.0560  176.0010  147.5180 S   0  0  0  0  0  0  0  0  0  0  0  0
  189.0500  177.4680  144.6350 C   0  0  0  0  0  0  0  0  0  0  0  0
  191.2760  176.7220  145.1530 N   0  0  0  0  0  2  0  0  0  0  0  0
  188.6970  177.2850  145.9800 C   0  0  0  0  0  3  0  0  0  0  0  0
  186.8080  178.2460  144.0150 C   0  0  0  0  0  3  0  0  0  0  0  0
  188.1310  177.9330  143.6750 C   0  0  0  0  0  0  0  0  0  0  0  0
  189.8470  177.7930  141.9960 N   0  0  0  0  0  0  0  0  0  0  0  0
  187.6670  178.5490  141.3520 C   0  0  0  0  0  0  0  0  0  0  0  0
  186.3500  178.8640  141.7230 C   0  0  0  0  0  3  0  0  0  0  0  0
  190.7490  177.3430  142.9090 C   0  0  0  0  0  3  0  0  0  0  0  0
  184.5000  179.0510  143.3830 C   0  0  2  0  0  3  0  0  0  0  0  0
  184.2500  178.8870  144.8750 C   0  0  0  0  0  1  0  0  0  0  0  0
  183.5330  178.2020  142.5610 C   0  0  0  0  0  2  0  0  0  0  0  0
  182.1460  178.7640  142.5730 C   0  0  0  0  0  0  0  0  0  0  0  0
  181.5220  178.8240  143.6220 O   0  0  0  0  0  0  0  0  0  0  0  0
  181.5850  179.3810  141.3190 C   0  0  0  0  0  2  0  0  0  0  0  0
  181.5430  178.4900  140.1480 N   0  0  0  0  0  0  0  0  0  0  0  0
  182.4890  179.1100  138.8230 S   0  0  0  0  0  0  0  0  0  0  0  0
  181.6250  179.9120  137.8870 O   0  0  0  0  0  0  0  0  0  0  0  0
  183.5980  179.9810  139.3480 O   0  0  0  0  0  0  0  0  0  0  0  0
  183.1890  177.7360  137.9310 C   0  0  1  0  0  3  0  0  0  0  0  0
  183.1180  176.3930  135.8620 C   0  0  0  0  0  2  0  0  0  0  0  0
  183.4310  175.2360  137.9730 C   0  0  0  0  0  3  0  0  0  0  0  0
  183.3680  175.2180  136.6810 N   0  0  0  0  0  0  0  0  0  0  0  0
  183.1400  176.4710  138.7840 C   0  0  0  0  0  2  0  0  0  0  0  0
  182.4170  177.5000  136.6430 C   0  0  0  0  0  2  0  0  0  0  0  0
  180.1710  178.2650  139.7020 C   0  0  0  0  0  2  0  0  0  0  0  0
  179.8500  175.9730  140.2910 O   0  0  0  0  0  1  0  0  0  0  0  0
  179.4760  177.2760  140.6220 C   0  0  0  0  0  2  0  0  0  0  0  0
  188.1300  178.7040  140.0330 O   0  0  0  0  0  0  0  0  0  0  0  0
  186.6580  177.0130  137.0950 C   0  0  0  0  0  3  0  0  0  0  0  0
  187.6290  176.0460  136.7930 C   0  0  0  0  0  0  0  0  0  0  0  0
  188.9610  176.8310  138.6610 C   0  0  0  0  0  3  0  0  0  0  0  0
  186.8400  177.8820  138.1740 C   0  0  0  0  0  3  0  0  0  0  0  0
  187.9880  177.7950  138.9710 C   0  0  0  0  0  0  0  0  0  0  0  0
  188.7800  175.9610  137.5820 C   0  0  0  0  0  3  0  0  0  0  0  0
  187.4770  175.1630  135.7200 O   0  0  0  0  0  0  0  0  0  0  0  0
  188.5570  174.4070  135.1900 C   0  0  0  0  0  1  0  0  0  0  0  0
  1  5  1  0  0  0  0
  1  6  2  0  0  0  0
  2 11  1  0  0  0  0
  3 16  1  0  0  0  0
  3 10  1  0  0  0  0
  4  7  2  0  0  0  0
  4  8  1  0  0  0  0
  7  9  1  0  0  0  0
  8  1  1  0  0  0  0
  9  5  2  0  0  0  0
 11 10  2  0  0  0  0
 11  7  1  0  0  0  0
 12  2  1  0  0  0  0
 12 15  2  0  0  0  0
 13 14  1  0  0  0  0
 13  2  2  0  0  0  0
 14  3  2  0  0  0  0
 15  4  1  0  0  0  0
 16 17  1  1  0  0  0
 18 19  1  0  0  0  0
 18 16  1  0  0  0  0
 19 20  2  0  0  0  0
 21 19  1  0  0  0  0
 22 21  1  0  0  0  0
 23 25  2  0  0  0  0
 23 22  1  0  0  0  0
 24 23  2  0  0  0  0
 26 30  1  0  0  0  0
 26 23  1  1  0  0  0
 27 31  1  0  0  0  0
 27 29  1  0  0  0  0
 28 30  1  0  0  0  0
 29 28  2  0  0  0  0
 31 26  1  0  0  0  0
 32 22  1  0  0  0  0
 32 34  1  0  0  0  0
 33 34  1  0  0  0  0
 35 13  1  0  0  0  0
 36 39  1  0  0  0  0
 37 36  2  0  0  0  0
 37 41  1  0  0  0  0
 38 40  1  0  0  0  0
 39 40  2  0  0  0  0
 40 35  1  0  0  0  0
 41 38  2  0  0  0  0
 42 37  1  0  0  0  0
 43 42  1  0  0  0  0
M  END
>  <MODEL>
5

>  <REMARK>
 VINA RESULT:      -8.5      2.795      6.601
  Name = 
  12 active torsions:
  status: ('A' for Active; 'I' for Inactive)
    1  A    between atoms: O_1  and  C_34
    2  A    between atoms: O_1  and  C_35
    3  A    between atoms: C_2  and  C_6
    4  A    between atoms: C_2  and  C_13
    5  A    between atoms: C_3  and  N_4
    6  A    between atoms: C_3  and  C_12
    7  A    between atoms: N_4  and  S_14
    8  A    between atoms: N_4  and  C_15
    9  A    between atoms: C_6  and  C_12
   10  A    between atoms: C_11  and  S_14
   11  A    between atoms: C_15  and  C_42
   12  A    between atoms: C_19  and  O_25
                            x       y       z     vdW  Elec       q    Type
                         _______ _______ _______ _____ _____    ______ ____

>  <TORSDO>
F 12

$$$$
=
 OpenBabel10262422273D

 43 47  0  0  1  0  0  0  0  0999 V2000
  191.1490  176.5080  146.5850 C   0  0  0  0  0  0  0  0  0  0  0  0
  189.4530  177.8400  142.0680 C   0  0  0  0  0  0  0  0  0  0  0  0
  186.7450  178.5380  142.3290 C   0  0  0  0  0  0  0  0  0  0  0  0
  190.9350  177.0120  144.2750 C   0  0  0  0  0  0  0  0  0  0  0  0
  189.8070  176.8270  146.8040 C   0  0  0  0  0  3  0  0  0  0  0  0
  192.0800  176.0140  147.8310 S   0  0  0  0  0  0  0  0  0  0  0  0
  189.5750  177.3470  144.4470 C   0  0  0  0  0  0  0  0  0  0  0  0
  191.6810  176.6050  145.3380 N   0  0  0  0  0  2  0  0  0  0  0  0
  189.0200  177.2470  145.7300 C   0  0  0  0  0  3  0  0  0  0  0  0
  187.4700  178.1150  143.4510 C   0  0  0  0  0  3  0  0  0  0  0  0
  188.8220  177.7660  143.3350 C   0  0  0  0  0  0  0  0  0  0  0  0
  190.7680  177.5080  141.9460 N   0  0  0  0  0  0  0  0  0  0  0  0
  188.7270  178.2520  140.9370 C   0  0  0  0  0  0  0  0  0  0  0  0
  187.3760  178.6040  141.0850 C   0  0  0  0  0  3  0  0  0  0  0  0
  191.5120  177.1010  143.0090 C   0  0  0  0  0  3  0  0  0  0  0  0
  185.3000  178.9100  142.4320 C   0  0  2  0  0  3  0  0  0  0  0  0
  184.8790  179.0440  143.8870 C   0  0  0  0  0  1  0  0  0  0  0  0
  184.4310  177.8970  141.6920 C   0  0  0  0  0  2  0  0  0  0  0  0
  183.8070  178.4860  140.4650 C   0  0  0  0  0  0  0  0  0  0  0  0
  183.9990  179.6600  140.1880 O   0  0  0  0  0  0  0  0  0  0  0  0
  183.0660  177.5900  139.5080 C   0  0  0  0  0  2  0  0  0  0  0  0
  181.9180  178.2120  138.8280 N   0  0  0  0  0  0  0  0  0  0  0  0
  180.3990  177.6070  139.4280 S   0  0  0  0  0  0  0  0  0  0  0  0
  179.4140  177.4450  138.3010 O   0  0  0  0  0  0  0  0  0  0  0  0
  180.6070  176.2780  140.1030 O   0  0  0  0  0  0  0  0  0  0  0  0
  179.7450  178.7730  140.6050 C   0  0  1  0  0  3  0  0  0  0  0  0
  179.3100  181.1510  141.1010 C   0  0  0  0  0  2  0  0  0  0  0  0
  180.1250  179.7330  142.8950 C   0  0  0  0  0  3  0  0  0  0  0  0
  179.6810  180.8740  142.4800 N   0  0  0  0  0  0  0  0  0  0  0  0
  180.4160  178.5850  141.9630 C   0  0  0  0  0  2  0  0  0  0  0  0
  179.9830  180.1940  140.1220 C   0  0  0  0  0  2  0  0  0  0  0  0
  181.9850  178.0140  137.3840 C   0  0  0  0  0  2  0  0  0  0  0  0
  183.7110  176.9130  136.1540 O   0  0  0  0  0  1  0  0  0  0  0  0
  182.6770  176.6990  137.0660 C   0  0  0  0  0  2  0  0  0  0  0  0
  189.3870  178.3240  139.6970 O   0  0  0  0  0  0  0  0  0  0  0  0
  188.1910  175.9770  137.1040 C   0  0  0  0  0  3  0  0  0  0  0  0
  187.9380  176.8360  136.0230 C   0  0  0  0  0  0  0  0  0  0  0  0
  188.6560  178.7160  137.3740 C   0  0  0  0  0  3  0  0  0  0  0  0
  188.6750  176.4890  138.3120 C   0  0  0  0  0  3  0  0  0  0  0  0
  188.9180  177.8600  138.4560 C   0  0  0  0  0  0  0  0  0  0  0  0
  188.1730  178.2060  136.1660 C   0  0  0  0  0  3  0  0  0  0  0  0
  187.4530  176.3550  134.8040 O   0  0  0  0  0  0  0  0  0  0  0  0
  186.6390  175.1940  134.7040 C   0  0  0  0  0  1  0  0  0  0  0  0
  1  5  1  0  0  0  0
  1  6  2  0  0  0  0
  2 11  1  0  0  0  0
  3 16  1  0  0  0  0
  3 10  1  0  0  0  0
  4  7  2  0  0  0  0
  4  8  1  0  0  0  0
  7  9  1  0  0  0  0
  8  1  1  0  0  0  0
  9  5  2  0  0  0  0
 11 10  2  0  0  0  0
 11  7  1  0  0  0  0
 12  2  1  0  0  0  0
 12 15  2  0  0  0  0
 13 14  1  0  0  0  0
 13  2  2  0  0  0  0
 14  3  2  0  0  0  0
 15  4  1  0  0  0  0
 16 17  1  1  0  0  0
 18 16  1  0  0  0  0
 19 18  1  0  0  0  0
 20 19  2  0  0  0  0
 21 19  1  0  0  0  0
 22 23  1  0  0  0  0
 22 21  1  0  0  0  0
 23 25  2  0  0  0  0
 24 23  2  0  0  0  0
 26 23  1  6  0  0  0
 26 30  1  0  0  0  0
 27 29  1  0  0  0  0
 29 28  2  0  0  0  0
 30 28  1  0  0  0  0
 31 26  1  0  0  0  0
 31 27  1  0  0  0  0
 32 22  1  0  0  0  0
 33 34  1  0  0  0  0
 34 32  1  0  0  0  0
 35 13  1  0  0  0  0
 36 39  1  0  0  0  0
 37 41  1  0  0  0  0
 37 36  2  0  0  0  0
 38 40  1  0  0  0  0
 39 40  2  0  0  0  0
 40 35  1  0  0  0  0
 41 38  2  0  0  0  0
 42 37  1  0  0  0  0
 43 42  1  0  0  0  0
M  END
>  <MODEL>
6

>  <REMARK>
 VINA RESULT:      -8.5      3.136      7.127
  Name = 
  12 active torsions:
  status: ('A' for Active; 'I' for Inactive)
    1  A    between atoms: O_1  and  C_34
    2  A    between atoms: O_1  and  C_35
    3  A    between atoms: C_2  and  C_6
    4  A    between atoms: C_2  and  C_13
    5  A    between atoms: C_3  and  N_4
    6  A    between atoms: C_3  and  C_12
    7  A    between atoms: N_4  and  S_14
    8  A    between atoms: N_4  and  C_15
    9  A    between atoms: C_6  and  C_12
   10  A    between atoms: C_11  and  S_14
   11  A    between atoms: C_15  and  C_42
   12  A    between atoms: C_19  and  O_25
                            x       y       z     vdW  Elec       q    Type
                         _______ _______ _______ _____ _____    ______ ____

>  <TORSDO>
F 12

$$$$
=
 OpenBabel10262422273D

 43 47  0  0  1  0  0  0  0  0999 V2000
  191.3640  176.4540  146.9070 C   0  0  0  0  0  0  0  0  0  0  0  0
  189.6910  177.3780  142.2810 C   0  0  0  0  0  0  0  0  0  0  0  0
  187.0420  178.2880  142.4820 C   0  0  0  0  0  0  0  0  0  0  0  0
  191.1490  176.7060  144.5570 C   0  0  0  0  0  0  0  0  0  0  0  0
  190.0510  176.8890  147.0990 C   0  0  0  0  0  3  0  0  0  0  0  0
  192.2800  176.0420  148.1940 S   0  0  0  0  0  0  0  0  0  0  0  0
  189.8170  177.1520  144.7000 C   0  0  0  0  0  0  0  0  0  0  0  0
  191.8820  176.3720  145.6530 N   0  0  0  0  0  2  0  0  0  0  0  0
  189.2770  177.2380  145.9910 C   0  0  0  0  0  3  0  0  0  0  0  0
  187.7530  177.9460  143.6390 C   0  0  0  0  0  3  0  0  0  0  0  0
  189.0770  177.4930  143.5530 C   0  0  0  0  0  0  0  0  0  0  0  0
  190.9780  176.9440  142.1870 N   0  0  0  0  0  0  0  0  0  0  0  0
  188.9760  177.7090  141.1160 C   0  0  0  0  0  0  0  0  0  0  0  0
  187.6560  178.1680  141.2340 C   0  0  0  0  0  3  0  0  0  0  0  0
  191.7100  176.6100  143.2840 C   0  0  0  0  0  3  0  0  0  0  0  0
  185.6270  178.7680  142.5540 C   0  0  2  0  0  3  0  0  0  0  0  0
  185.0700  178.6000  143.9590 C   0  0  0  0  0  1  0  0  0  0  0  0
  184.7620  178.0490  141.5220 C   0  0  0  0  0  2  0  0  0  0  0  0
  184.1060  179.0070  140.5770 C   0  0  0  0  0  0  0  0  0  0  0  0
  184.7900  179.7060  139.8450 O   0  0  0  0  0  0  0  0  0  0  0  0
  182.6060  178.9980  140.4360 C   0  0  0  0  0  2  0  0  0  0  0  0
  182.1060  179.1710  139.0620 N   0  0  0  0  0  0  0  0  0  0  0  0
  180.7030  180.2020  139.0050 S   0  0  0  0  0  0  0  0  0  0  0  0
  179.4910  179.4210  138.5740 O   0  0  0  0  0  0  0  0  0  0  0  0
  180.4530  180.8040  140.3610 O   0  0  0  0  0  0  0  0  0  0  0  0
  181.0010  181.5040  137.8260 C   0  0  1  0  0  3  0  0  0  0  0  0
  180.4130  183.7940  137.1170 C   0  0  0  0  0  2  0  0  0  0  0  0
  180.7440  182.1080  135.4010 C   0  0  0  0  0  3  0  0  0  0  0  0
  180.5210  183.3360  135.7410 N   0  0  0  0  0  0  0  0  0  0  0  0
  180.8050  180.9860  136.4040 C   0  0  0  0  0  2  0  0  0  0  0  0
  180.0470  182.6620  138.0720 C   0  0  0  0  0  2  0  0  0  0  0  0
  181.7890  177.8860  138.4470 C   0  0  0  0  0  2  0  0  0  0  0  0
  183.9330  177.6170  137.4280 O   0  0  0  0  0  1  0  0  0  0  0  0
  182.5680  177.7170  137.1540 C   0  0  0  0  0  2  0  0  0  0  0  0
  189.6200  177.5930  139.8700 O   0  0  0  0  0  0  0  0  0  0  0  0
  187.8460  178.5840  136.7830 C   0  0  0  0  0  3  0  0  0  0  0  0
  187.8100  177.3790  136.0640 C   0  0  0  0  0  0  0  0  0  0  0  0
  188.9800  176.2820  137.8820 C   0  0  0  0  0  3  0  0  0  0  0  0
  188.4480  178.6330  138.0440 C   0  0  0  0  0  3  0  0  0  0  0  0
  189.0130  177.4840  138.6080 C   0  0  0  0  0  0  0  0  0  0  0  0
  188.3800  176.2310  136.6220 C   0  0  0  0  0  3  0  0  0  0  0  0
  187.2170  177.2960  134.8010 O   0  0  0  0  0  0  0  0  0  0  0  0
  185.8230  177.4810  134.5940 C   0  0  0  0  0  1  0  0  0  0  0  0
  1  5  1  0  0  0  0
  1  6  2  0  0  0  0
  2 11  1  0  0  0  0
  3 16  1  0  0  0  0
  3 10  1  0  0  0  0
  4  7  2  0  0  0  0
  4  8  1  0  0  0  0
  7  9  1  0  0  0  0
  8  1  1  0  0  0  0
  9  5  2  0  0  0  0
 11 10  2  0  0  0  0
 11  7  1  0  0  0  0
 12  2  1  0  0  0  0
 12 15  2  0  0  0  0
 13 14  1  0  0  0  0
 13  2  2  0  0  0  0
 14  3  2  0  0  0  0
 15  4  1  0  0  0  0
 16 17  1  1  0  0  0
 18 16  1  0  0  0  0
 19 18  1  0  0  0  0
 20 19  2  0  0  0  0
 21 19  1  0  0  0  0
 22 21  1  0  0  0  0
 23 22  1  0  0  0  0
 23 25  2  0  0  0  0
 24 23  2  0  0  0  0
 26 31  1  0  0  0  0
 26 23  1  1  0  0  0
 27 31  1  0  0  0  0
 28 29  2  0  0  0  0
 28 30  1  0  0  0  0
 29 27  1  0  0  0  0
 30 26  1  0  0  0  0
 32 22  1  0  0  0  0
 34 33  1  0  0  0  0
 34 32  1  0  0  0  0
 35 13  1  0  0  0  0
 36 39  1  0  0  0  0
 37 41  1  0  0  0  0
 37 36  2  0  0  0  0
 38 40  1  0  0  0  0
 39 40  2  0  0  0  0
 40 35  1  0  0  0  0
 41 38  2  0  0  0  0
 42 37  1  0  0  0  0
 43 42  1  0  0  0  0
M  END
>  <MODEL>
7

>  <REMARK>
 VINA RESULT:      -8.4      3.673      7.226
  Name = 
  12 active torsions:
  status: ('A' for Active; 'I' for Inactive)
    1  A    between atoms: O_1  and  C_34
    2  A    between atoms: O_1  and  C_35
    3  A    between atoms: C_2  and  C_6
    4  A    between atoms: C_2  and  C_13
    5  A    between atoms: C_3  and  N_4
    6  A    between atoms: C_3  and  C_12
    7  A    between atoms: N_4  and  S_14
    8  A    between atoms: N_4  and  C_15
    9  A    between atoms: C_6  and  C_12
   10  A    between atoms: C_11  and  S_14
   11  A    between atoms: C_15  and  C_42
   12  A    between atoms: C_19  and  O_25
                            x       y       z     vdW  Elec       q    Type
                         _______ _______ _______ _____ _____    ______ ____

>  <TORSDO>
F 12

$$$$
=
 OpenBabel10262422273D

 43 47  0  0  1  0  0  0  0  0999 V2000
  191.3780  176.4120  147.0120 C   0  0  0  0  0  0  0  0  0  0  0  0
  187.3050  177.8850  144.5030 C   0  0  0  0  0  0  0  0  0  0  0  0
  187.9640  178.0120  141.7760 C   0  0  0  0  0  0  0  0  0  0  0  0
  189.1950  177.1130  146.3970 C   0  0  0  0  0  0  0  0  0  0  0  0
  191.7940  176.4560  145.6800 C   0  0  0  0  0  3  0  0  0  0  0  0
  192.4300  175.9700  148.1780 S   0  0  0  0  0  0  0  0  0  0  0  0
  189.5680  177.1710  145.0370 C   0  0  0  0  0  0  0  0  0  0  0  0
  190.0990  176.7380  147.3420 N   0  0  0  0  0  2  0  0  0  0  0  0
  190.8850  176.8370  144.6920 C   0  0  0  0  0  3  0  0  0  0  0  0
  188.9330  177.6290  142.7130 C   0  0  0  0  0  3  0  0  0  0  0  0
  188.6160  177.5600  144.0760 C   0  0  0  0  0  0  0  0  0  0  0  0
  186.9850  177.8150  145.8250 N   0  0  0  0  0  0  0  0  0  0  0  0
  186.3320  178.2800  143.5680 C   0  0  0  0  0  0  0  0  0  0  0  0
  186.6760  178.3320  142.2080 C   0  0  0  0  0  3  0  0  0  0  0  0
  187.8910  177.4410  146.7680 C   0  0  0  0  0  3  0  0  0  0  0  0
  188.2840  178.0960  140.3180 C   0  0  2  0  0  3  0  0  0  0  0  0
  187.0150  178.2520  139.4940 C   0  0  0  0  0  1  0  0  0  0  0  0
  189.0900  176.8780  139.8730 C   0  0  0  0  0  2  0  0  0  0  0  0
  190.5030  177.2360  139.5330 C   0  0  0  0  0  0  0  0  0  0  0  0
  191.3160  177.4220  140.4260 O   0  0  0  0  0  0  0  0  0  0  0  0
  190.9450  177.2240  138.0930 C   0  0  0  0  0  2  0  0  0  0  0  0
  191.5050  175.9470  137.6210 N   0  0  0  0  0  0  0  0  0  0  0  0
  193.2460  175.9780  137.5730 S   0  0  0  0  0  0  0  0  0  0  0  0
  193.7280  176.7440  136.3700 O   0  0  0  0  0  0  0  0  0  0  0  0
  193.7830  176.6230  138.8220 O   0  0  0  0  0  0  0  0  0  0  0  0
  193.8430  174.3030  137.4690 C   0  0  1  0  0  3  0  0  0  0  0  0
  195.4550  172.6500  138.3410 C   0  0  0  0  0  2  0  0  0  0  0  0
  195.0270  172.6890  135.9520 C   0  0  0  0  0  3  0  0  0  0  0  0
  195.5960  172.1520  136.9820 N   0  0  0  0  0  0  0  0  0  0  0  0
  194.2390  173.9700  136.0340 C   0  0  0  0  0  2  0  0  0  0  0  0
  195.0500  174.1200  138.3760 C   0  0  0  0  0  2  0  0  0  0  0  0
  190.9890  175.5970  136.3020 C   0  0  0  0  0  2  0  0  0  0  0  0
  190.1770  173.7570  137.5900 O   0  0  0  0  0  1  0  0  0  0  0  0
  190.5040  174.1570  136.2930 C   0  0  0  0  0  2  0  0  0  0  0  0
  185.0370  178.5840  144.0250 O   0  0  0  0  0  0  0  0  0  0  0  0
  181.4580  179.0070  143.2050 C   0  0  0  0  0  3  0  0  0  0  0  0
  181.4420  178.7690  141.8220 C   0  0  0  0  0  0  0  0  0  0  0  0
  183.8360  178.3940  141.8790 C   0  0  0  0  0  3  0  0  0  0  0  0
  182.6580  178.9370  143.9180 C   0  0  0  0  0  3  0  0  0  0  0  0
  183.8560  178.6240  143.2640 C   0  0  0  0  0  0  0  0  0  0  0  0
  182.6370  178.4630  141.1650 C   0  0  0  0  0  3  0  0  0  0  0  0
  180.2580  178.8320  141.0810 O   0  0  0  0  0  0  0  0  0  0  0  0
  179.2850  177.7970  141.0990 C   0  0  0  0  0  1  0  0  0  0  0  0
  1  8  1  0  0  0  0
  1  6  2  0  0  0  0
  2 12  1  0  0  0  0
  3 14  2  0  0  0  0
  3 10  1  0  0  0  0
  4 15  1  0  0  0  0
  4  8  1  0  0  0  0
  5  1  1  0  0  0  0
  7  4  2  0  0  0  0
  9  7  1  0  0  0  0
  9  5  2  0  0  0  0
 10 11  2  0  0  0  0
 11  2  1  0  0  0  0
 11  7  1  0  0  0  0
 12 15  2  0  0  0  0
 13 35  1  0  0  0  0
 13  2  2  0  0  0  0
 14 13  1  0  0  0  0
 16 17  1  6  0  0  0
 16  3  1  0  0  0  0
 18 16  1  0  0  0  0
 19 18  1  0  0  0  0
 19 20  2  0  0  0  0
 21 19  1  0  0  0  0
 22 21  1  0  0  0  0
 23 22  1  0  0  0  0
 23 25  2  0  0  0  0
 24 23  2  0  0  0  0
 26 23  1  6  0  0  0
 26 31  1  0  0  0  0
 27 31  1  0  0  0  0
 28 30  1  0  0  0  0
 28 29  2  0  0  0  0
 29 27  1  0  0  0  0
 30 26  1  0  0  0  0
 32 22  1  0  0  0  0
 34 32  1  0  0  0  0
 34 33  1  0  0  0  0
 36 39  1  0  0  0  0
 37 36  2  0  0  0  0
 38 40  1  0  0  0  0
 40 39  2  0  0  0  0
 40 35  1  0  0  0  0
 41 37  1  0  0  0  0
 41 38  2  0  0  0  0
 42 43  1  0  0  0  0
 42 37  1  0  0  0  0
M  END
>  <MODEL>
8

>  <REMARK>
 VINA RESULT:      -8.4      2.502      3.574
  Name = 
  12 active torsions:
  status: ('A' for Active; 'I' for Inactive)
    1  A    between atoms: O_1  and  C_34
    2  A    between atoms: O_1  and  C_35
    3  A    between atoms: C_2  and  C_6
    4  A    between atoms: C_2  and  C_13
    5  A    between atoms: C_3  and  N_4
    6  A    between atoms: C_3  and  C_12
    7  A    between atoms: N_4  and  S_14
    8  A    between atoms: N_4  and  C_15
    9  A    between atoms: C_6  and  C_12
   10  A    between atoms: C_11  and  S_14
   11  A    between atoms: C_15  and  C_42
   12  A    between atoms: C_19  and  O_25
                            x       y       z     vdW  Elec       q    Type
                         _______ _______ _______ _____ _____    ______ ____

>  <TORSDO>
F 12

$$$$
=
 OpenBabel10262422273D

 43 47  0  0  1  0  0  0  0  0999 V2000
  181.7660  179.1020  139.8430 C   0  0  0  0  0  0  0  0  0  0  0  0
  185.8180  178.2530  142.6570 C   0  0  0  0  0  0  0  0  0  0  0  0
  188.0620  178.2480  140.9680 C   0  0  0  0  0  0  0  0  0  0  0  0
  183.2620  178.6830  141.6380 C   0  0  0  0  0  0  0  0  0  0  0  0
  182.8240  179.1070  138.9310 C   0  0  0  0  0  3  0  0  0  0  0  0
  180.2410  179.3460  139.3200 S   0  0  0  0  0  0  0  0  0  0  0  0
  184.3630  178.6810  140.7550 C   0  0  0  0  0  0  0  0  0  0  0  0
  182.0040  178.8920  141.1660 N   0  0  0  0  0  2  0  0  0  0  0  0
  184.1250  178.8960  139.3900 C   0  0  0  0  0  3  0  0  0  0  0  0
  186.7840  178.4580  140.4330 C   0  0  0  0  0  3  0  0  0  0  0  0
  185.6570  178.4650  141.2650 C   0  0  0  0  0  0  0  0  0  0  0  0
  184.7290  178.2630  143.4750 N   0  0  0  0  0  0  0  0  0  0  0  0
  187.0970  178.0310  143.1960 C   0  0  0  0  0  0  0  0  0  0  0  0
  188.2090  178.0380  142.3400 C   0  0  0  0  0  3  0  0  0  0  0  0
  183.4720  178.4720  143.0000 C   0  0  0  0  0  3  0  0  0  0  0  0
  189.2770  178.2320  140.0950 C   0  0  2  0  0  3  0  0  0  0  0  0
  189.0090  178.9550  138.7840 C   0  0  0  0  0  1  0  0  0  0  0  0
  189.7470  176.8010  139.8550 C   0  0  0  0  0  2  0  0  0  0  0  0
  191.1880  176.7450  139.4530 C   0  0  0  0  0  0  0  0  0  0  0  0
  192.0130  177.4240  140.0460 O   0  0  0  0  0  0  0  0  0  0  0  0
  191.6310  175.7460  138.4160 C   0  0  0  0  0  2  0  0  0  0  0  0
  191.2180  176.0510  137.0370 N   0  0  0  0  0  0  0  0  0  0  0  0
  190.0520  174.9040  136.4370 S   0  0  0  0  0  0  0  0  0  0  0  0
  190.5440  174.2670  135.1650 O   0  0  0  0  0  0  0  0  0  0  0  0
  189.8060  173.8360  137.4670 O   0  0  0  0  0  0  0  0  0  0  0  0
  188.5270  175.7640  136.1020 C   0  0  1  0  0  3  0  0  0  0  0  0
  187.4910  177.8970  135.4200 C   0  0  0  0  0  2  0  0  0  0  0  0
  186.4290  176.6170  137.1880 C   0  0  0  0  0  3  0  0  0  0  0  0
  186.4340  177.6270  136.3810 N   0  0  0  0  0  0  0  0  0  0  0  0
  187.5880  175.6610  137.3010 C   0  0  0  0  0  2  0  0  0  0  0  0
  188.8060  177.2290  135.8100 C   0  0  0  0  0  2  0  0  0  0  0  0
  192.3660  176.0930  136.1360 C   0  0  0  0  0  2  0  0  0  0  0  0
  193.6700  174.1060  136.3740 O   0  0  0  0  0  1  0  0  0  0  0  0
  193.5690  175.4350  136.7890 C   0  0  0  0  0  2  0  0  0  0  0  0
  187.2230  177.8350  144.5840 O   0  0  0  0  0  0  0  0  0  0  0  0
  189.4620  177.2080  147.4560 C   0  0  0  0  0  3  0  0  0  0  0  0
  190.7060  177.0330  146.8290 C   0  0  0  0  0  0  0  0  0  0  0  0
  189.6480  177.3990  144.6780 C   0  0  0  0  0  3  0  0  0  0  0  0
  188.3210  177.4760  146.6960 C   0  0  0  0  0  3  0  0  0  0  0  0
  188.4040  177.5810  145.3030 C   0  0  0  0  0  0  0  0  0  0  0  0
  190.7910  177.1310  145.4370 C   0  0  0  0  0  3  0  0  0  0  0  0
  191.8650  176.7630  147.5610 O   0  0  0  0  0  0  0  0  0  0  0  0
  192.5590  175.5250  147.4700 C   0  0  0  0  0  1  0  0  0  0  0  0
  1  8  1  0  0  0  0
  2 13  1  0  0  0  0
  2 12  1  0  0  0  0
  3 14  1  0  0  0  0
  4 15  1  0  0  0  0
  5  9  2  0  0  0  0
  5  1  1  0  0  0  0
  6  1  2  0  0  0  0
  7 11  1  0  0  0  0
  7  4  2  0  0  0  0
  8  4  1  0  0  0  0
  9  7  1  0  0  0  0
 10  3  2  0  0  0  0
 10 11  1  0  0  0  0
 11  2  2  0  0  0  0
 13 35  1  0  0  0  0
 14 13  2  0  0  0  0
 15 12  2  0  0  0  0
 16 17  1  6  0  0  0
 16  3  1  0  0  0  0
 18 16  1  0  0  0  0
 19 18  1  0  0  0  0
 19 20  2  0  0  0  0
 21 19  1  0  0  0  0
 22 21  1  0  0  0  0
 23 22  1  0  0  0  0
 23 25  2  0  0  0  0
 24 23  2  0  0  0  0
 26 23  1  1  0  0  0
 26 30  1  0  0  0  0
 27 31  1  0  0  0  0
 27 29  1  0  0  0  0
 28 30  1  0  0  0  0
 29 28  2  0  0  0  0
 31 26  1  0  0  0  0
 32 34  1  0  0  0  0
 32 22  1  0  0  0  0
 33 34  1  0  0  0  0
 35 40  1  0  0  0  0
 37 36  1  0  0  0  0
 37 42  1  0  0  0  0
 38 40  2  0  0  0  0
 38 41  1  0  0  0  0
 39 36  2  0  0  0  0
 40 39  1  0  0  0  0
 41 37  2  0  0  0  0
 43 42  1  0  0  0  0
M  END
>  <MODEL>
9

>  <REMARK>
 VINA RESULT:      -8.4      2.987      6.684
  Name = 
  12 active torsions:
  status: ('A' for Active; 'I' for Inactive)
    1  A    between atoms: O_1  and  C_34
    2  A    between atoms: O_1  and  C_35
    3  A    between atoms: C_2  and  C_6
    4  A    between atoms: C_2  and  C_13
    5  A    between atoms: C_3  and  N_4
    6  A    between atoms: C_3  and  C_12
    7  A    between atoms: N_4  and  S_14
    8  A    between atoms: N_4  and  C_15
    9  A    between atoms: C_6  and  C_12
   10  A    between atoms: C_11  and  S_14
   11  A    between atoms: C_15  and  C_42
   12  A    between atoms: C_19  and  O_25
                            x       y       z     vdW  Elec       q    Type
                         _______ _______ _______ _____ _____    ______ ____

>  <TORSDO>
F 12

$$$$
