=
 OpenBabel10252414493D

 34 38  0  0  1  0  0  0  0  0999 V2000
  191.6590  174.6830  137.5470 C   0  0  2  0  0  3  0  0  0  0  0  0
  189.4130  174.0140  136.5410 C   0  0  1  0  0  3  0  0  0  0  0  0
  189.5960  176.0640  137.9910 C   0  0  1  0  0  3  0  0  0  0  0  0
  187.4990  177.3980  138.4090 C   0  0  2  0  0  3  0  0  0  0  0  0
  189.4750  173.8420  135.0340 C   0  0  0  0  0  1  0  0  0  0  0  0
  187.4890  175.5710  136.7010 N   0  0  0  0  0  2  0  0  0  0  0  0
  190.3230  175.1830  136.9710 C   0  0  1  0  0  3  0  0  0  0  0  0
  190.4680  177.2090  138.5100 C   0  0  1  0  0  3  0  0  0  0  0  0
  192.5210  175.8490  138.0420 C   0  0  0  0  0  2  0  0  0  0  0  0
  187.9530  174.2060  136.9790 C   0  0  0  0  0  2  0  0  0  0  0  0
  188.3550  178.5460  138.9570 C   0  0  0  0  0  2  0  0  0  0  0  0
  189.6910  178.0610  139.5330 C   0  0  1  0  0  3  0  0  0  0  0  0
  188.3030  176.6100  137.3640 C   0  0  2  0  0  3  0  0  0  0  0  0
  191.7770  176.6700  139.0880 C   0  0  0  0  0  2  0  0  0  0  0  0
  190.3650  176.1110  142.7500 C   0  0  0  0  0  0  0  0  0  0  0  0
  189.1420  176.2610  143.4100 C   0  0  0  0  0  3  0  0  0  0  0  0
  189.5240  177.4300  140.8920 C   0  0  0  0  0  0  0  0  0  0  0  0
  188.1100  176.9910  142.8140 C   0  0  0  0  0  3  0  0  0  0  0  0
  190.5560  176.6930  141.4940 C   0  0  0  0  0  3  0  0  0  0  0  0
  188.3020  177.5730  141.5570 C   0  0  0  0  0  3  0  0  0  0  0  0
  191.3670  175.4080  143.3300 F   0  0  0  0  0  0  0  0  0  0  0  0
  193.2400  174.6680  135.5600 C   0  0  0  0  0  1  0  0  0  0  0  0
  192.4510  173.8270  136.5550 C   0  0  0  0  0  2  0  0  0  0  0  0
  186.2340  177.9980  137.8150 C   0  0  0  0  0  2  0  0  0  0  0  0
  185.6490  178.9500  138.7410 N   0  0  0  0  0  2  0  0  0  0  0  0
  184.7780  178.8400  140.9000 C   0  0  0  0  0  3  0  0  0  0  0  0
  184.6710  178.5340  139.6490 N   0  0  0  0  0  0  0  0  0  0  0  0
  185.4150  178.7020  144.0130 Cl  0  0  0  0  0  0  0  0  0  0  0  0
  183.7410  178.3950  141.8770 C   0  0  1  0  0  3  0  0  0  0  0  0
  183.8910  179.1510  143.2050 C   0  0  1  0  0  3  0  0  0  0  0  0
  181.4570  179.0590  143.4520 N   0  0  0  0  0  2  0  0  0  0  0  0
  181.3130  178.8780  142.0390 C   0  0  0  0  0  3  0  0  0  0  0  0
  182.3710  178.5850  141.2810 C   0  0  0  0  0  3  0  0  0  0  0  0
  182.7260  178.7970  144.1260 C   0  0  0  0  0  2  0  0  0  0  0  0
  1 23  1  6  0  0  0
  1  9  1  0  0  0  0
  2  5  1  6  0  0  0
  2  7  1  0  0  0  0
  2 10  1  0  0  0  0
  3  8  1  0  0  0  0
  4 11  1  0  0  0  0
  6 10  1  0  0  0  0
  6 13  1  0  0  0  0
  7  1  1  0  0  0  0
  7  3  1  0  0  0  0
  8 14  1  0  0  0  0
  8 12  1  0  0  0  0
  9 14  1  0  0  0  0
 11 12  1  0  0  0  0
 12 17  1  0  0  0  0
 13  3  1  0  0  0  0
 13  4  1  0  0  0  0
 15 21  1  0  0  0  0
 15 16  1  0  0  0  0
 17 19  1  0  0  0  0
 17 20  2  0  0  0  0
 18 16  2  0  0  0  0
 19 15  2  0  0  0  0
 20 18  1  0  0  0  0
 22 23  1  0  0  0  0
 24  4  1  0  0  0  0
 24 25  1  0  0  0  0
 25 27  1  0  0  0  0
 26 29  1  0  0  0  0
 27 26  2  0  0  0  0
 29 30  1  0  0  0  0
 30 28  1  0  0  0  0
 30 34  1  0  0  0  0
 31 34  1  0  0  0  0
 32 31  1  0  0  0  0
 33 29  1  0  0  0  0
 33 32  2  0  0  0  0
M  END
>  <MODEL>
1

>  <REMARK>
 VINA RESULT:      -8.0      0.000      0.000
  Name = 
  6 active torsions:
  status: ('A' for Active; 'I' for Inactive)
    1  A    between atoms: C_1  and  C_19
    2  A    between atoms: C_3  and  C_13
    3  A    between atoms: C_5  and  C_18
    4  A    between atoms: C_12  and  C_28
    5  A    between atoms: N_17  and  N_29
    6  A    between atoms: C_18  and  N_29
                            x       y       z     vdW  Elec       q    Type
                         _______ _______ _______ _____ _____    ______ ____

>  <TORSDO>
F 6

$$$$
=
 OpenBabel10252414493D

 34 38  0  0  1  0  0  0  0  0999 V2000
  186.4770  177.7690  142.8310 C   0  0  2  0  0  3  0  0  0  0  0  0
  188.5410  176.4830  143.6010 C   0  0  1  0  0  3  0  0  0  0  0  0
  188.4530  177.4770  141.2890 C   0  0  1  0  0  3  0  0  0  0  0  0
  190.4500  177.1430  139.7900 C   0  0  2  0  0  3  0  0  0  0  0  0
  189.1110  177.0170  144.9010 C   0  0  0  0  0  1  0  0  0  0  0  0
  190.5920  176.5120  142.2060 N   0  0  0  0  0  2  0  0  0  0  0  0
  188.0100  177.6510  142.7450 C   0  0  1  0  0  3  0  0  0  0  0  0
  187.9040  178.5690  140.3700 C   0  0  1  0  0  3  0  0  0  0  0  0
  185.9560  178.8820  141.9160 C   0  0  0  0  0  2  0  0  0  0  0  0
  189.6070  175.6500  142.8720 C   0  0  0  0  0  2  0  0  0  0  0  0
  189.9020  178.2170  138.8440 C   0  0  0  0  0  2  0  0  0  0  0  0
  188.3760  178.3460  138.9200 C   0  0  1  0  0  3  0  0  0  0  0  0
  189.9880  177.4360  141.2250 C   0  0  2  0  0  3  0  0  0  0  0  0
  186.3800  178.6450  140.4720 C   0  0  0  0  0  2  0  0  0  0  0  0
  187.6490  175.0020  137.2200 C   0  0  0  0  0  0  0  0  0  0  0  0
  186.3310  175.2010  136.7990 C   0  0  0  0  0  3  0  0  0  0  0  0
  187.6770  177.2300  138.1870 C   0  0  0  0  0  0  0  0  0  0  0  0
  185.6860  176.4110  137.0690 C   0  0  0  0  0  3  0  0  0  0  0  0
  188.3210  176.0140  137.9110 C   0  0  0  0  0  3  0  0  0  0  0  0
  186.3590  177.4230  137.7600 C   0  0  0  0  0  3  0  0  0  0  0  0
  188.2720  173.8270  136.9640 F   0  0  0  0  0  0  0  0  0  0  0  0
  184.9020  179.0600  144.3470 C   0  0  0  0  0  1  0  0  0  0  0  0
  185.9770  177.9850  144.2610 C   0  0  0  0  0  2  0  0  0  0  0  0
  191.9670  177.1430  139.6730 C   0  0  0  0  0  2  0  0  0  0  0  0
  192.3740  176.4800  138.4480 N   0  0  0  0  0  2  0  0  0  0  0  0
  193.9170  174.8710  137.7660 C   0  0  0  0  0  3  0  0  0  0  0  0
  193.6880  176.0250  138.3000 N   0  0  0  0  0  0  0  0  0  0  0  0
  195.3230  174.8110  134.9130 Cl  0  0  0  0  0  0  0  0  0  0  0  0
  195.3160  174.3760  137.6100 C   0  0  1  0  0  3  0  0  0  0  0  0
  196.0450  175.1550  136.5070 C   0  0  1  0  0  3  0  0  0  0  0  0
  198.1100  174.9170  137.7990 N   0  0  0  0  0  2  0  0  0  0  0  0
  197.3480  174.7100  138.9940 C   0  0  0  0  0  3  0  0  0  0  0  0
  196.0360  174.4740  138.9290 C   0  0  0  0  0  3  0  0  0  0  0  0
  197.5140  174.7420  136.4780 C   0  0  0  0  0  2  0  0  0  0  0  0
  1 23  1  1  0  0  0
  2  5  1  1  0  0  0
  3  7  1  0  0  0  0
  4 13  1  0  0  0  0
  6 10  1  0  0  0  0
  7  1  1  0  0  0  0
  7  2  1  0  0  0  0
  8 14  1  0  0  0  0
  8  3  1  0  0  0  0
  9  1  1  0  0  0  0
 10  2  1  0  0  0  0
 11 12  1  0  0  0  0
 11  4  1  0  0  0  0
 12  8  1  0  0  0  0
 13  3  1  0  0  0  0
 13  6  1  0  0  0  0
 14  9  1  0  0  0  0
 15 19  1  0  0  0  0
 16 18  1  0  0  0  0
 16 15  2  0  0  0  0
 17 12  1  0  0  0  0
 18 20  2  0  0  0  0
 19 17  2  0  0  0  0
 20 17  1  0  0  0  0
 21 15  1  0  0  0  0
 23 22  1  0  0  0  0
 24  4  1  0  0  0  0
 25 24  1  0  0  0  0
 26 27  2  0  0  0  0
 27 25  1  0  0  0  0
 28 30  1  0  0  0  0
 29 26  1  0  0  0  0
 29 33  1  0  0  0  0
 30 29  1  0  0  0  0
 31 32  1  0  0  0  0
 33 32  2  0  0  0  0
 34 30  1  0  0  0  0
 34 31  1  0  0  0  0
M  END
>  <MODEL>
2

>  <REMARK>
 VINA RESULT:      -7.9      4.164      9.400
  Name = 
  6 active torsions:
  status: ('A' for Active; 'I' for Inactive)
    1  A    between atoms: C_1  and  C_19
    2  A    between atoms: C_3  and  C_13
    3  A    between atoms: C_5  and  C_18
    4  A    between atoms: C_12  and  C_28
    5  A    between atoms: N_17  and  N_29
    6  A    between atoms: C_18  and  N_29
                            x       y       z     vdW  Elec       q    Type
                         _______ _______ _______ _____ _____    ______ ____

>  <TORSDO>
F 6

$$$$
=
 OpenBabel10252414493D

 34 38  0  0  1  0  0  0  0  0999 V2000
  182.0580  178.6920  141.0560 C   0  0  2  0  0  3  0  0  0  0  0  0
  183.8260  178.4750  142.8820 C   0  0  1  0  0  3  0  0  0  0  0  0
  184.4960  178.4560  140.4560 C   0  0  1  0  0  3  0  0  0  0  0  0
  186.9450  178.2060  139.9160 C   0  0  2  0  0  3  0  0  0  0  0  0
  183.7610  179.6010  143.8970 C   0  0  0  0  0  1  0  0  0  0  0  0
  186.2290  178.5980  142.2800 N   0  0  0  0  0  2  0  0  0  0  0  0
  183.5030  179.0190  141.4760 C   0  0  1  0  0  3  0  0  0  0  0  0
  184.1930  178.9060  139.0250 C   0  0  1  0  0  3  0  0  0  0  0  0
  181.7740  179.1690  139.6280 C   0  0  0  0  0  2  0  0  0  0  0  0
  185.2010  177.7930  142.9540 C   0  0  0  0  0  2  0  0  0  0  0  0
  186.6560  178.6290  138.4710 C   0  0  0  0  0  2  0  0  0  0  0  0
  185.2180  178.3110  138.0400 C   0  0  1  0  0  3  0  0  0  0  0  0
  185.9240  178.8600  140.8580 C   0  0  2  0  0  3  0  0  0  0  0  0
  182.7560  178.5500  138.6410 C   0  0  0  0  0  2  0  0  0  0  0  0
  183.6740  174.8340  137.6800 C   0  0  0  0  0  0  0  0  0  0  0  0
  184.7570  174.1160  137.1650 C   0  0  0  0  0  3  0  0  0  0  0  0
  185.0320  176.8470  137.7340 C   0  0  0  0  0  0  0  0  0  0  0  0
  185.9770  174.7590  136.9350 C   0  0  0  0  0  3  0  0  0  0  0  0
  183.8110  176.1950  137.9650 C   0  0  0  0  0  3  0  0  0  0  0  0
  186.1130  176.1210  137.2210 C   0  0  0  0  0  3  0  0  0  0  0  0
  182.4910  174.2120  137.8970 F   0  0  0  0  0  0  0  0  0  0  0  0
  179.9300  178.2570  142.3710 C   0  0  0  0  0  1  0  0  0  0  0  0
  181.0160  179.2650  142.0200 C   0  0  0  0  0  2  0  0  0  0  0  0
  188.3700  178.6200  140.2500 C   0  0  0  0  0  2  0  0  0  0  0  0
  189.0260  177.5790  141.0190 N   0  0  0  0  0  2  0  0  0  0  0  0
  189.1100  177.3800  143.3400 C   0  0  0  0  0  3  0  0  0  0  0  0
  189.6040  177.8800  142.2560 N   0  0  0  0  0  0  0  0  0  0  0  0
  187.2860  177.9570  145.8810 Cl  0  0  0  0  0  0  0  0  0  0  0  0
  189.7180  177.7000  144.6650 C   0  0  1  0  0  3  0  0  0  0  0  0
  188.8620  177.1280  145.8040 C   0  0  1  0  0  3  0  0  0  0  0  0
  190.9240  176.7460  147.0670 N   0  0  0  0  0  2  0  0  0  0  0  0
  191.6800  176.7510  145.8510 C   0  0  0  0  0  3  0  0  0  0  0  0
  191.1290  177.1750  144.7120 C   0  0  0  0  0  3  0  0  0  0  0  0
  189.5850  177.3270  147.1330 C   0  0  0  0  0  2  0  0  0  0  0  0
  1  7  1  0  0  0  0
  1 23  1  1  0  0  0
  2 10  1  0  0  0  0
  2  5  1  1  0  0  0
  3 13  1  0  0  0  0
  3  7  1  0  0  0  0
  4 24  1  0  0  0  0
  4 13  1  0  0  0  0
  6 10  1  0  0  0  0
  7  2  1  0  0  0  0
  8  3  1  0  0  0  0
  9  1  1  0  0  0  0
 11  4  1  0  0  0  0
 12 11  1  0  0  0  0
 12  8  1  0  0  0  0
 13  6  1  0  0  0  0
 14  8  1  0  0  0  0
 14  9  1  0  0  0  0
 15 21  1  0  0  0  0
 15 19  1  0  0  0  0
 16 15  2  0  0  0  0
 17 19  2  0  0  0  0
 17 12  1  0  0  0  0
 18 16  1  0  0  0  0
 18 20  2  0  0  0  0
 20 17  1  0  0  0  0
 23 22  1  0  0  0  0
 24 25  1  0  0  0  0
 25 27  1  0  0  0  0
 26 29  1  0  0  0  0
 27 26  2  0  0  0  0
 29 33  1  0  0  0  0
 29 30  1  0  0  0  0
 30 28  1  0  0  0  0
 30 34  1  0  0  0  0
 31 34  1  0  0  0  0
 32 31  1  0  0  0  0
 33 32  2  0  0  0  0
M  END
>  <MODEL>
3

>  <REMARK>
 VINA RESULT:      -7.5      3.736      8.171
  Name = 
  6 active torsions:
  status: ('A' for Active; 'I' for Inactive)
    1  A    between atoms: C_1  and  C_19
    2  A    between atoms: C_3  and  C_13
    3  A    between atoms: C_5  and  C_18
    4  A    between atoms: C_12  and  C_28
    5  A    between atoms: N_17  and  N_29
    6  A    between atoms: C_18  and  N_29
                            x       y       z     vdW  Elec       q    Type
                         _______ _______ _______ _____ _____    ______ ____

>  <TORSDO>
F 6

$$$$
=
 OpenBabel10252414493D

 34 38  0  0  1  0  0  0  0  0999 V2000
  183.0270  177.4050  136.5800 C   0  0  2  0  0  3  0  0  0  0  0  0
  183.4650  178.3370  138.9140 C   0  0  1  0  0  3  0  0  0  0  0  0
  185.3660  177.4490  137.5230 C   0  0  1  0  0  3  0  0  0  0  0  0
  187.6790  177.5070  138.5210 C   0  0  2  0  0  3  0  0  0  0  0  0
  182.9250  179.7430  139.0930 C   0  0  0  0  0  1  0  0  0  0  0  0
  185.8000  178.6910  139.6710 N   0  0  0  0  0  2  0  0  0  0  0  0
  184.0140  178.1670  137.4830 C   0  0  1  0  0  3  0  0  0  0  0  0
  185.9390  177.1880  136.1280 C   0  0  1  0  0  3  0  0  0  0  0  0
  183.6170  177.1740  135.1850 C   0  0  0  0  0  2  0  0  0  0  0  0
  184.5200  178.0470  139.9930 C   0  0  0  0  0  2  0  0  0  0  0  0
  188.2700  177.2210  137.1350 C   0  0  0  0  0  2  0  0  0  0  0  0
  187.2950  176.4630  136.2250 C   0  0  1  0  0  3  0  0  0  0  0  0
  186.3540  178.2680  138.3690 C   0  0  2  0  0  3  0  0  0  0  0  0
  184.9360  176.4170  135.2690 C   0  0  0  0  0  2  0  0  0  0  0  0
  186.0420  173.1030  137.5440 C   0  0  0  0  0  0  0  0  0  0  0  0
  187.1280  172.2770  137.2370 C   0  0  0  0  0  3  0  0  0  0  0  0
  187.2120  175.0010  136.5810 C   0  0  0  0  0  0  0  0  0  0  0  0
  188.2550  172.8100  136.6050 C   0  0  0  0  0  3  0  0  0  0  0  0
  186.0840  174.4610  137.2180 C   0  0  0  0  0  3  0  0  0  0  0  0
  188.2960  174.1690  136.2790 C   0  0  0  0  0  3  0  0  0  0  0  0
  184.9480  172.5850  138.1520 F   0  0  0  0  0  0  0  0  0  0  0  0
  181.4160  178.6720  135.0810 C   0  0  0  0  0  1  0  0  0  0  0  0
  181.6670  178.0980  136.4690 C   0  0  0  0  0  2  0  0  0  0  0  0
  188.7040  178.3070  139.3120 C   0  0  0  0  0  2  0  0  0  0  0  0
  189.0930  177.5800  140.5050 N   0  0  0  0  0  2  0  0  0  0  0  0
  188.6030  177.3190  142.7690 C   0  0  0  0  0  3  0  0  0  0  0  0
  188.8190  178.1090  141.7700 N   0  0  0  0  0  0  0  0  0  0  0  0
  185.6610  178.2510  143.5420 Cl  0  0  0  0  0  0  0  0  0  0  0  0
  188.3030  177.8760  144.1210 C   0  0  1  0  0  3  0  0  0  0  0  0
  186.8920  177.4730  144.5700 C   0  0  1  0  0  3  0  0  0  0  0  0
  187.7270  177.3760  146.8690 N   0  0  0  0  0  2  0  0  0  0  0  0
  189.0630  177.2040  146.3850 C   0  0  0  0  0  3  0  0  0  0  0  0
  189.3510  177.4140  145.1000 C   0  0  0  0  0  3  0  0  0  0  0  0
  186.6720  177.9150  146.0150 C   0  0  0  0  0  2  0  0  0  0  0  0
  1 23  1  6  0  0  0
  1  7  1  0  0  0  0
  2  5  1  6  0  0  0
  2 10  1  0  0  0  0
  3 13  1  0  0  0  0
  4 24  1  0  0  0  0
  6 10  1  0  0  0  0
  7  3  1  0  0  0  0
  7  2  1  0  0  0  0
  8 12  1  0  0  0  0
  8  3  1  0  0  0  0
  9 14  1  0  0  0  0
  9  1  1  0  0  0  0
 11  4  1  0  0  0  0
 12 17  1  0  0  0  0
 12 11  1  0  0  0  0
 13  4  1  0  0  0  0
 13  6  1  0  0  0  0
 14  8  1  0  0  0  0
 15 21  1  0  0  0  0
 16 15  1  0  0  0  0
 17 19  1  0  0  0  0
 18 16  2  0  0  0  0
 19 15  2  0  0  0  0
 20 17  2  0  0  0  0
 20 18  1  0  0  0  0
 22 23  1  0  0  0  0
 24 25  1  0  0  0  0
 25 27  1  0  0  0  0
 26 29  1  0  0  0  0
 27 26  2  0  0  0  0
 28 30  1  0  0  0  0
 29 30  1  0  0  0  0
 29 33  1  0  0  0  0
 30 34  1  0  0  0  0
 32 31  1  0  0  0  0
 33 32  2  0  0  0  0
 34 31  1  0  0  0  0
M  END
>  <MODEL>
4

>  <REMARK>
 VINA RESULT:      -7.5      3.155      6.747
  Name = 
  6 active torsions:
  status: ('A' for Active; 'I' for Inactive)
    1  A    between atoms: C_1  and  C_19
    2  A    between atoms: C_3  and  C_13
    3  A    between atoms: C_5  and  C_18
    4  A    between atoms: C_12  and  C_28
    5  A    between atoms: N_17  and  N_29
    6  A    between atoms: C_18  and  N_29
                            x       y       z     vdW  Elec       q    Type
                         _______ _______ _______ _____ _____    ______ ____

>  <TORSDO>
F 6

$$$$
=
 OpenBabel10252414493D

 34 38  0  0  1  0  0  0  0  0999 V2000
  182.7630  177.3620  136.7830 C   0  0  2  0  0  3  0  0  0  0  0  0
  183.3360  178.3570  139.0600 C   0  0  1  0  0  3  0  0  0  0  0  0
  185.1620  177.5060  137.5500 C   0  0  1  0  0  3  0  0  0  0  0  0
  187.5380  177.6650  138.3740 C   0  0  2  0  0  3  0  0  0  0  0  0
  182.7600  179.7480  139.2520 C   0  0  0  0  0  1  0  0  0  0  0  0
  185.7060  178.8070  139.6370 N   0  0  0  0  0  2  0  0  0  0  0  0
  183.7850  178.1760  137.5960 C   0  0  1  0  0  3  0  0  0  0  0  0
  185.6400  177.2360  136.1220 C   0  0  1  0  0  3  0  0  0  0  0  0
  183.2570  177.1220  135.3520 C   0  0  0  0  0  2  0  0  0  0  0  0
  184.4760  178.1270  140.0640 C   0  0  0  0  0  2  0  0  0  0  0  0
  188.0350  177.3700  136.9540 C   0  0  0  0  0  2  0  0  0  0  0  0
  187.0250  176.5600  136.1320 C   0  0  1  0  0  3  0  0  0  0  0  0
  186.1780  178.3770  138.3060 C   0  0  2  0  0  3  0  0  0  0  0  0
  184.6060  176.4120  135.3530 C   0  0  0  0  0  2  0  0  0  0  0  0
  185.9750  173.1790  137.5680 C   0  0  0  0  0  0  0  0  0  0  0  0
  187.0830  172.3940  137.2330 C   0  0  0  0  0  3  0  0  0  0  0  0
  187.0200  175.1040  136.5200 C   0  0  0  0  0  0  0  0  0  0  0  0
  188.1590  172.9610  136.5450 C   0  0  0  0  0  3  0  0  0  0  0  0
  185.9440  174.5300  137.2150 C   0  0  0  0  0  3  0  0  0  0  0  0
  188.1270  174.3130  136.1910 C   0  0  0  0  0  3  0  0  0  0  0  0
  184.9310  172.6270  138.2310 F   0  0  0  0  0  0  0  0  0  0  0  0
  181.2200  179.0180  135.6330 C   0  0  0  0  0  1  0  0  0  0  0  0
  181.3740  178.0050  136.7590 C   0  0  0  0  0  2  0  0  0  0  0  0
  188.5870  178.5170  139.0720 C   0  0  0  0  0  2  0  0  0  0  0  0
  189.3070  177.7210  140.0490 N   0  0  0  0  0  2  0  0  0  0  0  0
  189.4200  176.8320  142.2010 C   0  0  0  0  0  3  0  0  0  0  0  0
  188.8030  177.5770  141.3450 N   0  0  0  0  0  0  0  0  0  0  0  0
  191.3420  177.0010  144.7300 Cl  0  0  0  0  0  0  0  0  0  0  0  0
  188.8850  176.6680  143.5840 C   0  0  1  0  0  3  0  0  0  0  0  0
  189.6560  177.5570  144.5700 C   0  0  1  0  0  3  0  0  0  0  0  0
  187.5760  177.8470  145.8270 N   0  0  0  0  0  2  0  0  0  0  0  0
  186.8150  177.5100  144.6620 C   0  0  0  0  0  3  0  0  0  0  0  0
  187.4100  176.9750  143.5950 C   0  0  0  0  0  3  0  0  0  0  0  0
  188.9880  177.4940  145.9410 C   0  0  0  0  0  2  0  0  0  0  0  0
  1 23  1  6  0  0  0
  1  7  1  0  0  0  0
  2  5  1  6  0  0  0
  2 10  1  0  0  0  0
  3  7  1  0  0  0  0
  3 13  1  0  0  0  0
  4 24  1  0  0  0  0
  6 10  1  0  0  0  0
  7  2  1  0  0  0  0
  8 12  1  0  0  0  0
  8  3  1  0  0  0  0
  9 14  1  0  0  0  0
  9  1  1  0  0  0  0
 11  4  1  0  0  0  0
 12 17  1  0  0  0  0
 12 11  1  0  0  0  0
 13  4  1  0  0  0  0
 13  6  1  0  0  0  0
 14  8  1  0  0  0  0
 15 21  1  0  0  0  0
 16 15  1  0  0  0  0
 17 19  1  0  0  0  0
 18 16  2  0  0  0  0
 19 15  2  0  0  0  0
 20 17  2  0  0  0  0
 20 18  1  0  0  0  0
 22 23  1  0  0  0  0
 24 25  1  0  0  0  0
 25 27  1  0  0  0  0
 26 29  1  0  0  0  0
 27 26  2  0  0  0  0
 29 33  1  0  0  0  0
 29 30  1  0  0  0  0
 30 28  1  0  0  0  0
 30 34  1  0  0  0  0
 31 34  1  0  0  0  0
 32 31  1  0  0  0  0
 33 32  2  0  0  0  0
M  END
>  <MODEL>
5

>  <REMARK>
 VINA RESULT:      -7.5      3.224      6.875
  Name = 
  6 active torsions:
  status: ('A' for Active; 'I' for Inactive)
    1  A    between atoms: C_1  and  C_19
    2  A    between atoms: C_3  and  C_13
    3  A    between atoms: C_5  and  C_18
    4  A    between atoms: C_12  and  C_28
    5  A    between atoms: N_17  and  N_29
    6  A    between atoms: C_18  and  N_29
                            x       y       z     vdW  Elec       q    Type
                         _______ _______ _______ _____ _____    ______ ____

>  <TORSDO>
F 6

$$$$
=
 OpenBabel10252414493D

 34 38  0  0  1  0  0  0  0  0999 V2000
  186.7080  177.8050  142.8020 C   0  0  2  0  0  3  0  0  0  0  0  0
  188.7720  176.5180  143.5700 C   0  0  1  0  0  3  0  0  0  0  0  0
  188.6660  177.4800  141.2460 C   0  0  1  0  0  3  0  0  0  0  0  0
  190.6470  177.1140  139.7320 C   0  0  2  0  0  3  0  0  0  0  0  0
  189.3590  177.0670  144.8580 C   0  0  0  0  0  1  0  0  0  0  0  0
  190.8090  176.5160  142.1550 N   0  0  0  0  0  2  0  0  0  0  0  0
  188.2390  177.6770  142.7030 C   0  0  1  0  0  3  0  0  0  0  0  0
  188.1140  178.5630  140.3170 C   0  0  1  0  0  3  0  0  0  0  0  0
  186.1830  178.9070  141.8770 C   0  0  0  0  0  2  0  0  0  0  0  0
  189.8270  175.6690  142.8430 C   0  0  0  0  0  2  0  0  0  0  0  0
  190.0960  178.1780  138.7760 C   0  0  0  0  0  2  0  0  0  0  0  0
  188.5710  178.3170  138.8660 C   0  0  1  0  0  3  0  0  0  0  0  0
  190.2010  177.4300  141.1670 C   0  0  2  0  0  3  0  0  0  0  0  0
  186.5920  178.6470  140.4320 C   0  0  0  0  0  2  0  0  0  0  0  0
  185.8740  176.2290  137.1440 C   0  0  0  0  0  0  0  0  0  0  0  0
  186.5860  175.0610  136.8570 C   0  0  0  0  0  3  0  0  0  0  0  0
  187.8590  177.1940  138.1560 C   0  0  0  0  0  0  0  0  0  0  0  0
  187.9320  174.9570  137.2190 C   0  0  0  0  0  3  0  0  0  0  0  0
  186.5070  177.2920  137.7920 C   0  0  0  0  0  3  0  0  0  0  0  0
  188.5660  176.0210  137.8680 C   0  0  0  0  0  3  0  0  0  0  0  0
  184.5710  176.3310  136.7880 F   0  0  0  0  0  0  0  0  0  0  0  0
  184.8720  178.7440  144.2830 C   0  0  0  0  0  1  0  0  0  0  0  0
  186.2230  178.0430  144.2340 C   0  0  0  0  0  2  0  0  0  0  0  0
  192.1630  177.1050  139.6000 C   0  0  0  0  0  2  0  0  0  0  0  0
  192.5450  176.7500  138.2460 N   0  0  0  0  0  2  0  0  0  0  0  0
  194.1980  175.4290  137.2690 C   0  0  0  0  0  3  0  0  0  0  0  0
  193.1260  175.5050  137.9840 N   0  0  0  0  0  0  0  0  0  0  0  0
  196.5090  174.2680  139.1200 Cl  0  0  0  0  0  0  0  0  0  0  0  0
  194.8210  174.1040  136.9800 C   0  0  1  0  0  3  0  0  0  0  0  0
  195.2020  173.3910  138.2840 C   0  0  1  0  0  3  0  0  0  0  0  0
  194.6750  171.2640  137.1940 N   0  0  0  0  0  2  0  0  0  0  0  0
  193.8400  171.9450  136.2510 C   0  0  0  0  0  3  0  0  0  0  0  0
  193.8790  173.2740  136.1470 C   0  0  0  0  0  3  0  0  0  0  0  0
  195.6860  171.9780  137.9690 C   0  0  0  0  0  2  0  0  0  0  0  0
  1 23  1  1  0  0  0
  2  5  1  1  0  0  0
  3  7  1  0  0  0  0
  4 13  1  0  0  0  0
  6 10  1  0  0  0  0
  7  1  1  0  0  0  0
  7  2  1  0  0  0  0
  8 14  1  0  0  0  0
  8  3  1  0  0  0  0
  9  1  1  0  0  0  0
 10  2  1  0  0  0  0
 11 12  1  0  0  0  0
 11  4  1  0  0  0  0
 12  8  1  0  0  0  0
 13  3  1  0  0  0  0
 13  6  1  0  0  0  0
 14  9  1  0  0  0  0
 15 19  1  0  0  0  0
 16 15  2  0  0  0  0
 16 18  1  0  0  0  0
 17 12  1  0  0  0  0
 18 20  2  0  0  0  0
 19 17  2  0  0  0  0
 20 17  1  0  0  0  0
 21 15  1  0  0  0  0
 23 22  1  0  0  0  0
 24  4  1  0  0  0  0
 25 24  1  0  0  0  0
 26 27  2  0  0  0  0
 27 25  1  0  0  0  0
 29 26  1  0  0  0  0
 29 30  1  0  0  0  0
 30 28  1  0  0  0  0
 31 34  1  0  0  0  0
 32 31  1  0  0  0  0
 33 32  2  0  0  0  0
 33 29  1  0  0  0  0
 34 30  1  0  0  0  0
M  END
>  <MODEL>
6

>  <REMARK>
 VINA RESULT:      -7.4      4.071      9.120
  Name = 
  6 active torsions:
  status: ('A' for Active; 'I' for Inactive)
    1  A    between atoms: C_1  and  C_19
    2  A    between atoms: C_3  and  C_13
    3  A    between atoms: C_5  and  C_18
    4  A    between atoms: C_12  and  C_28
    5  A    between atoms: N_17  and  N_29
    6  A    between atoms: C_18  and  N_29
                            x       y       z     vdW  Elec       q    Type
                         _______ _______ _______ _____ _____    ______ ____

>  <TORSDO>
F 6

$$$$
=
 OpenBabel10252414493D

 34 38  0  0  1  0  0  0  0  0999 V2000
  183.0820  176.4380  136.9440 C   0  0  2  0  0  3  0  0  0  0  0  0
  185.4070  177.4540  137.2030 C   0  0  1  0  0  3  0  0  0  0  0  0
  183.6810  177.7540  139.0110 C   0  0  1  0  0  3  0  0  0  0  0  0
  184.3330  179.0870  141.0480 C   0  0  2  0  0  3  0  0  0  0  0  0
  186.5150  176.4310  137.0330 C   0  0  0  0  0  1  0  0  0  0  0  0
  186.0790  178.4340  139.3800 N   0  0  0  0  0  2  0  0  0  0  0  0
  184.2070  176.8100  137.9260 C   0  0  1  0  0  3  0  0  0  0  0  0
  182.4460  177.2030  139.7260 C   0  0  1  0  0  3  0  0  0  0  0  0
  181.8650  175.8720  137.6830 C   0  0  0  0  0  2  0  0  0  0  0  0
  185.9520  178.6880  137.9400 C   0  0  0  0  0  2  0  0  0  0  0  0
  183.0860  178.5660  141.7710 C   0  0  0  0  0  2  0  0  0  0  0  0
  181.9570  178.1900  140.8030 C   0  0  1  0  0  3  0  0  0  0  0  0
  184.8040  178.0490  140.0190 C   0  0  2  0  0  3  0  0  0  0  0  0
  181.3470  176.8620  138.7190 C   0  0  0  0  0  2  0  0  0  0  0  0
  181.0410  181.2530  138.7100 C   0  0  0  0  0  0  0  0  0  0  0  0
  179.8730  181.6730  139.3530 C   0  0  0  0  0  3  0  0  0  0  0  0
  181.2400  179.4060  140.2750 C   0  0  0  0  0  0  0  0  0  0  0  0
  179.3880  180.9640  140.4560 C   0  0  0  0  0  3  0  0  0  0  0  0
  181.7230  180.1240  139.1700 C   0  0  0  0  0  3  0  0  0  0  0  0
  180.0720  179.8340  140.9150 C   0  0  0  0  0  3  0  0  0  0  0  0
  181.5070  181.9380  137.6380 F   0  0  0  0  0  0  0  0  0  0  0  0
  183.6970  174.0410  136.3790 C   0  0  0  0  0  1  0  0  0  0  0  0
  183.5390  175.4620  135.8570 C   0  0  0  0  0  2  0  0  0  0  0  0
  185.3990  179.3710  142.0940 C   0  0  0  0  0  2  0  0  0  0  0  0
  184.8200  179.3230  143.4240 N   0  0  0  0  0  2  0  0  0  0  0  0
  186.3860  177.8540  144.3310 C   0  0  0  0  0  3  0  0  0  0  0  0
  185.5730  178.8430  144.5000 N   0  0  0  0  0  0  0  0  0  0  0  0
  189.2520  176.5560  143.8620 Cl  0  0  0  0  0  0  0  0  0  0  0  0
  187.1890  177.3310  145.4750 C   0  0  1  0  0  3  0  0  0  0  0  0
  188.6880  177.5520  145.2280 C   0  0  1  0  0  3  0  0  0  0  0  0
  188.9650  177.8860  147.6370 N   0  0  0  0  0  2  0  0  0  0  0  0
  187.5780  178.2210  147.7580 C   0  0  0  0  0  3  0  0  0  0  0  0
  186.7330  177.9880  146.7520 C   0  0  0  0  0  3  0  0  0  0  0  0
  189.4730  177.1590  146.4770 C   0  0  0  0  0  2  0  0  0  0  0  0
  1 23  1  6  0  0  0
  1  9  1  0  0  0  0
  1  7  1  0  0  0  0
  2  5  1  1  0  0  0
  2  7  1  0  0  0  0
  2 10  1  0  0  0  0
  3  8  1  0  0  0  0
  3 13  1  0  0  0  0
  4 11  1  0  0  0  0
  4 24  1  0  0  0  0
  6 13  1  0  0  0  0
  7  3  1  0  0  0  0
  8 12  1  0  0  0  0
  9 14  1  0  0  0  0
 10  6  1  0  0  0  0
 12 11  1  0  0  0  0
 13  4  1  0  0  0  0
 14  8  1  0  0  0  0
 15 19  2  0  0  0  0
 15 16  1  0  0  0  0
 16 18  2  0  0  0  0
 17 12  1  0  0  0  0
 17 20  2  0  0  0  0
 18 20  1  0  0  0  0
 19 17  1  0  0  0  0
 21 15  1  0  0  0  0
 23 22  1  0  0  0  0
 24 25  1  0  0  0  0
 25 27  1  0  0  0  0
 26 27  2  0  0  0  0
 26 29  1  0  0  0  0
 28 30  1  0  0  0  0
 29 33  1  0  0  0  0
 30 29  1  0  0  0  0
 30 34  1  0  0  0  0
 31 32  1  0  0  0  0
 33 32  2  0  0  0  0
 34 31  1  0  0  0  0
M  END
>  <MODEL>
7

>  <REMARK>
 VINA RESULT:      -7.4      4.258      7.727
  Name = 
  6 active torsions:
  status: ('A' for Active; 'I' for Inactive)
    1  A    between atoms: C_1  and  C_19
    2  A    between atoms: C_3  and  C_13
    3  A    between atoms: C_5  and  C_18
    4  A    between atoms: C_12  and  C_28
    5  A    between atoms: N_17  and  N_29
    6  A    between atoms: C_18  and  N_29
                            x       y       z     vdW  Elec       q    Type
                         _______ _______ _______ _____ _____    ______ ____

>  <TORSDO>
F 6

$$$$
=
 OpenBabel10252414493D

 34 38  0  0  1  0  0  0  0  0999 V2000
  184.8760  178.1930  145.1660 C   0  0  2  0  0  3  0  0  0  0  0  0
  187.0700  177.0460  144.5530 C   0  0  1  0  0  3  0  0  0  0  0  0
  185.7260  178.2420  142.7920 C   0  0  1  0  0  3  0  0  0  0  0  0
  186.6190  178.2490  140.4350 C   0  0  2  0  0  3  0  0  0  0  0  0
  188.2310  177.5060  145.4130 C   0  0  0  0  0  1  0  0  0  0  0  0
  188.0530  177.4070  142.3040 N   0  0  0  0  0  2  0  0  0  0  0  0
  186.1270  178.2330  144.2700 C   0  0  1  0  0  3  0  0  0  0  0  0
  184.7360  179.3590  142.4550 C   0  0  1  0  0  3  0  0  0  0  0  0
  183.9110  179.3320  144.8210 C   0  0  0  0  0  2  0  0  0  0  0  0
  187.6060  176.3940  143.2680 C   0  0  0  0  0  2  0  0  0  0  0  0
  185.6160  179.3500  140.0730 C   0  0  0  0  0  2  0  0  0  0  0  0
  184.3650  179.3220  140.9590 C   0  0  1  0  0  3  0  0  0  0  0  0
  186.9890  178.3580  141.9220 C   0  0  2  0  0  3  0  0  0  0  0  0
  183.5020  179.2750  143.3540 C   0  0  0  0  0  2  0  0  0  0  0  0
  182.9350  176.1250  139.4320 C   0  0  0  0  0  0  0  0  0  0  0  0
  181.6020  176.2080  139.8440 C   0  0  0  0  0  3  0  0  0  0  0  0
  183.4180  178.2180  140.5650 C   0  0  0  0  0  0  0  0  0  0  0  0
  181.1750  177.2940  140.6140 C   0  0  0  0  0  3  0  0  0  0  0  0
  183.8410  177.1270  139.7900 C   0  0  0  0  0  3  0  0  0  0  0  0
  182.0820  178.2960  140.9710 C   0  0  0  0  0  3  0  0  0  0  0  0
  183.3500  175.0700  138.6910 F   0  0  0  0  0  0  0  0  0  0  0  0
  185.8980  179.5150  147.0770 C   0  0  0  0  0  1  0  0  0  0  0  0
  185.2130  178.2210  146.6580 C   0  0  0  0  0  2  0  0  0  0  0  0
  187.8360  178.4080  139.5370 C   0  0  0  0  0  2  0  0  0  0  0  0
  187.4260  178.4830  138.1470 N   0  0  0  0  0  2  0  0  0  0  0  0
  187.9230  176.3080  137.4740 C   0  0  0  0  0  3  0  0  0  0  0  0
  187.1160  177.3150  137.4430 N   0  0  0  0  0  0  0  0  0  0  0  0
  190.2090  174.6370  136.0230 Cl  0  0  0  0  0  0  0  0  0  0  0  0
  187.6020  175.0600  136.7210 C   0  0  1  0  0  3  0  0  0  0  0  0
  188.7450  174.0430  136.8490 C   0  0  1  0  0  3  0  0  0  0  0  0
  187.0710  172.2580  136.7960 N   0  0  0  0  0  2  0  0  0  0  0  0
  186.0620  173.1800  137.2250 C   0  0  0  0  0  3  0  0  0  0  0  0
  186.2970  174.4940  137.2160 C   0  0  0  0  0  3  0  0  0  0  0  0
  188.3250  172.7220  136.2090 C   0  0  0  0  0  2  0  0  0  0  0  0
  1 23  1  1  0  0  0
  2  5  1  1  0  0  0
  3  7  1  0  0  0  0
  4 13  1  0  0  0  0
  6 10  1  0  0  0  0
  7  2  1  0  0  0  0
  7  1  1  0  0  0  0
  8  3  1  0  0  0  0
  8 14  1  0  0  0  0
  9  1  1  0  0  0  0
 10  2  1  0  0  0  0
 11  4  1  0  0  0  0
 11 12  1  0  0  0  0
 12  8  1  0  0  0  0
 13  6  1  0  0  0  0
 13  3  1  0  0  0  0
 14  9  1  0  0  0  0
 15 19  2  0  0  0  0
 15 16  1  0  0  0  0
 16 18  2  0  0  0  0
 17 12  1  0  0  0  0
 17 20  2  0  0  0  0
 18 20  1  0  0  0  0
 19 17  1  0  0  0  0
 21 15  1  0  0  0  0
 23 22  1  0  0  0  0
 24  4  1  0  0  0  0
 25 24  1  0  0  0  0
 27 26  2  0  0  0  0
 27 25  1  0  0  0  0
 28 30  1  0  0  0  0
 29 30  1  0  0  0  0
 29 33  1  0  0  0  0
 29 26  1  0  0  0  0
 31 32  1  0  0  0  0
 33 32  2  0  0  0  0
 34 31  1  0  0  0  0
 34 30  1  0  0  0  0
M  END
>  <MODEL>
8

>  <REMARK>
 VINA RESULT:      -7.3      3.457      8.281
  Name = 
  6 active torsions:
  status: ('A' for Active; 'I' for Inactive)
    1  A    between atoms: C_1  and  C_19
    2  A    between atoms: C_3  and  C_13
    3  A    between atoms: C_5  and  C_18
    4  A    between atoms: C_12  and  C_28
    5  A    between atoms: N_17  and  N_29
    6  A    between atoms: C_18  and  N_29
                            x       y       z     vdW  Elec       q    Type
                         _______ _______ _______ _____ _____    ______ ____

>  <TORSDO>
F 6

$$$$
=
 OpenBabel10252414493D

 34 38  0  0  1  0  0  0  0  0999 V2000
  192.1570  174.9870  137.8950 C   0  0  2  0  0  3  0  0  0  0  0  0
  190.2290  173.8560  136.6660 C   0  0  1  0  0  3  0  0  0  0  0  0
  189.8800  176.0680  137.8160 C   0  0  1  0  0  3  0  0  0  0  0  0
  187.5810  177.0950  137.7130 C   0  0  2  0  0  3  0  0  0  0  0  0
  190.5710  173.5160  135.2270 C   0  0  0  0  0  1  0  0  0  0  0  0
  188.1120  175.0970  136.3050 N   0  0  0  0  0  2  0  0  0  0  0  0
  190.8840  175.1970  137.0560 C   0  0  1  0  0  3  0  0  0  0  0  0
  190.4850  177.3900  138.2900 C   0  0  1  0  0  3  0  0  0  0  0  0
  192.7540  176.3250  138.3410 C   0  0  0  0  0  2  0  0  0  0  0  0
  188.7030  173.8660  136.8450 C   0  0  0  0  0  2  0  0  0  0  0  0
  188.1660  178.4210  138.2130 C   0  0  0  0  0  2  0  0  0  0  0  0
  189.4360  178.2260  139.0500 C   0  0  1  0  0  3  0  0  0  0  0  0
  188.6510  176.3240  136.9270 C   0  0  2  0  0  3  0  0  0  0  0  0
  191.7370  177.1390  139.1330 C   0  0  0  0  0  2  0  0  0  0  0  0
  187.7760  177.7820  142.4630 C   0  0  0  0  0  0  0  0  0  0  0  0
  188.6150  176.8250  143.0420 C   0  0  0  0  0  3  0  0  0  0  0  0
  189.1260  177.7440  140.4440 C   0  0  0  0  0  0  0  0  0  0  0  0
  189.7080  176.3290  142.3270 C   0  0  0  0  0  3  0  0  0  0  0  0
  188.0310  178.2420  141.1680 C   0  0  0  0  0  3  0  0  0  0  0  0
  189.9620  176.7890  141.0310 C   0  0  0  0  0  3  0  0  0  0  0  0
  186.7140  178.2590  143.1540 F   0  0  0  0  0  0  0  0  0  0  0  0
  194.4950  174.0000  137.9810 C   0  0  0  0  0  1  0  0  0  0  0  0
  193.2160  174.1540  137.1690 C   0  0  0  0  0  2  0  0  0  0  0  0
  186.3660  177.4120  136.8530 C   0  0  0  0  0  2  0  0  0  0  0  0
  185.1950  176.7290  137.3700 N   0  0  0  0  0  2  0  0  0  0  0  0
  184.2650  178.5290  138.5210 C   0  0  0  0  0  3  0  0  0  0  0  0
  184.4970  177.2600  138.4590 N   0  0  0  0  0  0  0  0  0  0  0  0
  181.1490  179.1410  138.3360 Cl  0  0  0  0  0  0  0  0  0  0  0  0
  183.5250  179.1050  139.6820 C   0  0  1  0  0  3  0  0  0  0  0  0
  182.0910  178.5600  139.7340 C   0  0  1  0  0  3  0  0  0  0  0  0
  182.2130  178.6620  142.1760 N   0  0  0  0  0  2  0  0  0  0  0  0
  183.6430  178.6270  142.1140 C   0  0  0  0  0  3  0  0  0  0  0  0
  184.2760  178.8120  140.9550 C   0  0  0  0  0  3  0  0  0  0  0  0
  181.4110  179.0360  141.0140 C   0  0  0  0  0  2  0  0  0  0  0  0
  1 23  1  6  0  0  0
  1  9  1  0  0  0  0
  2  5  1  6  0  0  0
  2 10  1  0  0  0  0
  2  7  1  0  0  0  0
  3  8  1  0  0  0  0
  4 11  1  0  0  0  0
  6 10  1  0  0  0  0
  6 13  1  0  0  0  0
  7  3  1  0  0  0  0
  7  1  1  0  0  0  0
  8 12  1  0  0  0  0
  8 14  1  0  0  0  0
  9 14  1  0  0  0  0
 11 12  1  0  0  0  0
 12 17  1  0  0  0  0
 13  4  1  0  0  0  0
 13  3  1  0  0  0  0
 15 16  1  0  0  0  0
 15 21  1  0  0  0  0
 17 20  2  0  0  0  0
 17 19  1  0  0  0  0
 18 16  2  0  0  0  0
 19 15  2  0  0  0  0
 20 18  1  0  0  0  0
 23 22  1  0  0  0  0
 24 25  1  0  0  0  0
 24  4  1  0  0  0  0
 25 27  1  0  0  0  0
 26 29  1  0  0  0  0
 27 26  2  0  0  0  0
 28 30  1  0  0  0  0
 29 30  1  0  0  0  0
 29 33  1  0  0  0  0
 30 34  1  0  0  0  0
 32 31  1  0  0  0  0
 33 32  2  0  0  0  0
 34 31  1  0  0  0  0
M  END
>  <MODEL>
9

>  <REMARK>
 VINA RESULT:      -7.0      1.907      2.329
  Name = 
  6 active torsions:
  status: ('A' for Active; 'I' for Inactive)
    1  A    between atoms: C_1  and  C_19
    2  A    between atoms: C_3  and  C_13
    3  A    between atoms: C_5  and  C_18
    4  A    between atoms: C_12  and  C_28
    5  A    between atoms: N_17  and  N_29
    6  A    between atoms: C_18  and  N_29
                            x       y       z     vdW  Elec       q    Type
                         _______ _______ _______ _____ _____    ______ ____

>  <TORSDO>
F 6

$$$$
