=
 OpenBabel10262419553D

 25 29  0  0  1  0  0  0  0  0999 V2000
  185.1300  178.3050  144.2670 C   0  0  0  0  0  0  0  0  0  0  0  0
  186.3930  177.9090  144.3850 C   0  0  0  0  0  3  0  0  0  0  0  0
  184.3920  178.8950  146.5080 N   0  0  0  0  0  0  0  0  0  0  0  0
  184.4410  178.3420  143.0750 C   0  0  0  0  0  0  0  0  0  0  0  0
  182.5930  178.6380  141.0340 C   0  0  0  0  0  3  0  0  0  0  0  0
  185.5440  178.6240  147.2700 N   0  0  0  0  0  2  0  0  0  0  0  0
  183.1830  178.8070  143.3510 C   0  0  0  0  0  0  0  0  0  0  0  0
  182.2260  178.9690  142.3510 C   0  0  0  0  0  3  0  0  0  0  0  0
  187.9000  177.9240  147.6930 N   0  0  0  0  0  0  0  0  0  0  0  0
  187.6910  177.5820  149.0900 C   0  0  0  0  0  1  0  0  0  0  0  0
  187.1840  177.8670  145.6100 C   0  0  0  0  0  0  0  0  0  0  0  0
  183.8900  178.1610  140.7490 C   0  0  0  0  0  3  0  0  0  0  0  0
  184.2170  178.7620  145.2260 C   0  0  0  0  0  0  0  0  0  0  0  0
  183.0240  179.0690  144.6590 N   0  0  0  0  0  2  0  0  0  0  0  0
  189.0140  177.5080  147.0320 O   0  0  0  0  0  0  0  0  0  0  0  0
  184.8360  178.0070  141.7790 C   0  0  0  0  0  3  0  0  0  0  0  0
  188.5900  177.3690  145.6820 C   0  0  2  0  0  3  0  0  0  0  0  0
  186.8220  178.1680  146.8200 C   0  0  0  0  0  0  0  0  0  0  0  0
  189.4500  178.1680  144.8220 N   0  0  0  0  0  2  0  0  0  0  0  0
  191.4560  176.7910  144.4550 C   0  0  1  0  0  0  0  0  0  0  0  0
  191.7890  177.2470  145.7360 O   0  0  0  0  0  1  0  0  0  0  0  0
  191.8820  175.3910  144.0690 C   0  0  0  0  0  1  0  0  0  0  0  0
  190.1160  177.2480  143.9050 C   0  0  2  0  0  3  0  0  0  0  0  0
  191.7770  179.2270  143.8210 C   0  0  0  0  0  1  0  0  0  0  0  0
  191.4350  177.8190  143.3360 C   0  0  1  0  0  3  0  0  0  0  0  0
  1  2  2  0  0  0  0
  1 13  1  0  0  0  0
  2 11  1  0  0  0  0
  3  6  1  0  0  0  0
  4  7  1  0  0  0  0
  4  1  1  0  0  0  0
  5  8  1  0  0  0  0
  7 14  1  0  0  0  0
  8  7  2  0  0  0  0
  9 10  1  0  0  0  0
 11 17  1  0  0  0  0
 11 18  2  0  0  0  0
 12  5  2  0  0  0  0
 12 16  1  0  0  0  0
 13  3  2  0  0  0  0
 14 13  1  0  0  0  0
 15  9  1  0  0  0  0
 16  4  2  0  0  0  0
 17 19  1  6  0  0  0
 17 15  1  0  0  0  0
 18  6  1  0  0  0  0
 18  9  1  0  0  0  0
 20 22  1  6  0  0  0
 20 21  1  0  0  0  0
 23 20  1  0  0  0  0
 23 19  1  1  0  0  0
 25 24  1  1  0  0  0
 25 23  1  0  0  0  0
 25 20  1  0  0  0  0
M  END
>  <MODEL>
1

>  <REMARK>
 VINA RESULT:     -10.1      0.000      0.000
  Name = 
  2 active torsions:
  status: ('A' for Active; 'I' for Inactive)
    1  A    between atoms: N_6  and  C_15
    2  A    between atoms: N_6  and  C_23
                            x       y       z     vdW  Elec       q    Type
                         _______ _______ _______ _____ _____    ______ ____

>  <TORSDO>
F 2

$$$$
=
 OpenBabel10262419553D

 25 29  0  0  1  0  0  0  0  0999 V2000
  187.1550  177.7620  145.0490 C   0  0  0  0  0  0  0  0  0  0  0  0
  188.1080  177.2190  144.2970 C   0  0  0  0  0  3  0  0  0  0  0  0
  188.1170  178.0420  147.2640 N   0  0  0  0  0  0  0  0  0  0  0  0
  185.8940  178.0710  144.5910 C   0  0  0  0  0  0  0  0  0  0  0  0
  183.2740  178.9010  144.2540 C   0  0  0  0  0  3  0  0  0  0  0  0
  189.4140  177.5250  147.0820 N   0  0  0  0  0  2  0  0  0  0  0  0
  185.2060  178.6140  145.6430 C   0  0  0  0  0  0  0  0  0  0  0  0
  183.8860  179.0430  145.5120 C   0  0  0  0  0  3  0  0  0  0  0  0
  191.3260  176.5180  145.8360 N   0  0  0  0  0  0  0  0  0  0  0  0
  191.9800  175.9700  147.0120 C   0  0  0  0  0  1  0  0  0  0  0  0
  189.4660  176.8890  144.7140 C   0  0  0  0  0  0  0  0  0  0  0  0
  183.9840  178.3430  143.1690 C   0  0  0  0  0  3  0  0  0  0  0  0
  187.1550  178.1450  146.3960 C   0  0  0  0  0  0  0  0  0  0  0  0
  185.9570  178.6670  146.7560 N   0  0  0  0  0  2  0  0  0  0  0  0
  191.6720  176.1030  144.5880 O   0  0  0  0  0  0  0  0  0  0  0  0
  185.3150  177.9190  143.3300 C   0  0  0  0  0  3  0  0  0  0  0  0
  190.4790  176.2390  143.8280 C   0  0  2  0  0  3  0  0  0  0  0  0
  190.0100  177.0190  145.8850 C   0  0  0  0  0  0  0  0  0  0  0  0
  190.7400  177.0760  142.6660 N   0  0  0  0  0  2  0  0  0  0  0  0
  190.6570  177.0170  140.2080 C   0  0  1  0  0  0  0  0  0  0  0  0
  191.5770  178.0660  140.3270 O   0  0  0  0  0  1  0  0  0  0  0  0
  190.8110  176.0710  139.0360 C   0  0  0  0  0  1  0  0  0  0  0  0
  190.1820  176.3870  141.5060 C   0  0  2  0  0  3  0  0  0  0  0  0
  189.0510  178.6960  141.2290 C   0  0  0  0  0  1  0  0  0  0  0  0
  189.2360  177.2830  140.6740 C   0  0  1  0  0  3  0  0  0  0  0  0
  1 13  1  0  0  0  0
  2 11  1  0  0  0  0
  2  1  2  0  0  0  0
  4  1  1  0  0  0  0
  4  7  1  0  0  0  0
  5  8  1  0  0  0  0
  6  3  1  0  0  0  0
  7 14  1  0  0  0  0
  8  7  2  0  0  0  0
  9 18  1  0  0  0  0
  9 10  1  0  0  0  0
 11 18  2  0  0  0  0
 12 16  1  0  0  0  0
 12  5  2  0  0  0  0
 13 14  1  0  0  0  0
 13  3  2  0  0  0  0
 15  9  1  0  0  0  0
 16  4  2  0  0  0  0
 17 19  1  6  0  0  0
 17 15  1  0  0  0  0
 17 11  1  0  0  0  0
 18  6  1  0  0  0  0
 20 22  1  6  0  0  0
 20 21  1  0  0  0  0
 20 25  1  0  0  0  0
 20 23  1  0  0  0  0
 23 19  1  1  0  0  0
 25 24  1  1  0  0  0
 25 23  1  0  0  0  0
M  END
>  <MODEL>
2

>  <REMARK>
 VINA RESULT:      -9.9      2.286      3.526
  Name = 
  2 active torsions:
  status: ('A' for Active; 'I' for Inactive)
    1  A    between atoms: N_6  and  C_15
    2  A    between atoms: N_6  and  C_23
                            x       y       z     vdW  Elec       q    Type
                         _______ _______ _______ _____ _____    ______ ____

>  <TORSDO>
F 2

$$$$
=
 OpenBabel10262419553D

 25 29  0  0  1  0  0  0  0  0999 V2000
  185.4120  178.6350  141.2930 C   0  0  2  0  0  3  0  0  0  0  0  0
  186.7250  178.4940  141.4460 C   0  0  0  0  0  3  0  0  0  0  0  0
  185.0110  178.6930  138.8950 N   0  0  0  0  0  0  0  0  0  0  0  0
  184.5200  178.7270  142.3370 C   0  0  0  0  0  0  0  0  0  0  0  0
  182.3010  178.9480  143.9800 C   0  0  0  0  0  3  0  0  0  0  0  0
  186.3160  178.5680  138.3830 N   0  0  0  0  0  0  0  0  0  0  0  0
  183.2710  178.8560  141.7900 C   0  0  0  0  0  0  0  0  0  0  0  0
  182.1310  178.9690  142.5840 C   0  0  0  0  0  3  0  0  0  0  0  0
  188.7940  178.2960  138.4630 N   0  0  0  0  0  0  0  0  0  0  0  0
  189.0360  178.8720  137.1500 C   0  0  0  0  0  1  0  0  0  0  0  0
  187.7180  178.3690  140.3840 C   0  0  0  0  0  0  0  0  0  0  0  0
  183.5880  178.8140  144.5440 C   0  0  0  0  0  3  0  0  0  0  0  0
  184.6260  178.7190  140.1370 C   0  0  0  0  0  0  0  0  0  0  0  0
  183.3130  178.8540  140.4470 N   0  0  0  0  0  2  0  0  0  0  0  0
  189.8110  178.1330  139.3520 O   0  0  0  0  0  0  0  0  0  0  0  0
  184.7210  178.7010  143.7190 C   0  0  0  0  0  3  0  0  0  0  0  0
  189.1890  178.2550  140.6240 C   0  0  2  0  0  3  0  0  0  0  0  0
  187.5420  178.4010  139.0990 C   0  0  0  0  0  0  0  0  0  0  0  0
  189.4780  177.0700  141.4180 N   0  0  0  0  0  2  0  0  0  0  0  0
  190.4790  176.3650  143.5520 C   0  0  1  0  0  0  0  0  0  0  0  0
  190.4000  175.0950  142.9670 O   0  0  0  0  0  1  0  0  0  0  0  0
  191.6490  176.6500  144.4680 C   0  0  0  0  0  1  0  0  0  0  0  0
  190.0090  177.5300  142.6980 C   0  0  2  0  0  3  0  0  0  0  0  0
  187.9450  176.2120  143.5280 C   0  0  0  0  0  1  0  0  0  0  0  0
  189.1680  177.0500  143.9030 C   0  0  1  0  0  3  0  0  0  0  0  0
  1  2  1  6  0  0  0
  1  4  1  0  0  0  0
  3 13  2  0  0  0  0
  4 16  1  0  0  0  0
  5 12  1  0  0  0  0
  6  3  1  0  0  0  0
  6 18  2  0  0  0  0
  7  4  2  0  0  0  0
  7  8  1  0  0  0  0
  8  5  2  0  0  0  0
  9 18  1  0  0  0  0
  9 15  1  0  0  0  0
 10  9  1  0  0  0  0
 11 17  1  0  0  0  0
 11  2  2  0  0  0  0
 13 14  1  0  0  0  0
 13  1  1  0  0  0  0
 14  7  1  0  0  0  0
 15 17  1  0  0  0  0
 16 12  2  0  0  0  0
 17 19  1  1  0  0  0
 18 11  1  0  0  0  0
 20 25  1  0  0  0  0
 20 22  1  1  0  0  0
 21 20  1  0  0  0  0
 23 19  1  6  0  0  0
 23 20  1  0  0  0  0
 23 25  1  0  0  0  0
 25 24  1  6  0  0  0
M  END
>  <MODEL>
3

>  <REMARK>
 VINA RESULT:      -9.5      3.559      5.293
  Name = 
  2 active torsions:
  status: ('A' for Active; 'I' for Inactive)
    1  A    between atoms: N_6  and  C_15
    2  A    between atoms: N_6  and  C_23
                            x       y       z     vdW  Elec       q    Type
                         _______ _______ _______ _____ _____    ______ ____

>  <TORSDO>
F 2

$$$$
=
 OpenBabel10262419553D

 25 29  0  0  1  0  0  0  0  0999 V2000
  186.5330  177.8940  143.7050 C   0  0  0  0  0  0  0  0  0  0  0  0
  187.2130  177.5300  142.6220 C   0  0  0  0  0  3  0  0  0  0  0  0
  188.1000  177.7780  145.5610 N   0  0  0  0  0  0  0  0  0  0  0  0
  185.2030  178.2500  143.6970 C   0  0  0  0  0  0  0  0  0  0  0  0
  182.6200  179.0550  144.2920 C   0  0  0  0  0  3  0  0  0  0  0  0
  189.2740  177.3420  144.9180 N   0  0  0  0  0  2  0  0  0  0  0  0
  184.8620  178.5650  144.9860 C   0  0  0  0  0  0  0  0  0  0  0  0
  183.5740  178.9740  145.3240 C   0  0  0  0  0  3  0  0  0  0  0  0
  190.7170  176.6410  143.0080 N   0  0  0  0  0  0  0  0  0  0  0  0
  191.6670  175.9000  143.8210 C   0  0  0  0  0  1  0  0  0  0  0  0
  188.6240  177.1650  142.5600 C   0  0  0  0  0  0  0  0  0  0  0  0
  182.9720  178.7320  142.9640 C   0  0  0  0  0  3  0  0  0  0  0  0
  186.9310  178.0160  145.0420 C   0  0  0  0  0  0  0  0  0  0  0  0
  185.9030  178.4280  145.8240 N   0  0  0  0  0  2  0  0  0  0  0  0
  190.6770  176.4790  141.6580 O   0  0  0  0  0  0  0  0  0  0  0  0
  184.2800  178.3220  142.6510 C   0  0  0  0  0  3  0  0  0  0  0  0
  189.3200  176.7230  141.3140 C   0  0  2  0  0  3  0  0  0  0  0  0
  189.4860  177.0870  143.5280 C   0  0  0  0  0  0  0  0  0  0  0  0
  189.2580  177.7710  140.3060 N   0  0  0  0  0  2  0  0  0  0  0  0
  188.9980  178.1270  137.8860 C   0  0  1  0  0  0  0  0  0  0  0  0
  189.1100  179.4750  138.2500 O   0  0  0  0  0  1  0  0  0  0  0  0
  189.5790  177.7050  136.5530 C   0  0  0  0  0  1  0  0  0  0  0  0
  189.1210  177.1130  139.0100 C   0  0  2  0  0  3  0  0  0  0  0  0
  186.8100  178.2640  139.1640 C   0  0  0  0  0  1  0  0  0  0  0  0
  187.7530  177.3850  138.3420 C   0  0  1  0  0  3  0  0  0  0  0  0
  1 13  1  0  0  0  0
  2  1  2  0  0  0  0
  4  1  1  0  0  0  0
  4  7  1  0  0  0  0
  5  8  1  0  0  0  0
  6  3  1  0  0  0  0
  7  8  2  0  0  0  0
  7 14  1  0  0  0  0
  9 18  1  0  0  0  0
  9 10  1  0  0  0  0
 11  2  1  0  0  0  0
 11 18  2  0  0  0  0
 12  5  2  0  0  0  0
 13  3  2  0  0  0  0
 13 14  1  0  0  0  0
 15  9  1  0  0  0  0
 16 12  1  0  0  0  0
 16  4  2  0  0  0  0
 17 19  1  6  0  0  0
 17 15  1  0  0  0  0
 17 11  1  0  0  0  0
 18  6  1  0  0  0  0
 20 22  1  6  0  0  0
 20 21  1  0  0  0  0
 20 25  1  0  0  0  0
 20 23  1  0  0  0  0
 23 19  1  1  0  0  0
 25 23  1  0  0  0  0
 25 24  1  1  0  0  0
M  END
>  <MODEL>
4

>  <REMARK>
 VINA RESULT:      -9.3      3.337      4.800
  Name = 
  2 active torsions:
  status: ('A' for Active; 'I' for Inactive)
    1  A    between atoms: N_6  and  C_15
    2  A    between atoms: N_6  and  C_23
                            x       y       z     vdW  Elec       q    Type
                         _______ _______ _______ _____ _____    ______ ____

>  <TORSDO>
F 2

$$$$
=
 OpenBabel10262419553D

 25 29  0  0  1  0  0  0  0  0999 V2000
  188.5560  177.6540  144.0780 C   0  0  0  0  0  0  0  0  0  0  0  0
  188.7920  177.9400  142.8010 C   0  0  0  0  0  3  0  0  0  0  0  0
  186.1420  177.7360  144.3570 N   0  0  0  0  0  0  0  0  0  0  0  0
  189.5410  177.3790  145.0010 C   0  0  0  0  0  0  0  0  0  0  0  0
  191.0370  176.7520  147.2460 C   0  0  0  0  0  3  0  0  0  0  0  0
  185.7150  178.0790  143.0610 N   0  0  0  0  0  2  0  0  0  0  0  0
  188.9160  177.1280  146.1930 C   0  0  0  0  0  0  0  0  0  0  0  0
  189.6340  176.8090  147.3440 C   0  0  0  0  0  3  0  0  0  0  0  0
  185.9510  178.6280  140.6390 N   0  0  0  0  0  0  0  0  0  0  0  0
  184.6860  179.3360  140.5370 C   0  0  0  0  0  1  0  0  0  0  0  0
  187.7960  178.2170  141.7710 C   0  0  0  0  0  0  0  0  0  0  0  0
  191.6800  177.0100  146.0160 C   0  0  0  0  0  3  0  0  0  0  0  0
  187.3550  177.5520  144.7900 C   0  0  0  0  0  0  0  0  0  0  0  0
  187.5800  177.2290  146.0870 N   0  0  0  0  0  2  0  0  0  0  0  0
  186.8990  178.7470  139.6710 O   0  0  0  0  0  0  0  0  0  0  0  0
  190.9300  177.3290  144.8710 C   0  0  0  0  0  3  0  0  0  0  0  0
  188.1300  178.5750  140.3600 C   0  0  2  0  0  3  0  0  0  0  0  0
  186.5040  178.2750  141.8850 C   0  0  0  0  0  0  0  0  0  0  0  0
  188.8860  177.5010  139.7350 N   0  0  0  0  0  2  0  0  0  0  0  0
  189.1290  177.1040  137.3190 C   0  0  1  0  0  0  0  0  0  0  0  0
  188.3430  175.9800  137.6020 O   0  0  0  0  0  1  0  0  0  0  0  0
  188.9380  177.7800  135.9780 C   0  0  0  0  0  1  0  0  0  0  0  0
  189.4310  178.0270  138.4870 C   0  0  2  0  0  3  0  0  0  0  0  0
  190.8600  175.8850  138.7180 C   0  0  0  0  0  1  0  0  0  0  0  0
  190.5380  177.1280  137.8890 C   0  0  1  0  0  3  0  0  0  0  0  0
  1 13  1  0  0  0  0
  1  4  1  0  0  0  0
  2  1  2  0  0  0  0
  3 13  2  0  0  0  0
  4  7  1  0  0  0  0
  5  8  1  0  0  0  0
  6  3  1  0  0  0  0
  7  8  2  0  0  0  0
  9 18  1  0  0  0  0
 10  9  1  0  0  0  0
 11 18  2  0  0  0  0
 11  2  1  0  0  0  0
 12  5  2  0  0  0  0
 13 14  1  0  0  0  0
 14  7  1  0  0  0  0
 15 17  1  0  0  0  0
 15  9  1  0  0  0  0
 16  4  2  0  0  0  0
 16 12  1  0  0  0  0
 17 19  1  6  0  0  0
 17 11  1  0  0  0  0
 18  6  1  0  0  0  0
 20 22  1  6  0  0  0
 20 21  1  0  0  0  0
 20 25  1  0  0  0  0
 20 23  1  0  0  0  0
 23 19  1  1  0  0  0
 25 23  1  0  0  0  0
 25 24  1  1  0  0  0
M  END
>  <MODEL>
5

>  <REMARK>
 VINA RESULT:      -9.2      4.180      6.650
  Name = 
  2 active torsions:
  status: ('A' for Active; 'I' for Inactive)
    1  A    between atoms: N_6  and  C_15
    2  A    between atoms: N_6  and  C_23
                            x       y       z     vdW  Elec       q    Type
                         _______ _______ _______ _____ _____    ______ ____

>  <TORSDO>
F 2

$$$$
=
 OpenBabel10262419553D

 25 29  0  0  1  0  0  0  0  0999 V2000
  189.2670  177.4090  142.9160 C   0  0  0  0  0  0  0  0  0  0  0  0
  188.8770  177.1640  141.6690 C   0  0  0  0  0  3  0  0  0  0  0  0
  191.6800  177.6970  142.8270 N   0  0  0  0  0  0  0  0  0  0  0  0
  188.4120  177.4680  143.9940 C   0  0  0  0  0  0  0  0  0  0  0  0
  187.2170  177.7160  146.4800 C   0  0  0  0  0  3  0  0  0  0  0  0
  191.9420  177.5030  141.4580 N   0  0  0  0  0  2  0  0  0  0  0  0
  189.1750  177.7460  145.0970 C   0  0  0  0  0  0  0  0  0  0  0  0
  188.6090  177.8780  146.3640 C   0  0  0  0  0  3  0  0  0  0  0  0
  191.4080  177.0660  139.0610 N   0  0  0  0  0  0  0  0  0  0  0  0
  192.7310  176.5750  138.7140 C   0  0  0  0  0  1  0  0  0  0  0  0
  189.7260  177.1100  140.4840 C   0  0  0  0  0  0  0  0  0  0  0  0
  186.4310  177.4320  145.3420 C   0  0  0  0  0  3  0  0  0  0  0  0
  190.5390  177.6590  143.4480 C   0  0  0  0  0  0  0  0  0  0  0  0
  190.4760  177.8660  144.7870 N   0  0  0  0  0  2  0  0  0  0  0  0
  190.3460  176.8530  138.2370 O   0  0  0  0  0  0  0  0  0  0  0  0
  187.0290  177.3040  144.0760 C   0  0  0  0  0  3  0  0  0  0  0  0
  189.2290  176.7860  139.1130 C   0  0  2  0  0  3  0  0  0  0  0  0
  191.0140  177.2530  140.4000 C   0  0  0  0  0  0  0  0  0  0  0  0
  188.2310  177.7610  138.6980 N   0  0  0  0  0  2  0  0  0  0  0  0
  187.1260  178.2670  136.5580 C   0  0  1  0  0  0  0  0  0  0  0  0
  187.5560  179.5680  136.8450 O   0  0  0  0  0  1  0  0  0  0  0  0
  187.0930  177.8370  135.1070 C   0  0  0  0  0  1  0  0  0  0  0  0
  187.5220  177.1920  137.5560 C   0  0  2  0  0  3  0  0  0  0  0  0
  185.6290  178.6280  138.5750 C   0  0  0  0  0  1  0  0  0  0  0  0
  186.0560  177.6740  137.4600 C   0  0  1  0  0  3  0  0  0  0  0  0
  1 13  1  0  0  0  0
  1  4  1  0  0  0  0
  2  1  2  0  0  0  0
  3 13  2  0  0  0  0
  4 16  2  0  0  0  0
  4  7  1  0  0  0  0
  6  3  1  0  0  0  0
  7  8  2  0  0  0  0
  8  5  1  0  0  0  0
  9 18  1  0  0  0  0
 10  9  1  0  0  0  0
 11  2  1  0  0  0  0
 12  5  2  0  0  0  0
 13 14  1  0  0  0  0
 14  7  1  0  0  0  0
 15  9  1  0  0  0  0
 15 17  1  0  0  0  0
 16 12  1  0  0  0  0
 17 19  1  6  0  0  0
 17 11  1  0  0  0  0
 18 11  2  0  0  0  0
 18  6  1  0  0  0  0
 20 22  1  6  0  0  0
 20 21  1  0  0  0  0
 20 25  1  0  0  0  0
 20 23  1  0  0  0  0
 23 19  1  1  0  0  0
 25 23  1  0  0  0  0
 25 24  1  1  0  0  0
M  END
>  <MODEL>
6

>  <REMARK>
 VINA RESULT:      -9.0      4.333      7.572
  Name = 
  2 active torsions:
  status: ('A' for Active; 'I' for Inactive)
    1  A    between atoms: N_6  and  C_15
    2  A    between atoms: N_6  and  C_23
                            x       y       z     vdW  Elec       q    Type
                         _______ _______ _______ _____ _____    ______ ____

>  <TORSDO>
F 2

$$$$
=
 OpenBabel10262419553D

 25 29  0  0  1  0  0  0  0  0999 V2000
  187.3680  178.0020  143.9220 C   0  0  0  0  0  0  0  0  0  0  0  0
  187.9070  178.1270  142.7130 C   0  0  0  0  0  3  0  0  0  0  0  0
  184.9640  178.1960  143.6170 N   0  0  0  0  0  0  0  0  0  0  0  0
  188.0970  177.8080  145.0740 C   0  0  0  0  0  0  0  0  0  0  0  0
  188.9980  177.4030  147.6610 C   0  0  0  0  0  3  0  0  0  0  0  0
  184.8660  178.3970  142.2280 N   0  0  0  0  0  2  0  0  0  0  0  0
  187.2010  177.7200  146.1070 C   0  0  0  0  0  0  0  0  0  0  0  0
  187.6170  177.5170  147.4210 C   0  0  0  0  0  3  0  0  0  0  0  0
  185.6830  178.6460  139.8840 N   0  0  0  0  0  0  0  0  0  0  0  0
  184.5200  179.3780  139.4120 C   0  0  0  0  0  1  0  0  0  0  0  0
  187.1920  178.3130  141.4550 C   0  0  0  0  0  0  0  0  0  0  0  0
  189.9210  177.4910  146.5970 C   0  0  0  0  0  3  0  0  0  0  0  0
  186.0310  178.0260  144.3400 C   0  0  0  0  0  0  0  0  0  0  0  0
  185.9340  177.8520  145.6800 N   0  0  0  0  0  2  0  0  0  0  0  0
  186.8330  178.6180  139.1580 O   0  0  0  0  0  0  0  0  0  0  0  0
  189.4730  177.6960  145.2790 C   0  0  0  0  0  3  0  0  0  0  0  0
  187.8600  178.4890  140.1310 C   0  0  2  0  0  3  0  0  0  0  0  0
  185.9140  178.4250  141.2560 C   0  0  0  0  0  0  0  0  0  0  0  0
  188.6750  177.3230  139.8200 N   0  0  0  0  0  2  0  0  0  0  0  0
  190.9310  176.6670  139.0900 C   0  0  1  0  0  0  0  0  0  0  0  0
  190.3470  175.3960  139.0180 O   0  0  0  0  0  1  0  0  0  0  0  0
  191.9990  177.0130  138.0750 C   0  0  0  0  0  1  0  0  0  0  0  0
  190.0140  177.8070  139.4980 C   0  0  2  0  0  3  0  0  0  0  0  0
  190.5560  176.3780  141.5830 C   0  0  0  0  0  1  0  0  0  0  0  0
  191.0920  177.2800  140.4710 C   0  0  1  0  0  3  0  0  0  0  0  0
  1 13  1  0  0  0  0
  1  4  1  0  0  0  0
  2  1  2  0  0  0  0
  3 13  2  0  0  0  0
  4 16  2  0  0  0  0
  4  7  1  0  0  0  0
  6  3  1  0  0  0  0
  7  8  2  0  0  0  0
  8  5  1  0  0  0  0
  9 18  1  0  0  0  0
 10  9  1  0  0  0  0
 11  2  1  0  0  0  0
 12  5  2  0  0  0  0
 13 14  1  0  0  0  0
 14  7  1  0  0  0  0
 15  9  1  0  0  0  0
 15 17  1  0  0  0  0
 16 12  1  0  0  0  0
 17 19  1  6  0  0  0
 17 11  1  0  0  0  0
 18 11  2  0  0  0  0
 18  6  1  0  0  0  0
 20 22  1  6  0  0  0
 20 23  1  0  0  0  0
 20 25  1  0  0  0  0
 21 20  1  0  0  0  0
 23 19  1  1  0  0  0
 23 25  1  0  0  0  0
 25 24  1  1  0  0  0
M  END
>  <MODEL>
7

>  <REMARK>
 VINA RESULT:      -8.9      3.537      5.875
  Name = 
  2 active torsions:
  status: ('A' for Active; 'I' for Inactive)
    1  A    between atoms: N_6  and  C_15
    2  A    between atoms: N_6  and  C_23
                            x       y       z     vdW  Elec       q    Type
                         _______ _______ _______ _____ _____    ______ ____

>  <TORSDO>
F 2

$$$$
=
 OpenBabel10262419553D

 25 29  0  0  1  0  0  0  0  0999 V2000
  187.9430  177.8070  142.0180 C   0  0  2  0  0  3  0  0  0  0  0  0
  188.2750  177.3780  143.2320 C   0  0  0  0  0  3  0  0  0  0  0  0
  185.8560  179.0280  142.2780 N   0  0  0  0  0  0  0  0  0  0  0  0
  188.6860  177.5640  140.8840 C   0  0  0  0  0  0  0  0  0  0  0  0
  189.7340  177.4140  138.3250 C   0  0  0  0  0  3  0  0  0  0  0  0
  185.6190  178.9010  143.6590 N   0  0  0  0  0  0  0  0  0  0  0  0
  188.0350  178.1660  139.8400 C   0  0  0  0  0  0  0  0  0  0  0  0
  188.5310  178.1110  138.5390 C   0  0  0  0  0  3  0  0  0  0  0  0
  186.0730  178.1920  146.0070 N   0  0  0  0  0  0  0  0  0  0  0  0
  184.6870  178.2560  146.4380 C   0  0  0  0  0  1  0  0  0  0  0  0
  187.5460  177.6200  144.4720 C   0  0  0  0  0  0  0  0  0  0  0  0
  190.4050  176.7950  139.4020 C   0  0  0  0  0  3  0  0  0  0  0  0
  186.8490  178.5640  141.5780 C   0  0  0  0  0  0  0  0  0  0  0  0
  186.9100  178.7810  140.2420 N   0  0  0  0  0  2  0  0  0  0  0  0
  187.0070  177.5430  146.7530 O   0  0  0  0  0  0  0  0  0  0  0  0
  189.8810  176.8660  140.7050 C   0  0  0  0  0  3  0  0  0  0  0  0
  187.9510  177.0710  145.8010 C   0  0  2  0  0  3  0  0  0  0  0  0
  186.4300  178.2600  144.6460 C   0  0  0  0  0  0  0  0  0  0  0  0
  189.2780  177.5510  146.1590 N   0  0  0  0  0  2  0  0  0  0  0  0
  191.5190  176.6720  146.6640 C   0  0  1  0  0  0  0  0  0  0  0  0
  191.5900  177.8100  147.4780 O   0  0  0  0  0  1  0  0  0  0  0  0
  192.2260  175.4200  147.1370 C   0  0  0  0  0  1  0  0  0  0  0  0
  190.2100  176.4520  145.9260 C   0  0  2  0  0  3  0  0  0  0  0  0
  191.5060  178.3750  144.7820 C   0  0  0  0  0  1  0  0  0  0  0  0
  191.4790  176.8940  145.1610 C   0  0  1  0  0  3  0  0  0  0  0  0
  1  2  1  1  0  0  0
  2 11  2  0  0  0  0
  3  6  1  0  0  0  0
  4  1  1  0  0  0  0
  5  8  2  0  0  0  0
  5 12  1  0  0  0  0
  6 18  2  0  0  0  0
  7 14  1  0  0  0  0
  7  4  2  0  0  0  0
  8  7  1  0  0  0  0
  9 10  1  0  0  0  0
  9 15  1  0  0  0  0
 11 18  1  0  0  0  0
 11 17  1  0  0  0  0
 12 16  2  0  0  0  0
 13  1  1  0  0  0  0
 13  3  2  0  0  0  0
 14 13  1  0  0  0  0
 16  4  1  0  0  0  0
 17 19  1  1  0  0  0
 17 15  1  0  0  0  0
 18  9  1  0  0  0  0
 20 22  1  1  0  0  0
 20 21  1  0  0  0  0
 23 19  1  1  0  0  0
 23 20  1  0  0  0  0
 25 24  1  1  0  0  0
 25 23  1  0  0  0  0
 25 20  1  0  0  0  0
M  END
>  <MODEL>
8

>  <REMARK>
 VINA RESULT:      -8.8      2.877      4.096
  Name = 
  2 active torsions:
  status: ('A' for Active; 'I' for Inactive)
    1  A    between atoms: N_6  and  C_15
    2  A    between atoms: N_6  and  C_23
                            x       y       z     vdW  Elec       q    Type
                         _______ _______ _______ _____ _____    ______ ____

>  <TORSDO>
F 2

$$$$
=
 OpenBabel10262419553D

 25 29  0  0  1  0  0  0  0  0999 V2000
  188.9050  177.5650  142.5540 C   0  0  0  0  0  0  0  0  0  0  0  0
  188.0550  177.5440  141.5320 C   0  0  0  0  0  3  0  0  0  0  0  0
  191.1320  177.6550  141.5830 N   0  0  0  0  0  0  0  0  0  0  0  0
  188.5210  177.5340  143.8760 C   0  0  0  0  0  0  0  0  0  0  0  0
  188.3650  177.5070  146.6410 C   0  0  0  0  0  3  0  0  0  0  0  0
  190.8450  177.6480  140.2050 N   0  0  0  0  0  2  0  0  0  0  0  0
  189.6650  177.5770  144.6280 C   0  0  0  0  0  0  0  0  0  0  0  0
  189.6270  177.5650  146.0210 C   0  0  0  0  0  3  0  0  0  0  0  0
  189.4160  177.6230  138.1610 N   0  0  0  0  0  0  0  0  0  0  0  0
  190.4400  177.0790  137.2860 C   0  0  0  0  0  1  0  0  0  0  0  0
  188.3950  177.5960  140.1140 C   0  0  0  0  0  0  0  0  0  0  0  0
  187.1870  177.4650  145.8660 C   0  0  0  0  0  3  0  0  0  0  0  0
  190.3040  177.6230  142.5850 C   0  0  0  0  0  0  0  0  0  0  0  0
  190.7660  177.6300  143.8590 N   0  0  0  0  0  2  0  0  0  0  0  0
  188.1080  177.6280  137.7870 O   0  0  0  0  0  0  0  0  0  0  0  0
  187.2550  177.4780  144.4610 C   0  0  0  0  0  3  0  0  0  0  0  0
  187.3910  177.5260  139.0100 C   0  0  2  0  0  3  0  0  0  0  0  0
  189.5690  177.6390  139.5610 C   0  0  0  0  0  0  0  0  0  0  0  0
  186.4530  178.6340  139.1130 N   0  0  0  0  0  2  0  0  0  0  0  0
  184.0510  179.1570  139.0250 C   0  0  1  0  0  0  0  0  0  0  0  0
  184.5180  180.4760  138.9950 O   0  0  0  0  0  1  0  0  0  0  0  0
  182.7920  178.8340  138.2480 C   0  0  0  0  0  1  0  0  0  0  0  0
  185.1100  178.0680  139.0470 C   0  0  2  0  0  3  0  0  0  0  0  0
  185.0000  179.1800  141.3780 C   0  0  0  0  0  1  0  0  0  0  0  0
  184.2680  178.3710  140.3080 C   0  0  1  0  0  3  0  0  0  0  0  0
  1 13  1  0  0  0  0
  1  4  1  0  0  0  0
  2  1  2  0  0  0  0
  3 13  2  0  0  0  0
  4 16  2  0  0  0  0
  4  7  1  0  0  0  0
  6  3  1  0  0  0  0
  7  8  2  0  0  0  0
  8  5  1  0  0  0  0
  9 18  1  0  0  0  0
 10  9  1  0  0  0  0
 11  2  1  0  0  0  0
 12  5  2  0  0  0  0
 13 14  1  0  0  0  0
 14  7  1  0  0  0  0
 15  9  1  0  0  0  0
 15 17  1  0  0  0  0
 16 12  1  0  0  0  0
 17 19  1  1  0  0  0
 17 11  1  0  0  0  0
 18 11  2  0  0  0  0
 18  6  1  0  0  0  0
 20 22  1  6  0  0  0
 20 23  1  0  0  0  0
 20 25  1  0  0  0  0
 21 20  1  0  0  0  0
 23 19  1  1  0  0  0
 23 25  1  0  0  0  0
 25 24  1  1  0  0  0
M  END
>  <MODEL>
9

>  <REMARK>
 VINA RESULT:      -8.8      4.114      7.831
  Name = 
  2 active torsions:
  status: ('A' for Active; 'I' for Inactive)
    1  A    between atoms: N_6  and  C_15
    2  A    between atoms: N_6  and  C_23
                            x       y       z     vdW  Elec       q    Type
                         _______ _______ _______ _____ _____    ______ ____

>  <TORSDO>
F 2

$$$$
