=
 OpenBabel10252414503D

 34 38  0  0  1  0  0  0  0  0999 V2000
  191.9670  175.4550  137.0550 C   0  0  0  0  0  0  0  0  0  0  0  0
  193.1470  176.4240  138.9120 C   0  0  0  0  0  0  0  0  0  0  0  0
  190.8740  177.0120  138.8260 C   0  0  0  0  0  2  0  0  0  0  0  0
  192.9870  177.2930  140.0940 C   0  0  0  0  0  2  0  0  0  0  0  0
  193.1720  174.8250  136.6580 C   0  0  0  0  0  0  0  0  0  0  0  0
  194.2990  175.8200  138.5400 N   0  0  0  0  0  0  0  0  0  0  0  0
  194.3530  175.0160  137.4380 C   0  0  0  0  0  0  0  0  0  0  0  0
  191.5030  177.6840  140.0560 C   0  0  2  0  0  3  0  0  0  0  0  0
  191.9910  176.2580  138.2070 C   0  0  0  0  0  0  0  0  0  0  0  0
  190.0240  176.5080  135.9770 N   0  0  0  0  0  0  0  0  0  0  0  0
  189.6640  174.4880  136.9810 C   0  0  0  0  0  0  0  0  0  0  0  0
  188.8140  176.4460  136.4380 C   0  0  0  0  0  0  0  0  0  0  0  0
  188.4640  175.2320  137.0940 N   0  0  0  0  0  2  0  0  0  0  0  0
  190.7060  175.2480  136.2450 C   0  0  2  0  0  3  0  0  0  0  0  0
  187.9070  177.5350  136.3240 N   0  0  0  0  0  1  0  0  0  0  0  0
  189.8010  173.3200  137.4310 O   0  0  0  0  0  0  0  0  0  0  0  0
  197.7580  174.3200  135.9000 C   0  0  0  0  0  0  0  0  0  0  0  0
  198.0430  173.0870  136.4880 C   0  0  0  0  0  3  0  0  0  0  0  0
  195.6570  174.3840  137.1110 C   0  0  0  0  0  0  0  0  0  0  0  0
  197.1560  172.5250  137.3510 N   0  0  0  0  0  0  0  0  0  0  0  0
  196.5590  174.9620  136.2090 C   0  0  0  0  0  3  0  0  0  0  0  0
  195.9830  173.1370  137.6660 C   0  0  0  0  0  3  0  0  0  0  0  0
  198.7180  174.9400  134.9520 C   0  0  0  0  0  1  0  0  0  0  0  0
  190.2850  176.8180  142.2690 C   0  0  0  0  0  0  0  0  0  0  0  0
  190.8360  177.2060  141.2680 C   0  0  0  0  0  0  0  0  0  0  0  0
  191.3380  176.7210  145.2820 C   0  0  0  0  0  1  0  0  0  0  0  0
  189.6160  176.3530  143.4870 C   0  0  1  0  0  3  0  0  0  0  0  0
  190.0410  177.2300  144.6830 C   0  0  1  0  0  3  0  0  0  0  0  0
  187.6980  177.3990  145.4090 C   0  0  0  0  0  3  0  0  0  0  0  0
  187.3250  177.3940  143.9560 C   0  0  0  0  0  2  0  0  0  0  0  0
  188.0940  176.2800  143.2450 C   0  0  0  0  0  2  0  0  0  0  0  0
  188.9850  177.3080  145.7530 C   0  0  0  0  0  3  0  0  0  0  0  0
  192.8900  172.5750  135.6640 C   0  0  0  0  0  1  0  0  0  0  0  0
  193.1980  174.0340  135.3820 C   0  0  0  0  0  2  0  0  0  0  0  0
  1  9  1  0  0  0  0
  2  4  1  0  0  0  0
  3  8  1  0  0  0  0
  5  1  2  0  0  0  0
  5  7  1  0  0  0  0
  6  2  1  0  0  0  0
  7  6  2  0  0  0  0
  8  4  1  0  0  0  0
  8 25  1  1  0  0  0
  9  3  1  0  0  0  0
  9  2  2  0  0  0  0
 10 14  1  0  0  0  0
 10 12  2  0  0  0  0
 11 13  1  0  0  0  0
 11 16  2  0  0  0  0
 12 13  1  0  0  0  0
 14 11  1  0  0  0  0
 14  1  1  1  0  0  0
 15 12  1  0  0  0  0
 17 21  2  0  0  0  0
 17 18  1  0  0  0  0
 18 20  2  0  0  0  0
 19  7  1  0  0  0  0
 19 22  2  0  0  0  0
 20 22  1  0  0  0  0
 21 19  1  0  0  0  0
 23 17  1  0  0  0  0
 25 24  3  0  0  0  0
 27 24  1  6  0  0  0
 27 28  1  0  0  0  0
 28 26  1  1  0  0  0
 28 32  1  0  0  0  0
 29 32  2  0  0  0  0
 30 29  1  0  0  0  0
 31 27  1  0  0  0  0
 31 30  1  0  0  0  0
 34 33  1  0  0  0  0
 34  5  1  0  0  0  0
M  END
>  <MODEL>
1

>  <REMARK>
 VINA RESULT:      -8.2      0.000      0.000
  Name = 
  5 active torsions:
  status: ('A' for Active; 'I' for Inactive)
    1  A    between atoms: C_3  and  C_13
    2  A    between atoms: C_4  and  C_15
    3  A    between atoms: C_12  and  C_28
    4  A    between atoms: C_17  and  C_29
    5  A    between atoms: C_21  and  C_32
                            x       y       z     vdW  Elec       q    Type
                         _______ _______ _______ _____ _____    ______ ____

>  <TORSDO>
F 5

$$$$
=
 OpenBabel10252414503D

 34 38  0  0  1  0  0  0  0  0999 V2000
  188.1360  176.9900  137.8190 C   0  0  0  0  0  0  0  0  0  0  0  0
  189.8180  176.8740  139.5330 C   0  0  0  0  0  0  0  0  0  0  0  0
  188.0990  178.4060  139.9990 C   0  0  0  0  0  2  0  0  0  0  0  0
  190.2110  177.4220  140.8460 C   0  0  0  0  0  2  0  0  0  0  0  0
  188.8510  176.0060  137.0940 C   0  0  0  0  0  0  0  0  0  0  0  0
  190.5030  175.9310  138.8470 N   0  0  0  0  0  0  0  0  0  0  0  0
  190.0560  175.4680  137.6430 C   0  0  0  0  0  0  0  0  0  0  0  0
  189.0940  178.4230  141.1690 C   0  0  2  0  0  3  0  0  0  0  0  0
  188.6560  177.4050  139.0560 C   0  0  0  0  0  0  0  0  0  0  0  0
  186.4960  178.8200  137.8880 N   0  0  0  0  0  0  0  0  0  0  0  0
  185.6650  176.7170  137.5630 C   0  0  0  0  0  0  0  0  0  0  0  0
  185.3140  178.7180  138.4120 C   0  0  0  0  0  0  0  0  0  0  0  0
  184.6870  177.4470  138.2810 N   0  0  0  0  0  2  0  0  0  0  0  0
  186.8510  177.5560  137.2560 C   0  0  2  0  0  3  0  0  0  0  0  0
  184.7010  179.7990  139.1030 N   0  0  0  0  0  1  0  0  0  0  0  0
  185.5170  175.5160  137.2170 O   0  0  0  0  0  0  0  0  0  0  0  0
  192.9760  173.5340  136.1690 C   0  0  0  0  0  0  0  0  0  0  0  0
  192.2940  172.4570  135.6020 C   0  0  0  0  0  3  0  0  0  0  0  0
  190.8640  174.4220  136.9650 C   0  0  0  0  0  0  0  0  0  0  0  0
  190.9410  172.3780  135.7080 N   0  0  0  0  0  0  0  0  0  0  0  0
  192.2570  174.5180  136.8450 C   0  0  0  0  0  3  0  0  0  0  0  0
  190.2220  173.3290  136.3650 C   0  0  0  0  0  3  0  0  0  0  0  0
  194.4540  173.6310  136.0530 C   0  0  0  0  0  1  0  0  0  0  0  0
  187.8400  177.6880  143.4090 C   0  0  0  0  0  0  0  0  0  0  0  0
  188.4090  178.0190  142.3980 C   0  0  0  0  0  0  0  0  0  0  0  0
  189.0070  176.9360  146.2840 C   0  0  0  0  0  1  0  0  0  0  0  0
  187.1430  177.2890  144.6340 C   0  0  1  0  0  3  0  0  0  0  0  0
  187.8800  177.8590  145.8640 C   0  0  1  0  0  3  0  0  0  0  0  0
  185.7380  178.5960  146.8220 C   0  0  0  0  0  3  0  0  0  0  0  0
  185.2890  178.8710  145.4180 C   0  0  0  0  0  2  0  0  0  0  0  0
  185.6530  177.6790  144.5320 C   0  0  0  0  0  2  0  0  0  0  0  0
  186.9630  178.1040  147.0310 C   0  0  0  0  0  3  0  0  0  0  0  0
  189.0440  176.4550  134.6660 C   0  0  0  0  0  1  0  0  0  0  0  0
  188.3680  175.6080  135.7290 C   0  0  0  0  0  2  0  0  0  0  0  0
  1  9  1  0  0  0  0
  2  4  1  0  0  0  0
  3  8  1  0  0  0  0
  4  8  1  0  0  0  0
  5  7  1  0  0  0  0
  5  1  2  0  0  0  0
  6  2  1  0  0  0  0
  7  6  2  0  0  0  0
  8 25  1  1  0  0  0
  9  2  2  0  0  0  0
  9  3  1  0  0  0  0
 10 12  2  0  0  0  0
 11 13  1  0  0  0  0
 12 15  1  0  0  0  0
 13 12  1  0  0  0  0
 14 11  1  0  0  0  0
 14  1  1  1  0  0  0
 14 10  1  0  0  0  0
 16 11  2  0  0  0  0
 17 21  1  0  0  0  0
 18 20  1  0  0  0  0
 18 17  2  0  0  0  0
 19  7  1  0  0  0  0
 20 22  2  0  0  0  0
 21 19  2  0  0  0  0
 22 19  1  0  0  0  0
 23 17  1  0  0  0  0
 25 24  3  0  0  0  0
 27 24  1  6  0  0  0
 27 28  1  0  0  0  0
 28 26  1  1  0  0  0
 28 32  1  0  0  0  0
 29 32  2  0  0  0  0
 30 29  1  0  0  0  0
 31 27  1  0  0  0  0
 31 30  1  0  0  0  0
 33 34  1  0  0  0  0
 34  5  1  0  0  0  0
M  END
>  <MODEL>
2

>  <REMARK>
 VINA RESULT:      -8.1      2.543      4.193
  Name = 
  5 active torsions:
  status: ('A' for Active; 'I' for Inactive)
    1  A    between atoms: C_3  and  C_13
    2  A    between atoms: C_4  and  C_15
    3  A    between atoms: C_12  and  C_28
    4  A    between atoms: C_17  and  C_29
    5  A    between atoms: C_21  and  C_32
                            x       y       z     vdW  Elec       q    Type
                         _______ _______ _______ _____ _____    ______ ____

>  <TORSDO>
F 5

$$$$
=
 OpenBabel10252414503D

 34 38  0  0  1  0  0  0  0  0999 V2000
  188.1150  178.2780  141.8410 C   0  0  0  0  0  0  0  0  0  0  0  0
  185.9490  178.3420  142.8810 C   0  0  0  0  0  0  0  0  0  0  0  0
  185.8920  178.7030  140.5610 C   0  0  0  0  0  2  0  0  0  0  0  0
  184.5090  178.5260  142.6110 C   0  0  0  0  0  2  0  0  0  0  0  0
  188.6840  178.0180  143.1120 C   0  0  0  0  0  0  0  0  0  0  0  0
  186.4860  178.0890  144.0970 N   0  0  0  0  0  0  0  0  0  0  0  0
  187.8310  177.9150  144.2540 C   0  0  0  0  0  0  0  0  0  0  0  0
  184.4540  178.7590  141.0950 C   0  0  2  0  0  3  0  0  0  0  0  0
  186.7210  178.4340  141.7610 C   0  0  0  0  0  0  0  0  0  0  0  0
  188.3350  179.0440  139.5150 N   0  0  0  0  0  0  0  0  0  0  0  0
  189.3220  177.0490  140.0300 C   0  0  0  0  0  0  0  0  0  0  0  0
  188.3190  178.2570  138.4850 C   0  0  0  0  0  0  0  0  0  0  0  0
  188.9030  176.9740  138.6790 N   0  0  0  0  0  2  0  0  0  0  0  0
  189.0060  178.3740  140.6220 C   0  0  2  0  0  3  0  0  0  0  0  0
  187.7240  178.6420  137.2520 N   0  0  0  0  0  1  0  0  0  0  0  0
  189.9090  176.1090  140.6270 O   0  0  0  0  0  0  0  0  0  0  0  0
  190.0250  176.7930  147.1470 C   0  0  0  0  0  0  0  0  0  0  0  0
  189.1640  177.0430  148.2160 C   0  0  0  0  0  3  0  0  0  0  0  0
  188.3330  177.6290  145.6220 C   0  0  0  0  0  0  0  0  0  0  0  0
  187.9280  177.5580  147.9870 N   0  0  0  0  0  0  0  0  0  0  0  0
  189.6030  177.0820  145.8490 C   0  0  0  0  0  3  0  0  0  0  0  0
  187.4990  177.8480  146.7280 C   0  0  0  0  0  3  0  0  0  0  0  0
  191.3760  176.2240  147.3870 C   0  0  0  0  0  1  0  0  0  0  0  0
  183.0010  176.8360  139.9470 C   0  0  0  0  0  0  0  0  0  0  0  0
  183.6560  177.7070  140.4630 C   0  0  0  0  0  0  0  0  0  0  0  0
  179.9020  176.1330  140.2590 C   0  0  0  0  0  1  0  0  0  0  0  0
  182.2080  175.7730  139.3230 C   0  0  1  0  0  3  0  0  0  0  0  0
  180.7820  176.2860  139.0340 C   0  0  1  0  0  3  0  0  0  0  0  0
  180.8730  175.3080  136.7800 C   0  0  0  0  0  3  0  0  0  0  0  0
  182.3320  175.6530  136.7690 C   0  0  0  0  0  2  0  0  0  0  0  0
  182.9600  175.2190  138.0950 C   0  0  0  0  0  2  0  0  0  0  0  0
  180.1410  175.5980  137.8590 C   0  0  0  0  0  3  0  0  0  0  0  0
  190.7430  179.2840  143.6480 C   0  0  0  0  0  1  0  0  0  0  0  0
  190.1770  177.9350  143.2420 C   0  0  0  0  0  2  0  0  0  0  0  0
  1  5  1  0  0  0  0
  2  6  2  0  0  0  0
  3  8  1  0  0  0  0
  3  9  1  0  0  0  0
  4  2  1  0  0  0  0
  5 34  1  0  0  0  0
  5  7  2  0  0  0  0
  6  7  1  0  0  0  0
  7 19  1  0  0  0  0
  8 25  1  6  0  0  0
  8  4  1  0  0  0  0
  9  1  2  0  0  0  0
  9  2  1  0  0  0  0
 10 14  1  0  0  0  0
 11 14  1  0  0  0  0
 11 16  2  0  0  0  0
 12 13  1  0  0  0  0
 12 10  2  0  0  0  0
 13 11  1  0  0  0  0
 14  1  1  1  0  0  0
 15 12  1  0  0  0  0
 17 23  1  0  0  0  0
 17 18  1  0  0  0  0
 19 21  1  0  0  0  0
 19 22  2  0  0  0  0
 20 18  2  0  0  0  0
 21 17  2  0  0  0  0
 22 20  1  0  0  0  0
 24 25  3  0  0  0  0
 27 24  1  6  0  0  0
 28 27  1  0  0  0  0
 28 26  1  1  0  0  0
 29 32  2  0  0  0  0
 30 29  1  0  0  0  0
 30 31  1  0  0  0  0
 31 27  1  0  0  0  0
 32 28  1  0  0  0  0
 34 33  1  0  0  0  0
M  END
>  <MODEL>
3

>  <REMARK>
 VINA RESULT:      -7.8      5.316      9.504
  Name = 
  5 active torsions:
  status: ('A' for Active; 'I' for Inactive)
    1  A    between atoms: C_3  and  C_13
    2  A    between atoms: C_4  and  C_15
    3  A    between atoms: C_12  and  C_28
    4  A    between atoms: C_17  and  C_29
    5  A    between atoms: C_21  and  C_32
                            x       y       z     vdW  Elec       q    Type
                         _______ _______ _______ _____ _____    ______ ____

>  <TORSDO>
F 5

$$$$
=
 OpenBabel10252414503D

 34 38  0  0  1  0  0  0  0  0999 V2000
  190.5890  176.0730  136.9390 C   0  0  0  0  0  0  0  0  0  0  0  0
  192.2300  176.4380  138.6560 C   0  0  0  0  0  0  0  0  0  0  0  0
  190.1970  177.5490  139.0420 C   0  0  0  0  0  2  0  0  0  0  0  0
  192.4690  177.1280  139.9390 C   0  0  0  0  0  2  0  0  0  0  0  0
  191.5210  175.2470  136.2650 C   0  0  0  0  0  0  0  0  0  0  0  0
  193.1240  175.6470  138.0200 N   0  0  0  0  0  0  0  0  0  0  0  0
  192.8120  175.0330  136.8410 C   0  0  0  0  0  0  0  0  0  0  0  0
  191.1460  177.8560  140.2090 C   0  0  2  0  0  3  0  0  0  0  0  0
  190.9820  176.6600  138.1520 C   0  0  0  0  0  0  0  0  0  0  0  0
  188.7980  177.6870  136.4560 N   0  0  0  0  0  0  0  0  0  0  0  0
  188.1410  175.5960  137.0970 C   0  0  0  0  0  0  0  0  0  0  0  0
  187.6790  177.7490  137.1080 C   0  0  0  0  0  0  0  0  0  0  0  0
  187.1630  176.5060  137.5680 N   0  0  0  0  0  2  0  0  0  0  0  0
  189.2140  176.2950  136.3460 C   0  0  2  0  0  3  0  0  0  0  0  0
  187.0300  178.9860  137.3740 N   0  0  0  0  0  1  0  0  0  0  0  0
  188.0750  174.3520  137.2800 O   0  0  0  0  0  0  0  0  0  0  0  0
  194.9670  172.0360  135.9370 C   0  0  0  0  0  0  0  0  0  0  0  0
  195.8770  172.6440  135.0710 C   0  0  0  0  0  3  0  0  0  0  0  0
  193.8480  174.1710  136.2190 C   0  0  0  0  0  0  0  0  0  0  0  0
  195.7750  173.9720  134.8010 N   0  0  0  0  0  0  0  0  0  0  0  0
  193.9570  172.8050  136.5140 C   0  0  0  0  0  3  0  0  0  0  0  0
  194.7960  174.7380  135.3530 C   0  0  0  0  0  3  0  0  0  0  0  0
  195.0740  170.5870  136.2420 C   0  0  0  0  0  1  0  0  0  0  0  0
  190.0730  176.9680  142.4870 C   0  0  0  0  0  0  0  0  0  0  0  0
  190.5590  177.3670  141.4580 C   0  0  0  0  0  0  0  0  0  0  0  0
  191.2930  176.8780  145.4360 C   0  0  0  0  0  1  0  0  0  0  0  0
  189.4790  176.4910  143.7390 C   0  0  1  0  0  3  0  0  0  0  0  0
  189.9580  177.3700  144.9130 C   0  0  1  0  0  3  0  0  0  0  0  0
  187.6560  177.5040  145.7690 C   0  0  0  0  0  3  0  0  0  0  0  0
  187.2030  177.4980  144.3390 C   0  0  0  0  0  2  0  0  0  0  0  0
  187.9470  176.3960  143.5820 C   0  0  0  0  0  2  0  0  0  0  0  0
  188.9620  177.4310  146.0400 C   0  0  0  0  0  3  0  0  0  0  0  0
  190.6570  173.2550  135.0740 C   0  0  0  0  0  1  0  0  0  0  0  0
  191.1610  174.6790  134.9230 C   0  0  0  0  0  2  0  0  0  0  0  0
  1  9  1  0  0  0  0
  2  4  1  0  0  0  0
  3  8  1  0  0  0  0
  4  8  1  0  0  0  0
  5  7  1  0  0  0  0
  5  1  2  0  0  0  0
  6  2  1  0  0  0  0
  7  6  2  0  0  0  0
  8 25  1  1  0  0  0
  9  2  2  0  0  0  0
  9  3  1  0  0  0  0
 10 12  2  0  0  0  0
 11 16  2  0  0  0  0
 11 13  1  0  0  0  0
 12 15  1  0  0  0  0
 12 13  1  0  0  0  0
 14 10  1  0  0  0  0
 14  1  1  1  0  0  0
 14 11  1  0  0  0  0
 17 23  1  0  0  0  0
 17 21  1  0  0  0  0
 18 17  2  0  0  0  0
 19 21  2  0  0  0  0
 19  7  1  0  0  0  0
 20 18  1  0  0  0  0
 20 22  2  0  0  0  0
 22 19  1  0  0  0  0
 25 24  3  0  0  0  0
 27 24  1  6  0  0  0
 27 28  1  0  0  0  0
 28 26  1  1  0  0  0
 28 32  1  0  0  0  0
 29 32  2  0  0  0  0
 30 29  1  0  0  0  0
 31 27  1  0  0  0  0
 31 30  1  0  0  0  0
 34 33  1  0  0  0  0
 34  5  1  0  0  0  0
M  END
>  <MODEL>
4

>  <REMARK>
 VINA RESULT:      -7.6      1.517      2.022
  Name = 
  5 active torsions:
  status: ('A' for Active; 'I' for Inactive)
    1  A    between atoms: C_3  and  C_13
    2  A    between atoms: C_4  and  C_15
    3  A    between atoms: C_12  and  C_28
    4  A    between atoms: C_17  and  C_29
    5  A    between atoms: C_21  and  C_32
                            x       y       z     vdW  Elec       q    Type
                         _______ _______ _______ _____ _____    ______ ____

>  <TORSDO>
F 5

$$$$
=
 OpenBabel10252414503D

 34 38  0  0  1  0  0  0  0  0999 V2000
  187.2760  177.0710  137.6220 C   0  0  0  0  0  0  0  0  0  0  0  0
  189.2360  176.8860  139.0010 C   0  0  0  0  0  0  0  0  0  0  0  0
  187.6550  178.4250  139.8090 C   0  0  0  0  0  2  0  0  0  0  0  0
  189.8680  177.3900  140.2370 C   0  0  0  0  0  2  0  0  0  0  0  0
  187.8320  176.1000  136.7540 C   0  0  0  0  0  0  0  0  0  0  0  0
  189.7700  175.9540  138.1790 N   0  0  0  0  0  0  0  0  0  0  0  0
  189.1070  175.5310  137.0630 C   0  0  0  0  0  0  0  0  0  0  0  0
  188.8440  178.3950  140.7810 C   0  0  2  0  0  3  0  0  0  0  0  0
  188.0160  177.4450  138.7560 C   0  0  0  0  0  0  0  0  0  0  0  0
  185.7510  178.9740  137.9400 N   0  0  0  0  0  0  0  0  0  0  0  0
  184.8000  176.8970  137.9070 C   0  0  0  0  0  0  0  0  0  0  0  0
  184.7060  178.9470  138.7060 C   0  0  0  0  0  0  0  0  0  0  0  0
  184.0210  177.7010  138.7750 N   0  0  0  0  0  2  0  0  0  0  0  0
  185.9210  177.6690  137.3130 C   0  0  2  0  0  3  0  0  0  0  0  0
  184.2910  180.0830  139.4540 N   0  0  0  0  0  1  0  0  0  0  0  0
  184.5400  175.6900  137.6610 O   0  0  0  0  0  0  0  0  0  0  0  0
  189.8290  172.2900  135.2160 C   0  0  0  0  0  0  0  0  0  0  0  0
  191.0970  172.5770  134.7090 C   0  0  0  0  0  3  0  0  0  0  0  0
  189.7610  174.4960  136.2240 C   0  0  0  0  0  0  0  0  0  0  0  0
  191.6750  173.7800  134.9630 N   0  0  0  0  0  0  0  0  0  0  0  0
  189.1670  173.2510  135.9790 C   0  0  0  0  0  3  0  0  0  0  0  0
  191.0430  174.7300  135.7050 C   0  0  0  0  0  3  0  0  0  0  0  0
  189.1920  170.9750  134.9470 C   0  0  0  0  0  1  0  0  0  0  0  0
  188.0000  177.6080  143.1880 C   0  0  0  0  0  0  0  0  0  0  0  0
  188.3840  177.9650  142.1020 C   0  0  0  0  0  0  0  0  0  0  0  0
  189.6490  176.8570  145.8170 C   0  0  0  0  0  1  0  0  0  0  0  0
  187.5270  177.1730  144.5050 C   0  0  1  0  0  3  0  0  0  0  0  0
  188.4420  177.7500  145.6060 C   0  0  1  0  0  3  0  0  0  0  0  0
  186.4700  178.4090  146.9180 C   0  0  0  0  0  3  0  0  0  0  0  0
  185.7870  178.6880  145.6130 C   0  0  0  0  0  2  0  0  0  0  0  0
  186.0320  177.5180  144.6590 C   0  0  0  0  0  2  0  0  0  0  0  0
  187.7250  177.9520  146.9130 C   0  0  0  0  0  3  0  0  0  0  0  0
  186.9890  176.9670  134.5940 C   0  0  0  0  0  1  0  0  0  0  0  0
  187.1060  175.7470  135.4880 C   0  0  0  0  0  2  0  0  0  0  0  0
  1  9  1  0  0  0  0
  2  4  1  0  0  0  0
  3  8  1  0  0  0  0
  4  8  1  0  0  0  0
  5  7  1  0  0  0  0
  5  1  2  0  0  0  0
  6  2  1  0  0  0  0
  7  6  2  0  0  0  0
  8 25  1  1  0  0  0
  9  2  2  0  0  0  0
  9  3  1  0  0  0  0
 10 12  2  0  0  0  0
 11 13  1  0  0  0  0
 12 13  1  0  0  0  0
 12 15  1  0  0  0  0
 14  1  1  1  0  0  0
 14 11  1  0  0  0  0
 14 10  1  0  0  0  0
 16 11  2  0  0  0  0
 17 21  1  0  0  0  0
 18 20  1  0  0  0  0
 18 17  2  0  0  0  0
 19  7  1  0  0  0  0
 20 22  2  0  0  0  0
 21 19  2  0  0  0  0
 22 19  1  0  0  0  0
 23 17  1  0  0  0  0
 25 24  3  0  0  0  0
 27 24  1  6  0  0  0
 27 31  1  0  0  0  0
 27 28  1  0  0  0  0
 28 26  1  1  0  0  0
 28 32  1  0  0  0  0
 30 29  1  0  0  0  0
 31 30  1  0  0  0  0
 32 29  2  0  0  0  0
 33 34  1  0  0  0  0
 34  5  1  0  0  0  0
M  END
>  <MODEL>
5

>  <REMARK>
 VINA RESULT:      -7.4      3.604      5.167
  Name = 
  5 active torsions:
  status: ('A' for Active; 'I' for Inactive)
    1  A    between atoms: C_3  and  C_13
    2  A    between atoms: C_4  and  C_15
    3  A    between atoms: C_12  and  C_28
    4  A    between atoms: C_17  and  C_29
    5  A    between atoms: C_21  and  C_32
                            x       y       z     vdW  Elec       q    Type
                         _______ _______ _______ _____ _____    ______ ____

>  <TORSDO>
F 5

$$$$
=
 OpenBabel10252414503D

 34 38  0  0  1  0  0  0  0  0999 V2000
  188.1550  177.5130  143.0220 C   0  0  0  0  0  0  0  0  0  0  0  0
  187.6170  178.3310  140.8270 C   0  0  0  0  0  0  0  0  0  0  0  0
  189.8680  177.7050  141.0770 C   0  0  0  0  0  2  0  0  0  0  0  0
  188.1860  178.6040  139.4920 C   0  0  0  0  0  2  0  0  0  0  0  0
  186.8040  177.7190  143.3960 C   0  0  0  0  0  0  0  0  0  0  0  0
  186.3250  178.5240  141.1770 N   0  0  0  0  0  0  0  0  0  0  0  0
  185.8800  178.2270  142.4320 C   0  0  0  0  0  0  0  0  0  0  0  0
  189.6580  178.1950  139.6370 C   0  0  2  0  0  3  0  0  0  0  0  0
  188.5320  177.8330  141.7080 C   0  0  0  0  0  0  0  0  0  0  0  0
  190.0180  177.9990  144.5510 N   0  0  0  0  0  0  0  0  0  0  0  0
  190.1100  176.0110  143.4290 C   0  0  0  0  0  0  0  0  0  0  0  0
  191.2520  177.6700  144.3220 C   0  0  0  0  0  0  0  0  0  0  0  0
  191.4440  176.4450  143.6220 N   0  0  0  0  0  2  0  0  0  0  0  0
  189.1390  176.9600  144.0300 C   0  0  2  0  0  3  0  0  0  0  0  0
  192.3380  178.4970  144.7170 N   0  0  0  0  0  1  0  0  0  0  0  0
  189.8080  174.9390  142.8430 O   0  0  0  0  0  0  0  0  0  0  0  0
  182.1210  178.6270  142.0410 C   0  0  0  0  0  0  0  0  0  0  0  0
  181.7790  178.9940  143.3430 C   0  0  0  0  0  3  0  0  0  0  0  0
  184.4420  178.4590  142.7260 C   0  0  0  0  0  0  0  0  0  0  0  0
  182.7420  179.0970  144.2960 N   0  0  0  0  0  0  0  0  0  0  0  0
  183.4560  178.3670  141.7340 C   0  0  0  0  0  3  0  0  0  0  0  0
  184.0500  178.8460  144.0150 C   0  0  0  0  0  3  0  0  0  0  0  0
  181.0750  178.5170  140.9920 C   0  0  0  0  0  1  0  0  0  0  0  0
  190.2200  176.2170  137.9340 C   0  0  0  0  0  0  0  0  0  0  0  0
  189.9630  177.1110  138.7020 C   0  0  0  0  0  0  0  0  0  0  0  0
  188.9620  175.5190  135.0840 C   0  0  0  0  0  1  0  0  0  0  0  0
  190.5390  175.1310  137.0040 C   0  0  1  0  0  3  0  0  0  0  0  0
  190.4000  175.6310  135.5500 C   0  0  1  0  0  3  0  0  0  0  0  0
  192.5420  174.5730  134.9680 C   0  0  0  0  0  3  0  0  0  0  0  0
  193.0050  174.9200  136.3520 C   0  0  0  0  0  2  0  0  0  0  0  0
  191.9170  174.5350  137.3560 C   0  0  0  0  0  2  0  0  0  0  0  0
  191.3020  174.8990  134.5940 C   0  0  0  0  0  3  0  0  0  0  0  0
  186.8070  178.6380  145.6950 C   0  0  0  0  0  1  0  0  0  0  0  0
  186.3920  177.4710  144.8190 C   0  0  0  0  0  2  0  0  0  0  0  0
  1  5  1  0  0  0  0
  2  6  2  0  0  0  0
  2  9  1  0  0  0  0
  3  9  1  0  0  0  0
  4  8  1  0  0  0  0
  4  2  1  0  0  0  0
  5 34  1  0  0  0  0
  6  7  1  0  0  0  0
  7 19  1  0  0  0  0
  7  5  2  0  0  0  0
  8 25  1  6  0  0  0
  8  3  1  0  0  0  0
  9  1  2  0  0  0  0
 11 13  1  0  0  0  0
 11 14  1  0  0  0  0
 12 10  2  0  0  0  0
 12 15  1  0  0  0  0
 13 12  1  0  0  0  0
 14  1  1  6  0  0  0
 14 10  1  0  0  0  0
 16 11  2  0  0  0  0
 17 18  1  0  0  0  0
 18 20  2  0  0  0  0
 19 22  2  0  0  0  0
 21 17  2  0  0  0  0
 21 19  1  0  0  0  0
 22 20  1  0  0  0  0
 23 17  1  0  0  0  0
 24 25  3  0  0  0  0
 27 31  1  0  0  0  0
 27 24  1  1  0  0  0
 28 26  1  6  0  0  0
 28 27  1  0  0  0  0
 29 30  1  0  0  0  0
 30 31  1  0  0  0  0
 32 29  2  0  0  0  0
 32 28  1  0  0  0  0
 34 33  1  0  0  0  0
M  END
>  <MODEL>
6

>  <REMARK>
 VINA RESULT:      -7.1      3.873     10.557
  Name = 
  5 active torsions:
  status: ('A' for Active; 'I' for Inactive)
    1  A    between atoms: C_3  and  C_13
    2  A    between atoms: C_4  and  C_15
    3  A    between atoms: C_12  and  C_28
    4  A    between atoms: C_17  and  C_29
    5  A    between atoms: C_21  and  C_32
                            x       y       z     vdW  Elec       q    Type
                         _______ _______ _______ _____ _____    ______ ____

>  <TORSDO>
F 5

$$$$
=
 OpenBabel10252414503D

 34 38  0  0  1  0  0  0  0  0999 V2000
  181.2360  177.6640  139.8080 C   0  0  0  0  0  0  0  0  0  0  0  0
  183.6330  177.6090  139.6340 C   0  0  0  0  0  0  0  0  0  0  0  0
  182.8430  178.9750  141.3750 C   0  0  0  0  0  2  0  0  0  0  0  0
  184.8770  178.1280  140.2360 C   0  0  0  0  0  2  0  0  0  0  0  0
  181.1660  176.7740  138.7080 C   0  0  0  0  0  0  0  0  0  0  0  0
  183.5720  176.7550  138.5860 N   0  0  0  0  0  0  0  0  0  0  0  0
  182.3750  176.3120  138.1030 C   0  0  0  0  0  0  0  0  0  0  0  0
  184.3790  179.0200  141.3810 C   0  0  2  0  0  3  0  0  0  0  0  0
  182.5060  178.0650  140.2530 C   0  0  0  0  0  0  0  0  0  0  0  0
  180.1070  179.5020  140.9880 N   0  0  0  0  0  0  0  0  0  0  0  0
  179.6190  177.3840  141.6930 C   0  0  0  0  0  0  0  0  0  0  0  0
  179.8480  179.5000  142.2590 C   0  0  0  0  0  0  0  0  0  0  0  0
  179.5320  178.2320  142.8240 N   0  0  0  0  0  2  0  0  0  0  0  0
  179.9630  178.1480  140.4670 C   0  0  2  0  0  3  0  0  0  0  0  0
  179.9110  180.6850  143.0420 N   0  0  0  0  0  1  0  0  0  0  0  0
  179.4020  176.1450  141.7380 O   0  0  0  0  0  0  0  0  0  0  0  0
  182.4190  173.1200  136.0410 C   0  0  0  0  0  0  0  0  0  0  0  0
  182.5460  173.6600  134.7610 C   0  0  0  0  0  3  0  0  0  0  0  0
  182.4030  175.3660  136.9580 C   0  0  0  0  0  0  0  0  0  0  0  0
  182.6090  175.0070  134.5940 N   0  0  0  0  0  0  0  0  0  0  0  0
  182.3540  173.9770  137.1390 C   0  0  0  0  0  3  0  0  0  0  0  0
  182.5460  175.8590  135.6530 C   0  0  0  0  0  3  0  0  0  0  0  0
  182.3560  171.6490  136.2330 C   0  0  0  0  0  1  0  0  0  0  0  0
  185.2940  178.0880  143.7100 C   0  0  0  0  0  0  0  0  0  0  0  0
  184.8780  178.5080  142.6590 C   0  0  0  0  0  0  0  0  0  0  0  0
  188.0980  176.7260  144.4010 C   0  0  0  0  0  1  0  0  0  0  0  0
  185.8060  177.5800  144.9850 C   0  0  1  0  0  3  0  0  0  0  0  0
  187.3240  177.8400  145.0790 C   0  0  1  0  0  3  0  0  0  0  0  0
  187.0540  178.6680  147.3780 C   0  0  0  0  0  3  0  0  0  0  0  0
  185.7330  179.2290  146.9430 C   0  0  0  0  0  2  0  0  0  0  0  0
  184.9760  178.1650  146.1460 C   0  0  0  0  0  2  0  0  0  0  0  0
  187.8020  177.9990  146.4970 C   0  0  0  0  0  3  0  0  0  0  0  0
  179.4210  177.3640  137.0530 C   0  0  0  0  0  1  0  0  0  0  0  0
  179.8220  176.3990  138.1550 C   0  0  0  0  0  2  0  0  0  0  0  0
  1  9  1  0  0  0  0
  2  4  1  0  0  0  0
  2  9  2  0  0  0  0
  3  8  1  0  0  0  0
  4  8  1  0  0  0  0
  5  1  2  0  0  0  0
  6  2  1  0  0  0  0
  7  6  2  0  0  0  0
  7  5  1  0  0  0  0
  8 25  1  1  0  0  0
  9  3  1  0  0  0  0
 10 12  2  0  0  0  0
 11 16  2  0  0  0  0
 11 13  1  0  0  0  0
 12 13  1  0  0  0  0
 12 15  1  0  0  0  0
 14  1  1  1  0  0  0
 14 10  1  0  0  0  0
 14 11  1  0  0  0  0
 17 23  1  0  0  0  0
 17 21  1  0  0  0  0
 18 17  2  0  0  0  0
 19 21  2  0  0  0  0
 19  7  1  0  0  0  0
 20 18  1  0  0  0  0
 20 22  2  0  0  0  0
 22 19  1  0  0  0  0
 25 24  3  0  0  0  0
 27 24  1  6  0  0  0
 27 28  1  0  0  0  0
 27 31  1  0  0  0  0
 28 26  1  1  0  0  0
 28 32  1  0  0  0  0
 30 29  1  0  0  0  0
 31 30  1  0  0  0  0
 32 29  2  0  0  0  0
 33 34  1  0  0  0  0
 34  5  1  0  0  0  0
M  END
>  <MODEL>
7

>  <REMARK>
 VINA RESULT:      -7.1      8.336     10.762
  Name = 
  5 active torsions:
  status: ('A' for Active; 'I' for Inactive)
    1  A    between atoms: C_3  and  C_13
    2  A    between atoms: C_4  and  C_15
    3  A    between atoms: C_12  and  C_28
    4  A    between atoms: C_17  and  C_29
    5  A    between atoms: C_21  and  C_32
                            x       y       z     vdW  Elec       q    Type
                         _______ _______ _______ _____ _____    ______ ____

>  <TORSDO>
F 5

$$$$
=
 OpenBabel10252414503D

 34 38  0  0  1  0  0  0  0  0999 V2000
  187.6100  178.0520  141.7020 C   0  0  0  0  0  0  0  0  0  0  0  0
  187.8490  178.2790  139.3210 C   0  0  0  0  0  0  0  0  0  0  0  0
  189.8770  177.8910  140.4410 C   0  0  0  0  0  2  0  0  0  0  0  0
  188.8350  178.2640  138.2220 C   0  0  0  0  0  2  0  0  0  0  0  0
  186.2150  178.2460  141.5500 C   0  0  0  0  0  0  0  0  0  0  0  0
  186.5170  178.4600  139.1690 N   0  0  0  0  0  0  0  0  0  0  0  0
  185.6740  178.4430  140.2420 C   0  0  0  0  0  0  0  0  0  0  0  0
  190.1680  178.0060  138.9380 C   0  0  2  0  0  3  0  0  0  0  0  0
  188.4090  178.0730  140.5470 C   0  0  0  0  0  0  0  0  0  0  0  0
  189.4220  178.5850  143.2760 N   0  0  0  0  0  0  0  0  0  0  0  0
  188.6570  176.4330  143.2910 C   0  0  0  0  0  0  0  0  0  0  0  0
  190.3830  177.7700  143.5820 C   0  0  0  0  0  0  0  0  0  0  0  0
  190.0340  176.3910  143.6220 N   0  0  0  0  0  2  0  0  0  0  0  0
  188.1930  177.8270  143.0800 C   0  0  2  0  0  3  0  0  0  0  0  0
  191.7070  178.2250  143.8290 N   0  0  0  0  0  1  0  0  0  0  0  0
  187.9310  175.4070  143.2180 O   0  0  0  0  0  0  0  0  0  0  0  0
  182.3650  179.9170  139.0930 C   0  0  0  0  0  0  0  0  0  0  0  0
  181.4830  178.9680  139.6110 C   0  0  0  0  0  3  0  0  0  0  0  0
  184.2240  178.6370  139.9810 C   0  0  0  0  0  0  0  0  0  0  0  0
  181.9620  177.8980  140.2980 N   0  0  0  0  0  0  0  0  0  0  0  0
  183.7360  179.7510  139.2860 C   0  0  0  0  0  3  0  0  0  0  0  0
  183.2970  177.7190  140.4950 C   0  0  0  0  0  3  0  0  0  0  0  0
  181.8490  181.0920  138.3460 C   0  0  0  0  0  1  0  0  0  0  0  0
  191.2360  175.7200  138.0640 C   0  0  0  0  0  0  0  0  0  0  0  0
  190.7520  176.7530  138.4560 C   0  0  0  0  0  0  0  0  0  0  0  0
  189.9160  173.3060  136.4430 C   0  0  0  0  0  1  0  0  0  0  0  0
  191.8280  174.4650  137.5940 C   0  0  1  0  0  3  0  0  0  0  0  0
  191.2090  174.0710  136.2360 C   0  0  1  0  0  3  0  0  0  0  0  0
  193.4450  173.5700  135.3460 C   0  0  0  0  0  3  0  0  0  0  0  0
  193.9530  174.7030  136.1850 C   0  0  0  0  0  2  0  0  0  0  0  0
  193.3660  174.5870  137.5930 C   0  0  0  0  0  2  0  0  0  0  0  0
  192.1450  173.2630  135.3800 C   0  0  0  0  0  3  0  0  0  0  0  0
  185.1860  179.7610  143.2170 C   0  0  0  0  0  1  0  0  0  0  0  0
  185.3480  178.3180  142.7740 C   0  0  0  0  0  2  0  0  0  0  0  0
  2  9  1  0  0  0  0
  3  9  1  0  0  0  0
  4  8  1  0  0  0  0
  4  2  1  0  0  0  0
  5  1  1  0  0  0  0
  5 34  1  0  0  0  0
  6  2  2  0  0  0  0
  6  7  1  0  0  0  0
  7  5  2  0  0  0  0
  8 25  1  6  0  0  0
  8  3  1  0  0  0  0
  9  1  2  0  0  0  0
 10 12  2  0  0  0  0
 11 13  1  0  0  0  0
 12 13  1  0  0  0  0
 12 15  1  0  0  0  0
 14  1  1  6  0  0  0
 14 10  1  0  0  0  0
 14 11  1  0  0  0  0
 16 11  2  0  0  0  0
 17 21  2  0  0  0  0
 17 18  1  0  0  0  0
 18 20  2  0  0  0  0
 19  7  1  0  0  0  0
 19 22  2  0  0  0  0
 20 22  1  0  0  0  0
 21 19  1  0  0  0  0
 23 17  1  0  0  0  0
 24 25  3  0  0  0  0
 27 24  1  6  0  0  0
 28 26  1  1  0  0  0
 28 27  1  0  0  0  0
 29 32  2  0  0  0  0
 29 30  1  0  0  0  0
 30 31  1  0  0  0  0
 31 27  1  0  0  0  0
 32 28  1  0  0  0  0
 34 33  1  0  0  0  0
M  END
>  <MODEL>
8

>  <REMARK>
 VINA RESULT:      -7.1      4.223     10.148
  Name = 
  5 active torsions:
  status: ('A' for Active; 'I' for Inactive)
    1  A    between atoms: C_3  and  C_13
    2  A    between atoms: C_4  and  C_15
    3  A    between atoms: C_12  and  C_28
    4  A    between atoms: C_17  and  C_29
    5  A    between atoms: C_21  and  C_32
                            x       y       z     vdW  Elec       q    Type
                         _______ _______ _______ _____ _____    ______ ____

>  <TORSDO>
F 5

$$$$
=
 OpenBabel10252414503D

 34 38  0  0  1  0  0  0  0  0999 V2000
  180.7280  177.1690  139.0060 C   0  0  0  0  0  0  0  0  0  0  0  0
  183.0200  177.2460  138.2870 C   0  0  0  0  0  0  0  0  0  0  0  0
  182.4290  178.9910  139.7460 C   0  0  0  0  0  2  0  0  0  0  0  0
  184.2780  178.0080  138.4180 C   0  0  0  0  0  2  0  0  0  0  0  0
  180.5550  175.9980  138.2280 C   0  0  0  0  0  0  0  0  0  0  0  0
  182.8620  176.1260  137.5460 N   0  0  0  0  0  0  0  0  0  0  0  0
  181.6640  175.4740  137.4950 C   0  0  0  0  0  0  0  0  0  0  0  0
  183.9100  179.1510  139.3740 C   0  0  2  0  0  3  0  0  0  0  0  0
  181.9950  177.7750  139.0150 C   0  0  0  0  0  0  0  0  0  0  0  0
  179.6290  179.1770  139.9030 N   0  0  0  0  0  0  0  0  0  0  0  0
  179.5880  177.3150  141.2260 C   0  0  0  0  0  0  0  0  0  0  0  0
  179.6410  179.5160  141.1550 C   0  0  0  0  0  0  0  0  0  0  0  0
  179.6230  178.4400  142.0860 N   0  0  0  0  0  2  0  0  0  0  0  0
  179.5650  177.7250  139.7990 C   0  0  2  0  0  3  0  0  0  0  0  0
  179.7030  180.8750  141.5670 N   0  0  0  0  0  1  0  0  0  0  0  0
  179.5550  176.1270  141.6400 O   0  0  0  0  0  0  0  0  0  0  0  0
  182.2550  171.9730  136.1410 C   0  0  0  0  0  0  0  0  0  0  0  0
  181.4410  172.0100  135.0080 C   0  0  0  0  0  3  0  0  0  0  0  0
  181.5840  174.2450  136.6660 C   0  0  0  0  0  0  0  0  0  0  0  0
  180.7330  173.1320  134.7160 N   0  0  0  0  0  0  0  0  0  0  0  0
  182.3290  173.0950  136.9640 C   0  0  0  0  0  3  0  0  0  0  0  0
  180.7920  174.2370  135.5080 C   0  0  0  0  0  3  0  0  0  0  0  0
  183.0350  170.7520  136.4650 C   0  0  0  0  0  1  0  0  0  0  0  0
  185.4080  179.0000  141.5790 C   0  0  0  0  0  0  0  0  0  0  0  0
  184.7290  179.0660  140.5840 C   0  0  0  0  0  0  0  0  0  0  0  0
  184.5830  179.2260  144.6550 C   0  0  0  0  0  1  0  0  0  0  0  0
  186.2360  178.9250  142.7850 C   0  0  1  0  0  3  0  0  0  0  0  0
  185.4510  178.2270  143.9160 C   0  0  1  0  0  3  0  0  0  0  0  0
  187.4160  176.8480  144.4470 C   0  0  0  0  0  3  0  0  0  0  0  0
  187.7220  176.8490  142.9790 C   0  0  0  0  0  2  0  0  0  0  0  0
  187.5930  178.2750  142.4420 C   0  0  0  0  0  2  0  0  0  0  0  0
  186.3460  177.5120  144.8920 C   0  0  0  0  0  3  0  0  0  0  0  0
  179.1130  174.1380  138.9960 C   0  0  0  0  0  1  0  0  0  0  0  0
  179.1900  175.3810  138.1280 C   0  0  0  0  0  2  0  0  0  0  0  0
  1  9  1  0  0  0  0
  2  4  1  0  0  0  0
  2  9  2  0  0  0  0
  4  8  1  0  0  0  0
  5  1  2  0  0  0  0
  6  2  1  0  0  0  0
  7  6  2  0  0  0  0
  7  5  1  0  0  0  0
  8  3  1  0  0  0  0
  8 25  1  1  0  0  0
  9  3  1  0  0  0  0
 10 12  2  0  0  0  0
 11 16  2  0  0  0  0
 11 13  1  0  0  0  0
 12 15  1  0  0  0  0
 12 13  1  0  0  0  0
 14  1  1  6  0  0  0
 14 10  1  0  0  0  0
 14 11  1  0  0  0  0
 17 23  1  0  0  0  0
 17 21  1  0  0  0  0
 18 17  2  0  0  0  0
 19 21  2  0  0  0  0
 19  7  1  0  0  0  0
 20 18  1  0  0  0  0
 20 22  2  0  0  0  0
 22 19  1  0  0  0  0
 25 24  3  0  0  0  0
 27 24  1  6  0  0  0
 27 28  1  0  0  0  0
 28 26  1  1  0  0  0
 28 32  1  0  0  0  0
 29 32  2  0  0  0  0
 30 29  1  0  0  0  0
 31 27  1  0  0  0  0
 31 30  1  0  0  0  0
 34  5  1  0  0  0  0
 34 33  1  0  0  0  0
M  END
>  <MODEL>
9

>  <REMARK>
 VINA RESULT:      -6.7      8.033     11.081
  Name = 
  5 active torsions:
  status: ('A' for Active; 'I' for Inactive)
    1  A    between atoms: C_3  and  C_13
    2  A    between atoms: C_4  and  C_15
    3  A    between atoms: C_12  and  C_28
    4  A    between atoms: C_17  and  C_29
    5  A    between atoms: C_21  and  C_32
                            x       y       z     vdW  Elec       q    Type
                         _______ _______ _______ _____ _____    ______ ____

>  <TORSDO>
F 5

$$$$
