=
 OpenBabel10262419403D

 31 34  0  0  1  0  0  0  0  0999 V2000
  190.9980  177.0240  145.0230 C   0  0  1  0  0  3  0  0  0  0  0  0
  187.6040  177.5730  143.3110 C   0  0  0  0  0  0  0  0  0  0  0  0
  186.5440  177.9050  144.1890 C   0  0  0  0  0  0  0  0  0  0  0  0
  185.5400  177.8610  146.4040 C   0  0  0  0  0  3  0  0  0  0  0  0
  188.8180  176.8340  143.8350 C   0  0  2  0  0  3  0  0  0  0  0  0
  191.6780  176.6050  143.8660 O   0  0  0  0  0  0  0  0  0  0  0  0
  186.5850  177.5300  145.5410 C   0  0  0  0  0  3  0  0  0  0  0  0
  188.5710  177.5350  140.9390 C   0  0  1  0  0  3  0  0  0  0  0  0
  191.8240  177.8660  145.7670 O   0  0  0  0  0  1  0  0  0  0  0  0
  185.3660  178.9870  142.3560 C   0  0  0  0  0  3  0  0  0  0  0  0
  184.4380  178.5700  145.9270 C   0  0  0  0  0  3  0  0  0  0  0  0
  189.8800  177.0830  141.5820 C   0  0  0  0  0  2  0  0  0  0  0  0
  187.5340  177.9690  141.9520 C   0  0  0  0  0  0  0  0  0  0  0  0
  189.7270  177.7750  144.6330 C   0  0  0  0  0  2  0  0  0  0  0  0
  183.1660  179.7100  144.1270 C   0  0  0  0  0  1  0  0  0  0  0  0
  189.6000  176.1170  142.7230 C   0  0  1  0  0  3  0  0  0  0  0  0
  190.9120  175.5700  143.2940 C   0  0  0  0  0  2  0  0  0  0  0  0
  186.4030  178.6540  141.4920 C   0  0  0  0  0  3  0  0  0  0  0  0
  185.4210  178.6240  143.7060 C   0  0  0  0  0  0  0  0  0  0  0  0
  184.3690  178.9540  144.5860 C   0  0  0  0  0  0  0  0  0  0  0  0
  188.9940  179.4250  137.8260 O   0  0  0  0  0  0  0  0  0  0  0  0
  188.6160  178.4970  138.5890 C   0  0  0  0  0  0  0  0  0  0  0  0
  188.8510  178.6110  139.9940 N   0  0  0  0  0  2  0  0  0  0  0  0
  186.5370  177.5740  137.5120 C   0  0  0  0  0  1  0  0  0  0  0  0
  187.9530  177.2750  138.0150 C   0  0  1  0  0  3  0  0  0  0  0  0
  188.0380  176.1480  135.8780 C   0  0  0  0  0  1  0  0  0  0  0  0
  188.8160  176.6090  137.0240 N   0  0  0  0  0  0  0  0  0  0  0  0
  189.4320  175.4340  137.6300 C   0  0  0  0  0  2  0  0  0  0  0  0
  190.9350  175.4430  137.4020 C   0  0  2  0  0  3  0  0  0  0  0  0
  191.4420  174.1650  137.6350 O   0  0  0  0  0  1  0  0  0  0  0  0
  191.6000  176.4220  138.3490 C   0  0  0  0  0  1  0  0  0  0  0  0
  1  9  1  6  0  0  0
  2  5  1  0  0  0  0
  2  3  1  0  0  0  0
  3  7  1  0  0  0  0
  5 14  1  6  0  0  0
  6  1  1  0  0  0  0
  7  4  2  0  0  0  0
  8 23  1  6  0  0  0
  8 12  1  0  0  0  0
  8 13  1  0  0  0  0
 10 19  1  0  0  0  0
 11  4  1  0  0  0  0
 13  2  2  0  0  0  0
 14  1  1  0  0  0  0
 15 20  1  0  0  0  0
 16 12  1  6  0  0  0
 16 17  1  0  0  0  0
 16  5  1  0  0  0  0
 17  6  1  0  0  0  0
 18 13  1  0  0  0  0
 18 10  2  0  0  0  0
 19  3  2  0  0  0  0
 19 20  1  0  0  0  0
 20 11  2  0  0  0  0
 21 22  2  0  0  0  0
 22 23  1  0  0  0  0
 25 24  1  6  0  0  0
 25 22  1  0  0  0  0
 26 27  1  0  0  0  0
 27 28  1  0  0  0  0
 27 25  1  0  0  0  0
 29 28  1  0  0  0  0
 29 30  1  0  0  0  0
 29 31  1  1  0  0  0
M  END
>  <MODEL>
1

>  <REMARK>
 VINA RESULT:     -10.2      0.000      0.000
  Name = 
  5 active torsions:
  status: ('A' for Active; 'I' for Inactive)
    1  A    between atoms: C_1  and  C_24
    2  A    between atoms: C_9  and  C_22
    3  A    between atoms: C_15  and  N_23
    4  A    between atoms: N_19  and  C_22
    5  A    between atoms: N_19  and  C_24
                            x       y       z     vdW  Elec       q    Type
                         _______ _______ _______ _____ _____    ______ ____

>  <TORSDO>
F 5

$$$$
=
 OpenBabel10262419403D

 31 34  0  0  1  0  0  0  0  0999 V2000
  191.0620  177.2580  144.6730 C   0  0  1  0  0  3  0  0  0  0  0  0
  187.6000  177.6740  143.0620 C   0  0  0  0  0  0  0  0  0  0  0  0
  186.5510  177.9450  143.9730 C   0  0  0  0  0  0  0  0  0  0  0  0
  185.6110  177.8230  146.2130 C   0  0  0  0  0  3  0  0  0  0  0  0
  188.8610  176.9850  143.5420 C   0  0  2  0  0  3  0  0  0  0  0  0
  191.7280  176.8870  143.4920 O   0  0  0  0  0  0  0  0  0  0  0  0
  186.6460  177.5530  145.3170 C   0  0  0  0  0  3  0  0  0  0  0  0
  188.5020  177.7140  140.6640 C   0  0  1  0  0  3  0  0  0  0  0  0
  191.8680  178.1270  145.4070 O   0  0  0  0  0  1  0  0  0  0  0  0
  185.2740  178.9970  142.1900 C   0  0  0  0  0  3  0  0  0  0  0  0
  184.4650  178.4880  145.7770 C   0  0  0  0  0  3  0  0  0  0  0  0
  189.8480  177.3130  141.2650 C   0  0  0  0  0  2  0  0  0  0  0  0
  187.4740  178.0850  141.7110 C   0  0  0  0  0  0  0  0  0  0  0  0
  189.7470  177.9550  144.3290 C   0  0  0  0  0  2  0  0  0  0  0  0
  183.0930  179.5930  144.0300 C   0  0  0  0  0  1  0  0  0  0  0  0
  189.6430  176.3200  142.3990 C   0  0  1  0  0  3  0  0  0  0  0  0
  190.9950  175.8260  142.9250 C   0  0  0  0  0  2  0  0  0  0  0  0
  186.3010  178.7230  141.2920 C   0  0  0  0  0  3  0  0  0  0  0  0
  185.3830  178.6170  143.5320 C   0  0  0  0  0  0  0  0  0  0  0  0
  184.3420  178.8870  144.4440 C   0  0  0  0  0  0  0  0  0  0  0  0
  189.1090  179.6130  137.5880 O   0  0  0  0  0  0  0  0  0  0  0  0
  188.8150  178.6270  138.3160 C   0  0  0  0  0  0  0  0  0  0  0  0
  188.7060  178.8140  139.7280 N   0  0  0  0  0  2  0  0  0  0  0  0
  189.7110  176.2840  138.1090 C   0  0  0  0  0  1  0  0  0  0  0  0
  188.6130  177.2710  137.6990 C   0  0  1  0  0  3  0  0  0  0  0  0
  187.0380  175.4910  137.2610 C   0  0  0  0  0  1  0  0  0  0  0  0
  187.2440  176.7750  137.9220 N   0  0  0  0  0  0  0  0  0  0  0  0
  186.2880  177.7160  137.3480 C   0  0  0  0  0  2  0  0  0  0  0  0
  184.8780  177.1540  137.4200 C   0  0  2  0  0  3  0  0  0  0  0  0
  184.2730  177.2680  136.1690 O   0  0  0  0  0  1  0  0  0  0  0  0
  184.0610  177.9240  138.4380 C   0  0  0  0  0  1  0  0  0  0  0  0
  1  9  1  6  0  0  0
  2  5  1  0  0  0  0
  2  3  1  0  0  0  0
  3  7  1  0  0  0  0
  5 14  1  6  0  0  0
  6  1  1  0  0  0  0
  7  4  2  0  0  0  0
  8 23  1  6  0  0  0
  8 12  1  0  0  0  0
  8 13  1  0  0  0  0
 10 19  1  0  0  0  0
 11  4  1  0  0  0  0
 13  2  2  0  0  0  0
 14  1  1  0  0  0  0
 15 20  1  0  0  0  0
 16 12  1  6  0  0  0
 16 17  1  0  0  0  0
 16  5  1  0  0  0  0
 17  6  1  0  0  0  0
 18 13  1  0  0  0  0
 18 10  2  0  0  0  0
 19  3  2  0  0  0  0
 19 20  1  0  0  0  0
 20 11  2  0  0  0  0
 21 22  2  0  0  0  0
 22 23  1  0  0  0  0
 25 27  1  0  0  0  0
 25 24  1  1  0  0  0
 25 22  1  0  0  0  0
 26 27  1  0  0  0  0
 28 29  1  0  0  0  0
 28 27  1  0  0  0  0
 29 31  1  1  0  0  0
 30 29  1  0  0  0  0
M  END
>  <MODEL>
2

>  <REMARK>
 VINA RESULT:      -9.2      1.297      2.532
  Name = 
  5 active torsions:
  status: ('A' for Active; 'I' for Inactive)
    1  A    between atoms: C_1  and  C_24
    2  A    between atoms: C_9  and  C_22
    3  A    between atoms: C_15  and  N_23
    4  A    between atoms: N_19  and  C_22
    5  A    between atoms: N_19  and  C_24
                            x       y       z     vdW  Elec       q    Type
                         _______ _______ _______ _____ _____    ______ ____

>  <TORSDO>
F 5

$$$$
=
 OpenBabel10262419403D

 31 34  0  0  1  0  0  0  0  0999 V2000
  185.8200  179.0320  146.4340 C   0  0  1  0  0  3  0  0  0  0  0  0
  184.2010  178.3270  143.0240 C   0  0  0  0  0  0  0  0  0  0  0  0
  182.8060  178.5580  142.9700 C   0  0  0  0  0  0  0  0  0  0  0  0
  180.6470  178.7330  144.0780 C   0  0  0  0  0  3  0  0  0  0  0  0
  184.8720  178.0480  144.3520 C   0  0  2  0  0  3  0  0  0  0  0  0
  187.0990  178.5620  146.0870 O   0  0  0  0  0  0  0  0  0  0  0  0
  182.0220  178.5010  144.1340 C   0  0  0  0  0  3  0  0  0  0  0  0
  186.4340  178.0320  141.8020 C   0  0  1  0  0  3  0  0  0  0  0  0
  185.9430  180.1930  147.1950 O   0  0  0  0  0  1  0  0  0  0  0  0
  182.9520  178.8920  140.5650 C   0  0  0  0  0  3  0  0  0  0  0  0
  180.0350  179.0220  142.8590 C   0  0  0  0  0  3  0  0  0  0  0  0
  187.0860  178.0730  143.1820 C   0  0  0  0  0  2  0  0  0  0  0  0
  184.9640  178.3940  141.8310 C   0  0  0  0  0  0  0  0  0  0  0  0
  185.0200  179.3360  145.1690 C   0  0  0  0  0  2  0  0  0  0  0  0
  180.0850  179.3930  140.4060 C   0  0  0  0  0  1  0  0  0  0  0  0
  186.2230  177.3330  144.1940 C   0  0  1  0  0  3  0  0  0  0  0  0
  186.9290  177.2700  145.5530 C   0  0  0  0  0  2  0  0  0  0  0  0
  184.3220  178.6560  140.6160 C   0  0  0  0  0  3  0  0  0  0  0  0
  182.1800  178.8490  141.7310 C   0  0  0  0  0  0  0  0  0  0  0  0
  180.7900  179.0820  141.6850 C   0  0  0  0  0  0  0  0  0  0  0  0
  189.0650  179.4580  139.6850 O   0  0  0  0  0  0  0  0  0  0  0  0
  188.4460  178.5900  140.3580 C   0  0  0  0  0  0  0  0  0  0  0  0
  187.1660  178.9170  140.9030 N   0  0  0  0  0  2  0  0  0  0  0  0
  189.3240  176.4830  139.2970 C   0  0  0  0  0  1  0  0  0  0  0  0
  189.0690  177.2440  140.6030 C   0  0  1  0  0  3  0  0  0  0  0  0
  191.4830  177.2780  140.7060 C   0  0  0  0  0  1  0  0  0  0  0  0
  190.2480  177.3470  141.4800 N   0  0  0  0  0  0  0  0  0  0  0  0
  190.2580  176.2250  142.4120 C   0  0  0  0  0  2  0  0  0  0  0  0
  191.2310  176.4850  143.5500 C   0  0  2  0  0  3  0  0  0  0  0  0
  191.8510  175.2890  143.9070 O   0  0  0  0  0  1  0  0  0  0  0  0
  190.4910  177.0390  144.7510 C   0  0  0  0  0  1  0  0  0  0  0  0
  1  9  1  1  0  0  0
  2  5  1  0  0  0  0
  3  2  1  0  0  0  0
  3  7  1  0  0  0  0
  4  7  2  0  0  0  0
  5 14  1  6  0  0  0
  6  1  1  0  0  0  0
  8 23  1  6  0  0  0
  8 13  1  0  0  0  0
  8 12  1  0  0  0  0
 10 18  2  0  0  0  0
 10 19  1  0  0  0  0
 11  4  1  0  0  0  0
 13  2  2  0  0  0  0
 14  1  1  0  0  0  0
 15 20  1  0  0  0  0
 16 12  1  6  0  0  0
 16  5  1  0  0  0  0
 16 17  1  0  0  0  0
 17  6  1  0  0  0  0
 18 13  1  0  0  0  0
 19  3  2  0  0  0  0
 20 19  1  0  0  0  0
 20 11  2  0  0  0  0
 21 22  2  0  0  0  0
 22 25  1  0  0  0  0
 22 23  1  0  0  0  0
 25 24  1  6  0  0  0
 25 27  1  0  0  0  0
 26 27  1  0  0  0  0
 27 28  1  0  0  0  0
 28 29  1  0  0  0  0
 29 30  1  0  0  0  0
 29 31  1  1  0  0  0
M  END
>  <MODEL>
3

>  <REMARK>
 VINA RESULT:      -7.8      2.407      4.506
  Name = 
  5 active torsions:
  status: ('A' for Active; 'I' for Inactive)
    1  A    between atoms: C_1  and  C_24
    2  A    between atoms: C_9  and  C_22
    3  A    between atoms: C_15  and  N_23
    4  A    between atoms: N_19  and  C_22
    5  A    between atoms: N_19  and  C_24
                            x       y       z     vdW  Elec       q    Type
                         _______ _______ _______ _____ _____    ______ ____

>  <TORSDO>
F 5

$$$$
=
 OpenBabel10262419403D

 31 34  0  0  1  0  0  0  0  0999 V2000
  182.7430  177.9550  140.3490 C   0  0  1  0  0  3  0  0  0  0  0  0
  185.8950  178.4630  142.4830 C   0  0  0  0  0  0  0  0  0  0  0  0
  185.6810  178.4030  143.8800 C   0  0  0  0  0  0  0  0  0  0  0  0
  184.2120  178.6280  145.8070 C   0  0  0  0  0  3  0  0  0  0  0  0
  184.7480  178.8050  141.5550 C   0  0  2  0  0  3  0  0  0  0  0  0
  183.3600  178.2190  139.1130 O   0  0  0  0  0  0  0  0  0  0  0  0
  184.4210  178.6900  144.4290 C   0  0  0  0  0  3  0  0  0  0  0  0
  187.5030  178.3350  140.4920 C   0  0  1  0  0  3  0  0  0  0  0  0
  181.8640  176.8820  140.2090 O   0  0  0  0  0  1  0  0  0  0  0  0
  188.0100  177.7820  144.2110 C   0  0  0  0  0  3  0  0  0  0  0  0
  185.2620  178.2800  146.6570 C   0  0  0  0  0  3  0  0  0  0  0  0
  186.2600  178.3710  139.6070 C   0  0  0  0  0  2  0  0  0  0  0  0
  187.1790  178.1650  141.9610 C   0  0  0  0  0  0  0  0  0  0  0  0
  183.8020  177.6110  141.3930 C   0  0  0  0  0  2  0  0  0  0  0  0
  187.6150  177.6270  147.0950 C   0  0  0  0  0  1  0  0  0  0  0  0
  185.2260  179.3240  140.1890 C   0  0  1  0  0  3  0  0  0  0  0  0
  184.0270  179.4520  139.2440 C   0  0  0  0  0  2  0  0  0  0  0  0
  188.2230  177.8480  142.8380 C   0  0  0  0  0  3  0  0  0  0  0  0
  186.7470  178.0530  144.7480 C   0  0  0  0  0  0  0  0  0  0  0  0
  186.5270  177.9920  146.1400 C   0  0  0  0  0  0  0  0  0  0  0  0
  189.3280  176.0030  138.3310 O   0  0  0  0  0  0  0  0  0  0  0  0
  188.6490  177.0160  138.6500 C   0  0  0  0  0  0  0  0  0  0  0  0
  188.3850  177.2690  140.0310 N   0  0  0  0  0  2  0  0  0  0  0  0
  189.0550  179.0840  137.2740 C   0  0  0  0  0  1  0  0  0  0  0  0
  188.1040  177.9220  137.5820 C   0  0  1  0  0  3  0  0  0  0  0  0
  188.4960  177.5030  135.2340 C   0  0  0  0  0  1  0  0  0  0  0  0
  187.6790  177.1610  136.3940 N   0  0  0  0  0  0  0  0  0  0  0  0
  186.2990  177.5040  136.0680 C   0  0  0  0  0  2  0  0  0  0  0  0
  185.3380  176.5180  136.7130 C   0  0  2  0  0  3  0  0  0  0  0  0
  185.8820  175.2360  136.6460 O   0  0  0  0  0  1  0  0  0  0  0  0
  184.0090  176.5330  135.9840 C   0  0  0  0  0  1  0  0  0  0  0  0
  1  9  1  6  0  0  0
  1 14  1  0  0  0  0
  2  3  1  0  0  0  0
  3  7  2  0  0  0  0
  3 19  1  0  0  0  0
  4 11  2  0  0  0  0
  5 14  1  6  0  0  0
  5  2  1  0  0  0  0
  6 17  1  0  0  0  0
  6  1  1  0  0  0  0
  7  4  1  0  0  0  0
  8 23  1  6  0  0  0
  8 13  1  0  0  0  0
 10 19  1  0  0  0  0
 12 16  1  0  0  0  0
 12  8  1  0  0  0  0
 13  2  2  0  0  0  0
 13 18  1  0  0  0  0
 16 17  1  6  0  0  0
 16  5  1  0  0  0  0
 18 10  2  0  0  0  0
 19 20  2  0  0  0  0
 20 11  1  0  0  0  0
 20 15  1  0  0  0  0
 21 22  2  0  0  0  0
 22 23  1  0  0  0  0
 25 24  1  6  0  0  0
 25 22  1  0  0  0  0
 26 27  1  0  0  0  0
 27 25  1  0  0  0  0
 28 27  1  0  0  0  0
 28 29  1  0  0  0  0
 29 31  1  6  0  0  0
 30 29  1  0  0  0  0
M  END
>  <MODEL>
4

>  <REMARK>
 VINA RESULT:      -7.4      2.581      5.008
  Name = 
  5 active torsions:
  status: ('A' for Active; 'I' for Inactive)
    1  A    between atoms: C_1  and  C_24
    2  A    between atoms: C_9  and  C_22
    3  A    between atoms: C_15  and  N_23
    4  A    between atoms: N_19  and  C_22
    5  A    between atoms: N_19  and  C_24
                            x       y       z     vdW  Elec       q    Type
                         _______ _______ _______ _____ _____    ______ ____

>  <TORSDO>
F 5

$$$$
=
 OpenBabel10262419403D

 31 34  0  0  1  0  0  0  0  0999 V2000
  184.8440  179.3510  143.7830 C   0  0  1  0  0  3  0  0  0  0  0  0
  187.4180  177.9750  141.2860 C   0  0  0  0  0  0  0  0  0  0  0  0
  187.0630  178.1270  139.9240 C   0  0  0  0  0  0  0  0  0  0  0  0
  185.3710  178.3930  138.1960 C   0  0  0  0  0  3  0  0  0  0  0  0
  186.3430  177.9690  142.3530 C   0  0  2  0  0  3  0  0  0  0  0  0
  185.5010  178.8880  144.9370 O   0  0  0  0  0  0  0  0  0  0  0  0
  185.7170  178.2410  139.5390 C   0  0  0  0  0  3  0  0  0  0  0  0
  189.2210  177.5750  143.0620 C   0  0  1  0  0  3  0  0  0  0  0  0
  184.3490  180.6340  144.0130 O   0  0  0  0  0  1  0  0  0  0  0  0
  189.4120  178.0350  139.3000 C   0  0  0  0  0  3  0  0  0  0  0  0
  186.3640  178.4320  137.2180 C   0  0  0  0  0  3  0  0  0  0  0  0
  188.1410  177.8910  144.0930 C   0  0  0  0  0  2  0  0  0  0  0  0
  188.7860  177.8660  141.6410 C   0  0  0  0  0  0  0  0  0  0  0  0
  185.8230  179.3870  142.6110 C   0  0  0  0  0  2  0  0  0  0  0  0
  188.7340  178.3640  136.4850 C   0  0  0  0  0  1  0  0  0  0  0  0
  186.8070  177.3020  143.6570 C   0  0  1  0  0  3  0  0  0  0  0  0
  185.7490  177.5160  144.7440 C   0  0  0  0  0  2  0  0  0  0  0  0
  189.7610  177.8770  140.6380 C   0  0  0  0  0  3  0  0  0  0  0  0
  188.0710  178.1640  138.9270 C   0  0  0  0  0  0  0  0  0  0  0  0
  187.7110  178.3180  137.5720 C   0  0  0  0  0  0  0  0  0  0  0  0
  192.2830  178.6900  144.7400 O   0  0  0  0  0  0  0  0  0  0  0  0
  191.3260  177.9290  144.4370 C   0  0  0  0  0  0  0  0  0  0  0  0
  190.4300  178.3200  143.3940 N   0  0  0  0  0  2  0  0  0  0  0  0
  192.0280  175.5240  144.6740 C   0  0  0  0  0  1  0  0  0  0  0  0
  191.1190  176.6450  145.1900 C   0  0  1  0  0  3  0  0  0  0  0  0
  192.1230  175.9170  147.2660 C   0  0  0  0  0  1  0  0  0  0  0  0
  191.1920  176.8560  146.6470 N   0  0  0  0  0  0  0  0  0  0  0  0
  189.8800  176.6170  147.2370 C   0  0  0  0  0  2  0  0  0  0  0  0
  189.2440  177.9270  147.6710 C   0  0  2  0  0  3  0  0  0  0  0  0
  189.8210  178.3430  148.8700 O   0  0  0  0  0  1  0  0  0  0  0  0
  187.7540  177.7400  147.8750 C   0  0  0  0  0  1  0  0  0  0  0  0
  1  9  1  1  0  0  0
  1  6  1  0  0  0  0
  2 13  1  0  0  0  0
  2  5  1  0  0  0  0
  3  2  2  0  0  0  0
  4  7  2  0  0  0  0
  5 14  1  1  0  0  0
  5 16  1  0  0  0  0
  7  3  1  0  0  0  0
  8 23  1  1  0  0  0
  8 12  1  0  0  0  0
 10 18  1  0  0  0  0
 11 20  2  0  0  0  0
 11  4  1  0  0  0  0
 13  8  1  0  0  0  0
 14  1  1  0  0  0  0
 15 20  1  0  0  0  0
 16 12  1  1  0  0  0
 16 17  1  0  0  0  0
 17  6  1  0  0  0  0
 18 13  2  0  0  0  0
 19 10  2  0  0  0  0
 19  3  1  0  0  0  0
 20 19  1  0  0  0  0
 22 21  2  0  0  0  0
 22 25  1  0  0  0  0
 23 22  1  0  0  0  0
 25 24  1  6  0  0  0
 25 27  1  0  0  0  0
 27 28  1  0  0  0  0
 27 26  1  0  0  0  0
 28 29  1  0  0  0  0
 29 31  1  1  0  0  0
 29 30  1  0  0  0  0
M  END
>  <MODEL>
5

>  <REMARK>
 VINA RESULT:      -7.3      2.931      7.284
  Name = 
  5 active torsions:
  status: ('A' for Active; 'I' for Inactive)
    1  A    between atoms: C_1  and  C_24
    2  A    between atoms: C_9  and  C_22
    3  A    between atoms: C_15  and  N_23
    4  A    between atoms: N_19  and  C_22
    5  A    between atoms: N_19  and  C_24
                            x       y       z     vdW  Elec       q    Type
                         _______ _______ _______ _____ _____    ______ ____

>  <TORSDO>
F 5

$$$$
=
 OpenBabel10262419403D

 31 34  0  0  1  0  0  0  0  0999 V2000
  185.8930  179.2990  147.3410 C   0  0  1  0  0  3  0  0  0  0  0  0
  184.8960  178.1720  143.8080 C   0  0  0  0  0  0  0  0  0  0  0  0
  183.5930  178.5560  143.4090 C   0  0  0  0  0  0  0  0  0  0  0  0
  181.3120  179.1910  143.9650 C   0  0  0  0  0  3  0  0  0  0  0  0
  185.2370  178.0670  145.2800 C   0  0  2  0  0  3  0  0  0  0  0  0
  187.1260  178.6230  147.3670 O   0  0  0  0  0  0  0  0  0  0  0  0
  182.5940  178.8110  144.3620 C   0  0  0  0  0  3  0  0  0  0  0  0
  187.2530  177.3890  143.1780 C   0  0  1  0  0  3  0  0  0  0  0  0
  186.0430  180.5580  147.9200 O   0  0  0  0  0  1  0  0  0  0  0  0
  184.2660  178.4160  141.0750 C   0  0  0  0  0  3  0  0  0  0  0  0
  181.0090  179.3200  142.6100 C   0  0  0  0  0  3  0  0  0  0  0  0
  187.6150  177.6080  144.6450 C   0  0  0  0  0  2  0  0  0  0  0  0
  185.8830  177.9240  142.8210 C   0  0  0  0  0  0  0  0  0  0  0  0
  185.4190  179.4570  145.8980 C   0  0  0  0  0  2  0  0  0  0  0  0
  181.6040  179.2200  140.2040 C   0  0  0  0  0  1  0  0  0  0  0  0
  186.4630  177.1770  145.5410 C   0  0  1  0  0  3  0  0  0  0  0  0
  186.8650  177.2840  147.0160 C   0  0  0  0  0  2  0  0  0  0  0  0
  185.5450  178.0310  141.4670 C   0  0  0  0  0  3  0  0  0  0  0  0
  183.2810  178.6840  142.0320 C   0  0  0  0  0  0  0  0  0  0  0  0
  181.9820  179.0700  141.6400 C   0  0  0  0  0  0  0  0  0  0  0  0
  190.5040  178.3990  141.8180 O   0  0  0  0  0  0  0  0  0  0  0  0
  189.6760  177.7440  142.5050 C   0  0  0  0  0  0  0  0  0  0  0  0
  188.2790  177.9970  142.3380 N   0  0  0  0  0  2  0  0  0  0  0  0
  190.9930  175.6270  142.8480 C   0  0  0  0  0  1  0  0  0  0  0  0
  190.1620  176.7330  143.5060 C   0  0  1  0  0  3  0  0  0  0  0  0
  191.6790  178.4790  144.2080 C   0  0  0  0  0  1  0  0  0  0  0  0
  190.8230  177.3830  144.6510 N   0  0  0  0  0  0  0  0  0  0  0  0
  191.6770  176.4150  145.3310 C   0  0  0  0  0  2  0  0  0  0  0  0
  191.6840  176.6690  146.8290 C   0  0  2  0  0  3  0  0  0  0  0  0
  192.3440  175.6220  147.4700 O   0  0  0  0  0  1  0  0  0  0  0  0
  190.2620  176.7530  147.3490 C   0  0  0  0  0  1  0  0  0  0  0  0
  1  6  1  0  0  0  0
  1  9  1  6  0  0  0
  2  5  1  0  0  0  0
  3  2  1  0  0  0  0
  3  7  1  0  0  0  0
  4  7  2  0  0  0  0
  5 16  1  0  0  0  0
  5 14  1  6  0  0  0
  8 23  1  6  0  0  0
  8 12  1  0  0  0  0
 10 18  2  0  0  0  0
 10 19  1  0  0  0  0
 11  4  1  0  0  0  0
 13  8  1  0  0  0  0
 13  2  2  0  0  0  0
 14  1  1  0  0  0  0
 15 20  1  0  0  0  0
 16 12  1  6  0  0  0
 16 17  1  0  0  0  0
 17  6  1  0  0  0  0
 18 13  1  0  0  0  0
 19  3  2  0  0  0  0
 20 19  1  0  0  0  0
 20 11  2  0  0  0  0
 21 22  2  0  0  0  0
 22 25  1  0  0  0  0
 23 22  1  0  0  0  0
 25 24  1  6  0  0  0
 25 27  1  0  0  0  0
 26 27  1  0  0  0  0
 27 28  1  0  0  0  0
 28 29  1  0  0  0  0
 29 31  1  1  0  0  0
 29 30  1  0  0  0  0
M  END
>  <MODEL>
6

>  <REMARK>
 VINA RESULT:      -7.2      3.146      5.636
  Name = 
  5 active torsions:
  status: ('A' for Active; 'I' for Inactive)
    1  A    between atoms: C_1  and  C_24
    2  A    between atoms: C_9  and  C_22
    3  A    between atoms: C_15  and  N_23
    4  A    between atoms: N_19  and  C_22
    5  A    between atoms: N_19  and  C_24
                            x       y       z     vdW  Elec       q    Type
                         _______ _______ _______ _____ _____    ______ ____

>  <TORSDO>
F 5

$$$$
=
 OpenBabel10262419403D

 31 34  0  0  1  0  0  0  0  0999 V2000
  185.9730  178.9110  146.4300 C   0  0  1  0  0  3  0  0  0  0  0  0
  184.4930  178.3470  142.9310 C   0  0  0  0  0  0  0  0  0  0  0  0
  183.1020  178.5900  142.8290 C   0  0  0  0  0  0  0  0  0  0  0  0
  180.9000  178.7360  143.8530 C   0  0  0  0  0  3  0  0  0  0  0  0
  185.1070  178.0140  144.2750 C   0  0  2  0  0  3  0  0  0  0  0  0
  187.2630  178.4460  146.1180 O   0  0  0  0  0  0  0  0  0  0  0  0
  182.2700  178.4940  143.9560 C   0  0  0  0  0  3  0  0  0  0  0  0
  186.7730  178.0840  141.7930 C   0  0  1  0  0  3  0  0  0  0  0  0
  186.0700  180.0410  147.2400 O   0  0  0  0  0  1  0  0  0  0  0  0
  183.3500  179.0140  140.4470 C   0  0  0  0  0  3  0  0  0  0  0  0
  180.3410  179.0760  142.6210 C   0  0  0  0  0  3  0  0  0  0  0  0
  187.3670  178.0680  143.1990 C   0  0  0  0  0  2  0  0  0  0  0  0
  185.3050  178.4540  141.7750 C   0  0  0  0  0  0  0  0  0  0  0  0
  185.2270  179.2680  145.1460 C   0  0  0  0  0  2  0  0  0  0  0  0
  180.4950  179.5400  140.1890 C   0  0  0  0  0  1  0  0  0  0  0  0
  186.4600  177.2960  144.1450 C   0  0  1  0  0  3  0  0  0  0  0  0
  187.1090  177.1770  145.5280 C   0  0  0  0  0  2  0  0  0  0  0  0
  184.7150  178.7670  140.5450 C   0  0  0  0  0  3  0  0  0  0  0  0
  182.5300  178.9320  141.5780 C   0  0  0  0  0  0  0  0  0  0  0  0
  181.1440  179.1760  141.4830 C   0  0  0  0  0  0  0  0  0  0  0  0
  189.0550  179.4000  139.2430 O   0  0  0  0  0  0  0  0  0  0  0  0
  188.3220  178.5660  139.8390 C   0  0  0  0  0  0  0  0  0  0  0  0
  187.5460  178.9980  140.9590 N   0  0  0  0  0  2  0  0  0  0  0  0
  187.6430  176.9740  138.0120 C   0  0  0  0  0  1  0  0  0  0  0  0
  188.2960  177.1320  139.3890 C   0  0  1  0  0  3  0  0  0  0  0  0
  190.2320  176.7950  140.7960 C   0  0  0  0  0  1  0  0  0  0  0  0
  189.6250  176.5070  139.5010 N   0  0  0  0  0  0  0  0  0  0  0  0
  190.5070  177.0570  138.4770 C   0  0  0  0  0  2  0  0  0  0  0  0
  191.0840  175.9450  137.6170 C   0  0  2  0  0  3  0  0  0  0  0  0
  190.4940  174.7340  137.9740 O   0  0  0  0  0  1  0  0  0  0  0  0
  192.5820  175.8490  137.8280 C   0  0  0  0  0  1  0  0  0  0  0  0
  1  9  1  1  0  0  0
  2  5  1  0  0  0  0
  3  2  1  0  0  0  0
  3  7  1  0  0  0  0
  4  7  2  0  0  0  0
  5 14  1  1  0  0  0
  6  1  1  0  0  0  0
  8 23  1  6  0  0  0
  8 12  1  0  0  0  0
 10 18  2  0  0  0  0
 10 19  1  0  0  0  0
 11  4  1  0  0  0  0
 13  8  1  0  0  0  0
 13  2  2  0  0  0  0
 14  1  1  0  0  0  0
 15 20  1  0  0  0  0
 16 12  1  6  0  0  0
 16  5  1  0  0  0  0
 16 17  1  0  0  0  0
 17  6  1  0  0  0  0
 18 13  1  0  0  0  0
 19  3  2  0  0  0  0
 20 19  1  0  0  0  0
 20 11  2  0  0  0  0
 21 22  2  0  0  0  0
 22 23  1  0  0  0  0
 25 24  1  6  0  0  0
 25 27  1  0  0  0  0
 25 22  1  0  0  0  0
 27 26  1  0  0  0  0
 28 27  1  0  0  0  0
 29 31  1  1  0  0  0
 29 30  1  0  0  0  0
 29 28  1  0  0  0  0
M  END
>  <MODEL>
7

>  <REMARK>
 VINA RESULT:      -7.2      2.293      3.665
  Name = 
  5 active torsions:
  status: ('A' for Active; 'I' for Inactive)
    1  A    between atoms: C_1  and  C_24
    2  A    between atoms: C_9  and  C_22
    3  A    between atoms: C_15  and  N_23
    4  A    between atoms: N_19  and  C_22
    5  A    between atoms: N_19  and  C_24
                            x       y       z     vdW  Elec       q    Type
                         _______ _______ _______ _____ _____    ______ ____

>  <TORSDO>
F 5

$$$$
