=
 OpenBabel10262420523D

 28 32  0  0  1  0  0  0  0  0999 V2000
  190.0770  177.0430  143.1250 N   0  0  0  0  0  0  0  0  0  0  0  0
  185.3360  179.0930  142.8160 C   0  0  0  0  0  2  0  0  0  0  0  0
  188.8270  178.2580  147.7600 C   0  0  0  0  0  1  0  0  0  0  0  0
  184.5000  178.7380  145.1510 C   0  0  0  0  0  0  0  0  0  0  0  0
  186.8430  178.2590  144.6820 C   0  0  0  0  0  0  0  0  0  0  0  0
  182.8770  178.7720  143.2800 C   0  0  0  0  0  0  0  0  0  0  0  0
  185.5720  178.6740  144.2430 C   0  0  0  0  0  0  0  0  0  0  0  0
  185.9560  177.9890  146.9290 C   0  0  0  0  0  3  0  0  0  0  0  0
  183.1470  179.2000  144.6970 C   0  0  0  0  0  2  0  0  0  0  0  0
  189.5010  177.4260  145.5090 C   0  0  1  0  0  3  0  0  0  0  0  0
  187.9930  178.2090  143.7200 C   0  0  0  0  0  2  0  0  0  0  0  0
  184.6970  178.3960  146.4890 C   0  0  0  0  0  3  0  0  0  0  0  0
  191.6640  176.3610  144.8660 C   0  0  0  0  0  2  0  0  0  0  0  0
  188.3780  177.4380  146.5580 C   0  0  2  0  0  3  0  0  0  0  0  0
  190.5740  176.4220  145.9220 C   0  0  0  0  0  2  0  0  0  0  0  0
  181.7250  178.6040  142.9170 O   0  0  0  0  0  0  0  0  0  0  0  0
  183.9980  178.5660  142.2930 C   0  0  0  0  0  2  0  0  0  0  0  0
  187.0430  177.9350  146.0440 C   0  0  0  0  0  0  0  0  0  0  0  0
  191.0280  176.0070  143.5290 C   0  0  0  0  0  2  0  0  0  0  0  0
  188.9730  177.1010  144.1010 C   0  0  1  0  0  3  0  0  0  0  0  0
  189.5360  176.5910  141.8490 C   0  0  0  0  0  2  0  0  0  0  0  0
  190.5620  176.7420  140.7800 C   0  0  0  0  0  0  0  0  0  0  0  0
  192.5090  176.9850  138.7850 C   0  0  0  0  0  0  0  0  0  0  0  0
  190.3200  176.2310  139.4990 C   0  0  0  0  0  3  0  0  0  0  0  0
  191.7820  177.3660  141.0640 C   0  0  0  0  0  3  0  0  0  0  0  0
  192.7540  177.4890  140.0670 C   0  0  0  0  0  3  0  0  0  0  0  0
  193.4510  177.1050  137.8190 F   0  0  0  0  0  0  0  0  0  0  0  0
  191.2930  176.3560  138.5020 C   0  0  0  0  0  3  0  0  0  0  0  0
  1 19  1  0  0  0  0
  1 20  1  0  0  0  0
  2  7  1  0  0  0  0
  4 12  1  0  0  0  0
  5 18  2  0  0  0  0
  6  9  1  0  0  0  0
  7  5  1  0  0  0  0
  7  4  2  0  0  0  0
  9  4  1  0  0  0  0
 10 15  1  1  0  0  0
 10 14  1  0  0  0  0
 11  5  1  0  0  0  0
 12  8  2  0  0  0  0
 13 15  1  0  0  0  0
 14  3  1  1  0  0  0
 16  6  2  0  0  0  0
 17  2  1  0  0  0  0
 17  6  1  0  0  0  0
 18 14  1  0  0  0  0
 18  8  1  0  0  0  0
 19 13  1  0  0  0  0
 20 11  1  6  0  0  0
 20 10  1  0  0  0  0
 21  1  1  0  0  0  0
 22 25  1  0  0  0  0
 22 21  1  0  0  0  0
 23 26  1  0  0  0  0
 24 22  2  0  0  0  0
 26 25  2  0  0  0  0
 27 23  1  0  0  0  0
 28 23  2  0  0  0  0
 28 24  1  0  0  0  0
M  END
>  <MODEL>
1

>  <REMARK>
 VINA RESULT:     -10.7      0.000      0.000
  Name = 
  2 active torsions:
  status: ('A' for Active; 'I' for Inactive)
    1  A    between atoms: N_1  and  C_2
    2  A    between atoms: C_2  and  C_3
                            x       y       z     vdW  Elec       q    Type
                         _______ _______ _______ _____ _____    ______ ____

>  <TORSDO>
F 2

$$$$
=
 OpenBabel10262420523D

 28 32  0  0  1  0  0  0  0  0999 V2000
  184.8970  178.3330  143.9030 N   0  0  0  0  0  0  0  0  0  0  0  0
  189.2480  176.8390  141.5350 C   0  0  0  0  0  2  0  0  0  0  0  0
  187.9830  176.9300  147.5110 C   0  0  0  0  0  1  0  0  0  0  0  0
  190.9220  177.1140  143.3770 C   0  0  0  0  0  0  0  0  0  0  0  0
  188.5620  177.3670  143.9220 C   0  0  0  0  0  0  0  0  0  0  0  0
  191.6570  177.3920  141.0280 C   0  0  0  0  0  0  0  0  0  0  0  0
  189.5750  177.1260  142.9760 C   0  0  0  0  0  0  0  0  0  0  0  0
  190.2530  177.5690  145.6550 C   0  0  0  0  0  3  0  0  0  0  0  0
  192.0090  176.8360  142.3810 C   0  0  0  0  0  2  0  0  0  0  0  0
  186.4060  177.8440  145.8110 C   0  0  1  0  0  3  0  0  0  0  0  0
  187.1210  177.3620  143.5000 C   0  0  0  0  0  2  0  0  0  0  0  0
  191.2550  177.3350  144.7140 C   0  0  0  0  0  3  0  0  0  0  0  0
  184.0970  178.7110  146.1900 C   0  0  0  0  0  2  0  0  0  0  0  0
  187.8530  177.8790  146.3270 C   0  0  2  0  0  3  0  0  0  0  0  0
  185.5200  178.6930  146.7200 C   0  0  0  0  0  2  0  0  0  0  0  0
  192.5520  177.7110  140.2630 O   0  0  0  0  0  0  0  0  0  0  0  0
  190.2230  177.5460  140.5890 C   0  0  0  0  0  2  0  0  0  0  0  0
  188.9020  177.5680  145.2790 C   0  0  0  0  0  0  0  0  0  0  0  0
  184.1160  179.2280  144.7590 C   0  0  0  0  0  2  0  0  0  0  0  0
  186.3000  178.3260  144.3540 C   0  0  1  0  0  3  0  0  0  0  0  0
  184.8460  178.9330  142.5750 C   0  0  0  0  0  2  0  0  0  0  0  0
  183.6270  178.4720  141.8540 C   0  0  0  0  0  0  0  0  0  0  0  0
  181.3380  177.6450  140.4740 C   0  0  0  0  0  0  0  0  0  0  0  0
  183.7480  177.6630  140.7180 C   0  0  0  0  0  3  0  0  0  0  0  0
  182.3610  178.8730  142.2940 C   0  0  0  0  0  3  0  0  0  0  0  0
  181.2170  178.4590  141.6060 C   0  0  0  0  0  3  0  0  0  0  0  0
  180.2280  177.2440  139.8080 F   0  0  0  0  0  0  0  0  0  0  0  0
  182.6030  177.2490  140.0300 C   0  0  0  0  0  3  0  0  0  0  0  0
  1 20  1  0  0  0  0
  1 19  1  0  0  0  0
  2  7  1  0  0  0  0
  4 12  1  0  0  0  0
  5 18  2  0  0  0  0
  6  9  1  0  0  0  0
  7  4  2  0  0  0  0
  7  5  1  0  0  0  0
  9  4  1  0  0  0  0
 10 14  1  0  0  0  0
 10 15  1  1  0  0  0
 11  5  1  0  0  0  0
 12  8  2  0  0  0  0
 13 15  1  0  0  0  0
 14  3  1  1  0  0  0
 16  6  2  0  0  0  0
 17  6  1  0  0  0  0
 17  2  1  0  0  0  0
 18  8  1  0  0  0  0
 18 14  1  0  0  0  0
 19 13  1  0  0  0  0
 20 11  1  6  0  0  0
 20 10  1  0  0  0  0
 21  1  1  0  0  0  0
 22 25  1  0  0  0  0
 22 21  1  0  0  0  0
 23 26  1  0  0  0  0
 24 22  2  0  0  0  0
 26 25  2  0  0  0  0
 27 23  1  0  0  0  0
 28 23  2  0  0  0  0
 28 24  1  0  0  0  0
M  END
>  <MODEL>
2

>  <REMARK>
 VINA RESULT:     -10.6      3.676      7.210
  Name = 
  2 active torsions:
  status: ('A' for Active; 'I' for Inactive)
    1  A    between atoms: N_1  and  C_2
    2  A    between atoms: C_2  and  C_3
                            x       y       z     vdW  Elec       q    Type
                         _______ _______ _______ _____ _____    ______ ____

>  <TORSDO>
F 2

$$$$
=
 OpenBabel10262420523D

 28 32  0  0  1  0  0  0  0  0999 V2000
  188.7960  177.1910  143.9460 N   0  0  0  0  0  0  0  0  0  0  0  0
  184.6460  178.5590  141.1760 C   0  0  0  0  0  2  0  0  0  0  0  0
  185.7570  179.4820  147.1120 C   0  0  0  0  0  1  0  0  0  0  0  0
  182.9110  178.7660  142.9710 C   0  0  0  0  0  0  0  0  0  0  0  0
  185.2280  178.4320  143.6440 C   0  0  0  0  0  0  0  0  0  0  0  0
  182.2110  178.1140  140.6850 C   0  0  0  0  0  0  0  0  0  0  0  0
  184.2610  178.5720  142.6310 C   0  0  0  0  0  0  0  0  0  0  0  0
  183.4850  178.6910  145.3170 C   0  0  0  0  0  3  0  0  0  0  0  0
  181.8760  178.9390  141.8990 C   0  0  0  0  0  2  0  0  0  0  0  0
  187.2900  178.1450  145.6720 C   0  0  1  0  0  3  0  0  0  0  0  0
  186.6730  178.2440  143.2850 C   0  0  0  0  0  2  0  0  0  0  0  0
  182.5290  178.8250  144.3110 C   0  0  0  0  0  3  0  0  0  0  0  0
  189.5070  177.1830  146.2930 C   0  0  0  0  0  2  0  0  0  0  0  0
  185.8330  178.3220  146.1280 C   0  0  2  0  0  3  0  0  0  0  0  0
  188.0780  177.4130  146.7550 C   0  0  0  0  0  2  0  0  0  0  0  0
  181.3100  177.7310  139.9580 O   0  0  0  0  0  0  0  0  0  0  0  0
  183.6370  177.7680  140.3390 C   0  0  0  0  0  2  0  0  0  0  0  0
  184.8400  178.5150  145.0010 C   0  0  0  0  0  0  0  0  0  0  0  0
  189.4780  176.4120  144.9810 C   0  0  0  0  0  2  0  0  0  0  0  0
  187.3890  177.3940  144.3320 C   0  0  1  0  0  3  0  0  0  0  0  0
  188.8270  176.3520  142.7540 C   0  0  0  0  0  2  0  0  0  0  0  0
  189.9990  176.7120  141.9080 C   0  0  0  0  0  0  0  0  0  0  0  0
  192.1870  177.4320  140.3180 C   0  0  0  0  0  0  0  0  0  0  0  0
  191.2070  177.0870  142.5070 C   0  0  0  0  0  3  0  0  0  0  0  0
  189.8850  176.7040  140.5130 C   0  0  0  0  0  3  0  0  0  0  0  0
  190.9780  177.0620  139.7190 C   0  0  0  0  0  3  0  0  0  0  0  0
  193.2460  177.7780  139.5480 F   0  0  0  0  0  0  0  0  0  0  0  0
  192.3010  177.4450  141.7120 C   0  0  0  0  0  3  0  0  0  0  0  0
  1 20  1  0  0  0  0
  1 19  1  0  0  0  0
  2  7  1  0  0  0  0
  4 12  1  0  0  0  0
  5 18  2  0  0  0  0
  6  9  1  0  0  0  0
  7  4  2  0  0  0  0
  7  5  1  0  0  0  0
  9  4  1  0  0  0  0
 10 14  1  0  0  0  0
 10 15  1  1  0  0  0
 11  5  1  0  0  0  0
 12  8  2  0  0  0  0
 13 15  1  0  0  0  0
 14  3  1  1  0  0  0
 16  6  2  0  0  0  0
 17  6  1  0  0  0  0
 17  2  1  0  0  0  0
 18  8  1  0  0  0  0
 18 14  1  0  0  0  0
 19 13  1  0  0  0  0
 20 11  1  6  0  0  0
 20 10  1  0  0  0  0
 21  1  1  0  0  0  0
 22 24  1  0  0  0  0
 22 21  1  0  0  0  0
 23 28  1  0  0  0  0
 25 22  2  0  0  0  0
 26 23  2  0  0  0  0
 26 25  1  0  0  0  0
 27 23  1  0  0  0  0
 28 24  2  0  0  0  0
M  END
>  <MODEL>
3

>  <REMARK>
 VINA RESULT:     -10.3      1.313      2.437
  Name = 
  2 active torsions:
  status: ('A' for Active; 'I' for Inactive)
    1  A    between atoms: N_1  and  C_2
    2  A    between atoms: C_2  and  C_3
                            x       y       z     vdW  Elec       q    Type
                         _______ _______ _______ _____ _____    ______ ____

>  <TORSDO>
F 2

$$$$
=
 OpenBabel10262420523D

 28 32  0  0  1  0  0  0  0  0999 V2000
  184.5110  178.4220  142.6780 N   0  0  0  0  0  0  0  0  0  0  0  0
  189.2400  176.8610  141.2760 C   0  0  0  0  0  2  0  0  0  0  0  0
  186.8720  177.3210  146.8890 C   0  0  0  0  0  1  0  0  0  0  0  0
  190.5360  177.2890  143.3770 C   0  0  0  0  0  0  0  0  0  0  0  0
  188.1130  177.5320  143.4500 C   0  0  0  0  0  0  0  0  0  0  0  0
  191.6980  177.4270  141.1930 C   0  0  0  0  0  0  0  0  0  0  0  0
  189.2880  177.2490  142.7290 C   0  0  0  0  0  0  0  0  0  0  0  0
  189.4460  177.8810  145.4520 C   0  0  0  0  0  3  0  0  0  0  0  0
  191.7930  176.9670  142.6240 C   0  0  0  0  0  2  0  0  0  0  0  0
  185.6370  178.0900  144.8650 C   0  0  1  0  0  3  0  0  0  0  0  0
  186.7780  177.4700  142.7670 C   0  0  0  0  0  2  0  0  0  0  0  0
  190.6090  177.6040  144.7340 C   0  0  0  0  0  3  0  0  0  0  0  0
  183.2920  178.9340  144.7430 C   0  0  0  0  0  2  0  0  0  0  0  0
  186.9610  178.1870  145.6390 C   0  0  2  0  0  3  0  0  0  0  0  0
  184.5900  178.9790  145.5310 C   0  0  0  0  0  2  0  0  0  0  0  0
  192.7190  177.7110  140.5900 O   0  0  0  0  0  0  0  0  0  0  0  0
  190.3720  177.5230  140.4840 C   0  0  0  0  0  2  0  0  0  0  0  0
  188.1900  177.8280  144.8300 C   0  0  0  0  0  0  0  0  0  0  0  0
  183.5770  179.3560  143.3090 C   0  0  0  0  0  2  0  0  0  0  0  0
  185.8040  178.4720  143.3840 C   0  0  1  0  0  3  0  0  0  0  0  0
  184.7080  178.9320  141.3270 C   0  0  0  0  0  2  0  0  0  0  0  0
  183.6100  178.4570  140.4390 C   0  0  0  0  0  0  0  0  0  0  0  0
  181.5800  177.5540  138.7380 C   0  0  0  0  0  0  0  0  0  0  0  0
  183.1560  177.1360  140.5300 C   0  0  0  0  0  3  0  0  0  0  0  0
  183.0530  179.3230  139.4910 C   0  0  0  0  0  3  0  0  0  0  0  0
  182.0380  178.8720  138.6420 C   0  0  0  0  0  3  0  0  0  0  0  0
  180.5960  177.1180  137.9150 F   0  0  0  0  0  0  0  0  0  0  0  0
  182.1400  176.6860  139.6800 C   0  0  0  0  0  3  0  0  0  0  0  0
  1 19  1  0  0  0  0
  1 20  1  0  0  0  0
  2  7  1  0  0  0  0
  4 12  1  0  0  0  0
  5 18  2  0  0  0  0
  6  9  1  0  0  0  0
  7  4  2  0  0  0  0
  7  5  1  0  0  0  0
  9  4  1  0  0  0  0
 10 15  1  1  0  0  0
 10 14  1  0  0  0  0
 11  5  1  0  0  0  0
 12  8  2  0  0  0  0
 13 15  1  0  0  0  0
 14  3  1  1  0  0  0
 16  6  2  0  0  0  0
 17  6  1  0  0  0  0
 17  2  1  0  0  0  0
 18  8  1  0  0  0  0
 18 14  1  0  0  0  0
 19 13  1  0  0  0  0
 20 11  1  6  0  0  0
 20 10  1  0  0  0  0
 21  1  1  0  0  0  0
 22 24  1  0  0  0  0
 22 21  1  0  0  0  0
 23 28  1  0  0  0  0
 25 22  2  0  0  0  0
 26 23  2  0  0  0  0
 26 25  1  0  0  0  0
 27 23  1  0  0  0  0
 28 24  2  0  0  0  0
M  END
>  <MODEL>
4

>  <REMARK>
 VINA RESULT:     -10.2      3.846      7.187
  Name = 
  2 active torsions:
  status: ('A' for Active; 'I' for Inactive)
    1  A    between atoms: N_1  and  C_2
    2  A    between atoms: C_2  and  C_3
                            x       y       z     vdW  Elec       q    Type
                         _______ _______ _______ _____ _____    ______ ____

>  <TORSDO>
F 2

$$$$
=
 OpenBabel10262420523D

 28 32  0  0  1  0  0  0  0  0999 V2000
  187.6000  177.7920  140.6640 N   0  0  0  0  0  0  0  0  0  0  0  0
  188.7240  176.9590  145.6450 C   0  0  0  0  0  2  0  0  0  0  0  0
  183.3400  178.3660  143.1210 C   0  0  0  0  0  1  0  0  0  0  0  0
  186.8580  178.1910  146.7760 C   0  0  0  0  0  0  0  0  0  0  0  0
  186.7590  177.9230  144.3570 C   0  0  0  0  0  0  0  0  0  0  0  0
  189.0440  177.9920  147.9250 C   0  0  0  0  0  0  0  0  0  0  0  0
  187.4240  177.7170  145.5800 C   0  0  0  0  0  0  0  0  0  0  0  0
  184.9700  179.0620  145.5430 C   0  0  0  0  0  3  0  0  0  0  0  0
  187.5480  177.9570  148.0870 C   0  0  0  0  0  2  0  0  0  0  0  0
  185.4470  178.2940  141.7910 C   0  0  1  0  0  3  0  0  0  0  0  0
  187.3510  177.4020  143.0800 C   0  0  0  0  0  2  0  0  0  0  0  0
  185.6340  178.8600  146.7530 C   0  0  0  0  0  3  0  0  0  0  0  0
  185.6960  178.5580  139.3220 C   0  0  0  0  0  2  0  0  0  0  0  0
  184.7750  178.8710  143.0470 C   0  0  2  0  0  3  0  0  0  0  0  0
  184.9970  179.0840  140.5640 C   0  0  0  0  0  2  0  0  0  0  0  0
  189.7390  178.3180  148.8720 O   0  0  0  0  0  0  0  0  0  0  0  0
  189.7030  177.6140  146.6230 C   0  0  0  0  0  2  0  0  0  0  0  0
  185.5080  178.5820  144.3410 C   0  0  0  0  0  0  0  0  0  0  0  0
  187.2000  178.6380  139.5380 C   0  0  0  0  0  2  0  0  0  0  0  0
  186.9810  178.3000  141.9010 C   0  0  1  0  0  3  0  0  0  0  0  0
  189.0440  177.9580  140.7730 C   0  0  0  0  0  2  0  0  0  0  0  0
  189.7280  177.1900  139.6950 C   0  0  0  0  0  0  0  0  0  0  0  0
  191.0100  175.7870  137.6410 C   0  0  0  0  0  0  0  0  0  0  0  0
  191.1250  177.1350  139.6510 C   0  0  0  0  0  3  0  0  0  0  0  0
  188.9730  176.5500  138.7050 C   0  0  0  0  0  3  0  0  0  0  0  0
  189.6130  175.8480  137.6810 C   0  0  0  0  0  3  0  0  0  0  0  0
  191.6300  175.1050  136.6480 F   0  0  0  0  0  0  0  0  0  0  0  0
  191.7650  176.4310  138.6260 C   0  0  0  0  0  3  0  0  0  0  0  0
  1 21  1  0  0  0  0
  1 20  1  0  0  0  0
  2 17  1  0  0  0  0
  4  9  1  0  0  0  0
  5  7  1  0  0  0  0
  6  9  1  0  0  0  0
  6 16  2  0  0  0  0
  7  2  1  0  0  0  0
  7  4  2  0  0  0  0
  8 12  2  0  0  0  0
 10 15  1  6  0  0  0
 10 20  1  0  0  0  0
 10 14  1  0  0  0  0
 11  5  1  0  0  0  0
 12  4  1  0  0  0  0
 13 19  1  0  0  0  0
 13 15  1  0  0  0  0
 14  3  1  1  0  0  0
 14 18  1  0  0  0  0
 17  6  1  0  0  0  0
 18  5  2  0  0  0  0
 18  8  1  0  0  0  0
 19  1  1  0  0  0  0
 20 11  1  1  0  0  0
 22 21  1  0  0  0  0
 23 26  2  0  0  0  0
 23 28  1  0  0  0  0
 24 22  1  0  0  0  0
 25 22  2  0  0  0  0
 26 25  1  0  0  0  0
 27 23  1  0  0  0  0
 28 24  2  0  0  0  0
M  END
>  <MODEL>
5

>  <REMARK>
 VINA RESULT:      -9.9      2.538      4.846
  Name = 
  2 active torsions:
  status: ('A' for Active; 'I' for Inactive)
    1  A    between atoms: N_1  and  C_2
    2  A    between atoms: C_2  and  C_3
                            x       y       z     vdW  Elec       q    Type
                         _______ _______ _______ _____ _____    ______ ____

>  <TORSDO>
F 2

$$$$
=
 OpenBabel10262420523D

 28 32  0  0  1  0  0  0  0  0999 V2000
  183.4880  178.6930  139.6760 N   0  0  0  0  0  0  0  0  0  0  0  0
  187.0390  177.2430  143.1480 C   0  0  0  0  0  2  0  0  0  0  0  0
  181.1120  178.4450  144.0120 C   0  0  0  0  0  1  0  0  0  0  0  0
  186.0160  178.0890  145.2720 C   0  0  0  0  0  0  0  0  0  0  0  0
  184.6810  178.1790  143.2360 C   0  0  0  0  0  0  0  0  0  0  0  0
  188.4830  177.9490  145.0940 C   0  0  0  0  0  0  0  0  0  0  0  0
  185.8860  177.8620  143.8900 C   0  0  0  0  0  0  0  0  0  0  0  0
  183.7520  178.9340  145.3510 C   0  0  0  0  0  3  0  0  0  0  0  0
  187.2880  177.7340  145.9830 C   0  0  0  0  0  2  0  0  0  0  0  0
  182.2250  178.7930  141.8100 C   0  0  1  0  0  3  0  0  0  0  0  0
  184.5320  177.9200  141.7660 C   0  0  0  0  0  2  0  0  0  0  0  0
  184.9490  178.6230  145.9960 C   0  0  0  0  0  3  0  0  0  0  0  0
  181.1560  179.4500  139.6530 C   0  0  0  0  0  2  0  0  0  0  0  0
  182.2940  179.1010  143.3130 C   0  0  2  0  0  3  0  0  0  0  0  0
  181.1960  179.7070  141.1490 C   0  0  0  0  0  2  0  0  0  0  0  0
  189.5640  178.1990  145.5980 O   0  0  0  0  0  0  0  0  0  0  0  0
  188.3760  177.8410  143.5940 C   0  0  0  0  0  2  0  0  0  0  0  0
  183.5950  178.6990  143.9780 C   0  0  0  0  0  0  0  0  0  0  0  0
  182.5530  179.6520  139.0850 C   0  0  0  0  0  2  0  0  0  0  0  0
  183.5950  178.9410  141.1240 C   0  0  1  0  0  3  0  0  0  0  0  0
  184.7780  178.9900  139.0650 C   0  0  0  0  0  2  0  0  0  0  0  0
  185.1360  177.9240  138.0870 C   0  0  0  0  0  0  0  0  0  0  0  0
  185.8280  175.8980  136.2860 C   0  0  0  0  0  0  0  0  0  0  0  0
  184.2360  176.8860  137.8210 C   0  0  0  0  0  3  0  0  0  0  0  0
  186.3850  177.9430  137.4570 C   0  0  0  0  0  3  0  0  0  0  0  0
  186.7300  176.9320  136.5560 C   0  0  0  0  0  3  0  0  0  0  0  0
  186.1640  174.9190  135.4120 F   0  0  0  0  0  0  0  0  0  0  0  0
  184.5820  175.8750  136.9190 C   0  0  0  0  0  3  0  0  0  0  0  0
  1 20  1  0  0  0  0
  2 17  1  0  0  0  0
  2  7  1  0  0  0  0
  4  9  1  0  0  0  0
  4 12  1  0  0  0  0
  5  7  1  0  0  0  0
  5 18  2  0  0  0  0
  6 16  2  0  0  0  0
  6  9  1  0  0  0  0
  7  4  2  0  0  0  0
  8 12  2  0  0  0  0
 10 15  1  6  0  0  0
 10 14  1  0  0  0  0
 11  5  1  0  0  0  0
 13 15  1  0  0  0  0
 14 18  1  0  0  0  0
 14  3  1  1  0  0  0
 17  6  1  0  0  0  0
 18  8  1  0  0  0  0
 19 13  1  0  0  0  0
 19  1  1  0  0  0  0
 20 11  1  1  0  0  0
 20 10  1  0  0  0  0
 21  1  1  0  0  0  0
 22 21  1  0  0  0  0
 23 26  2  0  0  0  0
 23 28  1  0  0  0  0
 24 22  1  0  0  0  0
 25 22  2  0  0  0  0
 26 25  1  0  0  0  0
 27 23  1  0  0  0  0
 28 24  2  0  0  0  0
M  END
>  <MODEL>
6

>  <REMARK>
 VINA RESULT:      -9.9      3.837      6.652
  Name = 
  2 active torsions:
  status: ('A' for Active; 'I' for Inactive)
    1  A    between atoms: N_1  and  C_2
    2  A    between atoms: C_2  and  C_3
                            x       y       z     vdW  Elec       q    Type
                         _______ _______ _______ _____ _____    ______ ____

>  <TORSDO>
F 2

$$$$
=
 OpenBabel10262420523D

 28 32  0  0  1  0  0  0  0  0999 V2000
  186.9100  177.9770  140.9180 N   0  0  0  0  0  0  0  0  0  0  0  0
  189.7310  176.3750  144.9490 C   0  0  0  0  0  2  0  0  0  0  0  0
  183.8980  178.1890  144.8420 C   0  0  0  0  0  1  0  0  0  0  0  0
  188.4940  177.4270  146.8560 C   0  0  0  0  0  0  0  0  0  0  0  0
  187.4960  177.5390  144.6370 C   0  0  0  0  0  0  0  0  0  0  0  0
  190.9320  177.0400  147.0670 C   0  0  0  0  0  0  0  0  0  0  0  0
  188.5490  177.1410  145.4810 C   0  0  0  0  0  0  0  0  0  0  0  0
  186.3440  178.4900  146.5540 C   0  0  0  0  0  3  0  0  0  0  0  0
  189.6010  176.9890  147.7680 C   0  0  0  0  0  2  0  0  0  0  0  0
  185.3580  178.3110  142.8260 C   0  0  1  0  0  3  0  0  0  0  0  0
  187.5420  177.2180  143.1720 C   0  0  0  0  0  2  0  0  0  0  0  0
  187.3920  178.0990  147.3860 C   0  0  0  0  0  3  0  0  0  0  0  0
  184.6980  178.9530  140.5070 C   0  0  0  0  0  2  0  0  0  0  0  0
  185.2330  178.6900  144.3100 C   0  0  2  0  0  3  0  0  0  0  0  0
  184.5400  179.2840  141.9810 C   0  0  0  0  0  2  0  0  0  0  0  0
  191.9450  177.2110  147.7220 O   0  0  0  0  0  0  0  0  0  0  0  0
  191.0400  176.8640  145.5730 C   0  0  0  0  0  2  0  0  0  0  0  0
  186.3710  178.2000  145.1820 C   0  0  0  0  0  0  0  0  0  0  0  0
  186.1780  178.9890  140.1550 C   0  0  0  0  0  2  0  0  0  0  0  0
  186.8230  178.2900  142.3560 C   0  0  1  0  0  3  0  0  0  0  0  0
  188.3000  178.1150  140.5030 C   0  0  0  0  0  2  0  0  0  0  0  0
  188.4110  177.9430  139.0280 C   0  0  0  0  0  0  0  0  0  0  0  0
  188.6610  177.6020  136.2620 C   0  0  0  0  0  0  0  0  0  0  0  0
  187.9290  176.7780  138.4200 C   0  0  0  0  0  3  0  0  0  0  0  0
  189.0240  178.9330  138.2520 C   0  0  0  0  0  3  0  0  0  0  0  0
  189.1480  178.7630  136.8700 C   0  0  0  0  0  3  0  0  0  0  0  0
  188.7800  177.4390  134.9220 F   0  0  0  0  0  0  0  0  0  0  0  0
  188.0530  176.6100  137.0370 C   0  0  0  0  0  3  0  0  0  0  0  0
  1 20  1  0  0  0  0
  2  7  1  0  0  0  0
  2 17  1  0  0  0  0
  4 12  1  0  0  0  0
  4  9  1  0  0  0  0
  5 18  2  0  0  0  0
  5  7  1  0  0  0  0
  6 16  2  0  0  0  0
  6  9  1  0  0  0  0
  7  4  2  0  0  0  0
  8 12  2  0  0  0  0
 10 15  1  6  0  0  0
 10 14  1  0  0  0  0
 11  5  1  0  0  0  0
 13 15  1  0  0  0  0
 14  3  1  1  0  0  0
 14 18  1  0  0  0  0
 17  6  1  0  0  0  0
 18  8  1  0  0  0  0
 19 13  1  0  0  0  0
 19  1  1  0  0  0  0
 20 10  1  0  0  0  0
 20 11  1  1  0  0  0
 21  1  1  0  0  0  0
 22 21  1  0  0  0  0
 23 26  2  0  0  0  0
 23 28  1  0  0  0  0
 24 22  1  0  0  0  0
 25 22  2  0  0  0  0
 26 25  1  0  0  0  0
 27 23  1  0  0  0  0
 28 24  2  0  0  0  0
M  END
>  <MODEL>
7

>  <REMARK>
 VINA RESULT:      -9.9      3.156      5.394
  Name = 
  2 active torsions:
  status: ('A' for Active; 'I' for Inactive)
    1  A    between atoms: N_1  and  C_2
    2  A    between atoms: C_2  and  C_3
                            x       y       z     vdW  Elec       q    Type
                         _______ _______ _______ _____ _____    ______ ____

>  <TORSDO>
F 2

$$$$
=
 OpenBabel10262420523D

 28 32  0  0  1  0  0  0  0  0999 V2000
  189.2260  177.4260  140.0590 N   0  0  0  0  0  0  0  0  0  0  0  0
  190.7260  176.0550  144.8170 C   0  0  0  0  0  2  0  0  0  0  0  0
  185.1770  177.7330  142.8910 C   0  0  0  0  0  1  0  0  0  0  0  0
  188.9660  177.1580  146.2180 C   0  0  0  0  0  0  0  0  0  0  0  0
  188.6770  177.1550  143.7990 C   0  0  0  0  0  0  0  0  0  0  0  0
  191.2320  176.8340  147.1640 C   0  0  0  0  0  0  0  0  0  0  0  0
  189.4330  176.8160  144.9370 C   0  0  0  0  0  0  0  0  0  0  0  0
  186.9960  178.1600  145.2390 C   0  0  0  0  0  3  0  0  0  0  0  0
  189.7530  176.7820  147.4380 C   0  0  0  0  0  2  0  0  0  0  0  0
  187.1720  177.8050  141.4000 C   0  0  1  0  0  3  0  0  0  0  0  0
  189.1630  176.7750  142.4310 C   0  0  0  0  0  2  0  0  0  0  0  0
  187.7500  177.8270  146.3630 C   0  0  0  0  0  3  0  0  0  0  0  0
  187.2310  178.3360  138.9620 C   0  0  0  0  0  2  0  0  0  0  0  0
  186.6050  178.2420  142.7600 C   0  0  2  0  0  3  0  0  0  0  0  0
  186.6360  178.7240  140.3050 C   0  0  0  0  0  2  0  0  0  0  0  0
  192.0020  177.0540  148.0840 O   0  0  0  0  0  0  0  0  0  0  0  0
  191.7850  176.5990  145.7810 C   0  0  0  0  0  2  0  0  0  0  0  0
  187.4340  177.8130  143.9530 C   0  0  0  0  0  0  0  0  0  0  0  0
  188.7480  178.3900  139.0670 C   0  0  0  0  0  2  0  0  0  0  0  0
  188.7110  177.7960  141.3890 C   0  0  1  0  0  3  0  0  0  0  0  0
  190.6760  177.5780  140.0720 C   0  0  0  0  0  2  0  0  0  0  0  0
  191.2910  176.6780  139.0570 C   0  0  0  0  0  0  0  0  0  0  0  0
  192.4590  174.9580  137.1840 C   0  0  0  0  0  0  0  0  0  0  0  0
  190.5130  175.7050  138.4190 C   0  0  0  0  0  3  0  0  0  0  0  0
  192.6550  176.7850  138.7620 C   0  0  0  0  0  3  0  0  0  0  0  0
  193.2380  175.9270  137.8260 C   0  0  0  0  0  3  0  0  0  0  0  0
  193.0250  174.1280  136.2760 F   0  0  0  0  0  0  0  0  0  0  0  0
  191.0980  174.8470  137.4820 C   0  0  0  0  0  3  0  0  0  0  0  0
  1 21  1  0  0  0  0
  1 20  1  0  0  0  0
  2  7  1  0  0  0  0
  2 17  1  0  0  0  0
  4 12  1  0  0  0  0
  4  9  1  0  0  0  0
  5 18  2  0  0  0  0
  5  7  1  0  0  0  0
  6  9  1  0  0  0  0
  6 16  2  0  0  0  0
  7  4  2  0  0  0  0
  8 12  2  0  0  0  0
 10 15  1  6  0  0  0
 10 14  1  0  0  0  0
 11  5  1  0  0  0  0
 13 19  1  0  0  0  0
 13 15  1  0  0  0  0
 14  3  1  1  0  0  0
 14 18  1  0  0  0  0
 17  6  1  0  0  0  0
 18  8  1  0  0  0  0
 19  1  1  0  0  0  0
 20 10  1  0  0  0  0
 20 11  1  1  0  0  0
 22 21  1  0  0  0  0
 23 28  2  0  0  0  0
 23 26  1  0  0  0  0
 24 22  2  0  0  0  0
 25 22  1  0  0  0  0
 26 25  2  0  0  0  0
 27 23  1  0  0  0  0
 28 24  1  0  0  0  0
M  END
>  <MODEL>
8

>  <REMARK>
 VINA RESULT:      -9.6      2.823      5.190
  Name = 
  2 active torsions:
  status: ('A' for Active; 'I' for Inactive)
    1  A    between atoms: N_1  and  C_2
    2  A    between atoms: C_2  and  C_3
                            x       y       z     vdW  Elec       q    Type
                         _______ _______ _______ _____ _____    ______ ____

>  <TORSDO>
F 2

$$$$
=
 OpenBabel10262420523D

 28 32  0  0  1  0  0  0  0  0999 V2000
  186.5280  178.2610  143.4910 N   0  0  0  0  0  0  0  0  0  0  0  0
  189.9410  177.8760  139.6220 C   0  0  0  0  0  2  0  0  0  0  0  0
  184.1610  179.8450  139.4420 C   0  0  0  0  0  1  0  0  0  0  0  0
  188.4150  177.7450  137.6390 C   0  0  0  0  0  0  0  0  0  0  0  0
  187.4380  178.2530  139.8120 C   0  0  0  0  0  0  0  0  0  0  0  0
  190.6210  176.6210  137.5400 C   0  0  0  0  0  0  0  0  0  0  0  0
  188.5630  177.9500  139.0230 C   0  0  0  0  0  0  0  0  0  0  0  0
  186.0400  178.1530  137.8260 C   0  0  0  0  0  3  0  0  0  0  0  0
  189.6110  177.4430  136.7850 C   0  0  0  0  0  2  0  0  0  0  0  0
  185.1710  178.8950  141.5130 C   0  0  1  0  0  3  0  0  0  0  0  0
  187.5940  178.4910  141.2850 C   0  0  0  0  0  2  0  0  0  0  0  0
  187.1560  177.8480  137.0480 C   0  0  0  0  0  3  0  0  0  0  0  0
  184.1490  178.7750  143.7860 C   0  0  0  0  0  2  0  0  0  0  0  0
  184.9180  178.6560  140.0160 C   0  0  2  0  0  3  0  0  0  0  0  0
  183.8970  178.5950  142.2990 C   0  0  0  0  0  2  0  0  0  0  0  0
  191.3710  175.8840  136.9230 O   0  0  0  0  0  0  0  0  0  0  0  0
  190.7410  176.7060  139.0410 C   0  0  0  0  0  2  0  0  0  0  0  0
  186.1670  178.3780  139.2050 C   0  0  0  0  0  0  0  0  0  0  0  0
  185.3050  177.8760  144.1980 C   0  0  0  0  0  2  0  0  0  0  0  0
  186.3430  178.0520  142.0440 C   0  0  1  0  0  3  0  0  0  0  0  0
  187.5490  177.3320  143.9600 C   0  0  0  0  0  2  0  0  0  0  0  0
  187.8530  177.5920  145.3950 C   0  0  0  0  0  0  0  0  0  0  0  0
  188.4090  178.0350  148.1010 C   0  0  0  0  0  0  0  0  0  0  0  0
  189.1430  177.3680  145.8910 C   0  0  0  0  0  3  0  0  0  0  0  0
  186.8400  178.0300  146.2560 C   0  0  0  0  0  3  0  0  0  0  0  0
  187.1190  178.2530  147.6070 C   0  0  0  0  0  3  0  0  0  0  0  0
  188.6790  178.2530  149.4110 F   0  0  0  0  0  0  0  0  0  0  0  0
  189.4200  177.5920  147.2430 C   0  0  0  0  0  3  0  0  0  0  0  0
  1 21  1  0  0  0  0
  1 19  1  0  0  0  0
  4  7  1  0  0  0  0
  5 11  1  0  0  0  0
  6 17  1  0  0  0  0
  7  2  1  0  0  0  0
  7  5  2  0  0  0  0
  8 18  2  0  0  0  0
  9  6  1  0  0  0  0
  9  4  1  0  0  0  0
 10 20  1  0  0  0  0
 10 15  1  1  0  0  0
 12  4  2  0  0  0  0
 12  8  1  0  0  0  0
 13 19  1  0  0  0  0
 14  3  1  6  0  0  0
 14 10  1  0  0  0  0
 15 13  1  0  0  0  0
 16  6  2  0  0  0  0
 17  2  1  0  0  0  0
 18  5  1  0  0  0  0
 18 14  1  0  0  0  0
 20 11  1  6  0  0  0
 20  1  1  0  0  0  0
 21 22  1  0  0  0  0
 22 24  2  0  0  0  0
 22 25  1  0  0  0  0
 23 27  1  0  0  0  0
 24 28  1  0  0  0  0
 25 26  2  0  0  0  0
 26 23  1  0  0  0  0
 28 23  2  0  0  0  0
M  END
>  <MODEL>
9

>  <REMARK>
 VINA RESULT:      -9.3      3.964      7.889
  Name = 
  2 active torsions:
  status: ('A' for Active; 'I' for Inactive)
    1  A    between atoms: N_1  and  C_2
    2  A    between atoms: C_2  and  C_3
                            x       y       z     vdW  Elec       q    Type
                         _______ _______ _______ _____ _____    ______ ____

>  <TORSDO>
F 2

$$$$
