=
 OpenBabel10262422553D

 37 40  0  0  1  0  0  0  0  0999 V2000
  189.5810  174.2780  136.6010 N   0  0  0  0  0  2  0  0  0  0  0  0
  190.6650  177.5530  139.7720 C   0  0  2  0  0  3  0  0  0  0  0  0
  190.9770  175.8160  137.9140 C   0  0  2  0  0  3  0  0  0  0  0  0
  189.6130  177.4180  140.7950 N   0  0  0  0  0  0  0  0  0  0  0  0
  190.1220  176.9550  138.4730 C   0  0  1  0  0  3  0  0  0  0  0  0
  192.4510  176.2210  137.7910 C   0  0  0  0  0  2  0  0  0  0  0  0
  188.8020  176.4570  138.8020 N   0  0  2  0  0  0  0  0  0  0  0  0
  187.4100  175.3040  137.2170 C   0  0  0  0  0  3  0  0  0  0  0  0
  192.0670  177.0570  140.1770 C   0  0  1  0  0  3  0  0  0  0  0  0
  192.9870  177.0610  138.9610 C   0  0  0  0  0  2  0  0  0  0  0  0
  187.9260  176.6360  137.6500 C   0  0  0  0  0  2  0  0  0  0  0  0
  192.6530  177.9660  141.2400 C   0  0  0  0  0  1  0  0  0  0  0  0
  188.4030  177.2040  140.0030 C   0  0  2  0  0  3  0  0  0  0  0  0
  190.4630  175.4370  136.5350 C   0  0  0  0  0  2  0  0  0  0  0  0
  188.1540  174.2790  136.7850 C   0  0  0  0  0  3  0  0  0  0  0  0
  189.8010  176.2020  141.5960 C   0  0  0  0  0  2  0  0  0  0  0  0
  188.0160  175.9510  143.3370 C   0  0  0  0  0  1  0  0  0  0  0  0
  189.4310  176.4220  143.0600 C   0  0  2  0  0  3  0  0  0  0  0  0
  189.6140  177.8850  143.4650 C   0  0  0  0  0  2  0  0  0  0  0  0
  188.6900  177.8420  145.8250 C   0  0  0  0  0  2  0  0  0  0  0  0
  189.9230  178.0590  144.9490 C   0  0  1  0  0  3  0  0  0  0  0  0
  191.0280  177.1930  145.3570 N   0  0  0  0  0  2  0  0  0  0  0  0
  192.2770  176.1600  147.0590 N   0  0  0  0  0  2  0  0  0  0  0  0
  190.0750  176.9010  147.6900 C   0  0  0  0  0  2  0  0  0  0  0  0
  191.2200  176.8190  146.7250 C   0  0  0  0  0  0  0  0  0  0  0  0
  189.0860  177.9940  147.2880 C   0  0  0  0  0  2  0  0  0  0  0  0
  187.7430  178.5610  139.6920 C   0  0  0  0  0  2  0  0  0  0  0  0
  186.4250  178.9240  141.7130 C   0  0  0  0  0  3  0  0  0  0  0  0
  186.4300  178.7010  140.3910 C   0  0  0  0  0  0  0  0  0  0  0  0
  185.3320  178.3570  143.8650 C   0  0  0  0  0  1  0  0  0  0  0  0
  185.1780  179.0660  142.5330 C   0  0  0  0  0  2  0  0  0  0  0  0
  185.1680  178.5510  139.5950 C   0  0  0  0  0  2  0  0  0  0  0  0
  184.5540  179.7930  139.4260 O   0  0  0  0  0  0  0  0  0  0  0  0
  183.3720  179.5060  138.7390 C   0  0  0  0  0  2  0  0  0  0  0  0
  182.2320  179.9830  139.5030 N   0  0  0  0  0  2  0  0  0  0  0  0
  181.6550  178.6430  141.4390 C   0  0  0  0  0  1  0  0  0  0  0  0
  181.4920  178.8130  139.9430 C   0  0  0  0  0  2  0  0  0  0  0  0
  1 15  1  0  0  0  0
  2  9  1  0  0  0  0
  2  4  1  1  0  0  0
  3 14  1  6  0  0  0
  3  5  1  0  0  0  0
  4 16  1  0  0  0  0
  5  7  1  0  0  0  0
  5  2  1  0  0  0  0
  6  3  1  0  0  0  0
  6 10  1  0  0  0  0
  7 13  1  0  0  0  0
  8 11  1  0  0  0  0
  9 12  1  0  0  0  0
 10  9  1  0  0  0  0
 11  7  1  0  0  0  0
 13  4  1  0  0  0  0
 14  1  1  0  0  0  0
 15  8  2  0  0  0  0
 16 18  1  0  0  0  0
 18 17  1  0  0  0  0
 18 19  1  0  0  0  0
 19 21  1  0  0  0  0
 20 26  1  0  0  0  0
 21 22  1  0  0  0  0
 21 20  1  0  0  0  0
 22 25  1  0  0  0  0
 25 23  2  0  0  0  0
 25 24  1  0  0  0  0
 26 24  1  0  0  0  0
 27 13  1  0  0  0  0
 27 29  1  0  0  0  0
 28 31  1  0  0  0  0
 29 28  2  0  0  0  0
 31 30  1  0  0  0  0
 32 29  1  0  0  0  0
 33 32  1  0  0  0  0
 34 33  1  0  0  0  0
 34 35  1  0  0  0  0
 35 37  1  0  0  0  0
 37 36  1  0  0  0  0
M  END
>  <MODEL>
1

>  <REMARK>
 VINA RESULT:      -6.6      0.000      0.000
  Name = 
  12 active torsions:
  status: ('A' for Active; 'I' for Inactive)
    1  A    between atoms: N_1  and  C_5
    2  A    between atoms: N_1  and  C_23
    3  A    between atoms: C_5  and  O_17
    4  A    between atoms: C_6  and  C_37
    5  A    between atoms: N_10  and  C_14
    6  A    between atoms: C_14  and  C_31
    7  A    between atoms: O_17  and  C_26
    8  A    between atoms: C_26  and  C_33
    9  A    between atoms: C_27  and  C_34
   10  A    between atoms: C_29  and  C_36
   11  A    between atoms: C_31  and  C_37
   12  A    between atoms: C_33  and  C_36
                            x       y       z     vdW  Elec       q    Type
                         _______ _______ _______ _____ _____    ______ ____

>  <TORSDO>
F 12

$$$$
=
 OpenBabel10262422553D

 37 40  0  0  1  0  0  0  0  0999 V2000
  189.3160  174.2380  136.4610 N   0  0  0  0  0  2  0  0  0  0  0  0
  190.7420  177.4650  139.5450 C   0  0  2  0  0  3  0  0  0  0  0  0
  190.8600  175.7090  137.6820 C   0  0  2  0  0  3  0  0  0  0  0  0
  189.7470  177.3840  140.6290 N   0  0  0  0  0  0  0  0  0  0  0  0
  190.0950  176.8900  138.2830 C   0  0  1  0  0  3  0  0  0  0  0  0
  192.3420  176.0420  137.4700 C   0  0  0  0  0  2  0  0  0  0  0  0
  188.7750  176.4580  138.6920 N   0  0  2  0  0  0  0  0  0  0  0  0
  187.2370  175.3700  137.1980 C   0  0  0  0  0  3  0  0  0  0  0  0
  192.1400  176.9020  139.8690 C   0  0  1  0  0  3  0  0  0  0  0  0
  192.9860  176.8580  138.6020 C   0  0  0  0  0  2  0  0  0  0  0  0
  187.8420  176.6760  137.5930 C   0  0  0  0  0  2  0  0  0  0  0  0
  192.8310  177.7840  140.8910 C   0  0  0  0  0  1  0  0  0  0  0  0
  188.4830  177.2260  139.9110 C   0  0  2  0  0  3  0  0  0  0  0  0
  190.2470  175.3520  136.3360 C   0  0  0  0  0  2  0  0  0  0  0  0
  187.9050  174.3080  136.7290 C   0  0  0  0  0  3  0  0  0  0  0  0
  189.9230  176.1620  141.4230 C   0  0  0  0  0  2  0  0  0  0  0  0
  188.2030  175.9770  143.2370 C   0  0  0  0  0  1  0  0  0  0  0  0
  189.6220  176.3960  142.9010 C   0  0  2  0  0  3  0  0  0  0  0  0
  189.8750  177.8520  143.2950 C   0  0  0  0  0  2  0  0  0  0  0  0
  188.7570  177.8210  145.5700 C   0  0  0  0  0  2  0  0  0  0  0  0
  190.0570  178.0400  144.7980 C   0  0  1  0  0  3  0  0  0  0  0  0
  191.1300  177.1850  145.3050 N   0  0  0  0  0  2  0  0  0  0  0  0
  192.2390  176.1740  147.1140 N   0  0  0  0  0  2  0  0  0  0  0  0
  189.9870  176.9050  147.5520 C   0  0  0  0  0  2  0  0  0  0  0  0
  191.2090  176.8230  146.6870 C   0  0  0  0  0  0  0  0  0  0  0  0
  189.0280  177.9880  147.0600 C   0  0  0  0  0  2  0  0  0  0  0  0
  187.8730  178.6120  139.6310 C   0  0  0  0  0  2  0  0  0  0  0  0
  185.4440  178.7390  139.4260 C   0  0  0  0  0  3  0  0  0  0  0  0
  186.5130  178.7400  140.2360 C   0  0  0  0  0  0  0  0  0  0  0  0
  183.1890  179.6050  138.8740 C   0  0  0  0  0  1  0  0  0  0  0  0
  184.0310  178.8780  139.9030 C   0  0  0  0  0  2  0  0  0  0  0  0
  186.3950  178.9010  141.7220 C   0  0  0  0  0  2  0  0  0  0  0  0
  185.5790  177.9020  142.2530 O   0  0  0  0  0  0  0  0  0  0  0  0
  185.3820  178.2810  143.5830 C   0  0  0  0  0  2  0  0  0  0  0  0
  183.9630  178.4690  143.8360 N   0  0  0  0  0  2  0  0  0  0  0  0
  185.1490  178.8550  145.9150 C   0  0  0  0  0  1  0  0  0  0  0  0
  183.8360  179.0130  145.1760 C   0  0  0  0  0  2  0  0  0  0  0  0
  1 15  1  0  0  0  0
  2  9  1  0  0  0  0
  2  4  1  1  0  0  0
  3 14  1  6  0  0  0
  3  5  1  0  0  0  0
  4 16  1  0  0  0  0
  5  7  1  0  0  0  0
  5  2  1  0  0  0  0
  6  3  1  0  0  0  0
  6 10  1  0  0  0  0
  7 13  1  0  0  0  0
  8 11  1  0  0  0  0
  9 12  1  0  0  0  0
 10  9  1  0  0  0  0
 11  7  1  0  0  0  0
 13  4  1  0  0  0  0
 14  1  1  0  0  0  0
 15  8  2  0  0  0  0
 16 18  1  0  0  0  0
 18 17  1  0  0  0  0
 18 19  1  0  0  0  0
 19 21  1  0  0  0  0
 20 26  1  0  0  0  0
 21 22  1  0  0  0  0
 21 20  1  0  0  0  0
 22 25  1  0  0  0  0
 25 23  2  0  0  0  0
 25 24  1  0  0  0  0
 26 24  1  0  0  0  0
 27 13  1  0  0  0  0
 27 29  1  0  0  0  0
 28 31  1  0  0  0  0
 28 29  2  0  0  0  0
 29 32  1  0  0  0  0
 30 31  1  0  0  0  0
 32 33  1  0  0  0  0
 33 34  1  0  0  0  0
 34 35  1  0  0  0  0
 35 37  1  0  0  0  0
 37 36  1  0  0  0  0
M  END
>  <MODEL>
2

>  <REMARK>
 VINA RESULT:      -6.5      1.199      2.232
  Name = 
  12 active torsions:
  status: ('A' for Active; 'I' for Inactive)
    1  A    between atoms: N_1  and  C_5
    2  A    between atoms: N_1  and  C_23
    3  A    between atoms: C_5  and  O_17
    4  A    between atoms: C_6  and  C_37
    5  A    between atoms: N_10  and  C_14
    6  A    between atoms: C_14  and  C_31
    7  A    between atoms: O_17  and  C_26
    8  A    between atoms: C_26  and  C_33
    9  A    between atoms: C_27  and  C_34
   10  A    between atoms: C_29  and  C_36
   11  A    between atoms: C_31  and  C_37
   12  A    between atoms: C_33  and  C_36
                            x       y       z     vdW  Elec       q    Type
                         _______ _______ _______ _____ _____    ______ ____

>  <TORSDO>
F 12

$$$$
=
 OpenBabel10262422553D

 37 40  0  0  1  0  0  0  0  0999 V2000
  184.1880  178.3440  144.3100 N   0  0  0  0  0  2  0  0  0  0  0  0
  181.8640  178.7480  140.2610 C   0  0  2  0  0  3  0  0  0  0  0  0
  182.3390  178.8660  142.7760 C   0  0  2  0  0  3  0  0  0  0  0  0
  182.4630  177.7100  139.4030 N   0  0  0  0  0  0  0  0  0  0  0  0
  182.8760  179.0770  141.3590 C   0  0  1  0  0  3  0  0  0  0  0  0
  181.0020  179.5860  142.9890 C   0  0  0  0  0  2  0  0  0  0  0  0
  183.9980  178.1910  141.1260 N   0  0  2  0  0  0  0  0  0  0  0  0
  185.9270  178.1220  142.5580 C   0  0  0  0  0  3  0  0  0  0  0  0
  180.4340  178.4660  140.7620 C   0  0  1  0  0  3  0  0  0  0  0  0
  180.0340  179.5110  141.7980 C   0  0  0  0  0  2  0  0  0  0  0  0
  185.2320  178.8820  141.4780 C   0  0  0  0  0  2  0  0  0  0  0  0
  179.4570  178.5230  139.6040 C   0  0  0  0  0  1  0  0  0  0  0  0
  183.8890  177.8050  139.7120 C   0  0  2  0  0  3  0  0  0  0  0  0
  183.3470  179.4100  143.7770 C   0  0  0  0  0  2  0  0  0  0  0  0
  185.4410  177.8780  143.7810 C   0  0  0  0  0  3  0  0  0  0  0  0
  182.0400  176.3670  139.8180 C   0  0  0  0  0  2  0  0  0  0  0  0
  180.4410  174.4940  139.3520 C   0  0  0  0  0  1  0  0  0  0  0  0
  181.1520  175.7010  138.7700 C   0  0  2  0  0  3  0  0  0  0  0  0
  181.9520  175.3220  137.5240 C   0  0  0  0  0  2  0  0  0  0  0  0
  182.2270  173.0720  136.3890 C   0  0  0  0  0  2  0  0  0  0  0  0
  182.5630  173.9270  137.6100 C   0  0  1  0  0  3  0  0  0  0  0  0
  184.0070  174.0020  137.8290 N   0  0  0  0  0  2  0  0  0  0  0  0
  186.1180  172.9690  137.8270 N   0  0  0  0  0  2  0  0  0  0  0  0
  184.4210  171.8690  136.5190 C   0  0  0  0  0  2  0  0  0  0  0  0
  184.8710  172.9090  137.5010 C   0  0  0  0  0  0  0  0  0  0  0  0
  182.9020  171.7140  136.5310 C   0  0  0  0  0  2  0  0  0  0  0  0
  184.5600  178.8020  138.7490 C   0  0  0  0  0  2  0  0  0  0  0  0
  184.8020  177.3150  136.8290 C   0  0  0  0  0  3  0  0  0  0  0  0
  185.4030  178.0980  137.7360 C   0  0  0  0  0  0  0  0  0  0  0  0
  184.5550  175.9020  134.8070 C   0  0  0  0  0  1  0  0  0  0  0  0
  185.5330  176.5430  135.7740 C   0  0  0  0  0  2  0  0  0  0  0  0
  186.8920  178.2650  137.7940 C   0  0  0  0  0  2  0  0  0  0  0  0
  187.3010  178.5070  139.1060 O   0  0  0  0  0  0  0  0  0  0  0  0
  188.5220  177.8390  139.2200 C   0  0  0  0  0  2  0  0  0  0  0  0
  188.9130  177.7640  140.6170 N   0  0  0  0  0  2  0  0  0  0  0  0
  190.2390  176.4070  142.1270 C   0  0  0  0  0  1  0  0  0  0  0  0
  190.0530  176.8670  140.6960 C   0  0  0  0  0  2  0  0  0  0  0  0
  2  4  1  1  0  0  0
  2  9  1  0  0  0  0
  2  5  1  0  0  0  0
  3  6  1  6  0  0  0
  3 14  1  0  0  0  0
  4 13  1  0  0  0  0
  4 16  1  0  0  0  0
  5  3  1  0  0  0  0
  7  5  1  0  0  0  0
  7 11  1  0  0  0  0
  8 15  2  0  0  0  0
  9 10  1  0  0  0  0
 10  6  1  0  0  0  0
 11  8  1  0  0  0  0
 12  9  1  0  0  0  0
 13  7  1  0  0  0  0
 14  1  1  0  0  0  0
 15  1  1  0  0  0  0
 18 17  1  0  0  0  0
 18 16  1  0  0  0  0
 19 21  1  0  0  0  0
 19 18  1  0  0  0  0
 20 26  1  0  0  0  0
 20 21  1  0  0  0  0
 21 22  1  0  0  0  0
 24 26  1  0  0  0  0
 24 25  1  0  0  0  0
 25 23  2  0  0  0  0
 25 22  1  0  0  0  0
 27 13  1  0  0  0  0
 28 29  2  0  0  0  0
 29 32  1  0  0  0  0
 29 27  1  0  0  0  0
 30 31  1  0  0  0  0
 31 28  1  0  0  0  0
 32 33  1  0  0  0  0
 33 34  1  0  0  0  0
 34 35  1  0  0  0  0
 35 37  1  0  0  0  0
 37 36  1  0  0  0  0
M  END
>  <MODEL>
3

>  <REMARK>
 VINA RESULT:      -5.7      3.070      9.293
  Name = 
  12 active torsions:
  status: ('A' for Active; 'I' for Inactive)
    1  A    between atoms: N_1  and  C_5
    2  A    between atoms: N_1  and  C_23
    3  A    between atoms: C_5  and  O_17
    4  A    between atoms: C_6  and  C_37
    5  A    between atoms: N_10  and  C_14
    6  A    between atoms: C_14  and  C_31
    7  A    between atoms: O_17  and  C_26
    8  A    between atoms: C_26  and  C_33
    9  A    between atoms: C_27  and  C_34
   10  A    between atoms: C_29  and  C_36
   11  A    between atoms: C_31  and  C_37
   12  A    between atoms: C_33  and  C_36
                            x       y       z     vdW  Elec       q    Type
                         _______ _______ _______ _____ _____    ______ ____

>  <TORSDO>
F 12

$$$$
=
 OpenBabel10262422553D

 37 40  0  0  1  0  0  0  0  0999 V2000
  194.0600  174.9430  134.9680 N   0  0  0  0  0  2  0  0  0  0  0  0
  189.8070  174.5580  136.8980 C   0  0  2  0  0  3  0  0  0  0  0  0
  191.7980  174.0670  135.3600 C   0  0  2  0  0  3  0  0  0  0  0  0
  189.5090  175.9210  137.3740 N   0  0  0  0  0  0  0  0  0  0  0  0
  191.3270  174.4390  136.7670 C   0  0  1  0  0  3  0  0  0  0  0  0
  191.0740  172.8230  134.8300 C   0  0  0  0  0  2  0  0  0  0  0  0
  191.8460  175.7430  137.1260 N   0  0  2  0  0  0  0  0  0  0  0  0
  194.1880  176.2800  137.0510 C   0  0  0  0  0  3  0  0  0  0  0  0
  189.0130  174.0860  135.6640 C   0  0  1  0  0  3  0  0  0  0  0  0
  189.5750  172.7600  135.1640 C   0  0  0  0  0  2  0  0  0  0  0  0
  193.1190  175.5740  137.8160 C   0  0  0  0  0  2  0  0  0  0  0  0
  187.5530  173.8960  136.0270 C   0  0  0  0  0  1  0  0  0  0  0  0
  190.7850  176.3660  137.9300 C   0  0  2  0  0  3  0  0  0  0  0  0
  193.2910  173.7800  135.3940 C   0  0  0  0  0  2  0  0  0  0  0  0
  194.5660  176.0040  135.7970 C   0  0  0  0  0  3  0  0  0  0  0  0
  189.2110  176.8230  136.2540 C   0  0  0  0  0  2  0  0  0  0  0  0
  188.7300  179.1190  137.1350 C   0  0  0  0  0  1  0  0  0  0  0  0
  188.1230  177.8320  136.6110 C   0  0  2  0  0  3  0  0  0  0  0  0
  187.1280  177.2440  137.6110 C   0  0  0  0  0  2  0  0  0  0  0  0
  184.6470  176.8800  137.2370 C   0  0  0  0  0  2  0  0  0  0  0  0
  185.7500  177.8940  137.5340 C   0  0  1  0  0  3  0  0  0  0  0  0
  185.4630  178.6550  138.7490 N   0  0  0  0  0  2  0  0  0  0  0  0
  183.9210  179.7510  140.1430 N   0  0  0  0  0  2  0  0  0  0  0  0
  182.9790  178.1660  138.5940 C   0  0  0  0  0  2  0  0  0  0  0  0
  184.1220  178.9720  139.1350 C   0  0  0  0  0  0  0  0  0  0  0  0
  183.3030  177.5970  137.2140 C   0  0  0  0  0  2  0  0  0  0  0  0
  190.8520  176.0000  139.4250 C   0  0  0  0  0  2  0  0  0  0  0  0
  189.1390  177.4980  140.3080 C   0  0  0  0  0  3  0  0  0  0  0  0
  190.4330  177.1470  140.2860 C   0  0  0  0  0  0  0  0  0  0  0  0
  187.2960  178.2400  141.7890 C   0  0  0  0  0  1  0  0  0  0  0  0
  188.5940  178.6370  141.1130 C   0  0  0  0  0  2  0  0  0  0  0  0
  191.4800  177.8850  141.0650 C   0  0  0  0  0  2  0  0  0  0  0  0
  191.8080  177.1790  142.2230 O   0  0  0  0  0  0  0  0  0  0  0  0
  191.5580  178.0780  143.2630 C   0  0  0  0  0  2  0  0  0  0  0  0
  191.2030  177.3480  144.4680 N   0  0  0  0  0  2  0  0  0  0  0  0
  188.9540  177.6560  145.3180 C   0  0  0  0  0  1  0  0  0  0  0  0
  189.8230  176.9210  144.3190 C   0  0  0  0  0  2  0  0  0  0  0  0
  1 14  1  0  0  0  0
  1 15  1  0  0  0  0
  2  4  1  6  0  0  0
  3  6  1  1  0  0  0
  3 14  1  0  0  0  0
  3  5  1  0  0  0  0
  4 13  1  0  0  0  0
  5  2  1  0  0  0  0
  5  7  1  0  0  0  0
  6 10  1  0  0  0  0
  7 11  1  0  0  0  0
  7 13  1  0  0  0  0
  8 11  1  0  0  0  0
  9 12  1  0  0  0  0
  9  2  1  0  0  0  0
 10  9  1  0  0  0  0
 13 27  1  0  0  0  0
 15  8  2  0  0  0  0
 16 18  1  0  0  0  0
 16  4  1  0  0  0  0
 18 17  1  0  0  0  0
 18 19  1  0  0  0  0
 20 21  1  0  0  0  0
 21 19  1  0  0  0  0
 21 22  1  0  0  0  0
 22 25  1  0  0  0  0
 24 25  1  0  0  0  0
 25 23  2  0  0  0  0
 26 20  1  0  0  0  0
 26 24  1  0  0  0  0
 27 29  1  0  0  0  0
 28 31  1  0  0  0  0
 29 28  2  0  0  0  0
 29 32  1  0  0  0  0
 31 30  1  0  0  0  0
 32 33  1  0  0  0  0
 33 34  1  0  0  0  0
 34 35  1  0  0  0  0
 37 35  1  0  0  0  0
 37 36  1  0  0  0  0
M  END
>  <MODEL>
4

>  <REMARK>
 VINA RESULT:      -5.5      2.455      7.099
  Name = 
  12 active torsions:
  status: ('A' for Active; 'I' for Inactive)
    1  A    between atoms: N_1  and  C_5
    2  A    between atoms: N_1  and  C_23
    3  A    between atoms: C_5  and  O_17
    4  A    between atoms: C_6  and  C_37
    5  A    between atoms: N_10  and  C_14
    6  A    between atoms: C_14  and  C_31
    7  A    between atoms: O_17  and  C_26
    8  A    between atoms: C_26  and  C_33
    9  A    between atoms: C_27  and  C_34
   10  A    between atoms: C_29  and  C_36
   11  A    between atoms: C_31  and  C_37
   12  A    between atoms: C_33  and  C_36
                            x       y       z     vdW  Elec       q    Type
                         _______ _______ _______ _____ _____    ______ ____

>  <TORSDO>
F 12

$$$$
=
 OpenBabel10262422553D

 37 40  0  0  1  0  0  0  0  0999 V2000
  184.3510  174.4130  136.3650 N   0  0  0  0  0  2  0  0  0  0  0  0
  186.6670  178.3750  137.3110 C   0  0  2  0  0  3  0  0  0  0  0  0
  185.9420  176.2610  136.0580 C   0  0  2  0  0  3  0  0  0  0  0  0
  186.6540  178.4500  138.7830 N   0  0  0  0  0  0  0  0  0  0  0  0
  185.5090  177.4710  136.8870 C   0  0  1  0  0  3  0  0  0  0  0  0
  186.8170  176.6730  134.8680 C   0  0  0  0  0  2  0  0  0  0  0  0
  184.9000  177.0220  138.1230 N   0  0  2  0  0  0  0  0  0  0  0  0
  183.0530  175.4850  138.1840 C   0  0  0  0  0  3  0  0  0  0  0  0
  188.0240  178.0340  136.6650 C   0  0  1  0  0  3  0  0  0  0  0  0
  187.8370  177.7810  135.1730 C   0  0  0  0  0  2  0  0  0  0  0  0
  183.4610  176.8970  137.9260 C   0  0  0  0  0  2  0  0  0  0  0  0
  188.9930  179.1850  136.8520 C   0  0  0  0  0  1  0  0  0  0  0  0
  185.3020  178.0170  139.1270 C   0  0  2  0  0  3  0  0  0  0  0  0
  184.7060  175.5520  135.5260 C   0  0  0  0  0  2  0  0  0  0  0  0
  183.4740  174.4110  137.5050 C   0  0  0  0  0  3  0  0  0  0  0  0
  187.5660  177.4630  139.3740 C   0  0  0  0  0  2  0  0  0  0  0  0
  189.9050  177.2970  140.2600 C   0  0  0  0  0  1  0  0  0  0  0  0
  188.6320  178.1230  140.2450 C   0  0  2  0  0  3  0  0  0  0  0  0
  188.1160  178.3680  141.6630 C   0  0  0  0  0  2  0  0  0  0  0  0
  190.2400  178.6340  143.0220 C   0  0  0  0  0  2  0  0  0  0  0  0
  189.0170  177.7650  142.7370 C   0  0  1  0  0  3  0  0  0  0  0  0
  188.2610  177.4900  143.9580 N   0  0  0  0  0  2  0  0  0  0  0  0
  188.2220  176.9950  146.2550 N   0  0  0  0  0  2  0  0  0  0  0  0
  190.2730  177.9510  145.4320 C   0  0  0  0  0  2  0  0  0  0  0  0
  188.9090  177.3620  145.2270 C   0  0  0  0  0  0  0  0  0  0  0  0
  191.0650  177.9870  144.1270 C   0  0  0  0  0  2  0  0  0  0  0  0
  184.3680  179.2400  139.1880 C   0  0  0  0  0  2  0  0  0  0  0  0
  182.0170  179.4410  139.8120 C   0  0  0  0  0  3  0  0  0  0  0  0
  183.2460  179.0220  140.1490 C   0  0  0  0  0  0  0  0  0  0  0  0
  180.0300  180.5960  140.7390 C   0  0  0  0  0  1  0  0  0  0  0  0
  180.8130  179.2990  140.6920 C   0  0  0  0  0  2  0  0  0  0  0  0
  183.5410  178.3760  141.4700 C   0  0  0  0  0  2  0  0  0  0  0  0
  184.4630  179.1390  142.1860 O   0  0  0  0  0  0  0  0  0  0  0  0
  183.8060  179.4530  143.3790 C   0  0  0  0  0  2  0  0  0  0  0  0
  184.7560  179.4520  144.4780 N   0  0  0  0  0  2  0  0  0  0  0  0
  185.1370  178.4720  146.6630 C   0  0  0  0  0  1  0  0  0  0  0  0
  184.1060  178.8050  145.6050 C   0  0  0  0  0  2  0  0  0  0  0  0
  1 15  1  0  0  0  0
  2  4  1  1  0  0  0
  3  6  1  6  0  0  0
  3  5  1  0  0  0  0
  4 13  1  0  0  0  0
  4 16  1  0  0  0  0
  5  2  1  0  0  0  0
  5  7  1  0  0  0  0
  6 10  1  0  0  0  0
  7 13  1  0  0  0  0
  9 12  1  0  0  0  0
  9  2  1  0  0  0  0
 10  9  1  0  0  0  0
 11  7  1  0  0  0  0
 11  8  1  0  0  0  0
 13 27  1  0  0  0  0
 14  3  1  0  0  0  0
 14  1  1  0  0  0  0
 15  8  2  0  0  0  0
 16 18  1  0  0  0  0
 18 17  1  0  0  0  0
 18 19  1  0  0  0  0
 19 21  1  0  0  0  0
 20 26  1  0  0  0  0
 21 20  1  0  0  0  0
 21 22  1  0  0  0  0
 22 25  1  0  0  0  0
 25 24  1  0  0  0  0
 25 23  2  0  0  0  0
 26 24  1  0  0  0  0
 27 29  1  0  0  0  0
 28 29  2  0  0  0  0
 28 31  1  0  0  0  0
 29 32  1  0  0  0  0
 31 30  1  0  0  0  0
 32 33  1  0  0  0  0
 33 34  1  0  0  0  0
 34 35  1  0  0  0  0
 35 37  1  0  0  0  0
 37 36  1  0  0  0  0
M  END
>  <MODEL>
5

>  <REMARK>
 VINA RESULT:      -5.5      2.571      4.529
  Name = 
  12 active torsions:
  status: ('A' for Active; 'I' for Inactive)
    1  A    between atoms: N_1  and  C_5
    2  A    between atoms: N_1  and  C_23
    3  A    between atoms: C_5  and  O_17
    4  A    between atoms: C_6  and  C_37
    5  A    between atoms: N_10  and  C_14
    6  A    between atoms: C_14  and  C_31
    7  A    between atoms: O_17  and  C_26
    8  A    between atoms: C_26  and  C_33
    9  A    between atoms: C_27  and  C_34
   10  A    between atoms: C_29  and  C_36
   11  A    between atoms: C_31  and  C_37
   12  A    between atoms: C_33  and  C_36
                            x       y       z     vdW  Elec       q    Type
                         _______ _______ _______ _____ _____    ______ ____

>  <TORSDO>
F 12

$$$$
=
 OpenBabel10262422553D

 37 40  0  0  1  0  0  0  0  0999 V2000
  185.2270  173.9700  136.4200 N   0  0  0  0  0  2  0  0  0  0  0  0
  186.9300  178.2380  137.3390 C   0  0  2  0  0  3  0  0  0  0  0  0
  186.6400  175.9680  136.1860 C   0  0  2  0  0  3  0  0  0  0  0  0
  186.6800  178.4170  138.7800 N   0  0  0  0  0  0  0  0  0  0  0  0
  185.9560  177.1740  136.8320 C   0  0  1  0  0  3  0  0  0  0  0  0
  187.6410  176.3950  135.1060 C   0  0  0  0  0  2  0  0  0  0  0  0
  185.2130  176.7460  138.0000 N   0  0  2  0  0  0  0  0  0  0  0  0
  183.5540  175.0080  137.9270 C   0  0  0  0  0  3  0  0  0  0  0  0
  188.4000  178.0150  136.9320 C   0  0  1  0  0  3  0  0  0  0  0  0
  188.4770  177.6360  135.4570 C   0  0  0  0  0  2  0  0  0  0  0  0
  183.8440  176.4360  137.6060 C   0  0  0  0  0  2  0  0  0  0  0  0
  189.2000  179.2840  137.1550 C   0  0  0  0  0  1  0  0  0  0  0  0
  185.3450  177.8520  138.9590 C   0  0  2  0  0  3  0  0  0  0  0  0
  185.5850  175.0800  135.5450 C   0  0  0  0  0  2  0  0  0  0  0  0
  184.1890  173.9460  137.4150 C   0  0  0  0  0  3  0  0  0  0  0  0
  187.5890  177.5910  139.5850 C   0  0  0  0  0  2  0  0  0  0  0  0
  188.4210  179.4470  141.0500 C   0  0  0  0  0  1  0  0  0  0  0  0
  187.7090  178.1070  141.0160 C   0  0  2  0  0  3  0  0  0  0  0  0
  188.4090  177.0880  141.9160 C   0  0  0  0  0  2  0  0  0  0  0  0
  187.5150  177.1770  144.2870 C   0  0  0  0  0  2  0  0  0  0  0  0
  188.6330  177.6010  143.3350 C   0  0  1  0  0  3  0  0  0  0  0  0
  189.9440  177.1940  143.8360 N   0  0  0  0  0  2  0  0  0  0  0  0
  191.4300  176.8970  145.6340 N   0  0  0  0  0  2  0  0  0  0  0  0
  189.0990  177.0350  146.2230 C   0  0  0  0  0  2  0  0  0  0  0  0
  190.2260  177.1380  145.2390 C   0  0  0  0  0  0  0  0  0  0  0  0
  187.8290  177.6920  145.6850 C   0  0  0  0  0  2  0  0  0  0  0  0
  184.2880  178.9560  138.7730 C   0  0  0  0  0  2  0  0  0  0  0  0
  183.9130  178.7570  141.1760 C   0  0  0  0  0  3  0  0  0  0  0  0
  183.4100  179.0800  139.9760 C   0  0  0  0  0  0  0  0  0  0  0  0
  184.0440  178.5870  143.6450 C   0  0  0  0  0  1  0  0  0  0  0  0
  183.1340  178.8200  142.4540 C   0  0  0  0  0  2  0  0  0  0  0  0
  181.9910  179.5250  139.7920 C   0  0  0  0  0  2  0  0  0  0  0  0
  181.9310  180.5920  138.8950 O   0  0  0  0  0  0  0  0  0  0  0  0
  180.5650  180.8410  138.7380 C   0  0  0  0  0  2  0  0  0  0  0  0
  179.9940  179.8820  137.8070 N   0  0  0  0  0  2  0  0  0  0  0  0
  181.1460  178.8710  135.9290 C   0  0  0  0  0  1  0  0  0  0  0  0
  180.5780  180.1520  136.5040 C   0  0  0  0  0  2  0  0  0  0  0  0
  1 15  1  0  0  0  0
  2  4  1  1  0  0  0
  3  6  1  6  0  0  0
  3  5  1  0  0  0  0
  4 13  1  0  0  0  0
  4 16  1  0  0  0  0
  5  2  1  0  0  0  0
  5  7  1  0  0  0  0
  6 10  1  0  0  0  0
  7 13  1  0  0  0  0
  9 12  1  0  0  0  0
  9  2  1  0  0  0  0
 10  9  1  0  0  0  0
 11  8  1  0  0  0  0
 11  7  1  0  0  0  0
 14  3  1  0  0  0  0
 14  1  1  0  0  0  0
 15  8  2  0  0  0  0
 16 18  1  0  0  0  0
 18 17  1  0  0  0  0
 18 19  1  0  0  0  0
 19 21  1  0  0  0  0
 20 26  1  0  0  0  0
 21 22  1  0  0  0  0
 21 20  1  0  0  0  0
 22 25  1  0  0  0  0
 25 23  2  0  0  0  0
 25 24  1  0  0  0  0
 26 24  1  0  0  0  0
 27 13  1  0  0  0  0
 27 29  1  0  0  0  0
 28 31  1  0  0  0  0
 29 28  2  0  0  0  0
 31 30  1  0  0  0  0
 32 29  1  0  0  0  0
 33 32  1  0  0  0  0
 34 33  1  0  0  0  0
 35 34  1  0  0  0  0
 36 37  1  0  0  0  0
 37 35  1  0  0  0  0
M  END
>  <MODEL>
6

>  <REMARK>
 VINA RESULT:      -5.3      2.438      3.665
  Name = 
  12 active torsions:
  status: ('A' for Active; 'I' for Inactive)
    1  A    between atoms: N_1  and  C_5
    2  A    between atoms: N_1  and  C_23
    3  A    between atoms: C_5  and  O_17
    4  A    between atoms: C_6  and  C_37
    5  A    between atoms: N_10  and  C_14
    6  A    between atoms: C_14  and  C_31
    7  A    between atoms: O_17  and  C_26
    8  A    between atoms: C_26  and  C_33
    9  A    between atoms: C_27  and  C_34
   10  A    between atoms: C_29  and  C_36
   11  A    between atoms: C_31  and  C_37
   12  A    between atoms: C_33  and  C_36
                            x       y       z     vdW  Elec       q    Type
                         _______ _______ _______ _____ _____    ______ ____

>  <TORSDO>
F 12

$$$$
=
 OpenBabel10262422553D

 37 40  0  0  1  0  0  0  0  0999 V2000
  183.4190  178.4680  143.7140 N   0  0  0  0  0  2  0  0  0  0  0  0
  182.2450  178.3820  139.1790 C   0  0  2  0  0  3  0  0  0  0  0  0
  182.0010  178.6550  141.7150 C   0  0  2  0  0  3  0  0  0  0  0  0
  183.1880  177.4170  138.5870 N   0  0  0  0  0  0  0  0  0  0  0  0
  182.8680  178.8960  140.4770 C   0  0  1  0  0  3  0  0  0  0  0  0
  180.5720  179.1730  141.5170 C   0  0  0  0  0  2  0  0  0  0  0  0
  184.1200  178.1800  140.6120 N   0  0  2  0  0  0  0  0  0  0  0  0
  185.5810  178.4500  142.5020 C   0  0  0  0  0  3  0  0  0  0  0  0
  180.7840  177.9060  139.3060 C   0  0  1  0  0  3  0  0  0  0  0  0
  179.9810  178.9140  140.1220 C   0  0  0  0  0  2  0  0  0  0  0  0
  185.1080  179.0600  141.2250 C   0  0  0  0  0  2  0  0  0  0  0  0
  180.1580  177.7770  137.9310 C   0  0  0  0  0  1  0  0  0  0  0  0
  184.4510  177.7340  139.2510 C   0  0  2  0  0  3  0  0  0  0  0  0
  182.6170  179.3770  142.9030 C   0  0  0  0  0  2  0  0  0  0  0  0
  184.8190  178.1770  143.5690 C   0  0  0  0  0  3  0  0  0  0  0  0
  182.8540  176.0410  138.9730 C   0  0  0  0  0  2  0  0  0  0  0  0
  181.5390  174.4700  137.5280 C   0  0  0  0  0  1  0  0  0  0  0  0
  182.9020  175.0880  137.7810 C   0  0  2  0  0  3  0  0  0  0  0  0
  183.9690  174.0110  137.9730 C   0  0  0  0  0  2  0  0  0  0  0  0
  185.1300  175.1450  136.0260 C   0  0  0  0  0  2  0  0  0  0  0  0
  184.8580  173.8260  136.7470 C   0  0  1  0  0  3  0  0  0  0  0  0
  186.1010  173.1450  137.1020 N   0  0  0  0  0  2  0  0  0  0  0  0
  188.3050  172.5290  136.5650 N   0  0  0  0  0  2  0  0  0  0  0  0
  187.4140  174.3900  135.3240 C   0  0  0  0  0  2  0  0  0  0  0  0
  187.2710  173.2470  136.2840 C   0  0  0  0  0  0  0  0  0  0  0  0
  186.0520  174.8850  134.8410 C   0  0  0  0  0  2  0  0  0  0  0  0
  185.2160  178.7880  138.4290 C   0  0  0  0  0  2  0  0  0  0  0  0
  186.8030  178.3420  136.6280 C   0  0  0  0  0  3  0  0  0  0  0  0
  186.5210  178.2520  137.9370 C   0  0  0  0  0  0  0  0  0  0  0  0
  189.2590  178.6360  136.4800 C   0  0  0  0  0  1  0  0  0  0  0  0
  188.0650  177.8290  136.0070 C   0  0  0  0  0  2  0  0  0  0  0  0
  187.4510  177.6010  138.9160 C   0  0  0  0  0  2  0  0  0  0  0  0
  188.0970  178.5690  139.6850 O   0  0  0  0  0  0  0  0  0  0  0  0
  189.1010  177.8680  140.3580 C   0  0  0  0  0  2  0  0  0  0  0  0
  188.9770  178.0840  141.7890 N   0  0  0  0  0  2  0  0  0  0  0  0
  188.6990  176.9270  143.9020 C   0  0  0  0  0  1  0  0  0  0  0  0
  188.9790  176.7760  142.4210 C   0  0  0  0  0  2  0  0  0  0  0  0
  2  4  1  1  0  0  0
  2  9  1  0  0  0  0
  2  5  1  0  0  0  0
  3  6  1  6  0  0  0
  3 14  1  0  0  0  0
  4 16  1  0  0  0  0
  4 13  1  0  0  0  0
  5  7  1  0  0  0  0
  5  3  1  0  0  0  0
  7 11  1  0  0  0  0
  8 15  2  0  0  0  0
  9 10  1  0  0  0  0
 10  6  1  0  0  0  0
 11  8  1  0  0  0  0
 12  9  1  0  0  0  0
 13  7  1  0  0  0  0
 14  1  1  0  0  0  0
 15  1  1  0  0  0  0
 17 18  1  0  0  0  0
 18 19  1  0  0  0  0
 18 16  1  0  0  0  0
 20 21  1  0  0  0  0
 21 22  1  0  0  0  0
 21 19  1  0  0  0  0
 24 25  1  0  0  0  0
 25 23  2  0  0  0  0
 25 22  1  0  0  0  0
 26 24  1  0  0  0  0
 26 20  1  0  0  0  0
 27 13  1  0  0  0  0
 28 29  2  0  0  0  0
 29 27  1  0  0  0  0
 29 32  1  0  0  0  0
 31 30  1  0  0  0  0
 31 28  1  0  0  0  0
 32 33  1  0  0  0  0
 33 34  1  0  0  0  0
 34 35  1  0  0  0  0
 35 37  1  0  0  0  0
 37 36  1  0  0  0  0
M  END
>  <MODEL>
7

>  <REMARK>
 VINA RESULT:      -5.1      2.712      8.943
  Name = 
  12 active torsions:
  status: ('A' for Active; 'I' for Inactive)
    1  A    between atoms: N_1  and  C_5
    2  A    between atoms: N_1  and  C_23
    3  A    between atoms: C_5  and  O_17
    4  A    between atoms: C_6  and  C_37
    5  A    between atoms: N_10  and  C_14
    6  A    between atoms: C_14  and  C_31
    7  A    between atoms: O_17  and  C_26
    8  A    between atoms: C_26  and  C_33
    9  A    between atoms: C_27  and  C_34
   10  A    between atoms: C_29  and  C_36
   11  A    between atoms: C_31  and  C_37
   12  A    between atoms: C_33  and  C_36
                            x       y       z     vdW  Elec       q    Type
                         _______ _______ _______ _____ _____    ______ ____

>  <TORSDO>
F 12

$$$$
=
 OpenBabel10262422553D

 37 40  0  0  1  0  0  0  0  0999 V2000
  183.0240  178.4370  143.3930 N   0  0  0  0  0  2  0  0  0  0  0  0
  182.1700  178.2280  138.7900 C   0  0  2  0  0  3  0  0  0  0  0  0
  181.7390  178.5200  141.2990 C   0  0  2  0  0  3  0  0  0  0  0  0
  183.2020  177.3080  138.2800 N   0  0  0  0  0  0  0  0  0  0  0  0
  182.6740  178.7920  140.1190 C   0  0  1  0  0  3  0  0  0  0  0  0
  180.3010  178.9570  140.9950 C   0  0  0  0  0  2  0  0  0  0  0  0
  183.9510  178.1470  140.3500 N   0  0  2  0  0  0  0  0  0  0  0  0
  185.2620  178.5210  142.3310 C   0  0  0  0  0  3  0  0  0  0  0  0
  180.7320  177.6750  138.8260 C   0  0  1  0  0  3  0  0  0  0  0  0
  179.8220  178.6470  139.5680 C   0  0  0  0  0  2  0  0  0  0  0  0
  184.8450  179.0880  141.0140 C   0  0  0  0  0  2  0  0  0  0  0  0
  180.2090  177.4930  137.4140 C   0  0  0  0  0  1  0  0  0  0  0  0
  184.3970  177.7020  139.0230 C   0  0  2  0  0  3  0  0  0  0  0  0
  182.2330  179.2900  142.5140 C   0  0  0  0  0  2  0  0  0  0  0  0
  184.4450  178.2210  143.3470 C   0  0  0  0  0  3  0  0  0  0  0  0
  182.9170  175.9210  138.6650 C   0  0  0  0  0  2  0  0  0  0  0  0
  183.3660  175.6410  136.2150 C   0  0  0  0  0  1  0  0  0  0  0  0
  183.2780  174.9360  137.5560 C   0  0  2  0  0  3  0  0  0  0  0  0
  182.2890  173.7720  137.5040 C   0  0  0  0  0  2  0  0  0  0  0  0
  183.9070  171.9180  136.8940 C   0  0  0  0  0  2  0  0  0  0  0  0
  182.6700  172.7110  136.4760 C   0  0  1  0  0  3  0  0  0  0  0  0
  181.5400  171.8280  136.1930 N   0  0  0  0  0  2  0  0  0  0  0  0
  180.7020  169.8250  135.2920 N   0  0  0  0  0  2  0  0  0  0  0  0
  183.0610  169.8420  135.7750 C   0  0  0  0  0  2  0  0  0  0  0  0
  181.7310  170.5200  135.6440 C   0  0  0  0  0  0  0  0  0  0  0  0
  184.2000  170.8580  135.8400 C   0  0  0  0  0  2  0  0  0  0  0  0
  185.1600  178.7850  138.2370 C   0  0  0  0  0  2  0  0  0  0  0  0
  186.1690  177.5080  136.4170 C   0  0  0  0  0  3  0  0  0  0  0  0
  186.3540  178.2150  137.5420 C   0  0  0  0  0  0  0  0  0  0  0  0
  187.3570  175.3870  135.9390 C   0  0  0  0  0  1  0  0  0  0  0  0
  187.2780  176.8710  135.6380 C   0  0  0  0  0  2  0  0  0  0  0  0
  187.7100  178.4220  138.1480 C   0  0  0  0  0  2  0  0  0  0  0  0
  187.9790  177.4240  139.0850 O   0  0  0  0  0  0  0  0  0  0  0  0
  188.5220  178.1060  140.1760 C   0  0  0  0  0  2  0  0  0  0  0  0
  189.0920  177.1560  141.1160 N   0  0  0  0  0  2  0  0  0  0  0  0
  188.2230  176.3800  143.2420 C   0  0  0  0  0  1  0  0  0  0  0  0
  188.6940  177.5800  142.4470 C   0  0  0  0  0  2  0  0  0  0  0  0
  2  4  1  1  0  0  0
  2  9  1  0  0  0  0
  2  5  1  0  0  0  0
  3  6  1  6  0  0  0
  3 14  1  0  0  0  0
  4 16  1  0  0  0  0
  4 13  1  0  0  0  0
  5  7  1  0  0  0  0
  5  3  1  0  0  0  0
  7 11  1  0  0  0  0
  8 15  2  0  0  0  0
  9 10  1  0  0  0  0
 10  6  1  0  0  0  0
 11  8  1  0  0  0  0
 12  9  1  0  0  0  0
 13  7  1  0  0  0  0
 14  1  1  0  0  0  0
 15  1  1  0  0  0  0
 17 18  1  0  0  0  0
 18 16  1  0  0  0  0
 19 18  1  0  0  0  0
 21 20  1  0  0  0  0
 21 19  1  0  0  0  0
 22 21  1  0  0  0  0
 23 25  2  0  0  0  0
 24 26  1  0  0  0  0
 25 24  1  0  0  0  0
 25 22  1  0  0  0  0
 26 20  1  0  0  0  0
 27 13  1  0  0  0  0
 28 29  2  0  0  0  0
 29 32  1  0  0  0  0
 29 27  1  0  0  0  0
 31 30  1  0  0  0  0
 31 28  1  0  0  0  0
 32 33  1  0  0  0  0
 33 34  1  0  0  0  0
 34 35  1  0  0  0  0
 35 37  1  0  0  0  0
 37 36  1  0  0  0  0
M  END
>  <MODEL>
8

>  <REMARK>
 VINA RESULT:      -5.0      3.810      9.803
  Name = 
  12 active torsions:
  status: ('A' for Active; 'I' for Inactive)
    1  A    between atoms: N_1  and  C_5
    2  A    between atoms: N_1  and  C_23
    3  A    between atoms: C_5  and  O_17
    4  A    between atoms: C_6  and  C_37
    5  A    between atoms: N_10  and  C_14
    6  A    between atoms: C_14  and  C_31
    7  A    between atoms: O_17  and  C_26
    8  A    between atoms: C_26  and  C_33
    9  A    between atoms: C_27  and  C_34
   10  A    between atoms: C_29  and  C_36
   11  A    between atoms: C_31  and  C_37
   12  A    between atoms: C_33  and  C_36
                            x       y       z     vdW  Elec       q    Type
                         _______ _______ _______ _____ _____    ______ ____

>  <TORSDO>
F 12

$$$$
=
 OpenBabel10262422553D

 37 40  0  0  1  0  0  0  0  0999 V2000
  184.4550  178.2890  144.5230 N   0  0  0  0  0  2  0  0  0  0  0  0
  182.3610  178.7200  140.3530 C   0  0  2  0  0  3  0  0  0  0  0  0
  182.6780  178.7730  142.8950 C   0  0  2  0  0  3  0  0  0  0  0  0
  183.0620  177.7420  139.5010 N   0  0  0  0  0  0  0  0  0  0  0  0
  183.2870  179.0590  141.5210 C   0  0  1  0  0  3  0  0  0  0  0  0
  181.2960  179.4200  143.0480 C   0  0  0  0  0  2  0  0  0  0  0  0
  184.4640  178.2370  141.3300 N   0  0  2  0  0  0  0  0  0  0  0  0
  186.3050  178.2120  142.8760 C   0  0  0  0  0  3  0  0  0  0  0  0
  180.9190  178.3520  140.7560 C   0  0  1  0  0  3  0  0  0  0  0  0
  180.4060  179.3390  141.7980 C   0  0  0  0  0  2  0  0  0  0  0  0
  185.6390  178.9750  141.7790 C   0  0  0  0  0  2  0  0  0  0  0  0
  180.0110  178.4010  139.5420 C   0  0  0  0  0  1  0  0  0  0  0  0
  184.4600  177.8950  139.9000 C   0  0  2  0  0  3  0  0  0  0  0  0
  183.5940  179.3310  143.9730 C   0  0  0  0  0  2  0  0  0  0  0  0
  185.7590  177.9020  144.0570 C   0  0  0  0  0  3  0  0  0  0  0  0
  182.6830  176.3670  139.8470 C   0  0  0  0  0  2  0  0  0  0  0  0
  183.6910  174.8400  138.1330 C   0  0  0  0  0  1  0  0  0  0  0  0
  182.4190  175.5200  138.6050 C   0  0  2  0  0  3  0  0  0  0  0  0
  181.7930  176.3550  137.4870 C   0  0  0  0  0  2  0  0  0  0  0  0
  181.2410  175.1600  135.3210 C   0  0  0  0  0  2  0  0  0  0  0  0
  180.7350  175.5930  136.6960 C   0  0  1  0  0  3  0  0  0  0  0  0
  180.2280  174.4560  137.4610 N   0  0  0  0  0  2  0  0  0  0  0  0
  179.0510  172.4230  137.5410 N   0  0  0  0  0  2  0  0  0  0  0  0
  179.8410  173.0820  135.3640 C   0  0  0  0  0  2  0  0  0  0  0  0
  179.5960  173.3430  136.8200 C   0  0  0  0  0  0  0  0  0  0  0  0
  180.1450  174.3750  134.6110 C   0  0  0  0  0  2  0  0  0  0  0  0
  185.1360  178.9560  139.0120 C   0  0  0  0  0  2  0  0  0  0  0  0
  185.8070  177.6690  137.0500 C   0  0  0  0  0  3  0  0  0  0  0  0
  186.1880  178.3480  138.1420 C   0  0  0  0  0  0  0  0  0  0  0  0
  187.1400  175.6240  136.6210 C   0  0  0  0  0  1  0  0  0  0  0  0
  186.7590  176.9990  136.1070 C   0  0  0  0  0  2  0  0  0  0  0  0
  187.6260  178.4890  138.5400 C   0  0  0  0  0  2  0  0  0  0  0  0
  188.0100  177.4210  139.3520 O   0  0  0  0  0  0  0  0  0  0  0  0
  189.0240  177.9430  140.1590 C   0  0  0  0  0  2  0  0  0  0  0  0
  189.6820  176.8660  140.8790 N   0  0  0  0  0  2  0  0  0  0  0  0
  190.0620  178.3080  142.7900 C   0  0  0  0  0  1  0  0  0  0  0  0
  190.7100  177.4710  141.7070 C   0  0  0  0  0  2  0  0  0  0  0  0
  2  4  1  1  0  0  0
  2  9  1  0  0  0  0
  2  5  1  0  0  0  0
  3  6  1  6  0  0  0
  3 14  1  0  0  0  0
  4 16  1  0  0  0  0
  4 13  1  0  0  0  0
  5  3  1  0  0  0  0
  7  5  1  0  0  0  0
  7 11  1  0  0  0  0
  8 15  2  0  0  0  0
  9 10  1  0  0  0  0
 10  6  1  0  0  0  0
 11  8  1  0  0  0  0
 12  9  1  0  0  0  0
 13  7  1  0  0  0  0
 14  1  1  0  0  0  0
 15  1  1  0  0  0  0
 17 18  1  0  0  0  0
 18 16  1  0  0  0  0
 19 18  1  0  0  0  0
 20 21  1  0  0  0  0
 21 22  1  0  0  0  0
 21 19  1  0  0  0  0
 24 25  1  0  0  0  0
 25 22  1  0  0  0  0
 25 23  2  0  0  0  0
 26 20  1  0  0  0  0
 26 24  1  0  0  0  0
 27 13  1  0  0  0  0
 28 29  2  0  0  0  0
 29 32  1  0  0  0  0
 29 27  1  0  0  0  0
 31 30  1  0  0  0  0
 31 28  1  0  0  0  0
 32 33  1  0  0  0  0
 33 34  1  0  0  0  0
 34 35  1  0  0  0  0
 35 37  1  0  0  0  0
 37 36  1  0  0  0  0
M  END
>  <MODEL>
9

>  <REMARK>
 VINA RESULT:      -4.8      3.584      9.844
  Name = 
  12 active torsions:
  status: ('A' for Active; 'I' for Inactive)
    1  A    between atoms: N_1  and  C_5
    2  A    between atoms: N_1  and  C_23
    3  A    between atoms: C_5  and  O_17
    4  A    between atoms: C_6  and  C_37
    5  A    between atoms: N_10  and  C_14
    6  A    between atoms: C_14  and  C_31
    7  A    between atoms: O_17  and  C_26
    8  A    between atoms: C_26  and  C_33
    9  A    between atoms: C_27  and  C_34
   10  A    between atoms: C_29  and  C_36
   11  A    between atoms: C_31  and  C_37
   12  A    between atoms: C_33  and  C_36
                            x       y       z     vdW  Elec       q    Type
                         _______ _______ _______ _____ _____    ______ ____

>  <TORSDO>
F 12

$$$$
