=
 OpenBabel10262419393D

 31 34  0  0  1  0  0  0  0  0999 V2000
  188.6190  177.4520  147.6680 C   0  0  0  0  0  0  0  0  0  0  0  0
  187.1250  177.9900  144.2480 C   0  0  0  0  0  0  0  0  0  0  0  0
  185.7390  178.3030  144.4450 C   0  0  0  0  0  0  0  0  0  0  0  0
  191.5790  176.7100  141.7350 O   0  0  0  0  0  0  0  0  0  0  0  0
  190.7630  177.1870  140.9020 C   0  0  0  0  0  0  0  0  0  0  0  0
  183.8010  178.6740  145.8890 C   0  0  0  0  0  3  0  0  0  0  0  0
  188.0490  177.7160  145.3050 C   0  0  0  0  0  0  0  0  0  0  0  0
  189.9410  177.1660  147.3310 C   0  0  0  0  0  3  0  0  0  0  0  0
  185.1510  178.3680  145.7210 C   0  0  0  0  0  3  0  0  0  0  0  0
  188.9670  177.6410  142.6590 C   0  0  0  0  0  0  0  0  0  0  0  0
  188.2390  177.4690  148.9680 F   0  0  0  0  0  0  0  0  0  0  0  0
  185.4310  178.5140  142.0330 C   0  0  0  0  0  3  0  0  0  0  0  0
  183.0000  178.9260  144.7780 C   0  0  0  0  0  3  0  0  0  0  0  0
  189.8060  177.3920  143.6940 N   0  0  0  0  0  0  0  0  0  0  0  0
  187.6190  177.9490  142.9110 C   0  0  0  0  0  0  0  0  0  0  0  0
  189.4550  177.6050  141.3080 N   0  0  0  0  0  2  0  0  0  0  0  0
  187.6870  177.7230  146.6640 C   0  0  0  0  0  3  0  0  0  0  0  0
  182.7470  179.1220  142.4290 F   0  0  0  0  0  0  0  0  0  0  0  0
  189.3980  177.4180  144.9840 C   0  0  0  0  0  0  0  0  0  0  0  0
  190.3290  177.1490  145.9920 C   0  0  0  0  0  3  0  0  0  0  0  0
  186.7680  178.2110  141.8320 C   0  0  0  0  0  3  0  0  0  0  0  0
  184.9050  178.5640  143.3210 C   0  0  0  0  0  0  0  0  0  0  0  0
  183.5460  178.8720  143.4970 C   0  0  0  0  0  0  0  0  0  0  0  0
  192.5390  176.7450  139.2090 C   0  0  0  0  0  1  0  0  0  0  0  0
  191.1270  177.2650  139.4540 C   0  0  1  0  0  3  0  0  0  0  0  0
  190.5210  175.2980  138.1950 O   0  0  0  0  0  1  0  0  0  0  0  0
  190.0800  176.5650  138.5820 C   0  0  2  0  0  3  0  0  0  0  0  0
  189.7380  177.3860  137.3470 C   0  0  0  0  0  2  0  0  0  0  0  0
  188.7930  178.4870  137.6830 C   0  0  0  0  0  0  0  0  0  0  0  0
  187.5570  178.1960  138.3240 N   0  0  0  0  0  1  0  0  0  0  0  0
  189.0920  179.6790  137.4110 O   0  0  0  0  0  0  0  0  0  0  0  0
  1 11  1  0  0  0  0
  2  3  1  0  0  0  0
  2  7  1  0  0  0  0
  3  9  1  0  0  0  0
  5 16  1  0  0  0  0
  5  4  2  0  0  0  0
  7 17  1  0  0  0  0
  8  1  1  0  0  0  0
  9  6  2  0  0  0  0
 10 15  1  0  0  0  0
 10 14  2  0  0  0  0
 12 22  1  0  0  0  0
 13  6  1  0  0  0  0
 14 19  1  0  0  0  0
 15  2  2  0  0  0  0
 16 10  1  0  0  0  0
 17  1  2  0  0  0  0
 18 23  1  0  0  0  0
 19  7  2  0  0  0  0
 19 20  1  0  0  0  0
 20  8  2  0  0  0  0
 21 12  2  0  0  0  0
 21 15  1  0  0  0  0
 22 23  1  0  0  0  0
 22  3  2  0  0  0  0
 23 13  2  0  0  0  0
 25 24  1  1  0  0  0
 25  5  1  0  0  0  0
 27 26  1  6  0  0  0
 27 25  1  0  0  0  0
 28 29  1  0  0  0  0
 28 27  1  0  0  0  0
 29 30  1  0  0  0  0
 31 29  2  0  0  0  0
M  END
>  <MODEL>
1

>  <REMARK>
 VINA RESULT:     -11.2      0.000      0.000
  Name = 
  4 active torsions:
  status: ('A' for Active; 'I' for Inactive)
    1  A    between atoms: C_1  and  C_24
    2  A    between atoms: C_9  and  C_22
    3  A    between atoms: C_19  and  C_22
    4  A    between atoms: C_19  and  C_24
                            x       y       z     vdW  Elec       q    Type
                         _______ _______ _______ _____ _____    ______ ____

>  <TORSDO>
F 4

$$$$
=
 OpenBabel10262419393D

 31 34  0  0  1  0  0  0  0  0999 V2000
  190.5090  176.9200  146.5660 C   0  0  0  0  0  0  0  0  0  0  0  0
  187.8210  177.6670  144.0310 C   0  0  0  0  0  0  0  0  0  0  0  0
  186.6430  178.0240  144.7670 C   0  0  0  0  0  0  0  0  0  0  0  0
  190.8530  176.3320  139.9290 O   0  0  0  0  0  0  0  0  0  0  0  0
  189.8000  176.8770  139.4990 C   0  0  0  0  0  0  0  0  0  0  0  0
  185.4520  178.4040  146.8690 C   0  0  0  0  0  3  0  0  0  0  0  0
  189.0700  177.3120  144.6290 C   0  0  0  0  0  0  0  0  0  0  0  0
  191.5760  176.5990  145.7270 C   0  0  0  0  0  3  0  0  0  0  0  0
  186.6080  178.0540  146.1730 C   0  0  0  0  0  3  0  0  0  0  0  0
  188.8680  177.3200  141.8340 C   0  0  0  0  0  0  0  0  0  0  0  0
  190.6730  176.8940  147.9100 F   0  0  0  0  0  0  0  0  0  0  0  0
  185.4220  178.3540  142.6800 C   0  0  0  0  0  3  0  0  0  0  0  0
  184.2930  178.7350  146.1720 C   0  0  0  0  0  3  0  0  0  0  0  0
  190.0320  176.9930  142.4470 N   0  0  0  0  0  0  0  0  0  0  0  0
  187.7460  177.6670  142.6070 C   0  0  0  0  0  0  0  0  0  0  0  0
  188.7820  177.3260  140.4000 N   0  0  0  0  0  2  0  0  0  0  0  0
  189.2730  177.2720  146.0200 C   0  0  0  0  0  3  0  0  0  0  0  0
  183.1460  179.0450  144.1200 F   0  0  0  0  0  0  0  0  0  0  0  0
  190.1660  176.9770  143.7930 C   0  0  0  0  0  0  0  0  0  0  0  0
  191.4030  176.6280  144.3440 C   0  0  0  0  0  3  0  0  0  0  0  0
  186.5540  178.0090  141.9590 C   0  0  0  0  0  3  0  0  0  0  0  0
  185.4490  178.3660  144.0710 C   0  0  0  0  0  0  0  0  0  0  0  0
  184.2860  178.7180  144.7780 C   0  0  0  0  0  0  0  0  0  0  0  0
  190.7830  176.5400  137.2330 C   0  0  0  0  0  1  0  0  0  0  0  0
  189.5690  177.0060  138.0280 C   0  0  1  0  0  3  0  0  0  0  0  0
  188.5590  175.0420  137.0560 O   0  0  0  0  0  1  0  0  0  0  0  0
  188.2790  176.2950  137.6070 C   0  0  2  0  0  3  0  0  0  0  0  0
  187.4800  177.1230  136.6110 C   0  0  0  0  0  2  0  0  0  0  0  0
  187.0580  178.4190  137.2130 C   0  0  0  0  0  0  0  0  0  0  0  0
  186.1800  178.4330  138.3320 N   0  0  0  0  0  1  0  0  0  0  0  0
  187.4870  179.5030  136.7390 O   0  0  0  0  0  0  0  0  0  0  0  0
  1 11  1  0  0  0  0
  2  7  1  0  0  0  0
  2  3  1  0  0  0  0
  3  9  1  0  0  0  0
  5  4  2  0  0  0  0
  5 16  1  0  0  0  0
  7 17  2  0  0  0  0
  8  1  2  0  0  0  0
  9  6  2  0  0  0  0
 10 14  2  0  0  0  0
 10 15  1  0  0  0  0
 12 22  1  0  0  0  0
 13  6  1  0  0  0  0
 14 19  1  0  0  0  0
 15  2  2  0  0  0  0
 16 10  1  0  0  0  0
 17  1  1  0  0  0  0
 18 23  1  0  0  0  0
 19 20  2  0  0  0  0
 19  7  1  0  0  0  0
 20  8  1  0  0  0  0
 21 15  1  0  0  0  0
 21 12  2  0  0  0  0
 22  3  2  0  0  0  0
 22 23  1  0  0  0  0
 23 13  2  0  0  0  0
 25 24  1  6  0  0  0
 25  5  1  0  0  0  0
 27 26  1  6  0  0  0
 27 25  1  0  0  0  0
 28 29  1  0  0  0  0
 28 27  1  0  0  0  0
 29 30  1  0  0  0  0
 31 29  2  0  0  0  0
M  END
>  <MODEL>
2

>  <REMARK>
 VINA RESULT:     -11.2      1.393      1.735
  Name = 
  4 active torsions:
  status: ('A' for Active; 'I' for Inactive)
    1  A    between atoms: C_1  and  C_24
    2  A    between atoms: C_9  and  C_22
    3  A    between atoms: C_19  and  C_22
    4  A    between atoms: C_19  and  C_24
                            x       y       z     vdW  Elec       q    Type
                         _______ _______ _______ _____ _____    ______ ____

>  <TORSDO>
F 4

$$$$
=
 OpenBabel10262419393D

 31 34  0  0  1  0  0  0  0  0999 V2000
  184.6840  178.4950  146.1360 C   0  0  0  0  0  0  0  0  0  0  0  0
  187.9070  177.6650  144.3630 C   0  0  0  0  0  0  0  0  0  0  0  0
  188.8750  177.3690  145.3790 C   0  0  0  0  0  0  0  0  0  0  0  0
  185.9430  178.7290  139.5880 O   0  0  0  0  0  0  0  0  0  0  0  0
  187.0700  178.1820  139.4530 C   0  0  0  0  0  0  0  0  0  0  0  0
  189.5280  177.1210  147.7230 C   0  0  0  0  0  3  0  0  0  0  0  0
  186.5490  178.0290  144.6240 C   0  0  0  0  0  0  0  0  0  0  0  0
  183.8490  178.7520  145.0490 C   0  0  0  0  0  3  0  0  0  0  0  0
  188.5710  177.4130  146.7520 C   0  0  0  0  0  3  0  0  0  0  0  0
  187.4170  177.8780  141.9650 C   0  0  0  0  0  0  0  0  0  0  0  0
  184.2020  178.5890  147.3980 F   0  0  0  0  0  0  0  0  0  0  0  0
  190.5630  176.9520  143.6670 C   0  0  0  0  0  3  0  0  0  0  0  0
  190.8220  176.7750  147.3440 C   0  0  0  0  0  3  0  0  0  0  0  0
  186.1380  178.2160  142.2610 N   0  0  0  0  0  0  0  0  0  0  0  0
  188.3220  177.5920  143.0010 C   0  0  0  0  0  0  0  0  0  0  0  0
  187.8440  177.7980  140.5950 N   0  0  0  0  0  2  0  0  0  0  0  0
  186.0170  178.1380  145.9220 C   0  0  0  0  0  3  0  0  0  0  0  0
  192.4300  176.3780  145.6460 F   0  0  0  0  0  0  0  0  0  0  0  0
  185.6840  178.2990  143.5330 C   0  0  0  0  0  0  0  0  0  0  0  0
  184.3490  178.6540  143.7510 C   0  0  0  0  0  3  0  0  0  0  0  0
  189.6360  177.2380  142.6780 C   0  0  0  0  0  3  0  0  0  0  0  0
  190.2030  177.0120  145.0100 C   0  0  0  0  0  0  0  0  0  0  0  0
  191.1640  176.7190  145.9930 C   0  0  0  0  0  0  0  0  0  0  0  0
  186.7140  178.5070  137.0070 C   0  0  0  0  0  1  0  0  0  0  0  0
  187.6490  177.9800  138.0900 C   0  0  1  0  0  3  0  0  0  0  0  0
  189.0560  179.7360  137.2190 O   0  0  0  0  0  1  0  0  0  0  0  0
  189.0570  178.5740  137.9940 C   0  0  2  0  0  3  0  0  0  0  0  0
  190.0510  177.5760  137.4150 C   0  0  0  0  0  2  0  0  0  0  0  0
  190.6680  176.7520  138.4920 C   0  0  0  0  0  0  0  0  0  0  0  0
  190.7650  175.3410  138.3430 N   0  0  0  0  0  1  0  0  0  0  0  0
  191.1150  177.3050  139.5290 O   0  0  0  0  0  0  0  0  0  0  0  0
  1 11  1  0  0  0  0
  2  7  1  0  0  0  0
  2  3  1  0  0  0  0
  3  9  1  0  0  0  0
  5  4  2  0  0  0  0
  5 16  1  0  0  0  0
  7 17  2  0  0  0  0
  8  1  2  0  0  0  0
  9  6  2  0  0  0  0
 10 14  2  0  0  0  0
 10 15  1  0  0  0  0
 12 22  1  0  0  0  0
 13  6  1  0  0  0  0
 14 19  1  0  0  0  0
 15  2  2  0  0  0  0
 16 10  1  0  0  0  0
 17  1  1  0  0  0  0
 18 23  1  0  0  0  0
 19 20  2  0  0  0  0
 19  7  1  0  0  0  0
 20  8  1  0  0  0  0
 21 15  1  0  0  0  0
 21 12  2  0  0  0  0
 22  3  2  0  0  0  0
 22 23  1  0  0  0  0
 23 13  2  0  0  0  0
 25 24  1  6  0  0  0
 25  5  1  0  0  0  0
 27 26  1  6  0  0  0
 27 25  1  0  0  0  0
 28 27  1  0  0  0  0
 28 29  1  0  0  0  0
 29 31  2  0  0  0  0
 30 29  1  0  0  0  0
M  END
>  <MODEL>
3

>  <REMARK>
 VINA RESULT:     -11.0      2.036      4.908
  Name = 
  4 active torsions:
  status: ('A' for Active; 'I' for Inactive)
    1  A    between atoms: C_1  and  C_24
    2  A    between atoms: C_9  and  C_22
    3  A    between atoms: C_19  and  C_22
    4  A    between atoms: C_19  and  C_24
                            x       y       z     vdW  Elec       q    Type
                         _______ _______ _______ _____ _____    ______ ____

>  <TORSDO>
F 4

$$$$
=
 OpenBabel10262419393D

 31 34  0  0  1  0  0  0  0  0999 V2000
  183.9710  178.7590  144.5620 C   0  0  0  0  0  0  0  0  0  0  0  0
  187.6360  177.8770  144.5390 C   0  0  0  0  0  0  0  0  0  0  0  0
  188.0560  177.8060  145.9090 C   0  0  0  0  0  0  0  0  0  0  0  0
  187.9880  178.0550  139.2810 O   0  0  0  0  0  0  0  0  0  0  0  0
  189.0540  177.5690  139.7460 C   0  0  0  0  0  0  0  0  0  0  0  0
  187.6070  177.9690  148.3070 C   0  0  0  0  0  3  0  0  0  0  0  0
  186.3060  178.1870  144.1160 C   0  0  0  0  0  0  0  0  0  0  0  0
  183.7030  178.7890  143.1940 C   0  0  0  0  0  3  0  0  0  0  0  0
  187.1780  178.0430  146.9830 C   0  0  0  0  0  3  0  0  0  0  0  0
  188.2560  177.6820  142.1680 C   0  0  0  0  0  0  0  0  0  0  0  0
  182.9830  179.0160  145.4520 F   0  0  0  0  0  0  0  0  0  0  0  0
  190.3210  177.2400  145.2010 C   0  0  0  0  0  3  0  0  0  0  0  0
  188.9320  177.6540  148.5940 C   0  0  0  0  0  3  0  0  0  0  0  0
  186.9800  177.9780  141.8170 N   0  0  0  0  0  0  0  0  0  0  0  0
  188.6080  177.6210  143.5270 C   0  0  0  0  0  0  0  0  0  0  0  0
  189.2420  177.4190  141.1570 N   0  0  0  0  0  2  0  0  0  0  0  0
  185.2580  178.4610  145.0140 C   0  0  0  0  0  3  0  0  0  0  0  0
  191.1200  177.1050  147.8610 F   0  0  0  0  0  0  0  0  0  0  0  0
  186.0130  178.2270  142.7290 C   0  0  0  0  0  0  0  0  0  0  0  0
  184.7220  178.5240  142.2810 C   0  0  0  0  0  3  0  0  0  0  0  0
  189.9270  177.3080  143.8740 C   0  0  0  0  0  3  0  0  0  0  0  0
  189.4070  177.4850  146.2210 C   0  0  0  0  0  0  0  0  0  0  0  0
  189.8330  177.4110  147.5580 C   0  0  0  0  0  0  0  0  0  0  0  0
  191.4870  177.0500  139.5830 C   0  0  0  0  0  1  0  0  0  0  0  0
  190.1720  177.1960  138.8260 C   0  0  1  0  0  3  0  0  0  0  0  0
  190.7430  174.9270  138.2360 O   0  0  0  0  0  1  0  0  0  0  0  0
  189.8200  175.9510  138.0070 C   0  0  2  0  0  3  0  0  0  0  0  0
  189.7590  176.2570  136.5170 C   0  0  0  0  0  2  0  0  0  0  0  0
  188.3590  176.5300  136.0860 C   0  0  0  0  0  0  0  0  0  0  0  0
  187.2750  175.8570  136.7140 N   0  0  0  0  0  1  0  0  0  0  0  0
  188.1340  177.3680  135.1740 O   0  0  0  0  0  0  0  0  0  0  0  0
  1 17  1  0  0  0  0
  1 11  1  0  0  0  0
  2  3  1  0  0  0  0
  3 22  2  0  0  0  0
  3  9  1  0  0  0  0
  4  5  2  0  0  0  0
  5 16  1  0  0  0  0
  6 13  1  0  0  0  0
  7  2  1  0  0  0  0
  7 17  2  0  0  0  0
  8  1  2  0  0  0  0
  9  6  2  0  0  0  0
 10 15  1  0  0  0  0
 12 22  1  0  0  0  0
 14 10  2  0  0  0  0
 14 19  1  0  0  0  0
 15 21  1  0  0  0  0
 15  2  2  0  0  0  0
 16 10  1  0  0  0  0
 19  7  1  0  0  0  0
 20 19  2  0  0  0  0
 20  8  1  0  0  0  0
 21 12  2  0  0  0  0
 22 23  1  0  0  0  0
 23 18  1  0  0  0  0
 23 13  2  0  0  0  0
 25 24  1  1  0  0  0
 25  5  1  0  0  0  0
 27 26  1  6  0  0  0
 27 25  1  0  0  0  0
 28 27  1  0  0  0  0
 29 28  1  0  0  0  0
 29 30  1  0  0  0  0
 31 29  2  0  0  0  0
M  END
>  <MODEL>
4

>  <REMARK>
 VINA RESULT:     -11.0      1.619      4.441
  Name = 
  4 active torsions:
  status: ('A' for Active; 'I' for Inactive)
    1  A    between atoms: C_1  and  C_24
    2  A    between atoms: C_9  and  C_22
    3  A    between atoms: C_19  and  C_22
    4  A    between atoms: C_19  and  C_24
                            x       y       z     vdW  Elec       q    Type
                         _______ _______ _______ _____ _____    ______ ____

>  <TORSDO>
F 4

$$$$
=
 OpenBabel10262419393D

 31 34  0  0  1  0  0  0  0  0999 V2000
  190.7350  176.8330  146.2050 C   0  0  0  0  0  0  0  0  0  0  0  0
  187.7850  177.7190  144.0320 C   0  0  0  0  0  0  0  0  0  0  0  0
  186.6940  178.0190  144.9140 C   0  0  0  0  0  0  0  0  0  0  0  0
  190.3510  176.6720  139.5470 O   0  0  0  0  0  0  0  0  0  0  0  0
  189.2580  177.2350  139.2700 C   0  0  0  0  0  0  0  0  0  0  0  0
  185.7400  178.2540  147.1530 C   0  0  0  0  0  3  0  0  0  0  0  0
  189.0930  177.3360  144.4660 C   0  0  0  0  0  0  0  0  0  0  0  0
  191.7040  176.5750  145.2360 C   0  0  0  0  0  3  0  0  0  0  0  0
  186.8140  177.9580  146.3140 C   0  0  0  0  0  3  0  0  0  0  0  0
  188.5860  177.5210  141.7160 C   0  0  0  0  0  0  0  0  0  0  0  0
  191.0450  176.7220  147.5190 F   0  0  0  0  0  0  0  0  0  0  0  0
  185.2520  178.4710  142.9980 C   0  0  0  0  0  3  0  0  0  0  0  0
  184.5120  178.6200  146.6100 C   0  0  0  0  0  3  0  0  0  0  0  0
  189.8100  177.1640  142.1760 N   0  0  0  0  0  0  0  0  0  0  0  0
  187.5550  177.8090  142.6280 C   0  0  0  0  0  0  0  0  0  0  0  0
  188.3440  177.6180  140.3040 N   0  0  0  0  0  2  0  0  0  0  0  0
  189.4470  177.2090  145.8210 C   0  0  0  0  0  3  0  0  0  0  0  0
  183.1470  179.0510  144.7190 F   0  0  0  0  0  0  0  0  0  0  0  0
  190.0910  177.0640  143.4960 C   0  0  0  0  0  0  0  0  0  0  0  0
  191.3810  176.6900  143.8850 C   0  0  0  0  0  3  0  0  0  0  0  0
  186.2990  178.1820  142.1370 C   0  0  0  0  0  3  0  0  0  0  0  0
  185.4310  178.3950  144.3760 C   0  0  0  0  0  0  0  0  0  0  0  0
  184.3520  178.6920  145.2260 C   0  0  0  0  0  0  0  0  0  0  0  0
  189.1650  178.8840  137.4020 C   0  0  0  0  0  1  0  0  0  0  0  0
  188.8670  177.4560  137.8440 C   0  0  1  0  0  3  0  0  0  0  0  0
  189.8010  176.9550  135.6760 O   0  0  0  0  0  1  0  0  0  0  0  0
  189.5070  176.4080  136.9280 C   0  0  2  0  0  3  0  0  0  0  0  0
  188.6110  175.1900  136.7540 C   0  0  0  0  0  2  0  0  0  0  0  0
  189.3940  173.9300  136.8810 C   0  0  0  0  0  0  0  0  0  0  0  0
  190.6770  173.9450  137.4980 N   0  0  0  0  0  1  0  0  0  0  0  0
  188.9170  172.8460  136.4550 O   0  0  0  0  0  0  0  0  0  0  0  0
  1 11  1  0  0  0  0
  2  7  1  0  0  0  0
  2  3  1  0  0  0  0
  3  9  1  0  0  0  0
  5  4  2  0  0  0  0
  5 16  1  0  0  0  0
  7 17  2  0  0  0  0
  8  1  2  0  0  0  0
  9  6  2  0  0  0  0
 10 14  2  0  0  0  0
 10 15  1  0  0  0  0
 12 22  1  0  0  0  0
 13  6  1  0  0  0  0
 14 19  1  0  0  0  0
 15  2  2  0  0  0  0
 16 10  1  0  0  0  0
 17  1  1  0  0  0  0
 18 23  1  0  0  0  0
 19 20  2  0  0  0  0
 19  7  1  0  0  0  0
 20  8  1  0  0  0  0
 21 15  1  0  0  0  0
 21 12  2  0  0  0  0
 22  3  2  0  0  0  0
 22 23  1  0  0  0  0
 23 13  2  0  0  0  0
 25 24  1  6  0  0  0
 25  5  1  0  0  0  0
 27 26  1  6  0  0  0
 27 25  1  0  0  0  0
 28 29  1  0  0  0  0
 28 27  1  0  0  0  0
 29 30  1  0  0  0  0
 31 29  2  0  0  0  0
M  END
>  <MODEL>
5

>  <REMARK>
 VINA RESULT:     -10.7      1.917      2.718
  Name = 
  4 active torsions:
  status: ('A' for Active; 'I' for Inactive)
    1  A    between atoms: C_1  and  C_24
    2  A    between atoms: C_9  and  C_22
    3  A    between atoms: C_19  and  C_22
    4  A    between atoms: C_19  and  C_24
                            x       y       z     vdW  Elec       q    Type
                         _______ _______ _______ _____ _____    ______ ____

>  <TORSDO>
F 4

$$$$
=
 OpenBabel10262419393D

 31 34  0  0  1  0  0  0  0  0999 V2000
  184.6630  178.4690  145.9110 C   0  0  0  0  0  0  0  0  0  0  0  0
  187.9570  177.6730  144.2600 C   0  0  0  0  0  0  0  0  0  0  0  0
  188.8850  177.3660  145.3100 C   0  0  0  0  0  0  0  0  0  0  0  0
  186.1840  178.7940  139.4230 O   0  0  0  0  0  0  0  0  0  0  0  0
  187.3180  178.2520  139.3270 C   0  0  0  0  0  0  0  0  0  0  0  0
  189.4440  177.0890  147.6750 C   0  0  0  0  0  3  0  0  0  0  0  0
  186.5890  178.0290  144.4700 C   0  0  0  0  0  0  0  0  0  0  0  0
  183.8720  178.7380  144.7960 C   0  0  0  0  0  3  0  0  0  0  0  0
  188.5260  177.3920  146.6700 C   0  0  0  0  0  3  0  0  0  0  0  0
  187.5640  177.9160  141.8460 C   0  0  0  0  0  0  0  0  0  0  0  0
  184.1300  178.5450  147.1540 F   0  0  0  0  0  0  0  0  0  0  0  0
  190.6430  176.9780  143.6620 C   0  0  0  0  0  3  0  0  0  0  0  0
  190.7540  176.7520  147.3430 C   0  0  0  0  0  3  0  0  0  0  0  0
  186.2730  178.2460  142.0950 N   0  0  0  0  0  0  0  0  0  0  0  0
  188.4270  177.6190  142.9150 C   0  0  0  0  0  0  0  0  0  0  0  0
  188.0470  177.8560  140.4950 N   0  0  0  0  0  2  0  0  0  0  0  0
  186.0050  178.1190  145.7470 C   0  0  0  0  0  3  0  0  0  0  0  0
  192.4300  176.3840  145.7070 F   0  0  0  0  0  0  0  0  0  0  0  0
  185.7680  178.3110  143.3490 C   0  0  0  0  0  0  0  0  0  0  0  0
  184.4240  178.6590  143.5180 C   0  0  0  0  0  3  0  0  0  0  0  0
  189.7550  177.2740  142.6400 C   0  0  0  0  0  3  0  0  0  0  0  0
  190.2280  177.0190  144.9900 C   0  0  0  0  0  0  0  0  0  0  0  0
  191.1490  176.7150  146.0070 C   0  0  0  0  0  0  0  0  0  0  0  0
  189.4700  178.1650  138.0720 C   0  0  0  0  0  1  0  0  0  0  0  0
  187.9510  178.0700  137.9860 C   0  0  1  0  0  3  0  0  0  0  0  0
  188.5660  175.9990  136.9100 O   0  0  0  0  0  1  0  0  0  0  0  0
  187.4780  176.7730  137.3230 C   0  0  2  0  0  3  0  0  0  0  0  0
  186.5680  177.0490  136.1340 C   0  0  0  0  0  2  0  0  0  0  0  0
  185.1860  176.5590  136.3960 C   0  0  0  0  0  0  0  0  0  0  0  0
  184.0830  177.1280  135.6990 N   0  0  0  0  0  1  0  0  0  0  0  0
  184.9930  175.6330  137.2240 O   0  0  0  0  0  0  0  0  0  0  0  0
  1 11  1  0  0  0  0
  2  7  1  0  0  0  0
  2  3  1  0  0  0  0
  3  9  1  0  0  0  0
  5  4  2  0  0  0  0
  5 16  1  0  0  0  0
  7 17  2  0  0  0  0
  8  1  2  0  0  0  0
  9  6  2  0  0  0  0
 10 14  2  0  0  0  0
 10 15  1  0  0  0  0
 12 22  1  0  0  0  0
 13  6  1  0  0  0  0
 14 19  1  0  0  0  0
 15  2  2  0  0  0  0
 16 10  1  0  0  0  0
 17  1  1  0  0  0  0
 18 23  1  0  0  0  0
 19 20  2  0  0  0  0
 19  7  1  0  0  0  0
 20  8  1  0  0  0  0
 21 15  1  0  0  0  0
 21 12  2  0  0  0  0
 22  3  2  0  0  0  0
 22 23  1  0  0  0  0
 23 13  2  0  0  0  0
 25 24  1  1  0  0  0
 25  5  1  0  0  0  0
 27 26  1  6  0  0  0
 27 25  1  0  0  0  0
 28 29  1  0  0  0  0
 28 27  1  0  0  0  0
 29 31  2  0  0  0  0
 30 29  1  0  0  0  0
M  END
>  <MODEL>
6

>  <REMARK>
 VINA RESULT:     -10.2      2.464      4.901
  Name = 
  4 active torsions:
  status: ('A' for Active; 'I' for Inactive)
    1  A    between atoms: C_1  and  C_24
    2  A    between atoms: C_9  and  C_22
    3  A    between atoms: C_19  and  C_22
    4  A    between atoms: C_19  and  C_24
                            x       y       z     vdW  Elec       q    Type
                         _______ _______ _______ _____ _____    ______ ____

>  <TORSDO>
F 4

$$$$
=
 OpenBabel10262419393D

 31 34  0  0  1  0  0  0  0  0999 V2000
  191.2600  177.3320  141.3980 C   0  0  0  0  0  0  0  0  0  0  0  0
  188.1390  177.8370  143.4530 C   0  0  0  0  0  0  0  0  0  0  0  0
  188.5070  177.6340  144.8240 C   0  0  0  0  0  0  0  0  0  0  0  0
  185.0630  178.5130  139.2250 O   0  0  0  0  0  0  0  0  0  0  0  0
  184.4060  178.8060  140.2590 C   0  0  0  0  0  0  0  0  0  0  0  0
  190.1540  177.1150  146.5560 C   0  0  0  0  0  3  0  0  0  0  0  0
  189.0440  177.7360  142.3500 C   0  0  0  0  0  0  0  0  0  0  0  0
  190.7650  177.5590  140.1150 C   0  0  0  0  0  3  0  0  0  0  0  0
  189.8180  177.3080  145.2160 C   0  0  0  0  0  3  0  0  0  0  0  0
  186.3620  178.3660  141.8390 C   0  0  0  0  0  0  0  0  0  0  0  0
  192.5670  177.0280  141.5760 F   0  0  0  0  0  0  0  0  0  0  0  0
  186.2120  178.0840  145.5210 C   0  0  0  0  0  3  0  0  0  0  0  0
  189.1820  177.2440  147.5440 C   0  0  0  0  0  3  0  0  0  0  0  0
  187.2580  178.2620  140.8270 N   0  0  0  0  0  0  0  0  0  0  0  0
  186.7810  178.1620  143.1650 C   0  0  0  0  0  0  0  0  0  0  0  0
  184.9930  178.6960  141.5610 N   0  0  0  0  0  2  0  0  0  0  0  0
  190.4070  177.4200  142.5000 C   0  0  0  0  0  3  0  0  0  0  0  0
  186.9400  177.6890  148.1760 F   0  0  0  0  0  0  0  0  0  0  0  0
  188.5600  177.9590  141.0360 C   0  0  0  0  0  0  0  0  0  0  0  0
  189.4180  177.8720  139.9350 C   0  0  0  0  0  3  0  0  0  0  0  0
  185.8460  178.2800  144.1990 C   0  0  0  0  0  3  0  0  0  0  0  0
  187.5260  177.7630  145.8480 C   0  0  0  0  0  0  0  0  0  0  0  0
  187.8710  177.5670  147.1960 C   0  0  0  0  0  0  0  0  0  0  0  0
  182.5340  179.3050  138.6900 C   0  0  0  0  0  1  0  0  0  0  0  0
  182.9730  179.2160  140.1470 C   0  0  1  0  0  3  0  0  0  0  0  0
  181.4260  177.3640  140.1690 O   0  0  0  0  0  1  0  0  0  0  0  0
  182.0700  178.3010  140.9800 C   0  0  2  0  0  3  0  0  0  0  0  0
  181.0340  179.0950  141.7630 C   0  0  0  0  0  2  0  0  0  0  0  0
  181.2510  178.9540  143.2300 C   0  0  0  0  0  0  0  0  0  0  0  0
  180.1710  178.5830  144.0790 N   0  0  0  0  0  1  0  0  0  0  0  0
  182.3930  179.1500  143.7190 O   0  0  0  0  0  0  0  0  0  0  0  0
  1 11  1  0  0  0  0
  1 17  1  0  0  0  0
  2  3  1  0  0  0  0
  3  9  2  0  0  0  0
  3 22  1  0  0  0  0
  4  5  2  0  0  0  0
  5 16  1  0  0  0  0
  6 13  2  0  0  0  0
  7 17  2  0  0  0  0
  7  2  1  0  0  0  0
  8  1  2  0  0  0  0
  9  6  1  0  0  0  0
 10 15  1  0  0  0  0
 12 22  1  0  0  0  0
 14 19  1  0  0  0  0
 14 10  2  0  0  0  0
 15  2  2  0  0  0  0
 15 21  1  0  0  0  0
 16 10  1  0  0  0  0
 19  7  1  0  0  0  0
 20  8  1  0  0  0  0
 20 19  2  0  0  0  0
 21 12  2  0  0  0  0
 22 23  2  0  0  0  0
 23 13  1  0  0  0  0
 23 18  1  0  0  0  0
 25 24  1  6  0  0  0
 25  5  1  0  0  0  0
 25 27  1  0  0  0  0
 27 26  1  6  0  0  0
 27 28  1  0  0  0  0
 28 29  1  0  0  0  0
 29 31  2  0  0  0  0
 29 30  1  0  0  0  0
M  END
>  <MODEL>
7

>  <REMARK>
 VINA RESULT:     -10.1      3.754      6.595
  Name = 
  4 active torsions:
  status: ('A' for Active; 'I' for Inactive)
    1  A    between atoms: C_1  and  C_24
    2  A    between atoms: C_9  and  C_22
    3  A    between atoms: C_19  and  C_22
    4  A    between atoms: C_19  and  C_24
                            x       y       z     vdW  Elec       q    Type
                         _______ _______ _______ _____ _____    ______ ____

>  <TORSDO>
F 4

$$$$
=
 OpenBabel10262419393D

 31 34  0  0  1  0  0  0  0  0999 V2000
  190.2680  177.4940  141.3650 C   0  0  0  0  0  0  0  0  0  0  0  0
  186.9660  178.2370  143.0270 C   0  0  0  0  0  0  0  0  0  0  0  0
  187.1610  178.0570  144.4370 C   0  0  0  0  0  0  0  0  0  0  0  0
  184.4440  178.9490  138.4520 O   0  0  0  0  0  0  0  0  0  0  0  0
  183.6900  179.3100  139.3950 C   0  0  0  0  0  0  0  0  0  0  0  0
  188.5630  177.5020  146.3610 C   0  0  0  0  0  3  0  0  0  0  0  0
  187.9850  178.0510  142.0410 C   0  0  0  0  0  0  0  0  0  0  0  0
  189.9390  177.7080  140.0270 C   0  0  0  0  0  3  0  0  0  0  0  0
  188.3960  177.6710  144.9870 C   0  0  0  0  0  3  0  0  0  0  0  0
  185.4220  178.8120  141.2040 C   0  0  0  0  0  0  0  0  0  0  0  0
  191.5260  177.1240  141.7020 F   0  0  0  0  0  0  0  0  0  0  0  0
  184.8310  178.6550  144.8480 C   0  0  0  0  0  3  0  0  0  0  0  0
  187.4930  177.7160  147.2250 C   0  0  0  0  0  3  0  0  0  0  0  0
  186.4210  178.6270  140.3060 N   0  0  0  0  0  0  0  0  0  0  0  0
  185.6720  178.6280  142.5740 C   0  0  0  0  0  0  0  0  0  0  0  0
  184.1150  179.2090  140.7590 N   0  0  0  0  0  2  0  0  0  0  0  0
  189.3000  177.6650  142.3570 C   0  0  0  0  0  3  0  0  0  0  0  0
  185.2230  178.3050  147.5790 F   0  0  0  0  0  0  0  0  0  0  0  0
  187.6700  178.2590  140.6740 C   0  0  0  0  0  0  0  0  0  0  0  0
  188.6430  178.0900  139.6830 C   0  0  0  0  0  3  0  0  0  0  0  0
  184.6320  178.8290  143.4880 C   0  0  0  0  0  3  0  0  0  0  0  0
  186.0770  178.2720  145.3350 C   0  0  0  0  0  0  0  0  0  0  0  0
  186.2520  178.1000  146.7190 C   0  0  0  0  0  0  0  0  0  0  0  0
  181.9620  179.6400  137.6290 C   0  0  0  0  0  1  0  0  0  0  0  0
  182.3060  179.7950  139.1050 C   0  0  1  0  0  3  0  0  0  0  0  0
  181.3110  177.7340  139.8700 O   0  0  0  0  0  1  0  0  0  0  0  0
  181.2820  179.1220  140.0240 C   0  0  2  0  0  3  0  0  0  0  0  0
  179.8720  179.6350  139.7650 C   0  0  0  0  0  2  0  0  0  0  0  0
  179.6340  180.9240  140.4730 C   0  0  0  0  0  0  0  0  0  0  0  0
  179.2670  182.0850  139.7370 N   0  0  0  0  0  1  0  0  0  0  0  0
  179.7450  180.9840  141.7250 O   0  0  0  0  0  0  0  0  0  0  0  0
  1 11  1  0  0  0  0
  1 17  1  0  0  0  0
  2  3  1  0  0  0  0
  3  9  2  0  0  0  0
  3 22  1  0  0  0  0
  4  5  2  0  0  0  0
  5 16  1  0  0  0  0
  6 13  2  0  0  0  0
  7 17  2  0  0  0  0
  7  2  1  0  0  0  0
  8  1  2  0  0  0  0
  9  6  1  0  0  0  0
 10 15  1  0  0  0  0
 12 22  1  0  0  0  0
 14 19  1  0  0  0  0
 14 10  2  0  0  0  0
 15  2  2  0  0  0  0
 15 21  1  0  0  0  0
 16 10  1  0  0  0  0
 19  7  1  0  0  0  0
 20  8  1  0  0  0  0
 20 19  2  0  0  0  0
 21 12  2  0  0  0  0
 22 23  2  0  0  0  0
 23 13  1  0  0  0  0
 23 18  1  0  0  0  0
 25 24  1  6  0  0  0
 25  5  1  0  0  0  0
 25 27  1  0  0  0  0
 27 26  1  6  0  0  0
 28 27  1  0  0  0  0
 28 29  1  0  0  0  0
 29 31  2  0  0  0  0
 30 29  1  0  0  0  0
M  END
>  <MODEL>
8

>  <REMARK>
 VINA RESULT:      -9.7      4.178      6.681
  Name = 
  4 active torsions:
  status: ('A' for Active; 'I' for Inactive)
    1  A    between atoms: C_1  and  C_24
    2  A    between atoms: C_9  and  C_22
    3  A    between atoms: C_19  and  C_22
    4  A    between atoms: C_19  and  C_24
                            x       y       z     vdW  Elec       q    Type
                         _______ _______ _______ _____ _____    ______ ____

>  <TORSDO>
F 4

$$$$
=
 OpenBabel10262419393D

 31 34  0  0  1  0  0  0  0  0999 V2000
  188.8550  177.9180  147.6380 C   0  0  0  0  0  0  0  0  0  0  0  0
  188.0470  177.8950  143.9560 C   0  0  0  0  0  0  0  0  0  0  0  0
  189.2890  177.7230  143.2590 C   0  0  0  0  0  0  0  0  0  0  0  0
  182.9310  178.9050  144.7320 O   0  0  0  0  0  0  0  0  0  0  0  0
  183.1100  178.6090  143.5200 C   0  0  0  0  0  0  0  0  0  0  0  0
  191.7170  177.4320  143.2280 C   0  0  0  0  0  3  0  0  0  0  0  0
  187.9210  177.9560  145.3790 C   0  0  0  0  0  0  0  0  0  0  0  0
  187.5820  178.0850  148.1820 C   0  0  0  0  0  3  0  0  0  0  0  0
  190.5210  177.5990  143.9260 C   0  0  0  0  0  3  0  0  0  0  0  0
  185.6110  178.1890  143.8110 C   0  0  0  0  0  0  0  0  0  0  0  0
  189.9320  177.8160  148.4530 F   0  0  0  0  0  0  0  0  0  0  0  0
  188.1140  177.7880  141.1210 C   0  0  0  0  0  3  0  0  0  0  0  0
  191.7110  177.3840  141.8370 C   0  0  0  0  0  3  0  0  0  0  0  0
  185.5420  178.2380  145.1630 N   0  0  0  0  0  0  0  0  0  0  0  0
  186.8560  178.0120  143.1810 C   0  0  0  0  0  0  0  0  0  0  0  0
  184.4170  178.3030  143.0210 N   0  0  0  0  0  2  0  0  0  0  0  0
  189.0180  177.8550  146.2530 C   0  0  0  0  0  3  0  0  0  0  0  0
  190.5280  177.4530  139.7830 F   0  0  0  0  0  0  0  0  0  0  0  0
  186.6360  178.1300  145.9520 C   0  0  0  0  0  0  0  0  0  0  0  0
  186.4760  178.1900  147.3400 C   0  0  0  0  0  3  0  0  0  0  0  0
  186.9090  177.9570  141.7850 C   0  0  0  0  0  3  0  0  0  0  0  0
  189.3020  177.6710  141.8360 C   0  0  0  0  0  0  0  0  0  0  0  0
  190.5100  177.5030  141.1390 C   0  0  0  0  0  0  0  0  0  0  0  0
  180.8010  179.4570  143.1120 C   0  0  0  0  0  1  0  0  0  0  0  0
  181.9610  178.6340  142.5640 C   0  0  1  0  0  3  0  0  0  0  0  0
  181.3390  179.6490  140.4650 O   0  0  0  0  0  1  0  0  0  0  0  0
  182.4080  179.0970  141.1750 C   0  0  2  0  0  3  0  0  0  0  0  0
  183.0190  177.9560  140.3710 C   0  0  0  0  0  2  0  0  0  0  0  0
  183.9490  178.4760  139.3310 C   0  0  0  0  0  0  0  0  0  0  0  0
  184.5560  179.7530  139.4890 N   0  0  0  0  0  1  0  0  0  0  0  0
  184.2110  177.7800  138.3160 O   0  0  0  0  0  0  0  0  0  0  0  0
  1  8  1  0  0  0  0
  1 11  1  0  0  0  0
  2  7  1  0  0  0  0
  3  9  1  0  0  0  0
  3  2  1  0  0  0  0
  5  4  2  0  0  0  0
  6  9  2  0  0  0  0
  7 19  2  0  0  0  0
  7 17  1  0  0  0  0
 10 14  2  0  0  0  0
 12 21  2  0  0  0  0
 12 22  1  0  0  0  0
 13  6  1  0  0  0  0
 14 19  1  0  0  0  0
 15 10  1  0  0  0  0
 15  2  2  0  0  0  0
 16  5  1  0  0  0  0
 16 10  1  0  0  0  0
 17  1  2  0  0  0  0
 18 23  1  0  0  0  0
 19 20  1  0  0  0  0
 20  8  2  0  0  0  0
 21 15  1  0  0  0  0
 22  3  2  0  0  0  0
 23 22  1  0  0  0  0
 23 13  2  0  0  0  0
 25 24  1  1  0  0  0
 25  5  1  0  0  0  0
 27 26  1  6  0  0  0
 27 25  1  0  0  0  0
 28 27  1  0  0  0  0
 29 30  1  0  0  0  0
 29 28  1  0  0  0  0
 31 29  2  0  0  0  0
M  END
>  <MODEL>
9

>  <REMARK>
 VINA RESULT:      -9.7      3.519      6.171
  Name = 
  4 active torsions:
  status: ('A' for Active; 'I' for Inactive)
    1  A    between atoms: C_1  and  C_24
    2  A    between atoms: C_9  and  C_22
    3  A    between atoms: C_19  and  C_22
    4  A    between atoms: C_19  and  C_24
                            x       y       z     vdW  Elec       q    Type
                         _______ _______ _______ _____ _____    ______ ____

>  <TORSDO>
F 4

$$$$
