=
 OpenBabel10262423263D

 34 39  0  0  0  0  0  0  0  0999 V2000
  189.1620  177.7270  141.5170 C   0  0  0  0  0  0  0  0  0  0  0  0
  191.3120  176.3230  138.8500 C   0  0  0  0  0  3  0  0  0  0  0  0
  192.2690  177.6840  140.9590 S   0  0  0  0  0  0  0  0  0  0  0  0
  188.1370  177.4390  144.0910 N   0  0  0  0  0  0  0  0  0  0  0  0
  187.8180  178.0170  141.8020 C   0  0  0  0  0  3  0  0  0  0  0  0
  189.4440  177.1470  143.8640 C   0  0  0  0  0  0  0  0  0  0  0  0
  191.5420  176.3530  144.6770 N   0  0  0  0  0  0  0  0  0  0  0  0
  190.2320  176.6360  144.8960 C   0  0  0  0  0  3  0  0  0  0  0  0
  187.3180  177.8960  143.1040 C   0  0  0  0  0  0  0  0  0  0  0  0
  191.3900  177.1060  142.4120 C   0  0  0  0  0  0  0  0  0  0  0  0
  190.0090  177.3440  142.5860 C   0  0  0  0  0  0  0  0  0  0  0  0
  192.1320  176.5890  143.4750 C   0  0  0  0  0  3  0  0  0  0  0  0
  190.3160  175.8220  137.8610 C   0  0  0  0  0  2  0  0  0  0  0  0
  189.7530  176.9570  137.0670 C   0  0  0  0  0  0  0  0  0  0  0  0
  189.0280  177.9190  137.6570 C   0  0  0  0  0  3  0  0  0  0  0  0
  190.9900  177.1490  139.8440 C   0  0  0  0  0  0  0  0  0  0  0  0
  188.7810  178.0230  139.1100 C   0  0  0  0  0  3  0  0  0  0  0  0
  189.6160  177.6500  140.0980 C   0  0  0  0  0  0  0  0  0  0  0  0
  184.1510  178.7620  145.0030 C   0  0  0  0  0  3  0  0  0  0  0  0
  184.9610  178.2600  142.3670 C   0  0  0  0  0  3  0  0  0  0  0  0
  180.9360  179.1540  143.2030 C   0  0  0  0  0  0  0  0  0  0  0  0
  181.8780  179.1060  144.2410 C   0  0  0  0  0  3  0  0  0  0  0  0
  183.2160  178.8100  143.9680 C   0  0  0  0  0  0  0  0  0  0  0  0
  182.6870  178.6040  141.6040 C   0  0  0  0  0  3  0  0  0  0  0  0
  183.6230  178.5570  142.6400 C   0  0  0  0  0  0  0  0  0  0  0  0
  181.3510  178.9010  141.8850 C   0  0  0  0  0  3  0  0  0  0  0  0
  185.9050  178.2120  143.4040 C   0  0  0  0  0  0  0  0  0  0  0  0
  185.4880  178.4650  144.7220 C   0  0  0  0  0  3  0  0  0  0  0  0
  179.5650  179.4590  143.4880 N   0  0  0  0  0  0  0  0  0  0  0  0
  178.9310  178.7990  144.3370 O   0  0  0  0  0  0  0  0  0  0  0  0
  178.9310  180.4870  142.8280 O   0  0  0  0  0  0  0  0  0  0  0  0
  189.9770  176.9660  135.6860 O   0  0  0  0  0  0  0  0  0  0  0  0
  188.9790  177.3270  134.7390 C   0  0  0  0  0  2  0  0  0  0  0  0
  187.9680  176.2060  134.6190 C   0  0  0  0  0  1  0  0  0  0  0  0
  1  5  2  0  0  0  0
  1 11  1  0  0  0  0
  2 16  2  0  0  0  0
  3 10  1  0  0  0  0
  5  9  1  0  0  0  0
  6  4  1  0  0  0  0
  6  8  1  0  0  0  0
  7  8  2  0  0  0  0
  9 27  1  0  0  0  0
  9  4  2  0  0  0  0
 10 11  1  0  0  0  0
 10 12  2  0  0  0  0
 11  6  2  0  0  0  0
 12  7  1  0  0  0  0
 13  2  1  0  0  0  0
 14 15  2  0  0  0  0
 14 13  1  0  0  0  0
 15 17  1  0  0  0  0
 16 18  1  0  0  0  0
 16  3  1  0  0  0  0
 17 18  2  0  0  0  0
 18  1  1  0  0  0  0
 20 25  2  0  0  0  0
 20 27  1  0  0  0  0
 21 29  1  0  0  0  0
 21 22  2  0  0  0  0
 23 22  1  0  0  0  0
 23 19  2  0  0  0  0
 24 26  2  0  0  0  0
 24 25  1  0  0  0  0
 25 23  1  0  0  0  0
 26 21  1  0  0  0  0
 27 28  2  0  0  0  0
 28 19  1  0  0  0  0
 29 30  2  0  0  0  0
 31 29  2  0  0  0  0
 32 14  1  0  0  0  0
 33 32  1  0  0  0  0
 34 33  1  0  0  0  0
M  END
>  <MODEL>
1

>  <REMARK>
 VINA RESULT:      -9.5      0.000      0.000
  Name = 
  4 active torsions:
  status: ('A' for Active; 'I' for Inactive)
    1  A    between atoms: O_3  and  C_13
    2  A    between atoms: O_3  and  C_25
    3  A    between atoms: C_7  and  N_11
    4  A    between atoms: C_18  and  C_30
                            x       y       z     vdW  Elec       q    Type
                         _______ _______ _______ _____ _____    ______ ____

>  <TORSDO>
F 4

$$$$
=
 OpenBabel10262423263D

 34 39  0  0  0  0  0  0  0  0999 V2000
  188.7780  177.2420  138.2550 C   0  0  0  0  0  0  0  0  0  0  0  0
  186.5570  176.3730  135.4230 C   0  0  0  0  0  3  0  0  0  0  0  0
  188.9760  177.5020  135.1140 S   0  0  0  0  0  0  0  0  0  0  0  0
  190.9830  176.5340  139.8030 N   0  0  0  0  0  0  0  0  0  0  0  0
  188.7660  177.3920  139.6510 C   0  0  0  0  0  3  0  0  0  0  0  0
  191.0430  176.3720  138.4560 C   0  0  0  0  0  0  0  0  0  0  0  0
  192.2350  175.6300  136.5260 N   0  0  0  0  0  0  0  0  0  0  0  0
  192.1670  175.7840  137.8740 C   0  0  0  0  0  3  0  0  0  0  0  0
  189.8890  177.0600  140.4190 C   0  0  0  0  0  0  0  0  0  0  0  0
  190.1010  176.6690  136.2370 C   0  0  0  0  0  0  0  0  0  0  0  0
  189.9670  176.7810  137.6380 C   0  0  0  0  0  0  0  0  0  0  0  0
  191.2440  176.0690  135.7060 C   0  0  0  0  0  3  0  0  0  0  0  0
  185.3080  175.9400  136.1120 C   0  0  0  0  0  2  0  0  0  0  0  0
  184.5390  177.1280  136.5930 C   0  0  0  0  0  0  0  0  0  0  0  0
  185.0460  177.9450  137.5270 C   0  0  0  0  0  3  0  0  0  0  0  0
  187.5340  177.0310  136.0460 C   0  0  0  0  0  0  0  0  0  0  0  0
  186.4000  177.8330  138.1080 C   0  0  0  0  0  3  0  0  0  0  0  0
  187.5090  177.3920  137.4850 C   0  0  0  0  0  0  0  0  0  0  0  0
  191.0620  177.5660  143.9890 C   0  0  0  0  0  3  0  0  0  0  0  0
  188.6620  177.2090  142.5870 C   0  0  0  0  0  3  0  0  0  0  0  0
  188.6120  177.6840  146.7670 C   0  0  0  0  0  0  0  0  0  0  0  0
  189.8290  177.7030  146.0700 C   0  0  0  0  0  3  0  0  0  0  0  0
  189.8500  177.5460  144.6810 C   0  0  0  0  0  0  0  0  0  0  0  0
  187.4270  177.3460  144.6670 C   0  0  0  0  0  3  0  0  0  0  0  0
  188.6400  177.3660  143.9750 C   0  0  0  0  0  0  0  0  0  0  0  0
  187.4140  177.5030  146.0560 C   0  0  0  0  0  3  0  0  0  0  0  0
  189.8780  177.2290  141.8870 C   0  0  0  0  0  0  0  0  0  0  0  0
  191.0750  177.4080  142.6000 C   0  0  0  0  0  3  0  0  0  0  0  0
  188.5950  177.8460  148.1910 N   0  0  0  0  0  0  0  0  0  0  0  0
  187.5560  177.6190  148.8440 O   0  0  0  0  0  0  0  0  0  0  0  0
  189.7290  178.2530  148.8570 O   0  0  0  0  0  0  0  0  0  0  0  0
  183.2620  177.3400  136.0640 O   0  0  0  0  0  0  0  0  0  0  0  0
  182.0910  177.4230  136.8670 C   0  0  0  0  0  2  0  0  0  0  0  0
  181.4920  178.8080  136.7450 C   0  0  0  0  0  1  0  0  0  0  0  0
  1  5  1  0  0  0  0
  2 16  2  0  0  0  0
  2 13  1  0  0  0  0
  3 16  1  0  0  0  0
  3 10  1  0  0  0  0
  4  9  1  0  0  0  0
  5  9  2  0  0  0  0
  6  4  2  0  0  0  0
  7  8  2  0  0  0  0
  8  6  1  0  0  0  0
  9 27  1  0  0  0  0
 10 11  1  0  0  0  0
 11  1  2  0  0  0  0
 11  6  1  0  0  0  0
 12 10  2  0  0  0  0
 12  7  1  0  0  0  0
 13 14  1  0  0  0  0
 14 15  2  0  0  0  0
 15 17  1  0  0  0  0
 16 18  1  0  0  0  0
 18 17  2  0  0  0  0
 18  1  1  0  0  0  0
 19 23  1  0  0  0  0
 20 25  1  0  0  0  0
 21 29  1  0  0  0  0
 22 21  1  0  0  0  0
 23 22  2  0  0  0  0
 24 26  1  0  0  0  0
 25 24  2  0  0  0  0
 25 23  1  0  0  0  0
 26 21  2  0  0  0  0
 27 20  2  0  0  0  0
 27 28  1  0  0  0  0
 28 19  2  0  0  0  0
 29 30  2  0  0  0  0
 29 31  2  0  0  0  0
 32 14  1  0  0  0  0
 32 33  1  0  0  0  0
 34 33  1  0  0  0  0
M  END
>  <MODEL>
2

>  <REMARK>
 VINA RESULT:      -9.1      4.282      6.580
  Name = 
  4 active torsions:
  status: ('A' for Active; 'I' for Inactive)
    1  A    between atoms: O_3  and  C_13
    2  A    between atoms: O_3  and  C_25
    3  A    between atoms: C_7  and  N_11
    4  A    between atoms: C_18  and  C_30
                            x       y       z     vdW  Elec       q    Type
                         _______ _______ _______ _____ _____    ______ ____

>  <TORSDO>
F 4

$$$$
=
 OpenBabel10262423263D

 34 39  0  0  0  0  0  0  0  0999 V2000
  182.2900  178.0940  141.0090 C   0  0  0  0  0  0  0  0  0  0  0  0
  181.2060  178.5060  137.4930 C   0  0  0  0  0  3  0  0  0  0  0  0
  179.5350  177.8370  139.4880 S   0  0  0  0  0  0  0  0  0  0  0  0
  182.4540  179.2130  143.5540 N   0  0  0  0  0  0  0  0  0  0  0  0
  183.4500  177.9600  141.7890 C   0  0  0  0  0  3  0  0  0  0  0  0
  181.3110  179.3680  142.8370 C   0  0  0  0  0  0  0  0  0  0  0  0
  179.1210  180.2940  142.6380 N   0  0  0  0  0  0  0  0  0  0  0  0
  180.2700  180.1450  143.3460 C   0  0  0  0  0  3  0  0  0  0  0  0
  183.5140  178.5030  143.0790 C   0  0  0  0  0  0  0  0  0  0  0  0
  179.9400  178.8760  140.8940 C   0  0  0  0  0  0  0  0  0  0  0  0
  181.1730  178.7580  141.5710 C   0  0  0  0  0  0  0  0  0  0  0  0
  178.9320  179.6700  141.4440 C   0  0  0  0  0  3  0  0  0  0  0  0
  182.4980  178.7100  136.7780 C   0  0  0  0  0  2  0  0  0  0  0  0
  183.2080  177.4060  136.6010 C   0  0  0  0  0  0  0  0  0  0  0  0
  183.6400  176.7070  137.6610 C   0  0  0  0  0  3  0  0  0  0  0  0
  181.1370  178.0460  138.7420 C   0  0  0  0  0  0  0  0  0  0  0  0
  183.4010  177.0730  139.0720 C   0  0  0  0  0  3  0  0  0  0  0  0
  182.3200  177.7040  139.5690 C   0  0  0  0  0  0  0  0  0  0  0  0
  185.9120  178.6550  146.0130 C   0  0  0  0  0  3  0  0  0  0  0  0
  185.8800  177.7600  143.3570 C   0  0  0  0  0  3  0  0  0  0  0  0
  189.3560  177.3270  145.6880 C   0  0  0  0  0  0  0  0  0  0  0  0
  188.2090  177.9190  146.2360 C   0  0  0  0  0  3  0  0  0  0  0  0
  187.0520  178.0650  145.4650 C   0  0  0  0  0  0  0  0  0  0  0  0
  188.1780  177.0240  143.5790 C   0  0  0  0  0  3  0  0  0  0  0  0
  187.0370  177.6140  144.1270 C   0  0  0  0  0  0  0  0  0  0  0  0
  189.3310  176.8820  144.3550 C   0  0  0  0  0  3  0  0  0  0  0  0
  184.7310  178.3520  143.9040 C   0  0  0  0  0  0  0  0  0  0  0  0
  184.7580  178.7970  145.2360 C   0  0  0  0  0  3  0  0  0  0  0  0
  190.5400  177.1790  146.4820 N   0  0  0  0  0  0  0  0  0  0  0  0
  190.4680  177.1380  147.7280 O   0  0  0  0  0  0  0  0  0  0  0  0
  191.7730  177.0780  145.8790 O   0  0  0  0  0  0  0  0  0  0  0  0
  183.4380  176.9570  135.2960 O   0  0  0  0  0  0  0  0  0  0  0  0
  184.6570  176.3480  134.8870 C   0  0  0  0  0  2  0  0  0  0  0  0
  185.6860  177.4210  134.6020 C   0  0  0  0  0  1  0  0  0  0  0  0
  1 11  2  0  0  0  0
  1  5  1  0  0  0  0
  2 16  2  0  0  0  0
  3 10  1  0  0  0  0
  5  9  2  0  0  0  0
  6  8  1  0  0  0  0
  6  4  2  0  0  0  0
  7  8  2  0  0  0  0
  9  4  1  0  0  0  0
  9 27  1  0  0  0  0
 10 12  2  0  0  0  0
 10 11  1  0  0  0  0
 11  6  1  0  0  0  0
 12  7  1  0  0  0  0
 13  2  1  0  0  0  0
 14 13  1  0  0  0  0
 14 15  2  0  0  0  0
 15 17  1  0  0  0  0
 16  3  1  0  0  0  0
 16 18  1  0  0  0  0
 17 18  2  0  0  0  0
 18  1  1  0  0  0  0
 20 27  2  0  0  0  0
 20 25  1  0  0  0  0
 21 22  1  0  0  0  0
 21 29  1  0  0  0  0
 23 19  1  0  0  0  0
 23 22  2  0  0  0  0
 24 25  2  0  0  0  0
 24 26  1  0  0  0  0
 25 23  1  0  0  0  0
 26 21  2  0  0  0  0
 27 28  1  0  0  0  0
 28 19  2  0  0  0  0
 29 30  2  0  0  0  0
 31 29  2  0  0  0  0
 32 14  1  0  0  0  0
 33 32  1  0  0  0  0
 34 33  1  0  0  0  0
M  END
>  <MODEL>
3

>  <REMARK>
 VINA RESULT:      -9.0      4.366      8.220
  Name = 
  4 active torsions:
  status: ('A' for Active; 'I' for Inactive)
    1  A    between atoms: O_3  and  C_13
    2  A    between atoms: O_3  and  C_25
    3  A    between atoms: C_7  and  N_11
    4  A    between atoms: C_18  and  C_30
                            x       y       z     vdW  Elec       q    Type
                         _______ _______ _______ _____ _____    ______ ____

>  <TORSDO>
F 4

$$$$
=
 OpenBabel10262423263D

 34 39  0  0  0  0  0  0  0  0999 V2000
  181.7590  179.5720  138.5490 C   0  0  0  0  0  0  0  0  0  0  0  0
  179.5940  181.6360  136.3660 C   0  0  0  0  0  3  0  0  0  0  0  0
  180.8790  179.4340  135.5190 S   0  0  0  0  0  0  0  0  0  0  0  0
  182.0030  177.2750  140.1050 N   0  0  0  0  0  0  0  0  0  0  0  0
  182.4060  179.6030  139.7950 C   0  0  0  0  0  3  0  0  0  0  0  0
  181.3700  177.1960  138.9050 C   0  0  0  0  0  0  0  0  0  0  0  0
  180.1610  175.9080  137.3010 N   0  0  0  0  0  0  0  0  0  0  0  0
  180.7850  175.9940  138.5040 C   0  0  0  0  0  3  0  0  0  0  0  0
  182.5480  178.4370  140.5580 C   0  0  0  0  0  0  0  0  0  0  0  0
  180.6920  178.1840  136.7930 C   0  0  0  0  0  0  0  0  0  0  0  0
  181.2870  178.3280  138.0650 C   0  0  0  0  0  0  0  0  0  0  0  0
  180.1170  176.9610  136.4420 C   0  0  0  0  0  3  0  0  0  0  0  0
  179.2630  182.7960  137.2430 C   0  0  0  0  0  2  0  0  0  0  0  0
  180.4160  183.7450  137.3120 C   0  0  0  0  0  0  0  0  0  0  0  0
  181.5830  183.3720  137.8550 C   0  0  0  0  0  3  0  0  0  0  0  0
  180.5730  180.7760  136.6470 C   0  0  0  0  0  0  0  0  0  0  0  0
  181.8950  182.0150  138.3490 C   0  0  0  0  0  3  0  0  0  0  0  0
  181.4260  180.8520  137.8580 C   0  0  0  0  0  0  0  0  0  0  0  0
  183.2210  178.9180  144.2590 C   0  0  0  0  0  3  0  0  0  0  0  0
  184.5830  178.0780  141.9580 C   0  0  0  0  0  3  0  0  0  0  0  0
  186.5640  178.1650  145.6680 C   0  0  0  0  0  0  0  0  0  0  0  0
  185.2210  178.5560  145.5770 C   0  0  0  0  0  3  0  0  0  0  0  0
  184.5590  178.5280  144.3470 C   0  0  0  0  0  0  0  0  0  0  0  0
  186.5840  177.7160  143.2750 C   0  0  0  0  0  3  0  0  0  0  0  0
  185.2450  178.1050  143.1870 C   0  0  0  0  0  0  0  0  0  0  0  0
  187.2390  177.7470  144.5090 C   0  0  0  0  0  3  0  0  0  0  0  0
  183.2380  178.4680  141.8650 C   0  0  0  0  0  0  0  0  0  0  0  0
  182.5650  178.8880  143.0250 C   0  0  0  0  0  3  0  0  0  0  0  0
  187.2400  178.1940  146.9320 N   0  0  0  0  0  0  0  0  0  0  0  0
  186.7910  178.8770  147.8760 O   0  0  0  0  0  0  0  0  0  0  0  0
  188.3920  177.4670  147.1210 O   0  0  0  0  0  0  0  0  0  0  0  0
  180.2270  185.0420  136.8230 O   0  0  0  0  0  0  0  0  0  0  0  0
  179.1580  185.8820  137.2400 C   0  0  0  0  0  2  0  0  0  0  0  0
  179.3450  186.2530  138.6960 C   0  0  0  0  0  1  0  0  0  0  0  0
  1  5  1  0  0  0  0
  2 16  2  0  0  0  0
  2 13  1  0  0  0  0
  3 16  1  0  0  0  0
  3 10  1  0  0  0  0
  4  9  1  0  0  0  0
  5  9  2  0  0  0  0
  6  4  2  0  0  0  0
  7  8  2  0  0  0  0
  8  6  1  0  0  0  0
  9 27  1  0  0  0  0
 10 11  1  0  0  0  0
 11  1  2  0  0  0  0
 11  6  1  0  0  0  0
 12 10  2  0  0  0  0
 12  7  1  0  0  0  0
 13 14  1  0  0  0  0
 14 15  2  0  0  0  0
 15 17  1  0  0  0  0
 16 18  1  0  0  0  0
 18 17  2  0  0  0  0
 18  1  1  0  0  0  0
 19 23  1  0  0  0  0
 20 25  1  0  0  0  0
 21 29  1  0  0  0  0
 22 21  1  0  0  0  0
 23 22  2  0  0  0  0
 24 26  1  0  0  0  0
 25 24  2  0  0  0  0
 25 23  1  0  0  0  0
 26 21  2  0  0  0  0
 27 20  2  0  0  0  0
 27 28  1  0  0  0  0
 28 19  2  0  0  0  0
 29 31  2  0  0  0  0
 29 30  2  0  0  0  0
 32 33  1  0  0  0  0
 32 14  1  0  0  0  0
 33 34  1  0  0  0  0
M  END
>  <MODEL>
4

>  <REMARK>
 VINA RESULT:      -8.8      5.399      9.340
  Name = 
  4 active torsions:
  status: ('A' for Active; 'I' for Inactive)
    1  A    between atoms: O_3  and  C_13
    2  A    between atoms: O_3  and  C_25
    3  A    between atoms: C_7  and  N_11
    4  A    between atoms: C_18  and  C_30
                            x       y       z     vdW  Elec       q    Type
                         _______ _______ _______ _____ _____    ______ ____

>  <TORSDO>
F 4

$$$$
=
 OpenBabel10262423263D

 34 39  0  0  0  0  0  0  0  0999 V2000
  187.5570  177.5400  144.1130 C   0  0  0  0  0  0  0  0  0  0  0  0
  184.5290  179.1950  145.4560 C   0  0  0  0  0  3  0  0  0  0  0  0
  185.8080  177.1970  146.7190 S   0  0  0  0  0  0  0  0  0  0  0  0
  190.3340  177.3290  144.1800 N   0  0  0  0  0  0  0  0  0  0  0  0
  188.3060  177.4180  142.9310 C   0  0  0  0  0  3  0  0  0  0  0  0
  189.6520  177.4430  145.3490 C   0  0  0  0  0  0  0  0  0  0  0  0
  189.6700  177.6370  147.7270 N   0  0  0  0  0  0  0  0  0  0  0  0
  190.3480  177.5330  146.5550 C   0  0  0  0  0  3  0  0  0  0  0  0
  189.6990  177.2850  142.9760 C   0  0  0  0  0  0  0  0  0  0  0  0
  187.5670  177.5250  146.5920 C   0  0  0  0  0  0  0  0  0  0  0  0
  188.2410  177.4870  145.3520 C   0  0  0  0  0  0  0  0  0  0  0  0
  188.3110  177.6200  147.7700 C   0  0  0  0  0  3  0  0  0  0  0  0
  184.1270  180.0920  144.3360 C   0  0  0  0  0  2  0  0  0  0  0  0
  183.4480  179.3100  143.2580 C   0  0  0  0  0  0  0  0  0  0  0  0
  184.1080  178.3660  142.5710 C   0  0  0  0  0  3  0  0  0  0  0  0
  185.4130  178.2080  145.3090 C   0  0  0  0  0  0  0  0  0  0  0  0
  185.4970  177.9370  142.8390 C   0  0  0  0  0  3  0  0  0  0  0  0
  186.1110  177.8980  144.0360 C   0  0  0  0  0  0  0  0  0  0  0  0
  192.6050  177.2890  140.5380 C   0  0  0  0  0  3  0  0  0  0  0  0
  189.8570  176.7380  140.5460 C   0  0  0  0  0  3  0  0  0  0  0  0
  192.0780  176.3410  136.9950 C   0  0  0  0  0  0  0  0  0  0  0  0
  192.7090  176.7500  138.1790 C   0  0  0  0  0  3  0  0  0  0  0  0
  191.9750  176.8820  139.3610 C   0  0  0  0  0  0  0  0  0  0  0  0
  189.9600  176.1980  138.1860 C   0  0  0  0  0  3  0  0  0  0  0  0
  190.5900  176.6050  139.3640 C   0  0  0  0  0  0  0  0  0  0  0  0
  190.7000  176.0680  137.0080 C   0  0  0  0  0  3  0  0  0  0  0  0
  190.4860  177.1460  141.7320 C   0  0  0  0  0  0  0  0  0  0  0  0
  191.8640  177.4200  141.7170 C   0  0  0  0  0  3  0  0  0  0  0  0
  192.8360  176.2060  135.7850 N   0  0  0  0  0  0  0  0  0  0  0  0
  194.0790  176.3220  135.7980 O   0  0  0  0  0  0  0  0  0  0  0  0
  192.1990  175.9440  134.5940 O   0  0  0  0  0  0  0  0  0  0  0  0
  182.1150  179.6170  142.9660 O   0  0  0  0  0  0  0  0  0  0  0  0
  181.1010  178.6290  142.8320 C   0  0  0  0  0  2  0  0  0  0  0  0
  180.3350  178.5120  144.1330 C   0  0  0  0  0  1  0  0  0  0  0  0
  1 11  1  0  0  0  0
  4  6  1  0  0  0  0
  5  9  1  0  0  0  0
  5  1  2  0  0  0  0
  6 11  2  0  0  0  0
  6  8  1  0  0  0  0
  7 12  1  0  0  0  0
  8  7  2  0  0  0  0
  9  4  2  0  0  0  0
 10  3  1  0  0  0  0
 10 12  2  0  0  0  0
 11 10  1  0  0  0  0
 13  2  1  0  0  0  0
 14 13  1  0  0  0  0
 15 17  1  0  0  0  0
 15 14  2  0  0  0  0
 16  2  2  0  0  0  0
 16  3  1  0  0  0  0
 17 18  2  0  0  0  0
 18  1  1  0  0  0  0
 18 16  1  0  0  0  0
 19 28  1  0  0  0  0
 20 27  1  0  0  0  0
 21 26  1  0  0  0  0
 21 22  2  0  0  0  0
 22 23  1  0  0  0  0
 23 25  1  0  0  0  0
 23 19  2  0  0  0  0
 24 25  1  0  0  0  0
 25 20  2  0  0  0  0
 26 24  2  0  0  0  0
 27  9  1  0  0  0  0
 28 27  2  0  0  0  0
 29 30  2  0  0  0  0
 29 21  1  0  0  0  0
 31 29  2  0  0  0  0
 32 14  1  0  0  0  0
 33 32  1  0  0  0  0
 33 34  1  0  0  0  0
M  END
>  <MODEL>
5

>  <REMARK>
 VINA RESULT:      -8.7      2.939      8.986
  Name = 
  4 active torsions:
  status: ('A' for Active; 'I' for Inactive)
    1  A    between atoms: O_3  and  C_13
    2  A    between atoms: O_3  and  C_25
    3  A    between atoms: C_7  and  N_11
    4  A    between atoms: C_18  and  C_30
                            x       y       z     vdW  Elec       q    Type
                         _______ _______ _______ _____ _____    ______ ____

>  <TORSDO>
F 4

$$$$
=
 OpenBabel10262423263D

 34 39  0  0  0  0  0  0  0  0999 V2000
  189.7510  176.3980  137.9300 C   0  0  0  0  0  0  0  0  0  0  0  0
  188.5580  174.4820  134.9940 C   0  0  0  0  0  3  0  0  0  0  0  0
  190.3840  176.4460  134.8370 S   0  0  0  0  0  0  0  0  0  0  0  0
  191.7500  176.7560  139.8350 N   0  0  0  0  0  0  0  0  0  0  0  0
  189.4370  176.6490  139.2750 C   0  0  0  0  0  3  0  0  0  0  0  0
  192.1020  176.5160  138.5460 C   0  0  0  0  0  0  0  0  0  0  0  0
  193.8060  176.1460  136.9170 N   0  0  0  0  0  0  0  0  0  0  0  0
  193.4490  176.3740  138.2070 C   0  0  0  0  0  3  0  0  0  0  0  0
  190.4480  176.8550  140.2210 C   0  0  0  0  0  0  0  0  0  0  0  0
  191.5240  176.2260  136.2050 C   0  0  0  0  0  0  0  0  0  0  0  0
  191.1140  176.3940  137.5450 C   0  0  0  0  0  0  0  0  0  0  0  0
  192.8840  176.0840  135.9200 C   0  0  0  0  0  3  0  0  0  0  0  0
  187.4640  173.6510  135.5730 C   0  0  0  0  0  2  0  0  0  0  0  0
  186.2320  174.4730  135.7710 C   0  0  0  0  0  0  0  0  0  0  0  0
  186.2200  175.5010  136.6330 C   0  0  0  0  0  3  0  0  0  0  0  0
  189.0880  175.5240  135.6340 C   0  0  0  0  0  0  0  0  0  0  0  0
  187.3910  175.9840  137.3920 C   0  0  0  0  0  3  0  0  0  0  0  0
  188.6760  175.9670  136.9890 C   0  0  0  0  0  0  0  0  0  0  0  0
  190.8040  177.7280  143.8950 C   0  0  0  0  0  3  0  0  0  0  0  0
  188.7850  177.0530  142.0720 C   0  0  0  0  0  3  0  0  0  0  0  0
  187.8220  177.8290  146.0930 C   0  0  0  0  0  0  0  0  0  0  0  0
  189.1540  177.9070  145.6590 C   0  0  0  0  0  3  0  0  0  0  0  0
  189.4780  177.6500  144.3240 C   0  0  0  0  0  0  0  0  0  0  0  0
  187.1340  177.2320  143.8360 C   0  0  0  0  0  3  0  0  0  0  0  0
  188.4600  177.3100  143.4060 C   0  0  0  0  0  0  0  0  0  0  0  0
  186.8170  177.4890  145.1720 C   0  0  0  0  0  3  0  0  0  0  0  0
  190.1160  177.1310  141.6350 C   0  0  0  0  0  0  0  0  0  0  0  0
  191.1210  177.4700  142.5580 C   0  0  0  0  0  3  0  0  0  0  0  0
  187.4940  178.0940  147.4630 N   0  0  0  0  0  0  0  0  0  0  0  0
  186.4770  178.7550  147.7560 O   0  0  0  0  0  0  0  0  0  0  0  0
  188.2990  177.6200  148.4740 O   0  0  0  0  0  0  0  0  0  0  0  0
  185.0830  174.1160  135.0560 O   0  0  0  0  0  0  0  0  0  0  0  0
  184.4870  172.8280  135.1360 C   0  0  0  0  0  2  0  0  0  0  0  0
  183.5770  172.7670  136.3440 C   0  0  0  0  0  1  0  0  0  0  0  0
  1  5  1  0  0  0  0
  2 13  1  0  0  0  0
  2 16  2  0  0  0  0
  3 16  1  0  0  0  0
  3 10  1  0  0  0  0
  4  9  1  0  0  0  0
  5  9  2  0  0  0  0
  6  4  2  0  0  0  0
  7  8  2  0  0  0  0
  8  6  1  0  0  0  0
  9 27  1  0  0  0  0
 10 11  1  0  0  0  0
 11  1  2  0  0  0  0
 11  6  1  0  0  0  0
 12 10  2  0  0  0  0
 12  7  1  0  0  0  0
 13 14  1  0  0  0  0
 14 15  2  0  0  0  0
 15 17  1  0  0  0  0
 16 18  1  0  0  0  0
 18 17  2  0  0  0  0
 18  1  1  0  0  0  0
 19 23  1  0  0  0  0
 20 25  1  0  0  0  0
 21 29  1  0  0  0  0
 22 21  1  0  0  0  0
 23 22  2  0  0  0  0
 24 26  1  0  0  0  0
 25 24  2  0  0  0  0
 25 23  1  0  0  0  0
 26 21  2  0  0  0  0
 27 20  2  0  0  0  0
 27 28  1  0  0  0  0
 28 19  2  0  0  0  0
 29 30  2  0  0  0  0
 29 31  2  0  0  0  0
 32 33  1  0  0  0  0
 32 14  1  0  0  0  0
 33 34  1  0  0  0  0
M  END
>  <MODEL>
6

>  <REMARK>
 VINA RESULT:      -8.5      4.060      6.139
  Name = 
  4 active torsions:
  status: ('A' for Active; 'I' for Inactive)
    1  A    between atoms: O_3  and  C_13
    2  A    between atoms: O_3  and  C_25
    3  A    between atoms: C_7  and  N_11
    4  A    between atoms: C_18  and  C_30
                            x       y       z     vdW  Elec       q    Type
                         _______ _______ _______ _____ _____    ______ ____

>  <TORSDO>
F 4

$$$$
=
 OpenBabel10262423263D

 34 39  0  0  0  0  0  0  0  0999 V2000
  182.2620  177.7410  139.3860 C   0  0  0  0  0  0  0  0  0  0  0  0
  182.4790  177.3330  135.7130 C   0  0  0  0  0  3  0  0  0  0  0  0
  180.1570  177.3550  137.0650 S   0  0  0  0  0  0  0  0  0  0  0  0
  181.7780  179.4570  141.5260 N   0  0  0  0  0  0  0  0  0  0  0  0
  183.0600  177.7070  140.5410 C   0  0  0  0  0  3  0  0  0  0  0  0
  180.9790  179.5260  140.4310 C   0  0  0  0  0  0  0  0  0  0  0  0
  179.1730  180.5650  139.2670 N   0  0  0  0  0  0  0  0  0  0  0  0
  179.9820  180.5000  140.3560 C   0  0  0  0  0  3  0  0  0  0  0  0
  182.7930  178.5540  141.6240 C   0  0  0  0  0  0  0  0  0  0  0  0
  180.2550  178.6780  138.2730 C   0  0  0  0  0  0  0  0  0  0  0  0
  181.1580  178.6270  139.3570 C   0  0  0  0  0  0  0  0  0  0  0  0
  179.2790  179.6760  138.2440 C   0  0  0  0  0  3  0  0  0  0  0  0
  183.9480  177.2280  135.4850 C   0  0  0  0  0  2  0  0  0  0  0  0
  184.4370  175.8630  135.8520 C   0  0  0  0  0  0  0  0  0  0  0  0
  184.3680  175.4240  137.1170 C   0  0  0  0  0  3  0  0  0  0  0  0
  181.9260  177.2180  136.9200 C   0  0  0  0  0  0  0  0  0  0  0  0
  183.7490  176.1600  138.2380 C   0  0  0  0  0  3  0  0  0  0  0  0
  182.6930  176.9930  138.1690 C   0  0  0  0  0  0  0  0  0  0  0  0
  183.9100  178.8990  145.2310 C   0  0  0  0  0  3  0  0  0  0  0  0
  184.9460  178.0350  142.7750 C   0  0  0  0  0  3  0  0  0  0  0  0
  187.3350  177.9050  146.2340 C   0  0  0  0  0  0  0  0  0  0  0  0
  186.0180  178.3810  146.3050 C   0  0  0  0  0  3  0  0  0  0  0  0
  185.2210  178.4250  145.1580 C   0  0  0  0  0  0  0  0  0  0  0  0
  187.0550  177.5160  143.8480 C   0  0  0  0  0  3  0  0  0  0  0  0
  185.7430  177.9900  143.9210 C   0  0  0  0  0  0  0  0  0  0  0  0
  187.8470  177.4750  144.9990 C   0  0  0  0  0  3  0  0  0  0  0  0
  183.6270  178.5100  142.8430 C   0  0  0  0  0  0  0  0  0  0  0  0
  183.1180  178.9410  144.0800 C   0  0  0  0  0  3  0  0  0  0  0  0
  188.1500  177.8610  147.4140 N   0  0  0  0  0  0  0  0  0  0  0  0
  187.8720  178.5690  148.4040 O   0  0  0  0  0  0  0  0  0  0  0  0
  189.2480  177.0340  147.4680 O   0  0  0  0  0  0  0  0  0  0  0  0
  184.9980  175.0740  134.8420 O   0  0  0  0  0  0  0  0  0  0  0  0
  185.9970  174.0920  135.0880 C   0  0  0  0  0  2  0  0  0  0  0  0
  187.3670  174.7120  134.9180 C   0  0  0  0  0  1  0  0  0  0  0  0
  1  5  1  0  0  0  0
  2 16  2  0  0  0  0
  3 10  1  0  0  0  0
  4  9  1  0  0  0  0
  5  9  2  0  0  0  0
  6  4  2  0  0  0  0
  7  8  2  0  0  0  0
  8  6  1  0  0  0  0
  9 27  1  0  0  0  0
 10 11  1  0  0  0  0
 11  1  2  0  0  0  0
 11  6  1  0  0  0  0
 12 10  2  0  0  0  0
 12  7  1  0  0  0  0
 13  2  1  0  0  0  0
 13 14  1  0  0  0  0
 14 15  2  0  0  0  0
 15 17  1  0  0  0  0
 16  3  1  0  0  0  0
 16 18  1  0  0  0  0
 18 17  2  0  0  0  0
 18  1  1  0  0  0  0
 20 27  2  0  0  0  0
 20 25  1  0  0  0  0
 21 22  1  0  0  0  0
 21 29  1  0  0  0  0
 23 19  1  0  0  0  0
 23 22  2  0  0  0  0
 24 25  2  0  0  0  0
 24 26  1  0  0  0  0
 25 23  1  0  0  0  0
 26 21  2  0  0  0  0
 27 28  1  0  0  0  0
 28 19  2  0  0  0  0
 29 31  2  0  0  0  0
 29 30  2  0  0  0  0
 32 33  1  0  0  0  0
 32 14  1  0  0  0  0
 34 33  1  0  0  0  0
M  END
>  <MODEL>
7

>  <REMARK>
 VINA RESULT:      -8.4      4.568      7.865
  Name = 
  4 active torsions:
  status: ('A' for Active; 'I' for Inactive)
    1  A    between atoms: O_3  and  C_13
    2  A    between atoms: O_3  and  C_25
    3  A    between atoms: C_7  and  N_11
    4  A    between atoms: C_18  and  C_30
                            x       y       z     vdW  Elec       q    Type
                         _______ _______ _______ _____ _____    ______ ____

>  <TORSDO>
F 4

$$$$
=
 OpenBabel10262423263D

 34 39  0  0  0  0  0  0  0  0999 V2000
  182.1360  178.2200  141.1560 C   0  0  0  0  0  0  0  0  0  0  0  0
  180.1910  179.2770  138.1880 C   0  0  0  0  0  3  0  0  0  0  0  0
  179.0980  178.0490  140.3130 S   0  0  0  0  0  0  0  0  0  0  0  0
  182.8950  178.7780  143.7770 N   0  0  0  0  0  0  0  0  0  0  0  0
  183.4580  178.0260  141.5870 C   0  0  0  0  0  3  0  0  0  0  0  0
  181.6040  178.9790  143.4060 C   0  0  0  0  0  0  0  0  0  0  0  0
  179.4030  179.7260  143.9490 N   0  0  0  0  0  0  0  0  0  0  0  0
  180.6980  179.5330  144.3120 C   0  0  0  0  0  3  0  0  0  0  0  0
  183.8250  178.2830  142.9140 C   0  0  0  0  0  0  0  0  0  0  0  0
  179.8070  178.7940  141.7830 C   0  0  0  0  0  0  0  0  0  0  0  0
  181.1740  178.6450  142.1040 C   0  0  0  0  0  0  0  0  0  0  0  0
  178.9430  179.3590  142.7230 C   0  0  0  0  0  3  0  0  0  0  0  0
  181.2550  179.7450  137.2540 C   0  0  0  0  0  2  0  0  0  0  0  0
  181.9420  178.5780  136.6200 C   0  0  0  0  0  0  0  0  0  0  0  0
  182.6490  177.7100  137.3570 C   0  0  0  0  0  3  0  0  0  0  0  0
  180.4540  178.5560  139.2770 C   0  0  0  0  0  0  0  0  0  0  0  0
  182.7600  177.7420  138.8300 C   0  0  0  0  0  3  0  0  0  0  0  0
  181.8170  178.1520  139.7000 C   0  0  0  0  0  0  0  0  0  0  0  0
  187.5800  177.7570  142.8790 C   0  0  0  0  0  3  0  0  0  0  0  0
  185.4960  177.9700  144.7410 C   0  0  0  0  0  3  0  0  0  0  0  0
  189.4450  177.3560  146.0560 C   0  0  0  0  0  0  0  0  0  0  0  0
  189.1660  177.4550  144.6850 C   0  0  0  0  0  3  0  0  0  0  0  0
  187.8560  177.6590  144.2440 C   0  0  0  0  0  0  0  0  0  0  0  0
  187.0820  177.6680  146.5480 C   0  0  0  0  0  3  0  0  0  0  0  0
  186.8060  177.7660  145.1830 C   0  0  0  0  0  0  0  0  0  0  0  0
  188.3940  177.4630  146.9820 C   0  0  0  0  0  3  0  0  0  0  0  0
  185.2150  178.0690  143.3700 C   0  0  0  0  0  0  0  0  0  0  0  0
  186.2670  177.9610  142.4450 C   0  0  0  0  0  3  0  0  0  0  0  0
  190.7910  177.1480  146.5040 N   0  0  0  0  0  0  0  0  0  0  0  0
  191.7570  177.5050  145.7990 O   0  0  0  0  0  0  0  0  0  0  0  0
  191.0330  176.5510  147.7200 O   0  0  0  0  0  0  0  0  0  0  0  0
  181.8530  178.4410  135.2300 O   0  0  0  0  0  0  0  0  0  0  0  0
  180.9900  177.5060  134.5950 C   0  0  0  0  0  2  0  0  0  0  0  0
  179.5590  177.9890  134.6970 C   0  0  0  0  0  1  0  0  0  0  0  0
  1  5  2  0  0  0  0
  1 11  1  0  0  0  0
  2 16  2  0  0  0  0
  3 10  1  0  0  0  0
  5  9  1  0  0  0  0
  6  4  1  0  0  0  0
  6  8  1  0  0  0  0
  7  8  2  0  0  0  0
  9 27  1  0  0  0  0
  9  4  2  0  0  0  0
 10 11  1  0  0  0  0
 10 12  2  0  0  0  0
 11  6  2  0  0  0  0
 12  7  1  0  0  0  0
 13  2  1  0  0  0  0
 14 13  1  0  0  0  0
 14 15  2  0  0  0  0
 15 17  1  0  0  0  0
 16 18  1  0  0  0  0
 16  3  1  0  0  0  0
 17 18  2  0  0  0  0
 18  1  1  0  0  0  0
 19 23  1  0  0  0  0
 20 25  1  0  0  0  0
 21 29  1  0  0  0  0
 21 26  1  0  0  0  0
 22 21  2  0  0  0  0
 23 22  1  0  0  0  0
 23 25  2  0  0  0  0
 24 26  2  0  0  0  0
 25 24  1  0  0  0  0
 27 20  2  0  0  0  0
 28 19  2  0  0  0  0
 28 27  1  0  0  0  0
 29 31  2  0  0  0  0
 30 29  2  0  0  0  0
 32 14  1  0  0  0  0
 33 34  1  0  0  0  0
 33 32  1  0  0  0  0
M  END
>  <MODEL>
8

>  <REMARK>
 VINA RESULT:      -8.4      4.709      8.723
  Name = 
  4 active torsions:
  status: ('A' for Active; 'I' for Inactive)
    1  A    between atoms: O_3  and  C_13
    2  A    between atoms: O_3  and  C_25
    3  A    between atoms: C_7  and  N_11
    4  A    between atoms: C_18  and  C_30
                            x       y       z     vdW  Elec       q    Type
                         _______ _______ _______ _____ _____    ______ ____

>  <TORSDO>
F 4

$$$$
=
 OpenBabel10262423263D

 34 39  0  0  0  0  0  0  0  0999 V2000
  187.9230  178.0410  140.5860 C   0  0  0  0  0  0  0  0  0  0  0  0
  186.4560  177.7830  143.9750 C   0  0  0  0  0  3  0  0  0  0  0  0
  185.6810  179.6080  142.1630 S   0  0  0  0  0  0  0  0  0  0  0  0
  187.6660  177.4600  137.8740 N   0  0  0  0  0  0  0  0  0  0  0  0
  189.0200  177.5960  139.8300 C   0  0  0  0  0  3  0  0  0  0  0  0
  186.5770  177.8890  138.5630 C   0  0  0  0  0  0  0  0  0  0  0  0
  184.2460  178.3960  138.6130 N   0  0  0  0  0  0  0  0  0  0  0  0
  185.3350  177.9580  137.9310 C   0  0  0  0  0  3  0  0  0  0  0  0
  188.8880  177.3330  138.4610 C   0  0  0  0  0  0  0  0  0  0  0  0
  185.5530  178.7700  140.5820 C   0  0  0  0  0  0  0  0  0  0  0  0
  186.6890  178.2530  139.9230 C   0  0  0  0  0  0  0  0  0  0  0  0
  184.3320  178.8120  139.9050 C   0  0  0  0  0  3  0  0  0  0  0  0
  187.3170  176.7530  144.6230 C   0  0  0  0  0  2  0  0  0  0  0  0
  188.6250  177.3490  145.0320 C   0  0  0  0  0  0  0  0  0  0  0  0
  189.4830  177.8230  144.1170 C   0  0  0  0  0  3  0  0  0  0  0  0
  186.7890  178.3890  142.8360 C   0  0  0  0  0  0  0  0  0  0  0  0
  189.2190  177.8970  142.6650 C   0  0  0  0  0  3  0  0  0  0  0  0
  188.0280  178.1040  142.0730 C   0  0  0  0  0  0  0  0  0  0  0  0
  191.0700  176.3730  135.5110 C   0  0  0  0  0  3  0  0  0  0  0  0
  191.2350  176.4980  138.3060 C   0  0  0  0  0  3  0  0  0  0  0  0
  194.5380  175.1880  136.0540 C   0  0  0  0  0  0  0  0  0  0  0  0
  193.3500  175.5630  135.4100 C   0  0  0  0  0  3  0  0  0  0  0  0
  192.2510  176.0000  136.1540 C   0  0  0  0  0  0  0  0  0  0  0  0
  193.5160  175.6880  138.2060 C   0  0  0  0  0  3  0  0  0  0  0  0
  192.3340  176.0620  137.5630 C   0  0  0  0  0  0  0  0  0  0  0  0
  194.6110  175.2530  137.4560 C   0  0  0  0  0  3  0  0  0  0  0  0
  190.0460  176.8750  137.6640 C   0  0  0  0  0  0  0  0  0  0  0  0
  189.9730  176.8080  136.2620 C   0  0  0  0  0  3  0  0  0  0  0  0
  195.6640  174.7420  135.2870 N   0  0  0  0  0  0  0  0  0  0  0  0
  195.6950  173.5850  134.8180 O   0  0  0  0  0  0  0  0  0  0  0  0
  196.7250  175.5870  135.0560 O   0  0  0  0  0  0  0  0  0  0  0  0
  188.9410  177.3650  146.3950 O   0  0  0  0  0  0  0  0  0  0  0  0
  187.9610  177.4810  147.4190 C   0  0  0  0  0  2  0  0  0  0  0  0
  188.5390  178.2530  148.5860 C   0  0  0  0  0  1  0  0  0  0  0  0
  1 18  1  0  0  0  0
  2 13  1  0  0  0  0
  3 16  1  0  0  0  0
  4  9  2  0  0  0  0
  4  6  1  0  0  0  0
  5  1  2  0  0  0  0
  6 11  1  0  0  0  0
  7 12  2  0  0  0  0
  8  6  2  0  0  0  0
  8  7  1  0  0  0  0
  9  5  1  0  0  0  0
 10  3  1  0  0  0  0
 11 10  2  0  0  0  0
 11  1  1  0  0  0  0
 12 10  1  0  0  0  0
 13 14  1  0  0  0  0
 14 32  1  0  0  0  0
 15 14  2  0  0  0  0
 16  2  2  0  0  0  0
 17 15  1  0  0  0  0
 18 17  2  0  0  0  0
 18 16  1  0  0  0  0
 19 23  2  0  0  0  0
 19 28  1  0  0  0  0
 21 26  1  0  0  0  0
 22 21  2  0  0  0  0
 22 23  1  0  0  0  0
 23 25  1  0  0  0  0
 25 24  1  0  0  0  0
 25 20  2  0  0  0  0
 26 24  2  0  0  0  0
 27 20  1  0  0  0  0
 27  9  1  0  0  0  0
 28 27  2  0  0  0  0
 29 21  1  0  0  0  0
 30 29  2  0  0  0  0
 31 29  2  0  0  0  0
 32 33  1  0  0  0  0
 33 34  1  0  0  0  0
M  END
>  <MODEL>
9

>  <REMARK>
 VINA RESULT:      -7.9      4.222     10.542
  Name = 
  4 active torsions:
  status: ('A' for Active; 'I' for Inactive)
    1  A    between atoms: O_3  and  C_13
    2  A    between atoms: O_3  and  C_25
    3  A    between atoms: C_7  and  N_11
    4  A    between atoms: C_18  and  C_30
                            x       y       z     vdW  Elec       q    Type
                         _______ _______ _______ _____ _____    ______ ____

>  <TORSDO>
F 4

$$$$
