=
 OpenBabel10262419473D

 25 28  0  0  1  0  0  0  0  0999 V2000
  187.7540  176.7720  143.3150 C   0  0  0  0  0  0  0  0  0  0  0  0
  188.8070  177.2640  142.4610 N   0  0  0  0  0  0  0  0  0  0  0  0
  190.8510  176.3170  144.8260 C   0  0  1  0  0  3  0  0  0  0  0  0
  190.9770  178.6790  144.0450 C   0  0  2  0  0  3  0  0  0  0  0  0
  190.6060  175.5330  142.4640 C   0  0  0  0  0  2  0  0  0  0  0  0
  191.6440  177.7670  143.0760 C   0  0  0  0  0  0  0  0  0  0  0  0
  192.2660  178.1580  142.1010 O   0  0  0  0  0  0  0  0  0  0  0  0
  190.6340  177.7650  145.2310 C   0  0  2  0  0  0  0  0  0  0  0  0
  189.0640  178.6870  142.2470 C   0  0  0  0  0  2  0  0  0  0  0  0
  187.7480  175.5510  143.6360 O   0  0  0  0  0  0  0  0  0  0  0  0
  191.4940  176.3260  143.4390 C   0  0  1  0  0  3  0  0  0  0  0  0
  191.7880  176.9640  145.8480 C   0  0  1  0  0  3  0  0  0  0  0  0
  189.7160  179.3590  143.4660 C   0  0  0  0  0  2  0  0  0  0  0  0
  189.5920  176.3440  141.6400 C   0  0  0  0  0  2  0  0  0  0  0  0
  189.3650  177.9910  146.0510 C   0  0  0  0  0  1  0  0  0  0  0  0
  186.6690  177.6480  143.8230 C   0  0  0  0  0  0  0  0  0  0  0  0
  184.6630  179.3550  144.8100 C   0  0  0  0  0  3  0  0  0  0  0  0
  185.8150  178.3370  142.9370 C   0  0  0  0  0  0  0  0  0  0  0  0
  184.8160  179.1790  143.4340 C   0  0  0  0  0  3  0  0  0  0  0  0
  185.5110  178.6890  145.6950 C   0  0  0  0  0  3  0  0  0  0  0  0
  185.9270  178.1800  141.5930 F   0  0  0  0  0  0  0  0  0  0  0  0
  186.5100  177.8450  145.2040 C   0  0  0  0  0  3  0  0  0  0  0  0
  191.5020  176.4450  147.2250 C   0  0  0  0  0  0  0  0  0  0  0  0
  190.8190  175.2480  147.4000 O   0  0  0  0  0  0  0  0  0  0  0  0
  191.9200  177.0750  148.2320 O   0  0  0  0  0  1  0  0  0  0  0  0
  1 10  2  0  0  0  0
  1 16  1  0  0  0  0
  2  1  1  0  0  0  0
  3  8  1  0  0  0  0
  3 12  1  0  0  0  0
  4  8  1  0  0  0  0
  5 11  1  0  0  0  0
  6 11  1  0  0  0  0
  6  4  1  0  0  0  0
  7  6  2  0  0  0  0
  8 12  1  0  0  0  0
  8 15  1  0  0  0  0
  9  2  1  0  0  0  0
  9 13  1  0  0  0  0
 11  3  1  0  0  0  0
 12 23  1  0  0  0  0
 13  4  1  0  0  0  0
 14  2  1  0  0  0  0
 14  5  1  0  0  0  0
 16 22  1  0  0  0  0
 17 20  1  0  0  0  0
 18 19  1  0  0  0  0
 18 16  2  0  0  0  0
 19 17  2  0  0  0  0
 21 18  1  0  0  0  0
 22 20  2  0  0  0  0
 23 24  2  0  0  0  0
 23 25  1  0  0  0  0
M  END
>  <MODEL>
1

>  <REMARK>
 VINA RESULT:      -7.2      0.000      0.000
  Name = 
  2 active torsions:
  status: ('A' for Active; 'I' for Inactive)
    1  A    between atoms: C_1  and  C_5
    2  A    between atoms: C_2  and  C_21
                            x       y       z     vdW  Elec       q    Type
                         _______ _______ _______ _____ _____    ______ ____

>  <TORSDO>
F 2

$$$$
=
 OpenBabel10262419473D

 25 28  0  0  1  0  0  0  0  0999 V2000
  187.7020  176.8060  143.2200 C   0  0  0  0  0  0  0  0  0  0  0  0
  188.7940  177.2160  142.3690 N   0  0  0  0  0  0  0  0  0  0  0  0
  190.7370  176.4020  144.8640 C   0  0  1  0  0  3  0  0  0  0  0  0
  190.9400  178.6990  143.9230 C   0  0  2  0  0  3  0  0  0  0  0  0
  190.5540  175.4550  142.5570 C   0  0  0  0  0  2  0  0  0  0  0  0
  191.6190  177.7070  143.0450 C   0  0  0  0  0  0  0  0  0  0  0  0
  192.2810  178.0150  142.0660 O   0  0  0  0  0  0  0  0  0  0  0  0
  190.5380  177.8790  145.1580 C   0  0  2  0  0  0  0  0  0  0  0  0
  189.0870  178.6150  142.0640 C   0  0  0  0  0  2  0  0  0  0  0  0
  187.6590  175.6120  143.6260 O   0  0  0  0  0  0  0  0  0  0  0  0
  191.4260  176.2990  143.5030 C   0  0  1  0  0  3  0  0  0  0  0  0
  191.6540  177.1020  145.8700 C   0  0  1  0  0  3  0  0  0  0  0  0
  189.7130  179.3590  143.2540 C   0  0  0  0  0  2  0  0  0  0  0  0
  189.5850  176.2240  141.6430 C   0  0  0  0  0  2  0  0  0  0  0  0
  189.2480  178.1870  145.9160 C   0  0  0  0  0  1  0  0  0  0  0  0
  186.6210  177.7370  143.6270 C   0  0  0  0  0  0  0  0  0  0  0  0
  184.5240  179.4630  144.3580 C   0  0  0  0  0  3  0  0  0  0  0  0
  186.1590  177.7780  144.9590 C   0  0  0  0  0  0  0  0  0  0  0  0
  185.1200  178.6430  145.3170 C   0  0  0  0  0  3  0  0  0  0  0  0
  184.9640  179.4200  143.0350 C   0  0  0  0  0  3  0  0  0  0  0  0
  186.7240  177.0050  145.9200 F   0  0  0  0  0  0  0  0  0  0  0  0
  186.0020  178.5600  142.6720 C   0  0  0  0  0  3  0  0  0  0  0  0
  191.3110  176.6890  147.2700 C   0  0  0  0  0  0  0  0  0  0  0  0
  190.3810  175.6830  147.5000 O   0  0  0  0  0  0  0  0  0  0  0  0
  191.9020  177.2260  148.2440 O   0  0  0  0  0  1  0  0  0  0  0  0
  1 10  2  0  0  0  0
  1 16  1  0  0  0  0
  2  1  1  0  0  0  0
  3  8  1  0  0  0  0
  3 12  1  0  0  0  0
  4  8  1  0  0  0  0
  5 11  1  0  0  0  0
  6 11  1  0  0  0  0
  6  4  1  0  0  0  0
  7  6  2  0  0  0  0
  8 12  1  0  0  0  0
  8 15  1  0  0  0  0
  9  2  1  0  0  0  0
  9 13  1  0  0  0  0
 11  3  1  0  0  0  0
 12 23  1  0  0  0  0
 13  4  1  0  0  0  0
 14  2  1  0  0  0  0
 14  5  1  0  0  0  0
 16 18  1  0  0  0  0
 17 19  1  0  0  0  0
 18 19  2  0  0  0  0
 18 21  1  0  0  0  0
 20 17  2  0  0  0  0
 22 20  1  0  0  0  0
 22 16  2  0  0  0  0
 23 24  2  0  0  0  0
 23 25  1  0  0  0  0
M  END
>  <MODEL>
2

>  <REMARK>
 VINA RESULT:      -6.8      0.954      1.348
  Name = 
  2 active torsions:
  status: ('A' for Active; 'I' for Inactive)
    1  A    between atoms: C_1  and  C_5
    2  A    between atoms: C_2  and  C_21
                            x       y       z     vdW  Elec       q    Type
                         _______ _______ _______ _____ _____    ______ ____

>  <TORSDO>
F 2

$$$$
=
 OpenBabel10262419473D

 25 28  0  0  1  0  0  0  0  0999 V2000
  183.7600  179.3670  138.9470 C   0  0  0  0  0  0  0  0  0  0  0  0
  182.9860  178.3630  138.2570 N   0  0  0  0  0  0  0  0  0  0  0  0
  180.5330  179.2340  140.2290 C   0  0  1  0  0  3  0  0  0  0  0  0
  181.1800  176.8300  140.1570 C   0  0  2  0  0  3  0  0  0  0  0  0
  180.7690  179.3890  137.7440 C   0  0  0  0  0  2  0  0  0  0  0  0
  180.3740  177.1950  138.9600 C   0  0  0  0  0  0  0  0  0  0  0  0
  179.9920  176.3840  138.1310 O   0  0  0  0  0  0  0  0  0  0  0  0
  181.1230  178.0880  141.0350 C   0  0  2  0  0  0  0  0  0  0  0  0
  183.1800  176.9280  138.4570 C   0  0  0  0  0  2  0  0  0  0  0  0
  183.3780  180.5690  138.9050 O   0  0  0  0  0  0  0  0  0  0  0  0
  180.0600  178.6530  138.8960 C   0  0  1  0  0  3  0  0  0  0  0  0
  179.7300  178.6300  141.3840 C   0  0  1  0  0  3  0  0  0  0  0  0
  182.6360  176.4420  139.8110 C   0  0  0  0  0  2  0  0  0  0  0  0
  182.0510  178.7400  137.1990 C   0  0  0  0  0  2  0  0  0  0  0  0
  182.3150  178.4950  141.8990 C   0  0  0  0  0  1  0  0  0  0  0  0
  184.9980  179.0390  139.6960 C   0  0  0  0  0  0  0  0  0  0  0  0
  187.3100  178.3610  141.1470 C   0  0  0  0  0  3  0  0  0  0  0  0
  186.1430  178.5530  139.0310 C   0  0  0  0  0  0  0  0  0  0  0  0
  187.2920  178.2230  139.7580 C   0  0  0  0  0  3  0  0  0  0  0  0
  186.1790  178.8280  141.8150 C   0  0  0  0  0  3  0  0  0  0  0  0
  186.1650  178.4180  137.6820 F   0  0  0  0  0  0  0  0  0  0  0  0
  185.0290  179.1610  141.0940 C   0  0  0  0  0  3  0  0  0  0  0  0
  179.7150  179.5630  142.5580 C   0  0  0  0  0  0  0  0  0  0  0  0
  179.8780  180.9300  142.3740 O   0  0  0  0  0  0  0  0  0  0  0  0
  179.5090  179.1100  143.7150 O   0  0  0  0  0  1  0  0  0  0  0  0
  1 16  1  0  0  0  0
  2  9  1  0  0  0  0
  2  1  1  0  0  0  0
  3  8  1  0  0  0  0
  3 12  1  0  0  0  0
  4  8  1  0  0  0  0
  5 11  1  0  0  0  0
  6  4  1  0  0  0  0
  7  6  2  0  0  0  0
  8 12  1  0  0  0  0
  8 15  1  0  0  0  0
  9 13  1  0  0  0  0
 10  1  2  0  0  0  0
 11  6  1  0  0  0  0
 11  3  1  0  0  0  0
 12 23  1  0  0  0  0
 13  4  1  0  0  0  0
 14  5  1  0  0  0  0
 14  2  1  0  0  0  0
 16 22  1  0  0  0  0
 17 20  1  0  0  0  0
 18 16  2  0  0  0  0
 18 19  1  0  0  0  0
 19 17  2  0  0  0  0
 21 18  1  0  0  0  0
 22 20  2  0  0  0  0
 23 25  1  0  0  0  0
 24 23  2  0  0  0  0
M  END
>  <MODEL>
3

>  <REMARK>
 VINA RESULT:      -5.7      6.080      9.430
  Name = 
  2 active torsions:
  status: ('A' for Active; 'I' for Inactive)
    1  A    between atoms: C_1  and  C_5
    2  A    between atoms: C_2  and  C_21
                            x       y       z     vdW  Elec       q    Type
                         _______ _______ _______ _____ _____    ______ ____

>  <TORSDO>
F 2

$$$$
=
 OpenBabel10262419473D

 25 28  0  0  1  0  0  0  0  0999 V2000
  183.9590  178.5820  140.3620 C   0  0  0  0  0  0  0  0  0  0  0  0
  183.4410  177.4810  139.5870 N   0  0  0  0  0  0  0  0  0  0  0  0
  181.6920  179.7300  137.9910 C   0  0  1  0  0  3  0  0  0  0  0  0
  180.4780  177.8060  139.0040 C   0  0  2  0  0  3  0  0  0  0  0  0
  183.4970  178.1940  137.1950 C   0  0  0  0  0  2  0  0  0  0  0  0
  181.1480  177.3990  137.7390 C   0  0  0  0  0  0  0  0  0  0  0  0
  181.0080  176.3010  137.2240 O   0  0  0  0  0  0  0  0  0  0  0  0
  180.6880  179.3260  139.0580 C   0  0  2  0  0  0  0  0  0  0  0  0
  182.4780  176.5150  140.1140 C   0  0  0  0  0  2  0  0  0  0  0  0
  184.5910  179.5010  139.7720 O   0  0  0  0  0  0  0  0  0  0  0  0
  181.9860  178.4860  137.1520 C   0  0  1  0  0  3  0  0  0  0  0  0
  180.2240  180.1350  137.8390 C   0  0  1  0  0  3  0  0  0  0  0  0
  181.0650  177.1050  140.2510 C   0  0  0  0  0  2  0  0  0  0  0  0
  183.9740  177.1900  138.2580 C   0  0  0  0  0  2  0  0  0  0  0  0
  180.8870  180.0420  140.3920 C   0  0  0  0  0  1  0  0  0  0  0  0
  183.7830  178.6690  141.8330 C   0  0  0  0  0  0  0  0  0  0  0  0
  183.4070  178.7770  144.6180 C   0  0  0  0  0  3  0  0  0  0  0  0
  184.8460  178.3730  142.7110 C   0  0  0  0  0  0  0  0  0  0  0  0
  184.6540  178.4340  144.0950 C   0  0  0  0  0  3  0  0  0  0  0  0
  182.3450  179.0590  143.7580 C   0  0  0  0  0  3  0  0  0  0  0  0
  186.0760  178.0480  142.2380 F   0  0  0  0  0  0  0  0  0  0  0  0
  182.5320  179.0010  142.3760 C   0  0  0  0  0  3  0  0  0  0  0  0
  180.0520  181.6000  138.1100 C   0  0  0  0  0  0  0  0  0  0  0  0
  181.1080  182.4810  137.9140 O   0  0  0  0  0  0  0  0  0  0  0  0
  178.9310  182.0420  138.4740 O   0  0  0  0  0  1  0  0  0  0  0  0
  1 16  1  0  0  0  0
  2  9  1  0  0  0  0
  2  1  1  0  0  0  0
  3  8  1  0  0  0  0
  4  8  1  0  0  0  0
  4 13  1  0  0  0  0
  5 14  1  0  0  0  0
  6  4  1  0  0  0  0
  7  6  2  0  0  0  0
  8 15  1  0  0  0  0
  9 13  1  0  0  0  0
 10  1  2  0  0  0  0
 11  5  1  0  0  0  0
 11  6  1  0  0  0  0
 11  3  1  0  0  0  0
 12  3  1  0  0  0  0
 12 23  1  0  0  0  0
 12  8  1  0  0  0  0
 14  2  1  0  0  0  0
 16 22  2  0  0  0  0
 16 18  1  0  0  0  0
 18 19  2  0  0  0  0
 19 17  1  0  0  0  0
 20 17  2  0  0  0  0
 21 18  1  0  0  0  0
 22 20  1  0  0  0  0
 23 25  1  0  0  0  0
 24 23  2  0  0  0  0
M  END
>  <MODEL>
4

>  <REMARK>
 VINA RESULT:      -5.4      6.105      9.717
  Name = 
  2 active torsions:
  status: ('A' for Active; 'I' for Inactive)
    1  A    between atoms: C_1  and  C_5
    2  A    between atoms: C_2  and  C_21
                            x       y       z     vdW  Elec       q    Type
                         _______ _______ _______ _____ _____    ______ ____

>  <TORSDO>
F 2

$$$$
=
 OpenBabel10262419473D

 25 28  0  0  1  0  0  0  0  0999 V2000
  187.7980  177.0150  143.6280 C   0  0  0  0  0  0  0  0  0  0  0  0
  188.6340  177.7860  142.7390 N   0  0  0  0  0  0  0  0  0  0  0  0
  190.9700  175.6090  143.4290 C   0  0  1  0  0  3  0  0  0  0  0  0
  191.4750  178.0220  143.7860 C   0  0  2  0  0  3  0  0  0  0  0  0
  189.8230  176.1520  141.2730 C   0  0  0  0  0  2  0  0  0  0  0  0
  191.5510  177.6760  142.3400 C   0  0  0  0  0  0  0  0  0  0  0  0
  191.9290  178.4550  141.4800 O   0  0  0  0  0  0  0  0  0  0  0  0
  191.2770  176.6650  144.4770 C   0  0  2  0  0  0  0  0  0  0  0  0
  189.1810  179.0950  143.0910 C   0  0  0  0  0  2  0  0  0  0  0  0
  187.5660  175.8060  143.3540 O   0  0  0  0  0  0  0  0  0  0  0  0
  191.1420  176.2680  142.0590 C   0  0  1  0  0  3  0  0  0  0  0  0
  192.3080  175.5710  144.1700 C   0  0  1  0  0  3  0  0  0  0  0  0
  190.3250  179.0010  144.1140 C   0  0  0  0  0  2  0  0  0  0  0  0
  188.8600  177.3480  141.3630 C   0  0  0  0  0  2  0  0  0  0  0  0
  190.4230  176.5460  145.7390 C   0  0  0  0  0  1  0  0  0  0  0  0
  187.1900  177.5980  144.8500 C   0  0  0  0  0  0  0  0  0  0  0  0
  186.0930  178.7500  147.1700 C   0  0  0  0  0  3  0  0  0  0  0  0
  185.9840  178.3270  144.7860 C   0  0  0  0  0  0  0  0  0  0  0  0
  185.4410  178.8920  145.9440 C   0  0  0  0  0  3  0  0  0  0  0  0
  187.2940  178.0430  147.2410 C   0  0  0  0  0  3  0  0  0  0  0  0
  185.3160  178.4740  143.6140 F   0  0  0  0  0  0  0  0  0  0  0  0
  187.8400  177.4750  146.0890 C   0  0  0  0  0  3  0  0  0  0  0  0
  192.3250  174.4510  145.1660 C   0  0  0  0  0  0  0  0  0  0  0  0
  192.5350  174.7110  146.5150 O   0  0  0  0  0  1  0  0  0  0  0  0
  192.1050  173.2710  144.7860 O   0  0  0  0  0  0  0  0  0  0  0  0
  1 16  1  0  0  0  0
  2  9  1  0  0  0  0
  2  1  1  0  0  0  0
  3 12  1  0  0  0  0
  3  8  1  0  0  0  0
  4 13  1  0  0  0  0
  4  8  1  0  0  0  0
  5 14  1  0  0  0  0
  5 11  1  0  0  0  0
  6  4  1  0  0  0  0
  7  6  2  0  0  0  0
  8 15  1  0  0  0  0
  9 13  1  0  0  0  0
 10  1  2  0  0  0  0
 11  6  1  0  0  0  0
 11  3  1  0  0  0  0
 12  8  1  0  0  0  0
 12 23  1  0  0  0  0
 14  2  1  0  0  0  0
 16 22  1  0  0  0  0
 17 20  1  0  0  0  0
 18 16  2  0  0  0  0
 18 19  1  0  0  0  0
 19 17  2  0  0  0  0
 21 18  1  0  0  0  0
 22 20  2  0  0  0  0
 23 24  1  0  0  0  0
 25 23  2  0  0  0  0
M  END
>  <MODEL>
5

>  <REMARK>
 VINA RESULT:      -5.2      1.392      1.955
  Name = 
  2 active torsions:
  status: ('A' for Active; 'I' for Inactive)
    1  A    between atoms: C_1  and  C_5
    2  A    between atoms: C_2  and  C_21
                            x       y       z     vdW  Elec       q    Type
                         _______ _______ _______ _____ _____    ______ ____

>  <TORSDO>
F 2

$$$$
=
 OpenBabel10262419473D

 25 28  0  0  1  0  0  0  0  0999 V2000
  180.1040  179.1090  138.1390 C   0  0  0  0  0  0  0  0  0  0  0  0
  180.4920  177.7940  137.6880 N   0  0  0  0  0  0  0  0  0  0  0  0
  182.3980  177.7030  140.3390 C   0  0  1  0  0  3  0  0  0  0  0  0
  183.4530  177.2810  138.1230 C   0  0  2  0  0  3  0  0  0  0  0  0
  180.4320  176.3000  139.6870 C   0  0  0  0  0  2  0  0  0  0  0  0
  182.7110  176.0790  138.5900 C   0  0  0  0  0  0  0  0  0  0  0  0
  182.7310  175.0050  138.0090 O   0  0  0  0  0  0  0  0  0  0  0  0
  183.3900  178.2390  139.3210 C   0  0  2  0  0  0  0  0  0  0  0  0
  181.3750  177.5700  136.5440 C   0  0  0  0  0  2  0  0  0  0  0  0
  179.5440  179.2290  139.2630 O   0  0  0  0  0  0  0  0  0  0  0  0
  181.9620  176.3180  139.8590 C   0  0  1  0  0  3  0  0  0  0  0  0
  183.8920  177.7030  140.6680 C   0  0  1  0  0  3  0  0  0  0  0  0
  182.8400  177.9150  136.8530 C   0  0  0  0  0  2  0  0  0  0  0  0
  179.8940  176.5980  138.2780 C   0  0  0  0  0  2  0  0  0  0  0  0
  183.3000  179.7500  139.1110 C   0  0  0  0  0  1  0  0  0  0  0  0
  180.3310  180.3270  137.3220 C   0  0  0  0  0  0  0  0  0  0  0  0
  180.6910  182.6350  135.7540 C   0  0  0  0  0  3  0  0  0  0  0  0
  180.6140  181.5680  137.9290 C   0  0  0  0  0  0  0  0  0  0  0  0
  180.7980  182.7110  137.1440 C   0  0  0  0  0  3  0  0  0  0  0  0
  180.3980  181.4140  135.1450 C   0  0  0  0  0  3  0  0  0  0  0  0
  180.7370  181.6770  139.2760 F   0  0  0  0  0  0  0  0  0  0  0  0
  180.2160  180.2700  135.9240 C   0  0  0  0  0  3  0  0  0  0  0  0
  184.2100  178.7710  141.6700 C   0  0  0  0  0  0  0  0  0  0  0  0
  185.3810  179.5110  141.5640 O   0  0  0  0  0  0  0  0  0  0  0  0
  183.3900  179.0310  142.5900 O   0  0  0  0  0  1  0  0  0  0  0  0
  1 10  2  0  0  0  0
  2  1  1  0  0  0  0
  2 14  1  0  0  0  0
  3 12  1  0  0  0  0
  4  6  1  0  0  0  0
  4  8  1  0  0  0  0
  5 11  1  0  0  0  0
  6 11  1  0  0  0  0
  7  6  2  0  0  0  0
  8  3  1  0  0  0  0
  8 12  1  0  0  0  0
  9 13  1  0  0  0  0
  9  2  1  0  0  0  0
 11  3  1  0  0  0  0
 12 23  1  0  0  0  0
 13  4  1  0  0  0  0
 14  5  1  0  0  0  0
 15  8  1  0  0  0  0
 16 18  1  0  0  0  0
 16  1  1  0  0  0  0
 17 19  1  0  0  0  0
 18 21  1  0  0  0  0
 19 18  2  0  0  0  0
 20 17  2  0  0  0  0
 20 22  1  0  0  0  0
 22 16  2  0  0  0  0
 23 25  1  0  0  0  0
 24 23  2  0  0  0  0
M  END
>  <MODEL>
6

>  <REMARK>
 VINA RESULT:      -4.9      6.960      9.782
  Name = 
  2 active torsions:
  status: ('A' for Active; 'I' for Inactive)
    1  A    between atoms: C_1  and  C_5
    2  A    between atoms: C_2  and  C_21
                            x       y       z     vdW  Elec       q    Type
                         _______ _______ _______ _____ _____    ______ ____

>  <TORSDO>
F 2

$$$$
=
 OpenBabel10262419473D

 25 28  0  0  1  0  0  0  0  0999 V2000
  182.2430  177.6820  136.9910 C   0  0  0  0  0  0  0  0  0  0  0  0
  181.4020  176.5410  137.2620 N   0  0  0  0  0  0  0  0  0  0  0  0
  179.9110  178.4560  139.4480 C   0  0  1  0  0  3  0  0  0  0  0  0
  180.8000  176.2630  140.2250 C   0  0  2  0  0  3  0  0  0  0  0  0
  179.0540  177.3850  137.3560 C   0  0  0  0  0  2  0  0  0  0  0  0
  179.5220  176.0810  139.4830 C   0  0  0  0  0  0  0  0  0  0  0  0
  178.9460  175.0090  139.3860 O   0  0  0  0  0  0  0  0  0  0  0  0
  180.9400  177.7870  140.3430 C   0  0  2  0  0  0  0  0  0  0  0  0
  181.8620  175.3650  137.9970 C   0  0  0  0  0  2  0  0  0  0  0  0
  181.7130  178.7460  136.5670 O   0  0  0  0  0  0  0  0  0  0  0  0
  179.0080  177.3530  138.8950 C   0  0  1  0  0  3  0  0  0  0  0  0
  179.7630  178.5480  140.9680 C   0  0  1  0  0  3  0  0  0  0  0  0
  182.0130  175.6330  139.5040 C   0  0  0  0  0  2  0  0  0  0  0  0
  180.0650  176.4470  136.6780 C   0  0  0  0  0  2  0  0  0  0  0  0
  182.3150  178.4530  140.3020 C   0  0  0  0  0  1  0  0  0  0  0  0
  183.7140  177.6450  137.1810 C   0  0  0  0  0  0  0  0  0  0  0  0
  186.4930  177.5370  137.6030 C   0  0  0  0  0  3  0  0  0  0  0  0
  184.5440  176.9170  136.3040 C   0  0  0  0  0  0  0  0  0  0  0  0
  185.9260  176.8720  136.5160 C   0  0  0  0  0  3  0  0  0  0  0  0
  185.6800  178.2500  138.4850 C   0  0  0  0  0  3  0  0  0  0  0  0
  184.0280  176.2680  135.2300 F   0  0  0  0  0  0  0  0  0  0  0  0
  184.3000  178.3000  138.2770 C   0  0  0  0  0  3  0  0  0  0  0  0
  180.1120  179.9250  141.4480 C   0  0  0  0  0  0  0  0  0  0  0  0
  180.0540  181.0090  140.5810 O   0  0  0  0  0  0  0  0  0  0  0  0
  180.4180  180.1090  142.6550 O   0  0  0  0  0  1  0  0  0  0  0  0
  1 16  1  0  0  0  0
  1  2  1  0  0  0  0
  2  9  1  0  0  0  0
  3  8  1  0  0  0  0
  3 12  1  0  0  0  0
  4  8  1  0  0  0  0
  5 11  1  0  0  0  0
  6  4  1  0  0  0  0
  7  6  2  0  0  0  0
  8 12  1  0  0  0  0
  9 13  1  0  0  0  0
 10  1  2  0  0  0  0
 11  3  1  0  0  0  0
 11  6  1  0  0  0  0
 12 23  1  0  0  0  0
 13  4  1  0  0  0  0
 14  2  1  0  0  0  0
 14  5  1  0  0  0  0
 15  8  1  0  0  0  0
 16 22  1  0  0  0  0
 17 20  1  0  0  0  0
 18 19  1  0  0  0  0
 18 16  2  0  0  0  0
 19 17  2  0  0  0  0
 21 18  1  0  0  0  0
 22 20  2  0  0  0  0
 23 25  1  0  0  0  0
 24 23  2  0  0  0  0
M  END
>  <MODEL>
7

>  <REMARK>
 VINA RESULT:      -4.3      8.033     10.568
  Name = 
  2 active torsions:
  status: ('A' for Active; 'I' for Inactive)
    1  A    between atoms: C_1  and  C_5
    2  A    between atoms: C_2  and  C_21
                            x       y       z     vdW  Elec       q    Type
                         _______ _______ _______ _____ _____    ______ ____

>  <TORSDO>
F 2

$$$$
=
 OpenBabel10262419473D

 25 28  0  0  1  0  0  0  0  0999 V2000
  181.7120  180.0840  139.0680 C   0  0  0  0  0  0  0  0  0  0  0  0
  181.1540  178.9970  139.8360 N   0  0  0  0  0  0  0  0  0  0  0  0
  183.0150  177.0470  137.9920 C   0  0  1  0  0  3  0  0  0  0  0  0
  180.5720  176.5730  138.1030 C   0  0  2  0  0  3  0  0  0  0  0  0
  183.0550  177.5000  140.4510 C   0  0  0  0  0  2  0  0  0  0  0  0
  181.2580  176.0960  139.3350 C   0  0  0  0  0  0  0  0  0  0  0  0
  180.7010  175.4550  140.2110 O   0  0  0  0  0  0  0  0  0  0  0  0
  181.7240  177.0150  137.1890 C   0  0  2  0  0  0  0  0  0  0  0  0
  179.7810  178.5250  139.6710 C   0  0  0  0  0  2  0  0  0  0  0  0
  182.9590  180.2740  139.0940 O   0  0  0  0  0  0  0  0  0  0  0  0
  182.7050  176.4610  139.3700 C   0  0  1  0  0  3  0  0  0  0  0  0
  182.8250  175.9820  136.9090 C   0  0  1  0  0  3  0  0  0  0  0  0
  179.5820  177.7300  138.3710 C   0  0  0  0  0  2  0  0  0  0  0  0
  181.9070  178.4010  140.9370 C   0  0  0  0  0  2  0  0  0  0  0  0
  181.5610  178.2010  136.2400 C   0  0  0  0  0  1  0  0  0  0  0  0
  180.8690  180.9950  138.2540 C   0  0  0  0  0  0  0  0  0  0  0  0
  179.2390  182.6650  136.6850 C   0  0  0  0  0  3  0  0  0  0  0  0
  179.8950  181.8180  138.8580 C   0  0  0  0  0  0  0  0  0  0  0  0
  179.0910  182.6500  138.0720 C   0  0  0  0  0  3  0  0  0  0  0  0
  180.1900  181.8460  136.0770 C   0  0  0  0  0  3  0  0  0  0  0  0
  179.7330  181.8380  140.2050 F   0  0  0  0  0  0  0  0  0  0  0  0
  180.9970  181.0140  136.8560 C   0  0  0  0  0  3  0  0  0  0  0  0
  183.6660  176.2970  135.7090 C   0  0  0  0  0  0  0  0  0  0  0  0
  184.7820  177.1150  135.8250 O   0  0  0  0  0  1  0  0  0  0  0  0
  183.3850  175.7830  134.5940 O   0  0  0  0  0  0  0  0  0  0  0  0
  1 10  2  0  0  0  0
  1  2  1  0  0  0  0
  2 14  1  0  0  0  0
  3 11  1  0  0  0  0
  4 13  1  0  0  0  0
  4  6  1  0  0  0  0
  5 14  1  0  0  0  0
  6 11  1  0  0  0  0
  6  7  2  0  0  0  0
  8  3  1  0  0  0  0
  8  4  1  0  0  0  0
  9  2  1  0  0  0  0
 11  5  1  0  0  0  0
 12  8  1  0  0  0  0
 12  3  1  0  0  0  0
 13  9  1  0  0  0  0
 15  8  1  0  0  0  0
 16 18  1  0  0  0  0
 16  1  1  0  0  0  0
 17 19  1  0  0  0  0
 18 21  1  0  0  0  0
 19 18  2  0  0  0  0
 20 17  2  0  0  0  0
 20 22  1  0  0  0  0
 22 16  2  0  0  0  0
 23 24  1  0  0  0  0
 23 12  1  0  0  0  0
 25 23  2  0  0  0  0
M  END
>  <MODEL>
8

>  <REMARK>
 VINA RESULT:      -4.3      8.223     10.730
  Name = 
  2 active torsions:
  status: ('A' for Active; 'I' for Inactive)
    1  A    between atoms: C_1  and  C_5
    2  A    between atoms: C_2  and  C_21
                            x       y       z     vdW  Elec       q    Type
                         _______ _______ _______ _____ _____    ______ ____

>  <TORSDO>
F 2

$$$$
=
 OpenBabel10262419473D

 25 28  0  0  1  0  0  0  0  0999 V2000
  182.3120  175.9360  136.3000 C   0  0  0  0  0  0  0  0  0  0  0  0
  180.9950  176.2780  136.7800 N   0  0  0  0  0  0  0  0  0  0  0  0
  182.4700  178.6950  138.4080 C   0  0  1  0  0  3  0  0  0  0  0  0
  181.0410  177.1160  139.6980 C   0  0  2  0  0  3  0  0  0  0  0  0
  180.7720  178.7560  136.5720 C   0  0  0  0  0  2  0  0  0  0  0  0
  180.2040  178.0980  138.9570 C   0  0  0  0  0  0  0  0  0  0  0  0
  178.9910  178.1770  139.0760 O   0  0  0  0  0  0  0  0  0  0  0  0
  182.4750  177.6160  139.4780 C   0  0  2  0  0  0  0  0  0  0  0  0
  180.2800  175.4890  137.7820 C   0  0  0  0  0  2  0  0  0  0  0  0
  182.9560  176.7860  135.6240 O   0  0  0  0  0  0  0  0  0  0  0  0
  181.0080  178.9940  138.0740 C   0  0  1  0  0  3  0  0  0  0  0  0
  182.7700  179.0730  139.8600 C   0  0  1  0  0  3  0  0  0  0  0  0
  180.8600  175.6650  139.1950 C   0  0  0  0  0  2  0  0  0  0  0  0
  180.2400  177.3700  136.1700 C   0  0  0  0  0  2  0  0  0  0  0  0
  183.6380  176.6330  139.3540 C   0  0  0  0  0  1  0  0  0  0  0  0
  182.9350  174.6150  136.5630 C   0  0  0  0  0  0  0  0  0  0  0  0
  184.1000  172.1200  137.1330 C   0  0  0  0  0  3  0  0  0  0  0  0
  182.3350  173.4240  136.1060 C   0  0  0  0  0  0  0  0  0  0  0  0
  182.9230  172.1860  136.3870 C   0  0  0  0  0  3  0  0  0  0  0  0
  184.6950  173.2910  137.6010 C   0  0  0  0  0  3  0  0  0  0  0  0
  181.1970  173.4520  135.3670 F   0  0  0  0  0  0  0  0  0  0  0  0
  184.1130  174.5300  137.3220 C   0  0  0  0  0  3  0  0  0  0  0  0
  184.2280  179.3750  140.0340 C   0  0  0  0  0  0  0  0  0  0  0  0
  184.8400  179.2070  141.2690 O   0  0  0  0  0  1  0  0  0  0  0  0
  184.9140  179.7430  139.0440 O   0  0  0  0  0  0  0  0  0  0  0  0
  1 16  1  0  0  0  0
  1  2  1  0  0  0  0
  2  9  1  0  0  0  0
  3  8  1  0  0  0  0
  3 12  1  0  0  0  0
  5 11  1  0  0  0  0
  6  7  2  0  0  0  0
  6  4  1  0  0  0  0
  8  4  1  0  0  0  0
  8 12  1  0  0  0  0
  9 13  1  0  0  0  0
 10  1  2  0  0  0  0
 11  3  1  0  0  0  0
 11  6  1  0  0  0  0
 12 23  1  0  0  0  0
 13  4  1  0  0  0  0
 14  5  1  0  0  0  0
 14  2  1  0  0  0  0
 15  8  1  0  0  0  0
 16 22  1  0  0  0  0
 17 20  1  0  0  0  0
 18 19  1  0  0  0  0
 18 16  2  0  0  0  0
 19 17  2  0  0  0  0
 21 18  1  0  0  0  0
 22 20  2  0  0  0  0
 23 24  1  0  0  0  0
 25 23  2  0  0  0  0
M  END
>  <MODEL>
9

>  <REMARK>
 VINA RESULT:      -4.2      7.530     10.451
  Name = 
  2 active torsions:
  status: ('A' for Active; 'I' for Inactive)
    1  A    between atoms: C_1  and  C_5
    2  A    between atoms: C_2  and  C_21
                            x       y       z     vdW  Elec       q    Type
                         _______ _______ _______ _____ _____    ______ ____

>  <TORSDO>
F 2

$$$$
