=
 OpenBabel10262419313D

 31 35  0  0  1  0  0  0  0  0999 V2000
  184.7720  179.0010  145.5200 C   0  0  1  0  0  3  0  0  0  0  0  0
  188.1460  177.7230  144.2680 C   0  0  0  0  0  0  0  0  0  0  0  0
  188.9490  177.5010  145.4250 C   0  0  0  0  0  0  0  0  0  0  0  0
  186.7730  178.0110  139.1950 O   0  0  0  0  0  0  0  0  0  0  0  0
  187.9750  177.6370  139.2630 C   0  0  0  0  0  0  0  0  0  0  0  0
  189.2270  177.4730  147.7960 C   0  0  0  0  0  0  0  0  0  0  0  0
  186.7870  178.1650  144.3090 C   0  0  0  0  0  0  0  0  0  0  0  0
  184.0930  178.8510  144.2730 O   0  0  0  0  0  0  0  0  0  0  0  0
  188.4670  177.6820  146.6890 N   0  0  0  0  0  0  0  0  0  0  0  0
  187.9990  177.6980  141.8220 C   0  0  0  0  0  0  0  0  0  0  0  0
  184.0500  178.3890  146.5270 F   0  0  0  0  0  0  0  0  0  0  0  0
  190.8100  176.8800  144.0320 N   0  0  0  0  0  0  0  0  0  0  0  0
  188.6960  177.6690  149.0260 F   0  0  0  0  0  0  0  0  0  0  0  0
  186.7020  178.0870  141.9050 N   0  0  0  0  0  0  0  0  0  0  0  0
  188.7400  177.4990  142.9960 C   0  0  0  0  0  0  0  0  0  0  0  0
  188.6080  177.4750  140.5400 N   0  0  0  0  0  2  0  0  0  0  0  0
  186.1630  178.4390  145.4670 C   0  0  0  0  0  3  0  0  0  0  0  0
  190.5520  177.0550  147.6680 C   0  0  0  0  0  3  0  0  0  0  0  0
  186.0820  178.3160  143.0890 C   0  0  0  0  0  0  0  0  0  0  0  0
  184.7850  178.6340  143.0780 C   0  0  0  0  0  3  0  0  0  0  0  0
  190.0730  177.0800  142.9130 C   0  0  0  0  0  3  0  0  0  0  0  0
  190.2890  177.0760  145.2670 C   0  0  0  0  0  0  0  0  0  0  0  0
  191.0810  176.8570  146.3940 C   0  0  0  0  0  3  0  0  0  0  0  0
  190.2480  176.7530  135.7280 C   0  0  0  0  0  0  0  0  0  0  0  0
  189.5690  176.2240  137.9860 C   0  0  0  0  0  3  0  0  0  0  0  0
  187.8870  179.3370  136.8700 O   0  0  0  0  0  1  0  0  0  0  0  0
  190.9880  176.4530  134.5940 O   0  0  0  0  0  1  0  0  0  0  0  0
  190.3140  175.9210  136.8460 C   0  0  0  0  0  3  0  0  0  0  0  0
  188.6840  178.1980  136.8890 C   0  0  0  0  0  0  0  0  0  0  0  0
  188.7460  177.3610  138.0280 C   0  0  0  0  0  0  0  0  0  0  0  0
  189.4350  177.8880  135.7510 C   0  0  0  0  0  3  0  0  0  0  0  0
  1 11  1  1  0  0  0
  2  7  1  0  0  0  0
  2  3  1  0  0  0  0
  3  9  1  0  0  0  0
  4  5  2  0  0  0  0
  5 16  1  0  0  0  0
  6 13  1  0  0  0  0
  7 17  2  0  0  0  0
  8  1  1  0  0  0  0
  9  6  2  0  0  0  0
 10 14  2  0  0  0  0
 10 15  1  0  0  0  0
 12 22  1  0  0  0  0
 14 19  1  0  0  0  0
 15  2  2  0  0  0  0
 16 10  1  0  0  0  0
 17  1  1  0  0  0  0
 18  6  1  0  0  0  0
 19  7  1  0  0  0  0
 20 19  2  0  0  0  0
 20  8  1  0  0  0  0
 21 15  1  0  0  0  0
 21 12  2  0  0  0  0
 22  3  2  0  0  0  0
 22 23  1  0  0  0  0
 23 18  2  0  0  0  0
 24 31  2  0  0  0  0
 24 28  1  0  0  0  0
 25 30  1  0  0  0  0
 26 29  1  0  0  0  0
 27 24  1  0  0  0  0
 28 25  2  0  0  0  0
 29 30  2  0  0  0  0
 30  5  1  0  0  0  0
 31 29  1  0  0  0  0
M  END
>  <MODEL>
1

>  <REMARK>
 VINA RESULT:     -10.9      0.000      0.000
  Name = 
  1 active torsions:
  status: ('A' for Active; 'I' for Inactive)
    1  A    between atoms: C_9  and  C_22
                            x       y       z     vdW  Elec       q    Type
                         _______ _______ _______ _____ _____    ______ ____

>  <TORSDO>
F 1

$$$$
=
 OpenBabel10262419313D

 31 35  0  0  1  0  0  0  0  0999 V2000
  187.5930  178.3860  148.1820 C   0  0  1  0  0  3  0  0  0  0  0  0
  188.0150  177.4830  144.4950 C   0  0  0  0  0  0  0  0  0  0  0  0
  189.3450  176.9890  144.3490 C   0  0  0  0  0  0  0  0  0  0  0  0
  183.1440  178.9980  143.1990 O   0  0  0  0  0  0  0  0  0  0  0  0
  183.7400  178.6280  142.1510 C   0  0  0  0  0  0  0  0  0  0  0  0
  191.4580  176.3810  145.2820 C   0  0  0  0  0  0  0  0  0  0  0  0
  187.4440  177.8900  145.7400 C   0  0  0  0  0  0  0  0  0  0  0  0
  186.1750  178.5410  148.1260 O   0  0  0  0  0  0  0  0  0  0  0  0
  190.1880  176.8510  145.4130 N   0  0  0  0  0  0  0  0  0  0  0  0
  185.8970  178.0590  143.4070 C   0  0  0  0  0  0  0  0  0  0  0  0
  187.9340  177.5390  149.2190 F   0  0  0  0  0  0  0  0  0  0  0  0
  189.0100  176.7460  141.9790 N   0  0  0  0  0  0  0  0  0  0  0  0
  192.2510  176.2640  146.3730 F   0  0  0  0  0  0  0  0  0  0  0  0
  185.3820  178.4050  144.6130 N   0  0  0  0  0  0  0  0  0  0  0  0
  187.2140  177.5830  143.3250 C   0  0  0  0  0  0  0  0  0  0  0  0
  185.0960  178.1630  142.2190 N   0  0  0  0  0  2  0  0  0  0  0  0
  188.1460  177.8650  146.8860 C   0  0  0  0  0  3  0  0  0  0  0  0
  191.9430  176.0180  144.0260 C   0  0  0  0  0  3  0  0  0  0  0  0
  186.0970  178.3300  145.7620 C   0  0  0  0  0  0  0  0  0  0  0  0
  185.4890  178.6310  146.9120 C   0  0  0  0  0  3  0  0  0  0  0  0
  187.7420  177.2080  142.0840 C   0  0  0  0  0  3  0  0  0  0  0  0
  189.8130  176.6270  143.0650 C   0  0  0  0  0  0  0  0  0  0  0  0
  191.1130  176.1440  142.9140 C   0  0  0  0  0  3  0  0  0  0  0  0
  181.6550  178.7070  138.3970 C   0  0  0  0  0  0  0  0  0  0  0  0
  181.7500  178.1470  140.7460 C   0  0  0  0  0  3  0  0  0  0  0  0
  184.9300  179.7530  139.7130 O   0  0  0  0  0  1  0  0  0  0  0  0
  180.9680  178.7250  137.1920 O   0  0  0  0  0  1  0  0  0  0  0  0
  181.0570  178.1650  139.5350 C   0  0  0  0  0  3  0  0  0  0  0  0
  183.6470  179.2190  139.6820 C   0  0  0  0  0  0  0  0  0  0  0  0
  183.0490  178.6710  140.8410 C   0  0  0  0  0  0  0  0  0  0  0  0
  182.9470  179.2320  138.4720 C   0  0  0  0  0  3  0  0  0  0  0  0
  1 11  1  1  0  0  0
  2  7  1  0  0  0  0
  3  2  1  0  0  0  0
  3  9  1  0  0  0  0
  5 16  1  0  0  0  0
  5  4  2  0  0  0  0
  6  9  2  0  0  0  0
  6 13  1  0  0  0  0
  7 19  1  0  0  0  0
  7 17  2  0  0  0  0
  8  1  1  0  0  0  0
 10 14  2  0  0  0  0
 12 21  2  0  0  0  0
 12 22  1  0  0  0  0
 14 19  1  0  0  0  0
 15 10  1  0  0  0  0
 15  2  2  0  0  0  0
 16 10  1  0  0  0  0
 17  1  1  0  0  0  0
 18  6  1  0  0  0  0
 19 20  2  0  0  0  0
 20  8  1  0  0  0  0
 21 15  1  0  0  0  0
 22  3  2  0  0  0  0
 23 22  1  0  0  0  0
 23 18  2  0  0  0  0
 24 31  2  0  0  0  0
 24 28  1  0  0  0  0
 25 30  1  0  0  0  0
 27 24  1  0  0  0  0
 28 25  2  0  0  0  0
 29 26  1  0  0  0  0
 29 30  2  0  0  0  0
 30  5  1  0  0  0  0
 31 29  1  0  0  0  0
M  END
>  <MODEL>
2

>  <REMARK>
 VINA RESULT:     -10.9      3.410      5.022
  Name = 
  1 active torsions:
  status: ('A' for Active; 'I' for Inactive)
    1  A    between atoms: C_9  and  C_22
                            x       y       z     vdW  Elec       q    Type
                         _______ _______ _______ _____ _____    ______ ____

>  <TORSDO>
F 1

$$$$
=
 OpenBabel10262419313D

 31 35  0  0  1  0  0  0  0  0999 V2000
  190.7960  177.1440  141.1160 C   0  0  1  0  0  3  0  0  0  0  0  0
  187.5090  178.0100  142.8580 C   0  0  0  0  0  0  0  0  0  0  0  0
  187.7130  177.7700  144.2490 C   0  0  0  0  0  0  0  0  0  0  0  0
  185.0580  179.2850  138.3780 O   0  0  0  0  0  0  0  0  0  0  0  0
  184.2340  179.3870  139.3270 C   0  0  0  0  0  0  0  0  0  0  0  0
  189.1220  177.1450  146.0730 C   0  0  0  0  0  0  0  0  0  0  0  0
  188.5190  177.8470  141.8610 C   0  0  0  0  0  0  0  0  0  0  0  0
  190.4500  177.7340  139.8630 O   0  0  0  0  0  0  0  0  0  0  0  0
  188.9200  177.3740  144.7480 N   0  0  0  0  0  0  0  0  0  0  0  0
  185.9550  178.6780  141.0860 C   0  0  0  0  0  0  0  0  0  0  0  0
  192.0270  177.6120  141.5340 F   0  0  0  0  0  0  0  0  0  0  0  0
  185.4210  178.3450  144.6990 N   0  0  0  0  0  0  0  0  0  0  0  0
  190.3420  176.7530  146.5120 F   0  0  0  0  0  0  0  0  0  0  0  0
  186.9510  178.5430  140.1750 N   0  0  0  0  0  0  0  0  0  0  0  0
  186.2150  178.4250  142.4410 C   0  0  0  0  0  0  0  0  0  0  0  0
  184.6430  179.0940  140.6710 N   0  0  0  0  0  2  0  0  0  0  0  0
  189.7560  177.4170  142.1650 C   0  0  0  0  0  3  0  0  0  0  0  0
  188.0770  177.3130  146.9800 C   0  0  0  0  0  3  0  0  0  0  0  0
  188.2030  178.1500  140.5130 C   0  0  0  0  0  0  0  0  0  0  0  0
  189.1370  178.1050  139.5600 C   0  0  0  0  0  3  0  0  0  0  0  0
  185.1950  178.5820  143.3850 C   0  0  0  0  0  3  0  0  0  0  0  0
  186.6370  177.9500  145.1490 C   0  0  0  0  0  0  0  0  0  0  0  0
  186.8290  177.7180  146.5110 C   0  0  0  0  0  3  0  0  0  0  0  0
  180.2210  180.7030  138.5490 C   0  0  0  0  0  0  0  0  0  0  0  0
  182.5950  181.1370  138.6840 C   0  0  0  0  0  3  0  0  0  0  0  0
  181.9180  177.5970  139.5620 O   0  0  0  0  0  1  0  0  0  0  0  0
  178.9310  181.1450  138.2940 O   0  0  0  0  0  1  0  0  0  0  0  0
  181.2980  181.5830  138.4270 C   0  0  0  0  0  3  0  0  0  0  0  0
  181.7410  178.9240  139.1870 C   0  0  0  0  0  0  0  0  0  0  0  0
  182.8380  179.8080  139.0670 C   0  0  0  0  0  0  0  0  0  0  0  0
  180.4440  179.3790  138.9290 C   0  0  0  0  0  3  0  0  0  0  0  0
  1 11  1  1  0  0  0
  1 17  1  0  0  0  0
  2  3  1  0  0  0  0
  3  9  2  0  0  0  0
  3 22  1  0  0  0  0
  4  5  2  0  0  0  0
  5 16  1  0  0  0  0
  6 13  1  0  0  0  0
  6 18  2  0  0  0  0
  7 17  2  0  0  0  0
  7  2  1  0  0  0  0
  8  1  1  0  0  0  0
  9  6  1  0  0  0  0
 10 15  1  0  0  0  0
 12 22  1  0  0  0  0
 14 19  1  0  0  0  0
 14 10  2  0  0  0  0
 15  2  2  0  0  0  0
 15 21  1  0  0  0  0
 16 10  1  0  0  0  0
 19  7  1  0  0  0  0
 20  8  1  0  0  0  0
 20 19  2  0  0  0  0
 21 12  2  0  0  0  0
 22 23  2  0  0  0  0
 23 18  1  0  0  0  0
 24 31  1  0  0  0  0
 25 30  2  0  0  0  0
 27 24  1  0  0  0  0
 28 24  2  0  0  0  0
 28 25  1  0  0  0  0
 29 26  1  0  0  0  0
 30 29  1  0  0  0  0
 30  5  1  0  0  0  0
 31 29  2  0  0  0  0
M  END
>  <MODEL>
3

>  <REMARK>
 VINA RESULT:     -10.8      3.799      6.202
  Name = 
  1 active torsions:
  status: ('A' for Active; 'I' for Inactive)
    1  A    between atoms: C_9  and  C_22
                            x       y       z     vdW  Elec       q    Type
                         _______ _______ _______ _____ _____    ______ ____

>  <TORSDO>
F 1

$$$$
=
 OpenBabel10262419313D

 31 35  0  0  1  0  0  0  0  0999 V2000
  189.9800  177.1140  147.4080 C   0  0  1  0  0  3  0  0  0  0  0  0
  187.7420  177.7250  144.3740 C   0  0  0  0  0  0  0  0  0  0  0  0
  186.4480  178.0440  144.8840 C   0  0  0  0  0  0  0  0  0  0  0  0
  191.5710  176.7310  140.9020 O   0  0  0  0  0  0  0  0  0  0  0  0
  190.5050  176.9590  140.2680 C   0  0  0  0  0  0  0  0  0  0  0  0
  184.9700  178.4500  146.7140 C   0  0  0  0  0  0  0  0  0  0  0  0
  188.8840  177.4700  145.1940 C   0  0  0  0  0  0  0  0  0  0  0  0
  191.2080  177.1280  146.6810 O   0  0  0  0  0  0  0  0  0  0  0  0
  186.2000  178.1470  146.2220 N   0  0  0  0  0  0  0  0  0  0  0  0
  189.1470  177.3420  142.4040 C   0  0  0  0  0  0  0  0  0  0  0  0
  190.0590  177.9770  148.4840 F   0  0  0  0  0  0  0  0  0  0  0  0
  185.5830  178.1760  142.6430 N   0  0  0  0  0  0  0  0  0  0  0  0
  184.7810  178.5390  148.0520 F   0  0  0  0  0  0  0  0  0  0  0  0
  190.2140  177.1370  143.2160 N   0  0  0  0  0  0  0  0  0  0  0  0
  187.8970  177.6480  142.9640 C   0  0  0  0  0  0  0  0  0  0  0  0
  189.2950  177.2610  140.9770 N   0  0  0  0  0  2  0  0  0  0  0  0
  188.8140  177.4810  146.5360 C   0  0  0  0  0  3  0  0  0  0  0  0
  183.9030  178.6710  145.8440 C   0  0  0  0  0  3  0  0  0  0  0  0
  190.1260  177.1970  144.5670 C   0  0  0  0  0  0  0  0  0  0  0  0
  191.2410  177.0450  145.2860 C   0  0  0  0  0  3  0  0  0  0  0  0
  186.7990  177.8780  142.1270 C   0  0  0  0  0  3  0  0  0  0  0  0
  185.3830  178.2650  143.9800 C   0  0  0  0  0  0  0  0  0  0  0  0
  184.1150  178.5770  144.4700 C   0  0  0  0  0  3  0  0  0  0  0  0
  190.5240  176.7540  135.9780 C   0  0  0  0  0  0  0  0  0  0  0  0
  191.2090  175.9020  138.1340 C   0  0  0  0  0  3  0  0  0  0  0  0
  189.0540  178.8860  138.5940 O   0  0  0  0  0  1  0  0  0  0  0  0
  190.5410  176.6740  134.5940 O   0  0  0  0  0  1  0  0  0  0  0  0
  191.2260  175.8200  136.7410 C   0  0  0  0  0  3  0  0  0  0  0  0
  189.7820  177.8590  138.0060 C   0  0  0  0  0  0  0  0  0  0  0  0
  190.4910  176.9170  138.7870 C   0  0  0  0  0  0  0  0  0  0  0  0
  189.8050  177.7700  136.6110 C   0  0  0  0  0  3  0  0  0  0  0  0
  1 11  1  1  0  0  0
  2  3  1  0  0  0  0
  2  7  1  0  0  0  0
  3  9  1  0  0  0  0
  5  4  2  0  0  0  0
  5 16  1  0  0  0  0
  6 13  1  0  0  0  0
  7 17  2  0  0  0  0
  8  1  1  0  0  0  0
  9  6  2  0  0  0  0
 10 15  1  0  0  0  0
 10 14  2  0  0  0  0
 12 22  1  0  0  0  0
 14 19  1  0  0  0  0
 15  2  2  0  0  0  0
 16 10  1  0  0  0  0
 17  1  1  0  0  0  0
 18  6  1  0  0  0  0
 19  7  1  0  0  0  0
 19 20  2  0  0  0  0
 20  8  1  0  0  0  0
 21 12  2  0  0  0  0
 21 15  1  0  0  0  0
 22 23  1  0  0  0  0
 22  3  2  0  0  0  0
 23 18  2  0  0  0  0
 24 31  2  0  0  0  0
 24 28  1  0  0  0  0
 25 30  1  0  0  0  0
 27 24  1  0  0  0  0
 28 25  2  0  0  0  0
 29 26  1  0  0  0  0
 29 30  2  0  0  0  0
 30  5  1  0  0  0  0
 31 29  1  0  0  0  0
M  END
>  <MODEL>
4

>  <REMARK>
 VINA RESULT:     -10.6      2.069      4.064
  Name = 
  1 active torsions:
  status: ('A' for Active; 'I' for Inactive)
    1  A    between atoms: C_9  and  C_22
                            x       y       z     vdW  Elec       q    Type
                         _______ _______ _______ _____ _____    ______ ____

>  <TORSDO>
F 1

$$$$
=
 OpenBabel10262419313D

 31 35  0  0  1  0  0  0  0  0999 V2000
  191.2100  176.8350  142.7430 C   0  0  1  0  0  3  0  0  0  0  0  0
  187.8490  177.8280  144.2590 C   0  0  0  0  0  0  0  0  0  0  0  0
  188.0190  177.7990  145.6750 C   0  0  0  0  0  0  0  0  0  0  0  0
  185.4930  178.3610  139.5820 O   0  0  0  0  0  0  0  0  0  0  0  0
  184.6390  178.5700  140.4860 C   0  0  0  0  0  0  0  0  0  0  0  0
  189.3920  177.4910  147.6040 C   0  0  0  0  0  0  0  0  0  0  0  0
  188.8920  177.5590  143.3210 C   0  0  0  0  0  0  0  0  0  0  0  0
  190.8830  177.2260  141.4090 O   0  0  0  0  0  0  0  0  0  0  0  0
  189.2220  177.5210  146.2550 N   0  0  0  0  0  0  0  0  0  0  0  0
  186.3280  178.1810  142.3710 C   0  0  0  0  0  0  0  0  0  0  0  0
  192.4130  177.4010  143.1190 F   0  0  0  0  0  0  0  0  0  0  0  0
  185.6980  178.3530  145.9800 N   0  0  0  0  0  0  0  0  0  0  0  0
  190.6090  177.2090  148.1250 F   0  0  0  0  0  0  0  0  0  0  0  0
  187.3540  177.9510  141.5140 N   0  0  0  0  0  0  0  0  0  0  0  0
  186.5560  178.1350  143.7540 C   0  0  0  0  0  0  0  0  0  0  0  0
  185.0170  178.4870  141.8680 N   0  0  0  0  0  2  0  0  0  0  0  0
  190.1320  177.2210  143.7150 C   0  0  0  0  0  3  0  0  0  0  0  0
  188.3150  177.7530  148.4510 C   0  0  0  0  0  3  0  0  0  0  0  0
  188.6070  177.6540  141.9370 C   0  0  0  0  0  0  0  0  0  0  0  0
  189.5690  177.5040  141.0230 C   0  0  0  0  0  3  0  0  0  0  0  0
  185.5030  178.3910  144.6400 C   0  0  0  0  0  3  0  0  0  0  0  0
  186.9110  178.0690  146.5120 C   0  0  0  0  0  0  0  0  0  0  0  0
  187.0700  178.0430  147.8980 C   0  0  0  0  0  3  0  0  0  0  0  0
  180.5480  179.4480  139.5160 C   0  0  0  0  0  0  0  0  0  0  0  0
  182.2080  178.0850  140.6250 C   0  0  0  0  0  3  0  0  0  0  0  0
  183.8760  180.8510  138.8010 O   0  0  0  0  0  1  0  0  0  0  0  0
  179.2220  179.7180  139.2130 O   0  0  0  0  0  1  0  0  0  0  0  0
  180.8730  178.3550  140.3210 C   0  0  0  0  0  3  0  0  0  0  0  0
  182.9000  180.0060  139.3180 C   0  0  0  0  0  0  0  0  0  0  0  0
  183.2390  178.9010  140.1330 C   0  0  0  0  0  0  0  0  0  0  0  0
  181.5600  180.2700  139.0180 C   0  0  0  0  0  3  0  0  0  0  0  0
  1 11  1  1  0  0  0
  1 17  1  0  0  0  0
  2  3  1  0  0  0  0
  3  9  2  0  0  0  0
  3 22  1  0  0  0  0
  4  5  2  0  0  0  0
  5 16  1  0  0  0  0
  6 13  1  0  0  0  0
  6 18  2  0  0  0  0
  7 17  2  0  0  0  0
  7  2  1  0  0  0  0
  8  1  1  0  0  0  0
  9  6  1  0  0  0  0
 10 15  1  0  0  0  0
 12 22  1  0  0  0  0
 14 19  1  0  0  0  0
 14 10  2  0  0  0  0
 15  2  2  0  0  0  0
 15 21  1  0  0  0  0
 16 10  1  0  0  0  0
 19  7  1  0  0  0  0
 20  8  1  0  0  0  0
 20 19  2  0  0  0  0
 21 12  2  0  0  0  0
 22 23  2  0  0  0  0
 23 18  1  0  0  0  0
 24 28  1  0  0  0  0
 26 29  1  0  0  0  0
 27 24  1  0  0  0  0
 28 25  2  0  0  0  0
 29 30  2  0  0  0  0
 30  5  1  0  0  0  0
 30 25  1  0  0  0  0
 31 29  1  0  0  0  0
 31 24  2  0  0  0  0
M  END
>  <MODEL>
5

>  <REMARK>
 VINA RESULT:     -10.6      3.156      5.789
  Name = 
  1 active torsions:
  status: ('A' for Active; 'I' for Inactive)
    1  A    between atoms: C_9  and  C_22
                            x       y       z     vdW  Elec       q    Type
                         _______ _______ _______ _____ _____    ______ ____

>  <TORSDO>
F 1

$$$$
=
 OpenBabel10262419313D

 31 35  0  0  1  0  0  0  0  0999 V2000
  184.3860  179.1720  144.3380 C   0  0  1  0  0  3  0  0  0  0  0  0
  187.9140  177.7220  144.1340 C   0  0  0  0  0  0  0  0  0  0  0  0
  188.3760  177.5910  145.4770 C   0  0  0  0  0  0  0  0  0  0  0  0
  187.9330  177.5730  138.8730 O   0  0  0  0  0  0  0  0  0  0  0  0
  189.0580  177.1840  139.2880 C   0  0  0  0  0  0  0  0  0  0  0  0
  188.0210  177.7740  147.8310 C   0  0  0  0  0  0  0  0  0  0  0  0
  186.6120  178.1910  143.7770 C   0  0  0  0  0  0  0  0  0  0  0  0
  184.0530  178.9220  142.9730 O   0  0  0  0  0  0  0  0  0  0  0  0
  187.5870  177.8960  146.5480 N   0  0  0  0  0  0  0  0  0  0  0  0
  188.4120  177.4780  141.7480 C   0  0  0  0  0  0  0  0  0  0  0  0
  183.4010  178.6670  145.1640 F   0  0  0  0  0  0  0  0  0  0  0  0
  190.5090  176.8120  144.6830 N   0  0  0  0  0  0  0  0  0  0  0  0
  187.1950  178.0910  148.8560 F   0  0  0  0  0  0  0  0  0  0  0  0
  187.1560  177.8970  141.4520 N   0  0  0  0  0  0  0  0  0  0  0  0
  188.8110  177.3730  143.0890 C   0  0  0  0  0  0  0  0  0  0  0  0
  189.3270  177.1280  140.6960 N   0  0  0  0  0  2  0  0  0  0  0  0
  185.7180  178.5810  144.7020 C   0  0  0  0  0  3  0  0  0  0  0  0
  189.3140  177.3210  148.0930 C   0  0  0  0  0  3  0  0  0  0  0  0
  186.2580  178.2440  142.4060 C   0  0  0  0  0  0  0  0  0  0  0  0
  185.0240  178.5840  142.0260 C   0  0  0  0  0  3  0  0  0  0  0  0
  190.1000  176.9230  143.3960 C   0  0  0  0  0  3  0  0  0  0  0  0
  189.6910  177.1290  145.7160 C   0  0  0  0  0  0  0  0  0  0  0  0
  190.1500  176.9980  147.0270 C   0  0  0  0  0  3  0  0  0  0  0  0
  192.1880  176.0340  136.5810 C   0  0  0  0  0  0  0  0  0  0  0  0
  191.4470  176.7490  138.7670 C   0  0  0  0  0  3  0  0  0  0  0  0
  188.5300  176.4460  136.4950 O   0  0  0  0  0  1  0  0  0  0  0  0
  193.2100  175.6640  135.7200 O   0  0  0  0  0  1  0  0  0  0  0  0
  192.4760  176.3770  137.9020 C   0  0  0  0  0  3  0  0  0  0  0  0
  189.8300  176.4320  136.9870 C   0  0  0  0  0  0  0  0  0  0  0  0
  190.1130  176.7830  138.3280 C   0  0  0  0  0  0  0  0  0  0  0  0
  190.8680  176.0620  136.1270 C   0  0  0  0  0  3  0  0  0  0  0  0
  1 17  1  0  0  0  0
  1 11  1  1  0  0  0
  2  3  1  0  0  0  0
  3 22  2  0  0  0  0
  3  9  1  0  0  0  0
  4  5  2  0  0  0  0
  5 16  1  0  0  0  0
  6 18  1  0  0  0  0
  6 13  1  0  0  0  0
  7  2  1  0  0  0  0
  7 17  2  0  0  0  0
  8  1  1  0  0  0  0
  9  6  2  0  0  0  0
 10 15  1  0  0  0  0
 12 22  1  0  0  0  0
 14 10  2  0  0  0  0
 14 19  1  0  0  0  0
 15 21  1  0  0  0  0
 15  2  2  0  0  0  0
 16 10  1  0  0  0  0
 19  7  1  0  0  0  0
 20 19  2  0  0  0  0
 20  8  1  0  0  0  0
 21 12  2  0  0  0  0
 22 23  1  0  0  0  0
 23 18  2  0  0  0  0
 24 28  1  0  0  0  0
 26 29  1  0  0  0  0
 27 24  1  0  0  0  0
 28 25  2  0  0  0  0
 29 30  2  0  0  0  0
 30 25  1  0  0  0  0
 30  5  1  0  0  0  0
 31 24  2  0  0  0  0
 31 29  1  0  0  0  0
M  END
>  <MODEL>
6

>  <REMARK>
 VINA RESULT:     -10.5      1.294      1.458
  Name = 
  1 active torsions:
  status: ('A' for Active; 'I' for Inactive)
    1  A    between atoms: C_9  and  C_22
                            x       y       z     vdW  Elec       q    Type
                         _______ _______ _______ _____ _____    ______ ____

>  <TORSDO>
F 1

$$$$
=
 OpenBabel10262419313D

 31 35  0  0  1  0  0  0  0  0999 V2000
  187.6200  178.3690  148.1470 C   0  0  1  0  0  3  0  0  0  0  0  0
  187.9710  177.5440  144.4340 C   0  0  0  0  0  0  0  0  0  0  0  0
  189.3030  177.0650  144.2500 C   0  0  0  0  0  0  0  0  0  0  0  0
  183.0610  179.0410  143.2720 O   0  0  0  0  0  0  0  0  0  0  0  0
  183.6370  178.6970  142.2050 C   0  0  0  0  0  0  0  0  0  0  0  0
  191.4390  176.4580  145.1250 C   0  0  0  0  0  0  0  0  0  0  0  0
  187.4240  177.9210  145.6990 C   0  0  0  0  0  0  0  0  0  0  0  0
  186.2000  178.5130  148.1240 O   0  0  0  0  0  0  0  0  0  0  0  0
  190.1690  176.9130  145.2930 N   0  0  0  0  0  0  0  0  0  0  0  0
  185.8260  178.1230  143.4030 C   0  0  0  0  0  0  0  0  0  0  0  0
  187.9910  177.5050  149.1590 F   0  0  0  0  0  0  0  0  0  0  0  0
  188.9190  176.8660  141.8840 N   0  0  0  0  0  0  0  0  0  0  0  0
  192.2560  176.3260  146.1970 F   0  0  0  0  0  0  0  0  0  0  0  0
  185.3330  178.4400  144.6260 N   0  0  0  0  0  0  0  0  0  0  0  0
  187.1450  177.6610  143.2840 C   0  0  0  0  0  0  0  0  0  0  0  0
  184.9980  178.2430  142.2340 N   0  0  0  0  0  2  0  0  0  0  0  0
  188.1500  177.8800  146.8290 C   0  0  0  0  0  3  0  0  0  0  0  0
  191.9010  176.1240  143.8520 C   0  0  0  0  0  3  0  0  0  0  0  0
  186.0740  178.3490  145.7580 C   0  0  0  0  0  0  0  0  0  0  0  0
  185.4880  178.6210  146.9270 C   0  0  0  0  0  3  0  0  0  0  0  0
  187.6490  177.3150  142.0250 C   0  0  0  0  0  3  0  0  0  0  0  0
  189.7460  176.7330  142.9490 C   0  0  0  0  0  0  0  0  0  0  0  0
  191.0460  176.2650  142.7610 C   0  0  0  0  0  3  0  0  0  0  0  0
  181.6430  178.9040  138.4070 C   0  0  0  0  0  0  0  0  0  0  0  0
  183.6440  179.0760  139.7510 C   0  0  0  0  0  3  0  0  0  0  0  0
  180.7590  178.1960  141.9100 O   0  0  0  0  0  1  0  0  0  0  0  0
  181.0140  178.9740  137.1720 O   0  0  0  0  0  1  0  0  0  0  0  0
  183.0130  179.1470  138.5080 C   0  0  0  0  0  3  0  0  0  0  0  0
  181.5300  178.5140  140.7980 C   0  0  0  0  0  0  0  0  0  0  0  0
  182.9190  178.7600  140.9110 C   0  0  0  0  0  0  0  0  0  0  0  0
  180.9050  178.5880  139.5500 C   0  0  0  0  0  3  0  0  0  0  0  0
  1 11  1  1  0  0  0
  2  7  1  0  0  0  0
  3  2  1  0  0  0  0
  3  9  1  0  0  0  0
  5 16  1  0  0  0  0
  5  4  2  0  0  0  0
  6  9  2  0  0  0  0
  6 13  1  0  0  0  0
  7 19  1  0  0  0  0
  7 17  2  0  0  0  0
  8  1  1  0  0  0  0
 10 14  2  0  0  0  0
 12 21  2  0  0  0  0
 12 22  1  0  0  0  0
 14 19  1  0  0  0  0
 15 10  1  0  0  0  0
 15  2  2  0  0  0  0
 16 10  1  0  0  0  0
 17  1  1  0  0  0  0
 18  6  1  0  0  0  0
 19 20  2  0  0  0  0
 20  8  1  0  0  0  0
 21 15  1  0  0  0  0
 22  3  2  0  0  0  0
 23 22  1  0  0  0  0
 23 18  2  0  0  0  0
 24 28  2  0  0  0  0
 24 31  1  0  0  0  0
 25 30  2  0  0  0  0
 27 24  1  0  0  0  0
 28 25  1  0  0  0  0
 29 30  1  0  0  0  0
 29 26  1  0  0  0  0
 30  5  1  0  0  0  0
 31 29  2  0  0  0  0
M  END
>  <MODEL>
7

>  <REMARK>
 VINA RESULT:     -10.3      3.819      5.287
  Name = 
  1 active torsions:
  status: ('A' for Active; 'I' for Inactive)
    1  A    between atoms: C_9  and  C_22
                            x       y       z     vdW  Elec       q    Type
                         _______ _______ _______ _____ _____    ______ ____

>  <TORSDO>
F 1

$$$$
=
 OpenBabel10262419313D

 31 35  0  0  1  0  0  0  0  0999 V2000
  191.3810  176.9290  141.2730 C   0  0  1  0  0  3  0  0  0  0  0  0
  188.7540  177.3920  144.0060 C   0  0  0  0  0  0  0  0  0  0  0  0
  189.4080  177.1270  145.2460 C   0  0  0  0  0  0  0  0  0  0  0  0
  184.9090  178.5660  140.6090 O   0  0  0  0  0  0  0  0  0  0  0  0
  184.4230  178.5490  141.7720 C   0  0  0  0  0  0  0  0  0  0  0  0
  191.3710  176.5860  146.4930 C   0  0  0  0  0  0  0  0  0  0  0  0
  189.4060  177.3690  142.7350 C   0  0  0  0  0  0  0  0  0  0  0  0
  190.6060  177.5240  140.2320 O   0  0  0  0  0  0  0  0  0  0  0  0
  190.7400  176.8390  145.3160 N   0  0  0  0  0  0  0  0  0  0  0  0
  186.6670  177.9600  142.8560 C   0  0  0  0  0  0  0  0  0  0  0  0
  192.6350  177.5060  141.3160 F   0  0  0  0  0  0  0  0  0  0  0  0
  187.3360  177.4470  146.4250 N   0  0  0  0  0  0  0  0  0  0  0  0
  192.6960  176.3060  146.5030 F   0  0  0  0  0  0  0  0  0  0  0  0
  187.3300  177.9590  141.6720 N   0  0  0  0  0  0  0  0  0  0  0  0
  187.3640  177.6880  144.0420 C   0  0  0  0  0  0  0  0  0  0  0  0
  185.2610  178.2530  142.8990 N   0  0  0  0  0  2  0  0  0  0  0  0
  190.7080  177.0580  142.6100 C   0  0  0  0  0  3  0  0  0  0  0  0
  190.6560  176.6140  147.6910 C   0  0  0  0  0  3  0  0  0  0  0  0
  188.6540  177.6850  141.5770 C   0  0  0  0  0  0  0  0  0  0  0  0
  189.2380  177.7690  140.3790 C   0  0  0  0  0  3  0  0  0  0  0  0
  186.6860  177.7060  145.2660 C   0  0  0  0  0  3  0  0  0  0  0  0
  188.6610  177.1640  146.4460 C   0  0  0  0  0  0  0  0  0  0  0  0
  189.2940  176.9060  147.6620 C   0  0  0  0  0  3  0  0  0  0  0  0
  180.2710  179.3700  142.5010 C   0  0  0  0  0  0  0  0  0  0  0  0
  182.5010  178.9000  143.3050 C   0  0  0  0  0  3  0  0  0  0  0  0
  182.5010  178.9910  139.5960 O   0  0  0  0  0  1  0  0  0  0  0  0
  178.9330  179.6340  142.7540 O   0  0  0  0  0  1  0  0  0  0  0  0
  181.1550  179.1660  143.5610 C   0  0  0  0  0  3  0  0  0  0  0  0
  182.0820  179.0430  140.9210 C   0  0  0  0  0  0  0  0  0  0  0  0
  182.9860  178.8340  141.9880 C   0  0  0  0  0  0  0  0  0  0  0  0
  180.7350  179.3080  141.1850 C   0  0  0  0  0  3  0  0  0  0  0  0
  1 11  1  1  0  0  0
  1 17  1  0  0  0  0
  2 15  2  0  0  0  0
  2  3  1  0  0  0  0
  3  9  2  0  0  0  0
  3 22  1  0  0  0  0
  4  5  2  0  0  0  0
  5 30  1  0  0  0  0
  5 16  1  0  0  0  0
  6 13  1  0  0  0  0
  6 18  2  0  0  0  0
  7  2  1  0  0  0  0
  8 20  1  0  0  0  0
  8  1  1  0  0  0  0
  9  6  1  0  0  0  0
 10 16  1  0  0  0  0
 10 15  1  0  0  0  0
 12 22  1  0  0  0  0
 14 10  2  0  0  0  0
 15 21  1  0  0  0  0
 17  7  2  0  0  0  0
 19 14  1  0  0  0  0
 19  7  1  0  0  0  0
 20 19  2  0  0  0  0
 21 12  2  0  0  0  0
 22 23  2  0  0  0  0
 23 18  1  0  0  0  0
 24 27  1  0  0  0  0
 24 28  1  0  0  0  0
 25 28  2  0  0  0  0
 26 29  1  0  0  0  0
 29 31  1  0  0  0  0
 29 30  2  0  0  0  0
 30 25  1  0  0  0  0
 31 24  2  0  0  0  0
M  END
>  <MODEL>
8

>  <REMARK>
 VINA RESULT:     -10.2      3.059      6.462
  Name = 
  1 active torsions:
  status: ('A' for Active; 'I' for Inactive)
    1  A    between atoms: C_9  and  C_22
                            x       y       z     vdW  Elec       q    Type
                         _______ _______ _______ _____ _____    ______ ____

>  <TORSDO>
F 1

$$$$
=
 OpenBabel10262419313D

 31 35  0  0  1  0  0  0  0  0999 V2000
  191.3980  176.1040  146.4310 C   0  0  1  0  0  3  0  0  0  0  0  0
  188.3050  177.4820  144.6650 C   0  0  0  0  0  0  0  0  0  0  0  0
  187.3960  177.8760  145.6910 C   0  0  0  0  0  0  0  0  0  0  0  0
  190.2170  176.5820  139.8450 O   0  0  0  0  0  0  0  0  0  0  0  0
  189.0500  177.0450  139.7320 C   0  0  0  0  0  0  0  0  0  0  0  0
  186.8530  178.1660  147.9980 C   0  0  0  0  0  0  0  0  0  0  0  0
  189.6090  176.9520  144.9110 C   0  0  0  0  0  0  0  0  0  0  0  0
  192.2240  176.0780  145.2670 O   0  0  0  0  0  0  0  0  0  0  0  0
  187.7140  177.7910  147.0150 N   0  0  0  0  0  0  0  0  0  0  0  0
  188.7300  177.2460  142.2640 C   0  0  0  0  0  0  0  0  0  0  0  0
  192.0480  176.7640  147.4560 F   0  0  0  0  0  0  0  0  0  0  0  0
  185.7620  178.4810  144.0310 N   0  0  0  0  0  0  0  0  0  0  0  0
  187.2230  178.0590  149.2960 F   0  0  0  0  0  0  0  0  0  0  0  0
  189.9730  176.7780  142.5400 N   0  0  0  0  0  0  0  0  0  0  0  0
  187.8790  177.6160  143.3160 C   0  0  0  0  0  0  0  0  0  0  0  0
  188.2910  177.3800  140.9030 N   0  0  0  0  0  2  0  0  0  0  0  0
  190.0720  176.7540  146.1580 C   0  0  0  0  0  3  0  0  0  0  0  0
  185.5900  178.6600  147.6720 C   0  0  0  0  0  3  0  0  0  0  0  0
  190.4340  176.6280  143.8060 C   0  0  0  0  0  0  0  0  0  0  0  0
  191.6930  176.2200  143.9820 C   0  0  0  0  0  3  0  0  0  0  0  0
  186.6030  178.1170  143.0330 C   0  0  0  0  0  3  0  0  0  0  0  0
  186.1220  178.3760  145.3330 C   0  0  0  0  0  0  0  0  0  0  0  0
  185.2270  178.7640  146.3310 C   0  0  0  0  0  3  0  0  0  0  0  0
  187.2830  177.5300  135.8480 C   0  0  0  0  0  0  0  0  0  0  0  0
  187.8400  176.1540  137.7550 C   0  0  0  0  0  3  0  0  0  0  0  0
  189.0560  179.6150  138.3100 O   0  0  0  0  0  1  0  0  0  0  0  0
  186.7070  177.6700  134.5940 O   0  0  0  0  0  1  0  0  0  0  0  0
  187.2600  176.2930  136.4930 C   0  0  0  0  0  3  0  0  0  0  0  0
  188.4670  178.4960  137.7300 C   0  0  0  0  0  0  0  0  0  0  0  0
  188.4500  177.2470  138.3920 C   0  0  0  0  0  0  0  0  0  0  0  0
  187.8850  178.6270  136.4660 C   0  0  0  0  0  3  0  0  0  0  0  0
  1 11  1  1  0  0  0
  2  7  1  0  0  0  0
  2  3  1  0  0  0  0
  3  9  1  0  0  0  0
  5  4  2  0  0  0  0
  5 16  1  0  0  0  0
  6 13  1  0  0  0  0
  7 17  2  0  0  0  0
  8  1  1  0  0  0  0
  9  6  2  0  0  0  0
 10 14  2  0  0  0  0
 10 15  1  0  0  0  0
 12 22  1  0  0  0  0
 14 19  1  0  0  0  0
 15  2  2  0  0  0  0
 16 10  1  0  0  0  0
 17  1  1  0  0  0  0
 18  6  1  0  0  0  0
 19 20  2  0  0  0  0
 19  7  1  0  0  0  0
 20  8  1  0  0  0  0
 21 15  1  0  0  0  0
 21 12  2  0  0  0  0
 22  3  2  0  0  0  0
 22 23  1  0  0  0  0
 23 18  2  0  0  0  0
 24 31  2  0  0  0  0
 24 28  1  0  0  0  0
 25 30  1  0  0  0  0
 27 24  1  0  0  0  0
 28 25  2  0  0  0  0
 29 26  1  0  0  0  0
 29 30  2  0  0  0  0
 30  5  1  0  0  0  0
 31 29  1  0  0  0  0
M  END
>  <MODEL>
9

>  <REMARK>
 VINA RESULT:     -10.2      2.296      4.091
  Name = 
  1 active torsions:
  status: ('A' for Active; 'I' for Inactive)
    1  A    between atoms: C_9  and  C_22
                            x       y       z     vdW  Elec       q    Type
                         _______ _______ _______ _____ _____    ______ ____

>  <TORSDO>
F 1

$$$$
