=
 OpenBabel10262420153D

 27 31  0  0  1  0  0  0  0  0999 V2000
  186.1700  178.0850  144.4700 C   0  0  2  0  0  3  0  0  0  0  0  0
  188.2850  176.9620  143.7300 C   0  0  0  0  0  0  0  0  0  0  0  0
  186.8090  177.9700  142.0940 O   0  0  0  0  0  0  0  0  0  0  0  0
  189.5130  176.4110  143.8060 N   0  0  0  0  0  2  0  0  0  0  0  0
  183.4950  178.9260  143.6160 C   0  0  1  0  0  3  0  0  0  0  0  0
  187.2780  177.0710  144.8430 C   0  0  1  0  0  3  0  0  0  0  0  0
  189.1320  177.1250  141.6990 C   0  0  0  0  0  0  0  0  0  0  0  0
  184.9700  177.9490  145.4040 C   0  0  0  0  0  2  0  0  0  0  0  0
  188.0190  177.3830  142.4630 C   0  0  0  0  0  0  0  0  0  0  0  0
  184.6810  178.9870  142.6400 C   0  0  0  0  0  2  0  0  0  0  0  0
  190.0400  176.5150  142.5600 C   0  0  0  0  0  3  0  0  0  0  0  0
  183.9320  179.0210  145.0860 C   0  0  0  0  0  2  0  0  0  0  0  0
  185.7050  177.9180  143.0010 C   0  0  2  0  0  3  0  0  0  0  0  0
  190.2450  176.6470  139.5190 C   0  0  0  0  0  3  0  0  0  0  0  0
  189.7270  177.9380  137.5370 C   0  0  0  0  0  3  0  0  0  0  0  0
  188.8160  178.7000  138.2720 C   0  0  0  0  0  3  0  0  0  0  0  0
  188.6200  178.4370  139.6310 C   0  0  0  0  0  3  0  0  0  0  0  0
  189.3320  177.4080  140.2650 C   0  0  0  0  0  0  0  0  0  0  0  0
  190.4400  176.9100  138.1600 C   0  0  0  0  0  3  0  0  0  0  0  0
  189.1300  178.1380  148.5780 C   0  0  0  0  0  3  0  0  0  0  0  0
  187.9390  177.4390  146.1400 C   0  0  0  0  0  0  0  0  0  0  0  0
  187.1990  178.1150  147.1160 C   0  0  0  0  0  3  0  0  0  0  0  0
  187.7930  178.4640  148.3330 C   0  0  0  0  0  3  0  0  0  0  0  0
  189.8740  177.4600  147.6070 C   0  0  0  0  0  3  0  0  0  0  0  0
  189.2810  177.1120  146.3900 C   0  0  0  0  0  3  0  0  0  0  0  0
  181.2410  179.1370  143.2310 C   0  0  0  0  0  1  0  0  0  0  0  0
  182.4620  179.8310  143.2860 O   0  0  0  0  0  0  0  0  0  0  0  0
  1  6  1  0  0  0  0
  1  8  1  1  0  0  0
  2  4  1  0  0  0  0
  2  6  1  0  0  0  0
  3  9  1  0  0  0  0
  3 13  1  0  0  0  0
  5 27  1  6  0  0  0
  5 12  1  0  0  0  0
  6 21  1  1  0  0  0
  7  9  1  0  0  0  0
  7 11  2  0  0  0  0
  9  2  2  0  0  0  0
 10  5  1  0  0  0  0
 11  4  1  0  0  0  0
 12  8  1  0  0  0  0
 13 10  1  6  0  0  0
 13  1  1  0  0  0  0
 14 18  1  0  0  0  0
 15 19  1  0  0  0  0
 15 16  2  0  0  0  0
 16 17  1  0  0  0  0
 17 18  2  0  0  0  0
 18  7  1  0  0  0  0
 19 14  2  0  0  0  0
 21 25  2  0  0  0  0
 21 22  1  0  0  0  0
 22 23  2  0  0  0  0
 23 20  1  0  0  0  0
 24 20  2  0  0  0  0
 25 24  1  0  0  0  0
 26 27  1  0  0  0  0
M  END
>  <MODEL>
1

>  <REMARK>
 VINA RESULT:     -10.4      0.000      0.000
  Name = 
  3 active torsions:
  status: ('A' for Active; 'I' for Inactive)
    1  A    between atoms: C_9  and  C_15
    2  A    between atoms: C_13  and  O_22
    3  A    between atoms: C_14  and  C_17
                            x       y       z     vdW  Elec       q    Type
                         _______ _______ _______ _____ _____    ______ ____

>  <TORSDO>
F 3

$$$$
=
 OpenBabel10262420153D

 27 31  0  0  1  0  0  0  0  0999 V2000
  190.0410  177.3570  142.2890 C   0  0  2  0  0  3  0  0  0  0  0  0
  188.7380  177.8940  144.3620 C   0  0  0  0  0  0  0  0  0  0  0  0
  187.6920  178.0920  142.1850 O   0  0  0  0  0  0  0  0  0  0  0  0
  188.4090  177.9360  145.6680 N   0  0  0  0  0  2  0  0  0  0  0  0
  190.2180  177.8240  139.4000 C   0  0  1  0  0  3  0  0  0  0  0  0
  190.1200  177.7380  143.7870 C   0  0  1  0  0  3  0  0  0  0  0  0
  186.5530  178.1930  144.4110 C   0  0  0  0  0  0  0  0  0  0  0  0
  191.3940  177.5450  141.6060 C   0  0  0  0  0  2  0  0  0  0  0  0
  187.6380  178.0680  143.5780 C   0  0  0  0  0  0  0  0  0  0  0  0
  188.8500  177.7220  140.0910 C   0  0  0  0  0  2  0  0  0  0  0  0
  187.0640  178.1140  145.7030 C   0  0  0  0  0  3  0  0  0  0  0  0
  191.3220  177.0700  140.1580 C   0  0  0  0  0  2  0  0  0  0  0  0
  188.9640  178.1820  141.5390 C   0  0  2  0  0  3  0  0  0  0  0  0
  184.7400  178.2480  142.6980 C   0  0  0  0  0  3  0  0  0  0  0  0
  182.4550  178.7670  143.3060 C   0  0  0  0  0  3  0  0  0  0  0  0
  182.8430  178.9110  144.6400 C   0  0  0  0  0  3  0  0  0  0  0  0
  184.1800  178.7240  145.0040 C   0  0  0  0  0  3  0  0  0  0  0  0
  185.1390  178.3910  144.0360 C   0  0  0  0  0  0  0  0  0  0  0  0
  183.4030  178.4350  142.3350 C   0  0  0  0  0  3  0  0  0  0  0  0
  192.4100  174.8840  146.0490 C   0  0  0  0  0  3  0  0  0  0  0  0
  190.9220  176.7340  144.5620 C   0  0  0  0  0  0  0  0  0  0  0  0
  191.2240  176.9900  145.9040 C   0  0  0  0  0  3  0  0  0  0  0  0
  191.9660  176.0670  146.6470 C   0  0  0  0  0  3  0  0  0  0  0  0
  192.1090  174.6210  144.7090 C   0  0  0  0  0  3  0  0  0  0  0  0
  191.3680  175.5430  143.9660 C   0  0  0  0  0  3  0  0  0  0  0  0
  189.2040  178.3020  137.3960 C   0  0  0  0  0  1  0  0  0  0  0  0
  190.1680  177.4980  138.0270 O   0  0  0  0  0  0  0  0  0  0  0  0
  1  8  1  6  0  0  0
  1  6  1  0  0  0  0
  2  4  1  0  0  0  0
  3  9  1  0  0  0  0
  4 11  1  0  0  0  0
  5 27  1  6  0  0  0
  5 10  1  0  0  0  0
  5 12  1  0  0  0  0
  6  2  1  0  0  0  0
  6 21  1  1  0  0  0
  7 11  2  0  0  0  0
  9  2  2  0  0  0  0
  9  7  1  0  0  0  0
 12  8  1  0  0  0  0
 13 10  1  6  0  0  0
 13  3  1  0  0  0  0
 13  1  1  0  0  0  0
 14 18  1  0  0  0  0
 15 16  2  0  0  0  0
 16 17  1  0  0  0  0
 18  7  1  0  0  0  0
 18 17  2  0  0  0  0
 19 14  2  0  0  0  0
 19 15  1  0  0  0  0
 20 23  1  0  0  0  0
 21 22  1  0  0  0  0
 22 23  2  0  0  0  0
 24 20  2  0  0  0  0
 25 21  2  0  0  0  0
 25 24  1  0  0  0  0
 26 27  1  0  0  0  0
M  END
>  <MODEL>
2

>  <REMARK>
 VINA RESULT:     -10.0      2.000      6.039
  Name = 
  3 active torsions:
  status: ('A' for Active; 'I' for Inactive)
    1  A    between atoms: C_9  and  C_15
    2  A    between atoms: C_13  and  O_22
    3  A    between atoms: C_14  and  C_17
                            x       y       z     vdW  Elec       q    Type
                         _______ _______ _______ _____ _____    ______ ____

>  <TORSDO>
F 3

$$$$
=
 OpenBabel10262420153D

 27 31  0  0  1  0  0  0  0  0999 V2000
  187.0160  177.8090  144.3560 C   0  0  2  0  0  3  0  0  0  0  0  0
  188.6880  176.9180  142.7150 C   0  0  0  0  0  0  0  0  0  0  0  0
  186.7390  178.1240  141.9290 O   0  0  0  0  0  0  0  0  0  0  0  0
  189.8450  176.4150  142.2420 N   0  0  0  0  0  2  0  0  0  0  0  0
  184.2340  178.6670  144.6930 C   0  0  1  0  0  3  0  0  0  0  0  0
  188.1610  176.7940  144.1190 C   0  0  1  0  0  3  0  0  0  0  0  0
  188.7360  177.4570  140.5760 C   0  0  0  0  0  0  0  0  0  0  0  0
  186.2380  177.4650  145.6240 C   0  0  0  0  0  2  0  0  0  0  0  0
  187.9860  177.5350  141.7250 C   0  0  0  0  0  0  0  0  0  0  0  0
  184.9810  178.9420  143.3790 C   0  0  0  0  0  2  0  0  0  0  0  0
  189.8820  176.7500  140.9270 C   0  0  0  0  0  3  0  0  0  0  0  0
  185.1800  178.5310  145.8960 C   0  0  0  0  0  2  0  0  0  0  0  0
  186.0420  177.8730  143.1520 C   0  0  2  0  0  3  0  0  0  0  0  0
  189.3860  178.6380  138.4770 C   0  0  0  0  0  3  0  0  0  0  0  0
  187.7870  179.0030  136.6970 C   0  0  0  0  0  3  0  0  0  0  0  0
  186.8020  178.3570  137.4490 C   0  0  0  0  0  3  0  0  0  0  0  0
  187.1100  177.8520  138.7150 C   0  0  0  0  0  3  0  0  0  0  0  0
  188.4040  177.9870  139.2390 C   0  0  0  0  0  0  0  0  0  0  0  0
  189.0790  179.1430  137.2100 C   0  0  0  0  0  3  0  0  0  0  0  0
  191.2740  177.2790  147.0480 C   0  0  0  0  0  3  0  0  0  0  0  0
  189.2580  176.9650  145.1290 C   0  0  0  0  0  0  0  0  0  0  0  0
  188.9260  177.1170  146.4790 C   0  0  0  0  0  3  0  0  0  0  0  0
  189.9320  177.2740  147.4370 C   0  0  0  0  0  3  0  0  0  0  0  0
  191.6130  177.1260  145.7000 C   0  0  0  0  0  3  0  0  0  0  0  0
  190.6080  176.9700  144.7410 C   0  0  0  0  0  3  0  0  0  0  0  0
  182.1370  179.3070  144.0110 C   0  0  0  0  0  1  0  0  0  0  0  0
  183.1730  179.5700  144.9240 O   0  0  0  0  0  0  0  0  0  0  0  0
  1  8  1  1  0  0  0
  2  6  1  0  0  0  0
  3 13  1  0  0  0  0
  4  2  1  0  0  0  0
  5 27  1  1  0  0  0
  5 12  1  0  0  0  0
  6  1  1  0  0  0  0
  6 21  1  1  0  0  0
  7 11  2  0  0  0  0
  7  9  1  0  0  0  0
  8 12  1  0  0  0  0
  9  3  1  0  0  0  0
  9  2  2  0  0  0  0
 10  5  1  0  0  0  0
 11  4  1  0  0  0  0
 13 10  1  1  0  0  0
 13  1  1  0  0  0  0
 14 18  1  0  0  0  0
 15 19  1  0  0  0  0
 15 16  2  0  0  0  0
 16 17  1  0  0  0  0
 17 18  2  0  0  0  0
 18  7  1  0  0  0  0
 19 14  2  0  0  0  0
 20 23  1  0  0  0  0
 21 22  1  0  0  0  0
 22 23  2  0  0  0  0
 24 20  2  0  0  0  0
 25 21  2  0  0  0  0
 25 24  1  0  0  0  0
 26 27  1  0  0  0  0
M  END
>  <MODEL>
3

>  <REMARK>
 VINA RESULT:      -9.9      1.267      1.777
  Name = 
  3 active torsions:
  status: ('A' for Active; 'I' for Inactive)
    1  A    between atoms: C_9  and  C_15
    2  A    between atoms: C_13  and  O_22
    3  A    between atoms: C_14  and  C_17
                            x       y       z     vdW  Elec       q    Type
                         _______ _______ _______ _____ _____    ______ ____

>  <TORSDO>
F 3

$$$$
=
 OpenBabel10262420153D

 27 31  0  0  1  0  0  0  0  0999 V2000
  189.3850  177.4030  143.1380 C   0  0  2  0  0  3  0  0  0  0  0  0
  188.9980  177.8060  140.6950 C   0  0  0  0  0  0  0  0  0  0  0  0
  190.8990  176.4910  141.4220 O   0  0  0  0  0  0  0  0  0  0  0  0
  188.3550  178.1420  139.5600 N   0  0  0  0  0  0  0  0  0  0  0  0
  191.4100  176.7310  145.1500 C   0  0  1  0  0  3  0  0  0  0  0  0
  188.6860  178.2940  142.0840 C   0  0  1  0  0  3  0  0  0  0  0  0
  190.0570  176.7420  139.0780 C   0  0  0  0  0  0  0  0  0  0  0  0
  189.3830  178.0760  144.5090 C   0  0  0  0  0  2  0  0  0  0  0  0
  190.0460  176.9770  140.4320 C   0  0  1  0  0  3  0  0  0  0  0  0
  191.4710  176.1130  143.7440 C   0  0  0  0  0  2  0  0  0  0  0  0
  188.9990  177.4850  138.5630 C   0  0  0  0  0  3  0  0  0  0  0  0
  189.9850  177.1420  145.5550 C   0  0  0  0  0  2  0  0  0  0  0  0
  190.8420  177.0620  142.7320 C   0  0  2  0  0  3  0  0  0  0  0  0
  192.3570  176.2400  138.2520 C   0  0  0  0  0  3  0  0  0  0  0  0
  192.7940  174.3100  136.8570 C   0  0  0  0  0  3  0  0  0  0  0  0
  191.4410  173.9650  136.9110 C   0  0  0  0  0  3  0  0  0  0  0  0
  190.5460  174.7570  137.6360 C   0  0  0  0  0  3  0  0  0  0  0  0
  190.9970  175.9000  138.3130 C   0  0  0  0  0  0  0  0  0  0  0  0
  193.2520  175.4470  137.5280 C   0  0  0  0  0  3  0  0  0  0  0  0
  184.4470  178.4540  142.8020 C   0  0  0  0  0  3  0  0  0  0  0  0
  187.2050  178.3550  142.3190 C   0  0  0  0  0  0  0  0  0  0  0  0
  186.6750  177.7970  143.4870 C   0  0  0  0  0  3  0  0  0  0  0  0
  185.2980  177.8460  143.7290 C   0  0  0  0  0  3  0  0  0  0  0  0
  184.9710  179.0150  141.6330 C   0  0  0  0  0  3  0  0  0  0  0  0
  186.3460  178.9660  141.3910 C   0  0  0  0  0  3  0  0  0  0  0  0
  191.6450  176.3630  147.4040 C   0  0  0  0  0  1  0  0  0  0  0  0
  192.0570  175.9430  146.1270 O   0  0  0  0  0  0  0  0  0  0  0  0
  1  8  1  1  0  0  0
  2  6  1  0  0  0  0
  3 13  1  0  0  0  0
  4  2  2  0  0  0  0
  5 12  1  0  0  0  0
  5 27  1  1  0  0  0
  6 21  1  1  0  0  0
  6  1  1  0  0  0  0
  8 12  1  0  0  0  0
  9  7  1  1  0  0  0
  9  2  1  0  0  0  0
  9  3  1  0  0  0  0
 10  5  1  0  0  0  0
 11  7  2  0  0  0  0
 11  4  1  0  0  0  0
 13  1  1  0  0  0  0
 13 10  1  1  0  0  0
 14 18  1  0  0  0  0
 15 16  2  0  0  0  0
 15 19  1  0  0  0  0
 16 17  1  0  0  0  0
 17 18  2  0  0  0  0
 18  7  1  0  0  0  0
 19 14  2  0  0  0  0
 20 23  1  0  0  0  0
 21 22  1  0  0  0  0
 22 23  2  0  0  0  0
 24 20  2  0  0  0  0
 25 24  1  0  0  0  0
 25 21  2  0  0  0  0
 27 26  1  0  0  0  0
M  END
>  <MODEL>
4

>  <REMARK>
 VINA RESULT:      -9.8      2.803      5.725
  Name = 
  3 active torsions:
  status: ('A' for Active; 'I' for Inactive)
    1  A    between atoms: C_9  and  C_15
    2  A    between atoms: C_13  and  O_22
    3  A    between atoms: C_14  and  C_17
                            x       y       z     vdW  Elec       q    Type
                         _______ _______ _______ _____ _____    ______ ____

>  <TORSDO>
F 3

$$$$
=
 OpenBabel10262420153D

 27 31  0  0  1  0  0  0  0  0999 V2000
  184.2740  178.5410  142.3090 C   0  0  2  0  0  3  0  0  0  0  0  0
  185.6480  178.6460  140.2150 C   0  0  0  0  0  0  0  0  0  0  0  0
  186.7330  178.4080  142.3690 O   0  0  0  0  0  0  0  0  0  0  0  0
  185.9500  178.6060  138.9030 N   0  0  0  0  0  0  0  0  0  0  0  0
  184.3170  178.9630  145.2100 C   0  0  1  0  0  3  0  0  0  0  0  0
  184.3080  178.9660  140.8210 C   0  0  1  0  0  3  0  0  0  0  0  0
  187.7990  178.1670  140.1180 C   0  0  0  0  0  0  0  0  0  0  0  0
  183.0820  179.1700  143.0280 C   0  0  0  0  0  2  0  0  0  0  0  0
  186.7520  178.4050  140.9750 C   0  0  1  0  0  3  0  0  0  0  0  0
  185.5520  178.4100  144.4830 C   0  0  0  0  0  2  0  0  0  0  0  0
  187.2710  178.3050  138.8380 C   0  0  0  0  0  3  0  0  0  0  0  0
  183.0070  178.6610  144.4650 C   0  0  0  0  0  2  0  0  0  0  0  0
  185.5820  178.9190  143.0480 C   0  0  2  0  0  3  0  0  0  0  0  0
  190.1340  177.5970  139.4480 C   0  0  0  0  0  3  0  0  0  0  0  0
  191.8620  177.2410  141.1050 C   0  0  0  0  0  3  0  0  0  0  0  0
  190.9380  177.4920  142.1220 C   0  0  0  0  0  3  0  0  0  0  0  0
  189.6120  177.7940  141.8020 C   0  0  0  0  0  3  0  0  0  0  0  0
  189.1990  177.8490  140.4630 C   0  0  0  0  0  0  0  0  0  0  0  0
  191.4610  177.2950  139.7670 C   0  0  0  0  0  3  0  0  0  0  0  0
  181.1070  177.1690  138.5760 C   0  0  0  0  0  3  0  0  0  0  0  0
  183.1940  178.3250  140.0460 C   0  0  0  0  0  0  0  0  0  0  0  0
  182.3770  179.1230  139.2370 C   0  0  0  0  0  3  0  0  0  0  0  0
  181.3360  178.5460  138.5030 C   0  0  0  0  0  3  0  0  0  0  0  0
  181.9210  176.3670  139.3810 C   0  0  0  0  0  3  0  0  0  0  0  0
  182.9620  176.9420  140.1150 C   0  0  0  0  0  3  0  0  0  0  0  0
  185.5790  178.5860  147.0900 C   0  0  0  0  0  1  0  0  0  0  0  0
  184.2720  178.6030  146.5740 O   0  0  0  0  0  0  0  0  0  0  0  0
  1  8  1  1  0  0  0
  1 13  1  0  0  0  0
  2  6  1  0  0  0  0
  2  9  1  0  0  0  0
  3 13  1  0  0  0  0
  4  2  2  0  0  0  0
  5 27  1  1  0  0  0
  6 21  1  6  0  0  0
  6  1  1  0  0  0  0
  7 18  1  0  0  0  0
  8 12  1  0  0  0  0
  9  7  1  6  0  0  0
  9  3  1  0  0  0  0
 10  5  1  0  0  0  0
 11  4  1  0  0  0  0
 11  7  2  0  0  0  0
 12  5  1  0  0  0  0
 13 10  1  1  0  0  0
 14 19  2  0  0  0  0
 14 18  1  0  0  0  0
 15 16  2  0  0  0  0
 17 16  1  0  0  0  0
 18 17  2  0  0  0  0
 19 15  1  0  0  0  0
 20 24  1  0  0  0  0
 21 25  1  0  0  0  0
 22 21  2  0  0  0  0
 23 20  2  0  0  0  0
 23 22  1  0  0  0  0
 24 25  2  0  0  0  0
 27 26  1  0  0  0  0
M  END
>  <MODEL>
5

>  <REMARK>
 VINA RESULT:      -9.5      2.755      5.831
  Name = 
  3 active torsions:
  status: ('A' for Active; 'I' for Inactive)
    1  A    between atoms: C_9  and  C_15
    2  A    between atoms: C_13  and  O_22
    3  A    between atoms: C_14  and  C_17
                            x       y       z     vdW  Elec       q    Type
                         _______ _______ _______ _____ _____    ______ ____

>  <TORSDO>
F 3

$$$$
=
 OpenBabel10262420153D

 27 31  0  0  1  0  0  0  0  0999 V2000
  188.8000  177.6300  139.3860 C   0  0  2  0  0  3  0  0  0  0  0  0
  190.5220  177.5020  141.2030 C   0  0  0  0  0  0  0  0  0  0  0  0
  188.2060  177.9540  141.7540 O   0  0  0  0  0  0  0  0  0  0  0  0
  191.6880  177.2210  141.8170 N   0  0  0  0  0  0  0  0  0  0  0  0
  186.1640  178.6970  138.6730 C   0  0  1  0  0  3  0  0  0  0  0  0
  190.3080  177.7070  139.7280 C   0  0  1  0  0  3  0  0  0  0  0  0
  190.0480  177.4030  143.3560 C   0  0  0  0  0  0  0  0  0  0  0  0
  188.5290  178.1830  137.9880 C   0  0  0  0  0  2  0  0  0  0  0  0
  189.5160  177.6390  142.1110 C   0  0  1  0  0  3  0  0  0  0  0  0
  186.4520  178.2220  140.1060 C   0  0  0  0  0  2  0  0  0  0  0  0
  191.4000  177.1530  143.1410 C   0  0  0  0  0  3  0  0  0  0  0  0
  187.0560  178.0070  137.6300 C   0  0  0  0  0  2  0  0  0  0  0  0
  187.9330  178.3920  140.4210 C   0  0  2  0  0  3  0  0  0  0  0  0
  190.0920  177.3690  145.8500 C   0  0  0  0  0  3  0  0  0  0  0  0
  188.0460  177.4650  147.1410 C   0  0  0  0  0  3  0  0  0  0  0  0
  187.3030  177.5220  145.9590 C   0  0  0  0  0  3  0  0  0  0  0  0
  187.9550  177.5020  144.7220 C   0  0  0  0  0  3  0  0  0  0  0  0
  189.3540  177.4260  144.6580 C   0  0  0  0  0  0  0  0  0  0  0  0
  189.4400  177.3900  147.0860 C   0  0  0  0  0  3  0  0  0  0  0  0
  192.5390  174.8570  137.4010 C   0  0  0  0  0  3  0  0  0  0  0  0
  191.1000  176.7200  138.9210 C   0  0  0  0  0  0  0  0  0  0  0  0
  190.4460  175.6240  138.3490 C   0  0  0  0  0  3  0  0  0  0  0  0
  191.1630  174.6940  137.5900 C   0  0  0  0  0  3  0  0  0  0  0  0
  193.1980  175.9520  137.9690 C   0  0  0  0  0  3  0  0  0  0  0  0
  192.4820  176.8810  138.7280 C   0  0  0  0  0  3  0  0  0  0  0  0
  184.0630  179.3770  139.3020 C   0  0  0  0  0  1  0  0  0  0  0  0
  184.7920  178.6520  138.3430 O   0  0  0  0  0  0  0  0  0  0  0  0
  1  8  1  6  0  0  0
  1  6  1  0  0  0  0
  1 13  1  0  0  0  0
  2  4  2  0  0  0  0
  3  9  1  0  0  0  0
  4 11  1  0  0  0  0
  5 27  1  6  0  0  0
  5 10  1  0  0  0  0
  6 21  1  6  0  0  0
  6  2  1  0  0  0  0
  7 18  1  0  0  0  0
  9  2  1  6  0  0  0
  9  7  1  0  0  0  0
 11  7  2  0  0  0  0
 12  8  1  0  0  0  0
 12  5  1  0  0  0  0
 13 10  1  6  0  0  0
 13  3  1  0  0  0  0
 14 19  1  0  0  0  0
 16 15  1  0  0  0  0
 17 16  2  0  0  0  0
 18 17  1  0  0  0  0
 18 14  2  0  0  0  0
 19 15  2  0  0  0  0
 20 23  2  0  0  0  0
 20 24  1  0  0  0  0
 22 21  2  0  0  0  0
 23 22  1  0  0  0  0
 24 25  2  0  0  0  0
 25 21  1  0  0  0  0
 27 26  1  0  0  0  0
M  END
>  <MODEL>
6

>  <REMARK>
 VINA RESULT:      -9.4      2.342      6.909
  Name = 
  3 active torsions:
  status: ('A' for Active; 'I' for Inactive)
    1  A    between atoms: C_9  and  C_15
    2  A    between atoms: C_13  and  O_22
    3  A    between atoms: C_14  and  C_17
                            x       y       z     vdW  Elec       q    Type
                         _______ _______ _______ _____ _____    ______ ____

>  <TORSDO>
F 3

$$$$
=
 OpenBabel10262420153D

 27 31  0  0  1  0  0  0  0  0999 V2000
  186.9800  178.2340  140.8910 C   0  0  2  0  0  3  0  0  0  0  0  0
  189.4440  178.0810  141.3260 C   0  0  0  0  0  0  0  0  0  0  0  0
  187.8750  177.9410  143.1670 O   0  0  0  0  0  0  0  0  0  0  0  0
  190.7590  177.9190  141.0820 N   0  0  0  0  0  0  0  0  0  0  0  0
  184.3850  178.8770  142.0920 C   0  0  1  0  0  3  0  0  0  0  0  0
  188.3970  178.5380  140.3460 C   0  0  1  0  0  3  0  0  0  0  0  0
  190.3280  177.4520  143.2470 C   0  0  0  0  0  0  0  0  0  0  0  0
  185.9180  178.9960  140.1010 C   0  0  0  0  0  2  0  0  0  0  0  0
  189.1570  177.8270  142.6330 C   0  0  1  0  0  3  0  0  0  0  0  0
  185.4780  178.1870  142.9220 C   0  0  0  0  0  2  0  0  0  0  0  0
  191.3060  177.5260  142.2600 C   0  0  0  0  0  3  0  0  0  0  0  0
  184.5240  178.6080  140.5860 C   0  0  0  0  0  2  0  0  0  0  0  0
  186.8540  178.5800  142.3960 C   0  0  2  0  0  3  0  0  0  0  0  0
  189.5650  177.4020  145.6220 C   0  0  0  0  0  3  0  0  0  0  0  0
  190.9000  176.3510  147.3460 C   0  0  0  0  0  3  0  0  0  0  0  0
  191.8650  176.0150  146.3930 C   0  0  0  0  0  3  0  0  0  0  0  0
  191.6810  176.3730  145.0550 C   0  0  0  0  0  3  0  0  0  0  0  0
  190.5290  177.0690  144.6580 C   0  0  0  0  0  0  0  0  0  0  0  0
  189.7490  177.0440  146.9600 C   0  0  0  0  0  3  0  0  0  0  0  0
  188.9780  176.7120  136.4940 C   0  0  0  0  0  3  0  0  0  0  0  0
  188.6060  177.9140  138.9970 C   0  0  0  0  0  0  0  0  0  0  0  0
  188.3740  176.5450  138.8330 C   0  0  0  0  0  3  0  0  0  0  0  0
  188.5590  175.9440  137.5840 C   0  0  0  0  0  3  0  0  0  0  0  0
  189.2110  178.0820  136.6510 C   0  0  0  0  0  3  0  0  0  0  0  0
  189.0260  178.6830  137.8990 C   0  0  0  0  0  3  0  0  0  0  0  0
  183.0200  178.9990  143.9350 C   0  0  0  0  0  1  0  0  0  0  0  0
  183.0830  178.6290  142.5800 O   0  0  0  0  0  0  0  0  0  0  0  0
  1  8  1  6  0  0  0
  1 13  1  0  0  0  0
  4  2  2  0  0  0  0
  4 11  1  0  0  0  0
  5 27  1  1  0  0  0
  5 10  1  0  0  0  0
  6 21  1  6  0  0  0
  6  1  1  0  0  0  0
  6  2  1  0  0  0  0
  7 18  1  0  0  0  0
  8 12  1  0  0  0  0
  9  2  1  6  0  0  0
  9  3  1  0  0  0  0
  9  7  1  0  0  0  0
 11  7  2  0  0  0  0
 12  5  1  0  0  0  0
 13 10  1  1  0  0  0
 13  3  1  0  0  0  0
 14 19  1  0  0  0  0
 16 15  1  0  0  0  0
 17 16  2  0  0  0  0
 18 17  1  0  0  0  0
 18 14  2  0  0  0  0
 19 15  2  0  0  0  0
 20 24  2  0  0  0  0
 20 23  1  0  0  0  0
 22 21  1  0  0  0  0
 23 22  2  0  0  0  0
 24 25  1  0  0  0  0
 25 21  2  0  0  0  0
 27 26  1  0  0  0  0
M  END
>  <MODEL>
7

>  <REMARK>
 VINA RESULT:      -9.4      1.727      6.335
  Name = 
  3 active torsions:
  status: ('A' for Active; 'I' for Inactive)
    1  A    between atoms: C_9  and  C_15
    2  A    between atoms: C_13  and  O_22
    3  A    between atoms: C_14  and  C_17
                            x       y       z     vdW  Elec       q    Type
                         _______ _______ _______ _____ _____    ______ ____

>  <TORSDO>
F 3

$$$$
=
 OpenBabel10262420153D

 27 31  0  0  1  0  0  0  0  0999 V2000
  185.9090  178.3250  144.1300 C   0  0  2  0  0  3  0  0  0  0  0  0
  185.9980  178.8620  141.6830 C   0  0  0  0  0  0  0  0  0  0  0  0
  187.8960  177.8150  142.7660 O   0  0  0  0  0  0  0  0  0  0  0  0
  185.5690  179.1840  140.4470 N   0  0  0  0  0  0  0  0  0  0  0  0
  187.5320  177.8220  146.5190 C   0  0  1  0  0  3  0  0  0  0  0  0
  185.3100  179.1760  142.9840 C   0  0  1  0  0  3  0  0  0  0  0  0
  187.5540  178.1220  140.3060 C   0  0  0  0  0  0  0  0  0  0  0  0
  185.4890  178.8720  145.4930 C   0  0  0  0  0  2  0  0  0  0  0  0
  187.2070  178.2380  141.6310 C   0  0  1  0  0  3  0  0  0  0  0  0
  188.0060  177.3420  145.1380 C   0  0  0  0  0  2  0  0  0  0  0  0
  186.5200  178.7250  139.5960 C   0  0  0  0  0  3  0  0  0  0  0  0
  186.0040  177.9630  146.6050 C   0  0  0  0  0  2  0  0  0  0  0  0
  187.4550  178.2580  144.0530 C   0  0  2  0  0  3  0  0  0  0  0  0
  188.7220  176.8760  138.4880 C   0  0  0  0  0  3  0  0  0  0  0  0
  191.0770  176.3380  138.6490 C   0  0  0  0  0  3  0  0  0  0  0  0
  191.1350  176.9660  139.8950 C   0  0  0  0  0  3  0  0  0  0  0  0
  189.9870  177.5490  140.4380 C   0  0  0  0  0  3  0  0  0  0  0  0
  188.7710  177.5100  139.7390 C   0  0  0  0  0  0  0  0  0  0  0  0
  189.8710  176.2930  137.9450 C   0  0  0  0  0  3  0  0  0  0  0  0
  181.0510  178.6250  142.7190 C   0  0  0  0  0  3  0  0  0  0  0  0
  183.8260  178.9780  142.8770 C   0  0  0  0  0  0  0  0  0  0  0  0
  183.0290  179.1520  144.0130 C   0  0  0  0  0  3  0  0  0  0  0  0
  181.6440  178.9770  143.9360 C   0  0  0  0  0  3  0  0  0  0  0  0
  181.8420  178.4510  141.5800 C   0  0  0  0  0  3  0  0  0  0  0  0
  183.2270  178.6260  141.6570 C   0  0  0  0  0  3  0  0  0  0  0  0
  188.7370  177.9390  148.4690 C   0  0  0  0  0  1  0  0  0  0  0  0
  188.0790  177.0710  147.5820 O   0  0  0  0  0  0  0  0  0  0  0  0
  1  8  1  1  0  0  0
  2  6  1  0  0  0  0
  3 13  1  0  0  0  0
  4  2  2  0  0  0  0
  5 12  1  0  0  0  0
  5 27  1  1  0  0  0
  6 21  1  6  0  0  0
  6  1  1  0  0  0  0
  8 12  1  0  0  0  0
  9  7  1  6  0  0  0
  9  2  1  0  0  0  0
  9  3  1  0  0  0  0
 10  5  1  0  0  0  0
 11  7  2  0  0  0  0
 11  4  1  0  0  0  0
 13  1  1  0  0  0  0
 13 10  1  1  0  0  0
 14 18  1  0  0  0  0
 15 16  2  0  0  0  0
 16 17  1  0  0  0  0
 18  7  1  0  0  0  0
 18 17  2  0  0  0  0
 19 14  2  0  0  0  0
 19 15  1  0  0  0  0
 20 23  1  0  0  0  0
 21 22  1  0  0  0  0
 23 22  2  0  0  0  0
 24 25  1  0  0  0  0
 24 20  2  0  0  0  0
 25 21  2  0  0  0  0
 27 26  1  0  0  0  0
M  END
>  <MODEL>
8

>  <REMARK>
 VINA RESULT:      -9.2      1.989      5.091
  Name = 
  3 active torsions:
  status: ('A' for Active; 'I' for Inactive)
    1  A    between atoms: C_9  and  C_15
    2  A    between atoms: C_13  and  O_22
    3  A    between atoms: C_14  and  C_17
                            x       y       z     vdW  Elec       q    Type
                         _______ _______ _______ _____ _____    ______ ____

>  <TORSDO>
F 3

$$$$
=
 OpenBabel10262420153D

 27 31  0  0  1  0  0  0  0  0999 V2000
  186.7020  178.2530  140.5490 C   0  0  2  0  0  3  0  0  0  0  0  0
  189.1350  178.1530  141.1430 C   0  0  0  0  0  0  0  0  0  0  0  0
  187.4540  178.0500  142.8860 O   0  0  0  0  0  0  0  0  0  0  0  0
  190.4650  178.0030  140.9880 N   0  0  0  0  0  0  0  0  0  0  0  0
  184.0270  178.8970  141.5610 C   0  0  1  0  0  3  0  0  0  0  0  0
  188.1460  178.5600  140.0840 C   0  0  1  0  0  3  0  0  0  0  0  0
  189.9030  177.6020  143.1370 C   0  0  0  0  0  0  0  0  0  0  0  0
  185.6820  178.9720  139.6680 C   0  0  0  0  0  2  0  0  0  0  0  0
  188.7690  177.9380  142.4380 C   0  0  1  0  0  3  0  0  0  0  0  0
  185.0750  178.2510  142.4810 C   0  0  0  0  0  2  0  0  0  0  0  0
  190.9410  177.6570  142.2110 C   0  0  0  0  0  3  0  0  0  0  0  0
  184.2650  178.5790  140.0770 C   0  0  0  0  0  2  0  0  0  0  0  0
  186.4760  178.6470  142.0310 C   0  0  2  0  0  3  0  0  0  0  0  0
  191.2200  176.7500  145.0770 C   0  0  0  0  0  3  0  0  0  0  0  0
  190.2530  176.6290  147.2930 C   0  0  0  0  0  3  0  0  0  0  0  0
  189.0530  177.1460  146.7970 C   0  0  0  0  0  3  0  0  0  0  0  0
  188.9370  177.4640  145.4410 C   0  0  0  0  0  3  0  0  0  0  0  0
  190.0190  177.2690  144.5700 C   0  0  0  0  0  0  0  0  0  0  0  0
  191.3370  176.4320  146.4330 C   0  0  0  0  0  3  0  0  0  0  0  0
  189.0330  176.6960  136.3100 C   0  0  0  0  0  3  0  0  0  0  0  0
  188.4500  177.8960  138.7730 C   0  0  0  0  0  0  0  0  0  0  0  0
  188.8840  178.6760  137.6960 C   0  0  0  0  0  3  0  0  0  0  0  0
  189.1760  178.0780  136.4670 C   0  0  0  0  0  3  0  0  0  0  0  0
  188.6010  175.9110  137.3830 C   0  0  0  0  0  3  0  0  0  0  0  0
  188.3090  176.5080  138.6120 C   0  0  0  0  0  3  0  0  0  0  0  0
  181.8630  178.6200  140.8460 C   0  0  0  0  0  1  0  0  0  0  0  0
  182.7010  178.6450  141.9750 O   0  0  0  0  0  0  0  0  0  0  0  0
  1  8  1  6  0  0  0
  1 13  1  0  0  0  0
  4  2  2  0  0  0  0
  4 11  1  0  0  0  0
  5 27  1  1  0  0  0
  5 10  1  0  0  0  0
  6 21  1  6  0  0  0
  6  1  1  0  0  0  0
  6  2  1  0  0  0  0
  7 18  1  0  0  0  0
  8 12  1  0  0  0  0
  9  2  1  6  0  0  0
  9  3  1  0  0  0  0
  9  7  1  0  0  0  0
 11  7  2  0  0  0  0
 12  5  1  0  0  0  0
 13 10  1  1  0  0  0
 13  3  1  0  0  0  0
 14 19  1  0  0  0  0
 16 15  1  0  0  0  0
 17 16  2  0  0  0  0
 18 14  2  0  0  0  0
 18 17  1  0  0  0  0
 19 15  2  0  0  0  0
 20 23  2  0  0  0  0
 20 24  1  0  0  0  0
 22 21  2  0  0  0  0
 23 22  1  0  0  0  0
 24 25  2  0  0  0  0
 25 21  1  0  0  0  0
 26 27  1  0  0  0  0
M  END
>  <MODEL>
9

>  <REMARK>
 VINA RESULT:      -9.1      1.825      6.340
  Name = 
  3 active torsions:
  status: ('A' for Active; 'I' for Inactive)
    1  A    between atoms: C_9  and  C_15
    2  A    between atoms: C_13  and  O_22
    3  A    between atoms: C_14  and  C_17
                            x       y       z     vdW  Elec       q    Type
                         _______ _______ _______ _____ _____    ______ ____

>  <TORSDO>
F 3

$$$$
