=
 OpenBabel10262420353D

 55 63  0  0  1  0  0  0  0  0999 V2000
  186.4900  177.4710  137.8490 C   0  0  0  0  0  2  0  0  0  0  0  0
  185.6640  178.5610  140.4390 N   0  0  0  0  0  0  0  0  0  0  0  0
  184.6660  178.7320  139.3660 C   0  0  0  0  0  2  0  0  0  0  0  0
  187.5680  178.1410  138.6710 C   0  0  0  0  0  2  0  0  0  0  0  0
  185.0080  177.8660  138.0440 C   0  0  2  0  0  3  0  0  0  0  0  0
  187.0980  178.2680  140.1610 C   0  0  0  0  0  2  0  0  0  0  0  0
  184.3240  176.6350  137.8800 O   0  0  0  0  0  0  0  0  0  0  0  0
  184.3400  176.2060  136.5300 C   0  0  2  0  0  3  0  0  0  0  0  0
  181.3840  174.7020  134.9680 O   0  0  0  0  0  0  0  0  0  0  0  0
  182.3440  172.1550  134.8760 C   0  0  0  0  0  2  0  0  0  0  0  0
  181.8510  170.6720  134.9850 C   0  0  0  0  0  2  0  0  0  0  0  0
  184.2930  171.7740  136.4490 C   0  0  2  0  0  3  0  0  0  0  0  0
  184.2560  170.3580  135.7200 C   0  0  0  0  0  2  0  0  0  0  0  0
  182.9060  176.3730  135.7950 C   0  0  1  0  0  3  0  0  0  0  0  0
  182.8510  169.7190  135.5930 C   0  0  0  0  0  2  0  0  0  0  0  0
  183.1320  172.6240  136.0760 C   0  0  1  0  0  3  0  0  0  0  0  0
  185.6400  173.6410  136.9060 C   0  0  2  0  0  3  0  0  0  0  0  0
  185.5330  172.3700  136.2260 O   0  0  0  0  0  0  0  0  0  0  0  0
  182.4970  174.9800  135.5920 C   0  0  0  0  0  0  0  0  0  0  0  0
  183.4520  174.0580  135.8720 N   0  0  0  0  0  0  0  0  0  0  0  0
  184.6510  174.6340  136.4090 C   0  0  1  0  0  3  0  0  0  0  0  0
  188.2010  173.0640  136.9470 C   0  0  0  0  0  3  0  0  0  0  0  0
  189.8510  174.2420  135.4330 C   0  0  2  0  0  3  0  0  0  0  0  0
  187.4000  174.8300  135.3120 C   0  0  0  0  0  2  0  0  0  0  0  0
  188.8030  175.3850  135.4410 C   0  0  0  0  0  2  0  0  0  0  0  0
  189.4320  173.1370  136.3930 C   0  0  0  0  0  3  0  0  0  0  0  0
  187.0840  174.1130  136.6660 C   0  0  1  0  0  3  0  0  0  0  0  0
  191.0910  174.7520  135.8050 O   0  0  0  0  0  0  0  0  0  0  0  0
  191.1800  174.5170  137.1890 C   0  0  0  0  0  2  0  0  0  0  0  0
  191.5390  175.7450  137.9810 C   0  0  0  0  0  1  0  0  0  0  0  0
  181.8890  178.4050  136.1210 C   0  0  0  0  0  2  0  0  0  0  0  0
  180.9830  177.5780  135.5020 O   0  0  0  0  0  0  0  0  0  0  0  0
  181.7840  176.9960  136.4980 C   0  0  1  0  0  3  0  0  0  0  0  0
  185.6270  179.7260  141.3500 C   0  0  0  0  0  2  0  0  0  0  0  0
  185.1510  178.2750  143.3050 C   0  0  1  0  0  3  0  0  0  0  0  0
  183.7510  178.7570  142.8790 C   0  0  2  0  0  3  0  0  0  0  0  0
  184.9380  179.6890  142.7570 C   0  0  2  0  0  3  0  0  0  0  0  0
  181.3780  178.5160  143.9030 C   0  0  0  0  0  1  0  0  0  0  0  0
  182.8420  178.9410  144.1100 C   0  0  0  0  0  2  0  0  0  0  0  0
  185.4650  178.2240  144.8530 C   0  0  2  0  0  3  0  0  0  0  0  0
  185.4110  179.4720  145.5230 O   0  0  0  0  0  1  0  0  0  0  0  0
  190.5930  177.8110  143.0260 O   0  0  0  0  0  1  0  0  0  0  0  0
  188.5350  176.2680  148.1210 O   0  0  0  0  0  1  0  0  0  0  0  0
  186.7930  177.4570  145.0710 C   0  0  1  0  0  0  0  0  0  0  0  0
  186.9520  178.4140  147.3170 O   0  0  0  0  0  1  0  0  0  0  0  0
  187.4970  177.5160  146.3740 C   0  0  2  0  0  0  0  0  0  0  0  0
  188.9220  176.4910  144.0800 N   0  0  0  0  0  2  0  0  0  0  0  0
  189.9750  177.7570  146.7600 C   0  0  2  0  0  3  0  0  0  0  0  0
  189.7720  177.6840  144.1600 C   0  0  1  0  0  3  0  0  0  0  0  0
  188.7620  176.7950  146.8680 C   0  0  1  0  0  3  0  0  0  0  0  0
  186.5700  176.5350  146.0910 O   0  0  0  0  0  0  0  0  0  0  0  0
  190.6520  177.5530  145.3850 C   0  0  0  0  0  2  0  0  0  0  0  0
  187.5090  176.8360  143.8570 C   0  0  0  0  0  2  0  0  0  0  0  0
  190.9680  177.5340  147.9240 C   0  0  0  0  0  2  0  0  0  0  0  0
  191.9780  176.6480  147.5290 O   0  0  0  0  0  1  0  0  0  0  0  0
  1  5  1  0  0  0  0
  1  4  1  0  0  0  0
  2 34  1  0  0  0  0
  3  2  1  0  0  0  0
  4  6  1  0  0  0  0
  5  7  1  1  0  0  0
  5  3  1  0  0  0  0
  6  2  1  0  0  0  0
  8  7  1  1  0  0  0
  9 19  2  0  0  0  0
 10 11  1  0  0  0  0
 11 15  1  0  0  0  0
 12 13  1  6  0  0  0
 14 19  1  1  0  0  0
 14 33  1  0  0  0  0
 14  8  1  0  0  0  0
 15 13  1  0  0  0  0
 16 10  1  6  0  0  0
 16 12  1  0  0  0  0
 17 18  1  6  0  0  0
 18 12  1  0  0  0  0
 19 20  1  0  0  0  0
 20 16  1  0  0  0  0
 21 20  1  1  0  0  0
 21  8  1  0  0  0  0
 21 17  1  0  0  0  0
 23 25  1  0  0  0  0
 23 28  1  1  0  0  0
 23 26  1  0  0  0  0
 24 25  1  0  0  0  0
 26 22  2  0  0  0  0
 27 24  1  6  0  0  0
 27 17  1  0  0  0  0
 27 22  1  0  0  0  0
 28 29  1  0  0  0  0
 29 30  1  0  0  0  0
 32 31  1  0  0  0  0
 32 33  1  0  0  0  0
 33 31  1  1  0  0  0
 35 40  1  1  0  0  0
 36 35  1  0  0  0  0
 36 39  1  1  0  0  0
 37 34  1  6  0  0  0
 37 36  1  0  0  0  0
 37 35  1  0  0  0  0
 38 39  1  0  0  0  0
 40 41  1  6  0  0  0
 44 40  1  6  0  0  0
 44 51  1  0  0  0  0
 44 46  1  0  0  0  0
 46 50  1  0  0  0  0
 46 45  1  1  0  0  0
 47 49  1  0  0  0  0
 48 50  1  0  0  0  0
 48 54  1  1  0  0  0
 49 42  1  6  0  0  0
 49 52  1  0  0  0  0
 50 43  1  1  0  0  0
 51 46  1  0  0  0  0
 52 48  1  0  0  0  0
 53 47  1  0  0  0  0
 53 44  1  0  0  0  0
 55 54  1  0  0  0  0
M  END
>  <MODEL>
1

>  <REMARK>
 VINA RESULT:      -7.3      0.000      0.000
  Name = 
  12 active torsions:
  status: ('A' for Active; 'I' for Inactive)
    1  A    between atoms: C_2  and  O_28
    2  A    between atoms: C_6  and  C_20
    3  A    between atoms: C_8  and  C_43
    4  A    between atoms: O_10  and  C_18
    5  A    between atoms: O_10  and  C_32
    6  A    between atoms: C_11  and  C_29
    7  A    between atoms: C_19  and  C_37
    8  A    between atoms: C_20  and  C_22
    9  A    between atoms: N_27  and  C_54
   10  A    between atoms: O_28  and  C_44
   11  A    between atoms: C_33  and  C_52
   12  A    between atoms: C_51  and  C_54
                            x       y       z     vdW  Elec       q    Type
                         _______ _______ _______ _____ _____    ______ ____

>  <TORSDO>
F 12

$$$$
=
 OpenBabel10262420353D

 55 63  0  0  1  0  0  0  0  0999 V2000
  188.6470  178.1370  138.0650 C   0  0  0  0  0  2  0  0  0  0  0  0
  186.4440  176.5340  136.9920 N   0  0  0  0  0  0  0  0  0  0  0  0
  187.6490  175.7540  137.3300 C   0  0  0  0  0  2  0  0  0  0  0  0
  187.8370  178.7660  136.9540 C   0  0  0  0  0  2  0  0  0  0  0  0
  188.7250  176.5980  138.1920 C   0  0  2  0  0  3  0  0  0  0  0  0
  186.4730  178.0100  136.7980 C   0  0  0  0  0  2  0  0  0  0  0  0
  188.7360  176.3920  139.5950 O   0  0  0  0  0  0  0  0  0  0  0  0
  189.1570  177.5540  140.2880 C   0  0  2  0  0  3  0  0  0  0  0  0
  192.0780  177.5020  142.5040 O   0  0  0  0  0  0  0  0  0  0  0  0
  190.6940  177.6680  144.8450 C   0  0  0  0  0  2  0  0  0  0  0  0
  190.7640  177.1710  146.3280 C   0  0  0  0  0  2  0  0  0  0  0  0
  188.2520  177.0410  144.5980 C   0  0  2  0  0  3  0  0  0  0  0  0
  188.2590  177.4980  146.1230 C   0  0  0  0  0  2  0  0  0  0  0  0
  190.7630  177.6220  140.4920 C   0  0  1  0  0  3  0  0  0  0  0  0
  189.4210  176.9320  146.9760 C   0  0  0  0  0  2  0  0  0  0  0  0
  189.6220  176.9900  144.0240 C   0  0  1  0  0  3  0  0  0  0  0  0
  187.2820  177.4430  142.4980 C   0  0  2  0  0  3  0  0  0  0  0  0
  187.3640  177.8450  143.8850 O   0  0  0  0  0  0  0  0  0  0  0  0
  190.9000  177.4530  141.9410 C   0  0  0  0  0  0  0  0  0  0  0  0
  189.7340  177.4910  142.6330 N   0  0  0  0  0  0  0  0  0  0  0  0
  188.5800  177.5940  141.7880 C   0  0  1  0  0  3  0  0  0  0  0  0
  186.2090  178.4550  140.3260 C   0  0  0  0  0  3  0  0  0  0  0  0
  183.7650  179.1040  140.2310 C   0  0  2  0  0  3  0  0  0  0  0  0
  184.7160  178.1080  142.3470 C   0  0  0  0  0  2  0  0  0  0  0  0
  183.9070  179.2500  141.7690 C   0  0  0  0  0  2  0  0  0  0  0  0
  185.1200  178.8040  139.6050 C   0  0  0  0  0  3  0  0  0  0  0  0
  186.1920  178.3330  141.8780 C   0  0  1  0  0  3  0  0  0  0  0  0
  183.2470  180.2830  139.7030 O   0  0  0  0  0  0  0  0  0  0  0  0
  182.5420  179.8860  138.5530 C   0  0  0  0  0  2  0  0  0  0  0  0
  181.5020  180.8830  138.1170 C   0  0  0  0  0  1  0  0  0  0  0  0
  192.1130  177.2190  138.6790 C   0  0  0  0  0  2  0  0  0  0  0  0
  192.9000  177.1770  139.8040 O   0  0  0  0  0  0  0  0  0  0  0  0
  191.6260  176.5950  139.9090 C   0  0  1  0  0  3  0  0  0  0  0  0
  185.7860  175.9520  135.8010 C   0  0  0  0  0  2  0  0  0  0  0  0
  183.6520  174.9770  136.6090 C   0  0  1  0  0  3  0  0  0  0  0  0
  184.7160  174.0520  137.2300 C   0  0  2  0  0  3  0  0  0  0  0  0
  184.9380  174.6350  135.8510 C   0  0  2  0  0  3  0  0  0  0  0  0
  184.8170  171.6430  136.2690 C   0  0  0  0  0  1  0  0  0  0  0  0
  184.2000  172.6020  137.3020 C   0  0  0  0  0  2  0  0  0  0  0  0
  182.3530  174.3000  136.0150 C   0  0  2  0  0  3  0  0  0  0  0  0
  182.1680  174.4670  134.6190 O   0  0  0  0  0  1  0  0  0  0  0  0
  179.9830  173.6140  140.8840 O   0  0  0  0  0  1  0  0  0  0  0  0
  179.3500  177.9610  137.2410 O   0  0  0  0  0  1  0  0  0  0  0  0
  181.1300  174.7310  136.8610 C   0  0  1  0  0  0  0  0  0  0  0  0
  181.9450  177.0370  136.8270 O   0  0  0  0  0  1  0  0  0  0  0  0
  180.9080  176.1560  137.2020 C   0  0  2  0  0  0  0  0  0  0  0  0
  179.4140  174.1440  138.6390 N   0  0  0  0  0  2  0  0  0  0  0  0
  180.1650  177.0990  139.4170 C   0  0  2  0  0  3  0  0  0  0  0  0
  180.1820  174.5220  139.8310 C   0  0  1  0  0  3  0  0  0  0  0  0
  179.7500  176.8450  137.9420 C   0  0  1  0  0  3  0  0  0  0  0  0
  180.3660  175.5840  136.0700 O   0  0  0  0  0  0  0  0  0  0  0  0
  179.7170  175.8930  140.2750 C   0  0  0  0  0  2  0  0  0  0  0  0
  180.2830  173.6510  137.5590 C   0  0  0  0  0  2  0  0  0  0  0  0
  179.5700  178.4250  139.9420 C   0  0  0  0  0  2  0  0  0  0  0  0
  180.2770  178.8540  141.0720 O   0  0  0  0  0  1  0  0  0  0  0  0
  1  5  1  0  0  0  0
  2  3  1  0  0  0  0
  3  5  1  0  0  0  0
  4  1  1  0  0  0  0
  5  7  1  1  0  0  0
  6  4  1  0  0  0  0
  6  2  1  0  0  0  0
  8  7  1  1  0  0  0
  8 14  1  0  0  0  0
  8 21  1  0  0  0  0
 10 11  1  0  0  0  0
 11 15  1  0  0  0  0
 12 13  1  1  0  0  0
 13 15  1  0  0  0  0
 14 19  1  1  0  0  0
 16 12  1  0  0  0  0
 16 10  1  1  0  0  0
 17 18  1  1  0  0  0
 18 12  1  0  0  0  0
 19  9  2  0  0  0  0
 19 20  1  0  0  0  0
 20 16  1  0  0  0  0
 21 17  1  0  0  0  0
 21 20  1  1  0  0  0
 23 28  1  6  0  0  0
 23 25  1  0  0  0  0
 25 24  1  0  0  0  0
 26 23  1  0  0  0  0
 26 22  2  0  0  0  0
 27 22  1  6  0  0  0
 27 24  1  0  0  0  0
 27 17  1  0  0  0  0
 29 28  1  0  0  0  0
 30 29  1  0  0  0  0
 31 32  1  0  0  0  0
 32 33  1  0  0  0  0
 33 31  1  6  0  0  0
 33 14  1  0  0  0  0
 34  2  1  0  0  0  0
 35 40  1  6  0  0  0
 35 36  1  0  0  0  0
 36 39  1  6  0  0  0
 37 34  1  1  0  0  0
 37 35  1  0  0  0  0
 37 36  1  0  0  0  0
 38 39  1  0  0  0  0
 40 41  1  6  0  0  0
 44 40  1  6  0  0  0
 44 46  1  0  0  0  0
 44 53  1  0  0  0  0
 46 45  1  6  0  0  0
 46 50  1  0  0  0  0
 47 49  1  0  0  0  0
 48 54  1  1  0  0  0
 48 52  1  0  0  0  0
 49 52  1  0  0  0  0
 49 42  1  1  0  0  0
 50 43  1  6  0  0  0
 50 48  1  0  0  0  0
 51 44  1  0  0  0  0
 51 46  1  0  0  0  0
 53 47  1  0  0  0  0
 54 55  1  0  0  0  0
M  END
>  <MODEL>
2

>  <REMARK>
 VINA RESULT:      -7.2      2.575     10.206
  Name = 
  12 active torsions:
  status: ('A' for Active; 'I' for Inactive)
    1  A    between atoms: C_2  and  O_28
    2  A    between atoms: C_6  and  C_20
    3  A    between atoms: C_8  and  C_43
    4  A    between atoms: O_10  and  C_18
    5  A    between atoms: O_10  and  C_32
    6  A    between atoms: C_11  and  C_29
    7  A    between atoms: C_19  and  C_37
    8  A    between atoms: C_20  and  C_22
    9  A    between atoms: N_27  and  C_54
   10  A    between atoms: O_28  and  C_44
   11  A    between atoms: C_33  and  C_52
   12  A    between atoms: C_51  and  C_54
                            x       y       z     vdW  Elec       q    Type
                         _______ _______ _______ _____ _____    ______ ____

>  <TORSDO>
F 12

$$$$
=
 OpenBabel10262420353D

 55 63  0  0  1  0  0  0  0  0999 V2000
  181.8430  177.4880  139.0940 C   0  0  0  0  0  2  0  0  0  0  0  0
  184.0210  179.1230  140.1710 N   0  0  0  0  0  0  0  0  0  0  0  0
  184.3910  178.3330  138.9830 C   0  0  0  0  0  2  0  0  0  0  0  0
  181.9240  177.5920  140.6010 C   0  0  0  0  0  2  0  0  0  0  0  0
  183.1120  177.6840  138.2340 C   0  0  2  0  0  3  0  0  0  0  0  0
  182.8240  178.8120  141.0010 C   0  0  0  0  0  2  0  0  0  0  0  0
  182.6220  178.3580  137.0870 O   0  0  0  0  0  0  0  0  0  0  0  0
  182.7790  177.5750  135.9160 C   0  0  2  0  0  3  0  0  0  0  0  0
  180.2310  175.1490  134.8870 O   0  0  0  0  0  0  0  0  0  0  0  0
  181.6560  172.9150  135.5180 C   0  0  0  0  0  2  0  0  0  0  0  0
  181.4470  171.4590  136.0540 C   0  0  0  0  0  2  0  0  0  0  0  0
  183.5710  173.3800  137.1120 C   0  0  2  0  0  3  0  0  0  0  0  0
  183.8330  171.8360  136.8190 C   0  0  0  0  0  2  0  0  0  0  0  0
  181.3730  177.2470  135.1820 C   0  0  1  0  0  3  0  0  0  0  0  0
  182.5810  170.9290  136.8980 C   0  0  0  0  0  2  0  0  0  0  0  0
  182.2890  173.8490  136.5240 C   0  0  1  0  0  3  0  0  0  0  0  0
  184.5210  175.5240  136.9970 C   0  0  2  0  0  3  0  0  0  0  0  0
  184.6850  174.1160  136.7120 O   0  0  0  0  0  0  0  0  0  0  0  0
  181.2430  175.8020  135.3910 C   0  0  0  0  0  0  0  0  0  0  0  0
  182.3410  175.2000  135.9130 N   0  0  0  0  0  0  0  0  0  0  0  0
  183.3860  176.1240  136.2480 C   0  0  1  0  0  3  0  0  0  0  0  0
  187.1190  175.2680  136.7190 C   0  0  0  0  0  3  0  0  0  0  0  0
  188.4250  176.6850  135.0800 C   0  0  2  0  0  3  0  0  0  0  0  0
  185.9230  176.9700  135.2670 C   0  0  0  0  0  2  0  0  0  0  0  0
  187.2550  177.6900  135.2590 C   0  0  0  0  0  2  0  0  0  0  0  0
  188.2570  175.5090  136.0310 C   0  0  0  0  0  3  0  0  0  0  0  0
  185.8590  176.1780  136.6150 C   0  0  1  0  0  3  0  0  0  0  0  0
  189.6300  177.3340  135.3310 O   0  0  0  0  0  0  0  0  0  0  0  0
  190.4470  176.3620  135.9340 C   0  0  0  0  0  2  0  0  0  0  0  0
  191.6460  175.9920  135.1030 C   0  0  0  0  0  1  0  0  0  0  0  0
  179.9370  179.0110  134.8690 C   0  0  0  0  0  2  0  0  0  0  0  0
  179.2460  177.8560  134.5930 O   0  0  0  0  0  0  0  0  0  0  0  0
  180.1240  177.8150  135.6900 C   0  0  1  0  0  3  0  0  0  0  0  0
  185.1750  179.2180  141.0910 C   0  0  0  0  0  2  0  0  0  0  0  0
  187.1070  178.4350  142.4360 C   0  0  1  0  0  3  0  0  0  0  0  0
  187.7120  178.6240  141.0320 C   0  0  2  0  0  3  0  0  0  0  0  0
  186.2910  178.1220  141.1780 C   0  0  2  0  0  3  0  0  0  0  0  0
  189.0960  177.3030  139.2780 C   0  0  0  0  0  1  0  0  0  0  0  0
  188.8030  177.5680  140.7640 C   0  0  0  0  0  2  0  0  0  0  0  0
  187.5460  177.1560  143.2550 C   0  0  2  0  0  3  0  0  0  0  0  0
  186.4990  176.2600  143.5860 O   0  0  0  0  0  1  0  0  0  0  0  0
  187.7730  176.9260  148.7040 O   0  0  0  0  0  1  0  0  0  0  0  0
  192.0470  177.8560  145.0390 O   0  0  0  0  0  1  0  0  0  0  0  0
  188.3910  177.6050  144.4730 C   0  0  1  0  0  0  0  0  0  0  0  0
  190.2480  176.2340  143.6620 O   0  0  0  0  0  1  0  0  0  0  0  0
  189.8010  177.1730  144.6170 C   0  0  2  0  0  0  0  0  0  0  0  0
  188.4660  178.3190  146.9090 N   0  0  0  0  0  2  0  0  0  0  0  0
  190.9530  176.4010  146.7210 C   0  0  2  0  0  3  0  0  0  0  0  0
  188.5450  176.9930  147.5330 C   0  0  1  0  0  3  0  0  0  0  0  0
  190.8630  177.5380  145.6670 C   0  0  1  0  0  3  0  0  0  0  0  0
  189.4600  178.3460  143.9780 O   0  0  0  0  0  0  0  0  0  0  0  0
  189.9930  176.7250  147.8880 C   0  0  0  0  0  2  0  0  0  0  0  0
  187.6900  178.2930  145.6590 C   0  0  0  0  0  2  0  0  0  0  0  0
  192.4060  176.2140  147.2140 C   0  0  0  0  0  2  0  0  0  0  0  0
  192.4560  175.2140  148.1940 O   0  0  0  0  0  1  0  0  0  0  0  0
  1  4  1  0  0  0  0
  2  6  1  0  0  0  0
  2 34  1  0  0  0  0
  3  2  1  0  0  0  0
  4  6  1  0  0  0  0
  5  7  1  6  0  0  0
  5  3  1  0  0  0  0
  5  1  1  0  0  0  0
  8 21  1  0  0  0  0
  8  7  1  1  0  0  0
  9 19  2  0  0  0  0
 10 11  1  0  0  0  0
 11 15  1  0  0  0  0
 12 13  1  6  0  0  0
 13 15  1  0  0  0  0
 14 19  1  1  0  0  0
 14 33  1  0  0  0  0
 14  8  1  0  0  0  0
 16 10  1  6  0  0  0
 16 12  1  0  0  0  0
 17 18  1  6  0  0  0
 18 12  1  0  0  0  0
 19 20  1  0  0  0  0
 20 16  1  0  0  0  0
 21 20  1  1  0  0  0
 21 17  1  0  0  0  0
 23 25  1  0  0  0  0
 23 28  1  1  0  0  0
 23 26  1  0  0  0  0
 25 24  1  0  0  0  0
 26 22  2  0  0  0  0
 27 24  1  6  0  0  0
 27 22  1  0  0  0  0
 27 17  1  0  0  0  0
 28 29  1  0  0  0  0
 30 29  1  0  0  0  0
 32 31  1  0  0  0  0
 32 33  1  0  0  0  0
 33 31  1  6  0  0  0
 35 40  1  1  0  0  0
 36 39  1  1  0  0  0
 36 37  1  0  0  0  0
 36 35  1  0  0  0  0
 37 34  1  6  0  0  0
 37 35  1  0  0  0  0
 38 39  1  0  0  0  0
 40 41  1  1  0  0  0
 44 40  1  6  0  0  0
 44 46  1  0  0  0  0
 44 53  1  0  0  0  0
 46 45  1  6  0  0  0
 46 50  1  0  0  0  0
 47 49  1  0  0  0  0
 48 54  1  1  0  0  0
 48 52  1  0  0  0  0
 49 52  1  0  0  0  0
 49 42  1  1  0  0  0
 50 43  1  6  0  0  0
 50 48  1  0  0  0  0
 51 44  1  0  0  0  0
 51 46  1  0  0  0  0
 53 47  1  0  0  0  0
 54 55  1  0  0  0  0
M  END
>  <MODEL>
3

>  <REMARK>
 VINA RESULT:      -6.5      1.854      3.232
  Name = 
  12 active torsions:
  status: ('A' for Active; 'I' for Inactive)
    1  A    between atoms: C_2  and  O_28
    2  A    between atoms: C_6  and  C_20
    3  A    between atoms: C_8  and  C_43
    4  A    between atoms: O_10  and  C_18
    5  A    between atoms: O_10  and  C_32
    6  A    between atoms: C_11  and  C_29
    7  A    between atoms: C_19  and  C_37
    8  A    between atoms: C_20  and  C_22
    9  A    between atoms: N_27  and  C_54
   10  A    between atoms: O_28  and  C_44
   11  A    between atoms: C_33  and  C_52
   12  A    between atoms: C_51  and  C_54
                            x       y       z     vdW  Elec       q    Type
                         _______ _______ _______ _____ _____    ______ ____

>  <TORSDO>
F 12

$$$$
=
 OpenBabel10262420353D

 55 63  0  0  1  0  0  0  0  0999 V2000
  187.1850  179.5880  136.1190 C   0  0  0  0  0  2  0  0  0  0  0  0
  187.2450  176.6760  135.8100 N   0  0  0  0  0  0  0  0  0  0  0  0
  188.5000  177.2540  136.3240 C   0  0  0  0  0  2  0  0  0  0  0  0
  186.4720  179.0260  134.9100 C   0  0  0  0  0  2  0  0  0  0  0  0
  188.3460  178.8010  136.7700 C   0  0  2  0  0  3  0  0  0  0  0  0
  186.2140  177.4930  135.1120 C   0  0  0  0  0  2  0  0  0  0  0  0
  188.1750  179.0630  138.1530 O   0  0  0  0  0  0  0  0  0  0  0  0
  188.0270  177.8650  138.8950 C   0  0  2  0  0  3  0  0  0  0  0  0
  186.6060  177.8750  142.2750 O   0  0  0  0  0  0  0  0  0  0  0  0
  188.9360  177.3750  143.5930 C   0  0  0  0  0  2  0  0  0  0  0  0
  189.6620  177.7170  144.9380 C   0  0  0  0  0  2  0  0  0  0  0  0
  190.9910  177.8640  142.1930 C   0  0  2  0  0  3  0  0  0  0  0  0
  191.6870  177.2510  143.4870 C   0  0  0  0  0  2  0  0  0  0  0  0
  186.7340  177.8810  139.8720 C   0  0  1  0  0  3  0  0  0  0  0  0
  191.1660  177.8000  144.8390 C   0  0  0  0  0  2  0  0  0  0  0  0
  189.5300  178.0640  142.3880 C   0  0  1  0  0  3  0  0  0  0  0  0
  190.7470  177.6210  139.8700 C   0  0  2  0  0  3  0  0  0  0  0  0
  191.3170  177.0830  141.0860 O   0  0  0  0  0  0  0  0  0  0  0  0
  187.3490  177.9060  141.2020 C   0  0  0  0  0  0  0  0  0  0  0  0
  188.6930  177.7200  141.2120 N   0  0  0  0  0  0  0  0  0  0  0  0
  189.2610  177.6300  139.8980 C   0  0  1  0  0  3  0  0  0  0  0  0
  192.8350  176.6750  138.5900 C   0  0  0  0  0  3  0  0  0  0  0  0
  192.7590  174.4510  137.3870 C   0  0  2  0  0  3  0  0  0  0  0  0
  190.7190  175.2770  138.6220 C   0  0  0  0  0  2  0  0  0  0  0  0
  191.2330  174.7220  137.3110 C   0  0  0  0  0  2  0  0  0  0  0  0
  193.4780  175.6540  137.9810 C   0  0  0  0  0  3  0  0  0  0  0  0
  191.2860  176.7310  138.7380 C   0  0  1  0  0  3  0  0  0  0  0  0
  193.2430  174.1900  136.1090 O   0  0  0  0  0  0  0  0  0  0  0  0
  194.3400  173.3320  136.3040 C   0  0  0  0  0  2  0  0  0  0  0  0
  195.6570  173.9490  135.9200 C   0  0  0  0  0  1  0  0  0  0  0  0
  184.8180  178.6380  138.8580 C   0  0  0  0  0  2  0  0  0  0  0  0
  184.5540  178.4960  140.1980 O   0  0  0  0  0  0  0  0  0  0  0  0
  185.8140  179.0180  139.8600 C   0  0  1  0  0  3  0  0  0  0  0  0
  187.5450  175.5180  134.9400 C   0  0  0  0  0  2  0  0  0  0  0  0
  185.8400  174.1670  136.1340 C   0  0  1  0  0  3  0  0  0  0  0  0
  187.1650  173.6880  136.7570 C   0  0  2  0  0  3  0  0  0  0  0  0
  187.1130  174.0530  135.2890 C   0  0  2  0  0  3  0  0  0  0  0  0
  187.9400  171.2710  136.2140 C   0  0  0  0  0  1  0  0  0  0  0  0
  187.0900  172.1890  137.1080 C   0  0  0  0  0  2  0  0  0  0  0  0
  184.7490  173.0710  135.8080 C   0  0  2  0  0  3  0  0  0  0  0  0
  184.9430  172.3650  134.5940 O   0  0  0  0  0  1  0  0  0  0  0  0
  179.4180  171.9120  135.5900 O   0  0  0  0  0  1  0  0  0  0  0  0
  181.9620  176.3050  138.1970 O   0  0  0  0  0  1  0  0  0  0  0  0
  183.3420  173.7080  135.9390 C   0  0  1  0  0  0  0  0  0  0  0  0
  183.8230  174.2340  138.2800 O   0  0  0  0  0  1  0  0  0  0  0  0
  182.9230  174.3620  137.2000 C   0  0  2  0  0  0  0  0  0  0  0  0
  180.9040  173.7320  135.2330 N   0  0  0  0  0  2  0  0  0  0  0  0
  180.6810  174.1880  138.3380 C   0  0  2  0  0  3  0  0  0  0  0  0
  180.3810  172.7450  136.1850 C   0  0  1  0  0  3  0  0  0  0  0  0
  181.6380  175.1290  137.5570 C   0  0  1  0  0  3  0  0  0  0  0  0
  183.5300  175.0660  136.1820 O   0  0  0  0  0  0  0  0  0  0  0  0
  179.7350  173.4940  137.3320 C   0  0  0  0  0  2  0  0  0  0  0  0
  182.2930  173.4400  134.8450 C   0  0  0  0  0  2  0  0  0  0  0  0
  179.8940  174.9670  139.4170 C   0  0  0  0  0  2  0  0  0  0  0  0
  179.6790  174.1510  140.5350 O   0  0  0  0  0  1  0  0  0  0  0  0
  1  5  1  0  0  0  0
  2  3  1  0  0  0  0
  3  5  1  0  0  0  0
  4  6  1  0  0  0  0
  4  1  1  0  0  0  0
  5  7  1  1  0  0  0
  6  2  1  0  0  0  0
  8  7  1  1  0  0  0
  8 14  1  0  0  0  0
  8 21  1  0  0  0  0
 10 11  1  0  0  0  0
 12 16  1  0  0  0  0
 12 13  1  1  0  0  0
 13 15  1  0  0  0  0
 14 19  1  1  0  0  0
 15 11  1  0  0  0  0
 16 10  1  1  0  0  0
 17 21  1  0  0  0  0
 17 18  1  1  0  0  0
 18 12  1  0  0  0  0
 19 20  1  0  0  0  0
 19  9  2  0  0  0  0
 20 16  1  0  0  0  0
 21 20  1  1  0  0  0
 23 28  1  6  0  0  0
 23 26  1  0  0  0  0
 24 27  1  0  0  0  0
 25 23  1  0  0  0  0
 25 24  1  0  0  0  0
 26 22  2  0  0  0  0
 27 22  1  1  0  0  0
 27 17  1  0  0  0  0
 28 29  1  0  0  0  0
 30 29  1  0  0  0  0
 31 32  1  0  0  0  0
 33 31  1  6  0  0  0
 33 14  1  0  0  0  0
 33 32  1  0  0  0  0
 34  2  1  0  0  0  0
 35 40  1  6  0  0  0
 35 36  1  0  0  0  0
 36 39  1  6  0  0  0
 37 34  1  1  0  0  0
 37 35  1  0  0  0  0
 37 36  1  0  0  0  0
 38 39  1  0  0  0  0
 40 41  1  6  0  0  0
 44 40  1  1  0  0  0
 44 51  1  0  0  0  0
 44 46  1  0  0  0  0
 46 50  1  0  0  0  0
 46 45  1  1  0  0  0
 47 49  1  0  0  0  0
 48 54  1  1  0  0  0
 49 42  1  6  0  0  0
 49 52  1  0  0  0  0
 50 43  1  1  0  0  0
 50 48  1  0  0  0  0
 51 46  1  0  0  0  0
 52 48  1  0  0  0  0
 53 47  1  0  0  0  0
 53 44  1  0  0  0  0
 54 55  1  0  0  0  0
M  END
>  <MODEL>
4

>  <REMARK>
 VINA RESULT:      -6.1      2.831      9.367
  Name = 
  12 active torsions:
  status: ('A' for Active; 'I' for Inactive)
    1  A    between atoms: C_2  and  O_28
    2  A    between atoms: C_6  and  C_20
    3  A    between atoms: C_8  and  C_43
    4  A    between atoms: O_10  and  C_18
    5  A    between atoms: O_10  and  C_32
    6  A    between atoms: C_11  and  C_29
    7  A    between atoms: C_19  and  C_37
    8  A    between atoms: C_20  and  C_22
    9  A    between atoms: N_27  and  C_54
   10  A    between atoms: O_28  and  C_44
   11  A    between atoms: C_33  and  C_52
   12  A    between atoms: C_51  and  C_54
                            x       y       z     vdW  Elec       q    Type
                         _______ _______ _______ _____ _____    ______ ____

>  <TORSDO>
F 12

$$$$
=
 OpenBabel10262420353D

 55 63  0  0  1  0  0  0  0  0999 V2000
  181.7210  177.9470  138.4430 C   0  0  0  0  0  2  0  0  0  0  0  0
  183.9720  179.1510  139.8800 N   0  0  0  0  0  0  0  0  0  0  0  0
  184.3690  178.1980  138.8260 C   0  0  0  0  0  2  0  0  0  0  0  0
  181.5340  178.1610  139.9280 C   0  0  0  0  0  2  0  0  0  0  0  0
  183.1430  177.7850  137.8570 C   0  0  2  0  0  3  0  0  0  0  0  0
  182.5990  179.1820  140.4570 C   0  0  0  0  0  2  0  0  0  0  0  0
  183.0520  178.4490  136.6070 O   0  0  0  0  0  0  0  0  0  0  0  0
  182.7910  177.5390  135.5520 C   0  0  2  0  0  3  0  0  0  0  0  0
  179.5070  175.9550  135.1670 O   0  0  0  0  0  0  0  0  0  0  0  0
  180.2710  173.4620  135.9570 C   0  0  0  0  0  2  0  0  0  0  0  0
  179.7140  172.2120  136.7180 C   0  0  0  0  0  2  0  0  0  0  0  0
  182.4500  173.4580  137.2500 C   0  0  2  0  0  3  0  0  0  0  0  0
  182.1890  171.8890  137.1570 C   0  0  0  0  0  2  0  0  0  0  0  0
  181.2580  177.6000  135.0300 C   0  0  1  0  0  3  0  0  0  0  0  0
  180.7470  171.4400  137.5010 C   0  0  0  0  0  2  0  0  0  0  0  0
  181.2960  174.2460  136.7420 C   0  0  1  0  0  3  0  0  0  0  0  0
  183.9740  175.1650  136.7240 C   0  0  2  0  0  3  0  0  0  0  0  0
  183.6620  173.7560  136.6290 O   0  0  0  0  0  0  0  0  0  0  0  0
  180.7320  176.3010  135.4590 C   0  0  0  0  0  0  0  0  0  0  0  0
  181.6630  175.4390  135.9400 N   0  0  0  0  0  0  0  0  0  0  0  0
  182.9740  176.0130  136.0230 C   0  0  1  0  0  3  0  0  0  0  0  0
  186.2560  176.4620  136.6890 C   0  0  0  0  0  3  0  0  0  0  0  0
  188.4020  175.3510  135.9380 C   0  0  2  0  0  3  0  0  0  0  0  0
  186.2530  174.0280  135.9740 C   0  0  0  0  0  2  0  0  0  0  0  0
  187.4550  174.4170  135.1390 C   0  0  0  0  0  2  0  0  0  0  0  0
  187.6050  176.4660  136.6010 C   0  0  0  0  0  3  0  0  0  0  0  0
  185.3740  175.3160  136.1090 C   0  0  1  0  0  3  0  0  0  0  0  0
  189.3500  175.8920  135.0740 O   0  0  0  0  0  0  0  0  0  0  0  0
  190.2500  174.8420  134.8200 C   0  0  0  0  0  2  0  0  0  0  0  0
  191.0190  174.4060  136.0380 C   0  0  0  0  0  1  0  0  0  0  0  0
  180.3810  179.6810  134.6140 C   0  0  0  0  0  2  0  0  0  0  0  0
  179.3450  178.7790  134.5980 O   0  0  0  0  0  0  0  0  0  0  0  0
  180.3280  178.5850  135.5820 C   0  0  1  0  0  3  0  0  0  0  0  0
  184.9180  179.0680  141.0140 C   0  0  0  0  0  2  0  0  0  0  0  0
  184.9470  178.0540  143.2780 C   0  0  1  0  0  3  0  0  0  0  0  0
  183.4500  178.3290  143.0380 C   0  0  2  0  0  3  0  0  0  0  0  0
  184.4870  179.2930  142.5040 C   0  0  2  0  0  3  0  0  0  0  0  0
  181.2130  178.7120  144.2960 C   0  0  0  0  0  1  0  0  0  0  0  0
  182.7490  178.7130  144.3550 C   0  0  0  0  0  2  0  0  0  0  0  0
  185.5240  178.3680  144.7150 C   0  0  2  0  0  3  0  0  0  0  0  0
  185.6700  179.7450  145.0210 O   0  0  0  0  0  1  0  0  0  0  0  0
  190.6620  177.8100  142.9570 O   0  0  0  0  0  1  0  0  0  0  0  0
  188.4590  176.1870  147.9650 O   0  0  0  0  0  1  0  0  0  0  0  0
  186.8170  177.5420  144.9290 C   0  0  1  0  0  0  0  0  0  0  0  0
  186.9750  178.4200  147.2070 O   0  0  0  0  0  1  0  0  0  0  0  0
  187.5010  177.5320  146.2440 C   0  0  2  0  0  0  0  0  0  0  0  0
  188.9230  176.5250  143.9400 N   0  0  0  0  0  2  0  0  0  0  0  0
  189.9800  177.6610  146.6770 C   0  0  2  0  0  3  0  0  0  0  0  0
  189.8180  177.6800  144.0720 C   0  0  1  0  0  3  0  0  0  0  0  0
  188.7270  176.7450  146.7340 C   0  0  1  0  0  3  0  0  0  0  0  0
  186.5410  176.5980  145.9140 O   0  0  0  0  0  0  0  0  0  0  0  0
  190.6710  177.4750  145.3070 C   0  0  0  0  0  2  0  0  0  0  0  0
  187.5290  176.9330  143.7070 C   0  0  0  0  0  2  0  0  0  0  0  0
  190.9420  177.3610  147.8480 C   0  0  0  0  0  2  0  0  0  0  0  0
  191.6360  176.1680  147.6050 O   0  0  0  0  0  1  0  0  0  0  0  0
  1  4  1  0  0  0  0
  2  6  1  0  0  0  0
  2 34  1  0  0  0  0
  3  2  1  0  0  0  0
  4  6  1  0  0  0  0
  5  7  1  6  0  0  0
  5  1  1  0  0  0  0
  5  3  1  0  0  0  0
  8 21  1  0  0  0  0
  8  7  1  1  0  0  0
  9 19  2  0  0  0  0
 10 11  1  0  0  0  0
 11 15  1  0  0  0  0
 12 13  1  6  0  0  0
 13 15  1  0  0  0  0
 14 19  1  1  0  0  0
 14  8  1  0  0  0  0
 14 33  1  0  0  0  0
 16 10  1  6  0  0  0
 16 12  1  0  0  0  0
 17 18  1  6  0  0  0
 18 12  1  0  0  0  0
 19 20  1  0  0  0  0
 20 16  1  0  0  0  0
 21 20  1  1  0  0  0
 21 17  1  0  0  0  0
 23 28  1  6  0  0  0
 23 26  1  0  0  0  0
 25 23  1  0  0  0  0
 25 24  1  0  0  0  0
 26 22  2  0  0  0  0
 27 24  1  1  0  0  0
 27 22  1  0  0  0  0
 27 17  1  0  0  0  0
 29 28  1  0  0  0  0
 29 30  1  0  0  0  0
 32 31  1  0  0  0  0
 32 33  1  0  0  0  0
 33 31  1  6  0  0  0
 35 40  1  1  0  0  0
 36 35  1  0  0  0  0
 36 39  1  1  0  0  0
 37 34  1  6  0  0  0
 37 36  1  0  0  0  0
 37 35  1  0  0  0  0
 38 39  1  0  0  0  0
 40 41  1  6  0  0  0
 44 40  1  6  0  0  0
 44 51  1  0  0  0  0
 44 46  1  0  0  0  0
 46 50  1  0  0  0  0
 46 45  1  1  0  0  0
 47 49  1  0  0  0  0
 48 50  1  0  0  0  0
 48 54  1  1  0  0  0
 49 42  1  6  0  0  0
 49 52  1  0  0  0  0
 50 43  1  1  0  0  0
 51 46  1  0  0  0  0
 52 48  1  0  0  0  0
 53 47  1  0  0  0  0
 53 44  1  0  0  0  0
 55 54  1  0  0  0  0
M  END
>  <MODEL>
5

>  <REMARK>
 VINA RESULT:      -5.9      1.507      2.208
  Name = 
  12 active torsions:
  status: ('A' for Active; 'I' for Inactive)
    1  A    between atoms: C_2  and  O_28
    2  A    between atoms: C_6  and  C_20
    3  A    between atoms: C_8  and  C_43
    4  A    between atoms: O_10  and  C_18
    5  A    between atoms: O_10  and  C_32
    6  A    between atoms: C_11  and  C_29
    7  A    between atoms: C_19  and  C_37
    8  A    between atoms: C_20  and  C_22
    9  A    between atoms: N_27  and  C_54
   10  A    between atoms: O_28  and  C_44
   11  A    between atoms: C_33  and  C_52
   12  A    between atoms: C_51  and  C_54
                            x       y       z     vdW  Elec       q    Type
                         _______ _______ _______ _____ _____    ______ ____

>  <TORSDO>
F 12

$$$$
=
 OpenBabel10262420353D

 55 63  0  0  1  0  0  0  0  0999 V2000
  187.6640  179.7270  136.8630 C   0  0  0  0  0  2  0  0  0  0  0  0
  187.0770  176.8750  136.5460 N   0  0  0  0  0  0  0  0  0  0  0  0
  188.4790  177.1670  136.8980 C   0  0  0  0  0  2  0  0  0  0  0  0
  186.7050  179.3570  135.7530 C   0  0  0  0  0  2  0  0  0  0  0  0
  188.7060  178.6990  137.3610 C   0  0  2  0  0  3  0  0  0  0  0  0
  186.1600  177.9060  135.9850 C   0  0  0  0  0  2  0  0  0  0  0  0
  188.7660  178.9530  138.7550 O   0  0  0  0  0  0  0  0  0  0  0  0
  188.4980  177.7830  139.5090 C   0  0  2  0  0  3  0  0  0  0  0  0
  186.7620  177.9470  142.7340 O   0  0  0  0  0  0  0  0  0  0  0  0
  188.9330  177.3930  144.2830 C   0  0  0  0  0  2  0  0  0  0  0  0
  189.5410  177.7450  145.6820 C   0  0  0  0  0  2  0  0  0  0  0  0
  191.1310  177.7600  143.0760 C   0  0  2  0  0  3  0  0  0  0  0  0
  191.6740  177.1580  144.4460 C   0  0  0  0  0  2  0  0  0  0  0  0
  187.1200  177.8790  140.3550 C   0  0  1  0  0  3  0  0  0  0  0  0
  191.0500  177.7650  145.7270 C   0  0  0  0  0  2  0  0  0  0  0  0
  189.6680  178.0240  143.1240 C   0  0  1  0  0  3  0  0  0  0  0  0
  191.1000  177.4600  140.7480 C   0  0  2  0  0  3  0  0  0  0  0  0
  191.5280  176.9350  142.0250 O   0  0  0  0  0  0  0  0  0  0  0  0
  187.6060  177.9180  141.7370 C   0  0  0  0  0  0  0  0  0  0  0  0
  188.9330  177.6790  141.8820 N   0  0  0  0  0  0  0  0  0  0  0  0
  189.6190  177.5290  140.6320 C   0  0  1  0  0  3  0  0  0  0  0  0
  190.6910  175.6840  138.8580 C   0  0  0  0  0  3  0  0  0  0  0  0
  192.3390  175.3550  136.9660 C   0  0  2  0  0  3  0  0  0  0  0  0
  192.7880  177.1060  138.7280 C   0  0  0  0  0  2  0  0  0  0  0  0
  193.3700  175.9290  137.9740 C   0  0  0  0  0  2  0  0  0  0  0  0
  190.9890  175.1690  137.6440 C   0  0  0  0  0  3  0  0  0  0  0  0
  191.7060  176.5180  139.6950 C   0  0  1  0  0  3  0  0  0  0  0  0
  192.8010  174.1360  136.4800 O   0  0  0  0  0  0  0  0  0  0  0  0
  191.6410  173.3890  136.2090 C   0  0  0  0  0  2  0  0  0  0  0  0
  191.6790  172.6890  134.8780 C   0  0  0  0  0  1  0  0  0  0  0  0
  185.1490  178.5670  139.3990 C   0  0  0  0  0  2  0  0  0  0  0  0
  185.0120  178.6710  140.7620 O   0  0  0  0  0  0  0  0  0  0  0  0
  186.2540  179.0510  140.2260 C   0  0  1  0  0  3  0  0  0  0  0  0
  187.0180  175.7040  135.6440 C   0  0  0  0  0  2  0  0  0  0  0  0
  184.7620  175.1840  136.5360 C   0  0  1  0  0  3  0  0  0  0  0  0
  185.6540  174.1190  137.2010 C   0  0  2  0  0  3  0  0  0  0  0  0
  185.9470  174.5690  135.7860 C   0  0  2  0  0  3  0  0  0  0  0  0
  185.2200  171.7140  136.3270 C   0  0  0  0  0  1  0  0  0  0  0  0
  184.8850  172.7940  137.3690 C   0  0  0  0  0  2  0  0  0  0  0  0
  183.3480  174.7220  136.0010 C   0  0  2  0  0  3  0  0  0  0  0  0
  183.2510  174.5800  134.5940 O   0  0  0  0  0  1  0  0  0  0  0  0
  181.9010  177.2850  140.5990 O   0  0  0  0  0  1  0  0  0  0  0  0
  180.3170  178.4870  135.2500 O   0  0  0  0  0  1  0  0  0  0  0  0
  182.2560  175.6350  136.6110 C   0  0  1  0  0  0  0  0  0  0  0  0
  182.8690  177.3920  135.0240 O   0  0  0  0  0  1  0  0  0  0  0  0
  181.9830  176.9750  136.0410 C   0  0  2  0  0  0  0  0  0  0  0  0
  180.9190  176.3430  138.6510 N   0  0  0  0  0  2  0  0  0  0  0  0
  181.5550  179.1130  137.3030 C   0  0  2  0  0  3  0  0  0  0  0  0
  181.8460  177.3410  139.1960 C   0  0  1  0  0  3  0  0  0  0  0  0
  180.9180  178.0240  136.3990 C   0  0  1  0  0  3  0  0  0  0  0  0
  181.3040  175.8520  135.6200 O   0  0  0  0  0  0  0  0  0  0  0  0
  181.3560  178.7130  138.7830 C   0  0  0  0  0  2  0  0  0  0  0  0
  181.6280  175.2520  137.9640 C   0  0  0  0  0  2  0  0  0  0  0  0
  180.9550  180.5060  137.0030 C   0  0  0  0  0  2  0  0  0  0  0  0
  181.5030  181.4610  137.8680 O   0  0  0  0  0  1  0  0  0  0  0  0
  1  5  1  0  0  0  0
  2  3  1  0  0  0  0
  3  5  1  0  0  0  0
  4  6  1  0  0  0  0
  4  1  1  0  0  0  0
  5  7  1  1  0  0  0
  6  2  1  0  0  0  0
  8  7  1  1  0  0  0
  8 14  1  0  0  0  0
  8 21  1  0  0  0  0
 10 11  1  0  0  0  0
 11 15  1  0  0  0  0
 12 16  1  0  0  0  0
 12 13  1  1  0  0  0
 13 15  1  0  0  0  0
 14 19  1  1  0  0  0
 16 10  1  1  0  0  0
 17 18  1  1  0  0  0
 18 12  1  0  0  0  0
 19 20  1  0  0  0  0
 19  9  2  0  0  0  0
 20 16  1  0  0  0  0
 21 17  1  0  0  0  0
 21 20  1  1  0  0  0
 22 27  1  0  0  0  0
 23 28  1  1  0  0  0
 23 26  1  0  0  0  0
 23 25  1  0  0  0  0
 25 24  1  0  0  0  0
 26 22  2  0  0  0  0
 27 24  1  6  0  0  0
 27 17  1  0  0  0  0
 29 28  1  0  0  0  0
 30 29  1  0  0  0  0
 31 32  1  0  0  0  0
 33 31  1  6  0  0  0
 33 14  1  0  0  0  0
 33 32  1  0  0  0  0
 34  2  1  0  0  0  0
 35 40  1  6  0  0  0
 35 36  1  0  0  0  0
 36 39  1  6  0  0  0
 37 34  1  1  0  0  0
 37 35  1  0  0  0  0
 37 36  1  0  0  0  0
 38 39  1  0  0  0  0
 40 41  1  6  0  0  0
 44 40  1  6  0  0  0
 44 53  1  0  0  0  0
 46 45  1  6  0  0  0
 46 50  1  0  0  0  0
 46 44  1  0  0  0  0
 47 49  1  0  0  0  0
 48 54  1  1  0  0  0
 48 52  1  0  0  0  0
 49 42  1  1  0  0  0
 50 43  1  6  0  0  0
 50 48  1  0  0  0  0
 51 46  1  0  0  0  0
 51 44  1  0  0  0  0
 52 49  1  0  0  0  0
 53 47  1  0  0  0  0
 54 55  1  0  0  0  0
M  END
>  <MODEL>
6

>  <REMARK>
 VINA RESULT:      -5.8      2.642      9.225
  Name = 
  12 active torsions:
  status: ('A' for Active; 'I' for Inactive)
    1  A    between atoms: C_2  and  O_28
    2  A    between atoms: C_6  and  C_20
    3  A    between atoms: C_8  and  C_43
    4  A    between atoms: O_10  and  C_18
    5  A    between atoms: O_10  and  C_32
    6  A    between atoms: C_11  and  C_29
    7  A    between atoms: C_19  and  C_37
    8  A    between atoms: C_20  and  C_22
    9  A    between atoms: N_27  and  C_54
   10  A    between atoms: O_28  and  C_44
   11  A    between atoms: C_33  and  C_52
   12  A    between atoms: C_51  and  C_54
                            x       y       z     vdW  Elec       q    Type
                         _______ _______ _______ _____ _____    ______ ____

>  <TORSDO>
F 12

$$$$
=
 OpenBabel10262420353D

 55 63  0  0  1  0  0  0  0  0999 V2000
  183.4000  178.8000  140.9350 C   0  0  0  0  0  2  0  0  0  0  0  0
  184.5210  177.6350  138.4930 N   0  0  0  0  0  0  0  0  0  0  0  0
  184.8980  179.0430  138.7180 C   0  0  0  0  0  2  0  0  0  0  0  0
  182.5030  177.8540  140.1690 C   0  0  0  0  0  2  0  0  0  0  0  0
  184.5260  179.5650  140.2030 C   0  0  2  0  0  3  0  0  0  0  0  0
  183.3620  176.9970  139.1760 C   0  0  0  0  0  2  0  0  0  0  0  0
  185.5710  179.5930  141.1610 O   0  0  0  0  0  0  0  0  0  0  0  0
  185.8680  178.2950  141.6450 C   0  0  2  0  0  3  0  0  0  0  0  0
  186.7000  177.7150  145.1680 O   0  0  0  0  0  0  0  0  0  0  0  0
  189.3530  177.2290  144.7840 C   0  0  0  0  0  2  0  0  0  0  0  0
  190.7340  177.4380  145.4910 C   0  0  0  0  0  2  0  0  0  0  0  0
  190.2020  178.0770  142.5530 C   0  0  2  0  0  3  0  0  0  0  0  0
  191.5160  177.3490  143.0820 C   0  0  0  0  0  2  0  0  0  0  0  0
  185.3940  178.0680  143.1770 C   0  0  1  0  0  3  0  0  0  0  0  0
  191.8950  177.6580  144.5510 C   0  0  0  0  0  2  0  0  0  0  0  0
  189.1370  178.1270  143.5890 C   0  0  1  0  0  3  0  0  0  0  0  0
  188.6390  178.1420  140.8030 C   0  0  2  0  0  3  0  0  0  0  0  0
  189.8050  177.4880  141.3540 O   0  0  0  0  0  0  0  0  0  0  0  0
  186.6730  177.9570  143.8850 C   0  0  0  0  0  0  0  0  0  0  0  0
  187.7640  177.8830  143.0820 N   0  0  0  0  0  0  0  0  0  0  0  0
  187.4520  178.0250  141.6900 C   0  0  1  0  0  3  0  0  0  0  0  0
  188.1370  178.4240  138.2410 C   0  0  0  0  0  3  0  0  0  0  0  0
  188.8560  176.6870  136.5480 C   0  0  2  0  0  3  0  0  0  0  0  0
  189.4040  176.3580  138.9900 C   0  0  0  0  0  2  0  0  0  0  0  0
  188.8050  175.7160  137.7570 C   0  0  0  0  0  2  0  0  0  0  0  0
  188.3420  178.0610  136.9560 C   0  0  0  0  0  3  0  0  0  0  0  0
  188.3970  177.4670  139.4420 C   0  0  1  0  0  3  0  0  0  0  0  0
  188.0790  176.1740  135.5140 O   0  0  0  0  0  0  0  0  0  0  0  0
  187.9520  174.8040  135.8000 C   0  0  0  0  0  2  0  0  0  0  0  0
  188.4360  173.9140  134.6870 C   0  0  0  0  0  1  0  0  0  0  0  0
  183.2740  178.6490  143.8400 C   0  0  0  0  0  2  0  0  0  0  0  0
  184.0350  178.4790  144.9720 O   0  0  0  0  0  0  0  0  0  0  0  0
  184.6600  179.1160  143.8860 C   0  0  1  0  0  3  0  0  0  0  0  0
  184.3660  177.3820  137.0450 C   0  0  0  0  0  2  0  0  0  0  0  0
  181.8900  177.5450  137.0490 C   0  0  1  0  0  3  0  0  0  0  0  0
  182.1430  176.0620  137.3790 C   0  0  2  0  0  3  0  0  0  0  0  0
  183.0600  176.7850  136.4160 C   0  0  2  0  0  3  0  0  0  0  0  0
  180.8210  173.8300  137.4790 C   0  0  0  0  0  1  0  0  0  0  0  0
  181.0440  175.1740  136.7640 C   0  0  0  0  0  2  0  0  0  0  0  0
  180.7180  177.8800  136.0430 C   0  0  2  0  0  3  0  0  0  0  0  0
  181.0760  177.8650  134.6710 O   0  0  0  0  0  1  0  0  0  0  0  0
  180.0590  181.1900  140.3330 O   0  0  0  0  0  1  0  0  0  0  0  0
  179.4600  182.4400  134.7980 O   0  0  0  0  0  1  0  0  0  0  0  0
  180.0280  179.1920  136.4930 C   0  0  1  0  0  0  0  0  0  0  0  0
  181.3910  180.4340  134.8850 O   0  0  0  0  0  1  0  0  0  0  0  0
  180.3420  180.4780  135.8290 C   0  0  2  0  0  0  0  0  0  0  0  0
  178.9310  180.5320  138.3490 N   0  0  0  0  0  2  0  0  0  0  0  0
  180.6930  182.7180  136.9290 C   0  0  2  0  0  3  0  0  0  0  0  0
  180.1320  181.1410  138.9310 C   0  0  1  0  0  3  0  0  0  0  0  0
  179.7480  181.8830  136.0240 C   0  0  1  0  0  3  0  0  0  0  0  0
  179.3100  179.6700  135.4010 O   0  0  0  0  0  0  0  0  0  0  0  0
  180.2480  182.5550  138.4000 C   0  0  0  0  0  2  0  0  0  0  0  0
  179.2040  179.1980  137.7940 C   0  0  0  0  0  2  0  0  0  0  0  0
  180.7080  184.2020  136.4990 C   0  0  0  0  0  2  0  0  0  0  0  0
  181.8520  184.8360  136.9990 O   0  0  0  0  0  1  0  0  0  0  0  0
  2  3  1  0  0  0  0
  2  6  1  0  0  0  0
  3  5  1  0  0  0  0
  4  1  1  0  0  0  0
  5  1  1  0  0  0  0
  5  7  1  1  0  0  0
  6  4  1  0  0  0  0
  8  7  1  1  0  0  0
  8 21  1  0  0  0  0
  8 14  1  0  0  0  0
 10 11  1  0  0  0  0
 12 13  1  1  0  0  0
 12 16  1  0  0  0  0
 13 15  1  0  0  0  0
 14 19  1  1  0  0  0
 14 33  1  0  0  0  0
 15 11  1  0  0  0  0
 16 10  1  1  0  0  0
 17 18  1  1  0  0  0
 17 21  1  0  0  0  0
 18 12  1  0  0  0  0
 19  9  2  0  0  0  0
 20 16  1  0  0  0  0
 20 19  1  0  0  0  0
 21 20  1  1  0  0  0
 23 28  1  6  0  0  0
 23 26  1  0  0  0  0
 23 25  1  0  0  0  0
 24 27  1  0  0  0  0
 25 24  1  0  0  0  0
 26 22  2  0  0  0  0
 27 22  1  6  0  0  0
 27 17  1  0  0  0  0
 28 29  1  0  0  0  0
 30 29  1  0  0  0  0
 31 32  1  0  0  0  0
 33 31  1  6  0  0  0
 33 32  1  0  0  0  0
 34  2  1  0  0  0  0
 35 40  1  6  0  0  0
 35 36  1  0  0  0  0
 36 39  1  6  0  0  0
 37 34  1  1  0  0  0
 37 35  1  0  0  0  0
 37 36  1  0  0  0  0
 39 38  1  0  0  0  0
 40 41  1  6  0  0  0
 44 40  1  6  0  0  0
 44 53  1  0  0  0  0
 46 45  1  6  0  0  0
 46 50  1  0  0  0  0
 46 44  1  0  0  0  0
 47 49  1  0  0  0  0
 48 54  1  6  0  0  0
 48 52  1  0  0  0  0
 49 42  1  1  0  0  0
 50 43  1  6  0  0  0
 50 48  1  0  0  0  0
 51 46  1  0  0  0  0
 51 44  1  0  0  0  0
 52 49  1  0  0  0  0
 53 47  1  0  0  0  0
 54 55  1  0  0  0  0
M  END
>  <MODEL>
7

>  <REMARK>
 VINA RESULT:      -5.4      2.880      9.806
  Name = 
  12 active torsions:
  status: ('A' for Active; 'I' for Inactive)
    1  A    between atoms: C_2  and  O_28
    2  A    between atoms: C_6  and  C_20
    3  A    between atoms: C_8  and  C_43
    4  A    between atoms: O_10  and  C_18
    5  A    between atoms: O_10  and  C_32
    6  A    between atoms: C_11  and  C_29
    7  A    between atoms: C_19  and  C_37
    8  A    between atoms: C_20  and  C_22
    9  A    between atoms: N_27  and  C_54
   10  A    between atoms: O_28  and  C_44
   11  A    between atoms: C_33  and  C_52
   12  A    between atoms: C_51  and  C_54
                            x       y       z     vdW  Elec       q    Type
                         _______ _______ _______ _____ _____    ______ ____

>  <TORSDO>
F 12

$$$$
=
 OpenBabel10262420353D

 55 63  0  0  1  0  0  0  0  0999 V2000
  187.3330  178.0290  136.0360 C   0  0  0  0  0  2  0  0  0  0  0  0
  188.1630  177.1500  138.7030 N   0  0  0  0  0  0  0  0  0  0  0  0
  186.7060  177.3130  138.5480 C   0  0  0  0  0  2  0  0  0  0  0  0
  188.6070  178.6370  136.5770 C   0  0  0  0  0  2  0  0  0  0  0  0
  186.2530  177.4990  137.0070 C   0  0  2  0  0  3  0  0  0  0  0  0
  189.1430  177.7710  137.7690 C   0  0  0  0  0  2  0  0  0  0  0  0
  185.7510  176.3550  136.3360 O   0  0  0  0  0  0  0  0  0  0  0  0
  185.3810  175.3370  137.2500 C   0  0  2  0  0  3  0  0  0  0  0  0
  185.4890  171.7950  136.3080 O   0  0  0  0  0  0  0  0  0  0  0  0
  182.7930  171.4320  136.1590 C   0  0  0  0  0  2  0  0  0  0  0  0
  181.7260  170.6220  135.3490 C   0  0  0  0  0  2  0  0  0  0  0  0
  181.5110  173.6070  135.9520 C   0  0  2  0  0  3  0  0  0  0  0  0
  180.2930  172.5860  136.0630 C   0  0  0  0  0  2  0  0  0  0  0  0
  186.2210  173.9670  137.0440 C   0  0  1  0  0  3  0  0  0  0  0  0
  180.4040  171.3280  135.1680 C   0  0  0  0  0  2  0  0  0  0  0  0
  182.8160  172.9060  135.8320 C   0  0  1  0  0  3  0  0  0  0  0  0
  182.5030  175.4960  136.9310 C   0  0  2  0  0  3  0  0  0  0  0  0
  181.4440  174.5130  137.0090 O   0  0  0  0  0  0  0  0  0  0  0  0
  185.1950  173.0450  136.5490 C   0  0  0  0  0  0  0  0  0  0  0  0
  183.9260  173.5220  136.6010 N   0  0  0  0  0  0  0  0  0  0  0  0
  183.8520  174.8830  137.0470 C   0  0  1  0  0  3  0  0  0  0  0  0
  182.0610  177.9760  137.6720 C   0  0  0  0  0  3  0  0  0  0  0  0
  180.7510  178.5230  139.7660 C   0  0  2  0  0  3  0  0  0  0  0  0
  181.1060  176.1130  139.1040 C   0  0  0  0  0  2  0  0  0  0  0  0
  181.2120  177.1170  140.2330 C   0  0  0  0  0  2  0  0  0  0  0  0
  181.4030  178.8750  138.4360 C   0  0  0  0  0  3  0  0  0  0  0  0
  182.2300  176.4820  138.0790 C   0  0  1  0  0  3  0  0  0  0  0  0
  181.0970  179.4640  140.7310 O   0  0  0  0  0  0  0  0  0  0  0  0
  179.8730  179.9930  141.1780 C   0  0  0  0  0  2  0  0  0  0  0  0
  179.4460  181.2250  140.4270 C   0  0  0  0  0  1  0  0  0  0  0  0
  188.4880  174.2560  136.8260 C   0  0  0  0  0  2  0  0  0  0  0  0
  188.2040  172.9430  136.5380 O   0  0  0  0  0  0  0  0  0  0  0  0
  187.2960  173.9010  136.0550 C   0  0  1  0  0  3  0  0  0  0  0  0
  188.5680  177.5300  140.0740 C   0  0  0  0  0  2  0  0  0  0  0  0
  190.0820  177.9000  142.0050 C   0  0  1  0  0  3  0  0  0  0  0  0
  190.9980  178.1450  140.7910 C   0  0  2  0  0  3  0  0  0  0  0  0
  189.9240  177.0810  140.7200 C   0  0  2  0  0  3  0  0  0  0  0  0
  193.2020  177.1270  139.8730 C   0  0  0  0  0  1  0  0  0  0  0  0
  192.4340  177.6700  141.0890 C   0  0  0  0  0  2  0  0  0  0  0  0
  190.6820  177.0860  143.2190 C   0  0  2  0  0  3  0  0  0  0  0  0
  191.3390  175.8780  142.8730 O   0  0  0  0  0  1  0  0  0  0  0  0
  189.4680  178.2530  148.4120 O   0  0  0  0  0  1  0  0  0  0  0  0
  185.8800  177.0090  144.1520 O   0  0  0  0  0  1  0  0  0  0  0  0
  189.5840  176.9100  144.2980 C   0  0  1  0  0  0  0  0  0  0  0  0
  188.0580  178.2460  142.9310 O   0  0  0  0  0  1  0  0  0  0  0  0
  188.2230  177.4560  144.0890 C   0  0  2  0  0  0  0  0  0  0  0  0
  188.9850  176.6270  146.7490 N   0  0  0  0  0  2  0  0  0  0  0  0
  186.7810  178.6510  145.7760 C   0  0  2  0  0  3  0  0  0  0  0  0
  188.9240  178.0410  147.1340 C   0  0  1  0  0  3  0  0  0  0  0  0
  186.9520  177.3480  144.9480 C   0  0  1  0  0  3  0  0  0  0  0  0
  188.5570  176.1700  143.7180 O   0  0  0  0  0  0  0  0  0  0  0  0
  187.4700  178.4640  147.1470 C   0  0  0  0  0  2  0  0  0  0  0  0
  189.9790  176.3860  145.6910 C   0  0  0  0  0  2  0  0  0  0  0  0
  185.2890  179.0180  145.9320 C   0  0  0  0  0  2  0  0  0  0  0  0
  184.8310  178.6390  147.2010 O   0  0  0  0  0  1  0  0  0  0  0  0
  1  4  1  0  0  0  0
  1  5  1  0  0  0  0
  2 34  1  0  0  0  0
  3  2  1  0  0  0  0
  4  6  1  0  0  0  0
  5  7  1  6  0  0  0
  5  3  1  0  0  0  0
  6  2  1  0  0  0  0
  8  7  1  6  0  0  0
  9 19  2  0  0  0  0
 11 10  1  0  0  0  0
 12 13  1  1  0  0  0
 12 18  1  0  0  0  0
 14 19  1  6  0  0  0
 14  8  1  0  0  0  0
 15 11  1  0  0  0  0
 15 13  1  0  0  0  0
 16 12  1  0  0  0  0
 16 10  1  1  0  0  0
 16 20  1  0  0  0  0
 17 18  1  1  0  0  0
 17 21  1  0  0  0  0
 17 27  1  0  0  0  0
 19 20  1  0  0  0  0
 21 20  1  6  0  0  0
 21  8  1  0  0  0  0
 22 26  2  0  0  0  0
 23 25  1  0  0  0  0
 23 28  1  1  0  0  0
 24 25  1  0  0  0  0
 26 23  1  0  0  0  0
 27 22  1  6  0  0  0
 27 24  1  0  0  0  0
 28 29  1  0  0  0  0
 30 29  1  0  0  0  0
 32 31  1  0  0  0  0
 33 32  1  0  0  0  0
 33 31  1  1  0  0  0
 33 14  1  0  0  0  0
 35 40  1  1  0  0  0
 36 39  1  1  0  0  0
 36 35  1  0  0  0  0
 37 34  1  6  0  0  0
 37 36  1  0  0  0  0
 37 35  1  0  0  0  0
 38 39  1  0  0  0  0
 40 41  1  6  0  0  0
 44 40  1  6  0  0  0
 44 53  1  0  0  0  0
 46 45  1  6  0  0  0
 46 44  1  0  0  0  0
 46 50  1  0  0  0  0
 47 49  1  0  0  0  0
 48 54  1  1  0  0  0
 48 52  1  0  0  0  0
 49 52  1  0  0  0  0
 49 42  1  1  0  0  0
 50 43  1  6  0  0  0
 50 48  1  0  0  0  0
 51 46  1  0  0  0  0
 51 44  1  0  0  0  0
 53 47  1  0  0  0  0
 54 55  1  0  0  0  0
M  END
>  <MODEL>
8

>  <REMARK>
 VINA RESULT:      -5.2      2.247      6.108
  Name = 
  12 active torsions:
  status: ('A' for Active; 'I' for Inactive)
    1  A    between atoms: C_2  and  O_28
    2  A    between atoms: C_6  and  C_20
    3  A    between atoms: C_8  and  C_43
    4  A    between atoms: O_10  and  C_18
    5  A    between atoms: O_10  and  C_32
    6  A    between atoms: C_11  and  C_29
    7  A    between atoms: C_19  and  C_37
    8  A    between atoms: C_20  and  C_22
    9  A    between atoms: N_27  and  C_54
   10  A    between atoms: O_28  and  C_44
   11  A    between atoms: C_33  and  C_52
   12  A    between atoms: C_51  and  C_54
                            x       y       z     vdW  Elec       q    Type
                         _______ _______ _______ _____ _____    ______ ____

>  <TORSDO>
F 12

$$$$
=
 OpenBabel10262420353D

 55 63  0  0  1  0  0  0  0  0999 V2000
  189.7070  177.5090  137.9540 C   0  0  0  0  0  2  0  0  0  0  0  0
  186.7870  177.7240  137.8680 N   0  0  0  0  0  0  0  0  0  0  0  0
  187.2870  176.3420  137.9910 C   0  0  0  0  0  2  0  0  0  0  0  0
  189.1370  178.5530  137.0200 C   0  0  0  0  0  2  0  0  0  0  0  0
  188.8640  176.2710  138.3400 C   0  0  2  0  0  3  0  0  0  0  0  0
  187.6450  178.8480  137.4010 C   0  0  0  0  0  2  0  0  0  0  0  0
  189.2190  176.0510  139.6940 O   0  0  0  0  0  0  0  0  0  0  0  0
  189.4630  177.2710  140.3740 C   0  0  2  0  0  3  0  0  0  0  0  0
  192.4570  177.7420  142.4370 O   0  0  0  0  0  0  0  0  0  0  0  0
  191.1880  177.6650  144.8460 C   0  0  0  0  0  2  0  0  0  0  0  0
  191.4210  177.1910  146.3200 C   0  0  0  0  0  2  0  0  0  0  0  0
  188.8860  176.6140  144.7200 C   0  0  2  0  0  3  0  0  0  0  0  0
  188.8910  177.0690  146.2470 C   0  0  0  0  0  2  0  0  0  0  0  0
  191.0400  177.6230  140.4950 C   0  0  1  0  0  3  0  0  0  0  0  0
  190.1770  176.7190  147.0340 C   0  0  0  0  0  2  0  0  0  0  0  0
  190.2130  176.8050  144.0770 C   0  0  1  0  0  3  0  0  0  0  0  0
  187.7540  176.8350  142.6750 C   0  0  2  0  0  3  0  0  0  0  0  0
  187.8350  177.2470  144.0590 O   0  0  0  0  0  0  0  0  0  0  0  0
  191.2790  177.4830  141.9340 C   0  0  0  0  0  0  0  0  0  0  0  0
  190.1620  177.3160  142.6850 N   0  0  0  0  0  0  0  0  0  0  0  0
  188.9660  177.2110  141.9010 C   0  0  1  0  0  3  0  0  0  0  0  0
  185.3140  177.6960  143.1200 C   0  0  0  0  0  3  0  0  0  0  0  0
  184.3140  179.5990  141.7860 C   0  0  2  0  0  3  0  0  0  0  0  0
  186.6780  178.8490  141.3190 C   0  0  0  0  0  2  0  0  0  0  0  0
  185.3330  179.1650  140.7000 C   0  0  0  0  0  2  0  0  0  0  0  0
  184.3470  178.6260  142.9570 C   0  0  0  0  0  3  0  0  0  0  0  0
  186.4930  177.5160  142.1180 C   0  0  1  0  0  3  0  0  0  0  0  0
  183.0380  179.6330  141.2310 O   0  0  0  0  0  0  0  0  0  0  0  0
  182.3120  178.6510  141.9270 C   0  0  0  0  0  2  0  0  0  0  0  0
  180.8510  178.9790  142.0710 C   0  0  0  0  0  1  0  0  0  0  0  0
  192.4870  177.5510  138.7140 C   0  0  0  0  0  2  0  0  0  0  0  0
  193.2360  177.4990  139.8640 O   0  0  0  0  0  0  0  0  0  0  0  0
  192.0400  176.7620  139.8620 C   0  0  1  0  0  3  0  0  0  0  0  0
  185.5600  177.7430  137.0430 C   0  0  0  0  0  2  0  0  0  0  0  0
  183.1520  177.6420  137.6350 C   0  0  1  0  0  3  0  0  0  0  0  0
  183.8100  176.7300  138.6890 C   0  0  2  0  0  3  0  0  0  0  0  0
  184.3570  176.7660  137.2770 C   0  0  2  0  0  3  0  0  0  0  0  0
  181.7200  175.9130  139.9930 C   0  0  0  0  0  1  0  0  0  0  0  0
  182.8780  175.5560  139.0470 C   0  0  0  0  0  2  0  0  0  0  0  0
  181.7900  177.1570  136.9980 C   0  0  2  0  0  3  0  0  0  0  0  0
  181.8920  176.6110  135.6940 O   0  0  0  0  0  1  0  0  0  0  0  0
  180.3960  181.4740  140.0360 O   0  0  0  0  0  1  0  0  0  0  0  0
  179.0440  180.4140  134.5940 O   0  0  0  0  0  1  0  0  0  0  0  0
  180.7460  178.2960  137.1160 C   0  0  1  0  0  0  0  0  0  0  0  0
  181.5200  179.1970  134.9780 O   0  0  0  0  0  1  0  0  0  0  0  0
  180.5810  179.2880  136.0280 C   0  0  2  0  0  0  0  0  0  0  0  0
  179.4060  179.8570  138.6050 N   0  0  0  0  0  2  0  0  0  0  0  0
  180.2660  181.7760  136.2650 C   0  0  2  0  0  3  0  0  0  0  0  0
  180.3830  180.9430  138.7350 C   0  0  1  0  0  3  0  0  0  0  0  0
  179.5800  180.4430  135.8620 C   0  0  1  0  0  3  0  0  0  0  0  0
  179.8380  178.1270  136.0750 O   0  0  0  0  0  0  0  0  0  0  0  0
  180.0000  182.0400  137.7650 C   0  0  0  0  0  2  0  0  0  0  0  0
  180.0560  178.5440  138.4700 C   0  0  0  0  0  2  0  0  0  0  0  0
  179.7710  182.9450  135.3840 C   0  0  0  0  0  2  0  0  0  0  0  0
  180.8370  183.8000  135.0770 O   0  0  0  0  0  1  0  0  0  0  0  0
  1  5  1  0  0  0  0
  2  3  1  0  0  0  0
  3  5  1  0  0  0  0
  4  6  1  0  0  0  0
  4  1  1  0  0  0  0
  5  7  1  1  0  0  0
  6  2  1  0  0  0  0
  8  7  1  1  0  0  0
  8 14  1  0  0  0  0
  8 21  1  0  0  0  0
 10 11  1  0  0  0  0
 11 15  1  0  0  0  0
 12 13  1  1  0  0  0
 13 15  1  0  0  0  0
 14 19  1  1  0  0  0
 16 12  1  0  0  0  0
 16 10  1  1  0  0  0
 17 18  1  1  0  0  0
 18 12  1  0  0  0  0
 19  9  2  0  0  0  0
 19 20  1  0  0  0  0
 20 16  1  0  0  0  0
 21 17  1  0  0  0  0
 21 20  1  1  0  0  0
 23 28  1  6  0  0  0
 23 26  1  0  0  0  0
 25 24  1  0  0  0  0
 25 23  1  0  0  0  0
 26 22  2  0  0  0  0
 27 24  1  1  0  0  0
 27 17  1  0  0  0  0
 27 22  1  0  0  0  0
 28 29  1  0  0  0  0
 29 30  1  0  0  0  0
 31 32  1  0  0  0  0
 33 31  1  6  0  0  0
 33 32  1  0  0  0  0
 33 14  1  0  0  0  0
 34  2  1  0  0  0  0
 35 40  1  6  0  0  0
 35 36  1  0  0  0  0
 36 39  1  6  0  0  0
 37 34  1  1  0  0  0
 37 35  1  0  0  0  0
 37 36  1  0  0  0  0
 39 38  1  0  0  0  0
 40 41  1  6  0  0  0
 44 40  1  6  0  0  0
 44 53  1  0  0  0  0
 46 45  1  6  0  0  0
 46 51  1  0  0  0  0
 46 44  1  0  0  0  0
 47 49  1  0  0  0  0
 48 54  1  6  0  0  0
 48 52  1  0  0  0  0
 49 42  1  1  0  0  0
 50 43  1  6  0  0  0
 50 46  1  0  0  0  0
 50 48  1  0  0  0  0
 51 44  1  0  0  0  0
 52 49  1  0  0  0  0
 53 47  1  0  0  0  0
 55 54  1  0  0  0  0
M  END
>  <MODEL>
9

>  <REMARK>
 VINA RESULT:      -4.6      3.122     10.578
  Name = 
  12 active torsions:
  status: ('A' for Active; 'I' for Inactive)
    1  A    between atoms: C_2  and  O_28
    2  A    between atoms: C_6  and  C_20
    3  A    between atoms: C_8  and  C_43
    4  A    between atoms: O_10  and  C_18
    5  A    between atoms: O_10  and  C_32
    6  A    between atoms: C_11  and  C_29
    7  A    between atoms: C_19  and  C_37
    8  A    between atoms: C_20  and  C_22
    9  A    between atoms: N_27  and  C_54
   10  A    between atoms: O_28  and  C_44
   11  A    between atoms: C_33  and  C_52
   12  A    between atoms: C_51  and  C_54
                            x       y       z     vdW  Elec       q    Type
                         _______ _______ _______ _____ _____    ______ ____

>  <TORSDO>
F 12

$$$$
