=
 OpenBabel10262420273D

 55 61  0  0  1  0  0  0  0  0999 V2000
  188.7640  178.4590  140.8880 C   0  0  1  0  0  3  0  0  0  0  0  0
  189.4440  178.2340  139.5530 C   0  0  0  0  0  2  0  0  0  0  0  0
  189.4220  176.7490  139.2020 C   0  0  0  0  0  2  0  0  0  0  0  0
  187.7600  176.1250  137.1190 S   0  0  0  0  0  1  0  0  0  0  0  0
  189.4630  176.4790  137.6910 C   0  0  1  0  0  0  0  0  0  0  0  0
  189.8640  177.6540  137.0830 F   0  0  0  0  0  0  0  0  0  0  0  0
  192.1050  175.9920  135.3220 C   0  0  0  0  0  2  0  0  0  0  0  0
  192.5750  173.7570  136.4070 O   0  0  0  0  0  0  0  0  0  0  0  0
  190.4630  175.3340  137.3050 C   0  0  1  0  0  0  0  0  0  0  0  0
  192.2410  176.7530  138.1530 F   0  0  0  0  0  0  0  0  0  0  0  0
  191.7740  175.4430  138.1180 C   0  0  2  0  0  3  0  0  0  0  0  0
  189.7700  175.4050  134.8700 O   0  0  0  0  0  1  0  0  0  0  0  0
  191.9490  174.4710  135.3370 C   0  0  1  0  0  3  0  0  0  0  0  0
  192.8630  174.4810  137.5920 C   0  0  2  0  0  3  0  0  0  0  0  0
  189.8820  174.0940  137.5910 O   0  0  0  0  0  1  0  0  0  0  0  0
  190.8080  175.3620  135.7970 C   0  0  1  0  0  0  0  0  0  0  0  0
  194.3270  174.8940  137.6980 C   0  0  1  0  0  3  0  0  0  0  0  0
  194.5690  175.6010  138.8670 O   0  0  0  0  0  1  0  0  0  0  0  0
  195.2250  173.6850  137.6230 C   0  0  0  0  0  2  0  0  0  0  0  0
  195.5150  173.2460  138.9090 O   0  0  0  0  0  1  0  0  0  0  0  0
  187.3280  177.9450  140.8230 C   0  0  0  0  0  2  0  0  0  0  0  0
  186.3560  178.9500  141.4180 C   0  0  0  0  0  2  0  0  0  0  0  0
  185.5620  179.5260  140.3910 O   0  0  0  0  0  0  0  0  0  0  0  0
  183.5820  178.6840  141.1790 O   0  0  0  0  0  0  0  0  0  0  0  0
  183.6080  179.2980  138.9270 N   0  0  0  0  0  2  0  0  0  0  0  0
  184.2280  179.1630  140.2100 C   0  0  0  0  0  0  0  0  0  0  0  0
  182.5110  175.2240  138.2230 C   0  0  0  0  0  3  0  0  0  0  0  0
  181.3020  181.2620  138.5380 C   0  0  0  0  0  3  0  0  0  0  0  0
  181.2360  175.9350  134.7300 C   0  0  0  0  0  2  0  0  0  0  0  0
  180.7000  182.3050  137.8260 C   0  0  0  0  0  3  0  0  0  0  0  0
  181.1260  179.8330  136.5880 C   0  0  0  0  0  0  0  0  0  0  0  0
  180.5340  180.8810  135.8780 C   0  0  0  0  0  3  0  0  0  0  0  0
  180.3200  182.1160  136.4950 C   0  0  0  0  0  3  0  0  0  0  0  0
  181.5190  180.0210  137.9260 C   0  0  0  0  0  0  0  0  0  0  0  0
  182.5430  176.4790  138.7510 N   0  0  0  0  0  0  0  0  0  0  0  0
  181.3570  173.4730  135.0050 C   0  0  2  0  0  3  0  0  0  0  0  0
  181.7420  177.4230  136.7060 C   0  0  0  0  0  0  0  0  0  0  0  0
  182.0920  175.0240  136.9090 C   0  0  0  0  0  0  0  0  0  0  0  0
  181.2800  178.5570  135.9660 N   0  0  0  0  0  0  0  0  0  0  0  0
  181.9570  173.6130  136.4050 C   0  0  0  0  0  2  0  0  0  0  0  0
  182.2200  178.9300  138.6960 C   0  0  0  0  0  0  0  0  0  0  0  0
  180.4460  174.6410  134.6370 C   0  0  0  0  0  2  0  0  0  0  0  0
  182.1600  177.5730  138.0390 C   0  0  0  0  0  0  0  0  0  0  0  0
  181.7080  176.1380  136.1380 C   0  0  0  0  0  0  0  0  0  0  0  0
  180.6290  172.2810  134.9470 O   0  0  0  0  0  0  0  0  0  0  0  0
  179.6080  172.4140  135.8840 C   0  0  0  0  0  2  0  0  0  0  0  0
  179.4420  171.0960  136.6210 C   0  0  0  0  0  1  0  0  0  0  0  0
  189.5410  177.7300  141.9710 C   0  0  0  0  0  2  0  0  0  0  0  0
  188.6320  176.7160  142.6500 C   0  0  0  0  0  2  0  0  0  0  0  0
  188.1000  177.7200  146.7960 C   0  0  0  0  0  3  0  0  0  0  0  0
  188.4510  177.0470  144.0940 C   0  0  0  0  0  0  0  0  0  0  0  0
  187.1630  177.2600  144.6000 C   0  0  0  0  0  3  0  0  0  0  0  0
  189.3870  177.5020  146.2920 C   0  0  0  0  0  3  0  0  0  0  0  0
  186.9880  177.5970  145.9510 C   0  0  0  0  0  3  0  0  0  0  0  0
  189.5630  177.1660  144.9410 C   0  0  0  0  0  3  0  0  0  0  0  0
  1  2  1  6  0  0  0
  1 48  1  0  0  0  0
  3  2  1  0  0  0  0
  4  5  1  0  0  0  0
  5  6  1  6  0  0  0
  5  3  1  0  0  0  0
  7 16  1  0  0  0  0
  8 14  1  0  0  0  0
  9 15  1  1  0  0  0
  9  5  1  0  0  0  0
  9 11  1  0  0  0  0
 11 10  1  6  0  0  0
 13  7  1  1  0  0  0
 13 16  1  0  0  0  0
 13  8  1  0  0  0  0
 14 17  1  6  0  0  0
 14 11  1  0  0  0  0
 16 12  1  6  0  0  0
 16  9  1  0  0  0  0
 17 18  1  1  0  0  0
 19 17  1  0  0  0  0
 19 20  1  0  0  0  0
 21  1  1  0  0  0  0
 21 22  1  0  0  0  0
 23 22  1  0  0  0  0
 25 26  1  0  0  0  0
 26 23  1  0  0  0  0
 26 24  2  0  0  0  0
 27 35  1  0  0  0  0
 29 44  1  0  0  0  0
 30 28  2  0  0  0  0
 31 34  1  0  0  0  0
 32 33  2  0  0  0  0
 32 31  1  0  0  0  0
 33 30  1  0  0  0  0
 34 28  1  0  0  0  0
 34 41  2  0  0  0  0
 36 45  1  1  0  0  0
 36 40  1  0  0  0  0
 37 43  1  0  0  0  0
 38 27  2  0  0  0  0
 39 31  2  0  0  0  0
 39 37  1  0  0  0  0
 40 38  1  0  0  0  0
 41 25  1  0  0  0  0
 42 29  1  0  0  0  0
 42 36  1  0  0  0  0
 43 41  1  0  0  0  0
 43 35  2  0  0  0  0
 44 37  2  0  0  0  0
 44 38  1  0  0  0  0
 45 46  1  0  0  0  0
 46 47  1  0  0  0  0
 48 49  1  0  0  0  0
 49 51  1  0  0  0  0
 51 52  2  0  0  0  0
 51 55  1  0  0  0  0
 52 54  1  0  0  0  0
 53 50  1  0  0  0  0
 54 50  2  0  0  0  0
 55 53  2  0  0  0  0
M  END
>  <MODEL>
1

>  <REMARK>
 VINA RESULT:      -8.0      0.000      0.000
  Name = 
  16 active torsions:
  status: ('A' for Active; 'I' for Inactive)
    1  A    between atoms: O_4  and  C_37
    2  A    between atoms: O_4  and  C_40
    3  A    between atoms: C_6  and  C_20
    4  A    between atoms: C_8  and  C_22
    5  A    between atoms: C_8  and  C_43
    6  A    between atoms: O_10  and  C_18
    7  A    between atoms: O_10  and  C_32
    8  A    between atoms: C_11  and  C_29
    9  A    between atoms: N_19  and  C_45
   10  A    between atoms: C_20  and  C_22
   11  A    between atoms: C_27  and  C_54
   12  A    between atoms: C_29  and  C_38
   13  A    between atoms: C_35  and  C_37
   14  A    between atoms: C_35  and  C_43
   15  A    between atoms: C_43  and  C_51
   16  A    between atoms: C_51  and  C_54
                            x       y       z     vdW  Elec       q    Type
                         _______ _______ _______ _____ _____    ______ ____

>  <TORSDO>
F 16

$$$$
=
 OpenBabel10262420273D

 55 61  0  0  1  0  0  0  0  0999 V2000
  184.5390  178.5180  142.1280 C   0  0  1  0  0  3  0  0  0  0  0  0
  183.0540  178.7540  141.9440 C   0  0  0  0  0  2  0  0  0  0  0  0
  182.6790  178.5890  140.4730 C   0  0  0  0  0  2  0  0  0  0  0  0
  181.4600  176.2810  139.6500 S   0  0  0  0  0  1  0  0  0  0  0  0
  181.2780  177.9960  140.2640 C   0  0  1  0  0  0  0  0  0  0  0  0
  180.6810  177.9240  141.5090 F   0  0  0  0  0  0  0  0  0  0  0  0
  181.3810  181.2900  138.8600 C   0  0  0  0  0  2  0  0  0  0  0  0
  179.3150  180.7110  137.5220 O   0  0  0  0  0  0  0  0  0  0  0  0
  180.3840  178.8700  139.3160 C   0  0  1  0  0  0  0  0  0  0  0  0
  182.1710  178.7220  137.6790 F   0  0  0  0  0  0  0  0  0  0  0  0
  180.7890  178.6770  137.8360 C   0  0  2  0  0  3  0  0  0  0  0  0
  180.2820  180.7700  140.9870 O   0  0  0  0  0  1  0  0  0  0  0  0
  179.8630  181.3490  138.6790 C   0  0  1  0  0  3  0  0  0  0  0  0
  180.0920  179.6960  136.9070 C   0  0  2  0  0  3  0  0  0  0  0  0
  179.0480  178.4790  139.4500 O   0  0  0  0  0  1  0  0  0  0  0  0
  180.4790  180.3730  139.6670 C   0  0  1  0  0  0  0  0  0  0  0  0
  180.8240  180.1790  135.6600 C   0  0  1  0  0  3  0  0  0  0  0  0
  181.0020  179.1480  134.7480 O   0  0  0  0  0  1  0  0  0  0  0  0
  180.0780  181.3220  135.0170 C   0  0  0  0  0  2  0  0  0  0  0  0
  180.7900  182.5000  135.2050 O   0  0  0  0  0  1  0  0  0  0  0  0
  185.2770  178.8800  140.8410 C   0  0  0  0  0  2  0  0  0  0  0  0
  186.7750  178.6670  140.9880 C   0  0  0  0  0  2  0  0  0  0  0  0
  187.4220  178.8770  139.7410 O   0  0  0  0  0  0  0  0  0  0  0  0
  187.9910  176.7740  139.0300 O   0  0  0  0  0  0  0  0  0  0  0  0
  186.9310  178.1350  137.4570 N   0  0  0  0  0  2  0  0  0  0  0  0
  187.4590  177.8850  138.7630 C   0  0  0  0  0  0  0  0  0  0  0  0
  183.3890  175.9630  136.4390 C   0  0  0  0  0  3  0  0  0  0  0  0
  189.4360  177.1030  136.0470 C   0  0  0  0  0  3  0  0  0  0  0  0
  184.8670  172.6300  137.4620 C   0  0  0  0  0  2  0  0  0  0  0  0
  190.6830  176.4700  136.0920 C   0  0  0  0  0  3  0  0  0  0  0  0
  188.3770  175.0640  136.8210 C   0  0  0  0  0  0  0  0  0  0  0  0
  189.6260  174.4400  136.8740 C   0  0  0  0  0  3  0  0  0  0  0  0
  190.7780  175.1410  136.5090 C   0  0  0  0  0  3  0  0  0  0  0  0
  188.2770  176.4070  136.4110 C   0  0  0  0  0  0  0  0  0  0  0  0
  184.5120  176.7240  136.3270 N   0  0  0  0  0  0  0  0  0  0  0  0
  182.4370  172.2990  137.0900 C   0  0  2  0  0  3  0  0  0  0  0  0
  185.8970  174.8780  136.9490 C   0  0  0  0  0  0  0  0  0  0  0  0
  183.4820  174.6240  136.8140 C   0  0  0  0  0  0  0  0  0  0  0  0
  187.2010  174.3180  137.1350 N   0  0  0  0  0  0  0  0  0  0  0  0
  182.2300  173.7880  136.8070 C   0  0  0  0  0  2  0  0  0  0  0  0
  186.9510  177.1260  136.4080 C   0  0  0  0  0  0  0  0  0  0  0  0
  183.8320  171.8160  136.7060 C   0  0  0  0  0  2  0  0  0  0  0  0
  185.7540  176.2190  136.5570 C   0  0  0  0  0  0  0  0  0  0  0  0
  184.7510  174.0750  137.0770 C   0  0  0  0  0  0  0  0  0  0  0  0
  181.4800  171.5710  136.3770 O   0  0  0  0  0  0  0  0  0  0  0  0
  180.3290  171.5870  137.1600 C   0  0  0  0  0  2  0  0  0  0  0  0
  179.1270  171.3200  136.2720 C   0  0  0  0  0  1  0  0  0  0  0  0
  185.0380  179.3700  143.2840 C   0  0  0  0  0  2  0  0  0  0  0  0
  184.6470  178.7140  144.6000 C   0  0  0  0  0  2  0  0  0  0  0  0
  188.1500  177.6450  146.8510 C   0  0  0  0  0  3  0  0  0  0  0  0
  185.8580  178.3260  145.3800 C   0  0  0  0  0  0  0  0  0  0  0  0
  185.9100  178.5860  146.7550 C   0  0  0  0  0  3  0  0  0  0  0  0
  188.0970  177.3800  145.4780 C   0  0  0  0  0  3  0  0  0  0  0  0
  187.0570  178.2470  147.4900 C   0  0  0  0  0  3  0  0  0  0  0  0
  186.9510  177.7200  144.7420 C   0  0  0  0  0  3  0  0  0  0  0  0
  1 21  1  6  0  0  0
  1 48  1  0  0  0  0
  2  1  1  0  0  0  0
  3  2  1  0  0  0  0
  5  4  1  6  0  0  0
  5  3  1  0  0  0  0
  5  6  1  0  0  0  0
  7 16  1  0  0  0  0
  8 13  1  0  0  0  0
  9 15  1  1  0  0  0
  9 16  1  0  0  0  0
  9  5  1  0  0  0  0
 11 10  1  1  0  0  0
 11  9  1  0  0  0  0
 13  7  1  6  0  0  0
 13 16  1  0  0  0  0
 14 17  1  1  0  0  0
 14  8  1  0  0  0  0
 14 11  1  0  0  0  0
 16 12  1  1  0  0  0
 17 18  1  6  0  0  0
 19 20  1  0  0  0  0
 19 17  1  0  0  0  0
 21 22  1  0  0  0  0
 23 22  1  0  0  0  0
 25 26  1  0  0  0  0
 26 24  2  0  0  0  0
 26 23  1  0  0  0  0
 27 38  1  0  0  0  0
 28 30  2  0  0  0  0
 28 34  1  0  0  0  0
 30 33  1  0  0  0  0
 31 32  1  0  0  0  0
 31 39  1  0  0  0  0
 33 32  2  0  0  0  0
 34 31  2  0  0  0  0
 35 27  2  0  0  0  0
 35 43  1  0  0  0  0
 36 45  1  6  0  0  0
 37 44  1  0  0  0  0
 37 39  2  0  0  0  0
 38 44  2  0  0  0  0
 40 38  1  0  0  0  0
 40 36  1  0  0  0  0
 41 34  1  0  0  0  0
 41 43  2  0  0  0  0
 41 25  1  0  0  0  0
 42 36  1  0  0  0  0
 42 29  1  0  0  0  0
 43 37  1  0  0  0  0
 44 29  1  0  0  0  0
 45 46  1  0  0  0  0
 47 46  1  0  0  0  0
 48 49  1  0  0  0  0
 49 51  1  0  0  0  0
 50 54  1  0  0  0  0
 51 52  1  0  0  0  0
 52 54  2  0  0  0  0
 53 50  2  0  0  0  0
 55 51  2  0  0  0  0
 55 53  1  0  0  0  0
M  END
>  <MODEL>
2

>  <REMARK>
 VINA RESULT:      -7.7      3.326      8.498
  Name = 
  16 active torsions:
  status: ('A' for Active; 'I' for Inactive)
    1  A    between atoms: O_4  and  C_37
    2  A    between atoms: O_4  and  C_40
    3  A    between atoms: C_6  and  C_20
    4  A    between atoms: C_8  and  C_22
    5  A    between atoms: C_8  and  C_43
    6  A    between atoms: O_10  and  C_18
    7  A    between atoms: O_10  and  C_32
    8  A    between atoms: C_11  and  C_29
    9  A    between atoms: N_19  and  C_45
   10  A    between atoms: C_20  and  C_22
   11  A    between atoms: C_27  and  C_54
   12  A    between atoms: C_29  and  C_38
   13  A    between atoms: C_35  and  C_37
   14  A    between atoms: C_35  and  C_43
   15  A    between atoms: C_43  and  C_51
   16  A    between atoms: C_51  and  C_54
                            x       y       z     vdW  Elec       q    Type
                         _______ _______ _______ _____ _____    ______ ____

>  <TORSDO>
F 16

$$$$
=
 OpenBabel10262420273D

 55 61  0  0  1  0  0  0  0  0999 V2000
  184.3950  178.2590  142.5500 C   0  0  1  0  0  3  0  0  0  0  0  0
  182.9330  178.6150  142.3660 C   0  0  0  0  0  2  0  0  0  0  0  0
  182.5690  178.5660  140.8850 C   0  0  0  0  0  2  0  0  0  0  0  0
  180.0790  178.0590  141.9000 S   0  0  0  0  0  1  0  0  0  0  0  0
  181.0900  178.8750  140.6110 C   0  0  1  0  0  0  0  0  0  0  0  0
  180.9280  180.2390  140.7650 F   0  0  0  0  0  0  0  0  0  0  0  0
  182.6590  177.7220  137.6050 C   0  0  0  0  0  2  0  0  0  0  0  0
  180.3600  177.4220  136.5980 O   0  0  0  0  0  0  0  0  0  0  0  0
  180.6410  178.4660  139.1640 C   0  0  1  0  0  0  0  0  0  0  0  0
  181.3100  176.1990  139.7180 F   0  0  0  0  0  0  0  0  0  0  0  0
  180.3270  176.9540  139.0870 C   0  0  2  0  0  3  0  0  0  0  0  0
  182.2600  180.0900  138.0880 O   0  0  0  0  0  1  0  0  0  0  0  0
  181.5270  178.2400  136.7170 C   0  0  1  0  0  3  0  0  0  0  0  0
  180.1160  176.4800  137.6300 C   0  0  2  0  0  3  0  0  0  0  0  0
  179.4780  179.1640  138.8250 O   0  0  0  0  0  1  0  0  0  0  0  0
  181.7250  178.8050  138.1140 C   0  0  1  0  0  0  0  0  0  0  0  0
  180.5200  175.0600  137.2500 C   0  0  1  0  0  3  0  0  0  0  0  0
  181.7800  174.7450  137.7400 O   0  0  0  0  0  1  0  0  0  0  0  0
  179.5010  174.0670  137.7520 C   0  0  0  0  0  2  0  0  0  0  0  0
  180.0870  173.2530  138.7130 O   0  0  0  0  0  1  0  0  0  0  0  0
  185.0960  178.2610  141.1940 C   0  0  0  0  0  2  0  0  0  0  0  0
  186.3860  179.0640  141.2430 C   0  0  0  0  0  2  0  0  0  0  0  0
  187.4740  178.2660  140.7990 O   0  0  0  0  0  0  0  0  0  0  0  0
  187.0920  178.6540  138.5730 O   0  0  0  0  0  0  0  0  0  0  0  0
  188.3750  176.7700  139.0780 N   0  0  0  0  0  2  0  0  0  0  0  0
  187.6330  177.9350  139.4540 C   0  0  0  0  0  0  0  0  0  0  0  0
  185.2190  174.9180  136.8640 C   0  0  0  0  0  3  0  0  0  0  0  0
  191.0310  176.8500  137.5730 C   0  0  0  0  0  3  0  0  0  0  0  0
  187.1630  171.7110  136.3410 C   0  0  0  0  0  2  0  0  0  0  0  0
  192.3580  176.4320  137.4250 C   0  0  0  0  0  3  0  0  0  0  0  0
  190.2780  174.5740  137.2140 C   0  0  0  0  0  0  0  0  0  0  0  0
  191.6060  174.1600  137.0770 C   0  0  0  0  0  3  0  0  0  0  0  0
  192.6460  175.0870  137.1820 C   0  0  0  0  0  3  0  0  0  0  0  0
  189.9840  175.9260  137.4690 C   0  0  0  0  0  0  0  0  0  0  0  0
  186.2170  175.7740  137.2170 N   0  0  0  0  0  0  0  0  0  0  0  0
  184.8180  171.2950  135.6490 C   0  0  2  0  0  3  0  0  0  0  0  0
  187.8530  174.0410  137.0250 C   0  0  0  0  0  0  0  0  0  0  0  0
  185.5060  173.5840  136.5790 C   0  0  0  0  0  0  0  0  0  0  0  0
  189.2220  173.6280  137.0410 N   0  0  0  0  0  0  0  0  0  0  0  0
  184.3940  172.7020  136.0750 C   0  0  0  0  0  2  0  0  0  0  0  0
  188.5650  176.3900  137.6860 C   0  0  0  0  0  0  0  0  0  0  0  0
  186.2770  171.2300  135.2060 C   0  0  0  0  0  2  0  0  0  0  0  0
  187.5160  175.3790  137.2920 C   0  0  0  0  0  0  0  0  0  0  0  0
  186.8380  173.1380  136.6650 C   0  0  0  0  0  0  0  0  0  0  0  0
  183.9950  170.8790  134.6000 O   0  0  0  0  0  0  0  0  0  0  0  0
  183.2620  169.8040  135.0950 C   0  0  0  0  0  2  0  0  0  0  0  0
  181.7920  170.1850  135.1300 C   0  0  0  0  0  1  0  0  0  0  0  0
  185.0390  179.2710  143.4830 C   0  0  0  0  0  2  0  0  0  0  0  0
  184.7200  178.9050  144.9250 C   0  0  0  0  0  2  0  0  0  0  0  0
  188.2700  177.6550  147.0010 C   0  0  0  0  0  3  0  0  0  0  0  0
  185.9470  178.4540  145.6440 C   0  0  0  0  0  0  0  0  0  0  0  0
  186.0430  178.6290  147.0300 C   0  0  0  0  0  3  0  0  0  0  0  0
  188.1730  177.4740  145.6160 C   0  0  0  0  0  3  0  0  0  0  0  0
  187.2050  178.2310  147.7070 C   0  0  0  0  0  3  0  0  0  0  0  0
  187.0110  177.8740  144.9370 C   0  0  0  0  0  3  0  0  0  0  0  0
  1 21  1  6  0  0  0
  1 48  1  0  0  0  0
  2  1  1  0  0  0  0
  3  2  1  0  0  0  0
  5  6  1  1  0  0  0
  5  3  1  0  0  0  0
  5  4  1  0  0  0  0
  7 16  1  0  0  0  0
  8 13  1  0  0  0  0
  8 14  1  0  0  0  0
  9 15  1  6  0  0  0
  9  5  1  0  0  0  0
 11  9  1  0  0  0  0
 11 10  1  6  0  0  0
 13  7  1  1  0  0  0
 13 16  1  0  0  0  0
 14 17  1  6  0  0  0
 14 11  1  0  0  0  0
 16 12  1  1  0  0  0
 16  9  1  0  0  0  0
 17 18  1  1  0  0  0
 17 19  1  0  0  0  0
 19 20  1  0  0  0  0
 21 22  1  0  0  0  0
 23 22  1  0  0  0  0
 24 26  2  0  0  0  0
 25 26  1  0  0  0  0
 26 23  1  0  0  0  0
 27 35  1  0  0  0  0
 29 44  1  0  0  0  0
 30 28  2  0  0  0  0
 31 34  1  0  0  0  0
 32 33  2  0  0  0  0
 32 31  1  0  0  0  0
 33 30  1  0  0  0  0
 34 28  1  0  0  0  0
 34 41  2  0  0  0  0
 35 43  2  0  0  0  0
 36 45  1  6  0  0  0
 36 40  1  0  0  0  0
 37 39  1  0  0  0  0
 37 43  1  0  0  0  0
 38 44  1  0  0  0  0
 38 27  2  0  0  0  0
 39 31  2  0  0  0  0
 40 38  1  0  0  0  0
 41 25  1  0  0  0  0
 42 36  1  0  0  0  0
 42 29  1  0  0  0  0
 43 41  1  0  0  0  0
 44 37  2  0  0  0  0
 45 46  1  0  0  0  0
 46 47  1  0  0  0  0
 48 49  1  0  0  0  0
 49 51  1  0  0  0  0
 50 54  1  0  0  0  0
 51 52  1  0  0  0  0
 52 54  2  0  0  0  0
 53 50  2  0  0  0  0
 55 53  1  0  0  0  0
 55 51  2  0  0  0  0
M  END
>  <MODEL>
3

>  <REMARK>
 VINA RESULT:      -7.7      3.911      8.478
  Name = 
  16 active torsions:
  status: ('A' for Active; 'I' for Inactive)
    1  A    between atoms: O_4  and  C_37
    2  A    between atoms: O_4  and  C_40
    3  A    between atoms: C_6  and  C_20
    4  A    between atoms: C_8  and  C_22
    5  A    between atoms: C_8  and  C_43
    6  A    between atoms: O_10  and  C_18
    7  A    between atoms: O_10  and  C_32
    8  A    between atoms: C_11  and  C_29
    9  A    between atoms: N_19  and  C_45
   10  A    between atoms: C_20  and  C_22
   11  A    between atoms: C_27  and  C_54
   12  A    between atoms: C_29  and  C_38
   13  A    between atoms: C_35  and  C_37
   14  A    between atoms: C_35  and  C_43
   15  A    between atoms: C_43  and  C_51
   16  A    between atoms: C_51  and  C_54
                            x       y       z     vdW  Elec       q    Type
                         _______ _______ _______ _____ _____    ______ ____

>  <TORSDO>
F 16

$$$$
=
 OpenBabel10262420273D

 55 61  0  0  1  0  0  0  0  0999 V2000
  184.7370  179.1440  143.2100 C   0  0  1  0  0  3  0  0  0  0  0  0
  185.8390  179.0040  142.1800 C   0  0  0  0  0  2  0  0  0  0  0  0
  186.9090  178.0420  142.6910 C   0  0  0  0  0  2  0  0  0  0  0  0
  187.9080  177.9070  140.1470 S   0  0  0  0  0  1  0  0  0  0  0  0
  188.2390  178.1510  141.9310 C   0  0  1  0  0  0  0  0  0  0  0  0
  188.6900  179.4480  142.0910 F   0  0  0  0  0  0  0  0  0  0  0  0
  191.7760  178.1930  142.4920 C   0  0  0  0  0  2  0  0  0  0  0  0
  191.5680  175.9050  143.5480 O   0  0  0  0  0  0  0  0  0  0  0  0
  189.3290  177.1580  142.4680 C   0  0  1  0  0  0  0  0  0  0  0  0
  189.5730  178.6360  144.3790 F   0  0  0  0  0  0  0  0  0  0  0  0
  189.5040  177.3000  143.9980 C   0  0  2  0  0  3  0  0  0  0  0  0
  190.7570  177.4390  140.3950 O   0  0  0  0  0  1  0  0  0  0  0  0
  191.8940  176.6720  142.3850 C   0  0  1  0  0  3  0  0  0  0  0  0
  190.7290  176.5130  144.5160 C   0  0  2  0  0  3  0  0  0  0  0  0
  188.9310  175.8440  142.2010 O   0  0  0  0  0  1  0  0  0  0  0  0
  190.6970  177.3910  141.7860 C   0  0  1  0  0  0  0  0  0  0  0  0
  191.4980  177.0510  145.7180 C   0  0  1  0  0  3  0  0  0  0  0  0
  190.6930  177.8540  146.5140 O   0  0  0  0  0  1  0  0  0  0  0  0
  192.0710  175.9170  146.5300 C   0  0  0  0  0  2  0  0  0  0  0  0
  192.2890  176.3480  147.8330 O   0  0  0  0  0  1  0  0  0  0  0  0
  183.4000  178.7550  142.5840 C   0  0  0  0  0  2  0  0  0  0  0  0
  182.2540  178.9560  143.5620 C   0  0  0  0  0  2  0  0  0  0  0  0
  181.3550  179.9360  143.0650 O   0  0  0  0  0  0  0  0  0  0  0  0
  179.2300  179.4070  142.3890 O   0  0  0  0  0  0  0  0  0  0  0  0
  180.8350  179.5510  140.7000 N   0  0  0  0  0  2  0  0  0  0  0  0
  180.4270  179.6350  142.0690 C   0  0  0  0  0  0  0  0  0  0  0  0
  179.7960  175.4990  139.8100 C   0  0  0  0  0  3  0  0  0  0  0  0
  179.7190  181.5620  138.6900 C   0  0  0  0  0  3  0  0  0  0  0  0
  181.2560  175.6530  136.3200 C   0  0  0  0  0  2  0  0  0  0  0  0
  179.9160  182.4970  137.6680 C   0  0  0  0  0  3  0  0  0  0  0  0
  180.6200  179.8200  137.2640 C   0  0  0  0  0  0  0  0  0  0  0  0
  180.8250  180.7610  136.2510 C   0  0  0  0  0  3  0  0  0  0  0  0
  180.4720  182.0980  136.4520 C   0  0  0  0  0  3  0  0  0  0  0  0
  180.0690  180.2190  138.4960 C   0  0  0  0  0  0  0  0  0  0  0  0
  179.6870  176.8230  140.1070 N   0  0  0  0  0  0  0  0  0  0  0  0
  180.7490  173.2780  136.8240 C   0  0  2  0  0  3  0  0  0  0  0  0
  180.5910  177.4350  137.9800 C   0  0  0  0  0  0  0  0  0  0  0  0
  180.3110  175.0940  138.5800 C   0  0  0  0  0  0  0  0  0  0  0  0
  180.9250  178.4460  137.0240 N   0  0  0  0  0  0  0  0  0  0  0  0
  180.3020  173.6270  138.2440 C   0  0  0  0  0  2  0  0  0  0  0  0
  179.8990  179.2400  139.6310 C   0  0  0  0  0  0  0  0  0  0  0  0
  180.5150  174.4190  135.8370 C   0  0  0  0  0  2  0  0  0  0  0  0
  180.0540  177.7940  139.2280 C   0  0  0  0  0  0  0  0  0  0  0  0
  180.7190  176.0740  137.6550 C   0  0  0  0  0  0  0  0  0  0  0  0
  180.0480  172.1460  136.4000 O   0  0  0  0  0  0  0  0  0  0  0  0
  180.9420  171.4140  135.6230 C   0  0  0  0  0  2  0  0  0  0  0  0
  182.2460  171.2630  136.3860 C   0  0  0  0  0  1  0  0  0  0  0  0
  185.0490  178.2470  144.3970 C   0  0  0  0  0  2  0  0  0  0  0  0
  185.1570  179.0940  145.6560 C   0  0  0  0  0  2  0  0  0  0  0  0
  188.1440  177.5210  148.3170 C   0  0  0  0  0  3  0  0  0  0  0  0
  186.1820  178.5360  146.5860 C   0  0  0  0  0  0  0  0  0  0  0  0
  186.5360  179.2500  147.7370 C   0  0  0  0  0  3  0  0  0  0  0  0
  187.7860  176.8040  147.1700 C   0  0  0  0  0  3  0  0  0  0  0  0
  187.5180  178.7430  148.6010 C   0  0  0  0  0  3  0  0  0  0  0  0
  186.8050  177.3110  146.3040 C   0  0  0  0  0  3  0  0  0  0  0  0
  1  2  1  6  0  0  0
  1 48  1  0  0  0  0
  2  3  1  0  0  0  0
  5  4  1  6  0  0  0
  5  6  1  0  0  0  0
  5  9  1  0  0  0  0
  5  3  1  0  0  0  0
  8 14  1  0  0  0  0
  9 15  1  6  0  0  0
  9 11  1  0  0  0  0
 11 10  1  6  0  0  0
 11 14  1  0  0  0  0
 13  7  1  1  0  0  0
 13  8  1  0  0  0  0
 14 17  1  6  0  0  0
 16 12  1  6  0  0  0
 16 13  1  0  0  0  0
 16  9  1  0  0  0  0
 16  7  1  0  0  0  0
 17 18  1  1  0  0  0
 17 19  1  0  0  0  0
 19 20  1  0  0  0  0
 21  1  1  0  0  0  0
 21 22  1  0  0  0  0
 23 22  1  0  0  0  0
 25 26  1  0  0  0  0
 26 24  2  0  0  0  0
 26 23  1  0  0  0  0
 27 35  1  0  0  0  0
 29 44  1  0  0  0  0
 30 28  2  0  0  0  0
 31 34  1  0  0  0  0
 32 33  2  0  0  0  0
 32 31  1  0  0  0  0
 33 30  1  0  0  0  0
 34 28  1  0  0  0  0
 34 41  2  0  0  0  0
 36 45  1  6  0  0  0
 36 40  1  0  0  0  0
 37 43  1  0  0  0  0
 38 27  2  0  0  0  0
 39 31  2  0  0  0  0
 39 37  1  0  0  0  0
 40 38  1  0  0  0  0
 41 25  1  0  0  0  0
 42 29  1  0  0  0  0
 42 36  1  0  0  0  0
 43 41  1  0  0  0  0
 43 35  2  0  0  0  0
 44 37  2  0  0  0  0
 44 38  1  0  0  0  0
 46 47  1  0  0  0  0
 46 45  1  0  0  0  0
 48 49  1  0  0  0  0
 49 51  1  0  0  0  0
 50 54  1  0  0  0  0
 51 52  1  0  0  0  0
 52 54  2  0  0  0  0
 53 50  2  0  0  0  0
 55 51  2  0  0  0  0
 55 53  1  0  0  0  0
M  END
>  <MODEL>
4

>  <REMARK>
 VINA RESULT:      -7.7      3.476      4.721
  Name = 
  16 active torsions:
  status: ('A' for Active; 'I' for Inactive)
    1  A    between atoms: O_4  and  C_37
    2  A    between atoms: O_4  and  C_40
    3  A    between atoms: C_6  and  C_20
    4  A    between atoms: C_8  and  C_22
    5  A    between atoms: C_8  and  C_43
    6  A    between atoms: O_10  and  C_18
    7  A    between atoms: O_10  and  C_32
    8  A    between atoms: C_11  and  C_29
    9  A    between atoms: N_19  and  C_45
   10  A    between atoms: C_20  and  C_22
   11  A    between atoms: C_27  and  C_54
   12  A    between atoms: C_29  and  C_38
   13  A    between atoms: C_35  and  C_37
   14  A    between atoms: C_35  and  C_43
   15  A    between atoms: C_43  and  C_51
   16  A    between atoms: C_51  and  C_54
                            x       y       z     vdW  Elec       q    Type
                         _______ _______ _______ _____ _____    ______ ____

>  <TORSDO>
F 16

$$$$
=
 OpenBabel10262420273D

 55 61  0  0  1  0  0  0  0  0999 V2000
  181.3920  177.4020  140.6820 C   0  0  1  0  0  3  0  0  0  0  0  0
  180.8870  176.7230  139.4260 C   0  0  0  0  0  2  0  0  0  0  0  0
  181.9410  175.7520  138.9010 C   0  0  0  0  0  2  0  0  0  0  0  0
  181.0590  173.7100  137.3060 S   0  0  0  0  0  1  0  0  0  0  0  0
  181.7590  175.3980  137.4170 C   0  0  1  0  0  0  0  0  0  0  0  0
  180.8130  176.2690  136.9090 F   0  0  0  0  0  0  0  0  0  0  0  0
  184.9350  177.0060  137.8120 C   0  0  0  0  0  2  0  0  0  0  0  0
  185.6860  175.9000  135.6650 O   0  0  0  0  0  0  0  0  0  0  0  0
  183.0850  175.5420  136.5910 C   0  0  1  0  0  0  0  0  0  0  0  0
  184.1700  174.2180  138.3120 F   0  0  0  0  0  0  0  0  0  0  0  0
  184.0810  174.4110  136.9370 C   0  0  2  0  0  3  0  0  0  0  0  0
  183.0170  178.0710  136.7210 O   0  0  0  0  0  1  0  0  0  0  0  0
  185.1790  177.0760  136.3030 C   0  0  1  0  0  3  0  0  0  0  0  0
  185.4770  174.6600  136.3220 C   0  0  2  0  0  3  0  0  0  0  0  0
  182.7920  175.4530  135.2260 O   0  0  0  0  0  1  0  0  0  0  0  0
  183.7700  176.9050  136.8440 C   0  0  1  0  0  0  0  0  0  0  0  0
  186.7110  174.1640  137.0660 C   0  0  1  0  0  3  0  0  0  0  0  0
  186.4270  173.0320  137.8170 O   0  0  0  0  0  1  0  0  0  0  0  0
  187.8340  173.8810  136.0990 C   0  0  0  0  0  2  0  0  0  0  0  0
  188.8630  173.2290  136.7670 O   0  0  0  0  0  1  0  0  0  0  0  0
  182.9160  177.4760  140.6460 C   0  0  0  0  0  2  0  0  0  0  0  0
  183.4260  178.6890  141.4070 C   0  0  0  0  0  2  0  0  0  0  0  0
  184.5180  178.3210  142.2370 O   0  0  0  0  0  0  0  0  0  0  0  0
  186.0000  179.9720  141.6610 O   0  0  0  0  0  0  0  0  0  0  0  0
  186.9170  177.8580  142.0340 N   0  0  0  0  0  2  0  0  0  0  0  0
  185.8130  178.7670  141.9770 C   0  0  0  0  0  0  0  0  0  0  0  0
  188.3690  178.2010  138.0250 C   0  0  0  0  0  3  0  0  0  0  0  0
  189.0890  178.2350  144.1490 C   0  0  0  0  0  3  0  0  0  0  0  0
  190.9920  175.5130  138.5050 C   0  0  0  0  0  2  0  0  0  0  0  0
  189.8970  177.7190  145.1670 C   0  0  0  0  0  3  0  0  0  0  0  0
  190.1410  176.7380  142.5590 C   0  0  0  0  0  0  0  0  0  0  0  0
  190.9390  176.2190  143.5820 C   0  0  0  0  0  3  0  0  0  0  0  0
  190.8180  176.7080  144.8850 C   0  0  0  0  0  3  0  0  0  0  0  0
  189.2040  177.7500  142.8400 C   0  0  0  0  0  0  0  0  0  0  0  0
  188.0640  178.5030  139.3170 N   0  0  0  0  0  0  0  0  0  0  0  0
  190.8600  176.0180  136.0800 C   0  0  2  0  0  3  0  0  0  0  0  0
  189.6290  176.8870  140.1270 C   0  0  0  0  0  0  0  0  0  0  0  0
  189.3190  177.2220  137.7370 C   0  0  0  0  0  0  0  0  0  0  0  0
  190.3190  176.2750  141.2200 N   0  0  0  0  0  0  0  0  0  0  0  0
  189.7130  177.0040  136.3010 C   0  0  0  0  0  2  0  0  0  0  0  0
  188.2840  178.2830  141.7700 C   0  0  0  0  0  0  0  0  0  0  0  0
  191.7940  175.9250  137.2840 C   0  0  0  0  0  2  0  0  0  0  0  0
  188.6730  177.8880  140.3670 C   0  0  0  0  0  0  0  0  0  0  0  0
  189.9530  176.5530  138.8010 C   0  0  0  0  0  0  0  0  0  0  0  0
  191.5880  176.4230  134.9580 O   0  0  0  0  0  0  0  0  0  0  0  0
  192.3660  175.3270  134.5940 C   0  0  0  0  0  2  0  0  0  0  0  0
  191.5030  174.0770  134.6370 C   0  0  0  0  0  1  0  0  0  0  0  0
  180.7940  178.7970  140.7670 C   0  0  0  0  0  2  0  0  0  0  0  0
  179.6960  178.9410  139.7240 C   0  0  0  0  0  2  0  0  0  0  0  0
  180.7960  181.8510  136.7580 C   0  0  0  0  0  3  0  0  0  0  0  0
  180.0640  179.9620  138.7010 C   0  0  0  0  0  0  0  0  0  0  0  0
  179.7320  179.7480  137.3570 C   0  0  0  0  0  3  0  0  0  0  0  0
  181.1230  182.0680  138.1020 C   0  0  0  0  0  3  0  0  0  0  0  0
  180.1000  180.6920  136.3870 C   0  0  0  0  0  3  0  0  0  0  0  0
  180.7570  181.1230  139.0730 C   0  0  0  0  0  3  0  0  0  0  0  0
  1  2  1  6  0  0  0
  1 48  1  0  0  0  0
  3  2  1  0  0  0  0
  4  5  1  0  0  0  0
  5  6  1  6  0  0  0
  5  3  1  0  0  0  0
  8 13  1  0  0  0  0
  8 14  1  0  0  0  0
  9 15  1  6  0  0  0
  9 16  1  0  0  0  0
  9 11  1  0  0  0  0
  9  5  1  0  0  0  0
 11 10  1  1  0  0  0
 13 16  1  0  0  0  0
 13  7  1  1  0  0  0
 14 11  1  0  0  0  0
 14 17  1  1  0  0  0
 16 12  1  6  0  0  0
 16  7  1  0  0  0  0
 17 18  1  6  0  0  0
 19 20  1  0  0  0  0
 19 17  1  0  0  0  0
 21  1  1  0  0  0  0
 21 22  1  0  0  0  0
 22 23  1  0  0  0  0
 24 26  2  0  0  0  0
 26 25  1  0  0  0  0
 26 23  1  0  0  0  0
 27 35  1  0  0  0  0
 28 30  2  0  0  0  0
 29 44  1  0  0  0  0
 31 34  1  0  0  0  0
 31 32  1  0  0  0  0
 32 33  2  0  0  0  0
 33 30  1  0  0  0  0
 34 28  1  0  0  0  0
 35 43  2  0  0  0  0
 36 45  1  6  0  0  0
 36 40  1  0  0  0  0
 36 42  1  0  0  0  0
 37 43  1  0  0  0  0
 37 39  1  0  0  0  0
 38 27  2  0  0  0  0
 38 44  1  0  0  0  0
 39 31  2  0  0  0  0
 40 38  1  0  0  0  0
 41 25  1  0  0  0  0
 41 34  2  0  0  0  0
 42 29  1  0  0  0  0
 43 41  1  0  0  0  0
 44 37  2  0  0  0  0
 46 47  1  0  0  0  0
 46 45  1  0  0  0  0
 49 48  1  0  0  0  0
 50 53  1  0  0  0  0
 51 55  1  0  0  0  0
 51 49  1  0  0  0  0
 52 51  2  0  0  0  0
 53 55  2  0  0  0  0
 54 50  2  0  0  0  0
 54 52  1  0  0  0  0
M  END
>  <MODEL>
5

>  <REMARK>
 VINA RESULT:      -7.7      3.137      9.066
  Name = 
  16 active torsions:
  status: ('A' for Active; 'I' for Inactive)
    1  A    between atoms: O_4  and  C_37
    2  A    between atoms: O_4  and  C_40
    3  A    between atoms: C_6  and  C_20
    4  A    between atoms: C_8  and  C_22
    5  A    between atoms: C_8  and  C_43
    6  A    between atoms: O_10  and  C_18
    7  A    between atoms: O_10  and  C_32
    8  A    between atoms: C_11  and  C_29
    9  A    between atoms: N_19  and  C_45
   10  A    between atoms: C_20  and  C_22
   11  A    between atoms: C_27  and  C_54
   12  A    between atoms: C_29  and  C_38
   13  A    between atoms: C_35  and  C_37
   14  A    between atoms: C_35  and  C_43
   15  A    between atoms: C_43  and  C_51
   16  A    between atoms: C_51  and  C_54
                            x       y       z     vdW  Elec       q    Type
                         _______ _______ _______ _____ _____    ______ ____

>  <TORSDO>
F 16

$$$$
=
 OpenBabel10262420273D

 55 61  0  0  1  0  0  0  0  0999 V2000
  188.5570  178.0040  141.6070 C   0  0  1  0  0  3  0  0  0  0  0  0
  189.6300  177.2500  140.8490 C   0  0  0  0  0  2  0  0  0  0  0  0
  189.8720  177.9110  139.4940 C   0  0  0  0  0  2  0  0  0  0  0  0
  191.7380  176.6390  137.9490 S   0  0  0  0  0  1  0  0  0  0  0  0
  189.9690  176.9080  138.3350 C   0  0  1  0  0  0  0  0  0  0  0  0
  189.4640  175.7070  138.7980 F   0  0  0  0  0  0  0  0  0  0  0  0
  188.6480  175.3680  135.3840 C   0  0  0  0  0  2  0  0  0  0  0  0
  187.5390  177.5670  134.8130 O   0  0  0  0  0  0  0  0  0  0  0  0
  189.1520  177.3550  137.0730 C   0  0  1  0  0  0  0  0  0  0  0  0
  187.3190  176.0070  137.9200 F   0  0  0  0  0  0  0  0  0  0  0  0
  187.6310  177.2230  137.3200 C   0  0  2  0  0  3  0  0  0  0  0  0
  190.8730  176.3890  135.4850 O   0  0  0  0  0  1  0  0  0  0  0  0
  188.6420  176.6820  134.6010 C   0  0  1  0  0  3  0  0  0  0  0  0
  186.8140  177.4270  136.0240 C   0  0  2  0  0  3  0  0  0  0  0  0
  189.4270  178.6980  136.7960 O   0  0  0  0  0  1  0  0  0  0  0  0
  189.5290  176.5230  135.8250 C   0  0  1  0  0  0  0  0  0  0  0  0
  185.5040  176.6660  135.8500 C   0  0  1  0  0  3  0  0  0  0  0  0
  184.6760  177.2910  134.9280 O   0  0  0  0  0  1  0  0  0  0  0  0
  185.7710  175.2420  135.4310 C   0  0  0  0  0  2  0  0  0  0  0  0
  184.6060  174.6870  134.9170 O   0  0  0  0  0  1  0  0  0  0  0  0
  187.4770  178.4720  140.6340 C   0  0  0  0  0  2  0  0  0  0  0  0
  186.1490  178.6800  141.3430 C   0  0  0  0  0  2  0  0  0  0  0  0
  185.3140  179.5330  140.5750 O   0  0  0  0  0  0  0  0  0  0  0  0
  183.2660  178.7680  141.2630 O   0  0  0  0  0  0  0  0  0  0  0  0
  183.4330  179.3600  139.0110 N   0  0  0  0  0  2  0  0  0  0  0  0
  183.9800  179.2150  140.3250 C   0  0  0  0  0  0  0  0  0  0  0  0
  182.1930  175.3030  138.4650 C   0  0  0  0  0  3  0  0  0  0  0  0
  181.2520  181.3960  138.3600 C   0  0  0  0  0  3  0  0  0  0  0  0
  181.1770  175.8610  134.8600 C   0  0  0  0  0  2  0  0  0  0  0  0
  180.7460  182.4200  137.5520 C   0  0  0  0  0  3  0  0  0  0  0  0
  181.1330  179.8630  136.4860 C   0  0  0  0  0  0  0  0  0  0  0  0
  180.6380  180.8930  135.6800 C   0  0  0  0  0  3  0  0  0  0  0  0
  180.4430  182.1700  136.2120 C   0  0  0  0  0  3  0  0  0  0  0  0
  181.4490  180.1130  137.8340 C   0  0  0  0  0  0  0  0  0  0  0  0
  182.2500  176.5840  138.9220 N   0  0  0  0  0  0  0  0  0  0  0  0
  181.1650  173.4170  135.2810 C   0  0  2  0  0  3  0  0  0  0  0  0
  181.6260  177.4400  136.7790 C   0  0  0  0  0  0  0  0  0  0  0  0
  181.8500  175.0450  137.1390 C   0  0  0  0  0  0  0  0  0  0  0  0
  181.2660  178.5470  135.9480 N   0  0  0  0  0  0  0  0  0  0  0  0
  181.6800  173.6130  136.7070 C   0  0  0  0  0  2  0  0  0  0  0  0
  182.0470  179.0390  138.7090 C   0  0  0  0  0  0  0  0  0  0  0  0
  180.3360  174.6000  134.7880 C   0  0  0  0  0  2  0  0  0  0  0  0
  181.9650  177.6500  138.1260 C   0  0  0  0  0  0  0  0  0  0  0  0
  181.5680  176.1260  136.2830 C   0  0  0  0  0  0  0  0  0  0  0  0
  180.3870  172.2570  135.2420 O   0  0  0  0  0  0  0  0  0  0  0  0
  180.9970  171.3600  136.1150 C   0  0  0  0  0  2  0  0  0  0  0  0
  181.4820  170.1570  135.3250 C   0  0  0  0  0  1  0  0  0  0  0  0
  187.9590  177.0890  142.6630 C   0  0  0  0  0  2  0  0  0  0  0  0
  189.0290  176.7250  143.6810 C   0  0  0  0  0  2  0  0  0  0  0  0
  187.8460  177.9660  147.6230 C   0  0  0  0  0  3  0  0  0  0  0  0
  188.6190  177.1390  145.0550 C   0  0  0  0  0  0  0  0  0  0  0  0
  187.3010  177.5480  145.2910 C   0  0  0  0  0  3  0  0  0  0  0  0
  189.1620  177.5520  147.3890 C   0  0  0  0  0  3  0  0  0  0  0  0
  186.9160  177.9630  146.5750 C   0  0  0  0  0  3  0  0  0  0  0  0
  189.5490  177.1380  146.1050 C   0  0  0  0  0  3  0  0  0  0  0  0
  1 21  1  6  0  0  0
  1 48  1  0  0  0  0
  2  1  1  0  0  0  0
  3  2  1  0  0  0  0
  5  4  1  6  0  0  0
  5  6  1  0  0  0  0
  5  3  1  0  0  0  0
  7 16  1  0  0  0  0
  8 14  1  0  0  0  0
  9 15  1  6  0  0  0
  9 11  1  0  0  0  0
  9  5  1  0  0  0  0
 11 10  1  6  0  0  0
 13  8  1  0  0  0  0
 13  7  1  1  0  0  0
 13 16  1  0  0  0  0
 14 17  1  6  0  0  0
 14 11  1  0  0  0  0
 16 12  1  6  0  0  0
 16  9  1  0  0  0  0
 17 18  1  6  0  0  0
 19 17  1  0  0  0  0
 20 19  1  0  0  0  0
 21 22  1  0  0  0  0
 23 22  1  0  0  0  0
 25 26  1  0  0  0  0
 26 23  1  0  0  0  0
 26 24  2  0  0  0  0
 27 35  1  0  0  0  0
 29 44  1  0  0  0  0
 30 28  2  0  0  0  0
 31 34  1  0  0  0  0
 32 33  2  0  0  0  0
 32 31  1  0  0  0  0
 33 30  1  0  0  0  0
 34 28  1  0  0  0  0
 34 41  2  0  0  0  0
 36 45  1  1  0  0  0
 36 40  1  0  0  0  0
 37 43  1  0  0  0  0
 38 27  2  0  0  0  0
 39 31  2  0  0  0  0
 39 37  1  0  0  0  0
 40 38  1  0  0  0  0
 41 25  1  0  0  0  0
 42 29  1  0  0  0  0
 42 36  1  0  0  0  0
 43 41  1  0  0  0  0
 43 35  2  0  0  0  0
 44 37  2  0  0  0  0
 44 38  1  0  0  0  0
 45 46  1  0  0  0  0
 47 46  1  0  0  0  0
 48 49  1  0  0  0  0
 49 51  1  0  0  0  0
 51 52  2  0  0  0  0
 51 55  1  0  0  0  0
 52 54  1  0  0  0  0
 53 50  1  0  0  0  0
 54 50  2  0  0  0  0
 55 53  2  0  0  0  0
M  END
>  <MODEL>
6

>  <REMARK>
 VINA RESULT:      -7.5      2.126      3.527
  Name = 
  16 active torsions:
  status: ('A' for Active; 'I' for Inactive)
    1  A    between atoms: O_4  and  C_37
    2  A    between atoms: O_4  and  C_40
    3  A    between atoms: C_6  and  C_20
    4  A    between atoms: C_8  and  C_22
    5  A    between atoms: C_8  and  C_43
    6  A    between atoms: O_10  and  C_18
    7  A    between atoms: O_10  and  C_32
    8  A    between atoms: C_11  and  C_29
    9  A    between atoms: N_19  and  C_45
   10  A    between atoms: C_20  and  C_22
   11  A    between atoms: C_27  and  C_54
   12  A    between atoms: C_29  and  C_38
   13  A    between atoms: C_35  and  C_37
   14  A    between atoms: C_35  and  C_43
   15  A    between atoms: C_43  and  C_51
   16  A    between atoms: C_51  and  C_54
                            x       y       z     vdW  Elec       q    Type
                         _______ _______ _______ _____ _____    ______ ____

>  <TORSDO>
F 16

$$$$
=
 OpenBabel10262420273D

 55 61  0  0  1  0  0  0  0  0999 V2000
  185.4240  175.4730  135.5880 C   0  0  1  0  0  3  0  0  0  0  0  0
  186.4360  176.4540  135.0320 C   0  0  0  0  0  2  0  0  0  0  0  0
  187.8290  176.1180  135.5580 C   0  0  0  0  0  2  0  0  0  0  0  0
  187.3860  178.5130  136.8040 S   0  0  0  0  0  1  0  0  0  0  0  0
  188.1920  176.8700  136.8460 C   0  0  1  0  0  0  0  0  0  0  0  0
  187.6330  176.1660  137.8960 F   0  0  0  0  0  0  0  0  0  0  0  0
  190.5170  176.1760  139.4810 C   0  0  0  0  0  2  0  0  0  0  0  0
  192.3940  176.7470  137.8850 O   0  0  0  0  0  0  0  0  0  0  0  0
  189.7410  176.9800  137.0700 C   0  0  1  0  0  0  0  0  0  0  0  0
  189.7900  174.5540  137.1460 F   0  0  0  0  0  0  0  0  0  0  0  0
  190.4570  175.6730  136.6570 C   0  0  2  0  0  3  0  0  0  0  0  0
  189.4460  178.3580  139.1750 O   0  0  0  0  0  1  0  0  0  0  0  0
  191.5430  177.1790  138.9510 C   0  0  1  0  0  3  0  0  0  0  0  0
  191.9410  175.6640  137.0880 C   0  0  2  0  0  3  0  0  0  0  0  0
  190.2510  178.0160  136.2810 O   0  0  0  0  0  1  0  0  0  0  0  0
  190.0830  177.2910  138.5470 C   0  0  1  0  0  0  0  0  0  0  0  0
  192.5950  174.3380  137.4580 C   0  0  1  0  0  3  0  0  0  0  0  0
  192.6170  173.4670  136.3780 O   0  0  0  0  0  1  0  0  0  0  0  0
  193.9930  174.5630  137.9760 C   0  0  0  0  0  2  0  0  0  0  0  0
  194.9020  173.9290  137.1380 O   0  0  0  0  0  1  0  0  0  0  0  0
  184.0250  175.8610  135.1170 C   0  0  0  0  0  2  0  0  0  0  0  0
  182.9970  175.6510  136.2170 C   0  0  0  0  0  2  0  0  0  0  0  0
  183.6290  175.6810  137.4880 O   0  0  0  0  0  0  0  0  0  0  0  0
  182.7710  176.5960  139.4050 O   0  0  0  0  0  0  0  0  0  0  0  0
  184.0320  178.0300  138.0620 N   0  0  0  0  0  2  0  0  0  0  0  0
  183.4590  176.7530  138.3620 C   0  0  0  0  0  0  0  0  0  0  0  0
  186.5910  178.5360  141.4520 C   0  0  0  0  0  3  0  0  0  0  0  0
  181.7430  180.0500  137.9550 C   0  0  0  0  0  3  0  0  0  0  0  0
  183.7410  178.2590  143.9290 C   0  0  0  0  0  2  0  0  0  0  0  0
  180.3780  180.3450  138.0310 C   0  0  0  0  0  3  0  0  0  0  0  0
  181.7110  179.3230  140.2680 C   0  0  0  0  0  0  0  0  0  0  0  0
  180.3450  179.6110  140.3350 C   0  0  0  0  0  3  0  0  0  0  0  0
  179.6790  180.1220  139.2190 C   0  0  0  0  0  3  0  0  0  0  0  0
  182.4180  179.5370  139.0700 C   0  0  0  0  0  0  0  0  0  0  0  0
  185.9120  178.7880  140.2990 N   0  0  0  0  0  0  0  0  0  0  0  0
  185.8660  178.1490  145.2040 C   0  0  2  0  0  3  0  0  0  0  0  0
  183.8150  178.7010  141.4440 C   0  0  0  0  0  0  0  0  0  0  0  0
  185.9000  178.3550  142.6490 C   0  0  0  0  0  0  0  0  0  0  0  0
  182.3940  178.8620  141.4340 N   0  0  0  0  0  0  0  0  0  0  0  0
  186.6930  178.1990  143.9190 C   0  0  0  0  0  2  0  0  0  0  0  0
  183.8770  179.1740  138.9480 C   0  0  0  0  0  0  0  0  0  0  0  0
  184.5290  178.8740  145.0720 C   0  0  0  0  0  2  0  0  0  0  0  0
  184.5560  178.8880  140.2650 C   0  0  0  0  0  0  0  0  0  0  0  0
  184.4950  178.4320  142.6450 C   0  0  0  0  0  0  0  0  0  0  0  0
  186.6080  178.7280  146.2370 O   0  0  0  0  0  0  0  0  0  0  0  0
  187.5160  177.7540  146.6450 C   0  0  0  0  0  2  0  0  0  0  0  0
  188.1160  178.1680  147.9770 C   0  0  0  0  0  1  0  0  0  0  0  0
  185.7760  174.0730  135.1110 C   0  0  0  0  0  2  0  0  0  0  0  0
  185.8350  173.1330  136.3050 C   0  0  0  0  0  2  0  0  0  0  0  0
  183.2300  169.7530  135.7860 C   0  0  0  0  0  3  0  0  0  0  0  0
  184.9260  171.9660  136.1090 C   0  0  0  0  0  0  0  0  0  0  0  0
  183.7390  171.8800  136.8480 C   0  0  0  0  0  3  0  0  0  0  0  0
  184.4120  169.8410  135.0430 C   0  0  0  0  0  3  0  0  0  0  0  0
  182.8930  170.7730  136.6880 C   0  0  0  0  0  3  0  0  0  0  0  0
  185.2610  170.9480  135.2040 C   0  0  0  0  0  3  0  0  0  0  0  0
  1  2  1  6  0  0  0
  2  3  1  0  0  0  0
  3  5  1  0  0  0  0
  5  4  1  6  0  0  0
  5  9  1  0  0  0  0
  5  6  1  0  0  0  0
  8 13  1  0  0  0  0
  9 15  1  6  0  0  0
  9 16  1  0  0  0  0
 11  9  1  0  0  0  0
 11 14  1  0  0  0  0
 11 10  1  1  0  0  0
 13  7  1  1  0  0  0
 14 17  1  1  0  0  0
 14  8  1  0  0  0  0
 16 13  1  0  0  0  0
 16 12  1  1  0  0  0
 16  7  1  0  0  0  0
 17 18  1  6  0  0  0
 17 19  1  0  0  0  0
 20 19  1  0  0  0  0
 21  1  1  0  0  0  0
 21 22  1  0  0  0  0
 22 23  1  0  0  0  0
 23 26  1  0  0  0  0
 25 26  1  0  0  0  0
 25 41  1  0  0  0  0
 26 24  2  0  0  0  0
 27 38  1  0  0  0  0
 28 30  2  0  0  0  0
 28 34  1  0  0  0  0
 29 42  1  0  0  0  0
 30 33  1  0  0  0  0
 31 32  1  0  0  0  0
 31 39  1  0  0  0  0
 33 32  2  0  0  0  0
 34 31  2  0  0  0  0
 35 27  2  0  0  0  0
 36 45  1  1  0  0  0
 37 44  1  0  0  0  0
 38 40  1  0  0  0  0
 39 37  2  0  0  0  0
 40 36  1  0  0  0  0
 41 34  1  0  0  0  0
 41 43  2  0  0  0  0
 42 36  1  0  0  0  0
 43 35  1  0  0  0  0
 43 37  1  0  0  0  0
 44 38  2  0  0  0  0
 44 29  1  0  0  0  0
 45 46  1  0  0  0  0
 46 47  1  0  0  0  0
 48  1  1  0  0  0  0
 48 49  1  0  0  0  0
 50 54  1  0  0  0  0
 51 49  1  0  0  0  0
 51 52  1  0  0  0  0
 53 55  1  0  0  0  0
 53 50  2  0  0  0  0
 54 52  2  0  0  0  0
 55 51  2  0  0  0  0
M  END
>  <MODEL>
7

>  <REMARK>
 VINA RESULT:      -7.3      2.614      7.290
  Name = 
  16 active torsions:
  status: ('A' for Active; 'I' for Inactive)
    1  A    between atoms: O_4  and  C_37
    2  A    between atoms: O_4  and  C_40
    3  A    between atoms: C_6  and  C_20
    4  A    between atoms: C_8  and  C_22
    5  A    between atoms: C_8  and  C_43
    6  A    between atoms: O_10  and  C_18
    7  A    between atoms: O_10  and  C_32
    8  A    between atoms: C_11  and  C_29
    9  A    between atoms: N_19  and  C_45
   10  A    between atoms: C_20  and  C_22
   11  A    between atoms: C_27  and  C_54
   12  A    between atoms: C_29  and  C_38
   13  A    between atoms: C_35  and  C_37
   14  A    between atoms: C_35  and  C_43
   15  A    between atoms: C_43  and  C_51
   16  A    between atoms: C_51  and  C_54
                            x       y       z     vdW  Elec       q    Type
                         _______ _______ _______ _____ _____    ______ ____

>  <TORSDO>
F 16

$$$$
=
 OpenBabel10262420273D

 55 61  0  0  1  0  0  0  0  0999 V2000
  184.3590  174.2220  137.3530 C   0  0  1  0  0  3  0  0  0  0  0  0
  185.6230  174.9380  137.7810 C   0  0  0  0  0  2  0  0  0  0  0  0
  186.4530  175.3070  136.5540 C   0  0  0  0  0  2  0  0  0  0  0  0
  186.2850  177.8310  135.5110 S   0  0  0  0  0  1  0  0  0  0  0  0
  187.1240  176.6840  136.6640 C   0  0  1  0  0  0  0  0  0  0  0  0
  186.8900  177.1460  137.9460 F   0  0  0  0  0  0  0  0  0  0  0  0
  190.1010  176.6120  138.6550 C   0  0  0  0  0  2  0  0  0  0  0  0
  191.4340  176.2910  136.5300 O   0  0  0  0  0  0  0  0  0  0  0  0
  188.6720  176.6270  136.4150 C   0  0  1  0  0  0  0  0  0  0  0  0
  188.6360  174.4050  137.3930 F   0  0  0  0  0  0  0  0  0  0  0  0
  189.1730  175.1650  136.3590 C   0  0  2  0  0  3  0  0  0  0  0  0
  189.0840  178.6840  137.8340 O   0  0  0  0  0  1  0  0  0  0  0  0
  190.9630  177.1950  137.5340 C   0  0  1  0  0  3  0  0  0  0  0  0
  190.7160  175.0810  136.3550 C   0  0  2  0  0  3  0  0  0  0  0  0
  188.9660  177.2280  135.1870 O   0  0  0  0  0  1  0  0  0  0  0  0
  189.4550  177.3800  137.5160 C   0  0  1  0  0  0  0  0  0  0  0  0
  191.3920  173.8850  137.0160 C   0  0  1  0  0  3  0  0  0  0  0  0
  191.2070  172.7260  136.2760 O   0  0  0  0  0  1  0  0  0  0  0  0
  192.8640  174.1510  137.2120 C   0  0  0  0  0  2  0  0  0  0  0  0
  193.5910  173.4190  136.2810 O   0  0  0  0  0  1  0  0  0  0  0  0
  183.3740  175.2300  136.7660 C   0  0  0  0  0  2  0  0  0  0  0  0
  182.8950  176.2120  137.8230 C   0  0  0  0  0  2  0  0  0  0  0  0
  183.3200  177.5270  137.4960 O   0  0  0  0  0  0  0  0  0  0  0  0
  183.6020  179.6910  138.1950 O   0  0  0  0  0  0  0  0  0  0  0  0
  183.9610  178.0390  139.8060 N   0  0  0  0  0  2  0  0  0  0  0  0
  183.6140  178.4650  138.4840 C   0  0  0  0  0  0  0  0  0  0  0  0
  187.9780  178.5170  141.1970 C   0  0  0  0  0  3  0  0  0  0  0  0
  181.9090  179.5710  141.4710 C   0  0  0  0  0  3  0  0  0  0  0  0
  187.1490  177.3240  144.6940 C   0  0  0  0  0  2  0  0  0  0  0  0
  180.8310  179.5820  142.3620 C   0  0  0  0  0  3  0  0  0  0  0  0
  183.2900  178.5130  143.1590 C   0  0  0  0  0  0  0  0  0  0  0  0
  182.2060  178.5180  144.0420 C   0  0  0  0  0  3  0  0  0  0  0  0
  180.9780  179.0520  143.6450 C   0  0  0  0  0  3  0  0  0  0  0  0
  183.1440  179.0380  141.8610 C   0  0  0  0  0  0  0  0  0  0  0  0
  186.7370  178.8020  140.7160 N   0  0  0  0  0  0  0  0  0  0  0  0
  189.6190  177.4370  144.4980 C   0  0  2  0  0  3  0  0  0  0  0  0
  185.7220  178.1400  142.7770 C   0  0  0  0  0  0  0  0  0  0  0  0
  188.1350  178.0270  142.4920 C   0  0  0  0  0  0  0  0  0  0  0  0
  184.5570  178.0230  143.5990 N   0  0  0  0  0  0  0  0  0  0  0  0
  189.5300  177.8390  143.0250 C   0  0  0  0  0  2  0  0  0  0  0  0
  184.2760  178.9860  140.8650 C   0  0  0  0  0  0  0  0  0  0  0  0
  188.4110  177.9020  145.3080 C   0  0  0  0  0  2  0  0  0  0  0  0
  185.6150  178.6420  141.4690 C   0  0  0  0  0  0  0  0  0  0  0  0
  186.9920  177.8310  143.2910 C   0  0  0  0  0  0  0  0  0  0  0  0
  190.7820  177.9870  145.0430 O   0  0  0  0  0  0  0  0  0  0  0  0
  191.6310  176.9110  145.2900 C   0  0  0  0  0  2  0  0  0  0  0  0
  191.5360  176.5380  146.7590 C   0  0  0  0  0  1  0  0  0  0  0  0
  184.7120  173.1630  136.3230 C   0  0  0  0  0  2  0  0  0  0  0  0
  184.4150  171.7840  136.8930 C   0  0  0  0  0  2  0  0  0  0  0  0
  180.4850  170.5040  135.7120 C   0  0  0  0  0  3  0  0  0  0  0  0
  183.0530  171.3250  136.4940 C   0  0  0  0  0  0  0  0  0  0  0  0
  182.8590  170.7350  135.2390 C   0  0  0  0  0  3  0  0  0  0  0  0
  180.6790  171.0880  136.9680 C   0  0  0  0  0  3  0  0  0  0  0  0
  181.5750  170.3260  134.8480 C   0  0  0  0  0  3  0  0  0  0  0  0
  181.9630  171.4990  137.3600 C   0  0  0  0  0  3  0  0  0  0  0  0
  1 48  1  6  0  0  0
  1  2  1  0  0  0  0
  3  5  1  0  0  0  0
  3  2  1  0  0  0  0
  5  4  1  6  0  0  0
  5  6  1  0  0  0  0
  8 13  1  0  0  0  0
  9 15  1  6  0  0  0
  9  5  1  0  0  0  0
  9 16  1  0  0  0  0
 11  9  1  0  0  0  0
 11 10  1  1  0  0  0
 13  7  1  1  0  0  0
 14 11  1  0  0  0  0
 14  8  1  0  0  0  0
 14 17  1  1  0  0  0
 16 13  1  0  0  0  0
 16 12  1  1  0  0  0
 16  7  1  0  0  0  0
 17 18  1  6  0  0  0
 17 19  1  0  0  0  0
 20 19  1  0  0  0  0
 21  1  1  0  0  0  0
 21 22  1  0  0  0  0
 23 22  1  0  0  0  0
 23 26  1  0  0  0  0
 24 26  2  0  0  0  0
 25 41  1  0  0  0  0
 26 25  1  0  0  0  0
 27 38  1  0  0  0  0
 28 34  2  0  0  0  0
 28 30  1  0  0  0  0
 29 42  1  0  0  0  0
 30 33  2  0  0  0  0
 31 39  1  0  0  0  0
 31 32  2  0  0  0  0
 33 32  1  0  0  0  0
 34 31  1  0  0  0  0
 35 27  2  0  0  0  0
 35 43  1  0  0  0  0
 36 45  1  1  0  0  0
 36 42  1  0  0  0  0
 37 44  1  0  0  0  0
 37 39  2  0  0  0  0
 38 40  1  0  0  0  0
 38 44  2  0  0  0  0
 40 36  1  0  0  0  0
 41 43  2  0  0  0  0
 41 34  1  0  0  0  0
 43 37  1  0  0  0  0
 44 29  1  0  0  0  0
 45 46  1  0  0  0  0
 46 47  1  0  0  0  0
 48 49  1  0  0  0  0
 50 53  1  0  0  0  0
 51 49  1  0  0  0  0
 51 55  1  0  0  0  0
 52 51  2  0  0  0  0
 53 55  2  0  0  0  0
 54 52  1  0  0  0  0
 54 50  2  0  0  0  0
M  END
>  <MODEL>
8

>  <REMARK>
 VINA RESULT:      -7.1      2.637      8.128
  Name = 
  16 active torsions:
  status: ('A' for Active; 'I' for Inactive)
    1  A    between atoms: O_4  and  C_37
    2  A    between atoms: O_4  and  C_40
    3  A    between atoms: C_6  and  C_20
    4  A    between atoms: C_8  and  C_22
    5  A    between atoms: C_8  and  C_43
    6  A    between atoms: O_10  and  C_18
    7  A    between atoms: O_10  and  C_32
    8  A    between atoms: C_11  and  C_29
    9  A    between atoms: N_19  and  C_45
   10  A    between atoms: C_20  and  C_22
   11  A    between atoms: C_27  and  C_54
   12  A    between atoms: C_29  and  C_38
   13  A    between atoms: C_35  and  C_37
   14  A    between atoms: C_35  and  C_43
   15  A    between atoms: C_43  and  C_51
   16  A    between atoms: C_51  and  C_54
                            x       y       z     vdW  Elec       q    Type
                         _______ _______ _______ _____ _____    ______ ____

>  <TORSDO>
F 16

$$$$
=
 OpenBabel10262420273D

 55 61  0  0  1  0  0  0  0  0999 V2000
  186.9410  176.4740  137.3450 C   0  0  1  0  0  3  0  0  0  0  0  0
  187.8050  177.5870  137.9020 C   0  0  0  0  0  2  0  0  0  0  0  0
  188.0410  177.3660  139.3940 C   0  0  0  0  0  2  0  0  0  0  0  0
  190.6140  177.5110  138.4750 S   0  0  0  0  0  1  0  0  0  0  0  0
  189.4450  177.7810  139.8570 C   0  0  1  0  0  0  0  0  0  0  0  0
  189.4030  179.1410  140.1000 F   0  0  0  0  0  0  0  0  0  0  0  0
  191.2130  178.6060  142.8610 C   0  0  0  0  0  2  0  0  0  0  0  0
  190.7010  176.2840  143.7210 O   0  0  0  0  0  0  0  0  0  0  0  0
  189.8970  177.0400  141.1650 C   0  0  1  0  0  0  0  0  0  0  0  0
  188.3250  178.4430  142.3700 F   0  0  0  0  0  0  0  0  0  0  0  0
  188.8170  177.1460  142.2660 C   0  0  2  0  0  3  0  0  0  0  0  0
  192.3120  177.7390  140.8500 O   0  0  0  0  0  1  0  0  0  0  0  0
  191.6470  177.1590  143.1000 C   0  0  1  0  0  3  0  0  0  0  0  0
  189.3300  176.6370  143.6320 C   0  0  2  0  0  3  0  0  0  0  0  0
  190.0940  175.6840  140.8840 O   0  0  0  0  0  1  0  0  0  0  0  0
  191.2260  177.6130  141.7130 C   0  0  1  0  0  0  0  0  0  0  0  0
  188.7960  177.2790  144.9070 C   0  0  1  0  0  3  0  0  0  0  0  0
  187.4940  176.8760  145.1690 O   0  0  0  0  0  1  0  0  0  0  0  0
  189.6890  176.9530  146.0780 C   0  0  0  0  0  2  0  0  0  0  0  0
  188.9210  176.8670  147.2320 O   0  0  0  0  0  1  0  0  0  0  0  0
  186.0970  177.0110  136.1920 C   0  0  0  0  0  2  0  0  0  0  0  0
  184.8670  176.1480  135.9620 C   0  0  0  0  0  2  0  0  0  0  0  0
  184.2630  175.8180  137.2040 O   0  0  0  0  0  0  0  0  0  0  0  0
  182.9630  176.4360  138.9880 O   0  0  0  0  0  0  0  0  0  0  0  0
  183.8270  178.1800  137.6980 N   0  0  0  0  0  2  0  0  0  0  0  0
  183.6680  176.7910  138.0060 C   0  0  0  0  0  0  0  0  0  0  0  0
  185.5370  179.3030  141.4540 C   0  0  0  0  0  3  0  0  0  0  0  0
  181.1340  179.5100  137.1440 C   0  0  0  0  0  3  0  0  0  0  0  0
  182.4850  178.2290  143.4220 C   0  0  0  0  0  2  0  0  0  0  0  0
  179.7470  179.4250  136.9780 C   0  0  0  0  0  3  0  0  0  0  0  0
  180.9030  178.7650  139.4390 C   0  0  0  0  0  0  0  0  0  0  0  0
  179.5190  178.6730  139.2650 C   0  0  0  0  0  3  0  0  0  0  0  0
  178.9410  179.0030  138.0370 C   0  0  0  0  0  3  0  0  0  0  0  0
  181.7210  179.1810  138.3720 C   0  0  0  0  0  0  0  0  0  0  0  0
  185.0230  179.3810  140.1960 N   0  0  0  0  0  0  0  0  0  0  0  0
  184.3120  178.6750  145.0400 C   0  0  2  0  0  3  0  0  0  0  0  0
  182.8630  178.7140  140.9730 C   0  0  0  0  0  0  0  0  0  0  0  0
  184.7270  178.9230  142.5230 C   0  0  0  0  0  0  0  0  0  0  0  0
  181.4740  178.4860  140.7170 N   0  0  0  0  0  0  0  0  0  0  0  0
  185.3020  178.9670  143.9130 C   0  0  0  0  0  2  0  0  0  0  0  0
  183.2220  179.2260  138.5090 C   0  0  0  0  0  0  0  0  0  0  0  0
  182.8730  179.0160  144.6610 C   0  0  0  0  0  2  0  0  0  0  0  0
  183.7170  179.1120  139.9310 C   0  0  0  0  0  0  0  0  0  0  0  0
  183.3740  178.6190  142.2790 C   0  0  0  0  0  0  0  0  0  0  0  0
  184.6830  179.4160  146.1650 O   0  0  0  0  0  0  0  0  0  0  0  0
  185.3810  178.5350  146.9880 C   0  0  0  0  0  2  0  0  0  0  0  0
  186.4930  179.2930  147.6890 C   0  0  0  0  0  1  0  0  0  0  0  0
  187.8360  175.3430  136.8660 C   0  0  0  0  0  2  0  0  0  0  0  0
  188.6190  175.8000  135.6440 C   0  0  0  0  0  2  0  0  0  0  0  0
  192.5020  173.9580  135.5770 C   0  0  0  0  0  3  0  0  0  0  0  0
  189.9640  175.1570  135.6030 C   0  0  0  0  0  0  0  0  0  0  0  0
  190.1440  173.8880  136.1670 C   0  0  0  0  0  3  0  0  0  0  0  0
  192.3210  175.2240  135.0080 C   0  0  0  0  0  3  0  0  0  0  0  0
  191.4130  173.2900  136.1550 C   0  0  0  0  0  3  0  0  0  0  0  0
  191.0530  175.8240  135.0210 C   0  0  0  0  0  3  0  0  0  0  0  0
  1 21  1  6  0  0  0
  1  2  1  0  0  0  0
  2  3  1  0  0  0  0
  3  5  1  0  0  0  0
  5  4  1  6  0  0  0
  5  6  1  0  0  0  0
  5  9  1  0  0  0  0
  9 15  1  6  0  0  0
  9 16  1  0  0  0  0
  9 11  1  0  0  0  0
 11 10  1  1  0  0  0
 11 14  1  0  0  0  0
 13  7  1  1  0  0  0
 13  8  1  0  0  0  0
 14  8  1  0  0  0  0
 14 17  1  1  0  0  0
 16 12  1  6  0  0  0
 16  7  1  0  0  0  0
 16 13  1  0  0  0  0
 17 18  1  1  0  0  0
 17 19  1  0  0  0  0
 19 20  1  0  0  0  0
 22 21  1  0  0  0  0
 22 23  1  0  0  0  0
 23 26  1  0  0  0  0
 25 26  1  0  0  0  0
 25 41  1  0  0  0  0
 26 24  2  0  0  0  0
 27 38  1  0  0  0  0
 28 34  1  0  0  0  0
 29 42  1  0  0  0  0
 30 28  2  0  0  0  0
 30 33  1  0  0  0  0
 31 39  1  0  0  0  0
 32 31  1  0  0  0  0
 33 32  2  0  0  0  0
 34 41  1  0  0  0  0
 34 31  2  0  0  0  0
 35 27  2  0  0  0  0
 36 45  1  1  0  0  0
 37 44  1  0  0  0  0
 38 40  1  0  0  0  0
 39 37  2  0  0  0  0
 40 36  1  0  0  0  0
 41 43  2  0  0  0  0
 42 36  1  0  0  0  0
 43 35  1  0  0  0  0
 43 37  1  0  0  0  0
 44 38  2  0  0  0  0
 44 29  1  0  0  0  0
 45 46  1  0  0  0  0
 46 47  1  0  0  0  0
 48  1  1  0  0  0  0
 49 48  1  0  0  0  0
 50 54  1  0  0  0  0
 51 49  1  0  0  0  0
 51 52  1  0  0  0  0
 53 55  1  0  0  0  0
 53 50  2  0  0  0  0
 54 52  2  0  0  0  0
 55 51  2  0  0  0  0
M  END
>  <MODEL>
9

>  <REMARK>
 VINA RESULT:      -7.0      3.101      7.560
  Name = 
  16 active torsions:
  status: ('A' for Active; 'I' for Inactive)
    1  A    between atoms: O_4  and  C_37
    2  A    between atoms: O_4  and  C_40
    3  A    between atoms: C_6  and  C_20
    4  A    between atoms: C_8  and  C_22
    5  A    between atoms: C_8  and  C_43
    6  A    between atoms: O_10  and  C_18
    7  A    between atoms: O_10  and  C_32
    8  A    between atoms: C_11  and  C_29
    9  A    between atoms: N_19  and  C_45
   10  A    between atoms: C_20  and  C_22
   11  A    between atoms: C_27  and  C_54
   12  A    between atoms: C_29  and  C_38
   13  A    between atoms: C_35  and  C_37
   14  A    between atoms: C_35  and  C_43
   15  A    between atoms: C_43  and  C_51
   16  A    between atoms: C_51  and  C_54
                            x       y       z     vdW  Elec       q    Type
                         _______ _______ _______ _____ _____    ______ ____

>  <TORSDO>
F 16

$$$$
