=
 OpenBabel10262421443D

 30 33  0  0  1  0  0  0  0  0999 V2000
  180.8170  178.8740  139.4440 C   0  0  0  0  0  0  0  0  0  0  0  0
  181.6320  177.6730  138.9810 C   0  0  1  0  0  3  0  0  0  0  0  0
  180.9590  179.3500  140.6880 C   0  0  0  0  0  3  0  0  0  0  0  0
  183.9660  177.4750  141.7460 O   0  0  0  0  0  0  0  0  0  0  0  0
  183.0490  177.9640  141.0330 C   0  0  0  0  0  0  0  0  0  0  0  0
  181.8910  179.1710  142.8960 C   0  0  0  0  0  3  0  0  0  0  0  0
  181.9720  178.8120  141.6090 C   0  0  0  0  0  0  0  0  0  0  0  0
  183.0610  177.7060  139.5510 C   0  0  2  0  0  3  0  0  0  0  0  0
  179.9680  179.1050  137.0890 C   0  0  0  0  0  0  0  0  0  0  0  0
  180.7760  179.8160  136.0380 C   0  0  0  0  0  2  0  0  0  0  0  0
  179.4140  178.0530  136.8070 O   0  0  0  0  0  0  0  0  0  0  0  0
  180.0530  181.1410  138.6130 C   0  0  0  0  0  2  0  0  0  0  0  0
  181.2510  183.1690  137.8400 C   0  0  0  0  0  1  0  0  0  0  0  0
  179.9070  179.6170  138.5080 C   0  0  2  0  0  3  0  0  0  0  0  0
  180.7730  181.3280  136.2460 C   0  0  0  0  0  2  0  0  0  0  0  0
  181.1390  181.6690  137.6830 C   0  0  2  0  0  3  0  0  0  0  0  0
  185.0740  178.2350  138.0080 C   0  0  0  0  0  2  0  0  0  0  0  0
  183.8460  178.6150  137.4220 O   0  0  0  0  0  0  0  0  0  0  0  0
  183.9950  180.0420  139.2420 O   0  0  0  0  0  1  0  0  0  0  0  0
  183.9420  178.7130  138.8180 C   0  0  1  0  0  0  0  0  0  0  0  0
  179.6350  176.2180  138.9600 O   0  0  0  0  0  0  0  0  0  0  0  0
  179.7690  174.7330  140.8310 C   0  0  0  0  0  1  0  0  0  0  0  0
  180.9960  176.3030  139.2930 C   0  0  2  0  0  0  0  0  0  0  0  0
  179.9450  176.1600  140.3380 C   0  0  1  0  0  3  0  0  0  0  0  0
  181.5590  175.5590  136.5810 O   0  0  0  0  0  0  0  0  0  0  0  0
  181.9890  174.8110  137.4970 C   0  0  0  0  0  0  0  0  0  0  0  0
  182.7900  173.6080  137.1450 C   0  0  0  0  0  1  0  0  0  0  0  0
  181.7200  175.1070  138.8680 N   0  0  0  0  0  2  0  0  0  0  0  0
  183.8990  179.7910  144.1910 C   0  0  0  0  0  1  0  0  0  0  0  0
  182.8260  178.7400  143.9780 C   0  0  0  0  0  2  0  0  0  0  0  0
  1  3  2  0  0  0  0
  2 23  1  0  0  0  0
  2  1  1  1  0  0  0
  2  8  1  0  0  0  0
  3  7  1  0  0  0  0
  5  7  1  0  0  0  0
  5  4  2  0  0  0  0
  6 30  1  0  0  0  0
  7  6  2  0  0  0  0
  8  5  1  1  0  0  0
  9 14  1  0  0  0  0
 10 15  1  0  0  0  0
 10  9  1  0  0  0  0
 11  9  2  0  0  0  0
 14 12  1  0  0  0  0
 14  1  1  1  0  0  0
 15 16  1  0  0  0  0
 16 13  1  6  0  0  0
 16 12  1  0  0  0  0
 17 20  1  0  0  0  0
 18 17  1  0  0  0  0
 18 20  1  0  0  0  0
 20 19  1  1  0  0  0
 20  8  1  0  0  0  0
 21 23  1  0  0  0  0
 21 24  1  0  0  0  0
 23 28  1  6  0  0  0
 23 24  1  0  0  0  0
 24 22  1  6  0  0  0
 25 26  2  0  0  0  0
 26 28  1  0  0  0  0
 27 26  1  0  0  0  0
 30 29  1  0  0  0  0
M  END
>  <MODEL>
1

>  <REMARK>
 VINA RESULT:      -4.9      0.000      0.000
  Name = 
  5 active torsions:
  status: ('A' for Active; 'I' for Inactive)
    1  A    between atoms: C_1  and  C_22
    2  A    between atoms: C_4  and  C_23
    3  A    between atoms: C_9  and  C_21
    4  A    between atoms: C_13  and  C_30
    5  A    between atoms: C_23  and  N_25
                            x       y       z     vdW  Elec       q    Type
                         _______ _______ _______ _____ _____    ______ ____

>  <TORSDO>
F 5

$$$$
=
 OpenBabel10262421443D

 30 33  0  0  1  0  0  0  0  0999 V2000
  180.7450  177.6610  139.3580 C   0  0  0  0  0  0  0  0  0  0  0  0
  181.0410  178.4560  138.0930 C   0  0  1  0  0  3  0  0  0  0  0  0
  181.6540  177.5840  140.3380 C   0  0  0  0  0  3  0  0  0  0  0  0
  184.0450  180.1600  139.1890 O   0  0  0  0  0  0  0  0  0  0  0  0
  183.0120  179.4480  139.2920 C   0  0  0  0  0  0  0  0  0  0  0  0
  183.8610  178.0340  141.1760 C   0  0  0  0  0  3  0  0  0  0  0  0
  182.9120  178.3450  140.2860 C   0  0  0  0  0  0  0  0  0  0  0  0
  181.8320  179.7390  138.4050 C   0  0  2  0  0  3  0  0  0  0  0  0
  179.2600  176.4330  140.9740 C   0  0  0  0  0  0  0  0  0  0  0  0
  179.4300  174.9590  141.2190 C   0  0  0  0  0  2  0  0  0  0  0  0
  179.0750  177.1810  141.9240 O   0  0  0  0  0  0  0  0  0  0  0  0
  179.0070  176.0460  138.4720 C   0  0  0  0  0  2  0  0  0  0  0  0
  179.1190  173.7280  137.5990 C   0  0  0  0  0  1  0  0  0  0  0  0
  179.4070  177.0180  139.5900 C   0  0  2  0  0  3  0  0  0  0  0  0
  178.9310  174.1270  140.0420 C   0  0  0  0  0  2  0  0  0  0  0  0
  179.5260  174.6370  138.7380 C   0  0  2  0  0  3  0  0  0  0  0  0
  180.7730  182.1000  138.2840 C   0  0  0  0  0  2  0  0  0  0  0  0
  179.7970  181.0810  138.2310 O   0  0  0  0  0  0  0  0  0  0  0  0
  180.6620  180.8350  140.3670 O   0  0  0  0  0  1  0  0  0  0  0  0
  180.9420  180.8260  139.0000 C   0  0  1  0  0  0  0  0  0  0  0  0
  182.7870  178.3920  136.3450 O   0  0  0  0  0  0  0  0  0  0  0  0
  182.0420  176.9420  134.5940 C   0  0  0  0  0  1  0  0  0  0  0  0
  181.7740  177.6660  136.9900 C   0  0  2  0  0  0  0  0  0  0  0  0
  181.6630  178.0550  135.5570 C   0  0  1  0  0  3  0  0  0  0  0  0
  184.4700  176.8720  137.5600 O   0  0  0  0  0  0  0  0  0  0  0  0
  183.5750  175.9890  137.6090 C   0  0  0  0  0  0  0  0  0  0  0  0
  183.9390  174.5980  137.9880 C   0  0  0  0  0  1  0  0  0  0  0  0
  182.2160  176.3090  137.3090 N   0  0  0  0  0  2  0  0  0  0  0  0
  185.8750  178.2840  142.5820 C   0  0  0  0  0  1  0  0  0  0  0  0
  185.1970  178.6950  141.2880 C   0  0  0  0  0  2  0  0  0  0  0  0
  1  3  2  0  0  0  0
  2  8  1  0  0  0  0
  2  1  1  1  0  0  0
  4  5  2  0  0  0  0
  5  7  1  0  0  0  0
  6 30  1  0  0  0  0
  7  3  1  0  0  0  0
  7  6  2  0  0  0  0
  8 20  1  0  0  0  0
  8  5  1  1  0  0  0
  9 10  1  0  0  0  0
  9 11  2  0  0  0  0
 12 16  1  0  0  0  0
 12 14  1  0  0  0  0
 14  1  1  6  0  0  0
 14  9  1  0  0  0  0
 15 10  1  0  0  0  0
 16 13  1  6  0  0  0
 16 15  1  0  0  0  0
 17 20  1  0  0  0  0
 18 17  1  0  0  0  0
 18 20  1  0  0  0  0
 20 19  1  1  0  0  0
 21 23  1  0  0  0  0
 23 28  1  1  0  0  0
 23  2  1  0  0  0  0
 24 22  1  6  0  0  0
 24 21  1  0  0  0  0
 24 23  1  0  0  0  0
 25 26  2  0  0  0  0
 26 27  1  0  0  0  0
 28 26  1  0  0  0  0
 30 29  1  0  0  0  0
M  END
>  <MODEL>
2

>  <REMARK>
 VINA RESULT:      -4.8      2.039      4.591
  Name = 
  5 active torsions:
  status: ('A' for Active; 'I' for Inactive)
    1  A    between atoms: C_1  and  C_22
    2  A    between atoms: C_4  and  C_23
    3  A    between atoms: C_9  and  C_21
    4  A    between atoms: C_13  and  C_30
    5  A    between atoms: C_23  and  N_25
                            x       y       z     vdW  Elec       q    Type
                         _______ _______ _______ _____ _____    ______ ____

>  <TORSDO>
F 5

$$$$
=
 OpenBabel10262421443D

 30 33  0  0  1  0  0  0  0  0999 V2000
  183.6200  178.7710  141.0230 C   0  0  0  0  0  0  0  0  0  0  0  0
  182.2190  179.3670  140.9750 C   0  0  1  0  0  3  0  0  0  0  0  0
  183.9440  177.7350  140.2400 C   0  0  0  0  0  3  0  0  0  0  0  0
  180.9920  177.6810  138.0120 O   0  0  0  0  0  0  0  0  0  0  0  0
  181.8340  178.0470  138.8740 C   0  0  0  0  0  0  0  0  0  0  0  0
  183.3110  176.0360  138.6630 C   0  0  0  0  0  3  0  0  0  0  0  0
  183.0100  177.2080  139.2330 C   0  0  0  0  0  0  0  0  0  0  0  0
  181.6630  179.3850  139.5400 C   0  0  2  0  0  3  0  0  0  0  0  0
  186.0250  178.6560  141.7470 C   0  0  0  0  0  0  0  0  0  0  0  0
  186.4780  177.6670  142.7860 C   0  0  0  0  0  2  0  0  0  0  0  0
  186.7060  178.8250  140.7450 O   0  0  0  0  0  0  0  0  0  0  0  0
  184.2690  179.6000  143.3270 C   0  0  0  0  0  2  0  0  0  0  0  0
  184.0660  178.6410  145.6050 C   0  0  0  0  0  1  0  0  0  0  0  0
  184.7030  179.3740  141.8730 C   0  0  2  0  0  3  0  0  0  0  0  0
  186.0190  178.0640  144.1850 C   0  0  0  0  0  2  0  0  0  0  0  0
  184.5280  178.3700  144.1900 C   0  0  2  0  0  3  0  0  0  0  0  0
  181.5210  181.0680  137.5760 C   0  0  0  0  0  2  0  0  0  0  0  0
  181.5870  181.7210  138.8260 O   0  0  0  0  0  0  0  0  0  0  0  0
  183.6590  180.6920  138.6880 O   0  0  0  0  0  1  0  0  0  0  0  0
  182.2760  180.5050  138.7060 C   0  0  1  0  0  0  0  0  0  0  0  0
  179.9920  179.3920  142.0440 O   0  0  0  0  0  0  0  0  0  0  0  0
  180.1710  178.3200  144.1760 C   0  0  0  0  0  1  0  0  0  0  0  0
  181.1950  178.6850  141.9060 C   0  0  2  0  0  0  0  0  0  0  0  0
  180.7990  179.3030  143.2010 C   0  0  1  0  0  3  0  0  0  0  0  0
  178.9310  177.5360  140.5740 O   0  0  0  0  0  0  0  0  0  0  0  0
  179.8120  176.7530  141.0160 C   0  0  0  0  0  0  0  0  0  0  0  0
  179.6640  175.2890  140.8030 C   0  0  0  0  0  1  0  0  0  0  0  0
  180.9520  177.2570  141.7140 N   0  0  0  0  0  2  0  0  0  0  0  0
  183.0550  175.6420  136.2390 C   0  0  0  0  0  1  0  0  0  0  0  0
  182.4970  175.3430  137.6180 C   0  0  0  0  0  2  0  0  0  0  0  0
  2  1  1  6  0  0  0
  2 23  1  0  0  0  0
  3  1  2  0  0  0  0
  4  5  2  0  0  0  0
  5  7  1  0  0  0  0
  6  7  2  0  0  0  0
  7  3  1  0  0  0  0
  8  5  1  6  0  0  0
  8  2  1  0  0  0  0
  9 14  1  0  0  0  0
  9 10  1  0  0  0  0
 10 15  1  0  0  0  0
 11  9  2  0  0  0  0
 12 16  1  0  0  0  0
 14  1  1  6  0  0  0
 14 12  1  0  0  0  0
 15 16  1  0  0  0  0
 16 13  1  1  0  0  0
 17 20  1  0  0  0  0
 17 18  1  0  0  0  0
 20 19  1  6  0  0  0
 20 18  1  0  0  0  0
 20  8  1  0  0  0  0
 21 24  1  0  0  0  0
 23 28  1  6  0  0  0
 23 21  1  0  0  0  0
 23 24  1  0  0  0  0
 24 22  1  1  0  0  0
 25 26  2  0  0  0  0
 26 28  1  0  0  0  0
 27 26  1  0  0  0  0
 29 30  1  0  0  0  0
 30  6  1  0  0  0  0
M  END
>  <MODEL>
3

>  <REMARK>
 VINA RESULT:      -4.8      2.075      5.727
  Name = 
  5 active torsions:
  status: ('A' for Active; 'I' for Inactive)
    1  A    between atoms: C_1  and  C_22
    2  A    between atoms: C_4  and  C_23
    3  A    between atoms: C_9  and  C_21
    4  A    between atoms: C_13  and  C_30
    5  A    between atoms: C_23  and  N_25
                            x       y       z     vdW  Elec       q    Type
                         _______ _______ _______ _____ _____    ______ ____

>  <TORSDO>
F 5

$$$$
=
 OpenBabel10262421443D

 30 33  0  0  1  0  0  0  0  0999 V2000
  185.2510  177.0470  137.5090 C   0  0  0  0  0  0  0  0  0  0  0  0
  183.7980  177.4700  137.6860 C   0  0  1  0  0  3  0  0  0  0  0  0
  185.5720  175.7510  137.4100 C   0  0  0  0  0  3  0  0  0  0  0  0
  182.1980  174.2930  137.0010 O   0  0  0  0  0  0  0  0  0  0  0  0
  183.1410  175.1240  137.0800 C   0  0  0  0  0  0  0  0  0  0  0  0
  184.9400  173.4340  137.4960 C   0  0  0  0  0  3  0  0  0  0  0  0
  184.5410  174.7030  137.3550 C   0  0  0  0  0  0  0  0  0  0  0  0
  182.8480  176.5840  136.8630 C   0  0  2  0  0  3  0  0  0  0  0  0
  187.0520  177.9660  136.0150 C   0  0  0  0  0  0  0  0  0  0  0  0
  188.3770  177.2680  135.8750 C   0  0  0  0  0  2  0  0  0  0  0  0
  186.4970  178.4010  135.0160 O   0  0  0  0  0  0  0  0  0  0  0  0
  187.3170  178.0860  138.5430 C   0  0  0  0  0  2  0  0  0  0  0  0
  189.3630  177.1460  139.5810 C   0  0  0  0  0  1  0  0  0  0  0  0
  186.3520  178.0570  137.3490 C   0  0  2  0  0  3  0  0  0  0  0  0
  189.2440  177.4420  137.1190 C   0  0  0  0  0  2  0  0  0  0  0  0
  188.4560  177.0870  138.3710 C   0  0  2  0  0  3  0  0  0  0  0  0
  181.6140  177.1960  134.6680 C   0  0  0  0  0  2  0  0  0  0  0  0
  182.4390  178.2500  135.1220 O   0  0  0  0  0  0  0  0  0  0  0  0
  183.9780  176.6000  134.5950 O   0  0  0  0  0  1  0  0  0  0  0  0
  182.8770  176.9430  135.3800 C   0  0  1  0  0  0  0  0  0  0  0  0
  182.4370  176.4690  139.4880 O   0  0  0  0  0  0  0  0  0  0  0  0
  181.6650  178.2290  140.9130 C   0  0  0  0  0  1  0  0  0  0  0  0
  183.3120  177.5110  139.1490 C   0  0  2  0  0  0  0  0  0  0  0  0
  181.8830  177.7690  139.4800 C   0  0  1  0  0  3  0  0  0  0  0  0
  184.5520  180.0130  139.8000 O   0  0  0  0  0  0  0  0  0  0  0  0
  184.8730  179.0040  140.4810 C   0  0  0  0  0  0  0  0  0  0  0  0
  185.8410  179.1520  141.6000 C   0  0  0  0  0  1  0  0  0  0  0  0
  184.3150  177.7210  140.1910 N   0  0  0  0  0  2  0  0  0  0  0  0
  184.2210  171.4960  136.1460 C   0  0  0  0  0  1  0  0  0  0  0  0
  184.0500  172.2340  137.4610 C   0  0  0  0  0  2  0  0  0  0  0  0
  2  1  1  1  0  0  0
  2 23  1  0  0  0  0
  3  1  2  0  0  0  0
  4  5  2  0  0  0  0
  5  7  1  0  0  0  0
  7  3  1  0  0  0  0
  7  6  2  0  0  0  0
  8  5  1  6  0  0  0
  8  2  1  0  0  0  0
  9 14  1  0  0  0  0
 10  9  1  0  0  0  0
 10 15  1  0  0  0  0
 11  9  2  0  0  0  0
 14  1  1  1  0  0  0
 14 12  1  0  0  0  0
 15 16  1  0  0  0  0
 16 12  1  0  0  0  0
 16 13  1  1  0  0  0
 17 18  1  0  0  0  0
 17 20  1  0  0  0  0
 18 20  1  0  0  0  0
 20 19  1  6  0  0  0
 20  8  1  0  0  0  0
 23 24  1  0  0  0  0
 23 21  1  0  0  0  0
 23 28  1  1  0  0  0
 24 21  1  0  0  0  0
 24 22  1  1  0  0  0
 25 26  2  0  0  0  0
 26 27  1  0  0  0  0
 28 26  1  0  0  0  0
 29 30  1  0  0  0  0
 30  6  1  0  0  0  0
M  END
>  <MODEL>
4

>  <REMARK>
 VINA RESULT:      -4.7      2.815      6.565
  Name = 
  5 active torsions:
  status: ('A' for Active; 'I' for Inactive)
    1  A    between atoms: C_1  and  C_22
    2  A    between atoms: C_4  and  C_23
    3  A    between atoms: C_9  and  C_21
    4  A    between atoms: C_13  and  C_30
    5  A    between atoms: C_23  and  N_25
                            x       y       z     vdW  Elec       q    Type
                         _______ _______ _______ _____ _____    ______ ____

>  <TORSDO>
F 5

$$$$
=
 OpenBabel10262421443D

 30 33  0  0  1  0  0  0  0  0999 V2000
  184.6440  178.0210  138.6120 C   0  0  0  0  0  0  0  0  0  0  0  0
  184.3650  179.0760  139.6760 C   0  0  1  0  0  3  0  0  0  0  0  0
  183.8630  176.9380  138.5120 C   0  0  0  0  0  3  0  0  0  0  0  0
  181.1010  177.9360  140.7590 O   0  0  0  0  0  0  0  0  0  0  0  0
  182.1370  177.9790  140.0440 C   0  0  0  0  0  0  0  0  0  0  0  0
  182.0710  175.5740  139.3490 C   0  0  0  0  0  3  0  0  0  0  0  0
  182.6560  176.7770  139.3370 C   0  0  0  0  0  0  0  0  0  0  0  0
  182.8550  179.2900  139.8760 C   0  0  2  0  0  3  0  0  0  0  0  0
  185.6210  177.2400  136.4310 C   0  0  0  0  0  0  0  0  0  0  0  0
  186.4700  176.0010  136.3600 C   0  0  0  0  0  2  0  0  0  0  0  0
  184.7720  177.4340  135.5720 O   0  0  0  0  0  0  0  0  0  0  0  0
  187.1340  178.2450  138.2130 C   0  0  0  0  0  2  0  0  0  0  0  0
  189.1080  176.9540  138.9770 C   0  0  0  0  0  1  0  0  0  0  0  0
  185.7320  178.1990  137.5920 C   0  0  2  0  0  3  0  0  0  0  0  0
  187.8540  176.2260  136.9620 C   0  0  0  0  0  2  0  0  0  0  0  0
  187.7380  176.8510  138.3450 C   0  0  2  0  0  3  0  0  0  0  0  0
  181.4620  181.3230  139.0760 C   0  0  0  0  0  2  0  0  0  0  0  0
  182.8050  181.4000  138.6440 O   0  0  0  0  0  0  0  0  0  0  0  0
  182.0160  179.5470  137.4990 O   0  0  0  0  0  1  0  0  0  0  0  0
  182.2440  180.1200  138.7510 C   0  0  1  0  0  0  0  0  0  0  0  0
  185.8840  179.8220  141.4760 O   0  0  0  0  0  0  0  0  0  0  0  0
  186.8980  177.8870  142.4520 C   0  0  0  0  0  1  0  0  0  0  0  0
  185.0230  178.8020  141.0440 C   0  0  2  0  0  0  0  0  0  0  0  0
  186.4910  178.5840  141.1640 C   0  0  1  0  0  3  0  0  0  0  0  0
  184.5730  180.1720  143.5230 O   0  0  0  0  0  0  0  0  0  0  0  0
  183.9620  179.0890  143.3310 C   0  0  0  0  0  0  0  0  0  0  0  0
  183.0180  178.5860  144.3640 C   0  0  0  0  0  1  0  0  0  0  0  0
  184.1620  178.3410  142.1300 N   0  0  0  0  0  2  0  0  0  0  0  0
  179.8870  174.4280  139.2320 C   0  0  0  0  0  1  0  0  0  0  0  0
  180.8370  175.2160  140.1140 C   0  0  0  0  0  2  0  0  0  0  0  0
  2  1  1  6  0  0  0
  2  8  1  0  0  0  0
  2 23  1  0  0  0  0
  3  1  2  0  0  0  0
  3  7  1  0  0  0  0
  5  4  2  0  0  0  0
  6 30  1  0  0  0  0
  7  6  2  0  0  0  0
  7  5  1  0  0  0  0
  8  5  1  6  0  0  0
  9 14  1  0  0  0  0
 10  9  1  0  0  0  0
 10 15  1  0  0  0  0
 11  9  2  0  0  0  0
 12 16  1  0  0  0  0
 14 12  1  0  0  0  0
 14  1  1  1  0  0  0
 15 16  1  0  0  0  0
 16 13  1  6  0  0  0
 18 20  1  0  0  0  0
 18 17  1  0  0  0  0
 20 19  1  6  0  0  0
 20 17  1  0  0  0  0
 20  8  1  0  0  0  0
 23 24  1  0  0  0  0
 23 21  1  0  0  0  0
 23 28  1  1  0  0  0
 24 21  1  0  0  0  0
 24 22  1  1  0  0  0
 26 25  2  0  0  0  0
 26 27  1  0  0  0  0
 28 26  1  0  0  0  0
 29 30  1  0  0  0  0
M  END
>  <MODEL>
5

>  <REMARK>
 VINA RESULT:      -4.6      2.465      6.140
  Name = 
  5 active torsions:
  status: ('A' for Active; 'I' for Inactive)
    1  A    between atoms: C_1  and  C_22
    2  A    between atoms: C_4  and  C_23
    3  A    between atoms: C_9  and  C_21
    4  A    between atoms: C_13  and  C_30
    5  A    between atoms: C_23  and  N_25
                            x       y       z     vdW  Elec       q    Type
                         _______ _______ _______ _____ _____    ______ ____

>  <TORSDO>
F 5

$$$$
=
 OpenBabel10262421443D

 30 33  0  0  1  0  0  0  0  0999 V2000
  182.1950  178.5030  140.3020 C   0  0  0  0  0  0  0  0  0  0  0  0
  180.7790  177.9540  140.4310 C   0  0  1  0  0  3  0  0  0  0  0  0
  182.4150  179.6710  139.6870 C   0  0  0  0  0  3  0  0  0  0  0  0
  178.9380  180.8950  139.3870 O   0  0  0  0  0  0  0  0  0  0  0  0
  179.9420  180.2130  139.7250 C   0  0  0  0  0  0  0  0  0  0  0  0
  181.6080  181.5400  138.4090 C   0  0  0  0  0  3  0  0  0  0  0  0
  181.3070  180.5170  139.2170 C   0  0  0  0  0  0  0  0  0  0  0  0
  179.7610  179.0770  140.6940 C   0  0  2  0  0  3  0  0  0  0  0  0
  183.8730  178.5030  142.1740 C   0  0  0  0  0  0  0  0  0  0  0  0
  185.0840  179.3950  142.1320 C   0  0  0  0  0  2  0  0  0  0  0  0
  183.2430  178.4000  143.2160 O   0  0  0  0  0  0  0  0  0  0  0  0
  184.4800  177.4780  139.9260 C   0  0  0  0  0  2  0  0  0  0  0  0
  186.5290  178.2540  138.7660 C   0  0  0  0  0  1  0  0  0  0  0  0
  183.3690  177.8090  140.9320 C   0  0  2  0  0  3  0  0  0  0  0  0
  186.1210  178.8980  141.1290 C   0  0  0  0  0  2  0  0  0  0  0  0
  185.4700  178.6280  139.7800 C   0  0  2  0  0  3  0  0  0  0  0  0
  178.9570  178.9240  143.1530 C   0  0  0  0  0  2  0  0  0  0  0  0
  180.3280  178.6070  143.0250 O   0  0  0  0  0  0  0  0  0  0  0  0
  180.2740  180.8470  142.4330 O   0  0  0  0  0  1  0  0  0  0  0  0
  179.8110  179.5640  142.1390 C   0  0  1  0  0  0  0  0  0  0  0  0
  178.9330  177.2320  138.9570 O   0  0  0  0  0  0  0  0  0  0  0  0
  179.3670  174.9870  138.2550 C   0  0  0  0  0  1  0  0  0  0  0  0
  180.3030  177.1100  139.2320 C   0  0  2  0  0  0  0  0  0  0  0  0
  179.3650  175.9670  139.4160 C   0  0  1  0  0  3  0  0  0  0  0  0
  179.6140  178.5590  136.8550 O   0  0  0  0  0  0  0  0  0  0  0  0
  180.7050  177.9310  136.8650 C   0  0  0  0  0  0  0  0  0  0  0  0
  181.5970  177.9930  135.6770 C   0  0  0  0  0  1  0  0  0  0  0  0
  181.0960  177.1650  138.0060 N   0  0  0  0  0  2  0  0  0  0  0  0
  180.6020  182.3970  136.3240 C   0  0  0  0  0  1  0  0  0  0  0  0
  180.6290  182.5130  137.8360 C   0  0  0  0  0  2  0  0  0  0  0  0
  2  1  1  6  0  0  0
  2  8  1  0  0  0  0
  3  1  2  0  0  0  0
  4  5  2  0  0  0  0
  6  7  2  0  0  0  0
  7  3  1  0  0  0  0
  7  5  1  0  0  0  0
  8  5  1  6  0  0  0
  8 20  1  0  0  0  0
  9 11  2  0  0  0  0
 10  9  1  0  0  0  0
 12 14  1  0  0  0  0
 14  1  1  6  0  0  0
 14  9  1  0  0  0  0
 15 10  1  0  0  0  0
 16 13  1  6  0  0  0
 16 12  1  0  0  0  0
 16 15  1  0  0  0  0
 18 17  1  0  0  0  0
 20 19  1  1  0  0  0
 20 18  1  0  0  0  0
 20 17  1  0  0  0  0
 21 23  1  0  0  0  0
 21 24  1  0  0  0  0
 23 28  1  6  0  0  0
 23 24  1  0  0  0  0
 23  2  1  0  0  0  0
 24 22  1  6  0  0  0
 25 26  2  0  0  0  0
 26 28  1  0  0  0  0
 27 26  1  0  0  0  0
 29 30  1  0  0  0  0
 30  6  1  0  0  0  0
M  END
>  <MODEL>
6

>  <REMARK>
 VINA RESULT:      -4.5      2.115      5.263
  Name = 
  5 active torsions:
  status: ('A' for Active; 'I' for Inactive)
    1  A    between atoms: C_1  and  C_22
    2  A    between atoms: C_4  and  C_23
    3  A    between atoms: C_9  and  C_21
    4  A    between atoms: C_13  and  C_30
    5  A    between atoms: C_23  and  N_25
                            x       y       z     vdW  Elec       q    Type
                         _______ _______ _______ _____ _____    ______ ____

>  <TORSDO>
F 5

$$$$
=
 OpenBabel10262421443D

 30 33  0  0  1  0  0  0  0  0999 V2000
  182.0300  178.4180  139.6810 C   0  0  0  0  0  0  0  0  0  0  0  0
  182.2020  177.6030  138.4040 C   0  0  1  0  0  3  0  0  0  0  0  0
  181.7640  179.7290  139.6160 C   0  0  0  0  0  3  0  0  0  0  0  0
  181.0120  180.0480  136.0100 O   0  0  0  0  0  0  0  0  0  0  0  0
  181.2470  179.5530  137.1440 C   0  0  0  0  0  0  0  0  0  0  0  0
  181.4990  181.7430  138.3320 C   0  0  0  0  0  3  0  0  0  0  0  0
  181.5190  180.4050  138.3330 C   0  0  0  0  0  0  0  0  0  0  0  0
  181.2230  178.0580  137.3080 C   0  0  2  0  0  3  0  0  0  0  0  0
  180.9680  178.2690  141.9540 C   0  0  0  0  0  0  0  0  0  0  0  0
  181.2460  179.3020  143.0120 C   0  0  0  0  0  2  0  0  0  0  0  0
  179.8200  177.8800  141.7860 O   0  0  0  0  0  0  0  0  0  0  0  0
  183.4520  177.7950  141.6810 C   0  0  0  0  0  2  0  0  0  0  0  0
  185.0730  179.0460  143.0790 C   0  0  0  0  0  1  0  0  0  0  0  0
  182.0590  177.7730  141.0370 C   0  0  2  0  0  3  0  0  0  0  0  0
  182.6480  179.1520  143.5960 C   0  0  0  0  0  2  0  0  0  0  0  0
  183.6830  179.0700  142.4830 C   0  0  2  0  0  3  0  0  0  0  0  0
  179.1960  176.5990  136.6180 C   0  0  0  0  0  2  0  0  0  0  0  0
  179.7590  176.1750  137.8420 O   0  0  0  0  0  0  0  0  0  0  0  0
  178.9330  178.2740  138.3720 O   0  0  0  0  0  1  0  0  0  0  0  0
  179.8080  177.5480  137.5620 C   0  0  1  0  0  0  0  0  0  0  0  0
  184.5810  176.9920  138.6740 O   0  0  0  0  0  0  0  0  0  0  0  0
  185.9090  178.6360  137.5520 C   0  0  0  0  0  1  0  0  0  0  0  0
  183.6340  177.5950  137.8320 C   0  0  2  0  0  0  0  0  0  0  0  0
  184.7250  178.3840  138.4700 C   0  0  1  0  0  3  0  0  0  0  0  0
  183.4110  174.9020  136.8730 O   0  0  0  0  0  0  0  0  0  0  0  0
  183.6560  175.8070  136.0330 C   0  0  0  0  0  0  0  0  0  0  0  0
  183.7830  175.4550  134.5940 C   0  0  0  0  0  1  0  0  0  0  0  0
  183.8080  177.1660  136.4470 N   0  0  0  0  0  2  0  0  0  0  0  0
  181.5890  184.0520  137.4630 C   0  0  0  0  0  1  0  0  0  0  0  0
  181.2580  182.6070  137.1370 C   0  0  0  0  0  2  0  0  0  0  0  0
  2  1  1  1  0  0  0
  3  1  2  0  0  0  0
  4  5  2  0  0  0  0
  5  7  1  0  0  0  0
  6  7  2  0  0  0  0
  7  3  1  0  0  0  0
  8  5  1  1  0  0  0
  8 20  1  0  0  0  0
  8  2  1  0  0  0  0
  9 10  1  0  0  0  0
 10 15  1  0  0  0  0
 11  9  2  0  0  0  0
 12 16  1  0  0  0  0
 14  1  1  6  0  0  0
 14 12  1  0  0  0  0
 14  9  1  0  0  0  0
 16 13  1  1  0  0  0
 16 15  1  0  0  0  0
 17 20  1  0  0  0  0
 17 18  1  0  0  0  0
 20 18  1  0  0  0  0
 20 19  1  1  0  0  0
 23 28  1  6  0  0  0
 23  2  1  0  0  0  0
 23 24  1  0  0  0  0
 23 21  1  0  0  0  0
 24 22  1  6  0  0  0
 24 21  1  0  0  0  0
 26 28  1  0  0  0  0
 26 25  2  0  0  0  0
 27 26  1  0  0  0  0
 30 29  1  0  0  0  0
 30  6  1  0  0  0  0
M  END
>  <MODEL>
7

>  <REMARK>
 VINA RESULT:      -4.4      1.926      5.283
  Name = 
  5 active torsions:
  status: ('A' for Active; 'I' for Inactive)
    1  A    between atoms: C_1  and  C_22
    2  A    between atoms: C_4  and  C_23
    3  A    between atoms: C_9  and  C_21
    4  A    between atoms: C_13  and  C_30
    5  A    between atoms: C_23  and  N_25
                            x       y       z     vdW  Elec       q    Type
                         _______ _______ _______ _____ _____    ______ ____

>  <TORSDO>
F 5

$$$$
=
 OpenBabel10262421443D

 30 33  0  0  1  0  0  0  0  0999 V2000
  182.4070  177.4480  137.8580 C   0  0  0  0  0  0  0  0  0  0  0  0
  180.9090  177.4270  137.5800 C   0  0  1  0  0  3  0  0  0  0  0  0
  182.8670  177.8060  139.0620 C   0  0  0  0  0  3  0  0  0  0  0  0
  179.7010  177.8190  140.9730 O   0  0  0  0  0  0  0  0  0  0  0  0
  180.5440  177.6380  140.0550 C   0  0  0  0  0  0  0  0  0  0  0  0
  182.4770  178.6580  141.2750 C   0  0  0  0  0  3  0  0  0  0  0  0
  181.9580  178.0810  140.1860 C   0  0  0  0  0  0  0  0  0  0  0  0
  180.1160  176.9280  138.8000 C   0  0  2  0  0  3  0  0  0  0  0  0
  182.7880  176.7200  135.4820 C   0  0  0  0  0  0  0  0  0  0  0  0
  182.4610  175.3220  135.0350 C   0  0  0  0  0  2  0  0  0  0  0  0
  182.4800  177.6640  134.7670 O   0  0  0  0  0  0  0  0  0  0  0  0
  184.2910  175.8380  137.3360 C   0  0  0  0  0  2  0  0  0  0  0  0
  184.5630  173.3870  137.5960 C   0  0  0  0  0  1  0  0  0  0  0  0
  183.4050  176.9860  136.8340 C   0  0  2  0  0  3  0  0  0  0  0  0
  183.4680  174.3060  135.5660 C   0  0  0  0  0  2  0  0  0  0  0  0
  183.6580  174.4780  137.0660 C   0  0  2  0  0  3  0  0  0  0  0  0
  179.0700  174.5690  138.5640 C   0  0  0  0  0  2  0  0  0  0  0  0
  180.2000  174.7300  137.7330 O   0  0  0  0  0  0  0  0  0  0  0  0
  181.1190  174.8540  139.8560 O   0  0  0  0  0  1  0  0  0  0  0  0
  180.2090  175.4130  138.9580 C   0  0  1  0  0  0  0  0  0  0  0  0
  179.0260  179.0270  137.5880 O   0  0  0  0  0  0  0  0  0  0  0  0
  178.9940  180.1600  135.4810 C   0  0  0  0  0  1  0  0  0  0  0  0
  180.3210  178.7740  137.1110 C   0  0  2  0  0  0  0  0  0  0  0  0
  179.1480  178.8270  136.1940 C   0  0  1  0  0  3  0  0  0  0  0  0
  180.0980  180.8100  139.1180 O   0  0  0  0  0  0  0  0  0  0  0  0
  181.0180  180.9220  138.2670 C   0  0  0  0  0  0  0  0  0  0  0  0
  181.9600  182.0690  138.3530 C   0  0  0  0  0  1  0  0  0  0  0  0
  181.1680  179.9590  137.2220 N   0  0  0  0  0  2  0  0  0  0  0  0
  182.6540  178.9990  143.7150 C   0  0  0  0  0  1  0  0  0  0  0  0
  181.7220  179.0080  142.5170 C   0  0  0  0  0  2  0  0  0  0  0  0
  1  3  2  0  0  0  0
  2  1  1  1  0  0  0
  2  8  1  0  0  0  0
  3  7  1  0  0  0  0
  5  7  1  0  0  0  0
  5  4  2  0  0  0  0
  6 30  1  0  0  0  0
  7  6  2  0  0  0  0
  8 20  1  0  0  0  0
  8  5  1  1  0  0  0
  9 14  1  0  0  0  0
 10  9  1  0  0  0  0
 10 15  1  0  0  0  0
 11  9  2  0  0  0  0
 14 12  1  0  0  0  0
 14  1  1  1  0  0  0
 15 16  1  0  0  0  0
 16 12  1  0  0  0  0
 16 13  1  6  0  0  0
 17 20  1  0  0  0  0
 18 17  1  0  0  0  0
 18 20  1  0  0  0  0
 20 19  1  1  0  0  0
 23 28  1  6  0  0  0
 23  2  1  0  0  0  0
 23 21  1  0  0  0  0
 24 22  1  6  0  0  0
 24 23  1  0  0  0  0
 24 21  1  0  0  0  0
 26 27  1  0  0  0  0
 26 25  2  0  0  0  0
 28 26  1  0  0  0  0
 30 29  1  0  0  0  0
M  END
>  <MODEL>
8

>  <REMARK>
 VINA RESULT:      -4.4      2.052      5.263
  Name = 
  5 active torsions:
  status: ('A' for Active; 'I' for Inactive)
    1  A    between atoms: C_1  and  C_22
    2  A    between atoms: C_4  and  C_23
    3  A    between atoms: C_9  and  C_21
    4  A    between atoms: C_13  and  C_30
    5  A    between atoms: C_23  and  N_25
                            x       y       z     vdW  Elec       q    Type
                         _______ _______ _______ _____ _____    ______ ____

>  <TORSDO>
F 5

$$$$
=
 OpenBabel10262421443D

 30 33  0  0  1  0  0  0  0  0999 V2000
  181.5570  177.4940  138.6500 C   0  0  0  0  0  0  0  0  0  0  0  0
  182.3840  178.7730  138.7020 C   0  0  1  0  0  3  0  0  0  0  0  0
  180.6560  177.2310  139.6040 C   0  0  0  0  0  3  0  0  0  0  0  0
  180.5830  180.5030  141.3270 O   0  0  0  0  0  0  0  0  0  0  0  0
  180.8140  179.6030  140.4760 C   0  0  0  0  0  0  0  0  0  0  0  0
  179.6250  177.7740  141.7060 C   0  0  0  0  0  3  0  0  0  0  0  0
  180.3510  178.2020  140.6660 C   0  0  0  0  0  0  0  0  0  0  0  0
  181.5540  179.9610  139.2170 C   0  0  2  0  0  3  0  0  0  0  0  0
  180.7760  176.9280  136.3280 C   0  0  0  0  0  0  0  0  0  0  0  0
  179.4480  176.2610  136.0960 C   0  0  0  0  0  2  0  0  0  0  0  0
  181.1160  177.8520  135.6040 O   0  0  0  0  0  0  0  0  0  0  0  0
  181.4960  175.0720  137.9130 C   0  0  0  0  0  2  0  0  0  0  0  0
  179.9370  173.1940  138.3490 C   0  0  0  0  0  1  0  0  0  0  0  0
  181.6540  176.5400  137.4940 C   0  0  2  0  0  3  0  0  0  0  0  0
  179.4720  174.7910  136.5060 C   0  0  0  0  0  2  0  0  0  0  0  0
  180.0340  174.6390  137.9120 C   0  0  2  0  0  3  0  0  0  0  0  0
  180.7880  181.8670  137.6360 C   0  0  0  0  0  2  0  0  0  0  0  0
  181.2410  180.7370  136.9200 O   0  0  0  0  0  0  0  0  0  0  0  0
  179.3440  179.9310  137.9770 O   0  0  0  0  0  1  0  0  0  0  0  0
  180.6070  180.4990  138.1480 C   0  0  1  0  0  0  0  0  0  0  0  0
  183.8050  177.4700  140.2480 O   0  0  0  0  0  0  0  0  0  0  0  0
  184.9830  179.0030  141.6570 C   0  0  0  0  0  1  0  0  0  0  0  0
  183.6830  178.6680  139.5280 C   0  0  2  0  0  0  0  0  0  0  0  0
  183.6520  178.6460  141.0160 C   0  0  1  0  0  3  0  0  0  0  0  0
  185.0760  177.0470  137.6160 O   0  0  0  0  0  0  0  0  0  0  0  0
  185.5650  178.1720  137.8990 C   0  0  0  0  0  0  0  0  0  0  0  0
  186.8060  178.6250  137.2180 C   0  0  0  0  0  1  0  0  0  0  0  0
  184.9370  179.0180  138.8650 N   0  0  0  0  0  2  0  0  0  0  0  0
  180.0560  178.2730  144.0860 C   0  0  0  0  0  1  0  0  0  0  0  0
  179.2060  178.6070  142.8740 C   0  0  0  0  0  2  0  0  0  0  0  0
  1  3  2  0  0  0  0
  2  1  1  1  0  0  0
  2  8  1  0  0  0  0
  2 23  1  0  0  0  0
  3  7  1  0  0  0  0
  5  7  1  0  0  0  0
  5  4  2  0  0  0  0
  6 30  1  0  0  0  0
  7  6  2  0  0  0  0
  8  5  1  1  0  0  0
  9 14  1  0  0  0  0
 10  9  1  0  0  0  0
 10 15  1  0  0  0  0
 11  9  2  0  0  0  0
 14 12  1  0  0  0  0
 14  1  1  1  0  0  0
 15 16  1  0  0  0  0
 16 12  1  0  0  0  0
 16 13  1  6  0  0  0
 17 20  1  0  0  0  0
 18 17  1  0  0  0  0
 18 20  1  0  0  0  0
 20 19  1  6  0  0  0
 20  8  1  0  0  0  0
 21 24  1  0  0  0  0
 23 28  1  6  0  0  0
 23 21  1  0  0  0  0
 23 24  1  0  0  0  0
 24 22  1  1  0  0  0
 25 26  2  0  0  0  0
 26 28  1  0  0  0  0
 27 26  1  0  0  0  0
 30 29  1  0  0  0  0
M  END
>  <MODEL>
9

>  <REMARK>
 VINA RESULT:      -4.4      2.175      4.666
  Name = 
  5 active torsions:
  status: ('A' for Active; 'I' for Inactive)
    1  A    between atoms: C_1  and  C_22
    2  A    between atoms: C_4  and  C_23
    3  A    between atoms: C_9  and  C_21
    4  A    between atoms: C_13  and  C_30
    5  A    between atoms: C_23  and  N_25
                            x       y       z     vdW  Elec       q    Type
                         _______ _______ _______ _____ _____    ______ ____

>  <TORSDO>
F 5

$$$$
