=
 OpenBabel10252415063D

 34 38  0  0  1  0  0  0  0  0999 V2000
  185.9640  177.8370  137.5490 C   0  0  0  0  0  0  0  0  0  0  0  0
  188.0120  176.4510  137.7660 C   0  0  0  0  0  3  0  0  0  0  0  0
  187.3680  178.0020  139.6030 N   0  0  0  0  0  0  0  0  0  0  0  0
  188.6470  178.4820  141.7580 C   0  0  2  0  0  3  0  0  0  0  0  0
  186.6010  176.3370  135.7620 C   0  0  0  0  0  3  0  0  0  0  0  0
  188.3990  174.6970  136.2370 O   0  0  0  0  0  1  0  0  0  0  0  0
  189.7000  177.7540  139.7260 O   0  0  0  0  0  0  0  0  0  0  0  0
  187.3480  177.7500  138.1510 C   0  0  0  0  0  0  0  0  0  0  0  0
  185.7590  177.2760  136.2070 C   0  0  0  0  0  2  0  0  0  0  0  0
  186.2060  178.5540  140.2620 C   0  0  0  0  0  0  0  0  0  0  0  0
  184.9700  178.3580  138.2000 N   0  0  0  0  0  0  0  0  0  0  0  0
  187.7030  175.8360  136.6160 C   0  0  0  0  0  0  0  0  0  0  0  0
  187.3560  178.2270  142.3910 N   0  0  0  0  0  2  0  0  0  0  0  0
  186.3190  178.9990  141.7060 C   0  0  2  0  0  3  0  0  0  0  0  0
  188.6200  178.0220  140.3210 C   0  0  0  0  0  0  0  0  0  0  0  0
  185.0860  178.7730  139.5640 C   0  0  0  0  0  3  0  0  0  0  0  0
  183.8580  178.8360  144.5860 C   0  0  0  0  0  0  0  0  0  0  0  0
  182.6400  178.7060  143.9150 C   0  0  0  0  0  3  0  0  0  0  0  0
  185.0290  178.8900  142.4630 C   0  0  0  0  0  0  0  0  0  0  0  0
  182.6110  178.6690  142.5180 C   0  0  0  0  0  3  0  0  0  0  0  0
  185.0510  178.9290  143.8620 C   0  0  0  0  0  3  0  0  0  0  0  0
  183.8030  178.7610  141.7930 C   0  0  0  0  0  3  0  0  0  0  0  0
  183.8840  178.8730  145.9400 F   0  0  0  0  0  0  0  0  0  0  0  0
  189.7320  177.7770  142.5590 C   0  0  0  0  0  2  0  0  0  0  0  0
  190.3750  178.7170  143.4620 N   0  0  0  0  0  2  0  0  0  0  0  0
  191.0270  177.9270  144.4880 C   0  0  0  0  0  2  0  0  0  0  0  0
  190.0840  176.8390  144.9660 C   0  0  0  0  0  2  0  0  0  0  0  0
  191.1040  177.1520  147.5490 F   0  0  0  0  0  0  0  0  0  0  0  0
  189.2560  177.3310  146.1100 C   0  0  0  0  0  0  0  0  0  0  0  0
  189.7850  177.4230  147.3510 C   0  0  0  0  0  0  0  0  0  0  0  0
  187.4880  177.8280  148.3120 C   0  0  0  0  0  2  0  0  0  0  0  0
  187.1190  178.3840  146.9460 C   0  0  0  0  0  2  0  0  0  0  0  0
  187.7810  177.5400  145.8630 C   0  0  0  0  0  2  0  0  0  0  0  0
  188.9940  177.9560  148.5190 C   0  0  0  0  0  2  0  0  0  0  0  0
  1  8  1  0  0  0  0
  1 11  2  0  0  0  0
  2  8  2  0  0  0  0
  3 10  1  0  0  0  0
  3 15  1  0  0  0  0
  4 13  1  0  0  0  0
  4 24  1  1  0  0  0
  5  9  1  0  0  0  0
  5 12  2  0  0  0  0
  6 12  1  0  0  0  0
  7 15  2  0  0  0  0
  8  3  1  0  0  0  0
  9  1  1  0  0  0  0
 10 14  1  0  0  0  0
 11 16  1  0  0  0  0
 12  2  1  0  0  0  0
 14 13  1  0  0  0  0
 14 19  1  1  0  0  0
 15  4  1  0  0  0  0
 16 10  2  0  0  0  0
 17 23  1  0  0  0  0
 18 17  1  0  0  0  0
 19 21  1  0  0  0  0
 20 18  2  0  0  0  0
 21 17  2  0  0  0  0
 22 19  2  0  0  0  0
 22 20  1  0  0  0  0
 24 25  1  0  0  0  0
 25 26  1  0  0  0  0
 26 27  1  0  0  0  0
 27 29  1  0  0  0  0
 29 30  2  0  0  0  0
 30 28  1  0  0  0  0
 30 34  1  0  0  0  0
 31 34  1  0  0  0  0
 32 31  1  0  0  0  0
 33 29  1  0  0  0  0
 33 32  1  0  0  0  0
M  END
>  <MODEL>
1

>  <REMARK>
 VINA RESULT:     -10.0      0.000      0.000
  Name = 
  6 active torsions:
  status: ('A' for Active; 'I' for Inactive)
    1  A    between atoms: C_3  and  C_13
    2  A    between atoms: C_3  and  C_17
    3  A    between atoms: C_5  and  C_18
    4  A    between atoms: C_12  and  C_28
    5  A    between atoms: C_17  and  N_29
    6  A    between atoms: C_18  and  N_29
                            x       y       z     vdW  Elec       q    Type
                         _______ _______ _______ _____ _____    ______ ____

>  <TORSDO>
F 6

$$$$
=
 OpenBabel10252415063D

 34 38  0  0  1  0  0  0  0  0999 V2000
  181.3220  178.6750  142.3920 C   0  0  0  0  0  0  0  0  0  0  0  0
  181.8760  177.5490  140.2510 C   0  0  0  0  0  3  0  0  0  0  0  0
  183.6800  178.6320  141.5820 N   0  0  0  0  0  0  0  0  0  0  0  0
  186.1460  178.8610  140.9700 C   0  0  2  0  0  3  0  0  0  0  0  0
  179.5720  177.6320  141.0890 C   0  0  0  0  0  3  0  0  0  0  0  0
  180.2680  176.1780  139.2050 O   0  0  0  0  0  1  0  0  0  0  0  0
  184.3890  178.6690  139.3440 O   0  0  0  0  0  0  0  0  0  0  0  0
  182.2550  178.6570  141.2040 C   0  0  2  0  0  3  0  0  0  0  0  0
  179.9070  178.3540  142.1640 C   0  0  0  0  0  3  0  0  0  0  0  0
  184.0740  178.8960  142.9470 C   0  0  0  0  0  0  0  0  0  0  0  0
  181.7500  178.9320  143.5900 N   0  0  0  0  0  0  0  0  0  0  0  0
  180.6080  177.1270  140.1590 C   0  0  0  0  0  0  0  0  0  0  0  0
  186.3620  178.3270  142.3130 N   0  0  0  0  0  2  0  0  0  0  0  0
  185.5440  179.0730  143.2680 C   0  0  2  0  0  3  0  0  0  0  0  0
  184.7030  178.6790  140.5660 C   0  0  0  0  0  0  0  0  0  0  0  0
  183.1400  179.0960  143.8840 C   0  0  0  0  0  3  0  0  0  0  0  0
  187.4260  177.5350  146.1790 C   0  0  0  0  0  0  0  0  0  0  0  0
  186.6110  177.8780  147.2600 C   0  0  0  0  0  3  0  0  0  0  0  0
  185.9010  178.6580  144.6660 C   0  0  0  0  0  0  0  0  0  0  0  0
  185.4400  178.6120  147.0490 C   0  0  0  0  0  3  0  0  0  0  0  0
  187.0730  177.9250  144.8830 C   0  0  0  0  0  3  0  0  0  0  0  0
  185.0850  179.0020  145.7550 C   0  0  0  0  0  3  0  0  0  0  0  0
  188.5620  176.8250  146.3860 F   0  0  0  0  0  0  0  0  0  0  0  0
  187.0970  178.1640  140.0080 C   0  0  0  0  0  2  0  0  0  0  0  0
  188.4090  178.7860  140.0670 N   0  0  0  0  0  2  0  0  0  0  0  0
  189.3670  177.7180  140.2760 C   0  0  0  0  0  2  0  0  0  0  0  0
  188.9790  176.9250  141.5100 C   0  0  0  0  0  2  0  0  0  0  0  0
  190.2620  174.8690  142.9010 F   0  0  0  0  0  0  0  0  0  0  0  0
  189.9480  177.1790  142.6210 C   0  0  0  0  0  0  0  0  0  0  0  0
  190.5100  176.1480  143.2910 C   0  0  0  0  0  0  0  0  0  0  0  0
  191.4160  177.7510  145.0160 C   0  0  0  0  0  2  0  0  0  0  0  0
  191.3830  178.8010  143.9180 C   0  0  0  0  0  2  0  0  0  0  0  0
  190.1280  178.6080  143.0740 C   0  0  0  0  0  2  0  0  0  0  0  0
  191.5240  176.3650  144.3860 C   0  0  0  0  0  2  0  0  0  0  0  0
  1 11  2  0  0  0  0
  3 10  1  0  0  0  0
  4 24  1  6  0  0  0
  4 13  1  0  0  0  0
  5  9  2  0  0  0  0
  6 12  1  0  0  0  0
  7 15  2  0  0  0  0
  8  2  1  1  0  0  0
  8  3  1  0  0  0  0
  8  1  1  0  0  0  0
  9  1  1  0  0  0  0
 10 14  1  0  0  0  0
 10 16  2  0  0  0  0
 11 16  1  0  0  0  0
 12  2  2  0  0  0  0
 12  5  1  0  0  0  0
 13 14  1  0  0  0  0
 14 19  1  1  0  0  0
 15  4  1  0  0  0  0
 15  3  1  0  0  0  0
 17 23  1  0  0  0  0
 17 18  1  0  0  0  0
 19 21  1  0  0  0  0
 19 22  2  0  0  0  0
 20 18  2  0  0  0  0
 21 17  2  0  0  0  0
 22 20  1  0  0  0  0
 24 25  1  0  0  0  0
 25 26  1  0  0  0  0
 26 27  1  0  0  0  0
 27 29  1  0  0  0  0
 28 30  1  0  0  0  0
 29 33  1  0  0  0  0
 29 30  2  0  0  0  0
 30 34  1  0  0  0  0
 32 31  1  0  0  0  0
 33 32  1  0  0  0  0
 34 31  1  0  0  0  0
M  END
>  <MODEL>
2

>  <REMARK>
 VINA RESULT:      -9.7      2.768      5.178
  Name = 
  6 active torsions:
  status: ('A' for Active; 'I' for Inactive)
    1  A    between atoms: C_3  and  C_13
    2  A    between atoms: C_3  and  C_17
    3  A    between atoms: C_5  and  C_18
    4  A    between atoms: C_12  and  C_28
    5  A    between atoms: C_17  and  N_29
    6  A    between atoms: C_18  and  N_29
                            x       y       z     vdW  Elec       q    Type
                         _______ _______ _______ _____ _____    ______ ____

>  <TORSDO>
F 6

$$$$
=
 OpenBabel10252415063D

 34 38  0  0  1  0  0  0  0  0999 V2000
  188.7950  177.6940  136.8090 C   0  0  0  0  0  0  0  0  0  0  0  0
  190.5020  176.0210  137.4790 C   0  0  0  0  0  3  0  0  0  0  0  0
  189.5050  177.5270  139.1930 N   0  0  0  0  0  0  0  0  0  0  0  0
  190.1020  177.6820  141.6690 C   0  0  2  0  0  3  0  0  0  0  0  0
  189.7750  176.2370  135.1450 C   0  0  0  0  0  3  0  0  0  0  0  0
  191.1370  174.3320  135.9600 O   0  0  0  0  0  1  0  0  0  0  0  0
  191.6400  176.9440  139.9770 O   0  0  0  0  0  0  0  0  0  0  0  0
  189.9050  177.3740  137.7820 C   0  0  0  0  0  0  0  0  0  0  0  0
  188.9510  177.2550  135.4150 C   0  0  0  0  0  2  0  0  0  0  0  0
  188.2680  178.1930  139.5290 C   0  0  0  0  0  0  0  0  0  0  0  0
  187.7140  178.3070  137.1850 N   0  0  0  0  0  0  0  0  0  0  0  0
  190.4950  175.5320  136.2320 C   0  0  0  0  0  0  0  0  0  0  0  0
  188.6580  177.5710  141.8580 N   0  0  0  0  0  2  0  0  0  0  0  0
  187.9810  178.5240  140.9800 C   0  0  2  0  0  3  0  0  0  0  0  0
  190.4680  177.3240  140.2480 C   0  0  0  0  0  0  0  0  0  0  0  0
  187.4510  178.6130  138.5570 C   0  0  0  0  0  3  0  0  0  0  0  0
  184.7390  178.3170  142.9370 C   0  0  0  0  0  0  0  0  0  0  0  0
  183.7910  178.6050  141.9530 C   0  0  0  0  0  3  0  0  0  0  0  0
  186.5150  178.5500  141.3030 C   0  0  0  0  0  0  0  0  0  0  0  0
  184.2010  178.8670  140.6420 C   0  0  0  0  0  3  0  0  0  0  0  0
  186.0990  178.2900  142.6140 C   0  0  0  0  0  3  0  0  0  0  0  0
  185.5600  178.8400  140.3170 C   0  0  0  0  0  3  0  0  0  0  0  0
  184.3400  178.0640  144.2070 F   0  0  0  0  0  0  0  0  0  0  0  0
  190.7980  176.7800  142.6780 C   0  0  0  0  0  2  0  0  0  0  0  0
  191.8640  177.5090  143.3440 N   0  0  0  0  0  2  0  0  0  0  0  0
  191.4050  177.7750  144.6940 C   0  0  0  0  0  2  0  0  0  0  0  0
  190.4520  176.6780  145.1290 C   0  0  0  0  0  2  0  0  0  0  0  0
  190.9320  177.3060  147.8100 F   0  0  0  0  0  0  0  0  0  0  0  0
  189.3960  177.2310  146.0340 C   0  0  0  0  0  0  0  0  0  0  0  0
  189.6680  177.4780  147.3350 C   0  0  0  0  0  0  0  0  0  0  0  0
  187.2130  177.8390  147.7890 C   0  0  0  0  0  2  0  0  0  0  0  0
  187.0980  178.2330  146.3260 C   0  0  0  0  0  2  0  0  0  0  0  0
  187.9920  177.3260  145.4880 C   0  0  0  0  0  2  0  0  0  0  0  0
  188.6430  178.0770  148.2660 C   0  0  0  0  0  2  0  0  0  0  0  0
  1 11  2  0  0  0  0
  1  8  1  0  0  0  0
  2  8  2  0  0  0  0
  3 10  1  0  0  0  0
  3 15  1  0  0  0  0
  4 13  1  0  0  0  0
  4 24  1  1  0  0  0
  5  9  1  0  0  0  0
  5 12  2  0  0  0  0
  6 12  1  0  0  0  0
  7 15  2  0  0  0  0
  8  3  1  0  0  0  0
  9  1  1  0  0  0  0
 10 14  1  0  0  0  0
 11 16  1  0  0  0  0
 12  2  1  0  0  0  0
 14 19  1  6  0  0  0
 14 13  1  0  0  0  0
 15  4  1  0  0  0  0
 16 10  2  0  0  0  0
 17 23  1  0  0  0  0
 18 17  2  0  0  0  0
 19 21  2  0  0  0  0
 20 18  1  0  0  0  0
 21 17  1  0  0  0  0
 22 20  2  0  0  0  0
 22 19  1  0  0  0  0
 24 25  1  0  0  0  0
 25 26  1  0  0  0  0
 26 27  1  0  0  0  0
 27 29  1  0  0  0  0
 29 30  2  0  0  0  0
 30 28  1  0  0  0  0
 30 34  1  0  0  0  0
 31 34  1  0  0  0  0
 32 31  1  0  0  0  0
 33 29  1  0  0  0  0
 33 32  1  0  0  0  0
M  END
>  <MODEL>
3

>  <REMARK>
 VINA RESULT:      -9.4      1.566      2.026
  Name = 
  6 active torsions:
  status: ('A' for Active; 'I' for Inactive)
    1  A    between atoms: C_3  and  C_13
    2  A    between atoms: C_3  and  C_17
    3  A    between atoms: C_5  and  C_18
    4  A    between atoms: C_12  and  C_28
    5  A    between atoms: C_17  and  N_29
    6  A    between atoms: C_18  and  N_29
                            x       y       z     vdW  Elec       q    Type
                         _______ _______ _______ _____ _____    ______ ____

>  <TORSDO>
F 6

$$$$
=
 OpenBabel10252415063D

 34 38  0  0  1  0  0  0  0  0999 V2000
  189.5510  176.8040  141.3600 C   0  0  0  0  0  0  0  0  0  0  0  0
  188.1930  178.5320  140.2060 C   0  0  0  0  0  3  0  0  0  0  0  0
  187.5010  177.7110  142.4520 N   0  0  0  0  0  0  0  0  0  0  0  0
  185.4100  178.3470  143.7680 C   0  0  2  0  0  3  0  0  0  0  0  0
  190.2120  177.5970  139.1730 C   0  0  0  0  0  3  0  0  0  0  0  0
  189.0560  179.6050  138.2910 O   0  0  0  0  0  1  0  0  0  0  0  0
  185.5440  178.4280  141.3720 O   0  0  0  0  0  0  0  0  0  0  0  0
  188.1650  177.3780  141.1790 C   0  0  0  0  0  0  0  0  0  0  0  0
  190.4380  176.7580  140.1900 C   0  0  0  0  0  2  0  0  0  0  0  0
  188.0510  177.2420  143.7030 C   0  0  0  0  0  0  0  0  0  0  0  0
  189.9720  176.3930  142.5170 N   0  0  0  0  0  0  0  0  0  0  0  0
  189.1120  178.5870  139.2330 C   0  0  0  0  0  0  0  0  0  0  0  0
  186.3590  178.5730  144.8550 N   0  0  0  0  0  2  0  0  0  0  0  0
  187.2440  177.4150  144.9740 C   0  0  2  0  0  3  0  0  0  0  0  0
  186.1460  178.2060  142.4580 C   0  0  0  0  0  0  0  0  0  0  0  0
  189.2040  176.5630  143.7110 C   0  0  0  0  0  3  0  0  0  0  0  0
  190.2370  177.2580  147.2980 C   0  0  0  0  0  0  0  0  0  0  0  0
  189.7200  177.8210  148.4680 C   0  0  0  0  0  3  0  0  0  0  0  0
  188.0950  177.5570  146.2020 C   0  0  0  0  0  0  0  0  0  0  0  0
  188.3920  178.2530  148.5090 C   0  0  0  0  0  3  0  0  0  0  0  0
  189.4260  177.1280  146.1670 C   0  0  0  0  0  3  0  0  0  0  0  0
  187.5800  178.1230  147.3790 C   0  0  0  0  0  3  0  0  0  0  0  0
  191.5250  176.8410  147.2600 F   0  0  0  0  0  0  0  0  0  0  0  0
  184.4160  179.4990  143.7400 C   0  0  0  0  0  2  0  0  0  0  0  0
  183.4430  179.3430  144.8080 N   0  0  0  0  0  2  0  0  0  0  0  0
  182.3150  178.6280  144.2430 C   0  0  0  0  0  2  0  0  0  0  0  0
  181.6340  179.4990  143.2040 C   0  0  0  0  0  2  0  0  0  0  0  0
  179.0290  178.4900  143.1280 F   0  0  0  0  0  0  0  0  0  0  0  0
  181.1210  178.6610  142.0750 C   0  0  0  0  0  0  0  0  0  0  0  0
  179.8660  178.1610  142.1070 C   0  0  0  0  0  0  0  0  0  0  0  0
  180.3870  176.7000  140.1180 C   0  0  0  0  0  2  0  0  0  0  0  0
  181.4250  177.7440  139.7430 C   0  0  0  0  0  2  0  0  0  0  0  0
  182.1080  178.2530  141.0080 C   0  0  0  0  0  2  0  0  0  0  0  0
  179.3000  177.3500  140.9680 C   0  0  0  0  0  2  0  0  0  0  0  0
  1 11  2  0  0  0  0
  2  8  2  0  0  0  0
  3 15  1  0  0  0  0
  3 10  1  0  0  0  0
  4 24  1  6  0  0  0
  4 13  1  0  0  0  0
  5 12  2  0  0  0  0
  5  9  1  0  0  0  0
  6 12  1  0  0  0  0
  7 15  2  0  0  0  0
  8  1  1  0  0  0  0
  8  3  1  0  0  0  0
  9  1  1  0  0  0  0
 10 16  2  0  0  0  0
 10 14  1  0  0  0  0
 11 16  1  0  0  0  0
 12  2  1  0  0  0  0
 13 14  1  0  0  0  0
 14 19  1  1  0  0  0
 15  4  1  0  0  0  0
 17 18  1  0  0  0  0
 18 20  2  0  0  0  0
 19 22  2  0  0  0  0
 21 19  1  0  0  0  0
 21 17  2  0  0  0  0
 22 20  1  0  0  0  0
 23 17  1  0  0  0  0
 24 25  1  0  0  0  0
 26 25  1  0  0  0  0
 27 26  1  0  0  0  0
 29 30  2  0  0  0  0
 29 27  1  0  0  0  0
 30 28  1  0  0  0  0
 31 34  1  0  0  0  0
 32 31  1  0  0  0  0
 32 33  1  0  0  0  0
 33 29  1  0  0  0  0
 34 30  1  0  0  0  0
M  END
>  <MODEL>
4

>  <REMARK>
 VINA RESULT:      -9.1      2.617      7.115
  Name = 
  6 active torsions:
  status: ('A' for Active; 'I' for Inactive)
    1  A    between atoms: C_3  and  C_13
    2  A    between atoms: C_3  and  C_17
    3  A    between atoms: C_5  and  C_18
    4  A    between atoms: C_12  and  C_28
    5  A    between atoms: C_17  and  N_29
    6  A    between atoms: C_18  and  N_29
                            x       y       z     vdW  Elec       q    Type
                         _______ _______ _______ _____ _____    ______ ____

>  <TORSDO>
F 6

$$$$
=
 OpenBabel10252415063D

 34 38  0  0  1  0  0  0  0  0999 V2000
  189.5370  176.7980  141.3630 C   0  0  0  0  0  0  0  0  0  0  0  0
  188.1740  178.4980  140.1740 C   0  0  0  0  0  3  0  0  0  0  0  0
  187.4520  177.6760  142.4110 N   0  0  0  0  0  0  0  0  0  0  0  0
  185.3260  178.2850  143.6840 C   0  0  2  0  0  3  0  0  0  0  0  0
  190.2270  177.5910  139.1850 C   0  0  0  0  0  3  0  0  0  0  0  0
  189.0550  179.5760  138.2710 O   0  0  0  0  0  1  0  0  0  0  0  0
  185.5040  178.3570  141.2900 O   0  0  0  0  0  0  0  0  0  0  0  0
  188.1460  177.3490  141.1520 C   0  0  0  0  0  0  0  0  0  0  0  0
  190.4470  176.7600  140.2100 C   0  0  0  0  0  2  0  0  0  0  0  0
  187.9860  177.2230  143.6740 C   0  0  0  0  0  0  0  0  0  0  0  0
  189.9420  176.3990  142.5300 N   0  0  0  0  0  0  0  0  0  0  0  0
  189.1100  178.5640  139.2190 C   0  0  0  0  0  0  0  0  0  0  0  0
  186.2510  178.5310  144.7870 N   0  0  0  0  0  2  0  0  0  0  0  0
  187.1520  177.3880  144.9290 C   0  0  2  0  0  3  0  0  0  0  0  0
  186.0890  178.1500  142.3890 C   0  0  0  0  0  0  0  0  0  0  0  0
  189.1480  176.5620  143.7080 C   0  0  0  0  0  3  0  0  0  0  0  0
  190.1030  177.2980  147.3080 C   0  0  0  0  0  0  0  0  0  0  0  0
  189.5530  177.8500  148.4680 C   0  0  0  0  0  3  0  0  0  0  0  0
  187.9760  177.5500  146.1730 C   0  0  0  0  0  0  0  0  0  0  0  0
  188.2150  178.2550  148.4830 C   0  0  0  0  0  3  0  0  0  0  0  0
  189.3170  177.1480  146.1620 C   0  0  0  0  0  3  0  0  0  0  0  0
  187.4280  178.1060  147.3390 C   0  0  0  0  0  3  0  0  0  0  0  0
  191.4010  176.9070  147.2940 F   0  0  0  0  0  0  0  0  0  0  0  0
  184.3140  179.4200  143.6310 C   0  0  0  0  0  2  0  0  0  0  0  0
  183.2990  179.2300  144.6530 N   0  0  0  0  0  2  0  0  0  0  0  0
  182.1850  178.5570  144.0110 C   0  0  0  0  0  2  0  0  0  0  0  0
  181.6250  179.4420  142.9130 C   0  0  0  0  0  2  0  0  0  0  0  0
  182.8380  179.3790  140.3960 F   0  0  0  0  0  0  0  0  0  0  0  0
  181.1070  178.6080  141.7840 C   0  0  0  0  0  0  0  0  0  0  0  0
  181.7050  178.6460  140.5720 C   0  0  0  0  0  0  0  0  0  0  0  0
  179.7830  177.3540  139.5720 C   0  0  0  0  0  2  0  0  0  0  0  0
  179.5670  176.7830  140.9640 C   0  0  0  0  0  2  0  0  0  0  0  0
  179.8040  177.8780  141.9990 C   0  0  0  0  0  2  0  0  0  0  0  0
  181.2380  177.7870  139.4230 C   0  0  0  0  0  2  0  0  0  0  0  0
  1 11  2  0  0  0  0
  2  8  2  0  0  0  0
  3 10  1  0  0  0  0
  4 24  1  6  0  0  0
  4 13  1  0  0  0  0
  5 12  2  0  0  0  0
  5  9  1  0  0  0  0
  6 12  1  0  0  0  0
  7 15  2  0  0  0  0
  8  1  1  0  0  0  0
  8  3  1  0  0  0  0
  9  1  1  0  0  0  0
 10 16  2  0  0  0  0
 10 14  1  0  0  0  0
 11 16  1  0  0  0  0
 12  2  1  0  0  0  0
 13 14  1  0  0  0  0
 14 19  1  1  0  0  0
 15  3  1  0  0  0  0
 15  4  1  0  0  0  0
 17 18  1  0  0  0  0
 18 20  2  0  0  0  0
 19 22  2  0  0  0  0
 21 19  1  0  0  0  0
 21 17  2  0  0  0  0
 22 20  1  0  0  0  0
 23 17  1  0  0  0  0
 24 25  1  0  0  0  0
 26 25  1  0  0  0  0
 27 26  1  0  0  0  0
 28 30  1  0  0  0  0
 29 33  1  0  0  0  0
 29 27  1  0  0  0  0
 30 29  2  0  0  0  0
 31 32  1  0  0  0  0
 32 33  1  0  0  0  0
 34 31  1  0  0  0  0
 34 30  1  0  0  0  0
M  END
>  <MODEL>
5

>  <REMARK>
 VINA RESULT:      -9.1      2.604      7.072
  Name = 
  6 active torsions:
  status: ('A' for Active; 'I' for Inactive)
    1  A    between atoms: C_3  and  C_13
    2  A    between atoms: C_3  and  C_17
    3  A    between atoms: C_5  and  C_18
    4  A    between atoms: C_12  and  C_28
    5  A    between atoms: C_17  and  N_29
    6  A    between atoms: C_18  and  N_29
                            x       y       z     vdW  Elec       q    Type
                         _______ _______ _______ _____ _____    ______ ____

>  <TORSDO>
F 6

$$$$
=
 OpenBabel10252415063D

 34 38  0  0  1  0  0  0  0  0999 V2000
  187.6600  178.1000  137.6900 C   0  0  0  0  0  0  0  0  0  0  0  0
  188.7010  177.4160  139.8380 C   0  0  0  0  0  3  0  0  0  0  0  0
  186.3900  178.3430  139.8220 N   0  0  0  0  0  0  0  0  0  0  0  0
  184.8890  178.8230  141.8280 C   0  0  2  0  0  3  0  0  0  0  0  0
  189.9090  177.2100  137.7130 C   0  0  0  0  0  3  0  0  0  0  0  0
  190.7000  176.1660  139.8180 O   0  0  0  0  0  1  0  0  0  0  0  0
  187.2880  178.8270  141.9360 O   0  0  0  0  0  0  0  0  0  0  0  0
  187.7170  178.3520  139.1790 C   0  0  0  0  0  0  0  0  0  0  0  0
  188.9090  177.7430  137.0020 C   0  0  0  0  0  2  0  0  0  0  0  0
  185.1910  178.3770  139.0160 C   0  0  0  0  0  0  0  0  0  0  0  0
  186.5440  178.1580  137.0310 N   0  0  0  0  0  0  0  0  0  0  0  0
  189.7570  176.9440  139.1620 C   0  0  0  0  0  0  0  0  0  0  0  0
  183.9000  178.0670  141.0640 N   0  0  0  0  0  2  0  0  0  0  0  0
  183.8520  178.5790  139.6940 C   0  0  2  0  0  3  0  0  0  0  0  0
  186.2610  178.6330  141.2290 C   0  0  0  0  0  0  0  0  0  0  0  0
  185.2840  178.3480  137.6810 C   0  0  0  0  0  3  0  0  0  0  0  0
  181.3420  175.9810  138.5370 C   0  0  0  0  0  0  0  0  0  0  0  0
  180.5790  176.7090  137.6210 C   0  0  0  0  0  3  0  0  0  0  0  0
  182.7110  177.9380  138.9590 C   0  0  0  0  0  0  0  0  0  0  0  0
  180.8780  178.0510  137.3720 C   0  0  0  0  0  3  0  0  0  0  0  0
  182.4060  176.5940  139.2070 C   0  0  0  0  0  3  0  0  0  0  0  0
  181.9410  178.6660  138.0390 C   0  0  0  0  0  3  0  0  0  0  0  0
  181.0510  174.6800  138.7790 F   0  0  0  0  0  0  0  0  0  0  0  0
  184.8360  178.3690  143.2800 C   0  0  0  0  0  2  0  0  0  0  0  0
  184.5560  179.5030  144.1450 N   0  0  0  0  0  2  0  0  0  0  0  0
  185.4460  179.3860  145.2840 C   0  0  0  0  0  2  0  0  0  0  0  0
  185.8010  177.9270  145.5010 C   0  0  0  0  0  2  0  0  0  0  0  0
  188.0360  176.9680  144.1240 F   0  0  0  0  0  0  0  0  0  0  0  0
  187.1520  177.8060  146.1320 C   0  0  0  0  0  0  0  0  0  0  0  0
  188.1920  177.2950  145.4350 C   0  0  0  0  0  0  0  0  0  0  0  0
  189.5640  177.1790  147.5490 C   0  0  0  0  0  2  0  0  0  0  0  0
  188.6990  178.3200  148.0590 C   0  0  0  0  0  2  0  0  0  0  0  0
  187.2590  178.1010  147.6080 C   0  0  0  0  0  2  0  0  0  0  0  0
  189.5780  177.1990  146.0240 C   0  0  0  0  0  2  0  0  0  0  0  0
  1  8  1  0  0  0  0
  3 15  1  0  0  0  0
  4 24  1  1  0  0  0
  5 12  2  0  0  0  0
  8  3  1  0  0  0  0
  8  2  2  0  0  0  0
  9  1  1  0  0  0  0
  9  5  1  0  0  0  0
 10 14  1  0  0  0  0
 10  3  1  0  0  0  0
 11 16  1  0  0  0  0
 11  1  2  0  0  0  0
 12  6  1  0  0  0  0
 12  2  1  0  0  0  0
 13  4  1  0  0  0  0
 14 19  1  6  0  0  0
 14 13  1  0  0  0  0
 15  4  1  0  0  0  0
 15  7  2  0  0  0  0
 16 10  2  0  0  0  0
 17 23  1  0  0  0  0
 17 21  1  0  0  0  0
 18 17  2  0  0  0  0
 19 21  2  0  0  0  0
 20 18  1  0  0  0  0
 20 22  2  0  0  0  0
 22 19  1  0  0  0  0
 24 25  1  0  0  0  0
 25 26  1  0  0  0  0
 26 27  1  0  0  0  0
 27 29  1  0  0  0  0
 28 30  1  0  0  0  0
 29 33  1  0  0  0  0
 30 34  1  0  0  0  0
 30 29  2  0  0  0  0
 31 32  1  0  0  0  0
 33 32  1  0  0  0  0
 34 31  1  0  0  0  0
M  END
>  <MODEL>
6

>  <REMARK>
 VINA RESULT:      -9.1      2.829      4.124
  Name = 
  6 active torsions:
  status: ('A' for Active; 'I' for Inactive)
    1  A    between atoms: C_3  and  C_13
    2  A    between atoms: C_3  and  C_17
    3  A    between atoms: C_5  and  C_18
    4  A    between atoms: C_12  and  C_28
    5  A    between atoms: C_17  and  N_29
    6  A    between atoms: C_18  and  N_29
                            x       y       z     vdW  Elec       q    Type
                         _______ _______ _______ _____ _____    ______ ____

>  <TORSDO>
F 6

$$$$
=
 OpenBabel10252415063D

 34 38  0  0  1  0  0  0  0  0999 V2000
  190.9330  177.7400  143.0830 C   0  0  0  0  0  0  0  0  0  0  0  0
  188.5650  177.7100  143.8280 C   0  0  0  0  0  3  0  0  0  0  0  0
  189.0970  177.9260  141.4060 N   0  0  0  0  0  0  0  0  0  0  0  0
  187.4620  178.2510  139.4740 C   0  0  2  0  0  3  0  0  0  0  0  0
  190.4110  177.5430  145.4360 C   0  0  0  0  0  3  0  0  0  0  0  0
  188.0500  177.0940  146.0460 O   0  0  0  0  0  1  0  0  0  0  0  0
  187.0110  178.9550  141.7250 O   0  0  0  0  0  0  0  0  0  0  0  0
  189.5300  178.2170  142.7850 C   0  0  2  0  0  3  0  0  0  0  0  0
  191.3490  177.6560  144.4890 C   0  0  0  0  0  3  0  0  0  0  0  0
  190.0590  177.4960  140.4170 C   0  0  0  0  0  0  0  0  0  0  0  0
  191.7450  177.3790  142.1370 N   0  0  0  0  0  0  0  0  0  0  0  0
  188.9750  177.4640  145.0800 C   0  0  0  0  0  0  0  0  0  0  0  0
  188.1980  177.1400  138.8770 N   0  0  0  0  0  2  0  0  0  0  0  0
  189.6340  177.4060  138.9660 C   0  0  2  0  0  3  0  0  0  0  0  0
  187.8080  178.3740  140.9380 C   0  0  0  0  0  0  0  0  0  0  0  0
  191.3340  177.2960  140.7700 C   0  0  0  0  0  3  0  0  0  0  0  0
  190.4050  174.2170  137.0630 C   0  0  0  0  0  0  0  0  0  0  0  0
  191.7490  174.4020  136.7270 C   0  0  0  0  0  3  0  0  0  0  0  0
  190.3860  176.3640  138.1900 C   0  0  0  0  0  0  0  0  0  0  0  0
  192.4140  175.5670  137.1190 C   0  0  0  0  0  3  0  0  0  0  0  0
  189.7240  175.1960  137.7930 C   0  0  0  0  0  3  0  0  0  0  0  0
  191.7350  176.5470  137.8490 C   0  0  0  0  0  3  0  0  0  0  0  0
  189.7610  173.0880  136.6810 F   0  0  0  0  0  0  0  0  0  0  0  0
  185.9730  178.0230  139.2600 C   0  0  0  0  0  2  0  0  0  0  0  0
  185.3490  179.2410  138.7700 N   0  0  0  0  0  2  0  0  0  0  0  0
  184.1040  179.3910  139.4980 C   0  0  0  0  0  2  0  0  0  0  0  0
  183.9340  178.2270  140.4550 C   0  0  0  0  0  2  0  0  0  0  0  0
  184.6580  178.4110  143.1480 F   0  0  0  0  0  0  0  0  0  0  0  0
  182.9590  178.5760  141.5350 C   0  0  0  0  0  0  0  0  0  0  0  0
  183.3500  178.6090  142.8290 C   0  0  0  0  0  0  0  0  0  0  0  0
  180.9440  178.7890  143.5620 C   0  0  0  0  0  2  0  0  0  0  0  0
  180.6770  179.4210  142.2060 C   0  0  0  0  0  2  0  0  0  0  0  0
  181.5060  178.7050  141.1450 C   0  0  0  0  0  2  0  0  0  0  0  0
  182.4070  179.0000  143.9390 C   0  0  0  0  0  2  0  0  0  0  0  0
  1  9  1  0  0  0  0
  2 12  2  0  0  0  0
  3  8  1  0  0  0  0
  4 24  1  1  0  0  0
  4 15  1  0  0  0  0
  8  1  1  0  0  0  0
  8  2  1  1  0  0  0
  9  5  2  0  0  0  0
 10 16  2  0  0  0  0
 10  3  1  0  0  0  0
 11  1  2  0  0  0  0
 12  5  1  0  0  0  0
 12  6  1  0  0  0  0
 13 14  1  0  0  0  0
 13  4  1  0  0  0  0
 14 19  1  1  0  0  0
 14 10  1  0  0  0  0
 15  3  1  0  0  0  0
 15  7  2  0  0  0  0
 16 11  1  0  0  0  0
 17 21  1  0  0  0  0
 18 17  2  0  0  0  0
 18 20  1  0  0  0  0
 20 22  2  0  0  0  0
 21 19  2  0  0  0  0
 22 19  1  0  0  0  0
 23 17  1  0  0  0  0
 25 24  1  0  0  0  0
 25 26  1  0  0  0  0
 26 27  1  0  0  0  0
 27 29  1  0  0  0  0
 29 30  2  0  0  0  0
 30 28  1  0  0  0  0
 30 34  1  0  0  0  0
 31 34  1  0  0  0  0
 32 31  1  0  0  0  0
 33 29  1  0  0  0  0
 33 32  1  0  0  0  0
M  END
>  <MODEL>
7

>  <REMARK>
 VINA RESULT:      -8.8      3.095      7.893
  Name = 
  6 active torsions:
  status: ('A' for Active; 'I' for Inactive)
    1  A    between atoms: C_3  and  C_13
    2  A    between atoms: C_3  and  C_17
    3  A    between atoms: C_5  and  C_18
    4  A    between atoms: C_12  and  C_28
    5  A    between atoms: C_17  and  N_29
    6  A    between atoms: C_18  and  N_29
                            x       y       z     vdW  Elec       q    Type
                         _______ _______ _______ _____ _____    ______ ____

>  <TORSDO>
F 6

$$$$
=
 OpenBabel10252415063D

 34 38  0  0  1  0  0  0  0  0999 V2000
  188.0310  176.9520  136.1590 C   0  0  0  0  0  0  0  0  0  0  0  0
  189.5760  175.8830  137.7810 C   0  0  0  0  0  3  0  0  0  0  0  0
  187.9920  177.6410  138.5550 N   0  0  0  0  0  0  0  0  0  0  0  0
  187.7930  178.6390  140.8940 C   0  0  2  0  0  3  0  0  0  0  0  0
  189.5810  175.2530  135.4090 C   0  0  0  0  0  3  0  0  0  0  0  0
  190.7720  173.9510  137.1510 O   0  0  0  0  0  1  0  0  0  0  0  0
  189.8250  177.7020  140.0210 O   0  0  0  0  0  0  0  0  0  0  0  0
  188.8130  177.1400  137.4380 C   0  0  0  0  0  0  0  0  0  0  0  0
  188.6370  176.1460  135.0910 C   0  0  0  0  0  2  0  0  0  0  0  0
  186.6640  178.1530  138.3080 C   0  0  0  0  0  0  0  0  0  0  0  0
  186.8440  177.4530  136.0060 N   0  0  0  0  0  0  0  0  0  0  0  0
  189.9870  175.0460  136.8190 C   0  0  0  0  0  0  0  0  0  0  0  0
  186.3730  178.3430  140.7240 N   0  0  0  0  0  2  0  0  0  0  0  0
  185.9230  178.8530  139.4290 C   0  0  2  0  0  3  0  0  0  0  0  0
  188.6000  177.9370  139.8290 C   0  0  0  0  0  0  0  0  0  0  0  0
  186.1520  178.1110  137.0720 C   0  0  0  0  0  3  0  0  0  0  0  0
  182.2780  179.7340  138.8640 C   0  0  0  0  0  0  0  0  0  0  0  0
  181.6470  178.5130  139.1130 C   0  0  0  0  0  3  0  0  0  0  0  0
  184.4320  178.7210  139.3290 C   0  0  0  0  0  0  0  0  0  0  0  0
  182.4040  177.3940  139.4700 C   0  0  0  0  0  3  0  0  0  0  0  0
  183.6690  179.8380  138.9700 C   0  0  0  0  0  3  0  0  0  0  0  0
  183.7940  177.4960  139.5770 C   0  0  0  0  0  3  0  0  0  0  0  0
  181.5430  180.8180  138.5170 F   0  0  0  0  0  0  0  0  0  0  0  0
  188.2160  178.2200  142.2950 C   0  0  0  0  0  2  0  0  0  0  0  0
  188.3180  176.7730  142.3710 N   0  0  0  0  0  2  0  0  0  0  0  0
  187.7430  176.3820  143.6440 C   0  0  0  0  0  2  0  0  0  0  0  0
  187.2830  177.6190  144.3920 C   0  0  0  0  0  2  0  0  0  0  0  0
  185.7890  178.3790  146.6280 F   0  0  0  0  0  0  0  0  0  0  0  0
  187.8460  177.6310  145.7780 C   0  0  0  0  0  0  0  0  0  0  0  0
  187.0940  178.0490  146.8210 C   0  0  0  0  0  0  0  0  0  0  0  0
  189.1380  178.0650  148.3000 C   0  0  0  0  0  2  0  0  0  0  0  0
  189.7020  177.0030  147.3700 C   0  0  0  0  0  2  0  0  0  0  0  0
  189.3190  177.3380  145.9320 C   0  0  0  0  0  2  0  0  0  0  0  0
  187.6140  178.0330  148.2370 C   0  0  0  0  0  2  0  0  0  0  0  0
  1  8  1  0  0  0  0
  3 15  1  0  0  0  0
  4 24  1  1  0  0  0
  5 12  2  0  0  0  0
  8  2  2  0  0  0  0
  8  3  1  0  0  0  0
  9  5  1  0  0  0  0
  9  1  1  0  0  0  0
 10  3  1  0  0  0  0
 10 14  1  0  0  0  0
 11  1  2  0  0  0  0
 11 16  1  0  0  0  0
 12  6  1  0  0  0  0
 12  2  1  0  0  0  0
 13  4  1  0  0  0  0
 14 19  1  6  0  0  0
 14 13  1  0  0  0  0
 15  7  2  0  0  0  0
 15  4  1  0  0  0  0
 16 10  2  0  0  0  0
 17 21  2  0  0  0  0
 17 18  1  0  0  0  0
 18 20  2  0  0  0  0
 19 22  2  0  0  0  0
 20 22  1  0  0  0  0
 21 19  1  0  0  0  0
 23 17  1  0  0  0  0
 24 25  1  0  0  0  0
 25 26  1  0  0  0  0
 26 27  1  0  0  0  0
 27 29  1  0  0  0  0
 28 30  1  0  0  0  0
 29 33  1  0  0  0  0
 29 30  2  0  0  0  0
 30 34  1  0  0  0  0
 32 31  1  0  0  0  0
 33 32  1  0  0  0  0
 34 31  1  0  0  0  0
M  END
>  <MODEL>
8

>  <REMARK>
 VINA RESULT:      -8.6      2.188      3.210
  Name = 
  6 active torsions:
  status: ('A' for Active; 'I' for Inactive)
    1  A    between atoms: C_3  and  C_13
    2  A    between atoms: C_3  and  C_17
    3  A    between atoms: C_5  and  C_18
    4  A    between atoms: C_12  and  C_28
    5  A    between atoms: C_17  and  N_29
    6  A    between atoms: C_18  and  N_29
                            x       y       z     vdW  Elec       q    Type
                         _______ _______ _______ _____ _____    ______ ____

>  <TORSDO>
F 6

$$$$
=
 OpenBabel10252415063D

 34 38  0  0  1  0  0  0  0  0999 V2000
  183.8940  178.6740  138.7890 C   0  0  0  0  0  0  0  0  0  0  0  0
  185.2990  177.1060  137.4730 C   0  0  0  0  0  3  0  0  0  0  0  0
  186.2230  178.1720  139.5250 N   0  0  0  0  0  0  0  0  0  0  0  0
  188.5860  177.9580  140.4630 C   0  0  2  0  0  3  0  0  0  0  0  0
  183.0060  177.6450  136.7880 C   0  0  0  0  0  3  0  0  0  0  0  0
  184.3080  175.7880  135.7870 O   0  0  0  0  0  1  0  0  0  0  0  0
  188.0560  177.6980  138.1350 O   0  0  0  0  0  0  0  0  0  0  0  0
  185.3040  178.3120  138.3810 C   0  0  0  0  0  0  0  0  0  0  0  0
  182.8240  178.5040  137.7980 C   0  0  0  0  0  2  0  0  0  0  0  0
  185.8280  178.6310  140.8360 C   0  0  0  0  0  0  0  0  0  0  0  0
  183.6170  179.0900  139.9870 N   0  0  0  0  0  0  0  0  0  0  0  0
  184.2480  176.8440  136.6850 C   0  0  0  0  0  0  0  0  0  0  0  0
  187.8890  177.6590  141.7120 N   0  0  0  0  0  2  0  0  0  0  0  0
  186.8590  178.6700  141.9450 C   0  0  2  0  0  3  0  0  0  0  0  0
  187.6220  177.8950  139.3040 C   0  0  0  0  0  0  0  0  0  0  0  0
  184.5980  179.1210  141.0280 C   0  0  0  0  0  3  0  0  0  0  0  0
  184.5420  179.0120  144.9280 C   0  0  0  0  0  0  0  0  0  0  0  0
  185.1260  178.1360  145.8460 C   0  0  0  0  0  3  0  0  0  0  0  0
  186.2690  178.4790  143.3120 C   0  0  0  0  0  0  0  0  0  0  0  0
  186.2810  177.4290  145.5010 C   0  0  0  0  0  3  0  0  0  0  0  0
  185.1110  179.1830  143.6630 C   0  0  0  0  0  3  0  0  0  0  0  0
  186.8520  177.5980  144.2370 C   0  0  0  0  0  3  0  0  0  0  0  0
  183.4220  179.6970  145.2640 F   0  0  0  0  0  0  0  0  0  0  0  0
  189.7370  176.9760  140.2980 C   0  0  0  0  0  2  0  0  0  0  0  0
  190.9970  177.6950  140.2130 N   0  0  0  0  0  2  0  0  0  0  0  0
  191.6630  177.5200  141.4890 C   0  0  0  0  0  2  0  0  0  0  0  0
  191.0120  176.3770  142.2460 C   0  0  0  0  0  2  0  0  0  0  0  0
  192.4240  174.7950  144.0670 F   0  0  0  0  0  0  0  0  0  0  0  0
  191.0270  176.6510  143.7170 C   0  0  0  0  0  0  0  0  0  0  0  0
  191.6910  175.8290  144.5610 C   0  0  0  0  0  0  0  0  0  0  0  0
  190.6180  176.9750  146.5360 C   0  0  0  0  0  2  0  0  0  0  0  0
  190.5000  178.1980  145.6410 C   0  0  0  0  0  2  0  0  0  0  0  0
  190.1340  177.7550  144.2290 C   0  0  0  0  0  2  0  0  0  0  0  0
  191.7640  176.0970  146.0440 C   0  0  0  0  0  2  0  0  0  0  0  0
  1 11  2  0  0  0  0
  2  8  2  0  0  0  0
  3 10  1  0  0  0  0
  4 24  1  6  0  0  0
  4 13  1  0  0  0  0
  5  9  1  0  0  0  0
  6 12  1  0  0  0  0
  7 15  2  0  0  0  0
  8  1  1  0  0  0  0
  8  3  1  0  0  0  0
  9  1  1  0  0  0  0
 10 16  2  0  0  0  0
 10 14  1  0  0  0  0
 11 16  1  0  0  0  0
 12  5  2  0  0  0  0
 12  2  1  0  0  0  0
 13 14  1  0  0  0  0
 14 19  1  1  0  0  0
 15  3  1  0  0  0  0
 15  4  1  0  0  0  0
 17 23  1  0  0  0  0
 17 18  1  0  0  0  0
 19 21  1  0  0  0  0
 19 22  2  0  0  0  0
 20 18  2  0  0  0  0
 21 17  2  0  0  0  0
 22 20  1  0  0  0  0
 25 24  1  0  0  0  0
 25 26  1  0  0  0  0
 26 27  1  0  0  0  0
 27 29  1  0  0  0  0
 28 30  1  0  0  0  0
 29 33  1  0  0  0  0
 29 30  2  0  0  0  0
 30 34  1  0  0  0  0
 32 31  1  0  0  0  0
 33 32  1  0  0  0  0
 34 31  1  0  0  0  0
M  END
>  <MODEL>
9

>  <REMARK>
 VINA RESULT:      -8.5      1.949      2.896
  Name = 
  6 active torsions:
  status: ('A' for Active; 'I' for Inactive)
    1  A    between atoms: C_3  and  C_13
    2  A    between atoms: C_3  and  C_17
    3  A    between atoms: C_5  and  C_18
    4  A    between atoms: C_12  and  C_28
    5  A    between atoms: C_17  and  N_29
    6  A    between atoms: C_18  and  N_29
                            x       y       z     vdW  Elec       q    Type
                         _______ _______ _______ _____ _____    ______ ____

>  <TORSDO>
F 6

$$$$
