=
 OpenBabel10262420243D

 55 59  0  0  1  0  0  0  0  0999 V2000
  185.4700  177.4550  137.4890 C   0  0  0  0  0  2  0  0  0  0  0  0
  191.0270  176.6910  140.8630 C   0  0  0  0  0  2  0  0  0  0  0  0
  189.2300  175.9690  142.9310 O   0  0  0  0  0  0  0  0  0  0  0  0
  192.3160  176.5230  138.7940 N   0  0  0  0  0  0  0  0  0  0  0  0
  185.7520  177.7790  144.9000 C   0  0  0  0  0  2  0  0  0  0  0  0
  184.6890  178.4570  145.7170 C   0  0  0  0  0  3  0  0  0  0  0  0
  184.5590  178.5000  142.8370 C   0  0  2  0  0  3  0  0  0  0  0  0
  183.5720  179.1410  143.7030 N   0  0  0  0  0  2  0  0  0  0  0  0
  188.2090  178.1130  143.0950 C   0  0  0  0  0  2  0  0  0  0  0  0
  183.6570  179.0670  145.1310 C   0  0  0  0  0  3  0  0  0  0  0  0
  186.7410  178.2440  135.4700 C   0  0  0  0  0  2  0  0  0  0  0  0
  185.9230  178.4550  143.5350 C   0  0  2  0  0  3  0  0  0  0  0  0
  188.4170  176.0650  136.1150 C   0  0  0  0  0  0  0  0  0  0  0  0
  185.5380  177.1720  138.8590 O   0  0  0  0  0  0  0  0  0  0  0  0
  187.8300  176.7020  137.1440 C   0  0  0  0  0  3  0  0  0  0  0  0
  184.3520  178.2650  140.6350 C   0  0  2  0  0  3  0  0  0  0  0  0
  191.8440  177.4370  139.8250 C   0  0  0  0  0  2  0  0  0  0  0  0
  184.6440  179.2040  141.6310 O   0  0  0  0  0  0  0  0  0  0  0  0
  190.1140  177.6080  141.5220 N   0  0  0  0  0  2  0  0  0  0  0  0
  189.2040  177.1630  142.5270 C   0  0  0  0  0  0  0  0  0  0  0  0
  186.7920  177.0730  134.5950 N   0  0  0  0  0  2  0  0  0  0  0  0
  191.3660  175.9620  137.9270 C   0  0  0  0  0  0  0  0  0  0  0  0
  186.8430  177.8250  136.9410 C   0  0  2  0  0  3  0  0  0  0  0  0
  186.8660  177.6920  142.7270 N   0  0  0  0  0  2  0  0  0  0  0  0
  185.3660  178.3990  139.5050 C   0  0  0  0  0  2  0  0  0  0  0  0
  190.5180  175.5020  137.2040 C   0  0  0  0  0  0  0  0  0  0  0  0
  189.4280  174.9880  136.3670 C   0  0  0  0  0  2  0  0  0  0  0  0
  188.1310  176.4920  134.7000 C   0  0  0  0  0  2  0  0  0  0  0  0
  182.2340  177.1150  139.9150 C   0  0  0  0  0  3  0  0  0  0  0  0
  180.6590  178.2310  138.4200 C   0  0  0  0  0  0  0  0  0  0  0  0
  182.8040  179.3550  138.9180 C   0  0  0  0  0  2  0  0  0  0  0  0
  181.4080  179.3400  138.3570 C   0  0  0  0  0  3  0  0  0  0  0  0
  181.1570  177.0370  139.1280 C   0  0  0  0  0  3  0  0  0  0  0  0
  182.9090  178.4420  140.1490 C   0  0  2  0  0  3  0  0  0  0  0  0
  179.0480  178.1950  137.6730 S   0  0  2  0  0  0  0  0  0  0  0  0
  178.9910  176.8400  136.9790 O   0  0  0  0  0  0  0  0  0  0  0  0
  179.1450  179.3850  136.3260 C   0  0  0  0  0  1  0  0  0  0  0  0
  193.6680  176.5660  138.4200 N   0  0  0  0  0  2  0  0  0  0  0  0
  192.6380  176.2120  135.9970 O   0  0  0  0  0  0  0  0  0  0  0  0
  193.8490  175.8940  136.8280 S   0  0  0  0  0  0  0  0  0  0  0  0
  195.0540  176.5320  136.1950 O   0  0  0  0  0  0  0  0  0  0  0  0
  194.0860  174.1150  136.9170 C   0  0  1  0  0  3  0  0  0  0  0  0
  193.1190  173.3730  136.0140 C   0  0  0  0  0  1  0  0  0  0  0  0
  195.6850  172.9660  135.3490 C   0  0  0  0  0  1  0  0  0  0  0  0
  195.5350  173.6340  136.7100 C   0  0  2  0  0  3  0  0  0  0  0  0
  198.1460  171.5340  137.1590 C   0  0  0  0  0  0  0  0  0  0  0  0
  195.2610  172.4900  138.8210 O   0  0  0  0  0  1  0  0  0  0  0  0
  198.6950  170.2540  136.6410 C   0  0  0  0  0  1  0  0  0  0  0  0
  197.2510  173.7550  138.6100 C   0  0  1  0  0  3  0  0  0  0  0  0
  199.0150  172.5940  137.4380 O   0  0  0  0  0  0  0  0  0  0  0  0
  196.2220  172.8620  137.8790 C   0  0  2  0  0  0  0  0  0  0  0  0
  198.5310  173.8850  137.7910 C   0  0  0  0  0  2  0  0  0  0  0  0
  196.8690  171.6420  137.3790 N   0  0  0  0  0  0  0  0  0  0  0  0
  196.7240  175.0200  138.8900 O   0  0  0  0  0  0  0  0  0  0  0  0
  196.9690  175.2180  140.2490 C   0  0  0  0  0  1  0  0  0  0  0  0
  1 14  1  0  0  0  0
  2 19  1  0  0  0  0
  4 17  1  0  0  0  0
  5  6  1  0  0  0  0
  7 18  1  6  0  0  0
  7 12  1  0  0  0  0
  7  8  1  0  0  0  0
  8 10  1  0  0  0  0
 10  6  2  0  0  0  0
 12  5  1  1  0  0  0
 13 27  1  0  0  0  0
 13 15  2  0  0  0  0
 14 25  1  0  0  0  0
 16 25  1  6  0  0  0
 16 18  1  0  0  0  0
 17  2  1  0  0  0  0
 19 20  1  0  0  0  0
 20  3  2  0  0  0  0
 20  9  1  0  0  0  0
 21 28  1  0  0  0  0
 21 11  1  0  0  0  0
 22  4  1  0  0  0  0
 23 11  1  6  0  0  0
 23 15  1  0  0  0  0
 23  1  1  0  0  0  0
 24  9  1  0  0  0  0
 24 12  1  0  0  0  0
 26 22  3  0  0  0  0
 27 26  1  0  0  0  0
 28 13  1  0  0  0  0
 29 34  1  0  0  0  0
 30 33  1  0  0  0  0
 32 30  2  0  0  0  0
 32 31  1  0  0  0  0
 33 29  2  0  0  0  0
 34 31  1  6  0  0  0
 34 16  1  0  0  0  0
 35 37  1  6  0  0  0
 35 30  1  0  0  0  0
 36 35  2  0  0  0  0
 38  4  1  0  0  0  0
 39 40  2  0  0  0  0
 40 42  1  0  0  0  0
 40 38  1  0  0  0  0
 41 40  2  0  0  0  0
 42 43  1  6  0  0  0
 45 44  1  6  0  0  0
 45 42  1  0  0  0  0
 45 51  1  0  0  0  0
 46 53  2  0  0  0  0
 46 50  1  0  0  0  0
 48 46  1  0  0  0  0
 49 54  1  6  0  0  0
 50 52  1  0  0  0  0
 51 49  1  0  0  0  0
 51 47  1  1  0  0  0
 52 49  1  0  0  0  0
 53 51  1  0  0  0  0
 54 55  1  0  0  0  0
M  END
>  <MODEL>
1

>  <REMARK>
 VINA RESULT:      -8.5      0.000      0.000
  Name = 
  8 active torsions:
  status: ('A' for Active; 'I' for Inactive)
    1  A    between atoms: C_6  and  C_14
    2  A    between atoms: C_6  and  S_20
    3  A    between atoms: N_8  and  N_22
    4  A    between atoms: S_10  and  C_32
    5  A    between atoms: O_11  and  C_29
    6  A    between atoms: C_14  and  C_38
    7  A    between atoms: S_20  and  N_22
    8  A    between atoms: C_33  and  C_52
                            x       y       z     vdW  Elec       q    Type
                         _______ _______ _______ _____ _____    ______ ____

>  <TORSDO>
F 8

$$$$
=
 OpenBabel10262420243D

 55 59  0  0  1  0  0  0  0  0999 V2000
  186.0100  178.3210  143.7910 C   0  0  0  0  0  2  0  0  0  0  0  0
  184.5160  177.8580  137.4340 C   0  0  0  0  0  2  0  0  0  0  0  0
  186.7620  176.1310  137.4190 O   0  0  0  0  0  0  0  0  0  0  0  0
  182.2450  178.6480  137.8620 N   0  0  0  0  0  0  0  0  0  0  0  0
  190.9730  176.3750  138.6240 C   0  0  0  0  0  2  0  0  0  0  0  0
  192.4550  176.4980  138.8450 C   0  0  0  0  0  3  0  0  0  0  0  0
  190.6040  177.4050  140.8610 C   0  0  2  0  0  3  0  0  0  0  0  0
  192.0570  177.4960  140.9940 N   0  0  0  0  0  2  0  0  0  0  0  0
  188.3420  177.8170  137.9880 C   0  0  0  0  0  2  0  0  0  0  0  0
  192.9410  177.0020  139.9800 C   0  0  0  0  0  3  0  0  0  0  0  0
  184.1530  179.9720  144.1630 C   0  0  0  0  0  2  0  0  0  0  0  0
  190.2040  177.4630  139.3820 C   0  0  2  0  0  3  0  0  0  0  0  0
  182.6970  178.1530  142.5680 C   0  0  0  0  0  0  0  0  0  0  0  0
  186.7850  177.6480  142.8360 O   0  0  0  0  0  0  0  0  0  0  0  0
  184.0070  178.2830  142.2940 C   0  0  0  0  0  3  0  0  0  0  0  0
  189.1530  177.8260  142.4920 C   0  0  2  0  0  3  0  0  0  0  0  0
  183.5910  179.0590  137.4910 C   0  0  0  0  0  2  0  0  0  0  0  0
  190.0070  178.4490  141.5760 O   0  0  0  0  0  0  0  0  0  0  0  0
  185.8890  178.2850  137.6390 N   0  0  0  0  0  2  0  0  0  0  0  0
  186.9670  177.3500  137.6620 C   0  0  0  0  0  0  0  0  0  0  0  0
  183.0760  179.1780  144.7520 N   0  0  0  0  0  2  0  0  0  0  0  0
  182.0360  178.1810  139.1690 C   0  0  0  0  0  0  0  0  0  0  0  0
  184.9230  179.1520  143.1200 C   0  0  2  0  0  3  0  0  0  0  0  0
  188.7720  177.2310  139.2490 N   0  0  0  0  0  2  0  0  0  0  0  0
  187.8050  178.5380  142.4870 C   0  0  0  0  0  2  0  0  0  0  0  0
  181.8990  177.7850  140.2990 C   0  0  0  0  0  0  0  0  0  0  0  0
  181.8170  177.3180  141.6870 C   0  0  0  0  0  2  0  0  0  0  0  0
  182.0840  178.9210  143.7080 C   0  0  0  0  0  2  0  0  0  0  0  0
  190.8250  176.7100  144.0040 C   0  0  0  0  0  3  0  0  0  0  0  0
  190.5530  176.7820  146.4300 C   0  0  0  0  0  0  0  0  0  0  0  0
  188.7620  177.7350  145.0170 C   0  0  0  0  0  2  0  0  0  0  0  0
  189.4340  177.5140  146.3450 C   0  0  0  0  0  3  0  0  0  0  0  0
  191.1970  176.2640  145.2070 C   0  0  0  0  0  3  0  0  0  0  0  0
  189.7960  177.8050  143.8830 C   0  0  2  0  0  3  0  0  0  0  0  0
  191.2880  176.4500  148.0120 S   0  0  2  0  0  0  0  0  0  0  0  0
  191.7430  177.8170  148.5050 O   0  0  0  0  0  0  0  0  0  0  0  0
  192.8170  175.5800  147.6280 C   0  0  0  0  0  1  0  0  0  0  0  0
  181.1610  179.1180  137.1040 N   0  0  0  0  0  2  0  0  0  0  0  0
  179.6360  177.1180  137.9570 O   0  0  0  0  0  0  0  0  0  0  0  0
  180.1170  177.7890  136.7010 S   0  0  0  0  0  0  0  0  0  0  0  0
  178.9310  178.3450  135.9630 O   0  0  0  0  0  0  0  0  0  0  0  0
  180.9760  176.6050  135.6580 C   0  0  1  0  0  3  0  0  0  0  0  0
  182.1360  177.2450  134.9190 C   0  0  0  0  0  1  0  0  0  0  0  0
  182.8940  175.3200  136.6600 C   0  0  0  0  0  1  0  0  0  0  0  0
  181.4010  175.3000  136.3580 C   0  0  2  0  0  3  0  0  0  0  0  0
  182.4130  172.0800  136.1610 C   0  0  0  0  0  0  0  0  0  0  0  0
  180.1670  174.2020  134.5940 O   0  0  0  0  0  1  0  0  0  0  0  0
  183.5770  171.2650  135.7280 C   0  0  0  0  0  1  0  0  0  0  0  0
  179.9300  173.2380  136.7430 C   0  0  1  0  0  3  0  0  0  0  0  0
  181.7330  171.7420  137.3360 O   0  0  0  0  0  0  0  0  0  0  0  0
  180.8890  173.9520  135.7620 C   0  0  2  0  0  0  0  0  0  0  0  0
  180.7100  172.5740  137.8740 C   0  0  0  0  0  2  0  0  0  0  0  0
  182.0180  173.0770  135.4240 N   0  0  0  0  0  0  0  0  0  0  0  0
  178.9780  174.1200  137.2630 O   0  0  0  0  0  0  0  0  0  0  0  0
  178.9500  173.8510  138.6320 C   0  0  0  0  0  1  0  0  0  0  0  0
  2 17  1  0  0  0  0
  2 19  1  0  0  0  0
  3 20  2  0  0  0  0
  4 22  1  0  0  0  0
  5  6  1  0  0  0  0
  6 10  2  0  0  0  0
  7  8  1  6  0  0  0
  7 18  1  0  0  0  0
  9 24  1  0  0  0  0
 10  8  1  0  0  0  0
 11 21  1  0  0  0  0
 12  5  1  6  0  0  0
 12  7  1  0  0  0  0
 13 28  1  0  0  0  0
 14  1  1  0  0  0  0
 15 13  2  0  0  0  0
 16 25  1  1  0  0  0
 16 34  1  0  0  0  0
 17  4  1  0  0  0  0
 18 16  1  0  0  0  0
 19 20  1  0  0  0  0
 20  9  1  0  0  0  0
 22 26  3  0  0  0  0
 23 15  1  1  0  0  0
 23  1  1  0  0  0  0
 23 11  1  0  0  0  0
 24 12  1  0  0  0  0
 25 14  1  0  0  0  0
 26 27  1  0  0  0  0
 27 13  1  0  0  0  0
 28 21  1  0  0  0  0
 29 33  2  0  0  0  0
 30 35  1  0  0  0  0
 31 32  1  0  0  0  0
 32 30  2  0  0  0  0
 33 30  1  0  0  0  0
 34 29  1  6  0  0  0
 34 31  1  0  0  0  0
 35 37  1  6  0  0  0
 35 36  2  0  0  0  0
 38  4  1  0  0  0  0
 40 38  1  0  0  0  0
 40 39  2  0  0  0  0
 41 40  2  0  0  0  0
 42 43  1  1  0  0  0
 42 45  1  0  0  0  0
 42 40  1  0  0  0  0
 45 44  1  6  0  0  0
 46 50  1  0  0  0  0
 48 46  1  0  0  0  0
 49 54  1  1  0  0  0
 49 52  1  0  0  0  0
 50 52  1  0  0  0  0
 51 47  1  6  0  0  0
 51 45  1  0  0  0  0
 51 49  1  0  0  0  0
 53 51  1  0  0  0  0
 53 46  2  0  0  0  0
 54 55  1  0  0  0  0
M  END
>  <MODEL>
2

>  <REMARK>
 VINA RESULT:      -7.2      4.421     11.703
  Name = 
  8 active torsions:
  status: ('A' for Active; 'I' for Inactive)
    1  A    between atoms: C_6  and  C_14
    2  A    between atoms: C_6  and  S_20
    3  A    between atoms: N_8  and  N_22
    4  A    between atoms: S_10  and  C_32
    5  A    between atoms: O_11  and  C_29
    6  A    between atoms: C_14  and  C_38
    7  A    between atoms: S_20  and  N_22
    8  A    between atoms: C_33  and  C_52
                            x       y       z     vdW  Elec       q    Type
                         _______ _______ _______ _____ _____    ______ ____

>  <TORSDO>
F 8

$$$$
=
 OpenBabel10262420243D

 55 59  0  0  1  0  0  0  0  0999 V2000
  185.6610  177.6290  139.4410 C   0  0  0  0  0  2  0  0  0  0  0  0
  192.0110  176.7690  140.7760 C   0  0  0  0  0  2  0  0  0  0  0  0
  190.9760  175.7550  143.2100 O   0  0  0  0  0  0  0  0  0  0  0  0
  192.5740  176.8770  138.4010 N   0  0  0  0  0  0  0  0  0  0  0  0
  188.2910  177.1890  146.3690 C   0  0  0  0  0  2  0  0  0  0  0  0
  187.5370  177.7290  147.5520 C   0  0  0  0  0  3  0  0  0  0  0  0
  186.4950  178.0670  144.8850 C   0  0  2  0  0  3  0  0  0  0  0  0
  185.8290  178.5690  146.0850 N   0  0  0  0  0  2  0  0  0  0  0  0
  190.0400  177.8210  143.9310 C   0  0  0  0  0  2  0  0  0  0  0  0
  186.3660  178.3490  147.3960 C   0  0  0  0  0  3  0  0  0  0  0  0
  186.2130  178.6820  137.2270 C   0  0  0  0  0  2  0  0  0  0  0  0
  188.0100  178.0110  145.1060 C   0  0  2  0  0  3  0  0  0  0  0  0
  188.0290  176.5260  137.0580 C   0  0  0  0  0  0  0  0  0  0  0  0
  186.1660  177.2080  140.6780 O   0  0  0  0  0  0  0  0  0  0  0  0
  187.7950  177.0240  138.2840 C   0  0  0  0  0  3  0  0  0  0  0  0
  185.5980  178.0540  142.8500 C   0  0  2  0  0  3  0  0  0  0  0  0
  192.4470  177.6560  139.6250 C   0  0  0  0  0  2  0  0  0  0  0  0
  186.1830  178.8960  143.8020 O   0  0  0  0  0  0  0  0  0  0  0  0
  191.3480  177.5700  141.7900 N   0  0  0  0  0  2  0  0  0  0  0  0
  190.8110  176.9820  142.9730 C   0  0  0  0  0  0  0  0  0  0  0  0
  185.9950  177.6120  136.2540 N   0  0  0  0  0  2  0  0  0  0  0  0
  191.4030  176.3680  137.8210 C   0  0  0  0  0  0  0  0  0  0  0  0
  186.7840  178.1170  138.5330 C   0  0  2  0  0  3  0  0  0  0  0  0
  188.6530  177.3800  143.9610 N   0  0  0  0  0  2  0  0  0  0  0  0
  186.1970  178.3520  141.4800 C   0  0  0  0  0  2  0  0  0  0  0  0
  190.3730  175.9480  137.3550 C   0  0  0  0  0  0  0  0  0  0  0  0
  189.0780  175.4750  136.8530 C   0  0  0  0  0  2  0  0  0  0  0  0
  187.3020  177.0840  135.8640 C   0  0  0  0  0  2  0  0  0  0  0  0
  183.5070  178.3090  141.4750 C   0  0  0  0  0  3  0  0  0  0  0  0
  181.5380  179.4200  142.3990 C   0  0  0  0  0  0  0  0  0  0  0  0
  183.6100  179.3870  143.7470 C   0  0  0  0  0  2  0  0  0  0  0  0
  182.1360  179.6340  143.5780 C   0  0  0  0  0  3  0  0  0  0  0  0
  182.3000  178.8450  141.2730 C   0  0  0  0  0  3  0  0  0  0  0  0
  184.0740  178.2150  142.8680 C   0  0  2  0  0  3  0  0  0  0  0  0
  179.8170  179.8010  142.1830 S   0  0  2  0  0  0  0  0  0  0  0  0
  179.2460  179.7510  143.5940 O   0  0  0  0  0  0  0  0  0  0  0  0
  179.1290  178.3510  141.3690 C   0  0  0  0  0  1  0  0  0  0  0  0
  193.7360  177.0200  137.6270 N   0  0  0  0  0  2  0  0  0  0  0  0
  192.4970  175.9540  135.5320 O   0  0  0  0  0  0  0  0  0  0  0  0
  193.7410  175.8240  136.3660 S   0  0  0  0  0  0  0  0  0  0  0  0
  194.9390  176.0810  135.4950 O   0  0  0  0  0  0  0  0  0  0  0  0
  193.8460  174.1720  137.0640 C   0  0  1  0  0  3  0  0  0  0  0  0
  192.5960  173.3610  136.7800 C   0  0  0  0  0  1  0  0  0  0  0  0
  194.8760  172.4910  135.4990 C   0  0  0  0  0  1  0  0  0  0  0  0
  195.1230  173.3870  136.7060 C   0  0  2  0  0  3  0  0  0  0  0  0
  197.5180  171.0310  137.0840 C   0  0  0  0  0  0  0  0  0  0  0  0
  195.0780  172.5900  138.9870 O   0  0  0  0  0  1  0  0  0  0  0  0
  197.8240  169.6300  136.6980 C   0  0  0  0  0  1  0  0  0  0  0  0
  197.1350  173.5310  138.2870 C   0  0  1  0  0  3  0  0  0  0  0  0
  198.5360  171.9900  137.0620 O   0  0  0  0  0  0  0  0  0  0  0  0
  195.9040  172.6950  137.8660 C   0  0  2  0  0  0  0  0  0  0  0  0
  198.2670  173.3720  137.2770 C   0  0  0  0  0  2  0  0  0  0  0  0
  196.3160  171.3420  137.4730 N   0  0  0  0  0  0  0  0  0  0  0  0
  196.8090  174.8820  138.4410 O   0  0  0  0  0  0  0  0  0  0  0  0
  196.3740  174.9970  139.7620 C   0  0  0  0  0  1  0  0  0  0  0  0
  1 14  1  0  0  0  0
  2 19  1  0  0  0  0
  4 17  1  0  0  0  0
  5  6  1  0  0  0  0
  7 18  1  6  0  0  0
  7 12  1  0  0  0  0
  7  8  1  0  0  0  0
  8 10  1  0  0  0  0
  9 24  1  0  0  0  0
 10  6  2  0  0  0  0
 12  5  1  1  0  0  0
 13 15  2  0  0  0  0
 14 25  1  0  0  0  0
 15 23  1  0  0  0  0
 16 25  1  6  0  0  0
 16 34  1  0  0  0  0
 16 18  1  0  0  0  0
 17  2  1  0  0  0  0
 19 20  1  0  0  0  0
 20  3  2  0  0  0  0
 20  9  1  0  0  0  0
 21 11  1  0  0  0  0
 22  4  1  0  0  0  0
 23 11  1  6  0  0  0
 23  1  1  0  0  0  0
 24 12  1  0  0  0  0
 26 22  3  0  0  0  0
 27 13  1  0  0  0  0
 27 26  1  0  0  0  0
 28 21  1  0  0  0  0
 28 13  1  0  0  0  0
 30 32  2  0  0  0  0
 32 31  1  0  0  0  0
 33 29  2  0  0  0  0
 33 30  1  0  0  0  0
 34 29  1  6  0  0  0
 34 31  1  0  0  0  0
 35 37  1  6  0  0  0
 35 30  1  0  0  0  0
 35 36  2  0  0  0  0
 38  4  1  0  0  0  0
 39 40  2  0  0  0  0
 40 42  1  0  0  0  0
 40 38  1  0  0  0  0
 41 40  2  0  0  0  0
 42 43  1  6  0  0  0
 45 44  1  6  0  0  0
 45 42  1  0  0  0  0
 45 51  1  0  0  0  0
 46 53  2  0  0  0  0
 48 46  1  0  0  0  0
 49 54  1  6  0  0  0
 50 46  1  0  0  0  0
 50 52  1  0  0  0  0
 51 49  1  0  0  0  0
 51 47  1  1  0  0  0
 52 49  1  0  0  0  0
 53 51  1  0  0  0  0
 54 55  1  0  0  0  0
M  END
>  <MODEL>
3

>  <REMARK>
 VINA RESULT:      -6.1      1.988      2.430
  Name = 
  8 active torsions:
  status: ('A' for Active; 'I' for Inactive)
    1  A    between atoms: C_6  and  C_14
    2  A    between atoms: C_6  and  S_20
    3  A    between atoms: N_8  and  N_22
    4  A    between atoms: S_10  and  C_32
    5  A    between atoms: O_11  and  C_29
    6  A    between atoms: C_14  and  C_38
    7  A    between atoms: S_20  and  N_22
    8  A    between atoms: C_33  and  C_52
                            x       y       z     vdW  Elec       q    Type
                         _______ _______ _______ _____ _____    ______ ____

>  <TORSDO>
F 8

$$$$
=
 OpenBabel10262420243D

 55 59  0  0  1  0  0  0  0  0999 V2000
  186.3260  178.4410  141.4740 C   0  0  0  0  0  2  0  0  0  0  0  0
  189.4800  175.5890  136.4970 C   0  0  0  0  0  2  0  0  0  0  0  0
  187.6020  177.0520  134.9620 O   0  0  0  0  0  0  0  0  0  0  0  0
  191.4160  175.1420  137.9180 N   0  0  0  0  0  0  0  0  0  0  0  0
  183.2340  177.4370  134.8000 C   0  0  0  0  0  2  0  0  0  0  0  0
  181.7460  177.4380  134.5940 C   0  0  0  0  0  3  0  0  0  0  0  0
  182.8480  177.7020  137.2450 C   0  0  2  0  0  3  0  0  0  0  0  0
  181.4150  177.6840  136.9610 N   0  0  0  0  0  2  0  0  0  0  0  0
  185.6930  175.8870  135.7780 C   0  0  0  0  0  2  0  0  0  0  0  0
  180.9100  177.5840  135.6240 C   0  0  0  0  0  3  0  0  0  0  0  0
  187.7520  177.2230  143.1470 C   0  0  0  0  0  2  0  0  0  0  0  0
  183.6070  176.8960  136.1840 C   0  0  2  0  0  3  0  0  0  0  0  0
  189.8300  177.9750  141.3890 C   0  0  0  0  0  0  0  0  0  0  0  0
  185.9370  178.5250  140.1310 O   0  0  0  0  0  0  0  0  0  0  0  0
  188.6330  177.7160  140.8340 C   0  0  0  0  0  3  0  0  0  0  0  0
  183.7430  178.1840  139.2230 C   0  0  2  0  0  3  0  0  0  0  0  0
  190.1680  174.5910  137.4100 C   0  0  0  0  0  2  0  0  0  0  0  0
  183.0740  177.1740  138.5210 O   0  0  0  0  0  0  0  0  0  0  0  0
  188.0530  175.3190  136.4610 N   0  0  0  0  0  2  0  0  0  0  0  0
  187.1600  176.1280  135.6970 C   0  0  0  0  0  0  0  0  0  0  0  0
  188.7450  178.2130  143.5640 N   0  0  0  0  0  2  0  0  0  0  0  0
  191.3440  176.2130  138.8210 C   0  0  0  0  0  0  0  0  0  0  0  0
  187.4140  177.3890  141.6600 C   0  0  2  0  0  3  0  0  0  0  0  0
  185.0420  177.0340  136.3930 N   0  0  0  0  0  2  0  0  0  0  0  0
  184.9220  177.5770  139.9740 C   0  0  0  0  0  2  0  0  0  0  0  0
  191.2380  177.1330  139.5930 C   0  0  0  0  0  0  0  0  0  0  0  0
  191.0250  178.2460  140.5250 C   0  0  0  0  0  2  0  0  0  0  0  0
  190.0020  177.9040  142.8830 C   0  0  0  0  0  2  0  0  0  0  0  0
  182.0870  177.9570  141.1040 C   0  0  0  0  0  3  0  0  0  0  0  0
  180.2910  179.5880  141.3840 C   0  0  0  0  0  0  0  0  0  0  0  0
  181.7520  179.7780  139.3980 C   0  0  0  0  0  2  0  0  0  0  0  0
  180.6980  180.3090  140.3310 C   0  0  0  0  0  3  0  0  0  0  0  0
  180.9430  178.3020  141.7000 C   0  0  0  0  0  3  0  0  0  0  0  0
  182.7690  178.9110  140.1570 C   0  0  2  0  0  3  0  0  0  0  0  0
  178.9820  180.1830  142.4260 S   0  0  2  0  0  0  0  0  0  0  0  0
  179.0260  181.6950  142.2520 O   0  0  0  0  0  0  0  0  0  0  0  0
  179.5750  179.9060  144.1030 C   0  0  0  0  0  1  0  0  0  0  0  0
  192.5770  174.3550  137.8550 N   0  0  0  0  0  2  0  0  0  0  0  0
  193.4560  176.5780  136.6970 O   0  0  0  0  0  0  0  0  0  0  0  0
  193.9320  175.3570  137.4320 S   0  0  0  0  0  0  0  0  0  0  0  0
  194.5990  175.7870  138.7090 O   0  0  0  0  0  0  0  0  0  0  0  0
  195.1010  174.4430  136.4190 C   0  0  1  0  0  3  0  0  0  0  0  0
  196.2020  175.3390  135.8830 C   0  0  0  0  0  1  0  0  0  0  0  0
  196.8490  173.5140  137.9750 C   0  0  0  0  0  1  0  0  0  0  0  0
  195.6760  173.1680  137.0670 C   0  0  2  0  0  3  0  0  0  0  0  0
  197.5840  170.3770  137.0490 C   0  0  0  0  0  0  0  0  0  0  0  0
  195.7730  172.3040  134.8110 O   0  0  0  0  0  1  0  0  0  0  0  0
  199.0020  169.9530  137.1750 C   0  0  0  0  0  1  0  0  0  0  0  0
  194.8890  170.8150  136.4260 C   0  0  1  0  0  3  0  0  0  0  0  0
  196.5820  169.6280  137.6760 O   0  0  0  0  0  0  0  0  0  0  0  0
  195.9230  171.9310  136.1490 C   0  0  2  0  0  0  0  0  0  0  0  0
  195.2290  170.0710  137.7130 C   0  0  0  0  0  2  0  0  0  0  0  0
  197.2870  171.4190  136.3310 N   0  0  0  0  0  0  0  0  0  0  0  0
  193.5890  171.3250  136.4890 O   0  0  0  0  0  0  0  0  0  0  0  0
  192.9280  170.7600  135.3980 C   0  0  0  0  0  1  0  0  0  0  0  0
  1 23  1  0  0  0  0
  2 17  1  0  0  0  0
  3 20  2  0  0  0  0
  4 22  1  0  0  0  0
  6  5  1  0  0  0  0
  6 10  2  0  0  0  0
  7  8  1  6  0  0  0
  7 18  1  0  0  0  0
  9 24  1  0  0  0  0
 10  8  1  0  0  0  0
 11 21  1  0  0  0  0
 12  5  1  6  0  0  0
 12 24  1  0  0  0  0
 12  7  1  0  0  0  0
 13 28  1  0  0  0  0
 14  1  1  0  0  0  0
 15 13  2  0  0  0  0
 16 25  1  1  0  0  0
 16 34  1  0  0  0  0
 17  4  1  0  0  0  0
 18 16  1  0  0  0  0
 19  2  1  0  0  0  0
 20  9  1  0  0  0  0
 20 19  1  0  0  0  0
 22 26  3  0  0  0  0
 23 15  1  6  0  0  0
 23 11  1  0  0  0  0
 25 14  1  0  0  0  0
 26 27  1  0  0  0  0
 27 13  1  0  0  0  0
 28 21  1  0  0  0  0
 29 33  2  0  0  0  0
 30 33  1  0  0  0  0
 30 35  1  0  0  0  0
 31 32  1  0  0  0  0
 32 30  2  0  0  0  0
 34 31  1  6  0  0  0
 34 29  1  0  0  0  0
 35 37  1  1  0  0  0
 36 35  2  0  0  0  0
 38  4  1  0  0  0  0
 39 40  2  0  0  0  0
 40 38  1  0  0  0  0
 40 41  2  0  0  0  0
 42 43  1  1  0  0  0
 42 45  1  0  0  0  0
 42 40  1  0  0  0  0
 45 44  1  6  0  0  0
 46 48  1  0  0  0  0
 46 50  1  0  0  0  0
 49 54  1  1  0  0  0
 49 52  1  0  0  0  0
 50 52  1  0  0  0  0
 51 47  1  6  0  0  0
 51 53  1  0  0  0  0
 51 49  1  0  0  0  0
 51 45  1  0  0  0  0
 53 46  2  0  0  0  0
 55 54  1  0  0  0  0
M  END
>  <MODEL>
4

>  <REMARK>
 VINA RESULT:      -5.7      2.529      5.303
  Name = 
  8 active torsions:
  status: ('A' for Active; 'I' for Inactive)
    1  A    between atoms: C_6  and  C_14
    2  A    between atoms: C_6  and  S_20
    3  A    between atoms: N_8  and  N_22
    4  A    between atoms: S_10  and  C_32
    5  A    between atoms: O_11  and  C_29
    6  A    between atoms: C_14  and  C_38
    7  A    between atoms: S_20  and  N_22
    8  A    between atoms: C_33  and  C_52
                            x       y       z     vdW  Elec       q    Type
                         _______ _______ _______ _____ _____    ______ ____

>  <TORSDO>
F 8

$$$$
