=
 OpenBabel10262423043D

 37 42  0  0  1  0  0  0  0  0999 V2000
  180.7830  178.7830  137.8640 C   0  0  0  0  0  2  0  0  0  0  0  0
  182.7410  179.5030  139.2080 C   0  0  0  0  0  2  0  0  0  0  0  0
  182.6040  178.3700  140.2160 C   0  0  2  0  0  3  0  0  0  0  0  0
  181.6900  177.6240  138.2040 C   0  0  2  0  0  0  0  0  0  0  0  0
  182.4330  176.0690  139.8890 C   0  0  0  0  0  1  0  0  0  0  0  0
  181.7530  177.3340  139.6420 N   0  0  0  0  0  0  0  0  0  0  0  0
  182.2990  178.9580  137.8700 C   0  0  1  0  0  3  0  0  0  0  0  0
  181.8600  178.9960  141.7530 S   0  0  0  0  0  0  0  0  0  0  0  0
  184.4800  178.1780  142.0880 C   0  0  0  0  0  3  0  0  0  0  0  0
  185.6300  177.9220  142.8390 C   0  0  0  0  0  3  0  0  0  0  0  0
  183.3380  178.9140  144.0900 C   0  0  0  0  0  3  0  0  0  0  0  0
  183.3350  178.6770  142.7120 C   0  0  0  0  0  0  0  0  0  0  0  0
  185.6480  178.1590  144.2240 C   0  0  0  0  0  0  0  0  0  0  0  0
  184.4880  178.6570  144.8410 C   0  0  0  0  0  3  0  0  0  0  0  0
  188.0640  177.5030  144.3920 C   0  0  0  0  0  3  0  0  0  0  0  0
  186.8650  177.8790  145.0220 C   0  0  0  0  0  0  0  0  0  0  0  0
  186.8410  177.9840  146.4240 C   0  0  0  0  0  3  0  0  0  0  0  0
  187.9410  177.8570  148.9200 Cl  0  0  0  0  0  0  0  0  0  0  0  0
  189.1720  177.3420  146.5370 C   0  0  0  0  0  3  0  0  0  0  0  0
  187.9890  177.7170  147.1760 C   0  0  0  0  0  0  0  0  0  0  0  0
  189.2100  177.2360  145.1460 C   0  0  0  0  0  3  0  0  0  0  0  0
  181.6830  176.5170  137.1490 C   0  0  0  0  0  2  0  0  0  0  0  0
  184.0490  176.4560  136.4210 C   0  0  0  0  0  2  0  0  0  0  0  0
  182.6410  176.8420  136.0090 C   0  0  1  0  0  3  0  0  0  0  0  0
  183.3370  175.6350  135.3610 C   0  0  2  0  0  3  0  0  0  0  0  0
  181.8410  173.5090  134.9720 C   0  0  0  0  0  2  0  0  0  0  0  0
  180.8600  172.7020  135.8320 C   0  0  1  0  0  3  0  0  0  0  0  0
  183.9220  171.8440  136.1190 C   0  0  0  0  0  0  0  0  0  0  0  0
  181.5350  171.9880  137.0030 C   0  0  0  0  0  2  0  0  0  0  0  0
  182.6820  171.0950  136.5470 C   0  0  0  0  0  2  0  0  0  0  0  0
  184.1010  173.3470  136.2260 C   0  0  1  0  0  3  0  0  0  0  0  0
  184.9570  171.1230  135.6980 C   0  0  0  0  0  2  0  0  0  0  0  0
  182.8990  174.2250  135.8270 C   0  0  1  0  0  3  0  0  0  0  0  0
  186.0710  173.8630  137.5080 O   0  0  0  0  0  1  0  0  0  0  0  0
  184.6800  173.7550  137.5780 C   0  0  0  0  0  2  0  0  0  0  0  0
  179.5690  173.3760  137.8570 C   0  0  0  0  0  1  0  0  0  0  0  0
  179.7600  173.6030  136.3690 C   0  0  0  0  0  2  0  0  0  0  0  0
  1  4  1  0  0  0  0
  2  3  1  0  0  0  0
  3  8  1  1  0  0  0
  4 22  1  6  0  0  0
  4  6  1  0  0  0  0
  6  5  1  0  0  0  0
  6  3  1  0  0  0  0
  7  1  1  1  0  0  0
  7  4  1  0  0  0  0
  7  2  1  0  0  0  0
  8 12  1  0  0  0  0
  9 12  2  0  0  0  0
  9 10  1  0  0  0  0
 10 13  2  0  0  0  0
 11 14  2  0  0  0  0
 12 11  1  0  0  0  0
 13 14  1  0  0  0  0
 13 16  1  0  0  0  0
 15 16  2  0  0  0  0
 15 21  1  0  0  0  0
 16 17  1  0  0  0  0
 17 20  2  0  0  0  0
 19 20  1  0  0  0  0
 20 18  1  0  0  0  0
 21 19  2  0  0  0  0
 24 23  1  0  0  0  0
 24 22  1  1  0  0  0
 25 33  1  0  0  0  0
 25 24  1  0  0  0  0
 25 23  1  1  0  0  0
 26 27  1  0  0  0  0
 27 37  1  1  0  0  0
 27 29  1  0  0  0  0
 28 31  1  0  0  0  0
 28 30  1  0  0  0  0
 30 29  1  0  0  0  0
 31 35  1  1  0  0  0
 32 28  2  0  0  0  0
 33 26  1  6  0  0  0
 33 31  1  0  0  0  0
 34 35  1  0  0  0  0
 37 36  1  0  0  0  0
M  END
>  <MODEL>
1

>  <REMARK>
 VINA RESULT:      -8.2      0.000      0.000
  Name = 
  8 active torsions:
  status: ('A' for Active; 'I' for Inactive)
    1  A    between atoms: S_4  and  C_16
    2  A    between atoms: S_4  and  C_28
    3  A    between atoms: C_5  and  C_23
    4  A    between atoms: C_6  and  C_31
    5  A    between atoms: C_20  and  C_32
    6  A    between atoms: C_21  and  C_32
    7  A    between atoms: C_27  and  C_33
    8  A    between atoms: C_29  and  C_36
                            x       y       z     vdW  Elec       q    Type
                         _______ _______ _______ _____ _____    ______ ____

>  <TORSDO>
F 8

$$$$
=
 OpenBabel10262423043D

 37 42  0  0  1  0  0  0  0  0999 V2000
  189.4410  178.0930  136.9440 C   0  0  0  0  0  2  0  0  0  0  0  0
  190.3480  176.1010  138.1140 C   0  0  0  0  0  2  0  0  0  0  0  0
  190.0430  176.6410  139.5040 C   0  0  2  0  0  3  0  0  0  0  0  0
  188.5120  177.6060  138.0330 C   0  0  2  0  0  0  0  0  0  0  0  0
  188.0620  177.4820  140.3970 C   0  0  0  0  0  1  0  0  0  0  0  0
  189.0780  177.7280  139.3820 N   0  0  0  0  0  0  0  0  0  0  0  0
  189.2550  176.5990  137.1970 C   0  0  1  0  0  3  0  0  0  0  0  0
  191.5700  177.2580  140.2760 S   0  0  0  0  0  0  0  0  0  0  0  0
  190.1360  176.2810  142.4290 C   0  0  0  0  0  3  0  0  0  0  0  0
  189.5430  176.3740  143.6900 C   0  0  0  0  0  3  0  0  0  0  0  0
  190.9030  178.5680  142.6200 C   0  0  0  0  0  3  0  0  0  0  0  0
  190.8190  177.3750  141.8950 C   0  0  0  0  0  0  0  0  0  0  0  0
  189.6230  177.5650  144.4330 C   0  0  0  0  0  0  0  0  0  0  0  0
  190.3090  178.6610  143.8820 C   0  0  0  0  0  3  0  0  0  0  0  0
  189.7430  177.4830  146.9370 C   0  0  0  0  0  3  0  0  0  0  0  0
  188.9870  177.6680  145.7670 C   0  0  0  0  0  0  0  0  0  0  0  0
  187.6150  177.9510  145.8850 C   0  0  0  0  0  3  0  0  0  0  0  0
  185.3060  178.4020  147.2710 Cl  0  0  0  0  0  0  0  0  0  0  0  0
  187.7770  177.8570  148.2980 C   0  0  0  0  0  3  0  0  0  0  0  0
  187.0140  178.0450  147.1440 C   0  0  0  0  0  0  0  0  0  0  0  0
  189.1410  177.5770  148.1950 C   0  0  0  0  0  3  0  0  0  0  0  0
  187.0360  177.8810  137.7400 C   0  0  0  0  0  2  0  0  0  0  0  0
  186.5320  176.2380  135.9570 C   0  0  0  0  0  2  0  0  0  0  0  0
  186.7330  177.7110  136.2550 C   0  0  1  0  0  3  0  0  0  0  0  0
  185.3340  177.1700  135.9200 C   0  0  2  0  0  3  0  0  0  0  0  0
  183.3420  178.1280  137.3440 C   0  0  0  0  0  2  0  0  0  0  0  0
  183.0880  178.3510  138.8400 C   0  0  1  0  0  3  0  0  0  0  0  0
  182.3600  175.4320  137.7690 C   0  0  0  0  0  0  0  0  0  0  0  0
  183.0020  177.0470  139.6340 C   0  0  0  0  0  2  0  0  0  0  0  0
  181.9570  176.0950  139.0650 C   0  0  0  0  0  2  0  0  0  0  0  0
  183.7190  175.5760  137.1130 C   0  0  1  0  0  3  0  0  0  0  0  0
  181.4860  174.5990  137.2120 C   0  0  0  0  0  2  0  0  0  0  0  0
  184.3410  176.9870  137.0950 C   0  0  1  0  0  3  0  0  0  0  0  0
  184.7500  173.4340  136.7420 O   0  0  0  0  0  1  0  0  0  0  0  0
  184.7060  174.5260  137.6130 C   0  0  0  0  0  2  0  0  0  0  0  0
  184.6370  178.6600  140.7720 C   0  0  0  0  0  1  0  0  0  0  0  0
  184.1780  179.2240  139.4400 C   0  0  0  0  0  2  0  0  0  0  0  0
  1  4  1  0  0  0  0
  2  3  1  0  0  0  0
  3  8  1  6  0  0  0
  4 22  1  6  0  0  0
  4  6  1  0  0  0  0
  6  3  1  0  0  0  0
  6  5  1  0  0  0  0
  7  1  1  6  0  0  0
  7  4  1  0  0  0  0
  7  2  1  0  0  0  0
  8 12  1  0  0  0  0
  9 10  1  0  0  0  0
 10 13  2  0  0  0  0
 11 14  2  0  0  0  0
 12  9  2  0  0  0  0
 12 11  1  0  0  0  0
 13 16  1  0  0  0  0
 14 13  1  0  0  0  0
 15 21  1  0  0  0  0
 16 17  1  0  0  0  0
 16 15  2  0  0  0  0
 17 20  2  0  0  0  0
 20 18  1  0  0  0  0
 20 19  1  0  0  0  0
 21 19  2  0  0  0  0
 23 24  1  0  0  0  0
 24 22  1  1  0  0  0
 25 23  1  1  0  0  0
 25 24  1  0  0  0  0
 25 33  1  0  0  0  0
 26 27  1  0  0  0  0
 27 37  1  1  0  0  0
 27 29  1  0  0  0  0
 28 30  1  0  0  0  0
 30 29  1  0  0  0  0
 31 35  1  1  0  0  0
 31 28  1  0  0  0  0
 32 28  2  0  0  0  0
 33 31  1  0  0  0  0
 33 26  1  6  0  0  0
 34 35  1  0  0  0  0
 37 36  1  0  0  0  0
M  END
>  <MODEL>
2

>  <REMARK>
 VINA RESULT:      -7.6      3.390      5.572
  Name = 
  8 active torsions:
  status: ('A' for Active; 'I' for Inactive)
    1  A    between atoms: S_4  and  C_16
    2  A    between atoms: S_4  and  C_28
    3  A    between atoms: C_5  and  C_23
    4  A    between atoms: C_6  and  C_31
    5  A    between atoms: C_20  and  C_32
    6  A    between atoms: C_21  and  C_32
    7  A    between atoms: C_27  and  C_33
    8  A    between atoms: C_29  and  C_36
                            x       y       z     vdW  Elec       q    Type
                         _______ _______ _______ _____ _____    ______ ____

>  <TORSDO>
F 8

$$$$
=
 OpenBabel10262423043D

 37 42  0  0  1  0  0  0  0  0999 V2000
  186.0480  177.4160  135.8250 C   0  0  0  0  0  2  0  0  0  0  0  0
  187.4050  176.2260  137.5290 C   0  0  0  0  0  2  0  0  0  0  0  0
  187.4030  177.3930  138.5050 C   0  0  2  0  0  3  0  0  0  0  0  0
  185.4690  177.5660  137.2130 C   0  0  2  0  0  0  0  0  0  0  0  0
  185.6320  178.6430  139.3630 C   0  0  0  0  0  1  0  0  0  0  0  0
  186.3370  178.3150  138.1300 N   0  0  0  0  0  0  0  0  0  0  0  0
  186.0760  176.2500  136.8100 C   0  0  1  0  0  3  0  0  0  0  0  0
  189.0050  178.2510  138.4480 S   0  0  0  0  0  0  0  0  0  0  0  0
  188.4650  178.3590  141.1580 C   0  0  0  0  0  3  0  0  0  0  0  0
  188.7390  178.1110  142.5050 C   0  0  0  0  0  3  0  0  0  0  0  0
  190.5200  177.2460  140.5340 C   0  0  0  0  0  3  0  0  0  0  0  0
  189.3530  177.9240  140.1720 C   0  0  0  0  0  0  0  0  0  0  0  0
  189.9080  177.4260  142.8830 C   0  0  0  0  0  0  0  0  0  0  0  0
  190.7950  176.9980  141.8820 C   0  0  0  0  0  3  0  0  0  0  0  0
  191.4520  176.6550  144.7040 C   0  0  0  0  0  3  0  0  0  0  0  0
  190.2040  177.1700  144.3120 C   0  0  0  0  0  0  0  0  0  0  0  0
  189.2420  177.4380  145.3010 C   0  0  0  0  0  3  0  0  0  0  0  0
  188.3120  177.5360  147.8660 Cl  0  0  0  0  0  0  0  0  0  0  0  0
  190.7640  176.6800  147.0240 C   0  0  0  0  0  3  0  0  0  0  0  0
  189.5210  177.1940  146.6490 C   0  0  0  0  0  0  0  0  0  0  0  0
  191.7290  176.4120  146.0520 C   0  0  0  0  0  3  0  0  0  0  0  0
  183.9470  177.7180  137.2240 C   0  0  0  0  0  2  0  0  0  0  0  0
  183.3100  175.8550  138.7250 C   0  0  0  0  0  2  0  0  0  0  0  0
  183.2620  176.3580  137.2950 C   0  0  1  0  0  3  0  0  0  0  0  0
  181.9810  176.3030  138.1420 C   0  0  2  0  0  3  0  0  0  0  0  0
  180.2300  178.2590  138.0070 C   0  0  0  0  0  2  0  0  0  0  0  0
  180.3170  179.7900  137.9530 C   0  0  1  0  0  3  0  0  0  0  0  0
  180.3340  178.5410  140.8920 C   0  0  0  0  0  0  0  0  0  0  0  0
  180.8730  180.4040  139.2380 C   0  0  0  0  0  2  0  0  0  0  0  0
  180.0880  179.9700  140.4690 C   0  0  0  0  0  2  0  0  0  0  0  0
  181.3490  177.6140  140.2510 C   0  0  1  0  0  3  0  0  0  0  0  0
  179.6680  178.0950  141.9540 C   0  0  0  0  0  2  0  0  0  0  0  0
  181.4460  177.6390  138.7130 C   0  0  1  0  0  3  0  0  0  0  0  0
  182.7070  178.7080  141.9090 O   0  0  0  0  0  1  0  0  0  0  0  0
  182.7210  177.7320  140.9100 C   0  0  0  0  0  2  0  0  0  0  0  0
  180.7570  179.5100  135.5130 C   0  0  0  0  0  1  0  0  0  0  0  0
  181.1760  180.2320  136.7800 C   0  0  0  0  0  2  0  0  0  0  0  0
  1  4  1  0  0  0  0
  2  3  1  0  0  0  0
  3  8  1  6  0  0  0
  4 22  1  1  0  0  0
  4  6  1  0  0  0  0
  6  3  1  0  0  0  0
  6  5  1  0  0  0  0
  7  1  1  6  0  0  0
  7  4  1  0  0  0  0
  7  2  1  0  0  0  0
  8 12  1  0  0  0  0
  9 10  1  0  0  0  0
 10 13  2  0  0  0  0
 11 14  2  0  0  0  0
 12 11  1  0  0  0  0
 12  9  2  0  0  0  0
 13 16  1  0  0  0  0
 14 13  1  0  0  0  0
 15 21  1  0  0  0  0
 16 15  2  0  0  0  0
 16 17  1  0  0  0  0
 17 20  2  0  0  0  0
 20 19  1  0  0  0  0
 20 18  1  0  0  0  0
 21 19  2  0  0  0  0
 24 22  1  1  0  0  0
 24 25  1  0  0  0  0
 24 23  1  0  0  0  0
 25 33  1  0  0  0  0
 25 23  1  1  0  0  0
 27 37  1  6  0  0  0
 27 26  1  0  0  0  0
 27 29  1  0  0  0  0
 28 32  2  0  0  0  0
 29 30  1  0  0  0  0
 30 28  1  0  0  0  0
 31 28  1  0  0  0  0
 31 35  1  1  0  0  0
 33 26  1  6  0  0  0
 33 31  1  0  0  0  0
 35 34  1  0  0  0  0
 36 37  1  0  0  0  0
M  END
>  <MODEL>
3

>  <REMARK>
 VINA RESULT:      -7.4      3.423      5.745
  Name = 
  8 active torsions:
  status: ('A' for Active; 'I' for Inactive)
    1  A    between atoms: S_4  and  C_16
    2  A    between atoms: S_4  and  C_28
    3  A    between atoms: C_5  and  C_23
    4  A    between atoms: C_6  and  C_31
    5  A    between atoms: C_20  and  C_32
    6  A    between atoms: C_21  and  C_32
    7  A    between atoms: C_27  and  C_33
    8  A    between atoms: C_29  and  C_36
                            x       y       z     vdW  Elec       q    Type
                         _______ _______ _______ _____ _____    ______ ____

>  <TORSDO>
F 8

$$$$
=
 OpenBabel10262423043D

 37 42  0  0  1  0  0  0  0  0999 V2000
  189.2980  176.6040  138.3440 C   0  0  0  0  0  2  0  0  0  0  0  0
  188.1770  178.4610  137.1380 C   0  0  0  0  0  2  0  0  0  0  0  0
  186.9000  178.3720  137.9610 C   0  0  2  0  0  3  0  0  0  0  0  0
  188.6420  177.5800  139.2940 C   0  0  2  0  0  0  0  0  0  0  0  0
  186.5890  178.3760  140.2710 C   0  0  0  0  0  1  0  0  0  0  0  0
  187.1790  177.6160  139.1770 N   0  0  0  0  0  0  0  0  0  0  0  0
  189.3210  178.1040  138.0580 C   0  0  1  0  0  3  0  0  0  0  0  0
  185.6020  177.5350  137.0020 S   0  0  0  0  0  0  0  0  0  0  0  0
  183.4900  177.1240  138.7390 C   0  0  0  0  0  3  0  0  0  0  0  0
  182.4700  177.5400  139.5980 C   0  0  0  0  0  3  0  0  0  0  0  0
  184.0900  179.4320  138.3330 C   0  0  0  0  0  3  0  0  0  0  0  0
  184.3030  178.0690  138.1090 C   0  0  0  0  0  0  0  0  0  0  0  0
  182.2480  178.9080  139.8350 C   0  0  0  0  0  0  0  0  0  0  0  0
  183.0690  179.8490  139.1920 C   0  0  0  0  0  3  0  0  0  0  0  0
  180.2900  180.3870  140.3590 C   0  0  0  0  0  3  0  0  0  0  0  0
  181.1600  179.3510  140.7390 C   0  0  0  0  0  0  0  0  0  0  0  0
  180.9800  178.7420  141.9930 C   0  0  0  0  0  3  0  0  0  0  0  0
  179.7450  178.3900  144.4030 Cl  0  0  0  0  0  0  0  0  0  0  0  0
  179.1000  180.1940  142.4560 C   0  0  0  0  0  3  0  0  0  0  0  0
  179.9550  179.1620  142.8470 C   0  0  0  0  0  0  0  0  0  0  0  0
  179.2660  180.8060  141.2130 C   0  0  0  0  0  3  0  0  0  0  0  0
  189.3550  177.6860  140.6430 C   0  0  0  0  0  2  0  0  0  0  0  0
  191.7510  177.6580  141.2670 C   0  0  0  0  0  2  0  0  0  0  0  0
  190.6260  176.8440  140.6570 C   0  0  1  0  0  3  0  0  0  0  0  0
  191.1740  176.4910  142.0490 C   0  0  2  0  0  3  0  0  0  0  0  0
  189.1300  175.9940  143.6240 C   0  0  0  0  0  2  0  0  0  0  0  0
  187.9230  176.8000  144.1220 C   0  0  1  0  0  3  0  0  0  0  0  0
  190.5810  177.1420  145.8580 C   0  0  0  0  0  0  0  0  0  0  0  0
  188.3150  177.9650  145.0320 C   0  0  0  0  0  2  0  0  0  0  0  0
  189.1600  177.5110  146.2150 C   0  0  0  0  0  2  0  0  0  0  0  0
  191.1940  177.3020  144.4800 C   0  0  1  0  0  3  0  0  0  0  0  0
  191.3690  176.7250  146.8450 C   0  0  0  0  0  2  0  0  0  0  0  0
  190.3210  176.8990  143.2750 C   0  0  1  0  0  3  0  0  0  0  0  0
  190.8570  179.6120  143.8970 O   0  0  0  0  0  1  0  0  0  0  0  0
  191.8200  178.6810  144.2940 C   0  0  0  0  0  2  0  0  0  0  0  0
  185.8570  178.0190  143.4350 C   0  0  0  0  0  1  0  0  0  0  0  0
  187.1220  177.3370  142.9470 C   0  0  0  0  0  2  0  0  0  0  0  0
  1  4  1  0  0  0  0
  2  3  1  0  0  0  0
  3  8  1  6  0  0  0
  3  6  1  0  0  0  0
  4 22  1  1  0  0  0
  6  4  1  0  0  0  0
  6  5  1  0  0  0  0
  7  2  1  6  0  0  0
  7  1  1  0  0  0  0
  7  4  1  0  0  0  0
  8 12  1  0  0  0  0
  9 10  1  0  0  0  0
 10 13  2  0  0  0  0
 11 14  2  0  0  0  0
 12 11  1  0  0  0  0
 12  9  2  0  0  0  0
 13 16  1  0  0  0  0
 14 13  1  0  0  0  0
 15 16  2  0  0  0  0
 15 21  1  0  0  0  0
 16 17  1  0  0  0  0
 17 20  2  0  0  0  0
 19 20  1  0  0  0  0
 20 18  1  0  0  0  0
 21 19  2  0  0  0  0
 24 22  1  1  0  0  0
 24 23  1  0  0  0  0
 24 25  1  0  0  0  0
 25 23  1  1  0  0  0
 25 33  1  0  0  0  0
 26 27  1  0  0  0  0
 27 37  1  6  0  0  0
 27 29  1  0  0  0  0
 28 30  1  0  0  0  0
 28 32  2  0  0  0  0
 29 30  1  0  0  0  0
 31 35  1  6  0  0  0
 31 28  1  0  0  0  0
 33 26  1  1  0  0  0
 33 31  1  0  0  0  0
 34 35  1  0  0  0  0
 37 36  1  0  0  0  0
M  END
>  <MODEL>
4

>  <REMARK>
 VINA RESULT:      -7.3      4.255      9.125
  Name = 
  8 active torsions:
  status: ('A' for Active; 'I' for Inactive)
    1  A    between atoms: S_4  and  C_16
    2  A    between atoms: S_4  and  C_28
    3  A    between atoms: C_5  and  C_23
    4  A    between atoms: C_6  and  C_31
    5  A    between atoms: C_20  and  C_32
    6  A    between atoms: C_21  and  C_32
    7  A    between atoms: C_27  and  C_33
    8  A    between atoms: C_29  and  C_36
                            x       y       z     vdW  Elec       q    Type
                         _______ _______ _______ _____ _____    ______ ____

>  <TORSDO>
F 8

$$$$
=
 OpenBabel10262423043D

 37 42  0  0  1  0  0  0  0  0999 V2000
  186.2890  177.7430  136.1760 C   0  0  0  0  0  2  0  0  0  0  0  0
  187.6720  176.3630  137.7070 C   0  0  0  0  0  2  0  0  0  0  0  0
  187.7310  177.4280  138.7920 C   0  0  2  0  0  3  0  0  0  0  0  0
  185.7610  177.7690  137.5920 C   0  0  2  0  0  0  0  0  0  0  0  0
  186.0220  178.6270  139.8290 C   0  0  0  0  0  1  0  0  0  0  0  0
  186.6770  178.4060  138.5460 N   0  0  0  0  0  0  0  0  0  0  0  0
  186.3200  176.4860  137.0420 C   0  0  1  0  0  3  0  0  0  0  0  0
  189.3520  178.2520  138.7620 S   0  0  0  0  0  0  0  0  0  0  0  0
  190.8980  177.3850  140.8840 C   0  0  0  0  0  3  0  0  0  0  0  0
  191.1410  177.1130  142.2330 C   0  0  0  0  0  3  0  0  0  0  0  0
  188.6750  178.1610  141.4430 C   0  0  0  0  0  3  0  0  0  0  0  0
  189.6670  177.9130  140.4890 C   0  0  0  0  0  0  0  0  0  0  0  0
  190.1550  177.3620  143.2030 C   0  0  0  0  0  0  0  0  0  0  0  0
  188.9190  177.8880  142.7920 C   0  0  0  0  0  3  0  0  0  0  0  0
  191.5980  176.4280  145.0310 C   0  0  0  0  0  3  0  0  0  0  0  0
  190.4090  177.0640  144.6320 C   0  0  0  0  0  0  0  0  0  0  0  0
  189.4660  177.4120  145.6140 C   0  0  0  0  0  3  0  0  0  0  0  0
  188.5210  177.5720  148.1710 Cl  0  0  0  0  0  0  0  0  0  0  0  0
  190.8900  176.4950  147.3430 C   0  0  0  0  0  3  0  0  0  0  0  0
  189.7050  177.1290  146.9620 C   0  0  0  0  0  0  0  0  0  0  0  0
  191.8360  176.1450  146.3790 C   0  0  0  0  0  3  0  0  0  0  0  0
  184.2440  177.9530  137.6710 C   0  0  0  0  0  2  0  0  0  0  0  0
  182.8350  175.9970  137.1090 C   0  0  0  0  0  2  0  0  0  0  0  0
  183.5440  177.2100  136.5400 C   0  0  1  0  0  3  0  0  0  0  0  0
  182.0090  177.1720  136.6180 C   0  0  2  0  0  3  0  0  0  0  0  0
  181.6670  177.6020  139.1890 C   0  0  0  0  0  2  0  0  0  0  0  0
  180.4510  177.7320  140.1140 C   0  0  1  0  0  3  0  0  0  0  0  0
  181.3350  180.4350  138.6640 C   0  0  0  0  0  0  0  0  0  0  0  0
  179.5990  178.9660  139.8150 C   0  0  0  0  0  2  0  0  0  0  0  0
  180.4170  180.2510  139.8490 C   0  0  0  0  0  2  0  0  0  0  0  0
  181.3880  179.5120  137.4620 C   0  0  1  0  0  3  0  0  0  0  0  0
  182.0870  181.5320  138.6390 C   0  0  0  0  0  2  0  0  0  0  0  0
  181.3330  177.9970  137.7420 C   0  0  1  0  0  3  0  0  0  0  0  0
  181.0630  180.3360  135.2250 O   0  0  0  0  0  1  0  0  0  0  0  0
  180.3940  179.9270  136.3820 C   0  0  0  0  0  2  0  0  0  0  0  0
  180.4330  175.2440  139.9260 C   0  0  0  0  0  1  0  0  0  0  0  0
  179.5760  176.4920  140.0180 C   0  0  0  0  0  2  0  0  0  0  0  0
  1  4  1  0  0  0  0
  2  3  1  0  0  0  0
  3  8  1  6  0  0  0
  4 22  1  1  0  0  0
  4  6  1  0  0  0  0
  6  3  1  0  0  0  0
  6  5  1  0  0  0  0
  7  1  1  6  0  0  0
  7  4  1  0  0  0  0
  7  2  1  0  0  0  0
  8 12  1  0  0  0  0
  9 10  1  0  0  0  0
 10 13  2  0  0  0  0
 11 14  2  0  0  0  0
 12  9  2  0  0  0  0
 12 11  1  0  0  0  0
 13 16  1  0  0  0  0
 14 13  1  0  0  0  0
 15 21  1  0  0  0  0
 16 15  2  0  0  0  0
 16 17  1  0  0  0  0
 17 20  2  0  0  0  0
 20 19  1  0  0  0  0
 20 18  1  0  0  0  0
 21 19  2  0  0  0  0
 24 25  1  0  0  0  0
 24 23  1  0  0  0  0
 24 22  1  1  0  0  0
 25 23  1  1  0  0  0
 25 33  1  0  0  0  0
 26 27  1  0  0  0  0
 27 37  1  6  0  0  0
 28 30  1  0  0  0  0
 29 30  1  0  0  0  0
 29 27  1  0  0  0  0
 31 35  1  6  0  0  0
 31 33  1  0  0  0  0
 31 28  1  0  0  0  0
 32 28  2  0  0  0  0
 33 26  1  1  0  0  0
 34 35  1  0  0  0  0
 36 37  1  0  0  0  0
M  END
>  <MODEL>
5

>  <REMARK>
 VINA RESULT:      -7.1      3.559      5.705
  Name = 
  8 active torsions:
  status: ('A' for Active; 'I' for Inactive)
    1  A    between atoms: S_4  and  C_16
    2  A    between atoms: S_4  and  C_28
    3  A    between atoms: C_5  and  C_23
    4  A    between atoms: C_6  and  C_31
    5  A    between atoms: C_20  and  C_32
    6  A    between atoms: C_21  and  C_32
    7  A    between atoms: C_27  and  C_33
    8  A    between atoms: C_29  and  C_36
                            x       y       z     vdW  Elec       q    Type
                         _______ _______ _______ _____ _____    ______ ____

>  <TORSDO>
F 8

$$$$
=
 OpenBabel10262423043D

 37 42  0  0  1  0  0  0  0  0999 V2000
  184.7440  179.7030  143.1560 C   0  0  0  0  0  2  0  0  0  0  0  0
  183.5060  178.2270  141.5910 C   0  0  0  0  0  2  0  0  0  0  0  0
  184.3480  178.6160  140.3840 C   0  0  2  0  0  3  0  0  0  0  0  0
  185.6770  178.9020  142.2790 C   0  0  2  0  0  0  0  0  0  0  0  0
  186.6600  178.6300  140.0950 C   0  0  0  0  0  1  0  0  0  0  0  0
  185.5780  179.2430  140.8540 N   0  0  0  0  0  0  0  0  0  0  0  0
  184.4210  178.2560  142.7940 C   0  0  1  0  0  3  0  0  0  0  0  0
  183.4250  179.7820  139.3370 S   0  0  0  0  0  0  0  0  0  0  0  0
  183.3440  177.2990  138.1240 C   0  0  0  0  0  3  0  0  0  0  0  0
  182.7370  176.2810  137.3850 C   0  0  0  0  0  3  0  0  0  0  0  0
  181.3370  178.6370  137.9300 C   0  0  0  0  0  3  0  0  0  0  0  0
  182.6440  178.4750  138.4000 C   0  0  0  0  0  0  0  0  0  0  0  0
  181.4220  176.4270  136.9100 C   0  0  0  0  0  0  0  0  0  0  0  0
  180.7300  177.6180  137.1900 C   0  0  0  0  0  3  0  0  0  0  0  0
  179.6150  175.6070  135.3750 C   0  0  0  0  0  3  0  0  0  0  0  0
  180.7810  175.3520  136.1180 C   0  0  0  0  0  0  0  0  0  0  0  0
  181.3270  174.0570  136.0970 C   0  0  0  0  0  3  0  0  0  0  0  0
  181.4160  171.4360  135.3350 Cl  0  0  0  0  0  0  0  0  0  0  0  0
  179.5610  173.3080  134.6200 C   0  0  0  0  0  3  0  0  0  0  0  0
  180.7200  173.0410  135.3520 C   0  0  0  0  0  0  0  0  0  0  0  0
  179.0090  174.5900  134.6310 C   0  0  0  0  0  3  0  0  0  0  0  0
  187.0150  178.5810  142.9480 C   0  0  0  0  0  2  0  0  0  0  0  0
  189.0240  177.2200  142.4570 C   0  0  0  0  0  2  0  0  0  0  0  0
  187.5100  177.1970  142.5440 C   0  0  1  0  0  3  0  0  0  0  0  0
  188.3600  176.4620  143.5930 C   0  0  2  0  0  3  0  0  0  0  0  0
  187.4690  176.7490  146.0490 C   0  0  0  0  0  2  0  0  0  0  0  0
  187.0920  177.9450  146.9330 C   0  0  1  0  0  3  0  0  0  0  0  0
  190.1860  177.1600  146.9780 C   0  0  0  0  0  0  0  0  0  0  0  0
  188.2870  178.8320  147.2840 C   0  0  0  0  0  2  0  0  0  0  0  0
  189.4170  178.0430  147.9330 C   0  0  0  0  0  2  0  0  0  0  0  0
  189.9680  177.1160  145.4780 C   0  0  1  0  0  3  0  0  0  0  0  0
  191.1790  176.4330  147.4840 C   0  0  0  0  0  2  0  0  0  0  0  0
  188.5080  177.1280  144.9830 C   0  0  1  0  0  3  0  0  0  0  0  0
  191.9290  177.5340  144.1480 O   0  0  0  0  0  1  0  0  0  0  0  0
  190.8260  178.1460  144.7490 C   0  0  0  0  0  2  0  0  0  0  0  0
  184.6440  178.2540  146.5590 C   0  0  0  0  0  1  0  0  0  0  0  0
  186.0290  178.7930  146.2530 C   0  0  0  0  0  2  0  0  0  0  0  0
  3  8  1  6  0  0  0
  3  6  1  0  0  0  0
  3  2  1  0  0  0  0
  4  7  1  0  0  0  0
  4 22  1  1  0  0  0
  4  1  1  0  0  0  0
  5  6  1  0  0  0  0
  6  4  1  0  0  0  0
  7  2  1  6  0  0  0
  7  1  1  0  0  0  0
  9 12  1  0  0  0  0
 10  9  2  0  0  0  0
 11 12  2  0  0  0  0
 12  8  1  0  0  0  0
 13 14  2  0  0  0  0
 13 10  1  0  0  0  0
 14 11  1  0  0  0  0
 15 16  1  0  0  0  0
 16 13  1  0  0  0  0
 17 16  2  0  0  0  0
 18 20  1  0  0  0  0
 19 21  1  0  0  0  0
 19 20  2  0  0  0  0
 20 17  1  0  0  0  0
 21 15  2  0  0  0  0
 23 24  1  0  0  0  0
 24 22  1  1  0  0  0
 24 25  1  0  0  0  0
 25 23  1  6  0  0  0
 25 33  1  0  0  0  0
 26 27  1  0  0  0  0
 27 37  1  6  0  0  0
 27 29  1  0  0  0  0
 28 32  2  0  0  0  0
 28 30  1  0  0  0  0
 29 30  1  0  0  0  0
 31 35  1  6  0  0  0
 31 28  1  0  0  0  0
 33 31  1  0  0  0  0
 33 26  1  1  0  0  0
 34 35  1  0  0  0  0
 37 36  1  0  0  0  0
M  END
>  <MODEL>
6

>  <REMARK>
 VINA RESULT:      -7.0      3.710     10.436
  Name = 
  8 active torsions:
  status: ('A' for Active; 'I' for Inactive)
    1  A    between atoms: S_4  and  C_16
    2  A    between atoms: S_4  and  C_28
    3  A    between atoms: C_5  and  C_23
    4  A    between atoms: C_6  and  C_31
    5  A    between atoms: C_20  and  C_32
    6  A    between atoms: C_21  and  C_32
    7  A    between atoms: C_27  and  C_33
    8  A    between atoms: C_29  and  C_36
                            x       y       z     vdW  Elec       q    Type
                         _______ _______ _______ _____ _____    ______ ____

>  <TORSDO>
F 8

$$$$
=
 OpenBabel10262423043D

 37 42  0  0  1  0  0  0  0  0999 V2000
  187.5690  177.0210  135.4780 C   0  0  0  0  0  2  0  0  0  0  0  0
  188.5670  175.8710  137.4380 C   0  0  0  0  0  2  0  0  0  0  0  0
  188.2730  177.0150  138.3980 C   0  0  2  0  0  3  0  0  0  0  0  0
  186.6800  177.1090  136.6970 C   0  0  2  0  0  0  0  0  0  0  0  0
  186.2820  178.1460  138.8350 C   0  0  0  0  0  1  0  0  0  0  0  0
  187.2690  177.8850  137.7950 N   0  0  0  0  0  0  0  0  0  0  0  0
  187.4390  175.8370  136.4320 C   0  0  1  0  0  3  0  0  0  0  0  0
  189.7920  177.9600  138.7180 S   0  0  0  0  0  0  0  0  0  0  0  0
  188.6080  178.3410  141.1870 C   0  0  0  0  0  3  0  0  0  0  0  0
  188.5120  178.1860  142.5720 C   0  0  0  0  0  3  0  0  0  0  0  0
  190.6310  177.0150  141.1790 C   0  0  0  0  0  3  0  0  0  0  0  0
  189.6650  177.7530  140.4900 C   0  0  0  0  0  0  0  0  0  0  0  0
  189.4740  177.4420  143.2780 C   0  0  0  0  0  0  0  0  0  0  0  0
  190.5350  176.8600  142.5650 C   0  0  0  0  0  3  0  0  0  0  0  0
  188.1470  177.4510  145.4070 C   0  0  0  0  0  3  0  0  0  0  0  0
  189.3780  177.2850  144.7480 C   0  0  0  0  0  0  0  0  0  0  0  0
  190.5160  176.9680  145.5100 C   0  0  0  0  0  3  0  0  0  0  0  0
  191.8520  176.4230  147.8280 Cl  0  0  0  0  0  0  0  0  0  0  0  0
  189.1960  176.9920  147.5390 C   0  0  0  0  0  3  0  0  0  0  0  0
  190.4250  176.8220  146.8970 C   0  0  0  0  0  0  0  0  0  0  0  0
  188.0580  177.3060  146.7950 C   0  0  0  0  0  3  0  0  0  0  0  0
  185.1900  177.1770  136.3580 C   0  0  0  0  0  2  0  0  0  0  0  0
  184.6000  175.2750  134.8860 C   0  0  0  0  0  2  0  0  0  0  0  0
  184.9370  176.7530  134.9160 C   0  0  1  0  0  3  0  0  0  0  0  0
  183.5060  176.2890  134.6000 C   0  0  2  0  0  3  0  0  0  0  0  0
  181.5500  177.6730  135.6800 C   0  0  0  0  0  2  0  0  0  0  0  0
  181.2490  178.2120  137.0840 C   0  0  1  0  0  3  0  0  0  0  0  0
  180.3030  175.2080  136.5630 C   0  0  0  0  0  0  0  0  0  0  0  0
  181.0070  177.1060  138.1110 C   0  0  0  0  0  2  0  0  0  0  0  0
  179.9050  176.1480  137.6750 C   0  0  0  0  0  2  0  0  0  0  0  0
  181.6980  175.1050  135.9780 C   0  0  1  0  0  3  0  0  0  0  0  0
  179.3820  174.3530  136.1260 C   0  0  0  0  0  2  0  0  0  0  0  0
  182.4480  176.4270  135.7220 C   0  0  1  0  0  3  0  0  0  0  0  0
  183.1470  174.6950  137.8540 O   0  0  0  0  0  1  0  0  0  0  0  0
  182.5600  174.0990  136.7360 C   0  0  0  0  0  2  0  0  0  0  0  0
  181.8510  180.2360  138.4130 C   0  0  0  0  0  1  0  0  0  0  0  0
  182.3880  179.0960  137.5680 C   0  0  0  0  0  2  0  0  0  0  0  0
  1  4  1  0  0  0  0
  2  3  1  0  0  0  0
  3  8  1  6  0  0  0
  4 22  1  6  0  0  0
  4  6  1  0  0  0  0
  6  3  1  0  0  0  0
  6  5  1  0  0  0  0
  7  1  1  6  0  0  0
  7  4  1  0  0  0  0
  7  2  1  0  0  0  0
  8 12  1  0  0  0  0
  9 10  1  0  0  0  0
 10 13  2  0  0  0  0
 11 14  2  0  0  0  0
 12 11  1  0  0  0  0
 12  9  2  0  0  0  0
 13 16  1  0  0  0  0
 14 13  1  0  0  0  0
 15 21  1  0  0  0  0
 16 15  2  0  0  0  0
 16 17  1  0  0  0  0
 17 20  2  0  0  0  0
 20 19  1  0  0  0  0
 20 18  1  0  0  0  0
 21 19  2  0  0  0  0
 23 24  1  0  0  0  0
 24 22  1  1  0  0  0
 25 23  1  1  0  0  0
 25 24  1  0  0  0  0
 25 33  1  0  0  0  0
 26 27  1  0  0  0  0
 27 37  1  1  0  0  0
 27 29  1  0  0  0  0
 28 30  1  0  0  0  0
 30 29  1  0  0  0  0
 31 28  1  0  0  0  0
 31 35  1  1  0  0  0
 32 28  2  0  0  0  0
 33 26  1  6  0  0  0
 33 31  1  0  0  0  0
 35 34  1  0  0  0  0
 37 36  1  0  0  0  0
M  END
>  <MODEL>
7

>  <REMARK>
 VINA RESULT:      -6.6      2.944      4.962
  Name = 
  8 active torsions:
  status: ('A' for Active; 'I' for Inactive)
    1  A    between atoms: S_4  and  C_16
    2  A    between atoms: S_4  and  C_28
    3  A    between atoms: C_5  and  C_23
    4  A    between atoms: C_6  and  C_31
    5  A    between atoms: C_20  and  C_32
    6  A    between atoms: C_21  and  C_32
    7  A    between atoms: C_27  and  C_33
    8  A    between atoms: C_29  and  C_36
                            x       y       z     vdW  Elec       q    Type
                         _______ _______ _______ _____ _____    ______ ____

>  <TORSDO>
F 8

$$$$
=
 OpenBabel10262423043D

 37 42  0  0  1  0  0  0  0  0999 V2000
  190.8730  176.4860  143.0460 C   0  0  0  0  0  2  0  0  0  0  0  0
  188.5060  175.9830  143.5970 C   0  0  0  0  0  2  0  0  0  0  0  0
  187.9890  177.3240  143.0950 C   0  0  2  0  0  3  0  0  0  0  0  0
  189.9410  176.8450  141.9120 C   0  0  2  0  0  0  0  0  0  0  0  0
  188.3130  178.3990  141.0520 C   0  0  0  0  0  1  0  0  0  0  0  0
  189.0080  177.9280  142.2430 N   0  0  0  0  0  0  0  0  0  0  0  0
  189.6730  175.6020  142.7160 C   0  0  1  0  0  3  0  0  0  0  0  0
  187.6380  178.4190  144.5030 S   0  0  0  0  0  0  0  0  0  0  0  0
  185.4490  178.2250  142.8250 C   0  0  0  0  0  3  0  0  0  0  0  0
  184.0890  178.3130  142.5190 C   0  0  0  0  0  3  0  0  0  0  0  0
  184.9820  178.9160  145.0960 C   0  0  0  0  0  3  0  0  0  0  0  0
  185.8960  178.5220  144.1150 C   0  0  0  0  0  0  0  0  0  0  0  0
  183.1580  178.7030  143.4980 C   0  0  0  0  0  0  0  0  0  0  0  0
  183.6210  179.0040  144.7890 C   0  0  0  0  0  3  0  0  0  0  0  0
  180.7440  178.7030  144.1800 C   0  0  0  0  0  3  0  0  0  0  0  0
  181.7170  178.8050  143.1710 C   0  0  0  0  0  0  0  0  0  0  0  0
  181.2960  179.0070  141.8450 C   0  0  0  0  0  3  0  0  0  0  0  0
  179.4320  179.3540  139.8800 Cl  0  0  0  0  0  0  0  0  0  0  0  0
  178.9810  178.9950  142.5490 C   0  0  0  0  0  3  0  0  0  0  0  0
  179.9360  179.1010  141.5360 C   0  0  0  0  0  0  0  0  0  0  0  0
  179.3840  178.7960  143.8710 C   0  0  0  0  0  3  0  0  0  0  0  0
  190.5890  176.7200  140.5310 C   0  0  0  0  0  2  0  0  0  0  0  0
  193.0560  176.9150  140.4640 C   0  0  0  0  0  2  0  0  0  0  0  0
  191.7550  177.6900  140.3850 C   0  0  1  0  0  3  0  0  0  0  0  0
  192.6240  177.5010  139.1320 C   0  0  2  0  0  3  0  0  0  0  0  0
  191.0370  176.8850  137.1290 C   0  0  0  0  0  2  0  0  0  0  0  0
  190.0640  175.7370  136.8300 C   0  0  1  0  0  3  0  0  0  0  0  0
  193.1030  175.1720  136.0280 C   0  0  0  0  0  0  0  0  0  0  0  0
  190.7630  174.3870  136.6650 C   0  0  0  0  0  2  0  0  0  0  0  0
  191.8570  174.4310  135.6050 C   0  0  0  0  0  2  0  0  0  0  0  0
  193.3410  175.7380  137.4150 C   0  0  1  0  0  3  0  0  0  0  0  0
  194.0920  175.2590  135.1440 C   0  0  0  0  0  2  0  0  0  0  0  0
  192.1550  176.4550  138.0910 C   0  0  1  0  0  3  0  0  0  0  0  0
  195.3280  175.0450  138.5820 O   0  0  0  0  0  1  0  0  0  0  0  0
  193.9920  174.7160  138.3420 C   0  0  0  0  0  2  0  0  0  0  0  0
  188.0200  176.7580  137.8310 C   0  0  0  0  0  1  0  0  0  0  0  0
  189.0220  175.6240  137.9310 C   0  0  0  0  0  2  0  0  0  0  0  0
  3  2  1  0  0  0  0
  3  8  1  1  0  0  0
  4 22  1  6  0  0  0
  4  6  1  0  0  0  0
  4  7  1  0  0  0  0
  4  1  1  0  0  0  0
  5  6  1  0  0  0  0
  6  3  1  0  0  0  0
  7  1  1  1  0  0  0
  7  2  1  0  0  0  0
  9 12  1  0  0  0  0
 10  9  2  0  0  0  0
 10 13  1  0  0  0  0
 12  8  1  0  0  0  0
 12 11  2  0  0  0  0
 13 14  2  0  0  0  0
 14 11  1  0  0  0  0
 16 13  1  0  0  0  0
 16 15  2  0  0  0  0
 17 16  1  0  0  0  0
 18 20  1  0  0  0  0
 19 21  2  0  0  0  0
 20 17  2  0  0  0  0
 20 19  1  0  0  0  0
 21 15  1  0  0  0  0
 24 23  1  0  0  0  0
 24 22  1  6  0  0  0
 25 24  1  0  0  0  0
 25 23  1  1  0  0  0
 27 26  1  0  0  0  0
 27 37  1  1  0  0  0
 28 31  1  0  0  0  0
 29 27  1  0  0  0  0
 30 28  1  0  0  0  0
 30 29  1  0  0  0  0
 31 33  1  0  0  0  0
 31 35  1  1  0  0  0
 32 28  2  0  0  0  0
 33 26  1  6  0  0  0
 33 25  1  0  0  0  0
 35 34  1  0  0  0  0
 36 37  1  0  0  0  0
M  END
>  <MODEL>
8

>  <REMARK>
 VINA RESULT:      -6.5      5.661      8.553
  Name = 
  8 active torsions:
  status: ('A' for Active; 'I' for Inactive)
    1  A    between atoms: S_4  and  C_16
    2  A    between atoms: S_4  and  C_28
    3  A    between atoms: C_5  and  C_23
    4  A    between atoms: C_6  and  C_31
    5  A    between atoms: C_20  and  C_32
    6  A    between atoms: C_21  and  C_32
    7  A    between atoms: C_27  and  C_33
    8  A    between atoms: C_29  and  C_36
                            x       y       z     vdW  Elec       q    Type
                         _______ _______ _______ _____ _____    ______ ____

>  <TORSDO>
F 8

$$$$
=
 OpenBabel10262423043D

 37 42  0  0  1  0  0  0  0  0999 V2000
  190.4020  177.4030  138.0310 C   0  0  0  0  0  2  0  0  0  0  0  0
  188.9500  178.4460  136.3090 C   0  0  0  0  0  2  0  0  0  0  0  0
  187.9830  177.2710  136.2550 C   0  0  2  0  0  3  0  0  0  0  0  0
  188.9380  177.2880  138.3830 C   0  0  2  0  0  0  0  0  0  0  0  0
  186.8420  176.1730  137.9650 C   0  0  0  0  0  1  0  0  0  0  0  0
  188.1750  176.4520  137.4470 N   0  0  0  0  0  0  0  0  0  0  0  0
  189.4380  178.5500  137.7350 C   0  0  1  0  0  3  0  0  0  0  0  0
  188.3030  176.2750  134.7670 S   0  0  0  0  0  0  0  0  0  0  0  0
  191.0410  176.0900  135.1010 C   0  0  0  0  0  3  0  0  0  0  0  0
  192.2090  175.5290  135.6250 C   0  0  0  0  0  3  0  0  0  0  0  0
  189.7170  174.4660  136.3100 C   0  0  0  0  0  3  0  0  0  0  0  0
  189.7960  175.5620  135.4460 C   0  0  0  0  0  0  0  0  0  0  0  0
  192.1440  174.4290  136.4980 C   0  0  0  0  0  0  0  0  0  0  0  0
  190.8850  173.9040  136.8340 C   0  0  0  0  0  3  0  0  0  0  0  0
  193.8430  172.5850  136.5780 C   0  0  0  0  0  3  0  0  0  0  0  0
  193.3820  173.8270  137.0470 C   0  0  0  0  0  0  0  0  0  0  0  0
  194.1170  174.4890  138.0460 C   0  0  0  0  0  3  0  0  0  0  0  0
  196.1870  174.7590  139.8060 Cl  0  0  0  0  0  0  0  0  0  0  0  0
  195.7290  172.6830  138.0910 C   0  0  0  0  0  3  0  0  0  0  0  0
  195.2840  173.9190  138.5650 C   0  0  0  0  0  0  0  0  0  0  0  0
  195.0090  172.0160  137.0990 C   0  0  0  0  0  3  0  0  0  0  0  0
  188.6750  177.2710  139.8900 C   0  0  0  0  0  2  0  0  0  0  0  0
  187.0430  178.3050  141.4390 C   0  0  0  0  0  2  0  0  0  0  0  0
  188.0610  178.5880  140.3520 C   0  0  1  0  0  3  0  0  0  0  0  0
  188.3510  178.9820  141.8090 C   0  0  2  0  0  3  0  0  0  0  0  0
  190.8090  178.5170  142.6160 C   0  0  0  0  0  2  0  0  0  0  0  0
  191.7570  177.3120  142.5670 C   0  0  1  0  0  3  0  0  0  0  0  0
  189.7780  177.3700  145.0730 C   0  0  0  0  0  0  0  0  0  0  0  0
  191.2760  176.1370  143.4200 C   0  0  0  0  0  2  0  0  0  0  0  0
  191.0240  176.5420  144.8670 C   0  0  0  0  0  2  0  0  0  0  0  0
  188.7710  177.6980  143.9870 C   0  0  1  0  0  3  0  0  0  0  0  0
  189.5070  177.7680  146.3120 C   0  0  0  0  0  2  0  0  0  0  0  0
  189.3330  178.0890  142.6060 C   0  0  1  0  0  3  0  0  0  0  0  0
  188.1220  175.5600  143.0930 O   0  0  0  0  0  1  0  0  0  0  0  0
  187.6860  176.6300  143.8780 C   0  0  0  0  0  2  0  0  0  0  0  0
  193.0580  177.6170  140.4610 C   0  0  0  0  0  1  0  0  0  0  0  0
  191.9430  176.8400  141.1340 C   0  0  0  0  0  2  0  0  0  0  0  0
  1  4  1  0  0  0  0
  3  8  1  6  0  0  0
  3  2  1  0  0  0  0
  3  6  1  0  0  0  0
  4 22  1  1  0  0  0
  6  5  1  0  0  0  0
  6  4  1  0  0  0  0
  7  2  1  6  0  0  0
  7  1  1  0  0  0  0
  7  4  1  0  0  0  0
  8 12  1  0  0  0  0
  9 12  2  0  0  0  0
  9 10  1  0  0  0  0
 10 13  2  0  0  0  0
 11 14  2  0  0  0  0
 12 11  1  0  0  0  0
 13 14  1  0  0  0  0
 13 16  1  0  0  0  0
 15 16  2  0  0  0  0
 15 21  1  0  0  0  0
 16 17  1  0  0  0  0
 17 20  2  0  0  0  0
 19 20  1  0  0  0  0
 20 18  1  0  0  0  0
 21 19  2  0  0  0  0
 24 22  1  1  0  0  0
 24 23  1  0  0  0  0
 24 25  1  0  0  0  0
 25 23  1  1  0  0  0
 25 33  1  0  0  0  0
 27 37  1  6  0  0  0
 27 26  1  0  0  0  0
 27 29  1  0  0  0  0
 28 32  2  0  0  0  0
 29 30  1  0  0  0  0
 30 28  1  0  0  0  0
 31 35  1  6  0  0  0
 31 28  1  0  0  0  0
 33 26  1  1  0  0  0
 33 31  1  0  0  0  0
 34 35  1  0  0  0  0
 36 37  1  0  0  0  0
M  END
>  <MODEL>
9

>  <REMARK>
 VINA RESULT:      -6.4      6.312     10.359
  Name = 
  8 active torsions:
  status: ('A' for Active; 'I' for Inactive)
    1  A    between atoms: S_4  and  C_16
    2  A    between atoms: S_4  and  C_28
    3  A    between atoms: C_5  and  C_23
    4  A    between atoms: C_6  and  C_31
    5  A    between atoms: C_20  and  C_32
    6  A    between atoms: C_21  and  C_32
    7  A    between atoms: C_27  and  C_33
    8  A    between atoms: C_29  and  C_36
                            x       y       z     vdW  Elec       q    Type
                         _______ _______ _______ _____ _____    ______ ____

>  <TORSDO>
F 8

$$$$
