=
 OpenBabel10262419543D

 25 27  0  0  1  0  0  0  0  0999 V2000
  184.3280  178.6510  142.4310 C   0  0  0  0  0  0  0  0  0  0  0  0
  185.2530  178.3800  143.4260 C   0  0  0  0  0  0  0  0  0  0  0  0
  182.8940  179.0920  143.1950 S   0  0  0  0  0  0  0  0  0  0  0  0
  183.4230  178.9750  144.7950 C   0  0  0  0  0  3  0  0  0  0  0  0
  185.5750  178.3360  145.8380 C   0  0  0  0  0  0  0  0  0  0  0  0
  185.0990  178.5190  147.1300 O   0  0  0  0  0  1  0  0  0  0  0  0
  186.5680  177.9560  143.2180 C   0  0  0  0  0  3  0  0  0  0  0  0
  186.8960  177.9120  145.6310 C   0  0  0  0  0  3  0  0  0  0  0  0
  187.3880  177.7160  144.3300 C   0  0  0  0  0  0  0  0  0  0  0  0
  184.7540  178.5670  144.7280 C   0  0  0  0  0  0  0  0  0  0  0  0
  184.5320  178.4770  140.9570 C   0  0  2  0  0  3  0  0  0  0  0  0
  185.1310  179.6090  140.4030 O   0  0  0  0  0  1  0  0  0  0  0  0
  183.2380  178.1770  140.2650 C   0  0  0  0  0  0  0  0  0  0  0  0
  181.1180  177.4970  138.4720 C   0  0  0  0  0  2  0  0  0  0  0  0
  182.8430  176.8950  140.1850 C   0  0  0  0  0  3  0  0  0  0  0  0
  181.5560  176.4820  139.5210 C   0  0  0  0  0  2  0  0  0  0  0  0
  181.0880  178.8780  139.1100 C   0  0  0  0  0  2  0  0  0  0  0  0
  182.4960  179.2830  139.5430 C   0  0  0  0  0  2  0  0  0  0  0  0
  188.7980  177.2880  144.1290 C   0  0  0  0  0  2  0  0  0  0  0  0
  189.4190  177.0220  145.4170 N   0  0  0  0  0  2  0  0  0  0  0  0
  190.8220  176.7880  145.5460 C   0  0  0  0  0  0  0  0  0  0  0  0
  191.5670  176.8080  144.5290 O   0  0  0  0  0  0  0  0  0  0  0  0
  191.3950  176.5260  146.8710 C   0  0  0  0  0  0  0  0  0  0  0  0
  192.4250  175.6050  147.0140 O   0  0  0  0  0  0  0  0  0  0  0  0
  190.9570  177.1330  147.8840 O   0  0  0  0  0  1  0  0  0  0  0  0
  1  3  1  0  0  0  0
  1  2  2  0  0  0  0
  2 10  1  0  0  0  0
  3  4  1  0  0  0  0
  5  6  1  0  0  0  0
  7  2  1  0  0  0  0
  7  9  2  0  0  0  0
  8  5  2  0  0  0  0
  9  8  1  0  0  0  0
 10  4  2  0  0  0  0
 10  5  1  0  0  0  0
 11 12  1  6  0  0  0
 11  1  1  0  0  0  0
 13 11  1  0  0  0  0
 14 17  1  0  0  0  0
 14 16  1  0  0  0  0
 15 13  2  0  0  0  0
 16 15  1  0  0  0  0
 17 18  1  0  0  0  0
 18 13  1  0  0  0  0
 19  9  1  0  0  0  0
 19 20  1  0  0  0  0
 20 21  1  0  0  0  0
 21 23  1  0  0  0  0
 22 21  2  0  0  0  0
 23 24  2  0  0  0  0
 23 25  1  0  0  0  0
M  END
>  <MODEL>
1

>  <REMARK>
 VINA RESULT:      -8.4      0.000      0.000
  Name = 
  5 active torsions:
  status: ('A' for Active; 'I' for Inactive)
    1  A    between atoms: C_1  and  C_18
    2  A    between atoms: C_2  and  C_21
    3  A    between atoms: C_5  and  C_18
    4  A    between atoms: C_6  and  N_15
    5  A    between atoms: C_6  and  C_23
                            x       y       z     vdW  Elec       q    Type
                         _______ _______ _______ _____ _____    ______ ____

>  <TORSDO>
F 5

$$$$
=
 OpenBabel10262419543D

 25 27  0  0  1  0  0  0  0  0999 V2000
  184.4770  178.6310  142.4950 C   0  0  0  0  0  0  0  0  0  0  0  0
  185.3200  178.3140  143.5470 C   0  0  0  0  0  0  0  0  0  0  0  0
  183.0220  179.1520  143.1650 S   0  0  0  0  0  0  0  0  0  0  0  0
  183.4400  179.0130  144.7960 C   0  0  0  0  0  3  0  0  0  0  0  0
  185.4840  178.2630  145.9750 C   0  0  0  0  0  0  0  0  0  0  0  0
  184.9370  178.4770  147.2330 O   0  0  0  0  0  1  0  0  0  0  0  0
  186.6200  177.8190  143.4240 C   0  0  0  0  0  3  0  0  0  0  0  0
  186.7900  177.7680  145.8530 C   0  0  0  0  0  3  0  0  0  0  0  0
  187.3540  177.5400  144.5860 C   0  0  0  0  0  0  0  0  0  0  0  0
  184.7490  178.5330  144.8150 C   0  0  0  0  0  0  0  0  0  0  0  0
  184.7640  178.4400  141.0370 C   0  0  2  0  0  3  0  0  0  0  0  0
  185.4830  179.5230  140.5290 O   0  0  0  0  0  1  0  0  0  0  0  0
  183.5010  178.2380  140.2590 C   0  0  0  0  0  0  0  0  0  0  0  0
  181.4590  177.6820  138.3380 C   0  0  0  0  0  2  0  0  0  0  0  0
  182.9750  177.0020  140.2110 C   0  0  0  0  0  3  0  0  0  0  0  0
  181.7040  176.6890  139.4670 C   0  0  0  0  0  2  0  0  0  0  0  0
  181.5300  179.0930  138.9030 C   0  0  0  0  0  2  0  0  0  0  0  0
  182.9380  179.3730  139.4270 C   0  0  0  0  0  2  0  0  0  0  0  0
  188.7480  177.0360  144.4760 C   0  0  0  0  0  2  0  0  0  0  0  0
  189.3140  177.4330  143.1970 N   0  0  0  0  0  2  0  0  0  0  0  0
  190.0620  176.5250  142.3860 C   0  0  0  0  0  0  0  0  0  0  0  0
  190.2500  175.3380  142.7680 O   0  0  0  0  0  0  0  0  0  0  0  0
  190.6090  176.9790  141.1040 C   0  0  0  0  0  0  0  0  0  0  0  0
  189.9020  176.7630  139.9280 O   0  0  0  0  0  0  0  0  0  0  0  0
  191.7220  177.5670  141.0610 O   0  0  0  0  0  1  0  0  0  0  0  0
  1  3  1  0  0  0  0
  1  2  2  0  0  0  0
  2 10  1  0  0  0  0
  3  4  1  0  0  0  0
  4 10  2  0  0  0  0
  5  6  1  0  0  0  0
  7  2  1  0  0  0  0
  7  9  2  0  0  0  0
  8  5  2  0  0  0  0
  9  8  1  0  0  0  0
 10  5  1  0  0  0  0
 11 12  1  6  0  0  0
 11  1  1  0  0  0  0
 13 11  1  0  0  0  0
 14 17  1  0  0  0  0
 14 16  1  0  0  0  0
 15 13  2  0  0  0  0
 16 15  1  0  0  0  0
 17 18  1  0  0  0  0
 18 13  1  0  0  0  0
 19  9  1  0  0  0  0
 20 19  1  0  0  0  0
 21 22  2  0  0  0  0
 21 20  1  0  0  0  0
 23 21  1  0  0  0  0
 24 23  2  0  0  0  0
 25 23  1  0  0  0  0
M  END
>  <MODEL>
2

>  <REMARK>
 VINA RESULT:      -8.3      1.843      2.559
  Name = 
  5 active torsions:
  status: ('A' for Active; 'I' for Inactive)
    1  A    between atoms: C_1  and  C_18
    2  A    between atoms: C_2  and  C_21
    3  A    between atoms: C_5  and  C_18
    4  A    between atoms: C_6  and  N_15
    5  A    between atoms: C_6  and  C_23
                            x       y       z     vdW  Elec       q    Type
                         _______ _______ _______ _____ _____    ______ ____

>  <TORSDO>
F 5

$$$$
=
 OpenBabel10262419543D

 25 27  0  0  1  0  0  0  0  0999 V2000
  188.9990  177.2020  146.9170 C   0  0  0  0  0  0  0  0  0  0  0  0
  187.9790  177.5520  146.0490 C   0  0  0  0  0  0  0  0  0  0  0  0
  188.5180  177.6700  148.4610 S   0  0  0  0  0  0  0  0  0  0  0  0
  187.0020  178.3000  148.0650 C   0  0  0  0  0  3  0  0  0  0  0  0
  185.7640  178.5550  145.9360 C   0  0  0  0  0  0  0  0  0  0  0  0
  184.6650  179.1440  146.5490 O   0  0  0  0  0  1  0  0  0  0  0  0
  187.9880  177.3590  144.6660 C   0  0  0  0  0  3  0  0  0  0  0  0
  185.7710  178.3590  144.5480 C   0  0  0  0  0  3  0  0  0  0  0  0
  186.8780  177.7710  143.9140 C   0  0  0  0  0  0  0  0  0  0  0  0
  186.8750  178.1510  146.6850 C   0  0  0  0  0  0  0  0  0  0  0  0
  190.3260  176.6180  146.5400 C   0  0  2  0  0  3  0  0  0  0  0  0
  191.2680  176.8390  147.5450 O   0  0  0  0  0  1  0  0  0  0  0  0
  190.8100  177.1740  145.2370 C   0  0  0  0  0  0  0  0  0  0  0  0
  191.1540  178.3140  142.6380 C   0  0  0  0  0  2  0  0  0  0  0  0
  190.9480  178.5060  145.1270 C   0  0  0  0  0  3  0  0  0  0  0  0
  191.4370  179.1700  143.8670 C   0  0  0  0  0  2  0  0  0  0  0  0
  191.7110  176.9180  142.8760 C   0  0  0  0  0  2  0  0  0  0  0  0
  190.9780  176.2570  144.0420 C   0  0  0  0  0  2  0  0  0  0  0  0
  186.8590  177.5510  142.4440 C   0  0  0  0  0  2  0  0  0  0  0  0
  185.6650  178.1540  141.8730 N   0  0  0  0  0  2  0  0  0  0  0  0
  185.6530  178.7080  140.5560 C   0  0  0  0  0  0  0  0  0  0  0  0
  186.6940  178.6860  139.8470 O   0  0  0  0  0  0  0  0  0  0  0  0
  184.4190  179.3020  140.0300 C   0  0  0  0  0  0  0  0  0  0  0  0
  183.1900  178.9490  140.5710 O   0  0  0  0  0  1  0  0  0  0  0  0
  184.4680  180.1360  139.0870 O   0  0  0  0  0  0  0  0  0  0  0  0
  1  3  1  0  0  0  0
  2 10  1  0  0  0  0
  2  1  2  0  0  0  0
  4  3  1  0  0  0  0
  5  6  1  0  0  0  0
  5 10  1  0  0  0  0
  7  2  1  0  0  0  0
  8  5  2  0  0  0  0
  9  8  1  0  0  0  0
  9  7  2  0  0  0  0
 10  4  2  0  0  0  0
 11  1  1  0  0  0  0
 11 12  1  1  0  0  0
 13 11  1  0  0  0  0
 14 17  1  0  0  0  0
 14 16  1  0  0  0  0
 15 13  2  0  0  0  0
 16 15  1  0  0  0  0
 17 18  1  0  0  0  0
 18 13  1  0  0  0  0
 19  9  1  0  0  0  0
 20 19  1  0  0  0  0
 21 20  1  0  0  0  0
 22 21  2  0  0  0  0
 23 21  1  0  0  0  0
 23 24  1  0  0  0  0
 25 23  2  0  0  0  0
M  END
>  <MODEL>
3

>  <REMARK>
 VINA RESULT:      -8.1      2.724      7.708
  Name = 
  5 active torsions:
  status: ('A' for Active; 'I' for Inactive)
    1  A    between atoms: C_1  and  C_18
    2  A    between atoms: C_2  and  C_21
    3  A    between atoms: C_5  and  C_18
    4  A    between atoms: C_6  and  N_15
    5  A    between atoms: C_6  and  C_23
                            x       y       z     vdW  Elec       q    Type
                         _______ _______ _______ _____ _____    ______ ____

>  <TORSDO>
F 5

$$$$
=
 OpenBabel10262419543D

 25 27  0  0  1  0  0  0  0  0999 V2000
  185.4360  178.4910  144.1120 C   0  0  0  0  0  0  0  0  0  0  0  0
  186.6200  178.0100  144.6470 C   0  0  0  0  0  0  0  0  0  0  0  0
  184.4280  178.8760  145.4040 S   0  0  0  0  0  0  0  0  0  0  0  0
  185.4770  178.4680  146.6640 C   0  0  0  0  0  3  0  0  0  0  0  0
  187.7760  177.5510  146.7390 C   0  0  0  0  0  0  0  0  0  0  0  0
  187.8160  177.5430  148.1280 O   0  0  0  0  0  1  0  0  0  0  0  0
  187.7180  177.5570  143.9130 C   0  0  0  0  0  3  0  0  0  0  0  0
  188.8790  177.0970  146.0030 C   0  0  0  0  0  3  0  0  0  0  0  0
  188.8490  177.0930  144.5990 C   0  0  0  0  0  0  0  0  0  0  0  0
  186.6430  178.0060  146.0540 C   0  0  0  0  0  0  0  0  0  0  0  0
  185.0790  178.5530  142.6580 C   0  0  2  0  0  3  0  0  0  0  0  0
  185.6730  179.6600  142.0490 O   0  0  0  0  0  1  0  0  0  0  0  0
  183.5940  178.5840  142.4680 C   0  0  0  0  0  0  0  0  0  0  0  0
  180.8620  179.1870  141.8810 C   0  0  0  0  0  2  0  0  0  0  0  0
  183.1010  178.2500  141.2630 C   0  0  0  0  0  3  0  0  0  0  0  0
  181.6250  178.2370  140.9650 C   0  0  0  0  0  2  0  0  0  0  0  0
  181.2200  178.8680  143.3250 C   0  0  0  0  0  2  0  0  0  0  0  0
  182.7050  179.1350  143.5640 C   0  0  0  0  0  2  0  0  0  0  0  0
  190.0380  176.6290  143.8350 C   0  0  0  0  0  2  0  0  0  0  0  0
  189.7060  176.5310  142.4220 N   0  0  0  0  0  2  0  0  0  0  0  0
  190.6000  176.9810  141.4020 C   0  0  0  0  0  0  0  0  0  0  0  0
  191.7150  177.4810  141.7090 O   0  0  0  0  0  0  0  0  0  0  0  0
  190.2140  176.8570  139.9930 C   0  0  0  0  0  0  0  0  0  0  0  0
  189.2870  177.7340  139.4440 O   0  0  0  0  0  1  0  0  0  0  0  0
  190.7200  175.9550  139.2730 O   0  0  0  0  0  0  0  0  0  0  0  0
  1  2  2  0  0  0  0
  1  3  1  0  0  0  0
  2 10  1  0  0  0  0
  3  4  1  0  0  0  0
  5  6  1  0  0  0  0
  7  9  2  0  0  0  0
  7  2  1  0  0  0  0
  8  5  2  0  0  0  0
  9  8  1  0  0  0  0
 10  4  2  0  0  0  0
 10  5  1  0  0  0  0
 11 12  1  1  0  0  0
 11  1  1  0  0  0  0
 13 11  1  0  0  0  0
 13 18  1  0  0  0  0
 14 17  1  0  0  0  0
 15 13  2  0  0  0  0
 16 15  1  0  0  0  0
 16 14  1  0  0  0  0
 17 18  1  0  0  0  0
 19  9  1  0  0  0  0
 20 19  1  0  0  0  0
 21 22  2  0  0  0  0
 21 20  1  0  0  0  0
 23 21  1  0  0  0  0
 24 23  1  0  0  0  0
 25 23  2  0  0  0  0
M  END
>  <MODEL>
4

>  <REMARK>
 VINA RESULT:      -7.8      2.457      3.766
  Name = 
  5 active torsions:
  status: ('A' for Active; 'I' for Inactive)
    1  A    between atoms: C_1  and  C_18
    2  A    between atoms: C_2  and  C_21
    3  A    between atoms: C_5  and  C_18
    4  A    between atoms: C_6  and  N_15
    5  A    between atoms: C_6  and  C_23
                            x       y       z     vdW  Elec       q    Type
                         _______ _______ _______ _____ _____    ______ ____

>  <TORSDO>
F 5

$$$$
=
 OpenBabel10262419543D

 25 27  0  0  1  0  0  0  0  0999 V2000
  186.9480  177.4790  144.0290 C   0  0  0  0  0  0  0  0  0  0  0  0
  185.7770  178.0080  143.5120 C   0  0  0  0  0  0  0  0  0  0  0  0
  186.8310  177.5600  145.7070 S   0  0  0  0  0  0  0  0  0  0  0  0
  185.2880  178.2400  145.8120 C   0  0  0  0  0  3  0  0  0  0  0  0
  183.6280  178.9700  144.1260 C   0  0  0  0  0  0  0  0  0  0  0  0
  182.7100  179.3790  145.0850 O   0  0  0  0  0  1  0  0  0  0  0  0
  185.4800  178.1470  142.1550 C   0  0  0  0  0  3  0  0  0  0  0  0
  183.3270  179.1090  142.7630 C   0  0  0  0  0  3  0  0  0  0  0  0
  184.2490  178.7070  141.7830 C   0  0  0  0  0  0  0  0  0  0  0  0
  184.8600  178.4190  144.4970 C   0  0  0  0  0  0  0  0  0  0  0  0
  188.1400  177.0230  143.2440 C   0  0  2  0  0  3  0  0  0  0  0  0
  188.2090  175.6300  143.2140 O   0  0  0  0  0  1  0  0  0  0  0  0
  189.4060  177.5990  143.8010 C   0  0  0  0  0  0  0  0  0  0  0  0
  192.0570  178.5190  144.3440 C   0  0  0  0  0  2  0  0  0  0  0  0
  189.7410  178.8530  143.4510 C   0  0  0  0  0  3  0  0  0  0  0  0
  190.9850  179.5320  143.9590 C   0  0  0  0  0  2  0  0  0  0  0  0
  191.4510  177.5060  145.3040 C   0  0  0  0  0  2  0  0  0  0  0  0
  190.3450  176.7200  144.6010 C   0  0  0  0  0  2  0  0  0  0  0  0
  183.9030  178.8410  140.3430 C   0  0  0  0  0  2  0  0  0  0  0  0
  185.1200  178.8950  139.5490 N   0  0  0  0  0  2  0  0  0  0  0  0
  185.2610  178.1630  138.3300 C   0  0  0  0  0  0  0  0  0  0  0  0
  184.3180  177.4410  137.9080 O   0  0  0  0  0  0  0  0  0  0  0  0
  186.5110  178.2550  137.5680 C   0  0  0  0  0  0  0  0  0  0  0  0
  187.6410  178.8160  138.1490 O   0  0  0  0  0  1  0  0  0  0  0  0
  186.5670  177.8270  136.3850 O   0  0  0  0  0  0  0  0  0  0  0  0
  1  3  1  0  0  0  0
  2  1  2  0  0  0  0
  2 10  1  0  0  0  0
  3  4  1  0  0  0  0
  5 10  1  0  0  0  0
  5  6  1  0  0  0  0
  7  2  1  0  0  0  0
  8  5  2  0  0  0  0
  9  7  2  0  0  0  0
  9  8  1  0  0  0  0
 10  4  2  0  0  0  0
 11 12  1  1  0  0  0
 11 13  1  0  0  0  0
 11  1  1  0  0  0  0
 13 18  1  0  0  0  0
 14 17  1  0  0  0  0
 15 13  2  0  0  0  0
 15 16  1  0  0  0  0
 16 14  1  0  0  0  0
 18 17  1  0  0  0  0
 19  9  1  0  0  0  0
 20 19  1  0  0  0  0
 21 20  1  0  0  0  0
 22 21  2  0  0  0  0
 23 24  1  0  0  0  0
 23 21  1  0  0  0  0
 25 23  2  0  0  0  0
M  END
>  <MODEL>
5

>  <REMARK>
 VINA RESULT:      -7.7      3.066      7.582
  Name = 
  5 active torsions:
  status: ('A' for Active; 'I' for Inactive)
    1  A    between atoms: C_1  and  C_18
    2  A    between atoms: C_2  and  C_21
    3  A    between atoms: C_5  and  C_18
    4  A    between atoms: C_6  and  N_15
    5  A    between atoms: C_6  and  C_23
                            x       y       z     vdW  Elec       q    Type
                         _______ _______ _______ _____ _____    ______ ____

>  <TORSDO>
F 5

$$$$
=
 OpenBabel10262419543D

 25 27  0  0  1  0  0  0  0  0999 V2000
  189.3970  177.0390  146.8360 C   0  0  0  0  0  0  0  0  0  0  0  0
  188.2590  177.5050  146.1970 C   0  0  0  0  0  0  0  0  0  0  0  0
  189.2930  177.5220  148.4460 S   0  0  0  0  0  0  0  0  0  0  0  0
  187.7980  178.3040  148.3710 C   0  0  0  0  0  3  0  0  0  0  0  0
  186.1800  178.7210  146.5440 C   0  0  0  0  0  0  0  0  0  0  0  0
  185.2950  179.4020  147.3710 O   0  0  0  0  0  1  0  0  0  0  0  0
  187.9640  177.3390  144.8420 C   0  0  0  0  0  3  0  0  0  0  0  0
  185.8810  178.5530  145.1840 C   0  0  0  0  0  3  0  0  0  0  0  0
  186.7710  177.8730  144.3360 C   0  0  0  0  0  0  0  0  0  0  0  0
  187.3750  178.1950  147.0470 C   0  0  0  0  0  0  0  0  0  0  0  0
  190.5520  176.3360  146.1930 C   0  0  2  0  0  3  0  0  0  0  0  0
  191.5850  176.1410  147.1110 O   0  0  0  0  0  1  0  0  0  0  0  0
  191.0480  177.0920  144.9990 C   0  0  0  0  0  0  0  0  0  0  0  0
  191.4150  178.6280  142.6170 C   0  0  0  0  0  2  0  0  0  0  0  0
  191.1830  178.4250  145.1020 C   0  0  0  0  0  3  0  0  0  0  0  0
  191.6820  179.2800  143.9680 C   0  0  0  0  0  2  0  0  0  0  0  0
  191.9740  177.2130  142.6370 C   0  0  0  0  0  2  0  0  0  0  0  0
  191.2320  176.3750  143.6770 C   0  0  0  0  0  2  0  0  0  0  0  0
  186.4270  177.6850  142.9010 C   0  0  0  0  0  2  0  0  0  0  0  0
  187.6420  177.4920  142.1260 N   0  0  0  0  0  2  0  0  0  0  0  0
  187.7790  177.9940  140.7960 C   0  0  0  0  0  0  0  0  0  0  0  0
  186.8330  178.6280  140.2550 O   0  0  0  0  0  0  0  0  0  0  0  0
  189.0280  177.7710  140.0610 C   0  0  0  0  0  0  0  0  0  0  0  0
  189.4330  178.6720  139.0840 O   0  0  0  0  0  0  0  0  0  0  0  0
  189.7410  176.7630  140.3110 O   0  0  0  0  0  1  0  0  0  0  0  0
  1  3  1  0  0  0  0
  2  1  2  0  0  0  0
  2 10  1  0  0  0  0
  4  3  1  0  0  0  0
  5 10  1  0  0  0  0
  5  6  1  0  0  0  0
  7  2  1  0  0  0  0
  8  5  2  0  0  0  0
  9  7  2  0  0  0  0
  9  8  1  0  0  0  0
 10  4  2  0  0  0  0
 11  1  1  0  0  0  0
 11 12  1  1  0  0  0
 13 15  2  0  0  0  0
 13 11  1  0  0  0  0
 14 17  1  0  0  0  0
 14 16  1  0  0  0  0
 16 15  1  0  0  0  0
 17 18  1  0  0  0  0
 18 13  1  0  0  0  0
 19  9  1  0  0  0  0
 20 19  1  0  0  0  0
 21 20  1  0  0  0  0
 22 21  2  0  0  0  0
 23 25  1  0  0  0  0
 23 21  1  0  0  0  0
 24 23  2  0  0  0  0
M  END
>  <MODEL>
6

>  <REMARK>
 VINA RESULT:      -7.5      3.608      7.267
  Name = 
  5 active torsions:
  status: ('A' for Active; 'I' for Inactive)
    1  A    between atoms: C_1  and  C_18
    2  A    between atoms: C_2  and  C_21
    3  A    between atoms: C_5  and  C_18
    4  A    between atoms: C_6  and  N_15
    5  A    between atoms: C_6  and  C_23
                            x       y       z     vdW  Elec       q    Type
                         _______ _______ _______ _____ _____    ______ ____

>  <TORSDO>
F 5

$$$$
=
 OpenBabel10262419543D

 25 27  0  0  1  0  0  0  0  0999 V2000
  189.8360  177.7150  142.9350 C   0  0  0  0  0  0  0  0  0  0  0  0
  189.6540  177.5320  144.2960 C   0  0  0  0  0  0  0  0  0  0  0  0
  191.4760  177.4990  142.6210 S   0  0  0  0  0  0  0  0  0  0  0  0
  191.9820  177.1430  144.1930 C   0  0  0  0  0  3  0  0  0  0  0  0
  190.8080  176.9890  146.3680 C   0  0  0  0  0  0  0  0  0  0  0  0
  191.9670  176.6660  147.0640 O   0  0  0  0  0  1  0  0  0  0  0  0
  188.4380  177.6450  144.9740 C   0  0  0  0  0  3  0  0  0  0  0  0
  189.5890  177.1000  147.0500 C   0  0  0  0  0  3  0  0  0  0  0  0
  188.4110  177.4340  146.3600 C   0  0  0  0  0  0  0  0  0  0  0  0
  190.8370  177.2080  144.9860 C   0  0  0  0  0  0  0  0  0  0  0  0
  188.7920  178.1360  141.9470 C   0  0  2  0  0  3  0  0  0  0  0  0
  187.5710  177.5190  142.2250 O   0  0  0  0  0  1  0  0  0  0  0  0
  189.2230  177.8380  140.5450 C   0  0  0  0  0  0  0  0  0  0  0  0
  189.5330  176.9670  137.8400 C   0  0  0  0  0  2  0  0  0  0  0  0
  188.7480  178.6140  139.5550 C   0  0  0  0  0  3  0  0  0  0  0  0
  189.1240  178.4090  138.1120 C   0  0  0  0  0  2  0  0  0  0  0  0
  190.6090  176.5670  138.8380 C   0  0  0  0  0  2  0  0  0  0  0  0
  190.0410  176.5960  140.2560 C   0  0  0  0  0  2  0  0  0  0  0  0
  187.1230  177.5260  147.0970 C   0  0  0  0  0  2  0  0  0  0  0  0
  186.0200  177.5940  146.1510 N   0  0  0  0  0  2  0  0  0  0  0  0
  185.2840  178.7980  145.9330 C   0  0  0  0  0  0  0  0  0  0  0  0
  185.5780  179.8480  146.5670 O   0  0  0  0  0  0  0  0  0  0  0  0
  184.1810  178.8100  144.9650 C   0  0  0  0  0  0  0  0  0  0  0  0
  184.4060  178.4300  143.6490 O   0  0  0  0  0  0  0  0  0  0  0  0
  183.0270  179.1640  145.3230 O   0  0  0  0  0  1  0  0  0  0  0  0
  1  2  2  0  0  0  0
  2  7  1  0  0  0  0
  2 10  1  0  0  0  0
  3  1  1  0  0  0  0
  3  4  1  0  0  0  0
  4 10  2  0  0  0  0
  5  8  2  0  0  0  0
  5  6  1  0  0  0  0
  7  9  2  0  0  0  0
  9  8  1  0  0  0  0
  9 19  1  0  0  0  0
 10  5  1  0  0  0  0
 11 12  1  1  0  0  0
 11  1  1  0  0  0  0
 13 11  1  0  0  0  0
 14 16  1  0  0  0  0
 14 17  1  0  0  0  0
 15 13  2  0  0  0  0
 16 15  1  0  0  0  0
 17 18  1  0  0  0  0
 18 13  1  0  0  0  0
 20 19  1  0  0  0  0
 21 20  1  0  0  0  0
 21 22  2  0  0  0  0
 23 25  1  0  0  0  0
 23 21  1  0  0  0  0
 24 23  2  0  0  0  0
M  END
>  <MODEL>
7

>  <REMARK>
 VINA RESULT:      -7.5      3.884      6.558
  Name = 
  5 active torsions:
  status: ('A' for Active; 'I' for Inactive)
    1  A    between atoms: C_1  and  C_18
    2  A    between atoms: C_2  and  C_21
    3  A    between atoms: C_5  and  C_18
    4  A    between atoms: C_6  and  N_15
    5  A    between atoms: C_6  and  C_23
                            x       y       z     vdW  Elec       q    Type
                         _______ _______ _______ _____ _____    ______ ____

>  <TORSDO>
F 5

$$$$
=
 OpenBabel10262419543D

 25 27  0  0  1  0  0  0  0  0999 V2000
  190.5230  178.3040  142.4980 C   0  0  0  0  0  0  0  0  0  0  0  0
  189.4310  178.1810  141.6550 C   0  0  0  0  0  0  0  0  0  0  0  0
  191.7930  177.4520  141.7920 S   0  0  0  0  0  0  0  0  0  0  0  0
  190.9940  176.9360  140.3950 C   0  0  0  0  0  3  0  0  0  0  0  0
  188.6890  177.2280  139.5420 C   0  0  0  0  0  0  0  0  0  0  0  0
  188.9340  176.4950  138.3880 O   0  0  0  0  0  1  0  0  0  0  0  0
  188.1650  178.7230  141.8830 C   0  0  0  0  0  3  0  0  0  0  0  0
  187.4170  177.7730  139.7700 C   0  0  0  0  0  3  0  0  0  0  0  0
  187.1530  178.5100  140.9360 C   0  0  0  0  0  0  0  0  0  0  0  0
  189.6950  177.4330  140.4920 C   0  0  0  0  0  0  0  0  0  0  0  0
  190.5410  178.9730  143.8380 C   0  0  2  0  0  3  0  0  0  0  0  0
  191.7060  179.7230  144.0010 O   0  0  0  0  0  1  0  0  0  0  0  0
  190.4030  177.9720  144.9440 C   0  0  0  0  0  0  0  0  0  0  0  0
  190.2420  176.5310  147.4070 C   0  0  0  0  0  2  0  0  0  0  0  0
  189.2080  177.8540  145.5490 C   0  0  0  0  0  3  0  0  0  0  0  0
  188.9570  176.8740  146.6630 C   0  0  0  0  0  2  0  0  0  0  0  0
  191.2890  176.0870  146.3970 C   0  0  0  0  0  2  0  0  0  0  0  0
  191.6280  177.2410  145.4560 C   0  0  0  0  0  2  0  0  0  0  0  0
  185.8050  179.1000  141.1500 C   0  0  0  0  0  2  0  0  0  0  0  0
  185.5980  179.3530  142.5670 N   0  0  0  0  0  2  0  0  0  0  0  0
  184.4330  178.8940  143.2550 C   0  0  0  0  0  0  0  0  0  0  0  0
  183.5420  178.2490  142.6390 O   0  0  0  0  0  0  0  0  0  0  0  0
  184.2770  179.1770  144.6860 C   0  0  0  0  0  0  0  0  0  0  0  0
  185.3950  179.4170  145.4740 O   0  0  0  0  0  1  0  0  0  0  0  0
  183.1300  179.2040  145.2070 O   0  0  0  0  0  0  0  0  0  0  0  0
  1 11  1  0  0  0  0
  2  7  1  0  0  0  0
  2  1  2  0  0  0  0
  3  1  1  0  0  0  0
  4 10  2  0  0  0  0
  4  3  1  0  0  0  0
  5  8  2  0  0  0  0
  5 10  1  0  0  0  0
  6  5  1  0  0  0  0
  8  9  1  0  0  0  0
  9 19  1  0  0  0  0
  9  7  2  0  0  0  0
 10  2  1  0  0  0  0
 11 12  1  1  0  0  0
 11 13  1  0  0  0  0
 13 18  1  0  0  0  0
 13 15  2  0  0  0  0
 15 16  1  0  0  0  0
 16 14  1  0  0  0  0
 17 14  1  0  0  0  0
 18 17  1  0  0  0  0
 19 20  1  0  0  0  0
 20 21  1  0  0  0  0
 21 23  1  0  0  0  0
 22 21  2  0  0  0  0
 23 25  2  0  0  0  0
 23 24  1  0  0  0  0
M  END
>  <MODEL>
8

>  <REMARK>
 VINA RESULT:      -7.4      3.647      8.095
  Name = 
  5 active torsions:
  status: ('A' for Active; 'I' for Inactive)
    1  A    between atoms: C_1  and  C_18
    2  A    between atoms: C_2  and  C_21
    3  A    between atoms: C_5  and  C_18
    4  A    between atoms: C_6  and  N_15
    5  A    between atoms: C_6  and  C_23
                            x       y       z     vdW  Elec       q    Type
                         _______ _______ _______ _____ _____    ______ ____

>  <TORSDO>
F 5

$$$$
=
 OpenBabel10262419543D

 25 27  0  0  1  0  0  0  0  0999 V2000
  187.0250  177.7610  144.5830 C   0  0  0  0  0  0  0  0  0  0  0  0
  185.9470  178.1630  143.8110 C   0  0  0  0  0  0  0  0  0  0  0  0
  186.5430  177.8550  146.1940 S   0  0  0  0  0  0  0  0  0  0  0  0
  184.9560  178.3800  145.9450 C   0  0  0  0  0  3  0  0  0  0  0  0
  183.6360  178.9160  143.9200 C   0  0  0  0  0  0  0  0  0  0  0  0
  182.4990  179.2460  144.6480 O   0  0  0  0  0  1  0  0  0  0  0  0
  185.9360  178.2520  142.4170 C   0  0  0  0  0  3  0  0  0  0  0  0
  183.6220  179.0040  142.5210 C   0  0  0  0  0  3  0  0  0  0  0  0
  184.7670  178.6810  141.7730 C   0  0  0  0  0  0  0  0  0  0  0  0
  184.8050  178.4960  144.5630 C   0  0  0  0  0  0  0  0  0  0  0  0
  188.3940  177.4140  144.0860 C   0  0  2  0  0  3  0  0  0  0  0  0
  188.3610  176.2550  143.3100 O   0  0  0  0  0  1  0  0  0  0  0  0
  189.3580  177.2570  145.2220 C   0  0  0  0  0  0  0  0  0  0  0  0
  191.0620  176.3760  147.3400 C   0  0  0  0  0  2  0  0  0  0  0  0
  190.6280  176.9220  144.9350 C   0  0  0  0  0  3  0  0  0  0  0  0
  191.6800  176.7480  145.9980 C   0  0  0  0  0  2  0  0  0  0  0  0
  189.9820  177.3920  147.6800 C   0  0  0  0  0  2  0  0  0  0  0  0
  188.8560  177.3180  146.6500 C   0  0  0  0  0  2  0  0  0  0  0  0
  184.7270  178.7580  140.2890 C   0  0  0  0  0  2  0  0  0  0  0  0
  186.0760  178.6510  139.7550 N   0  0  0  0  0  2  0  0  0  0  0  0
  186.3400  178.0680  138.4780 C   0  0  0  0  0  0  0  0  0  0  0  0
  185.3930  177.6260  137.7720 O   0  0  0  0  0  0  0  0  0  0  0  0
  187.7200  177.9870  137.9880 C   0  0  0  0  0  0  0  0  0  0  0  0
  188.2140  176.7880  137.4910 O   0  0  0  0  0  0  0  0  0  0  0  0
  188.4640  179.0030  138.0160 O   0  0  0  0  0  1  0  0  0  0  0  0
  1  3  1  0  0  0  0
  2 10  1  0  0  0  0
  2  1  2  0  0  0  0
  4  3  1  0  0  0  0
  5 10  1  0  0  0  0
  5  6  1  0  0  0  0
  7  2  1  0  0  0  0
  8  5  2  0  0  0  0
  9  7  2  0  0  0  0
  9  8  1  0  0  0  0
 10  4  2  0  0  0  0
 11 12  1  1  0  0  0
 11  1  1  0  0  0  0
 11 13  1  0  0  0  0
 13 18  1  0  0  0  0
 14 17  1  0  0  0  0
 15 13  2  0  0  0  0
 15 16  1  0  0  0  0
 16 14  1  0  0  0  0
 18 17  1  0  0  0  0
 19  9  1  0  0  0  0
 20 19  1  0  0  0  0
 21 20  1  0  0  0  0
 22 21  2  0  0  0  0
 23 25  1  0  0  0  0
 23 21  1  0  0  0  0
 24 23  2  0  0  0  0
M  END
>  <MODEL>
9

>  <REMARK>
 VINA RESULT:      -7.3      3.068      7.540
  Name = 
  5 active torsions:
  status: ('A' for Active; 'I' for Inactive)
    1  A    between atoms: C_1  and  C_18
    2  A    between atoms: C_2  and  C_21
    3  A    between atoms: C_5  and  C_18
    4  A    between atoms: C_6  and  N_15
    5  A    between atoms: C_6  and  C_23
                            x       y       z     vdW  Elec       q    Type
                         _______ _______ _______ _____ _____    ______ ____

>  <TORSDO>
F 5

$$$$
