=
 OpenBabel10262419523D

 25 28  0  0  1  0  0  0  0  0999 V2000
  187.2260  177.8910  145.6310 C   0  0  0  0  0  0  0  0  0  0  0  0
  188.4640  177.4300  145.1430 C   0  0  0  0  0  0  0  0  0  0  0  0
  188.0590  177.7780  147.9040 C   0  0  0  0  0  3  0  0  0  0  0  0
  186.0670  178.2300  144.9090 C   0  0  0  0  0  0  0  0  0  0  0  0
  190.4450  176.8260  142.0560 C   0  0  0  0  0  0  0  0  0  0  0  0
  183.6030  178.9950  143.8990 C   0  0  0  0  0  3  0  0  0  0  0  0
  189.2520  177.3320  147.4250 N   0  0  0  0  0  0  0  0  0  0  0  0
  185.0300  178.6480  145.7340 C   0  0  0  0  0  0  0  0  0  0  0  0
  183.8220  179.0230  145.2440 N   0  0  0  0  0  0  0  0  0  0  0  0
  190.8100  176.6780  145.6400 C   0  0  0  0  0  0  0  0  0  0  0  0
  192.0540  176.2720  146.8100 Cl  0  0  0  0  0  0  0  0  0  0  0  0
  190.7750  176.7480  140.7970 C   0  0  0  0  0  3  0  0  0  0  0  0
  188.6800  177.1860  143.6700 C   0  0  0  0  0  2  0  0  0  0  0  0
  184.6190  178.5800  143.0190 C   0  0  0  0  0  3  0  0  0  0  0  0
  187.0440  178.0600  147.0010 C   0  0  0  0  0  0  0  0  0  0  0  0
  185.4890  178.6170  147.3520 S   0  0  0  0  0  0  0  0  0  0  0  0
  191.1010  176.5780  144.3440 C   0  0  0  0  0  3  0  0  0  0  0  0
  185.8670  178.1930  143.5270 C   0  0  0  0  0  3  0  0  0  0  0  0
  190.1090  176.9050  143.3120 C   0  0  0  0  0  0  0  0  0  0  0  0
  189.4840  177.1500  146.0890 C   0  0  0  0  0  0  0  0  0  0  0  0
  190.0060  177.4960  139.7580 C   0  0  2  0  0  3  0  0  0  0  0  0
  188.5990  177.5600  140.1190 N   0  0  0  0  0  1  0  0  0  0  0  0
  190.1630  176.8420  138.4270 C   0  0  0  0  0  0  0  0  0  0  0  0
  190.4530  175.4850  138.3590 O   0  0  0  0  0  1  0  0  0  0  0  0
  190.0230  177.5040  137.3650 O   0  0  0  0  0  0  0  0  0  0  0  0
  1 15  1  0  0  0  0
  2  1  2  0  0  0  0
  2 20  1  0  0  0  0
  4  1  1  0  0  0  0
  4  8  1  0  0  0  0
  5 19  2  0  0  0  0
  6  9  1  0  0  0  0
  7  3  1  0  0  0  0
  8 16  1  0  0  0  0
  9  8  2  0  0  0  0
 10 20  1  0  0  0  0
 10 11  1  0  0  0  0
 12  5  2  0  0  0  0
 13  2  1  0  0  0  0
 14 18  1  0  0  0  0
 14  6  2  0  0  0  0
 15 16  1  0  0  0  0
 15  3  2  0  0  0  0
 17 10  2  0  0  0  0
 18  4  2  0  0  0  0
 19 13  1  0  0  0  0
 19 17  1  0  0  0  0
 20  7  2  0  0  0  0
 21 22  1  1  0  0  0
 21 12  1  0  0  0  0
 23 21  1  0  0  0  0
 24 23  1  0  0  0  0
 25 23  2  0  0  0  0
M  END
>  <MODEL>
1

>  <REMARK>
 VINA RESULT:     -10.3      0.000      0.000
  Name = 
  2 active torsions:
  status: ('A' for Active; 'I' for Inactive)
    1  A    between atoms: C_2  and  CA_21
    2  A    between atoms: C_15  and  CA_21
                            x       y       z     vdW  Elec       q    Type
                         _______ _______ _______ _____ _____    ______ ____

>  <TORSDO>
F 2

$$$$
=
 OpenBabel10262419523D

 25 28  0  0  1  0  0  0  0  0999 V2000
  189.2970  177.4730  143.9950 C   0  0  0  0  0  0  0  0  0  0  0  0
  188.2860  177.7860  144.9230 C   0  0  0  0  0  0  0  0  0  0  0  0
  190.8270  176.9610  145.8030 C   0  0  0  0  0  3  0  0  0  0  0  0
  189.2420  177.5110  142.5890 C   0  0  0  0  0  0  0  0  0  0  0  0
  184.6830  178.6300  145.2810 C   0  0  0  0  0  0  0  0  0  0  0  0
  189.5710  177.4430  139.8380 C   0  0  0  0  0  3  0  0  0  0  0  0
  189.8450  177.2660  146.6940 N   0  0  0  0  0  0  0  0  0  0  0  0
  190.4420  177.1340  141.9990 C   0  0  0  0  0  0  0  0  0  0  0  0
  190.6080  177.0990  140.6540 N   0  0  0  0  0  0  0  0  0  0  0  0
  187.5770  177.9700  147.3280 C   0  0  0  0  0  0  0  0  0  0  0  0
  187.9780  177.8880  149.0350 Cl  0  0  0  0  0  0  0  0  0  0  0  0
  183.4440  178.9020  144.9800 C   0  0  0  0  0  3  0  0  0  0  0  0
  186.9350  178.2820  144.4700 C   0  0  0  0  0  2  0  0  0  0  0  0
  188.3340  177.8320  140.3840 C   0  0  0  0  0  3  0  0  0  0  0  0
  190.5480  177.0640  144.4480 C   0  0  0  0  0  0  0  0  0  0  0  0
  191.5950  176.7460  143.1620 S   0  0  0  0  0  0  0  0  0  0  0  0
  186.3280  178.2770  146.9830 C   0  0  0  0  0  3  0  0  0  0  0  0
  188.1640  177.8670  141.7750 C   0  0  0  0  0  3  0  0  0  0  0  0
  185.9230  178.3590  145.5740 C   0  0  0  0  0  0  0  0  0  0  0  0
  188.5980  177.6710  146.3030 C   0  0  0  0  0  0  0  0  0  0  0  0
  182.8840  178.5390  143.6450 C   0  0  2  0  0  3  0  0  0  0  0  0
  183.6810  179.1350  142.5840 N   0  0  0  0  0  1  0  0  0  0  0  0
  181.4680  178.9920  143.5370 C   0  0  0  0  0  0  0  0  0  0  0  0
  180.4650  178.2680  144.1680 O   0  0  0  0  0  1  0  0  0  0  0  0
  181.1730  180.0330  142.8900 O   0  0  0  0  0  0  0  0  0  0  0  0
  1 15  1  0  0  0  0
  1  2  2  0  0  0  0
  2 20  1  0  0  0  0
  3  7  1  0  0  0  0
  4  1  1  0  0  0  0
  5 19  2  0  0  0  0
  6 14  2  0  0  0  0
  6  9  1  0  0  0  0
  8  4  1  0  0  0  0
  8 16  1  0  0  0  0
  9  8  2  0  0  0  0
 10 11  1  0  0  0  0
 12  5  2  0  0  0  0
 13  2  1  0  0  0  0
 13 19  1  0  0  0  0
 14 18  1  0  0  0  0
 15  3  2  0  0  0  0
 16 15  1  0  0  0  0
 17 10  2  0  0  0  0
 18  4  2  0  0  0  0
 19 17  1  0  0  0  0
 20  7  2  0  0  0  0
 20 10  1  0  0  0  0
 21 22  1  6  0  0  0
 21 12  1  0  0  0  0
 23 21  1  0  0  0  0
 23 24  1  0  0  0  0
 25 23  2  0  0  0  0
M  END
>  <MODEL>
2

>  <REMARK>
 VINA RESULT:      -9.9      3.847      6.336
  Name = 
  2 active torsions:
  status: ('A' for Active; 'I' for Inactive)
    1  A    between atoms: C_2  and  CA_21
    2  A    between atoms: C_15  and  CA_21
                            x       y       z     vdW  Elec       q    Type
                         _______ _______ _______ _____ _____    ______ ____

>  <TORSDO>
F 2

$$$$
=
 OpenBabel10262419523D

 25 28  0  0  1  0  0  0  0  0999 V2000
  187.7320  177.8080  145.7050 C   0  0  0  0  0  0  0  0  0  0  0  0
  186.9670  178.1640  144.5790 C   0  0  0  0  0  0  0  0  0  0  0  0
  185.8120  178.1550  147.1430 C   0  0  0  0  0  3  0  0  0  0  0  0
  189.0860  177.4290  145.7650 C   0  0  0  0  0  0  0  0  0  0  0  0
  186.9760  178.3340  140.8650 C   0  0  0  0  0  0  0  0  0  0  0  0
  191.6810  176.6410  146.3350 C   0  0  0  0  0  3  0  0  0  0  0  0
  185.0790  178.4990  146.0490 N   0  0  0  0  0  0  0  0  0  0  0  0
  189.5030  177.1470  147.0600 C   0  0  0  0  0  0  0  0  0  0  0  0
  190.7720  176.7620  147.3450 N   0  0  0  0  0  0  0  0  0  0  0  0
  184.7460  178.8850  143.6450 C   0  0  0  0  0  0  0  0  0  0  0  0
  183.0830  179.3780  143.9070 Cl  0  0  0  0  0  0  0  0  0  0  0  0
  187.3780  178.2540  139.6270 C   0  0  0  0  0  3  0  0  0  0  0  0
  187.5840  178.2270  143.2040 C   0  0  0  0  0  2  0  0  0  0  0  0
  191.3100  176.9140  145.0050 C   0  0  0  0  0  3  0  0  0  0  0  0
  187.1430  177.8060  146.9680 C   0  0  0  0  0  0  0  0  0  0  0  0
  188.2470  177.3500  148.1620 S   0  0  0  0  0  0  0  0  0  0  0  0
  185.2020  178.8220  142.3950 C   0  0  0  0  0  3  0  0  0  0  0  0
  189.9980  177.3120  144.7140 C   0  0  0  0  0  3  0  0  0  0  0  0
  186.5810  178.4140  142.1040 C   0  0  0  0  0  0  0  0  0  0  0  0
  185.6080  178.5160  144.7880 C   0  0  0  0  0  0  0  0  0  0  0  0
  188.5590  177.4180  139.2610 C   0  0  2  0  0  3  0  0  0  0  0  0
  189.4210  177.2260  140.4160 N   0  0  0  0  0  1  0  0  0  0  0  0
  189.3240  178.0610  138.1530 C   0  0  0  0  0  0  0  0  0  0  0  0
  189.0530  179.3780  137.8060 O   0  0  0  0  0  1  0  0  0  0  0  0
  190.2220  177.4260  137.5390 O   0  0  0  0  0  0  0  0  0  0  0  0
  1  4  1  0  0  0  0
  1 15  2  0  0  0  0
  2 20  2  0  0  0  0
  2  1  1  0  0  0  0
  4  8  1  0  0  0  0
  5 19  2  0  0  0  0
  6  9  1  0  0  0  0
  7  3  2  0  0  0  0
  8  9  2  0  0  0  0
  8 16  1  0  0  0  0
 10 11  1  0  0  0  0
 10 20  1  0  0  0  0
 12  5  2  0  0  0  0
 13  2  1  0  0  0  0
 14  6  2  0  0  0  0
 15  3  1  0  0  0  0
 15 16  1  0  0  0  0
 17 10  2  0  0  0  0
 18 14  1  0  0  0  0
 18  4  2  0  0  0  0
 19 17  1  0  0  0  0
 19 13  1  0  0  0  0
 20  7  1  0  0  0  0
 21 12  1  0  0  0  0
 21 22  1  1  0  0  0
 23 21  1  0  0  0  0
 24 23  1  0  0  0  0
 25 23  2  0  0  0  0
M  END
>  <MODEL>
3

>  <REMARK>
 VINA RESULT:      -9.8      2.483      4.726
  Name = 
  2 active torsions:
  status: ('A' for Active; 'I' for Inactive)
    1  A    between atoms: C_2  and  CA_21
    2  A    between atoms: C_15  and  CA_21
                            x       y       z     vdW  Elec       q    Type
                         _______ _______ _______ _____ _____    ______ ____

>  <TORSDO>
F 2

$$$$
=
 OpenBabel10262419523D

 25 28  0  0  1  0  0  0  0  0999 V2000
  188.5260  177.6050  143.1720 C   0  0  0  0  0  0  0  0  0  0  0  0
  187.1970  177.9260  143.5050 C   0  0  0  0  0  0  0  0  0  0  0  0
  189.0590  177.2950  145.5150 C   0  0  0  0  0  3  0  0  0  0  0  0
  189.1240  177.5460  141.8990 C   0  0  0  0  0  0  0  0  0  0  0  0
  183.8220  178.6060  142.1010 C   0  0  0  0  0  0  0  0  0  0  0  0
  190.6840  177.3090  139.6210 C   0  0  0  0  0  3  0  0  0  0  0  0
  187.7720  177.6080  145.8300 N   0  0  0  0  0  0  0  0  0  0  0  0
  190.4670  177.1920  141.9580 C   0  0  0  0  0  0  0  0  0  0  0  0
  191.2350  177.0760  140.8470 N   0  0  0  0  0  0  0  0  0  0  0  0
  185.4570  178.2340  145.2930 C   0  0  0  0  0  0  0  0  0  0  0  0
  185.0280  178.2880  146.9940 Cl  0  0  0  0  0  0  0  0  0  0  0  0
  182.8560  178.7920  141.2450 C   0  0  0  0  0  3  0  0  0  0  0  0
  186.1990  178.3200  142.4440 C   0  0  0  0  0  2  0  0  0  0  0  0
  189.3290  177.6700  139.5050 C   0  0  0  0  0  3  0  0  0  0  0  0
  189.4340  177.2920  144.1800 C   0  0  0  0  0  0  0  0  0  0  0  0
  190.9610  176.9430  143.5480 S   0  0  0  0  0  0  0  0  0  0  0  0
  184.5030  178.4530  144.3900 C   0  0  0  0  0  3  0  0  0  0  0  0
  188.5370  177.7900  140.6560 C   0  0  0  0  0  3  0  0  0  0  0  0
  184.7910  178.4190  142.9510 C   0  0  0  0  0  0  0  0  0  0  0  0
  186.8400  177.9210  144.8790 C   0  0  0  0  0  0  0  0  0  0  0  0
  182.9810  178.3120  139.8370 C   0  0  2  0  0  3  0  0  0  0  0  0
  183.0450  176.8590  139.8030 N   0  0  0  0  0  1  0  0  0  0  0  0
  184.1970  178.8930  139.1980 C   0  0  0  0  0  0  0  0  0  0  0  0
  184.3190  180.2710  139.0830 O   0  0  0  0  0  1  0  0  0  0  0  0
  185.1190  178.1470  138.7740 O   0  0  0  0  0  0  0  0  0  0  0  0
  1  2  2  0  0  0  0
  1 15  1  0  0  0  0
  2 20  1  0  0  0  0
  3  7  1  0  0  0  0
  4  8  1  0  0  0  0
  4  1  1  0  0  0  0
  5 19  2  0  0  0  0
  6  9  1  0  0  0  0
  8 16  1  0  0  0  0
  9  8  2  0  0  0  0
 10 11  1  0  0  0  0
 12  5  2  0  0  0  0
 13 19  1  0  0  0  0
 13  2  1  0  0  0  0
 14  6  2  0  0  0  0
 14 18  1  0  0  0  0
 15  3  2  0  0  0  0
 16 15  1  0  0  0  0
 17 10  2  0  0  0  0
 18  4  2  0  0  0  0
 19 17  1  0  0  0  0
 20 10  1  0  0  0  0
 20  7  2  0  0  0  0
 21 22  1  1  0  0  0
 21 12  1  0  0  0  0
 23 21  1  0  0  0  0
 24 23  1  0  0  0  0
 25 23  2  0  0  0  0
M  END
>  <MODEL>
4

>  <REMARK>
 VINA RESULT:      -9.5      3.249      5.846
  Name = 
  2 active torsions:
  status: ('A' for Active; 'I' for Inactive)
    1  A    between atoms: C_2  and  CA_21
    2  A    between atoms: C_15  and  CA_21
                            x       y       z     vdW  Elec       q    Type
                         _______ _______ _______ _____ _____    ______ ____

>  <TORSDO>
F 2

$$$$
=
 OpenBabel10262419523D

 25 28  0  0  1  0  0  0  0  0999 V2000
  185.9240  178.4040  141.9270 C   0  0  0  0  0  0  0  0  0  0  0  0
  186.3350  178.1540  143.2500 C   0  0  0  0  0  0  0  0  0  0  0  0
  183.7060  178.9920  142.7060 C   0  0  0  0  0  3  0  0  0  0  0  0
  186.6700  178.2930  140.7390 C   0  0  0  0  0  0  0  0  0  0  0  0
  189.2710  177.3770  145.3940 C   0  0  0  0  0  0  0  0  0  0  0  0
  187.7520  178.2120  138.1890 C   0  0  0  0  0  3  0  0  0  0  0  0
  184.1100  178.7470  143.9830 N   0  0  0  0  0  0  0  0  0  0  0  0
  185.9270  178.6230  139.6120 C   0  0  0  0  0  0  0  0  0  0  0  0
  186.4520  178.5840  138.3620 N   0  0  0  0  0  0  0  0  0  0  0  0
  185.7530  178.1070  145.6960 C   0  0  0  0  0  0  0  0  0  0  0  0
  184.5580  178.2740  146.9700 Cl  0  0  0  0  0  0  0  0  0  0  0  0
  190.4910  177.1050  145.7640 C   0  0  0  0  0  3  0  0  0  0  0  0
  187.7250  177.6530  143.5550 C   0  0  0  0  0  2  0  0  0  0  0  0
  188.5490  177.8680  139.2970 C   0  0  0  0  0  3  0  0  0  0  0  0
  184.6190  178.8210  141.6760 C   0  0  0  0  0  0  0  0  0  0  0  0
  184.3550  179.0570  140.0250 S   0  0  0  0  0  0  0  0  0  0  0  0
  187.0030  177.7980  146.0330 C   0  0  0  0  0  3  0  0  0  0  0  0
  188.0040  177.9080  140.5880 C   0  0  0  0  0  3  0  0  0  0  0  0
  188.0530  177.6470  145.0190 C   0  0  0  0  0  0  0  0  0  0  0  0
  185.3800  178.3380  144.2840 C   0  0  0  0  0  0  0  0  0  0  0  0
  191.6460  177.4050  144.8660 C   0  0  2  0  0  3  0  0  0  0  0  0
  191.5450  178.7600  144.3480 N   0  0  0  0  0  1  0  0  0  0  0  0
  191.6910  176.4280  143.7390 C   0  0  0  0  0  0  0  0  0  0  0  0
  191.3980  176.8540  142.4510 O   0  0  0  0  0  0  0  0  0  0  0  0
  192.0050  175.2260  143.9430 O   0  0  0  0  0  1  0  0  0  0  0  0
  1  2  2  0  0  0  0
  2 13  1  0  0  0  0
  2 20  1  0  0  0  0
  3  7  1  0  0  0  0
  4  1  1  0  0  0  0
  5 12  2  0  0  0  0
  6  9  2  0  0  0  0
  6 14  1  0  0  0  0
  7 20  2  0  0  0  0
  8 16  1  0  0  0  0
  8  4  2  0  0  0  0
  9  8  1  0  0  0  0
 10 17  2  0  0  0  0
 10 11  1  0  0  0  0
 13 19  1  0  0  0  0
 14 18  2  0  0  0  0
 15  1  1  0  0  0  0
 15  3  2  0  0  0  0
 16 15  1  0  0  0  0
 18  4  1  0  0  0  0
 19  5  2  0  0  0  0
 19 17  1  0  0  0  0
 20 10  1  0  0  0  0
 21 22  1  6  0  0  0
 21 12  1  0  0  0  0
 23 25  1  0  0  0  0
 23 21  1  0  0  0  0
 24 23  2  0  0  0  0
M  END
>  <MODEL>
5

>  <REMARK>
 VINA RESULT:      -9.5      3.128      5.450
  Name = 
  2 active torsions:
  status: ('A' for Active; 'I' for Inactive)
    1  A    between atoms: C_2  and  CA_21
    2  A    between atoms: C_15  and  CA_21
                            x       y       z     vdW  Elec       q    Type
                         _______ _______ _______ _____ _____    ______ ____

>  <TORSDO>
F 2

$$$$
=
 OpenBabel10262419523D

 25 28  0  0  1  0  0  0  0  0999 V2000
  185.6980  178.2520  144.4850 C   0  0  0  0  0  0  0  0  0  0  0  0
  187.0520  177.8780  144.5750 C   0  0  0  0  0  0  0  0  0  0  0  0
  185.6050  178.5620  146.8870 C   0  0  0  0  0  3  0  0  0  0  0  0
  184.8850  178.3460  143.3400 C   0  0  0  0  0  0  0  0  0  0  0  0
  190.0920  177.0830  142.5890 C   0  0  0  0  0  0  0  0  0  0  0  0
  182.9540  178.6610  141.3790 C   0  0  0  0  0  3  0  0  0  0  0  0
  186.9140  178.1970  146.9660 N   0  0  0  0  0  0  0  0  0  0  0  0
  183.5890  178.7500  143.6400 C   0  0  0  0  0  0  0  0  0  0  0  0
  182.6410  178.9050  142.6830 N   0  0  0  0  0  0  0  0  0  0  0  0
  189.0700  177.4880  146.0230 C   0  0  0  0  0  0  0  0  0  0  0  0
  189.7930  177.4030  147.6190 Cl  0  0  0  0  0  0  0  0  0  0  0  0
  190.8820  176.8670  141.5740 C   0  0  0  0  0  3  0  0  0  0  0  0
  187.8280  177.4560  143.3520 C   0  0  0  0  0  2  0  0  0  0  0  0
  184.2510  178.2500  141.0210 C   0  0  0  0  0  3  0  0  0  0  0  0
  184.9970  178.5900  145.6410 C   0  0  0  0  0  0  0  0  0  0  0  0
  183.3970  179.0030  145.2920 S   0  0  0  0  0  0  0  0  0  0  0  0
  189.8380  177.2410  144.9630 C   0  0  0  0  0  3  0  0  0  0  0  0
  185.2300  178.0900  142.0120 C   0  0  0  0  0  3  0  0  0  0  0  0
  189.2990  177.2980  143.5990 C   0  0  0  0  0  0  0  0  0  0  0  0
  187.6480  177.8570  145.8630 C   0  0  0  0  0  0  0  0  0  0  0  0
  190.5270  177.3650  140.2120 C   0  0  2  0  0  3  0  0  0  0  0  0
  189.0850  177.3420  140.0250 N   0  0  0  0  0  1  0  0  0  0  0  0
  191.1910  176.5310  139.1680 C   0  0  0  0  0  0  0  0  0  0  0  0
  192.5260  176.7550  138.8570 O   0  0  0  0  0  1  0  0  0  0  0  0
  190.5570  175.6180  138.5750 O   0  0  0  0  0  0  0  0  0  0  0  0
  1  2  2  0  0  0  0
  1 15  1  0  0  0  0
  2 20  1  0  0  0  0
  3  7  1  0  0  0  0
  4  8  1  0  0  0  0
  4  1  1  0  0  0  0
  5 19  2  0  0  0  0
  6  9  1  0  0  0  0
  8 16  1  0  0  0  0
  9  8  2  0  0  0  0
 10 11  1  0  0  0  0
 12  5  2  0  0  0  0
 13 19  1  0  0  0  0
 13  2  1  0  0  0  0
 14  6  2  0  0  0  0
 14 18  1  0  0  0  0
 15  3  2  0  0  0  0
 16 15  1  0  0  0  0
 17 10  2  0  0  0  0
 18  4  2  0  0  0  0
 19 17  1  0  0  0  0
 20 10  1  0  0  0  0
 20  7  2  0  0  0  0
 21 22  1  6  0  0  0
 21 12  1  0  0  0  0
 23 21  1  0  0  0  0
 24 23  1  0  0  0  0
 25 23  2  0  0  0  0
M  END
>  <MODEL>
6

>  <REMARK>
 VINA RESULT:      -9.5      1.522      2.017
  Name = 
  2 active torsions:
  status: ('A' for Active; 'I' for Inactive)
    1  A    between atoms: C_2  and  CA_21
    2  A    between atoms: C_15  and  CA_21
                            x       y       z     vdW  Elec       q    Type
                         _______ _______ _______ _____ _____    ______ ____

>  <TORSDO>
F 2

$$$$
=
 OpenBabel10262419523D

 25 28  0  0  1  0  0  0  0  0999 V2000
  187.2710  178.0780  142.0250 C   0  0  0  0  0  0  0  0  0  0  0  0
  187.1600  177.9380  143.4210 C   0  0  0  0  0  0  0  0  0  0  0  0
  184.9840  178.8700  141.9040 C   0  0  0  0  0  3  0  0  0  0  0  0
  188.3760  177.8040  141.1980 C   0  0  0  0  0  0  0  0  0  0  0  0
  189.0590  177.2070  146.5320 C   0  0  0  0  0  0  0  0  0  0  0  0
  190.2810  177.4040  139.2250 C   0  0  0  0  0  3  0  0  0  0  0  0
  184.8840  178.7310  143.2540 N   0  0  0  0  0  0  0  0  0  0  0  0
  188.1150  178.0630  139.8580 C   0  0  0  0  0  0  0  0  0  0  0  0
  189.0440  177.8680  138.8890 N   0  0  0  0  0  0  0  0  0  0  0  0
  185.7460  178.1700  145.4860 C   0  0  0  0  0  0  0  0  0  0  0  0
  184.1970  178.5340  146.2270 Cl  0  0  0  0  0  0  0  0  0  0  0  0
  190.0390  176.9030  147.3370 C   0  0  0  0  0  3  0  0  0  0  0  0
  188.3000  177.3880  144.2430 C   0  0  0  0  0  2  0  0  0  0  0  0
  190.5970  177.1260  140.5680 C   0  0  0  0  0  3  0  0  0  0  0  0
  186.1830  178.5430  141.2890 C   0  0  0  0  0  0  0  0  0  0  0  0
  186.5450  178.6280  139.6420 S   0  0  0  0  0  0  0  0  0  0  0  0
  186.7610  177.8240  146.2750 C   0  0  0  0  0  3  0  0  0  0  0  0
  189.6360  177.3280  141.5680 C   0  0  0  0  0  3  0  0  0  0  0  0
  188.0850  177.5100  145.7230 C   0  0  0  0  0  0  0  0  0  0  0  0
  185.9210  178.2800  144.0230 C   0  0  0  0  0  0  0  0  0  0  0  0
  191.4590  177.0420  146.8990 C   0  0  2  0  0  3  0  0  0  0  0  0
  191.5230  177.3170  145.4720 N   0  0  0  0  0  1  0  0  0  0  0  0
  192.2220  175.7990  147.2140 C   0  0  0  0  0  0  0  0  0  0  0  0
  192.8050  175.6520  148.4660 O   0  0  0  0  0  1  0  0  0  0  0  0
  192.3310  174.8780  146.3620 O   0  0  0  0  0  0  0  0  0  0  0  0
  1  2  2  0  0  0  0
  2 20  1  0  0  0  0
  2 13  1  0  0  0  0
  3  7  1  0  0  0  0
  4 18  1  0  0  0  0
  4  1  1  0  0  0  0
  5 12  2  0  0  0  0
  6 14  1  0  0  0  0
  7 20  2  0  0  0  0
  8  4  2  0  0  0  0
  9  6  2  0  0  0  0
  9  8  1  0  0  0  0
 10 11  1  0  0  0  0
 10 17  2  0  0  0  0
 13 19  1  0  0  0  0
 14 18  2  0  0  0  0
 15  3  2  0  0  0  0
 15  1  1  0  0  0  0
 16  8  1  0  0  0  0
 16 15  1  0  0  0  0
 19 17  1  0  0  0  0
 19  5  2  0  0  0  0
 20 10  1  0  0  0  0
 21 22  1  6  0  0  0
 21 23  1  0  0  0  0
 21 12  1  0  0  0  0
 23 24  1  0  0  0  0
 25 23  2  0  0  0  0
M  END
>  <MODEL>
7

>  <REMARK>
 VINA RESULT:      -9.4      3.766      6.478
  Name = 
  2 active torsions:
  status: ('A' for Active; 'I' for Inactive)
    1  A    between atoms: C_2  and  CA_21
    2  A    between atoms: C_15  and  CA_21
                            x       y       z     vdW  Elec       q    Type
                         _______ _______ _______ _____ _____    ______ ____

>  <TORSDO>
F 2

$$$$
=
 OpenBabel10262419523D

 25 28  0  0  1  0  0  0  0  0999 V2000
  186.2640  178.2660  144.3010 C   0  0  0  0  0  0  0  0  0  0  0  0
  186.3620  178.4000  142.9030 C   0  0  0  0  0  0  0  0  0  0  0  0
  183.9110  178.8400  144.2090 C   0  0  0  0  0  3  0  0  0  0  0  0
  187.2690  177.9250  145.2250 C   0  0  0  0  0  0  0  0  0  0  0  0
  188.6040  177.8910  139.9810 C   0  0  0  0  0  0  0  0  0  0  0  0
  188.9160  177.2930  147.3610 C   0  0  0  0  0  3  0  0  0  0  0  0
  184.0150  178.9690  142.8580 N   0  0  0  0  0  0  0  0  0  0  0  0
  186.8000  177.8900  146.5320 C   0  0  0  0  0  0  0  0  0  0  0  0
  187.6020  177.5820  147.5810 N   0  0  0  0  0  0  0  0  0  0  0  0
  185.2240  178.9050  140.7190 C   0  0  0  0  0  0  0  0  0  0  0  0
  183.7920  179.4130  139.8410 Cl  0  0  0  0  0  0  0  0  0  0  0  0
  189.6550  177.5920  139.2690 C   0  0  0  0  0  3  0  0  0  0  0  0
  187.6810  178.2200  142.1920 C   0  0  0  0  0  2  0  0  0  0  0  0
  189.4430  177.3130  146.0560 C   0  0  0  0  0  3  0  0  0  0  0  0
  185.0420  178.4860  144.9310 C   0  0  0  0  0  0  0  0  0  0  0  0
  185.1620  178.2710  146.6010 S   0  0  0  0  0  0  0  0  0  0  0  0
  186.3260  178.6230  140.0270 C   0  0  0  0  0  3  0  0  0  0  0  0
  188.6110  177.6320  144.9730 C   0  0  0  0  0  3  0  0  0  0  0  0
  187.5580  178.1880  140.6980 C   0  0  0  0  0  0  0  0  0  0  0  0
  185.1900  178.7630  142.1900 C   0  0  0  0  0  0  0  0  0  0  0  0
  190.7320  176.7210  139.8260 C   0  0  2  0  0  3  0  0  0  0  0  0
  191.6260  177.4990  140.6690 N   0  0  0  0  0  1  0  0  0  0  0  0
  191.5010  176.0790  138.7210 C   0  0  0  0  0  0  0  0  0  0  0  0
  192.5850  176.7430  138.1630 O   0  0  0  0  0  0  0  0  0  0  0  0
  191.1850  174.9340  138.2990 O   0  0  0  0  0  1  0  0  0  0  0  0
  1 15  2  0  0  0  0
  1  4  1  0  0  0  0
  2  1  1  0  0  0  0
  3 15  1  0  0  0  0
  4  8  1  0  0  0  0
  5 19  2  0  0  0  0
  6  9  1  0  0  0  0
  7  3  2  0  0  0  0
  8 16  1  0  0  0  0
  8  9  2  0  0  0  0
 10 20  1  0  0  0  0
 11 10  1  0  0  0  0
 12 21  1  0  0  0  0
 12  5  2  0  0  0  0
 13  2  1  0  0  0  0
 14  6  2  0  0  0  0
 15 16  1  0  0  0  0
 17 19  1  0  0  0  0
 17 10  2  0  0  0  0
 18  4  2  0  0  0  0
 18 14  1  0  0  0  0
 19 13  1  0  0  0  0
 20  7  1  0  0  0  0
 20  2  2  0  0  0  0
 21 22  1  6  0  0  0
 23 21  1  0  0  0  0
 24 23  2  0  0  0  0
 25 23  1  0  0  0  0
M  END
>  <MODEL>
8

>  <REMARK>
 VINA RESULT:      -9.2      2.775      4.689
  Name = 
  2 active torsions:
  status: ('A' for Active; 'I' for Inactive)
    1  A    between atoms: C_2  and  CA_21
    2  A    between atoms: C_15  and  CA_21
                            x       y       z     vdW  Elec       q    Type
                         _______ _______ _______ _____ _____    ______ ____

>  <TORSDO>
F 2

$$$$
=
 OpenBabel10262419523D

 25 28  0  0  1  0  0  0  0  0999 V2000
  189.1020  177.5920  144.2040 C   0  0  0  0  0  0  0  0  0  0  0  0
  188.2420  177.7960  143.1090 C   0  0  0  0  0  0  0  0  0  0  0  0
  191.0090  177.4880  142.7120 C   0  0  0  0  0  3  0  0  0  0  0  0
  188.7800  177.5070  145.5720 C   0  0  0  0  0  0  0  0  0  0  0  0
  184.7480  178.6100  142.1370 C   0  0  0  0  0  0  0  0  0  0  0  0
  188.5980  177.2820  148.3270 C   0  0  0  0  0  3  0  0  0  0  0  0
  190.1710  177.6850  141.6580 N   0  0  0  0  0  0  0  0  0  0  0  0
  189.8980  177.2970  146.3700 C   0  0  0  0  0  0  0  0  0  0  0  0
  189.8150  177.1860  147.7180 N   0  0  0  0  0  0  0  0  0  0  0  0
  187.9740  178.0640  140.6230 C   0  0  0  0  0  0  0  0  0  0  0  0
  188.6780  178.0550  139.0160 Cl  0  0  0  0  0  0  0  0  0  0  0  0
  183.4750  178.8850  142.2200 C   0  0  0  0  0  3  0  0  0  0  0  0
  186.7490  177.9090  143.2980 C   0  0  0  0  0  2  0  0  0  0  0  0
  187.4340  177.4940  147.5660 C   0  0  0  0  0  3  0  0  0  0  0  0
  190.4700  177.4440  143.9900 C   0  0  0  0  0  0  0  0  0  0  0  0
  191.3000  177.2100  145.4420 S   0  0  0  0  0  0  0  0  0  0  0  0
  186.6710  178.3090  140.7450 C   0  0  0  0  0  3  0  0  0  0  0  0
  187.5230  177.6090  146.1720 C   0  0  0  0  0  3  0  0  0  0  0  0
  186.0180  178.3350  142.0600 C   0  0  0  0  0  0  0  0  0  0  0  0
  188.8210  177.8380  141.8130 C   0  0  0  0  0  0  0  0  0  0  0  0
  182.8840  179.3830  143.4970 C   0  0  2  0  0  3  0  0  0  0  0  0
  183.4330  178.6500  144.6280 N   0  0  0  0  0  1  0  0  0  0  0  0
  181.3990  179.2420  143.4690 C   0  0  0  0  0  0  0  0  0  0  0  0
  180.6300  180.2120  142.8390 O   0  0  0  0  0  0  0  0  0  0  0  0
  180.8380  178.2470  143.9990 O   0  0  0  0  0  1  0  0  0  0  0  0
  1  4  1  0  0  0  0
  2 13  1  0  0  0  0
  2  1  1  0  0  0  0
  3 15  1  0  0  0  0
  4 18  2  0  0  0  0
  4  8  1  0  0  0  0
  5 12  2  0  0  0  0
  7 20  1  0  0  0  0
  7  3  2  0  0  0  0
  8  9  2  0  0  0  0
  9  6  1  0  0  0  0
 10 17  2  0  0  0  0
 10 20  1  0  0  0  0
 11 10  1  0  0  0  0
 12 21  1  0  0  0  0
 14  6  2  0  0  0  0
 15  1  2  0  0  0  0
 15 16  1  0  0  0  0
 16  8  1  0  0  0  0
 17 19  1  0  0  0  0
 18 14  1  0  0  0  0
 19  5  2  0  0  0  0
 19 13  1  0  0  0  0
 20  2  2  0  0  0  0
 21 22  1  1  0  0  0
 23 21  1  0  0  0  0
 23 25  1  0  0  0  0
 24 23  2  0  0  0  0
M  END
>  <MODEL>
9

>  <REMARK>
 VINA RESULT:      -9.1      4.099      6.589
  Name = 
  2 active torsions:
  status: ('A' for Active; 'I' for Inactive)
    1  A    between atoms: C_2  and  CA_21
    2  A    between atoms: C_15  and  CA_21
                            x       y       z     vdW  Elec       q    Type
                         _______ _______ _______ _____ _____    ______ ____

>  <TORSDO>
F 2

$$$$
