=
 OpenBabel10262420463D

 28 31  0  0  1  0  0  0  0  0999 V2000
  191.3040  179.7120  143.9700 C   0  0  0  0  0  1  0  0  0  0  0  0
  189.9520  177.3290  141.3670 C   0  0  1  0  0  3  0  0  0  0  0  0
  189.9400  177.3180  144.1240 C   0  0  2  0  0  0  0  0  0  0  0  0
  188.5610  177.5760  141.9610 C   0  0  0  0  0  2  0  0  0  0  0  0
  190.1010  177.5560  145.4800 C   0  0  0  0  0  0  0  0  0  0  0  0
  190.8630  176.2780  143.4850 C   0  0  0  0  0  2  0  0  0  0  0  0
  190.6210  178.5030  144.3920 N   0  0  0  0  0  0  0  0  0  0  0  0
  190.5900  176.0860  141.9880 C   0  0  0  0  0  2  0  0  0  0  0  0
  189.9470  177.2470  146.6900 O   0  0  0  0  0  0  0  0  0  0  0  0
  188.5600  177.5930  143.5020 C   0  0  1  0  0  3  0  0  0  0  0  0
  190.8760  176.3560  139.2690 C   0  0  0  0  0  2  0  0  0  0  0  0
  188.6020  177.5420  137.7240 C   0  0  0  0  0  2  0  0  0  0  0  0
  189.6190  176.5680  137.1090 C   0  0  2  0  0  3  0  0  0  0  0  0
  189.9060  177.2360  139.9090 N   0  0  0  0  0  0  0  0  0  0  0  0
  188.3870  178.9960  139.5920 O   0  0  0  0  0  0  0  0  0  0  0  0
  188.9710  177.9910  139.1100 C   0  0  0  0  0  0  0  0  0  0  0  0
  190.2370  175.5950  138.1170 C   0  0  0  0  0  2  0  0  0  0  0  0
  191.0590  176.2510  135.4750 O   0  0  0  0  0  1  0  0  0  0  0  0
  190.5670  177.1850  136.2680 O   0  0  0  0  0  0  0  0  0  0  0  0
  187.4380  176.7260  144.0900 C   0  0  0  0  0  2  0  0  0  0  0  0
  186.2940  177.5160  144.6560 C   0  0  0  0  0  0  0  0  0  0  0  0
  186.2150  177.7120  146.0390 C   0  0  0  0  0  3  0  0  0  0  0  0
  184.2440  178.7850  144.3730 C   0  0  0  0  0  0  0  0  0  0  0  0
  185.1600  178.4470  146.5870 C   0  0  0  0  0  3  0  0  0  0  0  0
  185.3350  177.8350  142.4820 F   0  0  0  0  0  0  0  0  0  0  0  0
  185.2960  178.0450  143.8210 C   0  0  0  0  0  0  0  0  0  0  0  0
  183.2810  179.3040  143.5720 F   0  0  0  0  0  0  0  0  0  0  0  0
  184.1770  178.9860  145.7540 C   0  0  0  0  0  3  0  0  0  0  0  0
  1  7  1  0  0  0  0
  2 14  1  6  0  0  0
  2  4  1  0  0  0  0
  2  8  1  0  0  0  0
  3  6  1  6  0  0  0
  3  7  1  0  0  0  0
  3  5  1  0  0  0  0
  4 10  1  0  0  0  0
  5  9  2  0  0  0  0
  7  5  1  0  0  0  0
  8  6  1  0  0  0  0
 10 20  1  1  0  0  0
 10  3  1  0  0  0  0
 11 14  1  0  0  0  0
 12 16  1  0  0  0  0
 13 19  1  1  0  0  0
 13 12  1  0  0  0  0
 13 17  1  0  0  0  0
 16 15  2  0  0  0  0
 16 14  1  0  0  0  0
 17 11  1  0  0  0  0
 18 19  1  0  0  0  0
 20 21  1  0  0  0  0
 21 22  1  0  0  0  0
 22 24  2  0  0  0  0
 23 28  2  0  0  0  0
 25 26  1  0  0  0  0
 26 23  1  0  0  0  0
 26 21  2  0  0  0  0
 27 23  1  0  0  0  0
 28 24  1  0  0  0  0
M  END
>  <MODEL>
1

>  <REMARK>
 VINA RESULT:      -8.9      0.000      0.000
  Name = 
  4 active torsions:
  status: ('A' for Active; 'I' for Inactive)
    1  A    between atoms: C_1  and  C_2
    2  A    between atoms: C_1  and  C_27
    3  A    between atoms: C_10  and  N_13
    4  A    between atoms: C_12  and  O_23
                            x       y       z     vdW  Elec       q    Type
                         _______ _______ _______ _____ _____    ______ ____

>  <TORSDO>
F 4

$$$$
=
 OpenBabel10262420463D

 28 31  0  0  1  0  0  0  0  0999 V2000
  191.4920  179.4970  143.8290 C   0  0  0  0  0  1  0  0  0  0  0  0
  189.7720  177.4240  141.1780 C   0  0  1  0  0  3  0  0  0  0  0  0
  190.0150  177.1670  143.9130 C   0  0  2  0  0  0  0  0  0  0  0  0
  188.4580  177.6830  141.9240 C   0  0  0  0  0  2  0  0  0  0  0  0
  190.3150  177.2750  145.2620 C   0  0  0  0  0  0  0  0  0  0  0  0
  190.8150  176.1460  143.1010 C   0  0  0  0  0  2  0  0  0  0  0  0
  190.7850  178.2900  144.2120 N   0  0  0  0  0  0  0  0  0  0  0  0
  190.3930  176.1010  141.6270 C   0  0  0  0  0  2  0  0  0  0  0  0
  190.2580  176.8670  146.4500 O   0  0  0  0  0  0  0  0  0  0  0  0
  188.6010  177.5630  143.4540 C   0  0  1  0  0  3  0  0  0  0  0  0
  188.5100  178.3090  139.2220 C   0  0  0  0  0  2  0  0  0  0  0  0
  190.5300  177.0930  137.3770 C   0  0  0  0  0  2  0  0  0  0  0  0
  189.4130  178.0320  136.8980 C   0  0  2  0  0  3  0  0  0  0  0  0
  189.5850  177.4640  139.7300 N   0  0  0  0  0  0  0  0  0  0  0  0
  191.0640  175.7110  139.2360 O   0  0  0  0  0  0  0  0  0  0  0  0
  190.3930  176.6910  138.8180 C   0  0  0  0  0  0  0  0  0  0  0  0
  188.9450  179.0350  137.9570 C   0  0  0  0  0  2  0  0  0  0  0  0
  187.5910  178.3010  135.6920 O   0  0  0  0  0  1  0  0  0  0  0  0
  188.3530  177.3730  136.2410 O   0  0  0  0  0  0  0  0  0  0  0  0
  187.4920  176.7010  144.0730 C   0  0  0  0  0  2  0  0  0  0  0  0
  186.3240  177.4920  144.5860 C   0  0  0  0  0  0  0  0  0  0  0  0
  185.4220  178.0510  143.6750 C   0  0  0  0  0  3  0  0  0  0  0  0
  185.0340  178.4290  146.4160 C   0  0  0  0  0  0  0  0  0  0  0  0
  184.3260  178.7890  144.1310 C   0  0  0  0  0  3  0  0  0  0  0  0
  187.0180  177.1900  146.8610 F   0  0  0  0  0  0  0  0  0  0  0  0
  186.1350  177.6930  145.9630 C   0  0  0  0  0  0  0  0  0  0  0  0
  184.8410  178.6210  147.7450 F   0  0  0  0  0  0  0  0  0  0  0  0
  184.1310  178.9750  145.5010 C   0  0  0  0  0  3  0  0  0  0  0  0
  1  7  1  0  0  0  0
  2 14  1  6  0  0  0
  2  8  1  0  0  0  0
  2  4  1  0  0  0  0
  3  6  1  6  0  0  0
  3  7  1  0  0  0  0
  3  5  1  0  0  0  0
  4 10  1  0  0  0  0
  5  9  2  0  0  0  0
  7  5  1  0  0  0  0
  8  6  1  0  0  0  0
 10  3  1  0  0  0  0
 10 20  1  6  0  0  0
 11 14  1  0  0  0  0
 12 16  1  0  0  0  0
 13 19  1  1  0  0  0
 13 12  1  0  0  0  0
 13 17  1  0  0  0  0
 16 15  2  0  0  0  0
 16 14  1  0  0  0  0
 17 11  1  0  0  0  0
 18 19  1  0  0  0  0
 20 21  1  0  0  0  0
 21 26  1  0  0  0  0
 22 24  1  0  0  0  0
 22 21  2  0  0  0  0
 23 27  1  0  0  0  0
 24 28  2  0  0  0  0
 26 23  2  0  0  0  0
 26 25  1  0  0  0  0
 28 23  1  0  0  0  0
M  END
>  <MODEL>
2

>  <REMARK>
 VINA RESULT:      -8.5      1.666      2.236
  Name = 
  4 active torsions:
  status: ('A' for Active; 'I' for Inactive)
    1  A    between atoms: C_1  and  C_2
    2  A    between atoms: C_1  and  C_27
    3  A    between atoms: C_10  and  N_13
    4  A    between atoms: C_12  and  O_23
                            x       y       z     vdW  Elec       q    Type
                         _______ _______ _______ _____ _____    ______ ____

>  <TORSDO>
F 4

$$$$
=
 OpenBabel10262420463D

 28 31  0  0  1  0  0  0  0  0999 V2000
  191.8720  179.4970  143.8520 C   0  0  0  0  0  1  0  0  0  0  0  0
  189.9090  177.3190  141.4680 C   0  0  1  0  0  3  0  0  0  0  0  0
  190.4010  177.1860  144.1780 C   0  0  2  0  0  0  0  0  0  0  0  0
  188.6700  177.6230  142.3180 C   0  0  0  0  0  2  0  0  0  0  0  0
  190.8230  177.3530  145.4880 C   0  0  0  0  0  0  0  0  0  0  0  0
  191.1180  176.1220  143.3450 C   0  0  0  0  0  2  0  0  0  0  0  0
  191.1980  178.3140  144.3540 N   0  0  0  0  0  0  0  0  0  0  0  0
  190.5630  176.0130  141.9190 C   0  0  0  0  0  2  0  0  0  0  0  0
  190.8730  176.9990  146.6940 O   0  0  0  0  0  0  0  0  0  0  0  0
  188.9520  177.5710  143.8320 C   0  0  1  0  0  3  0  0  0  0  0  0
  188.1830  177.4040  139.6750 C   0  0  0  0  0  2  0  0  0  0  0  0
  190.3450  177.5980  137.6120 C   0  0  0  0  0  2  0  0  0  0  0  0
  188.8530  177.7590  137.2840 C   0  0  2  0  0  3  0  0  0  0  0  0
  189.5900  177.2950  140.0430 N   0  0  0  0  0  0  0  0  0  0  0  0
  191.7380  176.6960  139.3140 O   0  0  0  0  0  0  0  0  0  0  0  0
  190.5980  177.1410  139.0220 C   0  0  0  0  0  0  0  0  0  0  0  0
  188.0120  178.2890  138.4490 C   0  0  0  0  0  2  0  0  0  0  0  0
  186.9850  176.8610  136.5430 O   0  0  0  0  0  1  0  0  0  0  0  0
  188.2830  176.6400  136.6420 O   0  0  0  0  0  0  0  0  0  0  0  0
  187.9010  176.7480  144.5900 C   0  0  0  0  0  2  0  0  0  0  0  0
  186.9460  177.5780  145.3960 C   0  0  0  0  0  0  0  0  0  0  0  0
  187.2370  177.8500  146.7370 C   0  0  0  0  0  3  0  0  0  0  0  0
  184.8880  178.8500  145.6010 C   0  0  0  0  0  0  0  0  0  0  0  0
  186.3630  178.6240  147.5050 C   0  0  0  0  0  3  0  0  0  0  0  0
  185.4400  177.7890  143.5420 F   0  0  0  0  0  0  0  0  0  0  0  0
  185.7580  178.0720  144.8290 C   0  0  0  0  0  0  0  0  0  0  0  0
  183.7430  179.3350  145.0590 F   0  0  0  0  0  0  0  0  0  0  0  0
  185.1910  179.1260  146.9370 C   0  0  0  0  0  3  0  0  0  0  0  0
  1  7  1  0  0  0  0
  2 14  1  6  0  0  0
  2  8  1  0  0  0  0
  2  4  1  0  0  0  0
  3  6  1  6  0  0  0
  3  7  1  0  0  0  0
  3  5  1  0  0  0  0
  4 10  1  0  0  0  0
  5  9  2  0  0  0  0
  7  5  1  0  0  0  0
  8  6  1  0  0  0  0
 10  3  1  0  0  0  0
 10 20  1  1  0  0  0
 11 14  1  0  0  0  0
 12 16  1  0  0  0  0
 13 19  1  1  0  0  0
 13 12  1  0  0  0  0
 13 17  1  0  0  0  0
 16 15  2  0  0  0  0
 16 14  1  0  0  0  0
 17 11  1  0  0  0  0
 18 19  1  0  0  0  0
 20 21  1  0  0  0  0
 21 22  1  0  0  0  0
 22 24  2  0  0  0  0
 23 28  2  0  0  0  0
 25 26  1  0  0  0  0
 26 21  2  0  0  0  0
 26 23  1  0  0  0  0
 27 23  1  0  0  0  0
 28 24  1  0  0  0  0
M  END
>  <MODEL>
3

>  <REMARK>
 VINA RESULT:      -8.2      1.332      1.766
  Name = 
  4 active torsions:
  status: ('A' for Active; 'I' for Inactive)
    1  A    between atoms: C_1  and  C_2
    2  A    between atoms: C_1  and  C_27
    3  A    between atoms: C_10  and  N_13
    4  A    between atoms: C_12  and  O_23
                            x       y       z     vdW  Elec       q    Type
                         _______ _______ _______ _____ _____    ______ ____

>  <TORSDO>
F 4

$$$$
=
 OpenBabel10262420463D

 28 31  0  0  1  0  0  0  0  0999 V2000
  192.2600  179.3800  143.9760 C   0  0  0  0  0  1  0  0  0  0  0  0
  189.9540  177.5520  141.6040 C   0  0  1  0  0  3  0  0  0  0  0  0
  190.6950  177.1200  144.2250 C   0  0  2  0  0  0  0  0  0  0  0  0
  188.8220  177.8270  142.6000 C   0  0  0  0  0  2  0  0  0  0  0  0
  191.2500  177.1330  145.4950 C   0  0  0  0  0  0  0  0  0  0  0  0
  191.2670  176.1130  143.2250 C   0  0  0  0  0  2  0  0  0  0  0  0
  191.5700  178.1860  144.4270 N   0  0  0  0  0  0  0  0  0  0  0  0
  190.5720  176.1770  141.8590 C   0  0  0  0  0  2  0  0  0  0  0  0
  191.3950  176.6570  146.6510 O   0  0  0  0  0  0  0  0  0  0  0  0
  189.2440  177.6080  144.0660 C   0  0  1  0  0  3  0  0  0  0  0  0
  190.4210  177.2630  139.1760 C   0  0  0  0  0  2  0  0  0  0  0  0
  187.5690  177.9310  138.5540 C   0  0  0  0  0  2  0  0  0  0  0  0
  188.5640  177.4290  137.4970 C   0  0  2  0  0  3  0  0  0  0  0  0
  189.4990  177.6880  140.2220 N   0  0  0  0  0  0  0  0  0  0  0  0
  187.5680  178.9260  140.7120 O   0  0  0  0  0  0  0  0  0  0  0  0
  188.2120  178.2400  139.8770 C   0  0  0  0  0  0  0  0  0  0  0  0
  189.6780  176.5410  138.0610 C   0  0  0  0  0  2  0  0  0  0  0  0
  188.5880  179.5910  137.0840 O   0  0  0  0  0  1  0  0  0  0  0  0
  189.0340  178.4350  136.6270 O   0  0  0  0  0  0  0  0  0  0  0  0
  188.2250  176.7640  144.8430 C   0  0  0  0  0  2  0  0  0  0  0  0
  187.4410  177.5430  145.8580 C   0  0  0  0  0  0  0  0  0  0  0  0
  186.3160  178.2670  145.4470 C   0  0  0  0  0  3  0  0  0  0  0  0
  187.0750  178.2960  148.1370 C   0  0  0  0  0  0  0  0  0  0  0  0
  185.5700  178.9970  146.3770 C   0  0  0  0  0  3  0  0  0  0  0  0
  188.9350  176.9030  147.6200 F   0  0  0  0  0  0  0  0  0  0  0  0
  187.8280  177.5680  147.2080 C   0  0  0  0  0  0  0  0  0  0  0  0
  187.4400  178.3200  149.4430 F   0  0  0  0  0  0  0  0  0  0  0  0
  185.9480  179.0090  147.7210 C   0  0  0  0  0  3  0  0  0  0  0  0
  1  7  1  0  0  0  0
  2 14  1  6  0  0  0
  2  8  1  0  0  0  0
  2  4  1  0  0  0  0
  3  6  1  6  0  0  0
  3  7  1  0  0  0  0
  3  5  1  0  0  0  0
  4 10  1  0  0  0  0
  5  9  2  0  0  0  0
  7  5  1  0  0  0  0
  8  6  1  0  0  0  0
 10  3  1  0  0  0  0
 10 20  1  6  0  0  0
 11 14  1  0  0  0  0
 12 16  1  0  0  0  0
 13 19  1  1  0  0  0
 13 17  1  0  0  0  0
 13 12  1  0  0  0  0
 16 14  1  0  0  0  0
 16 15  2  0  0  0  0
 17 11  1  0  0  0  0
 19 18  1  0  0  0  0
 20 21  1  0  0  0  0
 21 26  1  0  0  0  0
 22 21  2  0  0  0  0
 22 24  1  0  0  0  0
 23 27  1  0  0  0  0
 24 28  2  0  0  0  0
 26 25  1  0  0  0  0
 26 23  2  0  0  0  0
 28 23  1  0  0  0  0
M  END
>  <MODEL>
4

>  <REMARK>
 VINA RESULT:      -7.9      2.217      2.589
  Name = 
  4 active torsions:
  status: ('A' for Active; 'I' for Inactive)
    1  A    between atoms: C_1  and  C_2
    2  A    between atoms: C_1  and  C_27
    3  A    between atoms: C_10  and  N_13
    4  A    between atoms: C_12  and  O_23
                            x       y       z     vdW  Elec       q    Type
                         _______ _______ _______ _____ _____    ______ ____

>  <TORSDO>
F 4

$$$$
=
 OpenBabel10262420463D

 28 31  0  0  1  0  0  0  0  0999 V2000
  186.2950  175.6510  136.9720 C   0  0  0  0  0  1  0  0  0  0  0  0
  189.8150  176.9880  137.2920 C   0  0  1  0  0  3  0  0  0  0  0  0
  187.3480  177.9700  138.0350 C   0  0  2  0  0  0  0  0  0  0  0  0
  189.6040  176.9920  138.8100 C   0  0  0  0  0  2  0  0  0  0  0  0
  186.0050  178.2220  138.2700 C   0  0  0  0  0  0  0  0  0  0  0  0
  187.9990  178.7010  136.8590 C   0  0  0  0  0  2  0  0  0  0  0  0
  186.5160  176.9430  137.5950 N   0  0  0  0  0  0  0  0  0  0  0  0
  189.4850  178.3590  136.7000 C   0  0  0  0  0  2  0  0  0  0  0  0
  185.0670  178.9400  138.7010 O   0  0  0  0  0  0  0  0  0  0  0  0
  188.2160  177.5180  139.2230 C   0  0  1  0  0  3  0  0  0  0  0  0
  192.2070  176.7530  137.9420 C   0  0  0  0  0  2  0  0  0  0  0  0
  192.7150  175.1440  135.4690 C   0  0  0  0  0  2  0  0  0  0  0  0
  193.7590  175.3280  136.5800 C   0  0  2  0  0  3  0  0  0  0  0  0
  191.1670  176.5630  136.9380 N   0  0  0  0  0  0  0  0  0  0  0  0
  190.7200  176.1590  134.6700 O   0  0  0  0  0  0  0  0  0  0  0  0
  191.4950  176.0030  135.6490 C   0  0  0  0  0  0  0  0  0  0  0  0
  193.1560  175.5640  137.9690 C   0  0  0  0  0  2  0  0  0  0  0  0
  195.9380  175.6150  136.4590 O   0  0  0  0  0  1  0  0  0  0  0  0
  194.7900  176.2340  136.2540 O   0  0  0  0  0  0  0  0  0  0  0  0
  188.3020  178.5570  140.3500 C   0  0  0  0  0  2  0  0  0  0  0  0
  187.8720  178.0350  141.6890 C   0  0  0  0  0  0  0  0  0  0  0  0
  188.7000  177.1390  142.3740 C   0  0  0  0  0  3  0  0  0  0  0  0
  186.2710  177.9240  143.5110 C   0  0  0  0  0  0  0  0  0  0  0  0
  188.3210  176.6430  143.6240 C   0  0  0  0  0  3  0  0  0  0  0  0
  185.8120  179.2580  141.5930 F   0  0  0  0  0  0  0  0  0  0  0  0
  186.6460  178.4200  142.2570 C   0  0  0  0  0  0  0  0  0  0  0  0
  185.0920  178.2960  144.0670 F   0  0  0  0  0  0  0  0  0  0  0  0
  187.1080  177.0380  144.1940 C   0  0  0  0  0  3  0  0  0  0  0  0
  1  7  1  0  0  0  0
  2  8  1  1  0  0  0
  2  4  1  0  0  0  0
  3  6  1  6  0  0  0
  3  5  1  0  0  0  0
  3 10  1  0  0  0  0
  4 10  1  0  0  0  0
  5  9  2  0  0  0  0
  7  3  1  0  0  0  0
  7  5  1  0  0  0  0
  8  6  1  0  0  0  0
 10 20  1  1  0  0  0
 11 17  1  0  0  0  0
 12 16  1  0  0  0  0
 12 13  1  0  0  0  0
 13 19  1  6  0  0  0
 13 17  1  0  0  0  0
 14  2  1  0  0  0  0
 14 11  1  0  0  0  0
 15 16  2  0  0  0  0
 16 14  1  0  0  0  0
 19 18  1  0  0  0  0
 20 21  1  0  0  0  0
 21 26  2  0  0  0  0
 21 22  1  0  0  0  0
 22 24  2  0  0  0  0
 23 27  1  0  0  0  0
 23 28  2  0  0  0  0
 24 28  1  0  0  0  0
 25 26  1  0  0  0  0
 26 23  1  0  0  0  0
M  END
>  <MODEL>
5

>  <REMARK>
 VINA RESULT:      -7.7      3.098      5.266
  Name = 
  4 active torsions:
  status: ('A' for Active; 'I' for Inactive)
    1  A    between atoms: C_1  and  C_2
    2  A    between atoms: C_1  and  C_27
    3  A    between atoms: C_10  and  N_13
    4  A    between atoms: C_12  and  O_23
                            x       y       z     vdW  Elec       q    Type
                         _______ _______ _______ _____ _____    ______ ____

>  <TORSDO>
F 4

$$$$
=
 OpenBabel10262420463D

 28 31  0  0  1  0  0  0  0  0999 V2000
  189.1690  177.3070  139.7690 C   0  0  0  0  0  1  0  0  0  0  0  0
  187.1350  177.7690  142.9200 C   0  0  1  0  0  3  0  0  0  0  0  0
  189.7700  177.1040  142.4550 C   0  0  2  0  0  0  0  0  0  0  0  0
  188.1120  178.8850  143.3060 C   0  0  0  0  0  2  0  0  0  0  0  0
  191.0110  176.7700  141.9350 C   0  0  0  0  0  0  0  0  0  0  0  0
  188.9050  175.9580  142.9830 C   0  0  0  0  0  2  0  0  0  0  0  0
  189.7990  177.1160  141.0610 N   0  0  0  0  0  0  0  0  0  0  0  0
  187.5620  176.4400  143.5440 C   0  0  0  0  0  2  0  0  0  0  0  0
  192.2170  176.4360  142.0630 O   0  0  0  0  0  0  0  0  0  0  0  0
  189.5830  178.5210  143.0230 C   0  0  1  0  0  3  0  0  0  0  0  0
  185.3960  178.0150  144.6850 C   0  0  0  0  0  2  0  0  0  0  0  0
  183.5660  179.3010  142.6940 C   0  0  0  0  0  2  0  0  0  0  0  0
  183.2510  179.2220  144.1960 C   0  0  2  0  0  3  0  0  0  0  0  0
  185.7600  178.1120  143.2760 N   0  0  0  0  0  0  0  0  0  0  0  0
  184.9560  178.2530  141.0760 O   0  0  0  0  0  0  0  0  0  0  0  0
  184.7760  178.5040  142.2960 C   0  0  0  0  0  0  0  0  0  0  0  0
  184.4940  179.1720  145.0900 C   0  0  0  0  0  2  0  0  0  0  0  0
  181.1450  178.6280  143.9670 O   0  0  0  0  0  1  0  0  0  0  0  0
  182.2800  178.2560  144.5280 O   0  0  0  0  0  0  0  0  0  0  0  0
  190.4950  178.8270  144.2190 C   0  0  0  0  0  2  0  0  0  0  0  0
  190.1940  178.0050  145.4380 C   0  0  0  0  0  0  0  0  0  0  0  0
  189.0200  178.2530  146.1580 C   0  0  0  0  0  3  0  0  0  0  0  0
  190.7710  176.2480  147.0100 C   0  0  0  0  0  0  0  0  0  0  0  0
  188.7180  177.4970  147.2950 C   0  0  0  0  0  3  0  0  0  0  0  0
  192.2390  176.7750  145.2120 F   0  0  0  0  0  0  0  0  0  0  0  0
  191.0790  177.0050  145.8740 C   0  0  0  0  0  0  0  0  0  0  0  0
  191.6170  175.2770  147.4330 F   0  0  0  0  0  0  0  0  0  0  0  0
  189.5910  176.4930  147.7180 C   0  0  0  0  0  3  0  0  0  0  0  0
  1  7  1  0  0  0  0
  2 14  1  1  0  0  0
  2  4  1  0  0  0  0
  2  8  1  0  0  0  0
  3  6  1  1  0  0  0
  3 10  1  0  0  0  0
  5  9  2  0  0  0  0
  5  3  1  0  0  0  0
  6  8  1  0  0  0  0
  7  5  1  0  0  0  0
  7  3  1  0  0  0  0
 10  4  1  0  0  0  0
 10 20  1  1  0  0  0
 11 17  1  0  0  0  0
 12 13  1  0  0  0  0
 13 19  1  6  0  0  0
 13 17  1  0  0  0  0
 14 11  1  0  0  0  0
 15 16  2  0  0  0  0
 16 12  1  0  0  0  0
 16 14  1  0  0  0  0
 18 19  1  0  0  0  0
 20 21  1  0  0  0  0
 21 26  2  0  0  0  0
 21 22  1  0  0  0  0
 22 24  2  0  0  0  0
 23 27  1  0  0  0  0
 23 28  2  0  0  0  0
 24 28  1  0  0  0  0
 25 26  1  0  0  0  0
 26 23  1  0  0  0  0
M  END
>  <MODEL>
6

>  <REMARK>
 VINA RESULT:      -7.7      3.644      6.422
  Name = 
  4 active torsions:
  status: ('A' for Active; 'I' for Inactive)
    1  A    between atoms: C_1  and  C_2
    2  A    between atoms: C_1  and  C_27
    3  A    between atoms: C_10  and  N_13
    4  A    between atoms: C_12  and  O_23
                            x       y       z     vdW  Elec       q    Type
                         _______ _______ _______ _____ _____    ______ ____

>  <TORSDO>
F 4

$$$$
=
 OpenBabel10262420463D

 28 31  0  0  1  0  0  0  0  0999 V2000
  189.3810  177.2360  139.7830 C   0  0  0  0  0  1  0  0  0  0  0  0
  187.2940  177.7870  142.8840 C   0  0  1  0  0  3  0  0  0  0  0  0
  189.9440  177.1390  142.4830 C   0  0  2  0  0  0  0  0  0  0  0  0
  188.2510  178.9290  143.2440 C   0  0  0  0  0  2  0  0  0  0  0  0
  191.1970  176.8030  141.9950 C   0  0  0  0  0  0  0  0  0  0  0  0
  189.0850  176.0020  143.0400 C   0  0  0  0  0  2  0  0  0  0  0  0
  189.9940  177.1000  141.0910 N   0  0  0  0  0  0  0  0  0  0  0  0
  187.7270  176.4880  143.5630 C   0  0  0  0  0  2  0  0  0  0  0  0
  192.4050  176.4890  142.1530 O   0  0  0  0  0  0  0  0  0  0  0  0
  189.7310  178.5730  142.9960 C   0  0  1  0  0  3  0  0  0  0  0  0
  185.5060  178.0070  144.6040 C   0  0  0  0  0  2  0  0  0  0  0  0
  183.7330  179.3240  142.5830 C   0  0  0  0  0  2  0  0  0  0  0  0
  183.3770  179.2230  144.0740 C   0  0  2  0  0  3  0  0  0  0  0  0
  185.9090  178.1250  143.2080 N   0  0  0  0  0  0  0  0  0  0  0  0
  185.1670  178.3000  140.9890 O   0  0  0  0  0  0  0  0  0  0  0  0
  184.9530  178.5320  142.2070 C   0  0  0  0  0  0  0  0  0  0  0  0
  184.5940  179.1580  145.0020 C   0  0  0  0  0  2  0  0  0  0  0  0
  181.2330  178.7350  143.9690 O   0  0  0  0  0  1  0  0  0  0  0  0
  182.3960  178.2520  144.3650 O   0  0  0  0  0  0  0  0  0  0  0  0
  190.6210  178.9350  144.1930 C   0  0  0  0  0  2  0  0  0  0  0  0
  190.5970  177.9170  145.2960 C   0  0  0  0  0  0  0  0  0  0  0  0
  191.6810  177.0450  145.4470 C   0  0  0  0  0  3  0  0  0  0  0  0
  189.5040  176.8640  147.1900 C   0  0  0  0  0  0  0  0  0  0  0  0
  191.6800  176.0910  146.4690 C   0  0  0  0  0  3  0  0  0  0  0  0
  188.4220  178.6280  146.0120 F   0  0  0  0  0  0  0  0  0  0  0  0
  189.4980  177.8170  146.1650 C   0  0  0  0  0  0  0  0  0  0  0  0
  188.4490  176.7650  148.0360 F   0  0  0  0  0  0  0  0  0  0  0  0
  190.5940  176.0030  147.3420 C   0  0  0  0  0  3  0  0  0  0  0  0
  1  7  1  0  0  0  0
  2 14  1  1  0  0  0
  2  4  1  0  0  0  0
  2  8  1  0  0  0  0
  3 10  1  0  0  0  0
  3  6  1  1  0  0  0
  5  9  2  0  0  0  0
  5  3  1  0  0  0  0
  6  8  1  0  0  0  0
  7  5  1  0  0  0  0
  7  3  1  0  0  0  0
 10  4  1  0  0  0  0
 10 20  1  1  0  0  0
 11 17  1  0  0  0  0
 12 13  1  0  0  0  0
 13 19  1  6  0  0  0
 13 17  1  0  0  0  0
 14 11  1  0  0  0  0
 15 16  2  0  0  0  0
 16 12  1  0  0  0  0
 16 14  1  0  0  0  0
 18 19  1  0  0  0  0
 20 21  1  0  0  0  0
 21 22  2  0  0  0  0
 21 26  1  0  0  0  0
 22 24  1  0  0  0  0
 23 28  1  0  0  0  0
 23 27  1  0  0  0  0
 24 28  2  0  0  0  0
 25 26  1  0  0  0  0
 26 23  2  0  0  0  0
M  END
>  <MODEL>
7

>  <REMARK>
 VINA RESULT:      -7.6      3.285      6.239
  Name = 
  4 active torsions:
  status: ('A' for Active; 'I' for Inactive)
    1  A    between atoms: C_1  and  C_2
    2  A    between atoms: C_1  and  C_27
    3  A    between atoms: C_10  and  N_13
    4  A    between atoms: C_12  and  O_23
                            x       y       z     vdW  Elec       q    Type
                         _______ _______ _______ _____ _____    ______ ____

>  <TORSDO>
F 4

$$$$
=
 OpenBabel10262420463D

 28 31  0  0  1  0  0  0  0  0999 V2000
  179.7770  176.8590  141.2540 C   0  0  0  0  0  1  0  0  0  0  0  0
  182.9010  177.4690  139.2170 C   0  0  1  0  0  3  0  0  0  0  0  0
  181.5940  178.9340  141.1530 C   0  0  2  0  0  0  0  0  0  0  0  0
  183.6710  177.5340  140.5400 C   0  0  0  0  0  2  0  0  0  0  0  0
  180.7350  179.4520  142.1100 C   0  0  0  0  0  0  0  0  0  0  0  0
  181.4860  179.5050  139.7380 C   0  0  0  0  0  2  0  0  0  0  0  0
  180.5240  178.0880  141.4410 N   0  0  0  0  0  0  0  0  0  0  0  0
  182.4880  178.8710  138.7650 C   0  0  0  0  0  2  0  0  0  0  0  0
  180.3810  180.3490  142.9180 O   0  0  0  0  0  0  0  0  0  0  0  0
  182.9280  178.3330  141.6290 C   0  0  1  0  0  3  0  0  0  0  0  0
  184.6560  177.5630  137.4530 C   0  0  0  0  0  2  0  0  0  0  0  0
  184.5330  174.5840  137.1810 C   0  0  0  0  0  2  0  0  0  0  0  0
  185.5880  175.4490  136.4750 C   0  0  2  0  0  3  0  0  0  0  0  0
  183.6680  176.7780  138.1830 N   0  0  0  0  0  0  0  0  0  0  0  0
  182.4000  174.8040  138.2060 O   0  0  0  0  0  0  0  0  0  0  0  0
  183.4590  175.3880  137.8560 C   0  0  0  0  0  0  0  0  0  0  0  0
  185.9200  176.7500  137.2110 C   0  0  0  0  0  2  0  0  0  0  0  0
  186.3260  176.3880  134.6260 O   0  0  0  0  0  1  0  0  0  0  0  0
  185.3550  175.6270  135.0960 O   0  0  0  0  0  0  0  0  0  0  0  0
  183.8420  179.3480  142.3290 C   0  0  0  0  0  2  0  0  0  0  0  0
  184.6570  178.7610  143.4440 C   0  0  0  0  0  0  0  0  0  0  0  0
  185.8990  178.1850  143.1560 C   0  0  0  0  0  3  0  0  0  0  0  0
  184.9670  178.2200  145.7910 C   0  0  0  0  0  0  0  0  0  0  0  0
  186.6760  177.6360  144.1810 C   0  0  0  0  0  3  0  0  0  0  0  0
  182.9670  179.2870  145.0620 F   0  0  0  0  0  0  0  0  0  0  0  0
  184.1840  178.7670  144.7670 C   0  0  0  0  0  0  0  0  0  0  0  0
  184.5190  178.2280  147.0710 F   0  0  0  0  0  0  0  0  0  0  0  0
  186.2110  177.6560  145.4970 C   0  0  0  0  0  3  0  0  0  0  0  0
  1  7  1  0  0  0  0
  2 14  1  6  0  0  0
  2  4  1  0  0  0  0
  3  6  1  6  0  0  0
  3  7  1  0  0  0  0
  3 10  1  0  0  0  0
  3  5  1  0  0  0  0
  4 10  1  0  0  0  0
  5  9  2  0  0  0  0
  7  5  1  0  0  0  0
  8  2  1  0  0  0  0
  8  6  1  0  0  0  0
 10 20  1  6  0  0  0
 11 14  1  0  0  0  0
 12 16  1  0  0  0  0
 13 19  1  6  0  0  0
 13 12  1  0  0  0  0
 13 17  1  0  0  0  0
 16 14  1  0  0  0  0
 16 15  2  0  0  0  0
 17 11  1  0  0  0  0
 18 19  1  0  0  0  0
 20 21  1  0  0  0  0
 21 26  1  0  0  0  0
 22 21  2  0  0  0  0
 22 24  1  0  0  0  0
 23 27  1  0  0  0  0
 24 28  2  0  0  0  0
 26 25  1  0  0  0  0
 26 23  2  0  0  0  0
 28 23  1  0  0  0  0
M  END
>  <MODEL>
8

>  <REMARK>
 VINA RESULT:      -7.2      4.711      6.696
  Name = 
  4 active torsions:
  status: ('A' for Active; 'I' for Inactive)
    1  A    between atoms: C_1  and  C_2
    2  A    between atoms: C_1  and  C_27
    3  A    between atoms: C_10  and  N_13
    4  A    between atoms: C_12  and  O_23
                            x       y       z     vdW  Elec       q    Type
                         _______ _______ _______ _____ _____    ______ ____

>  <TORSDO>
F 4

$$$$
=
 OpenBabel10262420463D

 28 31  0  0  1  0  0  0  0  0999 V2000
  179.7120  176.9430  141.3420 C   0  0  0  0  0  1  0  0  0  0  0  0
  182.8030  177.4290  139.2220 C   0  0  1  0  0  3  0  0  0  0  0  0
  181.5840  178.9630  141.1620 C   0  0  2  0  0  0  0  0  0  0  0  0
  183.6050  177.4940  140.5260 C   0  0  0  0  0  2  0  0  0  0  0  0
  180.7640  179.5210  142.1300 C   0  0  0  0  0  0  0  0  0  0  0  0
  181.4590  179.5130  139.7400 C   0  0  0  0  0  2  0  0  0  0  0  0
  180.4980  178.1530  141.4900 N   0  0  0  0  0  0  0  0  0  0  0  0
  182.4190  178.8340  138.7560 C   0  0  0  0  0  2  0  0  0  0  0  0
  180.4550  180.4420  142.9300 O   0  0  0  0  0  0  0  0  0  0  0  0
  182.9110  178.3320  141.6180 C   0  0  1  0  0  3  0  0  0  0  0  0
  184.5560  177.4270  137.4530 C   0  0  0  0  0  2  0  0  0  0  0  0
  184.2560  174.4610  137.1680 C   0  0  0  0  0  2  0  0  0  0  0  0
  185.3590  175.2660  136.4630 C   0  0  2  0  0  3  0  0  0  0  0  0
  183.5250  176.6980  138.1820 N   0  0  0  0  0  0  0  0  0  0  0  0
  182.1420  174.8030  138.2000 O   0  0  0  0  0  0  0  0  0  0  0  0
  183.2330  175.3250  137.8500 C   0  0  0  0  0  0  0  0  0  0  0  0
  185.7690  176.5420  137.2050 C   0  0  0  0  0  2  0  0  0  0  0  0
  186.1990  176.0670  134.5940 O   0  0  0  0  0  1  0  0  0  0  0  0
  185.1330  175.4640  135.0860 O   0  0  0  0  0  0  0  0  0  0  0  0
  183.8710  179.3320  142.2780 C   0  0  0  0  0  2  0  0  0  0  0  0
  184.5140  178.8170  143.5320 C   0  0  0  0  0  0  0  0  0  0  0  0
  183.8760  179.0160  144.7610 C   0  0  0  0  0  3  0  0  0  0  0  0
  186.3270  177.6780  144.6760 C   0  0  0  0  0  0  0  0  0  0  0  0
  184.4550  178.5420  145.9420 C   0  0  0  0  0  3  0  0  0  0  0  0
  186.4050  177.9840  142.3160 F   0  0  0  0  0  0  0  0  0  0  0  0
  185.7520  178.1550  143.4920 C   0  0  0  0  0  0  0  0  0  0  0  0
  187.5200  177.0320  144.6440 F   0  0  0  0  0  0  0  0  0  0  0  0
  185.6790  177.8710  145.8980 C   0  0  0  0  0  3  0  0  0  0  0  0
  1  7  1  0  0  0  0
  2 14  1  6  0  0  0
  2  4  1  0  0  0  0
  3  6  1  6  0  0  0
  3  7  1  0  0  0  0
  3 10  1  0  0  0  0
  3  5  1  0  0  0  0
  4 10  1  0  0  0  0
  5  9  2  0  0  0  0
  7  5  1  0  0  0  0
  8  2  1  0  0  0  0
  8  6  1  0  0  0  0
 10 20  1  6  0  0  0
 11 14  1  0  0  0  0
 12 16  1  0  0  0  0
 13 19  1  6  0  0  0
 13 12  1  0  0  0  0
 13 17  1  0  0  0  0
 16 14  1  0  0  0  0
 16 15  2  0  0  0  0
 17 11  1  0  0  0  0
 18 19  1  0  0  0  0
 20 21  1  0  0  0  0
 21 22  1  0  0  0  0
 22 24  2  0  0  0  0
 23 28  2  0  0  0  0
 25 26  1  0  0  0  0
 26 21  2  0  0  0  0
 26 23  1  0  0  0  0
 27 23  1  0  0  0  0
 28 24  1  0  0  0  0
M  END
>  <MODEL>
9

>  <REMARK>
 VINA RESULT:      -7.1      4.763      6.722
  Name = 
  4 active torsions:
  status: ('A' for Active; 'I' for Inactive)
    1  A    between atoms: C_1  and  C_2
    2  A    between atoms: C_1  and  C_27
    3  A    between atoms: C_10  and  N_13
    4  A    between atoms: C_12  and  O_23
                            x       y       z     vdW  Elec       q    Type
                         _______ _______ _______ _____ _____    ______ ____

>  <TORSDO>
F 4

$$$$
