=
 OpenBabel10262423113D

 34 38  0  0  1  0  0  0  0  0999 V2000
  189.1260  177.5950  144.8810 C   0  0  0  0  0  0  0  0  0  0  0  0
  191.6030  177.8300  141.9440 C   0  0  0  0  0  2  0  0  0  0  0  0
  191.7730  177.0190  144.2960 O   0  0  0  0  0  0  0  0  0  0  0  0
  189.8290  176.8830  147.2110 C   0  0  0  0  0  0  0  0  0  0  0  0
  191.0580  176.5110  147.7190 O   0  0  0  0  0  0  0  0  0  0  0  0
  188.8150  177.0980  147.9240 O   0  0  0  0  0  0  0  0  0  0  0  0
  191.1790  176.3050  145.3790 C   0  0  2  0  0  3  0  0  0  0  0  0
  189.8920  176.9380  145.7690 C   0  0  0  0  0  0  0  0  0  0  0  0
  192.0110  176.3400  146.6680 C   0  0  0  0  0  2  0  0  0  0  0  0
  191.0430  176.9220  140.8570 C   0  0  0  0  0  2  0  0  0  0  0  0
  189.7380  177.4810  140.2940 C   0  0  2  0  0  3  0  0  0  0  0  0
  188.5860  177.3600  141.2880 C   0  0  0  0  0  2  0  0  0  0  0  0
  190.9670  177.5360  143.2670 C   0  0  0  0  0  0  0  0  0  0  0  0
  188.7540  178.3390  142.4420 C   0  0  0  0  0  2  0  0  0  0  0  0
  189.6530  177.7710  143.5020 C   0  0  0  0  0  0  0  0  0  0  0  0
  189.3910  176.7690  139.0310 C   0  0  0  0  0  0  0  0  0  0  0  0
  190.2000  175.7450  138.5520 O   0  0  0  0  0  1  0  0  0  0  0  0
  188.3550  177.0960  138.3970 O   0  0  0  0  0  0  0  0  0  0  0  0
  187.9040  178.2450  145.2460 N   0  0  0  0  0  2  0  0  0  0  0  0
  186.6470  177.5310  145.3990 C   0  0  0  0  0  2  0  0  0  0  0  0
  185.5430  178.4800  145.4230 N   0  0  0  0  0  2  0  0  0  0  0  0
  182.2820  178.9550  143.6750 C   0  0  0  0  0  3  0  0  0  0  0  0
  184.9600  178.4410  143.0240 C   0  0  0  0  0  3  0  0  0  0  0  0
  182.0700  178.7460  139.9760 C   0  0  0  0  0  0  0  0  0  0  0  0
  181.7010  178.9010  141.3230 C   0  0  0  0  0  3  0  0  0  0  0  0
  182.6560  178.8020  142.3380 C   0  0  0  0  0  0  0  0  0  0  0  0
  184.3780  178.3870  140.6740 C   0  0  0  0  0  3  0  0  0  0  0  0
  184.0050  178.5430  142.0090 C   0  0  0  0  0  0  0  0  0  0  0  0
  183.4160  178.4880  139.6650 C   0  0  0  0  0  3  0  0  0  0  0  0
  184.5820  178.5910  144.3670 C   0  0  0  0  0  0  0  0  0  0  0  0
  183.2440  178.8500  144.6860 C   0  0  0  0  0  3  0  0  0  0  0  0
  181.0840  178.8490  138.9310 N   0  0  0  0  0  0  0  0  0  0  0  0
  181.4350  179.3490  137.6100 C   0  0  0  0  0  1  0  0  0  0  0  0
  179.7010  178.4560  139.1580 C   0  0  0  0  0  1  0  0  0  0  0  0
  1 19  1  0  0  0  0
  1  8  2  0  0  0  0
  2 13  1  0  0  0  0
  3  7  1  0  0  0  0
  4  5  1  0  0  0  0
  4  6  2  0  0  0  0
  7  8  1  0  0  0  0
  7  9  1  1  0  0  0
  8  4  1  0  0  0  0
  9  5  1  0  0  0  0
 10  2  1  0  0  0  0
 11 16  1  6  0  0  0
 11 10  1  0  0  0  0
 11 12  1  0  0  0  0
 12 14  1  0  0  0  0
 13 15  2  0  0  0  0
 13  3  1  0  0  0  0
 14 15  1  0  0  0  0
 15  1  1  0  0  0  0
 17 16  1  0  0  0  0
 18 16  2  0  0  0  0
 19 20  1  0  0  0  0
 20 21  1  0  0  0  0
 22 31  1  0  0  0  0
 23 30  1  0  0  0  0
 24 25  2  0  0  0  0
 25 26  1  0  0  0  0
 26 22  2  0  0  0  0
 27 28  1  0  0  0  0
 28 26  1  0  0  0  0
 28 23  2  0  0  0  0
 29 24  1  0  0  0  0
 29 27  2  0  0  0  0
 30 31  2  0  0  0  0
 30 21  1  0  0  0  0
 32 34  1  0  0  0  0
 32 24  1  0  0  0  0
 33 32  1  0  0  0  0
M  END
>  <MODEL>
1

>  <REMARK>
 VINA RESULT:      -9.2      0.000      0.000
  Name = 
  6 active torsions:
  status: ('A' for Active; 'I' for Inactive)
    1  A    between atoms: C_1  and  N_9
    2  A    between atoms: C_3  and  C_25
    3  A    between atoms: C_7  and  N_11
    4  A    between atoms: C_8  and  N_9
    5  A    between atoms: C_8  and  N_18
    6  A    between atoms: N_18  and  C_30
                            x       y       z     vdW  Elec       q    Type
                         _______ _______ _______ _____ _____    ______ ____

>  <TORSDO>
F 6

$$$$
=
 OpenBabel10262423113D

 34 38  0  0  1  0  0  0  0  0999 V2000
  182.3240  178.8790  141.8800 C   0  0  0  0  0  0  0  0  0  0  0  0
  183.7440  177.4630  138.5950 C   0  0  0  0  0  2  0  0  0  0  0  0
  181.6060  178.5840  139.2200 O   0  0  0  0  0  0  0  0  0  0  0  0
  179.9530  179.7540  142.0820 C   0  0  0  0  0  0  0  0  0  0  0  0
  178.9340  179.8490  141.1550 O   0  0  0  0  0  0  0  0  0  0  0  0
  179.7970  179.9570  143.3140 O   0  0  0  0  0  0  0  0  0  0  0  0
  180.9450  179.6090  139.9580 C   0  0  2  0  0  3  0  0  0  0  0  0
  181.1940  179.4380  141.4140 C   0  0  0  0  0  0  0  0  0  0  0  0
  179.4150  179.5640  139.8400 C   0  0  0  0  0  2  0  0  0  0  0  0
  184.9840  178.2920  138.2890 C   0  0  0  0  0  2  0  0  0  0  0  0
  186.0840  178.0320  139.3160 C   0  0  2  0  0  3  0  0  0  0  0  0
  185.7530  178.6380  140.6770 C   0  0  0  0  0  2  0  0  0  0  0  0
  182.8820  178.1450  139.6110 C   0  0  0  0  0  0  0  0  0  0  0  0
  184.6360  177.8640  141.3630 C   0  0  0  0  0  2  0  0  0  0  0  0
  183.2890  178.3300  140.8910 C   0  0  0  0  0  0  0  0  0  0  0  0
  187.3760  178.5860  138.8200 C   0  0  0  0  0  0  0  0  0  0  0  0
  188.4520  178.7490  139.6840 O   0  0  0  0  0  1  0  0  0  0  0  0
  187.4930  178.9050  137.6090 O   0  0  0  0  0  0  0  0  0  0  0  0
  182.5640  178.6700  143.2750 N   0  0  0  0  0  2  0  0  0  0  0  0
  183.1220  179.6950  144.1420 C   0  0  0  0  0  2  0  0  0  0  0  0
  183.6020  179.0870  145.3750 N   0  0  0  0  0  2  0  0  0  0  0  0
  186.8200  178.1910  147.0360 C   0  0  0  0  0  3  0  0  0  0  0  0
  185.7120  178.1890  144.4600 C   0  0  0  0  0  3  0  0  0  0  0  0
  189.6730  176.8910  145.0530 C   0  0  0  0  0  0  0  0  0  0  0  0
  188.8980  177.3260  146.1410 C   0  0  0  0  0  3  0  0  0  0  0  0
  187.5840  177.7570  145.9500 C   0  0  0  0  0  0  0  0  0  0  0  0
  187.7910  177.3260  143.5670 C   0  0  0  0  0  3  0  0  0  0  0  0
  187.0260  177.7560  144.6520 C   0  0  0  0  0  0  0  0  0  0  0  0
  189.1050  176.8960  143.7670 C   0  0  0  0  0  3  0  0  0  0  0  0
  184.9460  178.6290  145.5520 C   0  0  0  0  0  0  0  0  0  0  0  0
  185.5040  178.6260  146.8350 C   0  0  0  0  0  3  0  0  0  0  0  0
  191.0290  176.4460  145.2520 N   0  0  0  0  0  0  0  0  0  0  0  0
  191.7820  175.8180  144.1760 C   0  0  0  0  0  1  0  0  0  0  0  0
  191.6960  176.6090  146.5350 C   0  0  0  0  0  1  0  0  0  0  0  0
  1 19  1  0  0  0  0
  2 13  1  0  0  0  0
  3 13  1  0  0  0  0
  3  7  1  0  0  0  0
  4  6  2  0  0  0  0
  5  4  1  0  0  0  0
  7  9  1  1  0  0  0
  7  8  1  0  0  0  0
  8  1  2  0  0  0  0
  8  4  1  0  0  0  0
  9  5  1  0  0  0  0
 10  2  1  0  0  0  0
 10 11  1  0  0  0  0
 11 16  1  6  0  0  0
 11 12  1  0  0  0  0
 12 14  1  0  0  0  0
 13 15  2  0  0  0  0
 15 14  1  0  0  0  0
 15  1  1  0  0  0  0
 16 17  1  0  0  0  0
 18 16  2  0  0  0  0
 19 20  1  0  0  0  0
 20 21  1  0  0  0  0
 21 30  1  0  0  0  0
 23 28  2  0  0  0  0
 23 30  1  0  0  0  0
 24 32  1  0  0  0  0
 24 25  2  0  0  0  0
 26 25  1  0  0  0  0
 26 22  2  0  0  0  0
 27 29  2  0  0  0  0
 27 28  1  0  0  0  0
 28 26  1  0  0  0  0
 29 24  1  0  0  0  0
 30 31  2  0  0  0  0
 31 22  1  0  0  0  0
 32 34  1  0  0  0  0
 33 32  1  0  0  0  0
M  END
>  <MODEL>
2

>  <REMARK>
 VINA RESULT:      -8.9      3.219      8.244
  Name = 
  6 active torsions:
  status: ('A' for Active; 'I' for Inactive)
    1  A    between atoms: C_1  and  N_9
    2  A    between atoms: C_3  and  C_25
    3  A    between atoms: C_7  and  N_11
    4  A    between atoms: C_8  and  N_9
    5  A    between atoms: C_8  and  N_18
    6  A    between atoms: N_18  and  C_30
                            x       y       z     vdW  Elec       q    Type
                         _______ _______ _______ _____ _____    ______ ____

>  <TORSDO>
F 6

$$$$
=
 OpenBabel10262423113D

 34 38  0  0  1  0  0  0  0  0999 V2000
  190.1510  176.2620  137.7180 C   0  0  0  0  0  0  0  0  0  0  0  0
  186.7230  176.9090  136.0900 C   0  0  0  0  0  2  0  0  0  0  0  0
  188.3410  175.0120  136.0320 O   0  0  0  0  0  0  0  0  0  0  0  0
  191.5580  174.2230  137.1800 C   0  0  0  0  0  0  0  0  0  0  0  0
  191.3350  173.1590  136.3280 O   0  0  0  0  0  0  0  0  0  0  0  0
  192.6590  174.4430  137.7490 O   0  0  0  0  0  0  0  0  0  0  0  0
  189.2520  174.1730  136.7390 C   0  0  2  0  0  3  0  0  0  0  0  0
  190.3430  174.9870  137.3380 C   0  0  0  0  0  0  0  0  0  0  0  0
  189.9920  173.1730  135.8390 C   0  0  0  0  0  2  0  0  0  0  0  0
  185.7360  177.0410  137.2430 C   0  0  0  0  0  2  0  0  0  0  0  0
  186.0100  178.3030  138.0570 C   0  0  2  0  0  3  0  0  0  0  0  0
  187.2880  178.1880  138.8820 C   0  0  0  0  0  2  0  0  0  0  0  0
  187.9980  176.2730  136.5490 C   0  0  0  0  0  0  0  0  0  0  0  0
  188.5220  178.2400  137.9910 C   0  0  0  0  0  2  0  0  0  0  0  0
  188.8330  176.8850  137.4240 C   0  0  0  0  0  0  0  0  0  0  0  0
  184.8530  178.5820  138.9560 C   0  0  0  0  0  0  0  0  0  0  0  0
  184.7990  179.7610  139.6900 O   0  0  0  0  0  1  0  0  0  0  0  0
  183.9200  177.7440  139.0470 O   0  0  0  0  0  0  0  0  0  0  0  0
  191.1980  177.0730  138.2590 N   0  0  0  0  0  2  0  0  0  0  0  0
  191.5450  177.0740  139.6710 C   0  0  0  0  0  2  0  0  0  0  0  0
  190.5380  176.3410  140.4250 N   0  0  0  0  0  2  0  0  0  0  0  0
  190.7200  177.3940  143.9980 C   0  0  0  0  0  3  0  0  0  0  0  0
  188.7660  176.7410  142.0970 C   0  0  0  0  0  3  0  0  0  0  0  0
  187.6290  177.7980  146.0110 C   0  0  0  0  0  0  0  0  0  0  0  0
  188.9860  177.7710  145.6480 C   0  0  0  0  0  3  0  0  0  0  0  0
  189.3690  177.4220  144.3510 C   0  0  0  0  0  0  0  0  0  0  0  0
  187.0340  177.1160  143.7470 C   0  0  0  0  0  3  0  0  0  0  0  0
  188.3840  177.0920  143.3940 C   0  0  0  0  0  0  0  0  0  0  0  0
  186.6600  177.4670  145.0470 C   0  0  0  0  0  3  0  0  0  0  0  0
  190.1250  176.7100  141.7440 C   0  0  0  0  0  0  0  0  0  0  0  0
  191.0950  177.0390  142.6980 C   0  0  0  0  0  3  0  0  0  0  0  0
  187.2360  178.1590  147.3490 N   0  0  0  0  0  0  0  0  0  0  0  0
  186.0130  178.9070  147.6000 C   0  0  0  0  0  1  0  0  0  0  0  0
  188.0470  177.7890  148.4990 C   0  0  0  0  0  1  0  0  0  0  0  0
  1 19  1  0  0  0  0
  2 13  1  0  0  0  0
  2 10  1  0  0  0  0
  3 13  1  0  0  0  0
  3  7  1  0  0  0  0
  4  8  1  0  0  0  0
  4  6  2  0  0  0  0
  5  4  1  0  0  0  0
  7  9  1  6  0  0  0
  7  8  1  0  0  0  0
  8  1  2  0  0  0  0
  9  5  1  0  0  0  0
 10 11  1  0  0  0  0
 11 12  1  0  0  0  0
 11 16  1  1  0  0  0
 13 15  2  0  0  0  0
 14 12  1  0  0  0  0
 15  1  1  0  0  0  0
 15 14  1  0  0  0  0
 16 18  2  0  0  0  0
 16 17  1  0  0  0  0
 19 20  1  0  0  0  0
 20 21  1  0  0  0  0
 21 30  1  0  0  0  0
 22 26  1  0  0  0  0
 23 28  1  0  0  0  0
 24 32  1  0  0  0  0
 25 24  1  0  0  0  0
 26 25  2  0  0  0  0
 27 29  1  0  0  0  0
 28 27  2  0  0  0  0
 28 26  1  0  0  0  0
 29 24  2  0  0  0  0
 30 23  2  0  0  0  0
 30 31  1  0  0  0  0
 31 22  2  0  0  0  0
 32 33  1  0  0  0  0
 32 34  1  0  0  0  0
M  END
>  <MODEL>
3

>  <REMARK>
 VINA RESULT:      -8.9      4.041      7.996
  Name = 
  6 active torsions:
  status: ('A' for Active; 'I' for Inactive)
    1  A    between atoms: C_1  and  N_9
    2  A    between atoms: C_3  and  C_25
    3  A    between atoms: C_7  and  N_11
    4  A    between atoms: C_8  and  N_9
    5  A    between atoms: C_8  and  N_18
    6  A    between atoms: N_18  and  C_30
                            x       y       z     vdW  Elec       q    Type
                         _______ _______ _______ _____ _____    ______ ____

>  <TORSDO>
F 6

$$$$
=
 OpenBabel10262423113D

 34 38  0  0  1  0  0  0  0  0999 V2000
  184.5140  178.4700  140.1310 C   0  0  0  0  0  0  0  0  0  0  0  0
  182.6860  179.3340  143.4060 C   0  0  0  0  0  2  0  0  0  0  0  0
  181.9760  178.3350  141.2340 O   0  0  0  0  0  0  0  0  0  0  0  0
  183.3010  177.6470  138.0620 C   0  0  0  0  0  0  0  0  0  0  0  0
  181.9620  177.4080  137.8250 O   0  0  0  0  0  0  0  0  0  0  0  0
  184.1810  177.6460  137.1620 O   0  0  0  0  0  0  0  0  0  0  0  0
  182.2610  177.4450  140.1580 C   0  0  2  0  0  3  0  0  0  0  0  0
  183.5200  177.8470  139.4760 C   0  0  0  0  0  0  0  0  0  0  0  0
  181.2110  177.4750  139.0390 C   0  0  0  0  0  2  0  0  0  0  0  0
  183.3260  178.4630  144.4790 C   0  0  0  0  0  2  0  0  0  0  0  0
  184.7720  178.8800  144.7340 C   0  0  2  0  0  3  0  0  0  0  0  0
  185.6920  178.5030  143.5770 C   0  0  0  0  0  2  0  0  0  0  0  0
  183.0190  178.8270  142.0370 C   0  0  0  0  0  0  0  0  0  0  0  0
  185.4300  179.3810  142.3610 C   0  0  0  0  0  2  0  0  0  0  0  0
  184.2840  178.8500  141.5490 C   0  0  0  0  0  0  0  0  0  0  0  0
  185.2620  178.2500  145.9930 C   0  0  0  0  0  0  0  0  0  0  0  0
  184.4800  178.2650  147.1420 O   0  0  0  0  0  1  0  0  0  0  0  0
  186.3920  177.6970  146.0130 O   0  0  0  0  0  0  0  0  0  0  0  0
  185.7150  178.9010  139.4820 N   0  0  0  0  0  2  0  0  0  0  0  0
  186.8260  178.0050  139.2050 C   0  0  0  0  0  2  0  0  0  0  0  0
  188.0650  178.5930  139.6940 N   0  0  0  0  0  2  0  0  0  0  0  0
  190.5280  176.4720  141.5250 C   0  0  0  0  0  3  0  0  0  0  0  0
  188.6340  178.4590  142.0930 C   0  0  0  0  0  3  0  0  0  0  0  0
  190.8860  176.7400  145.2080 C   0  0  0  0  0  0  0  0  0  0  0  0
  191.0780  176.3240  143.8800 C   0  0  0  0  0  3  0  0  0  0  0  0
  190.3340  176.8920  142.8430 C   0  0  0  0  0  0  0  0  0  0  0  0
  189.1830  178.3090  144.4470 C   0  0  0  0  0  3  0  0  0  0  0  0
  189.3800  177.8920  143.1300 C   0  0  0  0  0  0  0  0  0  0  0  0
  189.9320  177.7360  145.4790 C   0  0  0  0  0  3  0  0  0  0  0  0
  188.8270  178.0340  140.7700 C   0  0  0  0  0  0  0  0  0  0  0  0
  189.7760  177.0430  140.4920 C   0  0  0  0  0  3  0  0  0  0  0  0
  191.6540  176.1540  146.2770 N   0  0  0  0  0  0  0  0  0  0  0  0
  191.6810  176.7530  147.6030 C   0  0  0  0  0  1  0  0  0  0  0  0
  192.4310  174.9410  146.0690 C   0  0  0  0  0  1  0  0  0  0  0  0
  1 15  1  0  0  0  0
  2 10  1  0  0  0  0
  3 13  1  0  0  0  0
  4  8  1  0  0  0  0
  5  4  1  0  0  0  0
  5  9  1  0  0  0  0
  6  4  2  0  0  0  0
  7  9  1  6  0  0  0
  7  3  1  0  0  0  0
  8  1  2  0  0  0  0
  8  7  1  0  0  0  0
 10 11  1  0  0  0  0
 11 16  1  1  0  0  0
 12 11  1  0  0  0  0
 13  2  1  0  0  0  0
 14 12  1  0  0  0  0
 15 13  2  0  0  0  0
 15 14  1  0  0  0  0
 16 18  2  0  0  0  0
 16 17  1  0  0  0  0
 19  1  1  0  0  0  0
 20 19  1  0  0  0  0
 20 21  1  0  0  0  0
 21 30  1  0  0  0  0
 22 26  1  0  0  0  0
 23 28  1  0  0  0  0
 24 29  1  0  0  0  0
 24 32  1  0  0  0  0
 25 24  2  0  0  0  0
 26 28  2  0  0  0  0
 26 25  1  0  0  0  0
 27 29  2  0  0  0  0
 28 27  1  0  0  0  0
 30 23  2  0  0  0  0
 31 30  1  0  0  0  0
 31 22  2  0  0  0  0
 32 33  1  0  0  0  0
 34 32  1  0  0  0  0
M  END
>  <MODEL>
4

>  <REMARK>
 VINA RESULT:      -8.7      2.699      9.183
  Name = 
  6 active torsions:
  status: ('A' for Active; 'I' for Inactive)
    1  A    between atoms: C_1  and  N_9
    2  A    between atoms: C_3  and  C_25
    3  A    between atoms: C_7  and  N_11
    4  A    between atoms: C_8  and  N_9
    5  A    between atoms: C_8  and  N_18
    6  A    between atoms: N_18  and  C_30
                            x       y       z     vdW  Elec       q    Type
                         _______ _______ _______ _____ _____    ______ ____

>  <TORSDO>
F 6

$$$$
=
 OpenBabel10262423113D

 34 38  0  0  1  0  0  0  0  0999 V2000
  189.3210  176.9300  145.0010 C   0  0  0  0  0  0  0  0  0  0  0  0
  185.5430  177.5380  145.4220 C   0  0  0  0  0  2  0  0  0  0  0  0
  187.5230  177.8230  146.9120 O   0  0  0  0  0  0  0  0  0  0  0  0
  190.9670  177.1650  146.9160 C   0  0  0  0  0  0  0  0  0  0  0  0
  190.7820  177.5110  148.2400 O   0  0  0  0  0  0  0  0  0  0  0  0
  192.0500  176.7220  146.4550 O   0  0  0  0  0  0  0  0  0  0  0  0
  188.8800  178.2340  147.0590 C   0  0  2  0  0  3  0  0  0  0  0  0
  189.7610  177.4340  146.1680 C   0  0  0  0  0  0  0  0  0  0  0  0
  189.4510  177.9810  148.4620 C   0  0  0  0  0  2  0  0  0  0  0  0
  185.1830  178.6170  144.4100 C   0  0  0  0  0  2  0  0  0  0  0  0
  185.3230  178.0970  142.9810 C   0  0  2  0  0  3  0  0  0  0  0  0
  186.7830  177.9070  142.5790 C   0  0  0  0  0  2  0  0  0  0  0  0
  187.0230  177.4850  145.6430 C   0  0  0  0  0  0  0  0  0  0  0  0
  187.3980  176.7150  143.3000 C   0  0  0  0  0  2  0  0  0  0  0  0
  187.8830  177.1030  144.6660 C   0  0  0  0  0  0  0  0  0  0  0  0
  184.6600  179.0400  142.0350 C   0  0  0  0  0  0  0  0  0  0  0  0
  185.4050  179.7260  141.0840 O   0  0  0  0  0  0  0  0  0  0  0  0
  183.4150  179.2120  142.0990 O   0  0  0  0  0  1  0  0  0  0  0  0
  190.1410  176.1240  144.1500 N   0  0  0  0  0  2  0  0  0  0  0  0
  191.3610  176.6190  143.5320 C   0  0  0  0  0  2  0  0  0  0  0  0
  191.0460  177.7250  142.6390 N   0  0  0  0  0  2  0  0  0  0  0  0
  191.2840  176.8850  139.0130 C   0  0  0  0  0  3  0  0  0  0  0  0
  189.3750  177.8480  140.8260 C   0  0  0  0  0  3  0  0  0  0  0  0
  188.3590  177.3270  136.7730 C   0  0  0  0  0  0  0  0  0  0  0  0
  189.6540  177.0200  137.2260 C   0  0  0  0  0  3  0  0  0  0  0  0
  189.9950  177.1900  138.5700 C   0  0  0  0  0  0  0  0  0  0  0  0
  187.7470  177.9840  139.0390 C   0  0  0  0  0  3  0  0  0  0  0  0
  189.0330  177.6750  139.4820 C   0  0  0  0  0  0  0  0  0  0  0  0
  187.4130  177.8110  137.6930 C   0  0  0  0  0  3  0  0  0  0  0  0
  190.6720  177.5450  141.2700 C   0  0  0  0  0  0  0  0  0  0  0  0
  191.6200  177.0620  140.3600 C   0  0  0  0  0  3  0  0  0  0  0  0
  188.0090  177.1510  135.3870 N   0  0  0  0  0  0  0  0  0  0  0  0
  187.0680  178.0450  134.7270 C   0  0  0  0  0  1  0  0  0  0  0  0
  188.5820  176.0730  134.5950 C   0  0  0  0  0  1  0  0  0  0  0  0
  1  8  2  0  0  0  0
  2 13  1  0  0  0  0
  3  7  1  0  0  0  0
  4  5  1  0  0  0  0
  5  9  1  0  0  0  0
  6  4  2  0  0  0  0
  7  9  1  1  0  0  0
  8  4  1  0  0  0  0
  8  7  1  0  0  0  0
 10  2  1  0  0  0  0
 11 16  1  6  0  0  0
 11 10  1  0  0  0  0
 12 11  1  0  0  0  0
 12 14  1  0  0  0  0
 13  3  1  0  0  0  0
 14 15  1  0  0  0  0
 15  1  1  0  0  0  0
 15 13  2  0  0  0  0
 16 18  1  0  0  0  0
 17 16  2  0  0  0  0
 19  1  1  0  0  0  0
 20 19  1  0  0  0  0
 21 20  1  0  0  0  0
 22 31  1  0  0  0  0
 23 30  1  0  0  0  0
 24 25  2  0  0  0  0
 24 29  1  0  0  0  0
 25 26  1  0  0  0  0
 26 22  2  0  0  0  0
 26 28  1  0  0  0  0
 27 28  1  0  0  0  0
 28 23  2  0  0  0  0
 29 27  2  0  0  0  0
 30 21  1  0  0  0  0
 31 30  2  0  0  0  0
 32 24  1  0  0  0  0
 33 32  1  0  0  0  0
 34 32  1  0  0  0  0
M  END
>  <MODEL>
5

>  <REMARK>
 VINA RESULT:      -8.6      3.021      5.901
  Name = 
  6 active torsions:
  status: ('A' for Active; 'I' for Inactive)
    1  A    between atoms: C_1  and  N_9
    2  A    between atoms: C_3  and  C_25
    3  A    between atoms: C_7  and  N_11
    4  A    between atoms: C_8  and  N_9
    5  A    between atoms: C_8  and  N_18
    6  A    between atoms: N_18  and  C_30
                            x       y       z     vdW  Elec       q    Type
                         _______ _______ _______ _____ _____    ______ ____

>  <TORSDO>
F 6

$$$$
=
 OpenBabel10262423113D

 34 38  0  0  1  0  0  0  0  0999 V2000
  190.3120  177.5680  144.6750 C   0  0  0  0  0  0  0  0  0  0  0  0
  191.2710  177.1260  140.9730 C   0  0  0  0  0  2  0  0  0  0  0  0
  191.8760  175.9300  143.0770 O   0  0  0  0  0  0  0  0  0  0  0  0
  191.3750  176.2120  146.5360 C   0  0  0  0  0  0  0  0  0  0  0  0
  192.3400  175.2240  146.5080 O   0  0  0  0  0  0  0  0  0  0  0  0
  190.9550  176.7480  147.5940 O   0  0  0  0  0  0  0  0  0  0  0  0
  191.4600  175.4010  144.3340 C   0  0  2  0  0  3  0  0  0  0  0  0
  190.9140  176.4830  145.1940 C   0  0  0  0  0  0  0  0  0  0  0  0
  192.6080  174.8140  145.1660 C   0  0  0  0  0  2  0  0  0  0  0  0
  189.9750  176.7920  140.2480 C   0  0  0  0  0  2  0  0  0  0  0  0
  189.0240  177.9870  140.2490 C   0  0  2  0  0  3  0  0  0  0  0  0
  188.4330  178.2480  141.6320 C   0  0  0  0  0  2  0  0  0  0  0  0
  191.1210  176.9360  142.4510 C   0  0  0  0  0  0  0  0  0  0  0  0
  189.4830  178.8140  142.5780 C   0  0  0  0  0  2  0  0  0  0  0  0
  190.2980  177.7150  143.1960 C   0  0  0  0  0  0  0  0  0  0  0  0
  187.9250  177.7560  139.2680 C   0  0  0  0  0  0  0  0  0  0  0  0
  186.8110  178.5870  139.2460 O   0  0  0  0  0  1  0  0  0  0  0  0
  188.0100  176.8020  138.4520 O   0  0  0  0  0  0  0  0  0  0  0  0
  189.8170  178.6380  145.4850 N   0  0  0  0  0  2  0  0  0  0  0  0
  188.6210  178.5210  146.3030 C   0  0  0  0  0  2  0  0  0  0  0  0
  187.7060  177.5610  145.7000 N   0  0  0  0  0  2  0  0  0  0  0  0
  184.1170  178.5760  145.7120 C   0  0  0  0  0  3  0  0  0  0  0  0
  186.1120  177.9320  143.8510 C   0  0  0  0  0  3  0  0  0  0  0  0
  182.2440  178.9390  142.5300 C   0  0  0  0  0  0  0  0  0  0  0  0
  182.5440  178.9240  143.9030 C   0  0  0  0  0  3  0  0  0  0  0  0
  183.8260  178.5910  144.3460 C   0  0  0  0  0  0  0  0  0  0  0  0
  184.5390  178.2790  142.0430 C   0  0  0  0  0  3  0  0  0  0  0  0
  184.8300  178.2670  143.4080 C   0  0  0  0  0  0  0  0  0  0  0  0
  183.2530  178.6130  141.6080 C   0  0  0  0  0  3  0  0  0  0  0  0
  186.4030  177.9130  145.2240 C   0  0  0  0  0  0  0  0  0  0  0  0
  185.4030  178.2370  146.1480 C   0  0  0  0  0  3  0  0  0  0  0  0
  180.9200  179.2830  142.0740 N   0  0  0  0  0  0  0  0  0  0  0  0
  180.0510  180.1430  142.8640 C   0  0  0  0  0  1  0  0  0  0  0  0
  180.4050  178.7840  140.8090 C   0  0  0  0  0  1  0  0  0  0  0  0
  1  8  2  0  0  0  0
  1 19  1  0  0  0  0
  2 13  1  0  0  0  0
  3  7  1  0  0  0  0
  4  6  2  0  0  0  0
  5  4  1  0  0  0  0
  7  9  1  1  0  0  0
  7  8  1  0  0  0  0
  8  4  1  0  0  0  0
  9  5  1  0  0  0  0
 10 11  1  0  0  0  0
 10  2  1  0  0  0  0
 11 16  1  6  0  0  0
 11 12  1  0  0  0  0
 12 14  1  0  0  0  0
 13  3  1  0  0  0  0
 13 15  2  0  0  0  0
 14 15  1  0  0  0  0
 15  1  1  0  0  0  0
 17 16  1  0  0  0  0
 18 16  2  0  0  0  0
 19 20  1  0  0  0  0
 21 20  1  0  0  0  0
 22 31  1  0  0  0  0
 23 30  1  0  0  0  0
 24 25  2  0  0  0  0
 25 26  1  0  0  0  0
 26 22  2  0  0  0  0
 27 28  1  0  0  0  0
 28 23  2  0  0  0  0
 28 26  1  0  0  0  0
 29 27  2  0  0  0  0
 29 24  1  0  0  0  0
 30 21  1  0  0  0  0
 30 31  2  0  0  0  0
 32 24  1  0  0  0  0
 32 33  1  0  0  0  0
 34 32  1  0  0  0  0
M  END
>  <MODEL>
6

>  <REMARK>
 VINA RESULT:      -8.6      1.451      2.198
  Name = 
  6 active torsions:
  status: ('A' for Active; 'I' for Inactive)
    1  A    between atoms: C_1  and  N_9
    2  A    between atoms: C_3  and  C_25
    3  A    between atoms: C_7  and  N_11
    4  A    between atoms: C_8  and  N_9
    5  A    between atoms: C_8  and  N_18
    6  A    between atoms: N_18  and  C_30
                            x       y       z     vdW  Elec       q    Type
                         _______ _______ _______ _____ _____    ______ ____

>  <TORSDO>
F 6

$$$$
=
 OpenBabel10262423113D

 34 38  0  0  1  0  0  0  0  0999 V2000
  187.6080  177.9750  144.1830 C   0  0  0  0  0  0  0  0  0  0  0  0
  189.4160  178.1660  147.5770 C   0  0  0  0  0  2  0  0  0  0  0  0
  187.0200  178.1740  146.8840 O   0  0  0  0  0  0  0  0  0  0  0  0
  185.0970  178.2440  143.9530 C   0  0  0  0  0  0  0  0  0  0  0  0
  184.1140  178.4680  144.8960 O   0  0  0  0  0  0  0  0  0  0  0  0
  184.9010  178.3030  142.7110 O   0  0  0  0  0  0  0  0  0  0  0  0
  186.0000  177.6480  146.0370 C   0  0  2  0  0  3  0  0  0  0  0  0
  186.3360  177.8970  144.6110 C   0  0  0  0  0  0  0  0  0  0  0  0
  184.6370  178.3300  146.2190 C   0  0  0  0  0  2  0  0  0  0  0  0
  190.1690  176.8500  147.7190 C   0  0  0  0  0  2  0  0  0  0  0  0
  191.2990  176.7520  146.6960 C   0  0  2  0  0  3  0  0  0  0  0  0
  190.7730  176.5450  145.2780 C   0  0  0  0  0  2  0  0  0  0  0  0
  188.3700  178.0710  146.5090 C   0  0  0  0  0  0  0  0  0  0  0  0
  190.1170  177.8130  144.7470 C   0  0  0  0  0  2  0  0  0  0  0  0
  188.6900  177.9110  145.2010 C   0  0  0  0  0  0  0  0  0  0  0  0
  192.2120  175.6330  147.0630 C   0  0  0  0  0  0  0  0  0  0  0  0
  192.8190  175.5970  148.3130 O   0  0  0  0  0  1  0  0  0  0  0  0
  192.4330  174.7120  146.2340 O   0  0  0  0  0  0  0  0  0  0  0  0
  187.9500  178.2540  142.8220 N   0  0  0  0  0  2  0  0  0  0  0  0
  188.2920  177.2130  141.8660 C   0  0  0  0  0  2  0  0  0  0  0  0
  188.6750  177.8190  140.5980 N   0  0  0  0  0  2  0  0  0  0  0  0
  192.2600  177.1280  139.8370 C   0  0  0  0  0  3  0  0  0  0  0  0
  189.7820  177.0490  138.5290 C   0  0  0  0  0  3  0  0  0  0  0  0
  193.2930  175.9980  136.4570 C   0  0  0  0  0  0  0  0  0  0  0  0
  193.3540  176.3890  137.8050 C   0  0  0  0  0  3  0  0  0  0  0  0
  192.1920  176.7380  138.4980 C   0  0  0  0  0  0  0  0  0  0  0  0
  190.8760  176.3120  136.4990 C   0  0  0  0  0  3  0  0  0  0  0  0
  190.9440  176.6980  137.8380 C   0  0  0  0  0  0  0  0  0  0  0  0
  192.0430  175.9650  135.8140 C   0  0  0  0  0  3  0  0  0  0  0  0
  189.8510  177.4450  139.8750 C   0  0  0  0  0  0  0  0  0  0  0  0
  191.0920  177.4800  140.5220 C   0  0  0  0  0  3  0  0  0  0  0  0
  194.4930  175.6390  135.7440 N   0  0  0  0  0  0  0  0  0  0  0  0
  195.0010  174.2750  135.7640 C   0  0  0  0  0  1  0  0  0  0  0  0
  195.2400  176.6260  134.9790 C   0  0  0  0  0  1  0  0  0  0  0  0
  1  8  2  0  0  0  0
  1 15  1  0  0  0  0
  2 10  1  0  0  0  0
  4  8  1  0  0  0  0
  4  5  1  0  0  0  0
  5  9  1  0  0  0  0
  6  4  2  0  0  0  0
  7  9  1  1  0  0  0
  7  3  1  0  0  0  0
  8  7  1  0  0  0  0
 11 16  1  1  0  0  0
 11 10  1  0  0  0  0
 12 11  1  0  0  0  0
 13  3  1  0  0  0  0
 13  2  1  0  0  0  0
 14 15  1  0  0  0  0
 14 12  1  0  0  0  0
 15 13  2  0  0  0  0
 16 17  1  0  0  0  0
 18 16  2  0  0  0  0
 19  1  1  0  0  0  0
 20 19  1  0  0  0  0
 21 20  1  0  0  0  0
 22 31  1  0  0  0  0
 23 30  1  0  0  0  0
 24 25  2  0  0  0  0
 25 26  1  0  0  0  0
 26 22  2  0  0  0  0
 27 28  1  0  0  0  0
 28 26  1  0  0  0  0
 28 23  2  0  0  0  0
 29 24  1  0  0  0  0
 29 27  2  0  0  0  0
 30 31  2  0  0  0  0
 30 21  1  0  0  0  0
 32 33  1  0  0  0  0
 32 24  1  0  0  0  0
 34 32  1  0  0  0  0
M  END
>  <MODEL>
7

>  <REMARK>
 VINA RESULT:      -8.5      3.623      8.359
  Name = 
  6 active torsions:
  status: ('A' for Active; 'I' for Inactive)
    1  A    between atoms: C_1  and  N_9
    2  A    between atoms: C_3  and  C_25
    3  A    between atoms: C_7  and  N_11
    4  A    between atoms: C_8  and  N_9
    5  A    between atoms: C_8  and  N_18
    6  A    between atoms: N_18  and  C_30
                            x       y       z     vdW  Elec       q    Type
                         _______ _______ _______ _____ _____    ______ ____

>  <TORSDO>
F 6

$$$$
=
 OpenBabel10262423113D

 34 38  0  0  1  0  0  0  0  0999 V2000
  180.8520  179.2060  139.8660 C   0  0  0  0  0  0  0  0  0  0  0  0
  181.7550  177.7370  136.4240 C   0  0  0  0  0  2  0  0  0  0  0  0
  180.8050  179.9140  137.1860 O   0  0  0  0  0  0  0  0  0  0  0  0
  179.6810  181.4380  140.1370 C   0  0  0  0  0  0  0  0  0  0  0  0
  179.2450  182.3590  139.2040 O   0  0  0  0  0  0  0  0  0  0  0  0
  179.3970  181.4970  141.3610 O   0  0  0  0  0  0  0  0  0  0  0  0
  180.8210  180.9770  138.1360 C   0  0  2  0  0  3  0  0  0  0  0  0
  180.5260  180.4570  139.4970 C   0  0  0  0  0  0  0  0  0  0  0  0
  179.7280  182.0290  137.9000 C   0  0  0  0  0  2  0  0  0  0  0  0
  183.2590  177.5030  136.4560 C   0  0  0  0  0  2  0  0  0  0  0  0
  183.6200  176.3950  137.4430 C   0  0  2  0  0  3  0  0  0  0  0  0
  183.4420  176.8380  138.8930 C   0  0  0  0  0  2  0  0  0  0  0  0
  181.3330  178.6570  137.5280 C   0  0  0  0  0  0  0  0  0  0  0  0
  181.9680  176.9660  139.2490 C   0  0  0  0  0  2  0  0  0  0  0  0
  181.4270  178.3040  138.8330 C   0  0  0  0  0  0  0  0  0  0  0  0
  185.0290  175.9610  137.2190 C   0  0  0  0  0  0  0  0  0  0  0  0
  185.3440  174.6110  137.1190 O   0  0  0  0  0  1  0  0  0  0  0  0
  185.9370  176.8250  137.1160 O   0  0  0  0  0  0  0  0  0  0  0  0
  180.5410  178.6750  141.1570 N   0  0  0  0  0  2  0  0  0  0  0  0
  181.3010  179.0080  142.3510 C   0  0  0  0  0  2  0  0  0  0  0  0
  182.7180  178.7730  142.1130 N   0  0  0  0  0  2  0  0  0  0  0  0
  184.2430  178.8800  145.5150 C   0  0  0  0  0  3  0  0  0  0  0  0
  184.9610  178.1220  142.9140 C   0  0  0  0  0  3  0  0  0  0  0  0
  187.7390  177.7600  146.0570 C   0  0  0  0  0  0  0  0  0  0  0  0
  186.4480  178.2600  146.3030 C   0  0  0  0  0  3  0  0  0  0  0  0
  185.5230  178.3810  145.2640 C   0  0  0  0  0  0  0  0  0  0  0  0
  187.1650  177.5040  143.7020 C   0  0  0  0  0  3  0  0  0  0  0  0
  185.8850  177.9990  143.9540 C   0  0  0  0  0  0  0  0  0  0  0  0
  188.0850  177.3850  144.7470 C   0  0  0  0  0  3  0  0  0  0  0  0
  183.6760  178.6280  143.1660 C   0  0  0  0  0  0  0  0  0  0  0  0
  183.3230  179.0030  144.4680 C   0  0  0  0  0  3  0  0  0  0  0  0
  188.6920  177.6360  147.1300 N   0  0  0  0  0  0  0  0  0  0  0  0
  188.3880  178.1190  148.4690 C   0  0  0  0  0  1  0  0  0  0  0  0
  189.9930  177.0220  146.9150 C   0  0  0  0  0  1  0  0  0  0  0  0
  1 19  1  0  0  0  0
  2 10  1  0  0  0  0
  2 13  1  0  0  0  0
  3 13  1  0  0  0  0
  3  7  1  0  0  0  0
  4  6  2  0  0  0  0
  5  4  1  0  0  0  0
  7  9  1  6  0  0  0
  7  8  1  0  0  0  0
  8  1  2  0  0  0  0
  8  4  1  0  0  0  0
  9  5  1  0  0  0  0
 10 11  1  0  0  0  0
 11 16  1  1  0  0  0
 11 12  1  0  0  0  0
 12 14  1  0  0  0  0
 13 15  2  0  0  0  0
 15 14  1  0  0  0  0
 15  1  1  0  0  0  0
 17 16  1  0  0  0  0
 18 16  2  0  0  0  0
 19 20  1  0  0  0  0
 21 20  1  0  0  0  0
 21 30  1  0  0  0  0
 23 30  2  0  0  0  0
 23 28  1  0  0  0  0
 24 25  1  0  0  0  0
 24 32  1  0  0  0  0
 26 22  1  0  0  0  0
 26 25  2  0  0  0  0
 27 28  2  0  0  0  0
 27 29  1  0  0  0  0
 28 26  1  0  0  0  0
 29 24  2  0  0  0  0
 30 31  1  0  0  0  0
 31 22  2  0  0  0  0
 32 33  1  0  0  0  0
 34 32  1  0  0  0  0
M  END
>  <MODEL>
8

>  <REMARK>
 VINA RESULT:      -8.5      4.016      9.169
  Name = 
  6 active torsions:
  status: ('A' for Active; 'I' for Inactive)
    1  A    between atoms: C_1  and  N_9
    2  A    between atoms: C_3  and  C_25
    3  A    between atoms: C_7  and  N_11
    4  A    between atoms: C_8  and  N_9
    5  A    between atoms: C_8  and  N_18
    6  A    between atoms: N_18  and  C_30
                            x       y       z     vdW  Elec       q    Type
                         _______ _______ _______ _____ _____    ______ ____

>  <TORSDO>
F 6

$$$$
=
 OpenBabel10262423113D

 34 38  0  0  1  0  0  0  0  0999 V2000
  186.6900  177.6060  137.5740 C   0  0  0  0  0  0  0  0  0  0  0  0
  182.9940  177.4460  138.6360 C   0  0  0  0  0  2  0  0  0  0  0  0
  184.4700  175.9770  137.2620 O   0  0  0  0  0  0  0  0  0  0  0  0
  187.7220  175.9530  135.9510 C   0  0  0  0  0  0  0  0  0  0  0  0
  187.1810  174.8710  135.2850 O   0  0  0  0  0  0  0  0  0  0  0  0
  188.8650  176.4210  135.7120 O   0  0  0  0  0  0  0  0  0  0  0  0
  185.7480  175.3710  137.0820 C   0  0  2  0  0  3  0  0  0  0  0  0
  186.8020  176.4130  136.9650 C   0  0  0  0  0  0  0  0  0  0  0  0
  185.8720  174.5740  135.7750 C   0  0  0  0  0  2  0  0  0  0  0  0
  183.0040  177.3380  140.1550 C   0  0  0  0  0  2  0  0  0  0  0  0
  183.5220  178.6260  140.7910 C   0  0  2  0  0  3  0  0  0  0  0  0
  185.0230  178.8080  140.5800 C   0  0  0  0  0  2  0  0  0  0  0  0
  184.3410  177.1220  138.0680 C   0  0  0  0  0  0  0  0  0  0  0  0
  185.3340  179.1490  139.1290 C   0  0  0  0  0  2  0  0  0  0  0  0
  185.4230  177.9070  138.2910 C   0  0  0  0  0  0  0  0  0  0  0  0
  183.2160  178.6240  142.2510 C   0  0  0  0  0  0  0  0  0  0  0  0
  181.9640  179.0140  142.7100 O   0  0  0  0  0  0  0  0  0  0  0  0
  184.0990  178.2620  143.0710 O   0  0  0  0  0  1  0  0  0  0  0  0
  187.6750  178.6360  137.4400 N   0  0  0  0  0  2  0  0  0  0  0  0
  188.8240  178.7480  138.3240 C   0  0  0  0  0  2  0  0  0  0  0  0
  189.0300  177.4880  139.0240 N   0  0  0  0  0  2  0  0  0  0  0  0
  190.9330  177.0800  142.2060 C   0  0  0  0  0  3  0  0  0  0  0  0
  188.2960  177.5500  141.3800 C   0  0  0  0  0  3  0  0  0  0  0  0
  189.2000  177.2590  145.4820 C   0  0  0  0  0  0  0  0  0  0  0  0
  190.2150  177.1220  144.5190 C   0  0  0  0  0  3  0  0  0  0  0  0
  189.9200  177.2190  143.1570 C   0  0  0  0  0  0  0  0  0  0  0  0
  187.5780  177.5910  143.6920 C   0  0  0  0  0  3  0  0  0  0  0  0
  188.5910  177.4550  142.7420 C   0  0  0  0  0  0  0  0  0  0  0  0
  187.8820  177.4930  145.0530 C   0  0  0  0  0  3  0  0  0  0  0  0
  189.3130  177.4060  140.4240 C   0  0  0  0  0  0  0  0  0  0  0  0
  190.6280  177.1730  140.8430 C   0  0  0  0  0  3  0  0  0  0  0  0
  189.5060  177.1590  146.8860 N   0  0  0  0  0  0  0  0  0  0  0  0
  190.8270  176.7510  147.3430 C   0  0  0  0  0  1  0  0  0  0  0  0
  188.5070  177.4630  147.8990 C   0  0  0  0  0  1  0  0  0  0  0  0
  1 15  1  0  0  0  0
  2 10  1  0  0  0  0
  3 13  1  0  0  0  0
  4  8  1  0  0  0  0
  5  9  1  0  0  0  0
  5  4  1  0  0  0  0
  6  4  2  0  0  0  0
  7  9  1  6  0  0  0
  7  3  1  0  0  0  0
  8  7  1  0  0  0  0
  8  1  2  0  0  0  0
 10 11  1  0  0  0  0
 11 16  1  1  0  0  0
 12 11  1  0  0  0  0
 13 15  2  0  0  0  0
 13  2  1  0  0  0  0
 14 12  1  0  0  0  0
 15 14  1  0  0  0  0
 16 17  2  0  0  0  0
 16 18  1  0  0  0  0
 19  1  1  0  0  0  0
 19 20  1  0  0  0  0
 20 21  1  0  0  0  0
 21 30  1  0  0  0  0
 22 26  1  0  0  0  0
 23 28  1  0  0  0  0
 24 32  1  0  0  0  0
 25 24  2  0  0  0  0
 26 25  1  0  0  0  0
 27 29  2  0  0  0  0
 28 26  2  0  0  0  0
 28 27  1  0  0  0  0
 29 24  1  0  0  0  0
 30 31  1  0  0  0  0
 30 23  2  0  0  0  0
 31 22  2  0  0  0  0
 32 33  1  0  0  0  0
 32 34  1  0  0  0  0
M  END
>  <MODEL>
9

>  <REMARK>
 VINA RESULT:      -8.4      3.251      8.871
  Name = 
  6 active torsions:
  status: ('A' for Active; 'I' for Inactive)
    1  A    between atoms: C_1  and  N_9
    2  A    between atoms: C_3  and  C_25
    3  A    between atoms: C_7  and  N_11
    4  A    between atoms: C_8  and  N_9
    5  A    between atoms: C_8  and  N_18
    6  A    between atoms: N_18  and  C_30
                            x       y       z     vdW  Elec       q    Type
                         _______ _______ _______ _____ _____    ______ ____

>  <TORSDO>
F 6

$$$$
