=
 OpenBabel10262419433D

 25 28  0  0  1  0  0  0  0  0999 V2000
  187.1160  177.8680  145.3540 C   0  0  0  0  0  0  0  0  0  0  0  0
  188.3790  177.4230  144.9190 C   0  0  0  0  0  0  0  0  0  0  0  0
  187.8680  177.8030  147.6570 C   0  0  0  0  0  3  0  0  0  0  0  0
  185.9780  178.1750  144.5840 C   0  0  0  0  0  0  0  0  0  0  0  0
  190.4870  176.8230  141.9150 C   0  0  0  0  0  0  0  0  0  0  0  0
  183.5400  178.8730  143.4060 C   0  0  0  0  0  3  0  0  0  0  0  0
  189.0850  177.3720  147.2280 N   0  0  0  0  0  0  0  0  0  0  0  0
  184.8960  178.5860  145.3620 C   0  0  0  0  0  0  0  0  0  0  0  0
  183.6720  178.9400  144.8010 C   0  0  0  0  0  3  0  0  0  0  0  0
  190.7210  176.7240  145.5120 C   0  0  0  0  0  0  0  0  0  0  0  0
  191.9270  176.3570  146.7330 Cl  0  0  0  0  0  0  0  0  0  0  0  0
  190.8630  176.7390  140.6690 C   0  0  0  0  0  3  0  0  0  0  0  0
  188.6550  177.1600  143.4580 C   0  0  0  0  0  2  0  0  0  0  0  0
  184.6210  178.4600  142.6060 C   0  0  0  0  0  3  0  0  0  0  0  0
  186.8830  178.0520  146.7130 C   0  0  0  0  0  0  0  0  0  0  0  0
  185.3080  178.5830  146.9950 S   0  0  0  0  0  0  0  0  0  0  0  0
  191.0620  176.6130  144.2300 C   0  0  0  0  0  3  0  0  0  0  0  0
  185.8470  178.1090  143.1930 C   0  0  0  0  0  3  0  0  0  0  0  0
  190.1030  176.9090  143.1570 C   0  0  0  0  0  0  0  0  0  0  0  0
  189.3700  177.1750  145.9050 C   0  0  0  0  0  0  0  0  0  0  0  0
  190.1630  177.5140  139.6020 C   0  0  2  0  0  3  0  0  0  0  0  0
  188.7180  177.7910  139.9880 C   0  0  0  0  0  1  0  0  0  0  0  0
  190.2230  176.7820  138.3010 C   0  0  0  0  0  0  0  0  0  0  0  0
  190.4760  175.4180  138.2940 O   0  0  0  0  0  1  0  0  0  0  0  0
  190.0430  177.3900  137.2120 O   0  0  0  0  0  0  0  0  0  0  0  0
  1 15  1  0  0  0  0
  2  1  2  0  0  0  0
  2 20  1  0  0  0  0
  4  1  1  0  0  0  0
  4  8  1  0  0  0  0
  5 19  2  0  0  0  0
  6  9  1  0  0  0  0
  7  3  1  0  0  0  0
  8 16  1  0  0  0  0
  9  8  2  0  0  0  0
 10 20  1  0  0  0  0
 10 11  1  0  0  0  0
 12  5  2  0  0  0  0
 13  2  1  0  0  0  0
 14 18  1  0  0  0  0
 14  6  2  0  0  0  0
 15 16  1  0  0  0  0
 15  3  2  0  0  0  0
 17 10  2  0  0  0  0
 18  4  2  0  0  0  0
 19 13  1  0  0  0  0
 19 17  1  0  0  0  0
 20  7  2  0  0  0  0
 21 22  1  1  0  0  0
 21 12  1  0  0  0  0
 23 21  1  0  0  0  0
 24 23  1  0  0  0  0
 25 23  2  0  0  0  0
M  END
>  <MODEL>
1

>  <REMARK>
 VINA RESULT:     -10.8      0.000      0.000
  Name = 
  2 active torsions:
  status: ('A' for Active; 'I' for Inactive)
    1  A    between atoms: C_2  and  C_21
    2  A    between atoms: C_15  and  C_21
                            x       y       z     vdW  Elec       q    Type
                         _______ _______ _______ _____ _____    ______ ____

>  <TORSDO>
F 2

$$$$
=
 OpenBabel10262419433D

 25 28  0  0  1  0  0  0  0  0999 V2000
  189.2960  177.4790  144.0410 C   0  0  0  0  0  0  0  0  0  0  0  0
  188.2850  177.7900  144.9710 C   0  0  0  0  0  0  0  0  0  0  0  0
  190.8190  176.9440  145.8480 C   0  0  0  0  0  3  0  0  0  0  0  0
  189.2430  177.5300  142.6350 C   0  0  0  0  0  0  0  0  0  0  0  0
  184.6840  178.6400  145.3300 C   0  0  0  0  0  0  0  0  0  0  0  0
  189.5200  177.5010  139.8520 C   0  0  0  0  0  3  0  0  0  0  0  0
  189.8380  177.2470  146.7410 N   0  0  0  0  0  0  0  0  0  0  0  0
  190.4440  177.1510  142.0370 C   0  0  0  0  0  0  0  0  0  0  0  0
  190.6080  177.1270  140.6540 C   0  0  0  0  0  3  0  0  0  0  0  0
  187.5720  177.9550  147.3780 C   0  0  0  0  0  0  0  0  0  0  0  0
  187.9710  177.8590  149.0840 Cl  0  0  0  0  0  0  0  0  0  0  0  0
  183.4450  178.9160  145.0280 C   0  0  0  0  0  3  0  0  0  0  0  0
  186.9380  178.2990  144.5210 C   0  0  0  0  0  2  0  0  0  0  0  0
  188.3000  177.8860  140.4390 C   0  0  0  0  0  3  0  0  0  0  0  0
  190.5430  177.0600  144.4940 C   0  0  0  0  0  0  0  0  0  0  0  0
  191.5860  176.7490  143.2070 S   0  0  0  0  0  0  0  0  0  0  0  0
  186.3250  178.2700  147.0340 C   0  0  0  0  0  3  0  0  0  0  0  0
  188.1560  177.9020  141.8360 C   0  0  0  0  0  3  0  0  0  0  0  0
  185.9230  178.3650  145.6250 C   0  0  0  0  0  0  0  0  0  0  0  0
  188.5940  177.6620  146.3510 C   0  0  0  0  0  0  0  0  0  0  0  0
  182.8660  178.5040  143.7140 C   0  0  2  0  0  3  0  0  0  0  0  0
  183.7220  179.0030  142.5600 C   0  0  0  0  0  1  0  0  0  0  0  0
  181.4670  179.0080  143.5800 C   0  0  0  0  0  0  0  0  0  0  0  0
  180.4520  178.4190  144.3210 O   0  0  0  0  0  1  0  0  0  0  0  0
  181.1990  179.9650  142.8040 O   0  0  0  0  0  0  0  0  0  0  0  0
  1 15  1  0  0  0  0
  1  2  2  0  0  0  0
  2 20  1  0  0  0  0
  3  7  1  0  0  0  0
  4  1  1  0  0  0  0
  5 19  2  0  0  0  0
  6 14  2  0  0  0  0
  6  9  1  0  0  0  0
  8  4  1  0  0  0  0
  8 16  1  0  0  0  0
  9  8  2  0  0  0  0
 10 11  1  0  0  0  0
 12  5  2  0  0  0  0
 13  2  1  0  0  0  0
 13 19  1  0  0  0  0
 14 18  1  0  0  0  0
 15  3  2  0  0  0  0
 16 15  1  0  0  0  0
 17 10  2  0  0  0  0
 18  4  2  0  0  0  0
 19 17  1  0  0  0  0
 20  7  2  0  0  0  0
 20 10  1  0  0  0  0
 21 22  1  6  0  0  0
 21 12  1  0  0  0  0
 23 21  1  0  0  0  0
 23 24  1  0  0  0  0
 25 23  2  0  0  0  0
M  END
>  <MODEL>
2

>  <REMARK>
 VINA RESULT:     -10.4      3.786      6.346
  Name = 
  2 active torsions:
  status: ('A' for Active; 'I' for Inactive)
    1  A    between atoms: C_2  and  C_21
    2  A    between atoms: C_15  and  C_21
                            x       y       z     vdW  Elec       q    Type
                         _______ _______ _______ _____ _____    ______ ____

>  <TORSDO>
F 2

$$$$
=
 OpenBabel10262419433D

 25 28  0  0  1  0  0  0  0  0999 V2000
  186.8500  177.8600  144.8540 C   0  0  0  0  0  0  0  0  0  0  0  0
  187.9510  177.4250  144.0890 C   0  0  0  0  0  0  0  0  0  0  0  0
  188.1350  177.5840  146.8900 C   0  0  0  0  0  3  0  0  0  0  0  0
  185.5730  178.2560  144.4120 C   0  0  0  0  0  0  0  0  0  0  0  0
  189.2390  177.0340  140.6240 C   0  0  0  0  0  0  0  0  0  0  0  0
  182.9540  179.1050  143.9250 C   0  0  0  0  0  3  0  0  0  0  0  0
  189.1930  177.1630  146.1440 N   0  0  0  0  0  0  0  0  0  0  0  0
  184.7320  178.6240  145.4610 C   0  0  0  0  0  0  0  0  0  0  0  0
  183.4230  179.0510  145.2460 C   0  0  0  0  0  3  0  0  0  0  0  0
  190.3350  176.6270  144.0350 C   0  0  0  0  0  0  0  0  0  0  0  0
  191.7840  176.1310  144.8910 Cl  0  0  0  0  0  0  0  0  0  0  0  0
  189.2990  177.0470  139.3210 C   0  0  0  0  0  3  0  0  0  0  0  0
  187.8520  177.2800  142.5900 C   0  0  0  0  0  2  0  0  0  0  0  0
  183.7910  178.7370  142.8550 C   0  0  0  0  0  3  0  0  0  0  0  0
  186.9620  177.9340  146.2380 C   0  0  0  0  0  0  0  0  0  0  0  0
  185.5260  178.4740  146.9380 S   0  0  0  0  0  0  0  0  0  0  0  0
  190.3500  176.6170  142.7040 C   0  0  0  0  0  3  0  0  0  0  0  0
  185.1070  178.3100  143.0950 C   0  0  0  0  0  3  0  0  0  0  0  0
  189.1730  177.0230  141.9250 C   0  0  0  0  0  0  0  0  0  0  0  0
  189.1390  177.0730  144.7800 C   0  0  0  0  0  0  0  0  0  0  0  0
  188.3940  177.9250  138.5200 C   0  0  2  0  0  3  0  0  0  0  0  0
  187.1980  177.1430  137.9970 C   0  0  0  0  0  1  0  0  0  0  0  0
  189.1410  178.5500  137.3890 C   0  0  0  0  0  0  0  0  0  0  0  0
  189.9020  177.7520  136.5460 O   0  0  0  0  0  0  0  0  0  0  0  0
  189.0850  179.7940  137.1890 O   0  0  0  0  0  1  0  0  0  0  0  0
  1 15  2  0  0  0  0
  2 20  2  0  0  0  0
  2  1  1  0  0  0  0
  4  1  1  0  0  0  0
  4  8  1  0  0  0  0
  5 19  2  0  0  0  0
  6  9  1  0  0  0  0
  7  3  2  0  0  0  0
  8 16  1  0  0  0  0
  9  8  2  0  0  0  0
 10 20  1  0  0  0  0
 10 11  1  0  0  0  0
 12  5  2  0  0  0  0
 13  2  1  0  0  0  0
 14 18  1  0  0  0  0
 14  6  2  0  0  0  0
 15  3  1  0  0  0  0
 15 16  1  0  0  0  0
 17 10  2  0  0  0  0
 18  4  2  0  0  0  0
 19 13  1  0  0  0  0
 19 17  1  0  0  0  0
 20  7  1  0  0  0  0
 21 22  1  6  0  0  0
 21 12  1  0  0  0  0
 23 21  1  0  0  0  0
 24 23  2  0  0  0  0
 25 23  1  0  0  0  0
M  END
>  <MODEL>
3

>  <REMARK>
 VINA RESULT:     -10.0      1.224      1.540
  Name = 
  2 active torsions:
  status: ('A' for Active; 'I' for Inactive)
    1  A    between atoms: C_2  and  C_21
    2  A    between atoms: C_15  and  C_21
                            x       y       z     vdW  Elec       q    Type
                         _______ _______ _______ _____ _____    ______ ____

>  <TORSDO>
F 2

$$$$
=
 OpenBabel10262419433D

 25 28  0  0  1  0  0  0  0  0999 V2000
  187.7140  177.7530  145.6200 C   0  0  0  0  0  0  0  0  0  0  0  0
  186.9580  178.1310  144.4930 C   0  0  0  0  0  0  0  0  0  0  0  0
  185.7700  178.0360  147.0390 C   0  0  0  0  0  3  0  0  0  0  0  0
  189.0730  177.3910  145.6870 C   0  0  0  0  0  0  0  0  0  0  0  0
  187.0120  178.3920  140.7860 C   0  0  0  0  0  0  0  0  0  0  0  0
  191.7080  176.6200  146.2160 C   0  0  0  0  0  3  0  0  0  0  0  0
  185.0470  178.4010  145.9460 N   0  0  0  0  0  0  0  0  0  0  0  0
  189.4830  177.0780  146.9830 C   0  0  0  0  0  0  0  0  0  0  0  0
  190.7890  176.6910  147.2730 C   0  0  0  0  0  3  0  0  0  0  0  0
  184.7400  178.8460  143.5490 C   0  0  0  0  0  0  0  0  0  0  0  0
  183.0670  179.3120  143.8010 Cl  0  0  0  0  0  0  0  0  0  0  0  0
  187.4320  178.3450  139.5510 C   0  0  0  0  0  3  0  0  0  0  0  0
  187.5930  178.2430  143.1280 C   0  0  0  0  0  2  0  0  0  0  0  0
  191.3110  176.9330  144.9030 C   0  0  0  0  0  3  0  0  0  0  0  0
  187.1070  177.7100  146.8720 C   0  0  0  0  0  0  0  0  0  0  0  0
  188.2020  177.2370  148.0640 S   0  0  0  0  0  0  0  0  0  0  0  0
  185.2110  178.8220  142.3030 C   0  0  0  0  0  3  0  0  0  0  0  0
  189.9880  177.3200  144.6330 C   0  0  0  0  0  3  0  0  0  0  0  0
  186.6000  178.4370  142.0200 C   0  0  0  0  0  0  0  0  0  0  0  0
  185.5920  178.4590  144.6920 C   0  0  0  0  0  0  0  0  0  0  0  0
  188.5860  177.4790  139.1660 C   0  0  2  0  0  3  0  0  0  0  0  0
  189.5450  177.2970  140.3320 C   0  0  0  0  0  1  0  0  0  0  0  0
  189.3030  178.0580  137.9900 C   0  0  0  0  0  0  0  0  0  0  0  0
  189.0360  179.3630  137.6000 O   0  0  0  0  0  1  0  0  0  0  0  0
  190.1480  177.3760  137.3520 O   0  0  0  0  0  0  0  0  0  0  0  0
  1  4  1  0  0  0  0
  1 15  2  0  0  0  0
  2 20  2  0  0  0  0
  2  1  1  0  0  0  0
  4  8  1  0  0  0  0
  5 19  2  0  0  0  0
  6  9  1  0  0  0  0
  7  3  2  0  0  0  0
  8  9  2  0  0  0  0
  8 16  1  0  0  0  0
 10 11  1  0  0  0  0
 10 20  1  0  0  0  0
 12  5  2  0  0  0  0
 13  2  1  0  0  0  0
 14  6  2  0  0  0  0
 15  3  1  0  0  0  0
 15 16  1  0  0  0  0
 17 10  2  0  0  0  0
 18 14  1  0  0  0  0
 18  4  2  0  0  0  0
 19 17  1  0  0  0  0
 19 13  1  0  0  0  0
 20  7  1  0  0  0  0
 21 12  1  0  0  0  0
 21 22  1  1  0  0  0
 23 21  1  0  0  0  0
 24 23  1  0  0  0  0
 25 23  2  0  0  0  0
M  END
>  <MODEL>
4

>  <REMARK>
 VINA RESULT:     -10.0      2.522      4.750
  Name = 
  2 active torsions:
  status: ('A' for Active; 'I' for Inactive)
    1  A    between atoms: C_2  and  C_21
    2  A    between atoms: C_15  and  C_21
                            x       y       z     vdW  Elec       q    Type
                         _______ _______ _______ _____ _____    ______ ____

>  <TORSDO>
F 2

$$$$
=
 OpenBabel10262419433D

 25 28  0  0  1  0  0  0  0  0999 V2000
  186.4650  178.3100  142.3070 C   0  0  0  0  0  0  0  0  0  0  0  0
  187.8430  178.0270  142.2270 C   0  0  0  0  0  0  0  0  0  0  0  0
  186.3200  178.3680  139.8890 C   0  0  0  0  0  3  0  0  0  0  0  0
  185.6640  178.4660  143.4550 C   0  0  0  0  0  0  0  0  0  0  0  0
  190.8380  177.0760  144.2130 C   0  0  0  0  0  0  0  0  0  0  0  0
  183.7680  178.8380  145.4760 C   0  0  0  0  0  3  0  0  0  0  0  0
  187.6510  178.0950  139.8200 N   0  0  0  0  0  0  0  0  0  0  0  0
  184.3330  178.7450  143.1470 C   0  0  0  0  0  0  0  0  0  0  0  0
  183.3690  178.9340  144.1350 C   0  0  0  0  0  3  0  0  0  0  0  0
  189.8600  177.6100  140.7840 C   0  0  0  0  0  0  0  0  0  0  0  0
  190.5930  177.5440  139.1910 Cl  0  0  0  0  0  0  0  0  0  0  0  0
  191.6020  176.7750  145.2270 C   0  0  0  0  0  3  0  0  0  0  0  0
  188.6870  177.8960  143.4710 C   0  0  0  0  0  2  0  0  0  0  0  0
  185.1070  178.5560  145.8030 C   0  0  0  0  0  3  0  0  0  0  0  0
  185.7280  178.4730  141.1390 C   0  0  0  0  0  0  0  0  0  0  0  0
  184.1110  178.8070  141.4800 S   0  0  0  0  0  0  0  0  0  0  0  0
  190.6200  177.3440  141.8440 C   0  0  0  0  0  3  0  0  0  0  0  0
  186.0630  178.3680  144.7910 C   0  0  0  0  0  3  0  0  0  0  0  0
  190.0700  177.3770  143.2050 C   0  0  0  0  0  0  0  0  0  0  0  0
  188.4240  177.9230  140.9360 C   0  0  0  0  0  0  0  0  0  0  0  0
  191.0170  176.2710  146.5050 C   0  0  2  0  0  3  0  0  0  0  0  0
  189.7970  177.0850  146.9050 C   0  0  0  0  0  1  0  0  0  0  0  0
  192.0390  176.2980  147.5930 C   0  0  0  0  0  0  0  0  0  0  0  0
  192.9990  175.2970  147.6580 O   0  0  0  0  0  0  0  0  0  0  0  0
  192.0420  177.2220  148.4510 O   0  0  0  0  0  1  0  0  0  0  0  0
  1  4  1  0  0  0  0
  2  1  1  0  0  0  0
  2 13  1  0  0  0  0
  3 15  1  0  0  0  0
  4 18  1  0  0  0  0
  5 12  2  0  0  0  0
  6 14  1  0  0  0  0
  7  3  2  0  0  0  0
  7 20  1  0  0  0  0
  8  4  2  0  0  0  0
  8  9  1  0  0  0  0
  9  6  2  0  0  0  0
 10 20  1  0  0  0  0
 10 17  2  0  0  0  0
 11 10  1  0  0  0  0
 12 21  1  0  0  0  0
 15 16  1  0  0  0  0
 15  1  2  0  0  0  0
 16  8  1  0  0  0  0
 17 19  1  0  0  0  0
 18 14  2  0  0  0  0
 19 13  1  0  0  0  0
 19  5  2  0  0  0  0
 20  2  2  0  0  0  0
 21 22  1  1  0  0  0
 21 23  1  0  0  0  0
 23 24  2  0  0  0  0
 23 25  1  0  0  0  0
M  END
>  <MODEL>
5

>  <REMARK>
 VINA RESULT:      -9.9      3.978      5.605
  Name = 
  2 active torsions:
  status: ('A' for Active; 'I' for Inactive)
    1  A    between atoms: C_2  and  C_21
    2  A    between atoms: C_15  and  C_21
                            x       y       z     vdW  Elec       q    Type
                         _______ _______ _______ _____ _____    ______ ____

>  <TORSDO>
F 2

$$$$
=
 OpenBabel10262419433D

 25 28  0  0  1  0  0  0  0  0999 V2000
  189.1020  177.6330  144.1610 C   0  0  0  0  0  0  0  0  0  0  0  0
  188.2340  177.8070  143.0650 C   0  0  0  0  0  0  0  0  0  0  0  0
  191.0070  177.5760  142.6640 C   0  0  0  0  0  3  0  0  0  0  0  0
  188.7840  177.5460  145.5300 C   0  0  0  0  0  0  0  0  0  0  0  0
  184.7180  178.5270  142.0970 C   0  0  0  0  0  0  0  0  0  0  0  0
  188.5510  177.3350  148.3080 C   0  0  0  0  0  3  0  0  0  0  0  0
  190.1620  177.7420  141.6100 N   0  0  0  0  0  0  0  0  0  0  0  0
  189.9100  177.3720  146.3330 C   0  0  0  0  0  0  0  0  0  0  0  0
  189.8220  177.2640  147.7190 C   0  0  0  0  0  3  0  0  0  0  0  0
  187.9540  178.0560  140.5780 C   0  0  0  0  0  0  0  0  0  0  0  0
  188.6540  178.0560  138.9690 Cl  0  0  0  0  0  0  0  0  0  0  0  0
  183.4390  178.7720  142.1850 C   0  0  0  0  0  3  0  0  0  0  0  0
  186.7390  177.8760  143.2560 C   0  0  0  0  0  2  0  0  0  0  0  0
  187.4040  177.5120  147.5120 C   0  0  0  0  0  3  0  0  0  0  0  0
  190.4710  177.5230  143.9420 C   0  0  0  0  0  0  0  0  0  0  0  0
  191.3060  177.3200  145.3930 S   0  0  0  0  0  0  0  0  0  0  0  0
  186.6450  178.2660  140.7010 C   0  0  0  0  0  3  0  0  0  0  0  0
  187.5170  177.6190  146.1160 C   0  0  0  0  0  3  0  0  0  0  0  0
  185.9950  178.2830  142.0170 C   0  0  0  0  0  0  0  0  0  0  0  0
  188.8080  177.8580  141.7680 C   0  0  0  0  0  0  0  0  0  0  0  0
  182.8480  179.3270  143.4390 C   0  0  2  0  0  3  0  0  0  0  0  0
  183.4210  178.6330  144.6650 C   0  0  0  0  0  1  0  0  0  0  0  0
  181.3610  179.1970  143.4160 C   0  0  0  0  0  0  0  0  0  0  0  0
  180.6020  180.1320  142.7250 O   0  0  0  0  0  0  0  0  0  0  0  0
  180.7880  178.2480  144.0150 O   0  0  0  0  0  1  0  0  0  0  0  0
  1  4  1  0  0  0  0
  2 13  1  0  0  0  0
  2  1  1  0  0  0  0
  3 15  1  0  0  0  0
  4 18  2  0  0  0  0
  4  8  1  0  0  0  0
  5 12  2  0  0  0  0
  7 20  1  0  0  0  0
  7  3  2  0  0  0  0
  8  9  2  0  0  0  0
  9  6  1  0  0  0  0
 10 17  2  0  0  0  0
 10 20  1  0  0  0  0
 11 10  1  0  0  0  0
 12 21  1  0  0  0  0
 14  6  2  0  0  0  0
 15  1  2  0  0  0  0
 15 16  1  0  0  0  0
 16  8  1  0  0  0  0
 17 19  1  0  0  0  0
 18 14  1  0  0  0  0
 19  5  2  0  0  0  0
 19 13  1  0  0  0  0
 20  2  2  0  0  0  0
 21 22  1  1  0  0  0
 23 21  1  0  0  0  0
 23 25  1  0  0  0  0
 24 23  2  0  0  0  0
M  END
>  <MODEL>
6

>  <REMARK>
 VINA RESULT:      -9.8      4.237      6.652
  Name = 
  2 active torsions:
  status: ('A' for Active; 'I' for Inactive)
    1  A    between atoms: C_2  and  C_21
    2  A    between atoms: C_15  and  C_21
                            x       y       z     vdW  Elec       q    Type
                         _______ _______ _______ _____ _____    ______ ____

>  <TORSDO>
F 2

$$$$
=
 OpenBabel10262419433D

 25 28  0  0  1  0  0  0  0  0999 V2000
  187.3420  178.0550  141.8220 C   0  0  0  0  0  0  0  0  0  0  0  0
  187.1750  177.9440  143.2160 C   0  0  0  0  0  0  0  0  0  0  0  0
  185.0950  178.9350  141.6050 C   0  0  0  0  0  3  0  0  0  0  0  0
  188.4660  177.7220  141.0410 C   0  0  0  0  0  0  0  0  0  0  0  0
  188.9320  177.2060  146.4070 C   0  0  0  0  0  0  0  0  0  0  0  0
  190.4790  177.1880  139.1760 C   0  0  0  0  0  3  0  0  0  0  0  0
  184.9400  178.8240  142.9520 N   0  0  0  0  0  0  0  0  0  0  0  0
  188.2690  177.9660  139.6820 C   0  0  0  0  0  0  0  0  0  0  0  0
  189.2550  177.7090  138.7330 C   0  0  0  0  0  3  0  0  0  0  0  0
  185.6970  178.2720  145.2250 C   0  0  0  0  0  0  0  0  0  0  0  0
  184.1380  178.7070  145.9010 Cl  0  0  0  0  0  0  0  0  0  0  0  0
  189.8730  176.8820  147.2520 C   0  0  0  0  0  3  0  0  0  0  0  0
  188.2590  177.3630  144.0900 C   0  0  0  0  0  2  0  0  0  0  0  0
  190.6950  176.9370  140.5430 C   0  0  0  0  0  3  0  0  0  0  0  0
  186.3020  178.5500  141.0420 C   0  0  0  0  0  0  0  0  0  0  0  0
  186.7280  178.5880  139.4110 S   0  0  0  0  0  0  0  0  0  0  0  0
  186.6690  177.9020  146.0560 C   0  0  0  0  0  3  0  0  0  0  0  0
  189.6870  177.2040  141.4840 C   0  0  0  0  0  3  0  0  0  0  0  0
  187.9980  177.5270  145.5580 C   0  0  0  0  0  0  0  0  0  0  0  0
  185.9300  178.3460  143.7670 C   0  0  0  0  0  0  0  0  0  0  0  0
  191.3140  177.0250  146.8880 C   0  0  2  0  0  3  0  0  0  0  0  0
  191.5190  176.8430  145.3920 C   0  0  0  0  0  1  0  0  0  0  0  0
  192.1440  176.0430  147.6480 C   0  0  0  0  0  0  0  0  0  0  0  0
  192.9060  176.4790  148.7230 O   0  0  0  0  0  1  0  0  0  0  0  0
  192.1560  174.8250  147.3270 O   0  0  0  0  0  0  0  0  0  0  0  0
  1  2  2  0  0  0  0
  2 20  1  0  0  0  0
  2 13  1  0  0  0  0
  3  7  1  0  0  0  0
  4 18  1  0  0  0  0
  4  1  1  0  0  0  0
  5 12  2  0  0  0  0
  6 14  1  0  0  0  0
  7 20  2  0  0  0  0
  8  4  2  0  0  0  0
  9  6  2  0  0  0  0
  9  8  1  0  0  0  0
 10 11  1  0  0  0  0
 10 17  2  0  0  0  0
 13 19  1  0  0  0  0
 14 18  2  0  0  0  0
 15  3  2  0  0  0  0
 15  1  1  0  0  0  0
 16  8  1  0  0  0  0
 16 15  1  0  0  0  0
 19 17  1  0  0  0  0
 19  5  2  0  0  0  0
 20 10  1  0  0  0  0
 21 22  1  6  0  0  0
 21 12  1  0  0  0  0
 21 23  1  0  0  0  0
 23 24  1  0  0  0  0
 25 23  2  0  0  0  0
M  END
>  <MODEL>
7

>  <REMARK>
 VINA RESULT:      -9.6      3.984      6.586
  Name = 
  2 active torsions:
  status: ('A' for Active; 'I' for Inactive)
    1  A    between atoms: C_2  and  C_21
    2  A    between atoms: C_15  and  C_21
                            x       y       z     vdW  Elec       q    Type
                         _______ _______ _______ _____ _____    ______ ____

>  <TORSDO>
F 2

$$$$
=
 OpenBabel10262419433D

 25 28  0  0  1  0  0  0  0  0999 V2000
  186.2010  178.2700  144.2990 C   0  0  0  0  0  0  0  0  0  0  0  0
  186.2660  178.4030  142.8990 C   0  0  0  0  0  0  0  0  0  0  0  0
  183.8390  178.8100  144.2570 C   0  0  0  0  0  3  0  0  0  0  0  0
  187.2320  177.9450  145.2010 C   0  0  0  0  0  0  0  0  0  0  0  0
  188.4460  177.9100  139.9280 C   0  0  0  0  0  0  0  0  0  0  0  0
  188.9980  177.3290  147.2800 C   0  0  0  0  0  3  0  0  0  0  0  0
  183.9100  178.9380  142.9050 N   0  0  0  0  0  0  0  0  0  0  0  0
  186.7960  177.9050  146.5250 C   0  0  0  0  0  0  0  0  0  0  0  0
  187.6550  177.6000  147.5790 C   0  0  0  0  0  3  0  0  0  0  0  0
  185.0710  178.8850  140.7390 C   0  0  0  0  0  0  0  0  0  0  0  0
  183.6140  179.3730  139.8930 Cl  0  0  0  0  0  0  0  0  0  0  0  0
  189.4850  177.6190  139.1950 C   0  0  0  0  0  3  0  0  0  0  0  0
  187.5720  178.2440  142.1580 C   0  0  0  0  0  2  0  0  0  0  0  0
  189.4540  177.3640  145.9490 C   0  0  0  0  0  3  0  0  0  0  0  0
  184.9900  178.4740  144.9530 C   0  0  0  0  0  0  0  0  0  0  0  0
  185.1540  178.2640  146.6180 S   0  0  0  0  0  0  0  0  0  0  0  0
  186.1610  178.6160  140.0230 C   0  0  0  0  0  3  0  0  0  0  0  0
  188.5710  177.6730  144.9020 C   0  0  0  0  0  3  0  0  0  0  0  0
  187.4130  178.1990  140.6670 C   0  0  0  0  0  0  0  0  0  0  0  0
  185.0740  178.7480  142.2100 C   0  0  0  0  0  0  0  0  0  0  0  0
  190.5530  176.7070  139.7040 C   0  0  2  0  0  3  0  0  0  0  0  0
  191.5790  177.4730  140.5240 C   0  0  0  0  0  1  0  0  0  0  0  0
  191.2180  175.9980  138.5700 C   0  0  0  0  0  0  0  0  0  0  0  0
  192.3180  176.5760  137.9520 O   0  0  0  0  0  0  0  0  0  0  0  0
  190.7930  174.8800  138.1720 O   0  0  0  0  0  1  0  0  0  0  0  0
  1 15  2  0  0  0  0
  1  4  1  0  0  0  0
  2  1  1  0  0  0  0
  3 15  1  0  0  0  0
  4  8  1  0  0  0  0
  5 19  2  0  0  0  0
  6  9  1  0  0  0  0
  7  3  2  0  0  0  0
  8 16  1  0  0  0  0
  8  9  2  0  0  0  0
 10 20  1  0  0  0  0
 11 10  1  0  0  0  0
 12 21  1  0  0  0  0
 12  5  2  0  0  0  0
 13  2  1  0  0  0  0
 14  6  2  0  0  0  0
 15 16  1  0  0  0  0
 17 19  1  0  0  0  0
 17 10  2  0  0  0  0
 18  4  2  0  0  0  0
 18 14  1  0  0  0  0
 19 13  1  0  0  0  0
 20  2  2  0  0  0  0
 20  7  1  0  0  0  0
 21 22  1  6  0  0  0
 23 21  1  0  0  0  0
 24 23  2  0  0  0  0
 25 23  1  0  0  0  0
M  END
>  <MODEL>
8

>  <REMARK>
 VINA RESULT:      -9.6      2.872      4.662
  Name = 
  2 active torsions:
  status: ('A' for Active; 'I' for Inactive)
    1  A    between atoms: C_2  and  C_21
    2  A    between atoms: C_15  and  C_21
                            x       y       z     vdW  Elec       q    Type
                         _______ _______ _______ _____ _____    ______ ____

>  <TORSDO>
F 2

$$$$
=
 OpenBabel10262419433D

 25 28  0  0  1  0  0  0  0  0999 V2000
  188.4230  177.6260  143.1240 C   0  0  0  0  0  0  0  0  0  0  0  0
  187.0950  177.9420  143.4680 C   0  0  0  0  0  0  0  0  0  0  0  0
  188.9650  177.2840  145.4610 C   0  0  0  0  0  3  0  0  0  0  0  0
  189.0160  177.5860  141.8470 C   0  0  0  0  0  0  0  0  0  0  0  0
  183.7110  178.6250  142.0880 C   0  0  0  0  0  0  0  0  0  0  0  0
  190.5300  177.3960  139.5040 C   0  0  0  0  0  3  0  0  0  0  0  0
  187.6800  177.5920  145.7860 N   0  0  0  0  0  0  0  0  0  0  0  0
  190.3640  177.2320  141.8910 C   0  0  0  0  0  0  0  0  0  0  0  0
  191.1400  177.1300  140.7390 C   0  0  0  0  0  3  0  0  0  0  0  0
  185.3610  178.2210  145.2690 C   0  0  0  0  0  0  0  0  0  0  0  0
  184.9400  178.2530  146.9720 Cl  0  0  0  0  0  0  0  0  0  0  0  0
  182.7410  178.8170  141.2370 C   0  0  0  0  0  3  0  0  0  0  0  0
  186.0910  178.3520  142.4180 C   0  0  0  0  0  2  0  0  0  0  0  0
  189.1710  177.7540  139.4430 C   0  0  0  0  0  3  0  0  0  0  0  0
  189.3340  177.3010  144.1240 C   0  0  0  0  0  0  0  0  0  0  0  0
  190.8540  176.9650  143.4790 S   0  0  0  0  0  0  0  0  0  0  0  0
  184.4020  178.4490  144.3740 C   0  0  0  0  0  3  0  0  0  0  0  0
  188.4060  177.8500  140.6170 C   0  0  0  0  0  3  0  0  0  0  0  0
  184.6840  178.4330  142.9330 C   0  0  0  0  0  0  0  0  0  0  0  0
  186.7430  177.9170  144.8430 C   0  0  0  0  0  0  0  0  0  0  0  0
  182.8310  178.2940  139.8410 C   0  0  2  0  0  3  0  0  0  0  0  0
  182.7710  176.7740  139.8230 C   0  0  0  0  0  1  0  0  0  0  0  0
  184.0850  178.7720  139.1840 C   0  0  0  0  0  0  0  0  0  0  0  0
  184.3350  180.1340  139.0950 O   0  0  0  0  0  1  0  0  0  0  0  0
  184.9180  177.9510  138.7140 O   0  0  0  0  0  0  0  0  0  0  0  0
  1  2  2  0  0  0  0
  1 15  1  0  0  0  0
  2 20  1  0  0  0  0
  3  7  1  0  0  0  0
  4  8  1  0  0  0  0
  4  1  1  0  0  0  0
  5 19  2  0  0  0  0
  6  9  1  0  0  0  0
  8 16  1  0  0  0  0
  9  8  2  0  0  0  0
 10 11  1  0  0  0  0
 12  5  2  0  0  0  0
 13 19  1  0  0  0  0
 13  2  1  0  0  0  0
 14  6  2  0  0  0  0
 14 18  1  0  0  0  0
 15  3  2  0  0  0  0
 16 15  1  0  0  0  0
 17 10  2  0  0  0  0
 18  4  2  0  0  0  0
 19 17  1  0  0  0  0
 20 10  1  0  0  0  0
 20  7  2  0  0  0  0
 21 22  1  1  0  0  0
 21 12  1  0  0  0  0
 23 21  1  0  0  0  0
 24 23  1  0  0  0  0
 25 23  2  0  0  0  0
M  END
>  <MODEL>
9

>  <REMARK>
 VINA RESULT:      -9.6      3.023      5.833
  Name = 
  2 active torsions:
  status: ('A' for Active; 'I' for Inactive)
    1  A    between atoms: C_2  and  C_21
    2  A    between atoms: C_15  and  C_21
                            x       y       z     vdW  Elec       q    Type
                         _______ _______ _______ _____ _____    ______ ____

>  <TORSDO>
F 2

$$$$
