=
 OpenBabel10262419213D

 31 33  0  0  1  0  0  0  0  0999 V2000
  189.3190  175.9360  137.2770 C   0  0  2  0  0  3  0  0  0  0  0  0
  187.8830  176.4090  137.0470 C   0  0  2  0  0  3  0  0  0  0  0  0
  185.9450  176.3450  135.3590 C   0  0  0  0  0  2  0  0  0  0  0  0
  189.5030  174.4140  137.3180 C   0  0  0  0  0  2  0  0  0  0  0  0
  192.5510  174.9840  136.3770 C   0  0  1  0  0  3  0  0  0  0  0  0
  187.0920  175.5720  136.0280 C   0  0  0  0  0  2  0  0  0  0  0  0
  191.4570  176.3610  138.6360 C   0  0  0  0  0  2  0  0  0  0  0  0
  189.1480  178.6710  136.9850 C   0  0  0  0  0  2  0  0  0  0  0  0
  184.8930  176.9170  136.3220 C   0  0  0  0  0  2  0  0  0  0  0  0
  192.2990  176.8020  137.5870 O   0  0  0  0  0  0  0  0  0  0  0  0
  189.9620  176.7060  138.4690 C   0  0  1  0  0  0  0  0  0  0  0  0
  191.8920  176.2220  136.4680 O   0  0  0  0  0  0  0  0  0  0  0  0
  185.4380  177.6660  137.5470 C   0  0  0  0  0  2  0  0  0  0  0  0
  190.3370  174.0110  136.2670 O   0  0  0  0  0  0  0  0  0  0  0  0
  191.6140  173.8620  136.8310 C   0  0  0  0  0  2  0  0  0  0  0  0
  189.8160  178.2320  138.2920 C   0  0  0  0  0  2  0  0  0  0  0  0
  187.8470  177.9110  136.6970 C   0  0  2  0  0  3  0  0  0  0  0  0
  186.6100  178.6190  137.2610 C   0  0  0  0  0  2  0  0  0  0  0  0
  192.9900  174.7410  134.9440 C   0  0  0  0  0  2  0  0  0  0  0  0
  193.1270  173.3730  134.7170 O   0  0  0  0  0  1  0  0  0  0  0  0
  189.2310  176.3900  139.7850 C   0  0  0  0  0  2  0  0  0  0  0  0
  189.4050  177.4420  140.8750 C   0  0  0  0  0  2  0  0  0  0  0  0
  191.0960  176.8160  142.6310 C   0  0  0  0  0  0  0  0  0  0  0  0
  189.7440  176.8020  142.1400 N   0  0  0  0  0  0  0  0  0  0  0  0
  192.0050  177.3890  141.9720 O   0  0  0  0  0  0  0  0  0  0  0  0
  188.6660  176.2210  142.9340 C   0  0  0  0  0  2  0  0  0  0  0  0
  187.7650  177.4530  144.9090 C   0  0  0  0  0  1  0  0  0  0  0  0
  187.6970  177.2970  143.4020 C   0  0  0  0  0  2  0  0  0  0  0  0
  191.4450  176.1810  143.9380 C   0  0  0  0  0  2  0  0  0  0  0  0
  191.5110  177.2350  145.0240 C   0  0  0  0  0  2  0  0  0  0  0  0
  191.5560  176.5610  146.3790 C   0  0  0  0  0  1  0  0  0  0  0  0
  1  4  1  1  0  0  0
  1 11  1  0  0  0  0
  2  6  1  6  0  0  0
  2  1  1  0  0  0  0
  3  6  1  0  0  0  0
  3  9  1  0  0  0  0
  5 19  1  6  0  0  0
  5 12  1  0  0  0  0
  5 15  1  0  0  0  0
  8 16  1  0  0  0  0
  9 13  1  0  0  0  0
 10  7  1  0  0  0  0
 11  7  1  0  0  0  0
 11 21  1  1  0  0  0
 12 10  1  0  0  0  0
 14 15  1  0  0  0  0
 14  4  1  0  0  0  0
 16 11  1  0  0  0  0
 17  8  1  1  0  0  0
 17  2  1  0  0  0  0
 17 18  1  0  0  0  0
 18 13  1  0  0  0  0
 20 19  1  0  0  0  0
 21 22  1  0  0  0  0
 22 24  1  0  0  0  0
 23 29  1  0  0  0  0
 24 23  1  0  0  0  0
 24 26  1  0  0  0  0
 25 23  2  0  0  0  0
 26 28  1  0  0  0  0
 28 27  1  0  0  0  0
 29 30  1  0  0  0  0
 30 31  1  0  0  0  0
M  END
>  <MODEL>
1

>  <REMARK>
 VINA RESULT:      -6.1      0.000      0.000
  Name = 
  8 active torsions:
  status: ('A' for Active; 'I' for Inactive)
    1  A    between atoms: C_1  and  C_8
    2  A    between atoms: C_2  and  C_13
    3  A    between atoms: C_3  and  C_7
    4  A    between atoms: C_3  and  N_22
    5  A    between atoms: C_8  and  C_19
    6  A    between atoms: C_9  and  N_22
    7  A    between atoms: C_9  and  C_23
    8  A    between atoms: C_21  and  C_23
                            x       y       z     vdW  Elec       q    Type
                         _______ _______ _______ _____ _____    ______ ____

>  <TORSDO>
F 8

$$$$
=
 OpenBabel10262419213D

 31 33  0  0  1  0  0  0  0  0999 V2000
  189.3260  175.9230  137.2240 C   0  0  2  0  0  3  0  0  0  0  0  0
  187.8910  176.3910  136.9800 C   0  0  2  0  0  3  0  0  0  0  0  0
  185.9690  176.3180  135.2740 C   0  0  0  0  0  2  0  0  0  0  0  0
  189.5140  174.4010  137.2700 C   0  0  0  0  0  2  0  0  0  0  0  0
  192.5690  174.9790  136.3560 C   0  0  1  0  0  3  0  0  0  0  0  0
  187.1120  175.5500  135.9550 C   0  0  0  0  0  2  0  0  0  0  0  0
  191.4500  176.3570  138.6020 C   0  0  0  0  0  2  0  0  0  0  0  0
  189.1500  178.6560  136.9240 C   0  0  0  0  0  2  0  0  0  0  0  0
  184.9060  176.8880  136.2260 C   0  0  0  0  0  2  0  0  0  0  0  0
  192.3010  176.7980  137.5600 O   0  0  0  0  0  0  0  0  0  0  0  0
  189.9560  176.6970  138.4200 C   0  0  1  0  0  0  0  0  0  0  0  0
  191.9060  176.2150  136.4380 O   0  0  0  0  0  0  0  0  0  0  0  0
  185.4380  177.6410  137.4540 C   0  0  0  0  0  2  0  0  0  0  0  0
  190.3600  173.9990  136.2270 O   0  0  0  0  0  0  0  0  0  0  0  0
  191.6310  173.8540  136.8030 C   0  0  0  0  0  2  0  0  0  0  0  0
  189.8070  178.2220  138.2390 C   0  0  0  0  0  2  0  0  0  0  0  0
  187.8540  177.8920  136.6260 C   0  0  2  0  0  3  0  0  0  0  0  0
  186.6090  178.5970  137.1780 C   0  0  0  0  0  2  0  0  0  0  0  0
  193.0220  174.7340  134.9280 C   0  0  0  0  0  2  0  0  0  0  0  0
  194.1670  173.9390  134.9240 O   0  0  0  0  0  1  0  0  0  0  0  0
  189.2140  176.3810  139.7300 C   0  0  0  0  0  2  0  0  0  0  0  0
  189.1190  177.5520  140.7030 C   0  0  0  0  0  2  0  0  0  0  0  0
  187.9610  177.2710  142.9200 C   0  0  0  0  0  0  0  0  0  0  0  0
  189.1080  177.0630  142.0760 N   0  0  0  0  0  0  0  0  0  0  0  0
  186.9480  177.8760  142.4760 O   0  0  0  0  0  0  0  0  0  0  0  0
  190.2510  176.2880  142.5450 C   0  0  0  0  0  2  0  0  0  0  0  0
  191.4890  178.1430  143.6650 C   0  0  0  0  0  1  0  0  0  0  0  0
  191.5180  177.1300  142.5370 C   0  0  0  0  0  2  0  0  0  0  0  0
  187.9350  176.7530  144.3210 C   0  0  0  0  0  2  0  0  0  0  0  0
  188.1600  177.8900  145.2960 C   0  0  0  0  0  2  0  0  0  0  0  0
  188.9080  177.3730  146.5080 C   0  0  0  0  0  1  0  0  0  0  0  0
  1  4  1  1  0  0  0
  1 11  1  0  0  0  0
  2  6  1  6  0  0  0
  2  1  1  0  0  0  0
  3  6  1  0  0  0  0
  3  9  1  0  0  0  0
  5 19  1  6  0  0  0
  5 12  1  0  0  0  0
  5 15  1  0  0  0  0
  8 16  1  0  0  0  0
  9 13  1  0  0  0  0
 10  7  1  0  0  0  0
 11  7  1  0  0  0  0
 11 21  1  1  0  0  0
 12 10  1  0  0  0  0
 14 15  1  0  0  0  0
 14  4  1  0  0  0  0
 16 11  1  0  0  0  0
 17  8  1  1  0  0  0
 17  2  1  0  0  0  0
 17 18  1  0  0  0  0
 18 13  1  0  0  0  0
 20 19  1  0  0  0  0
 21 22  1  0  0  0  0
 22 24  1  0  0  0  0
 23 29  1  0  0  0  0
 24 26  1  0  0  0  0
 24 23  1  0  0  0  0
 25 23  2  0  0  0  0
 28 26  1  0  0  0  0
 28 27  1  0  0  0  0
 29 30  1  0  0  0  0
 30 31  1  0  0  0  0
M  END
>  <MODEL>
2

>  <REMARK>
 VINA RESULT:      -6.1      1.106      1.836
  Name = 
  8 active torsions:
  status: ('A' for Active; 'I' for Inactive)
    1  A    between atoms: C_1  and  C_8
    2  A    between atoms: C_2  and  C_13
    3  A    between atoms: C_3  and  C_7
    4  A    between atoms: C_3  and  N_22
    5  A    between atoms: C_8  and  C_19
    6  A    between atoms: C_9  and  N_22
    7  A    between atoms: C_9  and  C_23
    8  A    between atoms: C_21  and  C_23
                            x       y       z     vdW  Elec       q    Type
                         _______ _______ _______ _____ _____    ______ ____

>  <TORSDO>
F 8

$$$$
=
 OpenBabel10262419213D

 31 33  0  0  1  0  0  0  0  0999 V2000
  189.3490  175.6910  137.0370 C   0  0  2  0  0  3  0  0  0  0  0  0
  187.8800  176.0740  136.8500 C   0  0  2  0  0  3  0  0  0  0  0  0
  185.8610  175.7660  135.2880 C   0  0  0  0  0  2  0  0  0  0  0  0
  189.6120  174.1890  137.2030 C   0  0  0  0  0  2  0  0  0  0  0  0
  192.5720  174.8100  136.0400 C   0  0  1  0  0  3  0  0  0  0  0  0
  187.0800  175.1120  135.9560 C   0  0  0  0  0  2  0  0  0  0  0  0
  191.5310  176.3360  138.2270 C   0  0  0  0  0  2  0  0  0  0  0  0
  189.0230  178.3770  136.5130 C   0  0  0  0  0  2  0  0  0  0  0  0
  184.8330  176.3750  136.2560 C   0  0  0  0  0  2  0  0  0  0  0  0
  192.2930  176.7180  137.0960 O   0  0  0  0  0  0  0  0  0  0  0  0
  190.0140  176.5960  138.1170 C   0  0  1  0  0  0  0  0  0  0  0  0
  191.8570  176.0200  136.0580 O   0  0  0  0  0  0  0  0  0  0  0  0
  185.4050  177.2580  137.3750 C   0  0  0  0  0  2  0  0  0  0  0  0
  190.4080  173.7300  136.1450 O   0  0  0  0  0  0  0  0  0  0  0  0
  191.7190  173.6920  136.6460 C   0  0  0  0  0  2  0  0  0  0  0  0
  189.7810  178.0900  137.8130 C   0  0  0  0  0  2  0  0  0  0  0  0
  187.7490  177.5340  136.3690 C   0  0  2  0  0  3  0  0  0  0  0  0
  186.5090  178.2330  136.9390 C   0  0  0  0  0  2  0  0  0  0  0  0
  192.9460  174.4570  134.6120 C   0  0  0  0  0  2  0  0  0  0  0  0
  193.7260  173.3020  134.5980 O   0  0  0  0  0  1  0  0  0  0  0  0
  189.3720  176.3680  139.4950 C   0  0  0  0  0  2  0  0  0  0  0  0
  190.1080  177.0320  140.6550 C   0  0  0  0  0  2  0  0  0  0  0  0
  189.0450  176.4840  142.8700 C   0  0  0  0  0  0  0  0  0  0  0  0
  189.1720  177.3490  141.7270 N   0  0  0  0  0  0  0  0  0  0  0  0
  189.7490  175.4420  142.9580 O   0  0  0  0  0  0  0  0  0  0  0  0
  188.4310  178.6030  141.6530 C   0  0  0  0  0  2  0  0  0  0  0  0
  185.9550  178.8520  141.4710 C   0  0  0  0  0  1  0  0  0  0  0  0
  187.2240  178.4670  140.7360 C   0  0  0  0  0  2  0  0  0  0  0  0
  188.1050  176.8150  143.9820 C   0  0  0  0  0  2  0  0  0  0  0  0
  188.8810  177.3090  145.1860 C   0  0  0  0  0  2  0  0  0  0  0  0
  187.9140  177.8020  146.2420 C   0  0  0  0  0  1  0  0  0  0  0  0
  1  4  1  1  0  0  0
  1 11  1  0  0  0  0
  2  6  1  6  0  0  0
  2  1  1  0  0  0  0
  3  6  1  0  0  0  0
  3  9  1  0  0  0  0
  5 19  1  6  0  0  0
  5 12  1  0  0  0  0
  5 15  1  0  0  0  0
  8 16  1  0  0  0  0
  9 13  1  0  0  0  0
 10  7  1  0  0  0  0
 11  7  1  0  0  0  0
 11 21  1  1  0  0  0
 12 10  1  0  0  0  0
 14 15  1  0  0  0  0
 14  4  1  0  0  0  0
 16 11  1  0  0  0  0
 17  8  1  1  0  0  0
 17  2  1  0  0  0  0
 17 18  1  0  0  0  0
 18 13  1  0  0  0  0
 20 19  1  0  0  0  0
 21 22  1  0  0  0  0
 22 24  1  0  0  0  0
 23 25  2  0  0  0  0
 23 29  1  0  0  0  0
 24 23  1  0  0  0  0
 26 24  1  0  0  0  0
 28 27  1  0  0  0  0
 28 26  1  0  0  0  0
 29 30  1  0  0  0  0
 30 31  1  0  0  0  0
M  END
>  <MODEL>
3

>  <REMARK>
 VINA RESULT:      -5.9      1.210      1.670
  Name = 
  8 active torsions:
  status: ('A' for Active; 'I' for Inactive)
    1  A    between atoms: C_1  and  C_8
    2  A    between atoms: C_2  and  C_13
    3  A    between atoms: C_3  and  C_7
    4  A    between atoms: C_3  and  N_22
    5  A    between atoms: C_8  and  C_19
    6  A    between atoms: C_9  and  N_22
    7  A    between atoms: C_9  and  C_23
    8  A    between atoms: C_21  and  C_23
                            x       y       z     vdW  Elec       q    Type
                         _______ _______ _______ _____ _____    ______ ____

>  <TORSDO>
F 8

$$$$
=
 OpenBabel10262419213D

 31 33  0  0  1  0  0  0  0  0999 V2000
  182.9520  177.3900  139.0430 C   0  0  2  0  0  3  0  0  0  0  0  0
  181.6930  177.8610  139.7720 C   0  0  2  0  0  3  0  0  0  0  0  0
  179.1280  177.6800  139.7670 C   0  0  0  0  0  2  0  0  0  0  0  0
  183.1860  175.8750  139.0660 C   0  0  0  0  0  2  0  0  0  0  0  0
  184.8580  176.3210  136.3260 C   0  0  1  0  0  3  0  0  0  0  0  0
  180.4670  176.9520  139.5810 C   0  0  0  0  0  2  0  0  0  0  0  0
  185.4370  177.8990  138.6430 C   0  0  0  0  0  2  0  0  0  0  0  0
  182.5080  180.0920  138.7340 C   0  0  0  0  0  2  0  0  0  0  0  0
  178.9310  178.3460  141.1390 C   0  0  0  0  0  2  0  0  0  0  0  0
  185.3720  178.2380  137.2700 O   0  0  0  0  0  0  0  0  0  0  0  0
  184.1800  178.2500  139.4670 C   0  0  1  0  0  0  0  0  0  0  0  0
  184.3620  177.5710  136.7330 O   0  0  0  0  0  0  0  0  0  0  0  0
  180.1080  179.1890  141.6520 C   0  0  0  0  0  2  0  0  0  0  0  0
  183.1520  175.3720  137.7580 O   0  0  0  0  0  0  0  0  0  0  0  0
  184.4930  175.2540  137.3620 C   0  0  0  0  0  2  0  0  0  0  0  0
  183.8850  179.7560  139.3170 C   0  0  0  0  0  2  0  0  0  0  0  0
  181.3690  179.3280  139.4210 C   0  0  2  0  0  3  0  0  0  0  0  0
  180.7670  180.0980  140.6030 C   0  0  0  0  0  2  0  0  0  0  0  0
  184.2690  175.9510  134.9760 C   0  0  0  0  0  2  0  0  0  0  0  0
  184.2590  174.5660  134.8280 O   0  0  0  0  0  1  0  0  0  0  0  0
  184.4970  178.0560  140.9590 C   0  0  0  0  0  2  0  0  0  0  0  0
  185.6400  178.9200  141.4820 C   0  0  0  0  0  2  0  0  0  0  0  0
  186.7150  177.9030  143.5180 C   0  0  0  0  0  0  0  0  0  0  0  0
  185.7460  178.7900  142.9300 N   0  0  0  0  0  0  0  0  0  0  0  0
  187.4890  177.2320  142.7830 O   0  0  0  0  0  0  0  0  0  0  0  0
  184.9060  179.6400  143.7660 C   0  0  0  0  0  2  0  0  0  0  0  0
  182.5630  178.8140  144.0040 C   0  0  0  0  0  1  0  0  0  0  0  0
  183.9550  178.8020  144.6080 C   0  0  0  0  0  2  0  0  0  0  0  0
  186.8440  177.7820  145.0010 C   0  0  0  0  0  2  0  0  0  0  0  0
  188.2230  177.2680  145.3600 C   0  0  0  0  0  2  0  0  0  0  0  0
  188.5600  177.6780  146.7780 C   0  0  0  0  0  1  0  0  0  0  0  0
  1  4  1  1  0  0  0
  1 11  1  0  0  0  0
  1  2  1  0  0  0  0
  2  6  1  6  0  0  0
  3  9  1  0  0  0  0
  5 19  1  6  0  0  0
  5 12  1  0  0  0  0
  5 15  1  0  0  0  0
  6  3  1  0  0  0  0
  7 11  1  0  0  0  0
  8 16  1  0  0  0  0
  9 13  1  0  0  0  0
 10  7  1  0  0  0  0
 11 21  1  1  0  0  0
 12 10  1  0  0  0  0
 14  4  1  0  0  0  0
 15 14  1  0  0  0  0
 16 11  1  0  0  0  0
 17  8  1  1  0  0  0
 17  2  1  0  0  0  0
 17 18  1  0  0  0  0
 18 13  1  0  0  0  0
 20 19  1  0  0  0  0
 21 22  1  0  0  0  0
 22 24  1  0  0  0  0
 23 29  1  0  0  0  0
 24 23  1  0  0  0  0
 24 26  1  0  0  0  0
 25 23  2  0  0  0  0
 26 28  1  0  0  0  0
 27 28  1  0  0  0  0
 29 30  1  0  0  0  0
 30 31  1  0  0  0  0
M  END
>  <MODEL>
4

>  <REMARK>
 VINA RESULT:      -5.4      4.785      6.469
  Name = 
  8 active torsions:
  status: ('A' for Active; 'I' for Inactive)
    1  A    between atoms: C_1  and  C_8
    2  A    between atoms: C_2  and  C_13
    3  A    between atoms: C_3  and  C_7
    4  A    between atoms: C_3  and  N_22
    5  A    between atoms: C_8  and  C_19
    6  A    between atoms: C_9  and  N_22
    7  A    between atoms: C_9  and  C_23
    8  A    between atoms: C_21  and  C_23
                            x       y       z     vdW  Elec       q    Type
                         _______ _______ _______ _____ _____    ______ ____

>  <TORSDO>
F 8

$$$$
=
 OpenBabel10262419213D

 31 33  0  0  1  0  0  0  0  0999 V2000
  181.8280  178.5710  138.8620 C   0  0  2  0  0  3  0  0  0  0  0  0
  182.4160  177.3240  138.2010 C   0  0  2  0  0  3  0  0  0  0  0  0
  183.0980  176.3320  135.9280 C   0  0  0  0  0  2  0  0  0  0  0  0
  182.6630  179.8470  138.7000 C   0  0  0  0  0  2  0  0  0  0  0  0
  179.8720  181.4500  139.0790 C   0  0  1  0  0  3  0  0  0  0  0  0
  183.0660  177.5760  136.8300 C   0  0  0  0  0  2  0  0  0  0  0  0
  180.6570  179.4500  140.9720 C   0  0  0  0  0  2  0  0  0  0  0  0
  180.1330  176.4030  139.0130 C   0  0  0  0  0  2  0  0  0  0  0  0
  183.8390  175.1190  136.5140 C   0  0  0  0  0  2  0  0  0  0  0  0
  179.3970  179.7640  140.4080 O   0  0  0  0  0  0  0  0  0  0  0  0
  181.3880  178.2570  140.3230 C   0  0  1  0  0  0  0  0  0  0  0  0
  179.5870  180.0750  139.1340 O   0  0  0  0  0  0  0  0  0  0  0  0
  183.4910  174.7550  137.9660 C   0  0  0  0  0  2  0  0  0  0  0  0
  181.9300  180.8020  137.9820 O   0  0  0  0  0  0  0  0  0  0  0  0
  181.3830  181.6630  138.9450 C   0  0  0  0  0  2  0  0  0  0  0  0
  180.4720  177.0170  140.3760 C   0  0  0  0  0  2  0  0  0  0  0  0
  181.3710  176.1920  138.1320 C   0  0  2  0  0  3  0  0  0  0  0  0
  181.9940  174.8020  138.3100 C   0  0  0  0  0  2  0  0  0  0  0  0
  179.1570  182.0740  137.8950 C   0  0  0  0  0  2  0  0  0  0  0  0
  179.7780  183.2720  137.5440 O   0  0  0  0  0  1  0  0  0  0  0  0
  182.6020  177.8880  141.1940 C   0  0  0  0  0  2  0  0  0  0  0  0
  182.8620  178.8420  142.3550 C   0  0  0  0  0  2  0  0  0  0  0  0
  184.3380  178.7330  144.3900 C   0  0  0  0  0  0  0  0  0  0  0  0
  184.1430  178.5360  142.9780 N   0  0  0  0  0  0  0  0  0  0  0  0
  183.3970  179.1700  145.1060 O   0  0  0  0  0  0  0  0  0  0  0  0
  185.1930  177.9470  142.1540 C   0  0  0  0  0  2  0  0  0  0  0  0
  187.4590  178.6250  141.3590 C   0  0  0  0  0  1  0  0  0  0  0  0
  185.9990  179.0270  141.4490 C   0  0  0  0  0  2  0  0  0  0  0  0
  185.6420  178.4000  145.0390 C   0  0  0  0  0  2  0  0  0  0  0  0
  185.6800  178.9640  146.4440 C   0  0  0  0  0  2  0  0  0  0  0  0
  186.7500  178.2530  147.2450 C   0  0  0  0  0  1  0  0  0  0  0  0
  1  4  1  1  0  0  0
  1 11  1  0  0  0  0
  2  6  1  6  0  0  0
  2  1  1  0  0  0  0
  3  9  1  0  0  0  0
  3  6  1  0  0  0  0
  5 19  1  6  0  0  0
  5 12  1  0  0  0  0
  8 16  1  0  0  0  0
  9 13  1  0  0  0  0
 10  7  1  0  0  0  0
 11 16  1  0  0  0  0
 11  7  1  0  0  0  0
 11 21  1  1  0  0  0
 12 10  1  0  0  0  0
 13 18  1  0  0  0  0
 14  4  1  0  0  0  0
 14 15  1  0  0  0  0
 15  5  1  0  0  0  0
 17  2  1  0  0  0  0
 17 18  1  1  0  0  0
 17  8  1  0  0  0  0
 20 19  1  0  0  0  0
 21 22  1  0  0  0  0
 22 24  1  0  0  0  0
 23 29  1  0  0  0  0
 23 25  2  0  0  0  0
 24 23  1  0  0  0  0
 26 24  1  0  0  0  0
 27 28  1  0  0  0  0
 28 26  1  0  0  0  0
 29 30  1  0  0  0  0
 30 31  1  0  0  0  0
M  END
>  <MODEL>
5

>  <REMARK>
 VINA RESULT:      -5.4      6.366      8.997
  Name = 
  8 active torsions:
  status: ('A' for Active; 'I' for Inactive)
    1  A    between atoms: C_1  and  C_8
    2  A    between atoms: C_2  and  C_13
    3  A    between atoms: C_3  and  C_7
    4  A    between atoms: C_3  and  N_22
    5  A    between atoms: C_8  and  C_19
    6  A    between atoms: C_9  and  N_22
    7  A    between atoms: C_9  and  C_23
    8  A    between atoms: C_21  and  C_23
                            x       y       z     vdW  Elec       q    Type
                         _______ _______ _______ _____ _____    ______ ____

>  <TORSDO>
F 8

$$$$
=
 OpenBabel10262419213D

 31 33  0  0  1  0  0  0  0  0999 V2000
  182.2450  178.7050  141.0960 C   0  0  2  0  0  3  0  0  0  0  0  0
  183.4000  178.5230  142.0810 C   0  0  2  0  0  3  0  0  0  0  0  0
  184.3590  179.3890  144.3040 C   0  0  0  0  0  2  0  0  0  0  0  0
  180.8530  178.4050  141.6660 C   0  0  0  0  0  2  0  0  0  0  0  0
  179.7370  180.4330  139.3980 C   0  0  1  0  0  3  0  0  0  0  0  0
  183.1010  179.0050  143.5100 C   0  0  0  0  0  2  0  0  0  0  0  0
  181.4880  178.2860  138.6780 C   0  0  0  0  0  2  0  0  0  0  0  0
  184.6620  179.4980  140.0370 C   0  0  0  0  0  2  0  0  0  0  0  0
  185.4000  178.2690  144.4610 C   0  0  0  0  0  2  0  0  0  0  0  0
  181.4190  179.6280  138.2340 O   0  0  0  0  0  0  0  0  0  0  0  0
  182.5650  177.9990  139.7440 C   0  0  1  0  0  0  0  0  0  0  0  0
  181.1370  180.3890  139.2820 O   0  0  0  0  0  0  0  0  0  0  0  0
  185.7540  177.4960  143.1820 C   0  0  0  0  0  2  0  0  0  0  0  0
  180.0690  179.5670  141.6340 O   0  0  0  0  0  0  0  0  0  0  0  0
  179.2740  179.4570  140.4830 C   0  0  0  0  0  2  0  0  0  0  0  0
  183.9400  178.4370  139.1990 C   0  0  0  0  0  2  0  0  0  0  0  0
  184.6970  179.1530  141.5310 C   0  0  2  0  0  3  0  0  0  0  0  0
  185.9500  178.3620  141.9280 C   0  0  0  0  0  2  0  0  0  0  0  0
  179.2970  181.8430  139.7510 C   0  0  0  0  0  2  0  0  0  0  0  0
  179.6120  182.7130  138.7090 O   0  0  0  0  0  1  0  0  0  0  0  0
  182.6820  176.4780  139.9340 C   0  0  0  0  0  2  0  0  0  0  0  0
  181.5700  175.6700  139.2720 C   0  0  0  0  0  2  0  0  0  0  0  0
  181.3170  173.8550  137.5460 C   0  0  0  0  0  0  0  0  0  0  0  0
  182.1110  174.8780  138.1740 N   0  0  0  0  0  0  0  0  0  0  0  0
  180.1390  173.6360  137.9380 O   0  0  0  0  0  0  0  0  0  0  0  0
  183.4420  175.2050  137.6730 C   0  0  0  0  0  2  0  0  0  0  0  0
  184.7310  176.5800  136.0380 C   0  0  0  0  0  1  0  0  0  0  0  0
  183.3550  176.0790  136.4310 C   0  0  0  0  0  2  0  0  0  0  0  0
  181.8570  173.0570  136.4050 C   0  0  0  0  0  2  0  0  0  0  0  0
  182.2910  171.6890  136.8910 C   0  0  0  0  0  2  0  0  0  0  0  0
  183.8010  171.5920  136.8410 C   0  0  0  0  0  1  0  0  0  0  0  0
  1  4  1  1  0  0  0
  1  2  1  0  0  0  0
  2  6  1  1  0  0  0
  3  9  1  0  0  0  0
  5 19  1  1  0  0  0
  5 15  1  0  0  0  0
  6  3  1  0  0  0  0
  7 11  1  0  0  0  0
 10  7  1  0  0  0  0
 10 12  1  0  0  0  0
 11 21  1  1  0  0  0
 11  1  1  0  0  0  0
 12  5  1  0  0  0  0
 13  9  1  0  0  0  0
 14  4  1  0  0  0  0
 15 14  1  0  0  0  0
 16 11  1  0  0  0  0
 16  8  1  0  0  0  0
 17  8  1  6  0  0  0
 17 18  1  0  0  0  0
 17  2  1  0  0  0  0
 18 13  1  0  0  0  0
 20 19  1  0  0  0  0
 22 21  1  0  0  0  0
 23 25  2  0  0  0  0
 23 24  1  0  0  0  0
 24 22  1  0  0  0  0
 26 24  1  0  0  0  0
 27 28  1  0  0  0  0
 28 26  1  0  0  0  0
 29 30  1  0  0  0  0
 29 23  1  0  0  0  0
 31 30  1  0  0  0  0
M  END
>  <MODEL>
6

>  <REMARK>
 VINA RESULT:      -5.4      6.630     10.457
  Name = 
  8 active torsions:
  status: ('A' for Active; 'I' for Inactive)
    1  A    between atoms: C_1  and  C_8
    2  A    between atoms: C_2  and  C_13
    3  A    between atoms: C_3  and  C_7
    4  A    between atoms: C_3  and  N_22
    5  A    between atoms: C_8  and  C_19
    6  A    between atoms: C_9  and  N_22
    7  A    between atoms: C_9  and  C_23
    8  A    between atoms: C_21  and  C_23
                            x       y       z     vdW  Elec       q    Type
                         _______ _______ _______ _____ _____    ______ ____

>  <TORSDO>
F 8

$$$$
=
 OpenBabel10262419213D

 31 33  0  0  1  0  0  0  0  0999 V2000
  182.8020  177.3360  139.0800 C   0  0  2  0  0  3  0  0  0  0  0  0
  181.5970  177.8420  139.8740 C   0  0  2  0  0  3  0  0  0  0  0  0
  179.0360  177.6890  140.0400 C   0  0  0  0  0  2  0  0  0  0  0  0
  183.0250  175.8200  139.1360 C   0  0  0  0  0  2  0  0  0  0  0  0
  184.5190  176.1630  136.2800 C   0  0  1  0  0  3  0  0  0  0  0  0
  180.3550  176.9410  139.7910 C   0  0  0  0  0  2  0  0  0  0  0  0
  185.2610  177.8070  138.5050 C   0  0  0  0  0  2  0  0  0  0  0  0
  182.3630  180.0320  138.7150 C   0  0  0  0  0  2  0  0  0  0  0  0
  178.9340  178.3990  141.4000 C   0  0  0  0  0  2  0  0  0  0  0  0
  185.1100  178.1030  137.1280 O   0  0  0  0  0  0  0  0  0  0  0  0
  184.0630  178.1950  139.3960 C   0  0  1  0  0  0  0  0  0  0  0  0
  184.0610  177.4310  136.6790 O   0  0  0  0  0  0  0  0  0  0  0  0
  180.1500  179.2450  141.8090 C   0  0  0  0  0  2  0  0  0  0  0  0
  182.9020  175.2770  137.8490 O   0  0  0  0  0  0  0  0  0  0  0  0
  184.2140  175.1330  137.3710 C   0  0  0  0  0  2  0  0  0  0  0  0
  183.7720  179.7000  139.2180 C   0  0  0  0  0  2  0  0  0  0  0  0
  181.2640  179.3010  139.4980 C   0  0  2  0  0  3  0  0  0  0  0  0
  180.7470  180.1140  140.6910 C   0  0  0  0  0  2  0  0  0  0  0  0
  183.8410  175.7580  134.9840 C   0  0  0  0  0  2  0  0  0  0  0  0
  183.9490  174.3800  134.8040 O   0  0  0  0  0  1  0  0  0  0  0  0
  184.4740  178.0450  140.8700 C   0  0  0  0  0  2  0  0  0  0  0  0
  185.5230  179.0480  141.3410 C   0  0  0  0  0  2  0  0  0  0  0  0
  185.8180  178.4770  143.7750 C   0  0  0  0  0  0  0  0  0  0  0  0
  186.3130  178.4750  142.4240 N   0  0  0  0  0  0  0  0  0  0  0  0
  184.6880  178.9720  144.0350 O   0  0  0  0  0  0  0  0  0  0  0  0
  187.5770  177.8270  142.0920 C   0  0  0  0  0  2  0  0  0  0  0  0
  189.4430  177.6750  140.4410 C   0  0  0  0  0  1  0  0  0  0  0  0
  188.1260  178.3510  140.7740 C   0  0  0  0  0  2  0  0  0  0  0  0
  186.6130  177.8720  144.8850 C   0  0  0  0  0  2  0  0  0  0  0  0
  185.8580  177.9990  146.1920 C   0  0  0  0  0  2  0  0  0  0  0  0
  186.8390  178.2340  147.3210 C   0  0  0  0  0  1  0  0  0  0  0  0
  1  4  1  1  0  0  0
  1 11  1  0  0  0  0
  1  2  1  0  0  0  0
  2  6  1  6  0  0  0
  3  9  1  0  0  0  0
  5 19  1  6  0  0  0
  5 12  1  0  0  0  0
  5 15  1  0  0  0  0
  6  3  1  0  0  0  0
  7 11  1  0  0  0  0
  8 16  1  0  0  0  0
  9 13  1  0  0  0  0
 10  7  1  0  0  0  0
 11 21  1  1  0  0  0
 12 10  1  0  0  0  0
 14  4  1  0  0  0  0
 15 14  1  0  0  0  0
 16 11  1  0  0  0  0
 17  8  1  1  0  0  0
 17  2  1  0  0  0  0
 17 18  1  0  0  0  0
 18 13  1  0  0  0  0
 20 19  1  0  0  0  0
 21 22  1  0  0  0  0
 22 24  1  0  0  0  0
 23 25  2  0  0  0  0
 23 29  1  0  0  0  0
 24 23  1  0  0  0  0
 26 24  1  0  0  0  0
 27 28  1  0  0  0  0
 28 26  1  0  0  0  0
 29 30  1  0  0  0  0
 30 31  1  0  0  0  0
M  END
>  <MODEL>
7

>  <REMARK>
 VINA RESULT:      -5.3      4.587      6.725
  Name = 
  8 active torsions:
  status: ('A' for Active; 'I' for Inactive)
    1  A    between atoms: C_1  and  C_8
    2  A    between atoms: C_2  and  C_13
    3  A    between atoms: C_3  and  C_7
    4  A    between atoms: C_3  and  N_22
    5  A    between atoms: C_8  and  C_19
    6  A    between atoms: C_9  and  N_22
    7  A    between atoms: C_9  and  C_23
    8  A    between atoms: C_21  and  C_23
                            x       y       z     vdW  Elec       q    Type
                         _______ _______ _______ _____ _____    ______ ____

>  <TORSDO>
F 8

$$$$
=
 OpenBabel10262419213D

 31 33  0  0  1  0  0  0  0  0999 V2000
  182.0460  176.9640  138.8630 C   0  0  2  0  0  3  0  0  0  0  0  0
  181.2330  177.5950  139.9930 C   0  0  2  0  0  3  0  0  0  0  0  0
  178.9310  177.5530  141.1380 C   0  0  0  0  0  2  0  0  0  0  0  0
  182.2830  175.4540  138.9970 C   0  0  0  0  0  2  0  0  0  0  0  0
  182.5700  175.4420  135.7690 C   0  0  1  0  0  3  0  0  0  0  0  0
  180.0580  176.7350  140.4900 C   0  0  0  0  0  2  0  0  0  0  0  0
  184.0950  177.2810  137.3470 C   0  0  0  0  0  2  0  0  0  0  0  0
  181.4840  179.6210  138.3960 C   0  0  0  0  0  2  0  0  0  0  0  0
  179.3520  178.4050  142.3460 C   0  0  0  0  0  2  0  0  0  0  0  0
  183.4280  177.4370  136.1070 O   0  0  0  0  0  0  0  0  0  0  0  0
  183.3260  177.8050  138.5780 C   0  0  1  0  0  0  0  0  0  0  0  0
  182.2910  176.7600  136.1690 O   0  0  0  0  0  0  0  0  0  0  0  0
  180.6260  179.2440  142.1660 C   0  0  0  0  0  2  0  0  0  0  0  0
  181.6800  174.7850  137.9220 O   0  0  0  0  0  0  0  0  0  0  0  0
  182.7100  174.5430  137.0010 C   0  0  0  0  0  2  0  0  0  0  0  0
  182.9800  179.2920  138.3580 C   0  0  0  0  0  2  0  0  0  0  0  0
  180.7720  179.0170  139.6130 C   0  0  2  0  0  3  0  0  0  0  0  0
  180.7450  179.9690  140.8160 C   0  0  0  0  0  2  0  0  0  0  0  0
  181.4500  174.9290  134.8820 C   0  0  0  0  0  2  0  0  0  0  0  0
  181.4790  173.5360  134.8410 O   0  0  0  0  0  1  0  0  0  0  0  0
  184.2710  177.7940  139.7920 C   0  0  0  0  0  2  0  0  0  0  0  0
  184.7880  179.1690  140.2040 C   0  0  0  0  0  2  0  0  0  0  0  0
  187.1150  178.6270  140.9960 C   0  0  0  0  0  0  0  0  0  0  0  0
  185.7640  179.0360  141.2780 N   0  0  0  0  0  0  0  0  0  0  0  0
  187.4700  178.3830  139.8110 O   0  0  0  0  0  0  0  0  0  0  0  0
  185.3630  179.4080  142.6300 C   0  0  0  0  0  2  0  0  0  0  0  0
  184.9830  178.2530  144.8100 C   0  0  0  0  0  1  0  0  0  0  0  0
  184.6650  178.2490  143.3270 C   0  0  0  0  0  2  0  0  0  0  0  0
  188.1260  178.5110  142.0900 C   0  0  0  0  0  2  0  0  0  0  0  0
  188.6200  177.0820  142.1870 C   0  0  0  0  0  2  0  0  0  0  0  0
  187.9570  176.3990  143.3650 C   0  0  0  0  0  1  0  0  0  0  0  0
  1  4  1  1  0  0  0
  1  2  1  0  0  0  0
  2  6  1  6  0  0  0
  3  9  1  0  0  0  0
  5 19  1  6  0  0  0
  5 12  1  0  0  0  0
  5 15  1  0  0  0  0
  6  3  1  0  0  0  0
  7 11  1  0  0  0  0
 10 12  1  0  0  0  0
 10  7  1  0  0  0  0
 11  1  1  0  0  0  0
 11 21  1  1  0  0  0
 13  9  1  0  0  0  0
 14  4  1  0  0  0  0
 15 14  1  0  0  0  0
 16  8  1  0  0  0  0
 16 11  1  0  0  0  0
 17  8  1  6  0  0  0
 17  2  1  0  0  0  0
 17 18  1  0  0  0  0
 18 13  1  0  0  0  0
 20 19  1  0  0  0  0
 21 22  1  0  0  0  0
 22 24  1  0  0  0  0
 23 24  1  0  0  0  0
 23 29  1  0  0  0  0
 24 26  1  0  0  0  0
 25 23  2  0  0  0  0
 26 28  1  0  0  0  0
 28 27  1  0  0  0  0
 29 30  1  0  0  0  0
 30 31  1  0  0  0  0
M  END
>  <MODEL>
8

>  <REMARK>
 VINA RESULT:      -5.3      5.048      7.357
  Name = 
  8 active torsions:
  status: ('A' for Active; 'I' for Inactive)
    1  A    between atoms: C_1  and  C_8
    2  A    between atoms: C_2  and  C_13
    3  A    between atoms: C_3  and  C_7
    4  A    between atoms: C_3  and  N_22
    5  A    between atoms: C_8  and  C_19
    6  A    between atoms: C_9  and  N_22
    7  A    between atoms: C_9  and  C_23
    8  A    between atoms: C_21  and  C_23
                            x       y       z     vdW  Elec       q    Type
                         _______ _______ _______ _____ _____    ______ ____

>  <TORSDO>
F 8

$$$$
=
 OpenBabel10262419213D

 31 33  0  0  1  0  0  0  0  0999 V2000
  182.2180  178.2590  138.6840 C   0  0  2  0  0  3  0  0  0  0  0  0
  182.8830  177.1500  137.8690 C   0  0  2  0  0  3  0  0  0  0  0  0
  183.4080  176.4000  135.4660 C   0  0  0  0  0  2  0  0  0  0  0  0
  182.8480  179.6480  138.5250 C   0  0  0  0  0  2  0  0  0  0  0  0
  179.9340  180.8120  139.3380 C   0  0  1  0  0  3  0  0  0  0  0  0
  183.3190  177.5710  136.4560 C   0  0  0  0  0  2  0  0  0  0  0  0
  181.2080  178.8370  140.9740 C   0  0  0  0  0  2  0  0  0  0  0  0
  180.8620  175.8670  138.8640 C   0  0  0  0  0  2  0  0  0  0  0  0
  184.3710  175.2730  135.8710 C   0  0  0  0  0  2  0  0  0  0  0  0
  179.8570  179.0010  140.5820 O   0  0  0  0  0  0  0  0  0  0  0  0
  182.0080  177.8000  140.1580 C   0  0  1  0  0  0  0  0  0  0  0  0
  179.8460  179.4090  139.3210 O   0  0  0  0  0  0  0  0  0  0  0  0
  184.2570  174.7790  137.3210 C   0  0  0  0  0  2  0  0  0  0  0  0
  181.9100  180.5300  137.9690 O   0  0  0  0  0  0  0  0  0  0  0  0
  181.3740  181.2460  139.0500 C   0  0  0  0  0  2  0  0  0  0  0  0
  181.2800  176.4410  140.2220 C   0  0  0  0  0  2  0  0  0  0  0  0
  181.9990  175.8860  137.8340 C   0  0  2  0  0  3  0  0  0  0  0  0
  182.8210  174.5910  137.8360 C   0  0  0  0  0  2  0  0  0  0  0  0
  179.0010  181.3960  138.2930 C   0  0  0  0  0  2  0  0  0  0  0  0
  179.3340  182.7280  138.0530 O   0  0  0  0  0  1  0  0  0  0  0  0
  183.3580  177.5580  140.8550 C   0  0  0  0  0  2  0  0  0  0  0  0
  183.8100  178.6900  141.7720 C   0  0  0  0  0  2  0  0  0  0  0  0
  186.2600  178.6660  141.1950 C   0  0  0  0  0  0  0  0  0  0  0  0
  185.2020  178.4980  142.1570 N   0  0  0  0  0  0  0  0  0  0  0  0
  185.9910  178.9870  140.0060 O   0  0  0  0  0  0  0  0  0  0  0  0
  185.5020  178.2150  143.5560 C   0  0  0  0  0  2  0  0  0  0  0  0
  184.8030  178.6240  145.9160 C   0  0  0  0  0  1  0  0  0  0  0  0
  184.6620  179.0860  144.4780 C   0  0  0  0  0  2  0  0  0  0  0  0
  187.6900  178.4920  141.5890 C   0  0  0  0  0  2  0  0  0  0  0  0
  188.5530  178.3470  140.3520 C   0  0  0  0  0  2  0  0  0  0  0  0
  189.4350  177.1250  140.4940 C   0  0  0  0  0  1  0  0  0  0  0  0
  1  4  1  1  0  0  0
  1 11  1  0  0  0  0
  2  6  1  6  0  0  0
  2  1  1  0  0  0  0
  3  9  1  0  0  0  0
  3  6  1  0  0  0  0
  5 19  1  6  0  0  0
  8 16  1  0  0  0  0
  9 13  1  0  0  0  0
 10  7  1  0  0  0  0
 11 16  1  0  0  0  0
 11 21  1  1  0  0  0
 11  7  1  0  0  0  0
 12  5  1  0  0  0  0
 12 10  1  0  0  0  0
 13 18  1  0  0  0  0
 14  4  1  0  0  0  0
 14 15  1  0  0  0  0
 15  5  1  0  0  0  0
 17 18  1  1  0  0  0
 17  2  1  0  0  0  0
 17  8  1  0  0  0  0
 20 19  1  0  0  0  0
 21 22  1  0  0  0  0
 22 24  1  0  0  0  0
 23 29  1  0  0  0  0
 23 24  1  0  0  0  0
 24 26  1  0  0  0  0
 25 23  2  0  0  0  0
 26 28  1  0  0  0  0
 28 27  1  0  0  0  0
 30 31  1  0  0  0  0
 30 29  1  0  0  0  0
M  END
>  <MODEL>
9

>  <REMARK>
 VINA RESULT:      -5.1      5.854      8.548
  Name = 
  8 active torsions:
  status: ('A' for Active; 'I' for Inactive)
    1  A    between atoms: C_1  and  C_8
    2  A    between atoms: C_2  and  C_13
    3  A    between atoms: C_3  and  C_7
    4  A    between atoms: C_3  and  N_22
    5  A    between atoms: C_8  and  C_19
    6  A    between atoms: C_9  and  N_22
    7  A    between atoms: C_9  and  C_23
    8  A    between atoms: C_21  and  C_23
                            x       y       z     vdW  Elec       q    Type
                         _______ _______ _______ _____ _____    ______ ____

>  <TORSDO>
F 8

$$$$
