=
 OpenBabel10252415033D

 34 38  0  0  1  0  0  0  0  0999 V2000
  187.4020  177.6740  146.6790 C   0  0  0  0  0  0  0  0  0  0  0  0
  189.5450  177.0690  145.5990 O   0  0  0  0  0  0  0  0  0  0  0  0
  187.6450  177.7510  144.2450 C   0  0  0  0  0  0  0  0  0  0  0  0
  187.9790  178.3680  141.7670 C   0  0  1  0  0  3  0  0  0  0  0  0
  189.2190  178.2430  148.2650 C   0  0  0  0  0  2  0  0  0  0  0  0
  190.4320  177.4110  147.8490 C   0  0  0  0  0  2  0  0  0  0  0  0
  189.5350  177.0010  142.9860 O   0  0  0  0  0  0  0  0  0  0  0  0
  188.2030  177.4830  145.5210 C   0  0  0  0  0  0  0  0  0  0  0  0
  187.9140  177.4830  148.0740 C   0  0  0  0  0  2  0  0  0  0  0  0
  186.2960  178.1580  144.1320 C   0  0  0  0  0  0  0  0  0  0  0  0
  186.0810  178.0970  146.5480 C   0  0  0  0  0  3  0  0  0  0  0  0
  190.1340  176.4230  146.7230 C   0  0  0  0  0  2  0  0  0  0  0  0
  186.4830  178.4530  141.7060 C   0  0  0  0  0  3  0  0  0  0  0  0
  185.6900  178.3980  142.7850 C   0  0  0  0  0  0  0  0  0  0  0  0
  188.4450  177.6360  143.0010 C   0  0  0  0  0  0  0  0  0  0  0  0
  185.5350  178.3340  145.2920 C   0  0  0  0  0  3  0  0  0  0  0  0
  182.2660  178.3850  141.1350 C   0  0  0  0  0  0  0  0  0  0  0  0
  181.4480  178.7890  142.1920 C   0  0  0  0  0  3  0  0  0  0  0  0
  184.2210  178.5140  142.5800 C   0  0  0  0  0  0  0  0  0  0  0  0
  182.0090  179.0620  143.4420 C   0  0  0  0  0  3  0  0  0  0  0  0
  183.6430  178.2520  141.3270 C   0  0  0  0  0  3  0  0  0  0  0  0
  183.3880  178.9290  143.6330 C   0  0  0  0  0  3  0  0  0  0  0  0
  181.7100  178.1150  139.8910 O   0  0  0  0  0  1  0  0  0  0  0  0
  188.4920  177.7390  140.4800 C   0  0  0  0  0  2  0  0  0  0  0  0
  188.7320  178.7690  139.4840 N   0  0  0  0  0  2  0  0  0  0  0  0
  188.9280  178.0890  138.2180 C   0  0  0  0  0  2  0  0  0  0  0  0
  187.8750  178.5380  137.2160 C   0  0  0  0  0  2  0  0  0  0  0  0
  185.4560  179.1350  138.4260 O   0  0  0  0  0  0  0  0  0  0  0  0
  186.7220  177.6440  137.2410 N   0  0  0  0  0  0  0  0  0  0  0  0
  185.5560  178.0140  137.8560 C   0  0  0  0  0  0  0  0  0  0  0  0
  184.5660  175.9060  137.2350 C   0  0  0  0  0  3  0  0  0  0  0  0
  185.7590  175.5420  136.6130 C   0  0  0  0  0  3  0  0  0  0  0  0
  186.8340  176.4330  136.6270 C   0  0  0  0  0  3  0  0  0  0  0  0
  184.4600  177.1480  137.8610 C   0  0  0  0  0  3  0  0  0  0  0  0
  1  9  1  0  0  0  0
  2 12  1  0  0  0  0
  3  8  1  0  0  0  0
  4 24  1  6  0  0  0
  4 15  1  0  0  0  0
  6  5  1  0  0  0  0
  7 15  2  0  0  0  0
  8  2  1  0  0  0  0
  8  1  2  0  0  0  0
  9  5  1  0  0  0  0
 10  3  2  0  0  0  0
 10 16  1  0  0  0  0
 11  1  1  0  0  0  0
 12  6  1  0  0  0  0
 13  4  1  0  0  0  0
 13 14  2  0  0  0  0
 14 10  1  0  0  0  0
 15  3  1  0  0  0  0
 16 11  2  0  0  0  0
 17 21  2  0  0  0  0
 17 18  1  0  0  0  0
 18 20  2  0  0  0  0
 19 14  1  0  0  0  0
 19 22  2  0  0  0  0
 20 22  1  0  0  0  0
 21 19  1  0  0  0  0
 23 17  1  0  0  0  0
 25 24  1  0  0  0  0
 26 25  1  0  0  0  0
 27 29  1  0  0  0  0
 27 26  1  0  0  0  0
 29 30  1  0  0  0  0
 30 34  1  0  0  0  0
 30 28  2  0  0  0  0
 31 34  2  0  0  0  0
 32 33  2  0  0  0  0
 32 31  1  0  0  0  0
 33 29  1  0  0  0  0
M  END
>  <MODEL>
1

>  <REMARK>
 VINA RESULT:     -10.4      0.000      0.000
  Name = 
  6 active torsions:
  status: ('A' for Active; 'I' for Inactive)
    1  A    between atoms: C_3  and  N_13
    2  A    between atoms: C_3  and  C_17
    3  A    between atoms: C_5  and  C_18
    4  A    between atoms: C_12  and  C_28
    5  A    between atoms: C_17  and  N_29
    6  A    between atoms: C_18  and  N_29
                            x       y       z     vdW  Elec       q    Type
                         _______ _______ _______ _____ _____    ______ ____

>  <TORSDO>
F 6

$$$$
=
 OpenBabel10252415033D

 34 38  0  0  1  0  0  0  0  0999 V2000
  187.3290  177.7900  146.9020 C   0  0  0  0  0  0  0  0  0  0  0  0
  189.4660  177.1250  145.8470 O   0  0  0  0  0  0  0  0  0  0  0  0
  187.5780  177.7890  144.4680 C   0  0  0  0  0  0  0  0  0  0  0  0
  187.9240  178.3230  141.9730 C   0  0  1  0  0  3  0  0  0  0  0  0
  189.1500  178.3850  148.4740 C   0  0  0  0  0  2  0  0  0  0  0  0
  190.3530  177.5250  148.0870 C   0  0  0  0  0  2  0  0  0  0  0  0
  189.4600  176.9750  143.2370 O   0  0  0  0  0  0  0  0  0  0  0  0
  188.1290  177.5530  145.7530 C   0  0  0  0  0  0  0  0  0  0  0  0
  187.8360  177.6370  148.3030 C   0  0  0  0  0  2  0  0  0  0  0  0
  186.2340  178.2100  144.3390 C   0  0  0  0  0  0  0  0  0  0  0  0
  186.0140  178.2260  146.7550 C   0  0  0  0  0  3  0  0  0  0  0  0
  190.0450  176.5060  146.9910 C   0  0  0  0  0  2  0  0  0  0  0  0
  186.4300  178.4260  141.9050 C   0  0  0  0  0  3  0  0  0  0  0  0
  185.6340  178.4150  142.9840 C   0  0  0  0  0  0  0  0  0  0  0  0
  188.3790  177.6240  143.2300 C   0  0  0  0  0  0  0  0  0  0  0  0
  185.4740  178.4310  145.4910 C   0  0  0  0  0  3  0  0  0  0  0  0
  182.2330  178.5650  141.2930 C   0  0  0  0  0  0  0  0  0  0  0  0
  181.3980  178.8420  142.3770 C   0  0  0  0  0  3  0  0  0  0  0  0
  184.1670  178.5430  142.7720 C   0  0  0  0  0  0  0  0  0  0  0  0
  181.9400  178.9760  143.6580 C   0  0  0  0  0  3  0  0  0  0  0  0
  183.6090  178.4210  141.4890 C   0  0  0  0  0  3  0  0  0  0  0  0
  183.3160  178.8320  143.8530 C   0  0  0  0  0  3  0  0  0  0  0  0
  181.6960  178.4340  140.0190 O   0  0  0  0  0  1  0  0  0  0  0  0
  188.4320  177.6480  140.7060 C   0  0  0  0  0  2  0  0  0  0  0  0
  188.4010  178.5840  139.5970 N   0  0  0  0  0  2  0  0  0  0  0  0
  189.5270  178.2580  138.7430 C   0  0  0  0  0  2  0  0  0  0  0  0
  190.5590  177.4570  139.5230 C   0  0  0  0  0  2  0  0  0  0  0  0
  193.2930  177.1820  139.1730 O   0  0  0  0  0  0  0  0  0  0  0  0
  191.1850  176.4500  138.6720 N   0  0  0  0  0  0  0  0  0  0  0  0
  192.5470  176.3740  138.5540 C   0  0  0  0  0  0  0  0  0  0  0  0
  192.3080  174.5030  137.0530 C   0  0  0  0  0  3  0  0  0  0  0  0
  190.9230  174.5930  137.1820 C   0  0  0  0  0  3  0  0  0  0  0  0
  190.3760  175.5800  138.0030 C   0  0  0  0  0  3  0  0  0  0  0  0
  193.1270  175.3970  137.7410 C   0  0  0  0  0  3  0  0  0  0  0  0
  1  9  1  0  0  0  0
  2 12  1  0  0  0  0
  3  8  1  0  0  0  0
  4 24  1  6  0  0  0
  4 15  1  0  0  0  0
  6  5  1  0  0  0  0
  8  2  1  0  0  0  0
  8  1  2  0  0  0  0
  9  5  1  0  0  0  0
 10  3  2  0  0  0  0
 10 16  1  0  0  0  0
 11  1  1  0  0  0  0
 12  6  1  0  0  0  0
 13  4  1  0  0  0  0
 13 14  2  0  0  0  0
 14 10  1  0  0  0  0
 15  7  2  0  0  0  0
 15  3  1  0  0  0  0
 16 11  2  0  0  0  0
 17 21  2  0  0  0  0
 17 18  1  0  0  0  0
 18 20  2  0  0  0  0
 19 14  1  0  0  0  0
 19 22  2  0  0  0  0
 20 22  1  0  0  0  0
 21 19  1  0  0  0  0
 23 17  1  0  0  0  0
 25 24  1  0  0  0  0
 26 27  1  0  0  0  0
 26 25  1  0  0  0  0
 29 27  1  0  0  0  0
 30 29  1  0  0  0  0
 30 28  2  0  0  0  0
 31 32  1  0  0  0  0
 31 34  2  0  0  0  0
 32 33  2  0  0  0  0
 33 29  1  0  0  0  0
 34 30  1  0  0  0  0
M  END
>  <MODEL>
2

>  <REMARK>
 VINA RESULT:     -10.3      2.032      3.164
  Name = 
  6 active torsions:
  status: ('A' for Active; 'I' for Inactive)
    1  A    between atoms: C_3  and  N_13
    2  A    between atoms: C_3  and  C_17
    3  A    between atoms: C_5  and  C_18
    4  A    between atoms: C_12  and  C_28
    5  A    between atoms: C_17  and  N_29
    6  A    between atoms: C_18  and  N_29
                            x       y       z     vdW  Elec       q    Type
                         _______ _______ _______ _____ _____    ______ ____

>  <TORSDO>
F 6

$$$$
=
 OpenBabel10252415033D

 34 38  0  0  1  0  0  0  0  0999 V2000
  181.9480  178.9240  142.6540 C   0  0  0  0  0  0  0  0  0  0  0  0
  182.7080  179.2810  140.3260 O   0  0  0  0  0  0  0  0  0  0  0  0
  184.3190  178.7590  142.0690 C   0  0  0  0  0  0  0  0  0  0  0  0
  186.7140  178.0470  141.4450 C   0  0  1  0  0  3  0  0  0  0  0  0
  180.1060  178.2160  141.1550 C   0  0  0  0  0  2  0  0  0  0  0  0
  180.3480  178.9100  139.8150 C   0  0  0  0  0  2  0  0  0  0  0  0
  185.2950  179.2810  139.9490 O   0  0  0  0  0  0  0  0  0  0  0  0
  182.9780  179.0020  141.6780 C   0  0  0  0  0  0  0  0  0  0  0  0
  180.4960  179.0980  142.3330 C   0  0  0  0  0  2  0  0  0  0  0  0
  184.6250  178.4870  143.4230 C   0  0  0  0  0  0  0  0  0  0  0  0
  182.2680  178.6330  143.9780 C   0  0  0  0  0  3  0  0  0  0  0  0
  181.5170  179.8930  139.8420 C   0  0  0  0  0  2  0  0  0  0  0  0
  186.9940  178.1120  142.9160 C   0  0  0  0  0  3  0  0  0  0  0  0
  186.0440  178.2740  143.8480 C   0  0  0  0  0  0  0  0  0  0  0  0
  185.4330  178.7600  141.0890 C   0  0  0  0  0  0  0  0  0  0  0  0
  183.5870  178.4190  144.3570 C   0  0  0  0  0  3  0  0  0  0  0  0
  187.9230  177.5490  147.0720 C   0  0  0  0  0  0  0  0  0  0  0  0
  187.2070  178.3230  147.9880 C   0  0  0  0  0  3  0  0  0  0  0  0
  186.4620  178.3020  145.2750 C   0  0  0  0  0  0  0  0  0  0  0  0
  186.1170  179.0820  147.5570 C   0  0  0  0  0  3  0  0  0  0  0  0
  187.5490  177.5360  145.7250 C   0  0  0  0  0  3  0  0  0  0  0  0
  185.7440  179.0690  146.2100 C   0  0  0  0  0  3  0  0  0  0  0  0
  189.0050  176.7920  147.4990 O   0  0  0  0  0  1  0  0  0  0  0  0
  187.9190  178.5870  140.6880 C   0  0  0  0  0  2  0  0  0  0  0  0
  188.5250  177.5290  139.8980 N   0  0  0  0  0  2  0  0  0  0  0  0
  189.9600  177.7380  139.9520 C   0  0  0  0  0  2  0  0  0  0  0  0
  190.6190  176.6280  140.7590 C   0  0  0  0  0  2  0  0  0  0  0  0
  190.2540  174.9660  142.9450 O   0  0  0  0  0  0  0  0  0  0  0  0
  190.8040  177.0380  142.1470 N   0  0  0  0  0  0  0  0  0  0  0  0
  190.6090  176.1540  143.1750 C   0  0  0  0  0  0  0  0  0  0  0  0
  191.1910  177.8760  144.7580 C   0  0  0  0  0  3  0  0  0  0  0  0
  191.3850  178.7650  143.7020 C   0  0  0  0  0  3  0  0  0  0  0  0
  191.1860  178.3230  142.3930 C   0  0  0  0  0  3  0  0  0  0  0  0
  190.8010  176.5630  144.4970 C   0  0  0  0  0  3  0  0  0  0  0  0
  1 11  1  0  0  0  0
  2  8  1  0  0  0  0
  3 10  2  0  0  0  0
  4 24  1  6  0  0  0
  4 13  1  0  0  0  0
  5  9  1  0  0  0  0
  6 12  1  0  0  0  0
  6  5  1  0  0  0  0
  7 15  2  0  0  0  0
  8  3  1  0  0  0  0
  8  1  2  0  0  0  0
  9  1  1  0  0  0  0
 10 14  1  0  0  0  0
 10 16  1  0  0  0  0
 11 16  2  0  0  0  0
 12  2  1  0  0  0  0
 13 14  2  0  0  0  0
 14 19  1  0  0  0  0
 15  4  1  0  0  0  0
 15  3  1  0  0  0  0
 17 23  1  0  0  0  0
 17 18  1  0  0  0  0
 19 21  1  0  0  0  0
 19 22  2  0  0  0  0
 20 18  2  0  0  0  0
 21 17  2  0  0  0  0
 22 20  1  0  0  0  0
 25 26  1  0  0  0  0
 25 24  1  0  0  0  0
 26 27  1  0  0  0  0
 27 29  1  0  0  0  0
 28 30  2  0  0  0  0
 29 33  1  0  0  0  0
 29 30  1  0  0  0  0
 30 34  1  0  0  0  0
 32 31  1  0  0  0  0
 33 32  2  0  0  0  0
 34 31  2  0  0  0  0
M  END
>  <MODEL>
3

>  <REMARK>
 VINA RESULT:     -10.2      2.278      6.995
  Name = 
  6 active torsions:
  status: ('A' for Active; 'I' for Inactive)
    1  A    between atoms: C_3  and  N_13
    2  A    between atoms: C_3  and  C_17
    3  A    between atoms: C_5  and  C_18
    4  A    between atoms: C_12  and  C_28
    5  A    between atoms: C_17  and  N_29
    6  A    between atoms: C_18  and  N_29
                            x       y       z     vdW  Elec       q    Type
                         _______ _______ _______ _____ _____    ______ ____

>  <TORSDO>
F 6

$$$$
=
 OpenBabel10252415033D

 34 38  0  0  1  0  0  0  0  0999 V2000
  184.0090  178.7020  142.4630 C   0  0  0  0  0  0  0  0  0  0  0  0
  185.0160  178.8370  140.2070 O   0  0  0  0  0  0  0  0  0  0  0  0
  186.3850  178.2260  142.1200 C   0  0  0  0  0  0  0  0  0  0  0  0
  188.7220  177.2030  141.7630 C   0  0  1  0  0  3  0  0  0  0  0  0
  182.2390  178.1350  140.8250 C   0  0  0  0  0  2  0  0  0  0  0  0
  182.6860  178.7200  139.4860 C   0  0  0  0  0  2  0  0  0  0  0  0
  187.6070  178.5120  140.0840 O   0  0  0  0  0  0  0  0  0  0  0  0
  185.1250  178.6040  141.5900 C   0  0  0  0  0  0  0  0  0  0  0  0
  182.6250  179.0280  141.9950 C   0  0  0  0  0  2  0  0  0  0  0  0
  186.5310  177.9950  143.5070 C   0  0  0  0  0  0  0  0  0  0  0  0
  184.1680  178.4490  143.8240 C   0  0  0  0  0  3  0  0  0  0  0  0
  183.9590  179.5580  139.5830 C   0  0  0  0  0  2  0  0  0  0  0  0
  188.8720  177.3160  143.2510 C   0  0  0  0  0  3  0  0  0  0  0  0
  187.8680  177.6400  144.0780 C   0  0  0  0  0  0  0  0  0  0  0  0
  187.5760  178.0410  141.2540 C   0  0  0  0  0  0  0  0  0  0  0  0
  185.4120  178.1020  144.3390 C   0  0  0  0  0  3  0  0  0  0  0  0
  189.6780  177.3980  147.4110 C   0  0  0  0  0  0  0  0  0  0  0  0
  188.6650  177.7580  148.3020 C   0  0  0  0  0  3  0  0  0  0  0  0
  188.1540  177.6980  145.5360 C   0  0  0  0  0  0  0  0  0  0  0  0
  187.3950  178.0830  147.8190 C   0  0  0  0  0  3  0  0  0  0  0  0
  189.4220  177.3640  146.0380 C   0  0  0  0  0  3  0  0  0  0  0  0
  187.1400  178.0490  146.4450 C   0  0  0  0  0  3  0  0  0  0  0  0
  190.9400  177.0730  147.8900 O   0  0  0  0  0  1  0  0  0  0  0  0
  190.0480  177.5540  141.1050 C   0  0  0  0  0  2  0  0  0  0  0  0
  190.6300  176.3710  140.4960 N   0  0  0  0  0  2  0  0  0  0  0  0
  190.9430  176.7180  139.1230 C   0  0  0  0  0  2  0  0  0  0  0  0
  190.0520  175.9340  138.1710 C   0  0  0  0  0  2  0  0  0  0  0  0
  187.5070  175.1490  137.4110 O   0  0  0  0  0  0  0  0  0  0  0  0
  189.0720  176.8110  137.5400 N   0  0  0  0  0  0  0  0  0  0  0  0
  187.8280  176.3490  137.1970 C   0  0  0  0  0  0  0  0  0  0  0  0
  187.2510  178.5350  136.3620 C   0  0  0  0  0  3  0  0  0  0  0  0
  188.5200  178.9920  136.7150 C   0  0  0  0  0  3  0  0  0  0  0  0
  189.4230  178.1080  137.3080 C   0  0  0  0  0  3  0  0  0  0  0  0
  186.9000  177.2080  136.6030 C   0  0  0  0  0  3  0  0  0  0  0  0
  1 11  1  0  0  0  0
  2  8  1  0  0  0  0
  3 10  2  0  0  0  0
  4 24  1  6  0  0  0
  4 13  1  0  0  0  0
  5  9  1  0  0  0  0
  6 12  1  0  0  0  0
  6  5  1  0  0  0  0
  7 15  2  0  0  0  0
  8  3  1  0  0  0  0
  8  1  2  0  0  0  0
  9  1  1  0  0  0  0
 10 14  1  0  0  0  0
 10 16  1  0  0  0  0
 11 16  2  0  0  0  0
 12  2  1  0  0  0  0
 13 14  2  0  0  0  0
 14 19  1  0  0  0  0
 15  4  1  0  0  0  0
 15  3  1  0  0  0  0
 17 23  1  0  0  0  0
 17 18  1  0  0  0  0
 19 21  1  0  0  0  0
 19 22  2  0  0  0  0
 20 18  2  0  0  0  0
 21 17  2  0  0  0  0
 22 20  1  0  0  0  0
 25 24  1  0  0  0  0
 26 25  1  0  0  0  0
 27 26  1  0  0  0  0
 29 27  1  0  0  0  0
 30 28  2  0  0  0  0
 30 29  1  0  0  0  0
 31 34  2  0  0  0  0
 31 32  1  0  0  0  0
 32 33  2  0  0  0  0
 33 29  1  0  0  0  0
 34 30  1  0  0  0  0
M  END
>  <MODEL>
4

>  <REMARK>
 VINA RESULT:     -10.0      1.690      5.882
  Name = 
  6 active torsions:
  status: ('A' for Active; 'I' for Inactive)
    1  A    between atoms: C_3  and  N_13
    2  A    between atoms: C_3  and  C_17
    3  A    between atoms: C_5  and  C_18
    4  A    between atoms: C_12  and  C_28
    5  A    between atoms: C_17  and  N_29
    6  A    between atoms: C_18  and  N_29
                            x       y       z     vdW  Elec       q    Type
                         _______ _______ _______ _____ _____    ______ ____

>  <TORSDO>
F 6

$$$$
=
 OpenBabel10252415033D

 34 38  0  0  1  0  0  0  0  0999 V2000
  187.2340  177.6330  146.5110 C   0  0  0  0  0  0  0  0  0  0  0  0
  189.4150  177.1720  145.4360 O   0  0  0  0  0  0  0  0  0  0  0  0
  187.5100  177.8540  144.0900 C   0  0  0  0  0  0  0  0  0  0  0  0
  187.8570  178.6190  141.6550 C   0  0  1  0  0  3  0  0  0  0  0  0
  189.0030  178.1830  148.1570 C   0  0  0  0  0  2  0  0  0  0  0  0
  190.2540  177.4220  147.7160 C   0  0  0  0  0  2  0  0  0  0  0  0
  189.4470  177.2470  142.8240 O   0  0  0  0  0  0  0  0  0  0  0  0
  188.0590  177.5370  145.3580 C   0  0  0  0  0  0  0  0  0  0  0  0
  187.7320  177.3860  147.9020 C   0  0  0  0  0  2  0  0  0  0  0  0
  186.1480  178.2150  143.9760 C   0  0  0  0  0  0  0  0  0  0  0  0
  185.9000  178.0120  146.3810 C   0  0  0  0  0  3  0  0  0  0  0  0
  190.0120  176.4870  146.5330 C   0  0  0  0  0  2  0  0  0  0  0  0
  186.3600  178.6500  141.5720 C   0  0  0  0  0  3  0  0  0  0  0  0
  185.5530  178.5060  142.6340 C   0  0  0  0  0  0  0  0  0  0  0  0
  188.3330  177.8380  142.8550 C   0  0  0  0  0  0  0  0  0  0  0  0
  185.3640  178.2970  145.1310 C   0  0  0  0  0  3  0  0  0  0  0  0
  181.8180  178.8140  143.2680 C   0  0  0  0  0  0  0  0  0  0  0  0
  181.3050  178.6530  141.9790 C   0  0  0  0  0  3  0  0  0  0  0  0
  184.0850  178.5760  142.4100 C   0  0  0  0  0  0  0  0  0  0  0  0
  182.1740  178.4480  140.9040 C   0  0  0  0  0  3  0  0  0  0  0  0
  183.1980  178.7720  143.4820 C   0  0  0  0  0  3  0  0  0  0  0  0
  183.5540  178.4060  141.1190 C   0  0  0  0  0  3  0  0  0  0  0  0
  180.9570  179.0160  144.3380 O   0  0  0  0  0  1  0  0  0  0  0  0
  188.4130  178.0820  140.3440 C   0  0  0  0  0  2  0  0  0  0  0  0
  187.5080  178.3980  139.2530 N   0  0  0  0  0  2  0  0  0  0  0  0
  187.9920  177.6810  138.0880 C   0  0  0  0  0  2  0  0  0  0  0  0
  189.5010  177.8410  137.9660 C   0  0  0  0  0  2  0  0  0  0  0  0
  190.8650  175.7890  139.2320 O   0  0  0  0  0  0  0  0  0  0  0  0
  190.0890  176.6950  137.2810 N   0  0  0  0  0  0  0  0  0  0  0  0
  190.7450  175.7160  137.9790 C   0  0  0  0  0  0  0  0  0  0  0  0
  191.1660  174.5370  135.9190 C   0  0  0  0  0  3  0  0  0  0  0  0
  190.4960  175.5400  135.2210 C   0  0  0  0  0  3  0  0  0  0  0  0
  189.9600  176.6200  135.9260 C   0  0  0  0  0  3  0  0  0  0  0  0
  191.2930  174.6220  137.3050 C   0  0  0  0  0  3  0  0  0  0  0  0
  1  9  1  0  0  0  0
  2 12  1  0  0  0  0
  3  8  1  0  0  0  0
  4 24  1  6  0  0  0
  4 15  1  0  0  0  0
  6  5  1  0  0  0  0
  7 15  2  0  0  0  0
  8  2  1  0  0  0  0
  8  1  2  0  0  0  0
  9  5  1  0  0  0  0
 10  3  2  0  0  0  0
 10 16  1  0  0  0  0
 11  1  1  0  0  0  0
 12  6  1  0  0  0  0
 13  4  1  0  0  0  0
 13 14  2  0  0  0  0
 14 10  1  0  0  0  0
 15  3  1  0  0  0  0
 16 11  2  0  0  0  0
 17 21  1  0  0  0  0
 17 23  1  0  0  0  0
 18 17  2  0  0  0  0
 19 14  1  0  0  0  0
 19 21  2  0  0  0  0
 20 22  2  0  0  0  0
 20 18  1  0  0  0  0
 22 19  1  0  0  0  0
 25 24  1  0  0  0  0
 26 25  1  0  0  0  0
 27 26  1  0  0  0  0
 29 27  1  0  0  0  0
 29 30  1  0  0  0  0
 30 28  2  0  0  0  0
 31 34  2  0  0  0  0
 32 31  1  0  0  0  0
 32 33  2  0  0  0  0
 33 29  1  0  0  0  0
 34 30  1  0  0  0  0
M  END
>  <MODEL>
5

>  <REMARK>
 VINA RESULT:      -9.7      1.950      2.835
  Name = 
  6 active torsions:
  status: ('A' for Active; 'I' for Inactive)
    1  A    between atoms: C_3  and  N_13
    2  A    between atoms: C_3  and  C_17
    3  A    between atoms: C_5  and  C_18
    4  A    between atoms: C_12  and  C_28
    5  A    between atoms: C_17  and  N_29
    6  A    between atoms: C_18  and  N_29
                            x       y       z     vdW  Elec       q    Type
                         _______ _______ _______ _____ _____    ______ ____

>  <TORSDO>
F 6

$$$$
=
 OpenBabel10252415033D

 34 38  0  0  1  0  0  0  0  0999 V2000
  182.2600  178.6580  141.9770 C   0  0  0  0  0  0  0  0  0  0  0  0
  181.5380  178.7410  144.3430 O   0  0  0  0  0  0  0  0  0  0  0  0
  183.9010  178.5990  143.7930 C   0  0  0  0  0  0  0  0  0  0  0  0
  185.6780  179.0720  145.5950 C   0  0  1  0  0  3  0  0  0  0  0  0
  180.1530  179.9590  142.0640 C   0  0  0  0  0  2  0  0  0  0  0  0
  179.4570  179.5660  143.3660 C   0  0  0  0  0  2  0  0  0  0  0  0
  183.4210  178.4430  146.1310 O   0  0  0  0  0  0  0  0  0  0  0  0
  182.5490  178.6550  143.3680 C   0  0  0  0  0  0  0  0  0  0  0  0
  180.8740  178.7800  141.4250 C   0  0  0  0  0  2  0  0  0  0  0  0
  184.9400  178.5020  142.8390 C   0  0  0  0  0  0  0  0  0  0  0  0
  183.3000  178.5830  141.0530 C   0  0  0  0  0  3  0  0  0  0  0  0
  180.1640  178.4410  144.1190 C   0  0  0  0  0  2  0  0  0  0  0  0
  186.6740  178.6280  144.5670 C   0  0  0  0  0  3  0  0  0  0  0  0
  186.3650  178.3970  143.2830 C   0  0  0  0  0  0  0  0  0  0  0  0
  184.2750  178.6600  145.2270 C   0  0  0  0  0  0  0  0  0  0  0  0
  184.6200  178.5050  141.4770 C   0  0  0  0  0  3  0  0  0  0  0  0
  188.6760  178.2150  140.2700 C   0  0  0  0  0  0  0  0  0  0  0  0
  189.4950  177.1380  140.6150 C   0  0  0  0  0  3  0  0  0  0  0  0
  187.4580  177.9770  142.3650 C   0  0  0  0  0  0  0  0  0  0  0  0
  189.2980  176.4730  141.8280 C   0  0  0  0  0  3  0  0  0  0  0  0
  187.6620  178.6290  141.1370 C   0  0  0  0  0  3  0  0  0  0  0  0
  188.2830  176.8880  142.6950 C   0  0  0  0  0  3  0  0  0  0  0  0
  188.8680  178.8750  139.0640 O   0  0  0  0  0  1  0  0  0  0  0  0
  186.1080  178.5500  146.9580 C   0  0  0  0  0  2  0  0  0  0  0  0
  187.0820  177.4850  146.7990 N   0  0  0  0  0  2  0  0  0  0  0  0
  187.9030  177.4860  147.9950 C   0  0  0  0  0  2  0  0  0  0  0  0
  189.1760  178.2830  147.7540 C   0  0  0  0  0  2  0  0  0  0  0  0
  189.8300  178.6270  145.0840 O   0  0  0  0  0  0  0  0  0  0  0  0
  190.1610  177.4810  147.0360 N   0  0  0  0  0  0  0  0  0  0  0  0
  190.4330  177.7160  145.7140 C   0  0  0  0  0  0  0  0  0  0  0  0
  192.0550  175.9330  145.7370 C   0  0  0  0  0  3  0  0  0  0  0  0
  191.7670  175.7050  147.0810 C   0  0  0  0  0  3  0  0  0  0  0  0
  190.8100  176.4960  147.7180 C   0  0  0  0  0  3  0  0  0  0  0  0
  191.3870  176.9430  145.0470 C   0  0  0  0  0  3  0  0  0  0  0  0
  1  8  1  0  0  0  0
  3 15  1  0  0  0  0
  4 24  1  1  0  0  0
  5  6  1  0  0  0  0
  6 12  1  0  0  0  0
  8  3  2  0  0  0  0
  8  2  1  0  0  0  0
  9  1  1  0  0  0  0
  9  5  1  0  0  0  0
 10 14  1  0  0  0  0
 10  3  1  0  0  0  0
 11 16  1  0  0  0  0
 11  1  2  0  0  0  0
 12  2  1  0  0  0  0
 13  4  1  0  0  0  0
 14 13  2  0  0  0  0
 15  4  1  0  0  0  0
 15  7  2  0  0  0  0
 16 10  2  0  0  0  0
 17 18  2  0  0  0  0
 17 21  1  0  0  0  0
 18 20  1  0  0  0  0
 19 22  1  0  0  0  0
 19 14  1  0  0  0  0
 20 22  2  0  0  0  0
 21 19  2  0  0  0  0
 23 17  1  0  0  0  0
 25 24  1  0  0  0  0
 25 26  1  0  0  0  0
 27 26  1  0  0  0  0
 28 30  2  0  0  0  0
 29 33  1  0  0  0  0
 29 27  1  0  0  0  0
 30 29  1  0  0  0  0
 31 32  1  0  0  0  0
 32 33  2  0  0  0  0
 34 30  1  0  0  0  0
 34 31  2  0  0  0  0
M  END
>  <MODEL>
6

>  <REMARK>
 VINA RESULT:      -9.7      3.095      7.995
  Name = 
  6 active torsions:
  status: ('A' for Active; 'I' for Inactive)
    1  A    between atoms: C_3  and  N_13
    2  A    between atoms: C_3  and  C_17
    3  A    between atoms: C_5  and  C_18
    4  A    between atoms: C_12  and  C_28
    5  A    between atoms: C_17  and  N_29
    6  A    between atoms: C_18  and  N_29
                            x       y       z     vdW  Elec       q    Type
                         _______ _______ _______ _____ _____    ______ ____

>  <TORSDO>
F 6

$$$$
=
 OpenBabel10252415033D

 34 38  0  0  1  0  0  0  0  0999 V2000
  183.9940  178.6720  142.5540 C   0  0  0  0  0  0  0  0  0  0  0  0
  184.9130  178.9210  140.2690 O   0  0  0  0  0  0  0  0  0  0  0  0
  186.3590  178.2340  142.0980 C   0  0  0  0  0  0  0  0  0  0  0  0
  188.6870  177.2500  141.6050 C   0  0  1  0  0  3  0  0  0  0  0  0
  182.1660  178.1650  140.9590 C   0  0  0  0  0  2  0  0  0  0  0  0
  182.5570  178.8150  139.6330 C   0  0  0  0  0  2  0  0  0  0  0  0
  187.4990  178.6250  140.0320 O   0  0  0  0  0  0  0  0  0  0  0  0
  185.0770  178.6250  141.6350 C   0  0  0  0  0  0  0  0  0  0  0  0
  182.5900  179.0070  142.1540 C   0  0  0  0  0  2  0  0  0  0  0  0
  186.5590  177.9410  143.4670 C   0  0  0  0  0  0  0  0  0  0  0  0
  184.2070  178.3570  143.8940 C   0  0  0  0  0  3  0  0  0  0  0  0
  183.8270  179.6600  139.7200 C   0  0  0  0  0  2  0  0  0  0  0  0
  188.8940  177.2950  143.0890 C   0  0  0  0  0  3  0  0  0  0  0  0
  187.9200  177.5720  143.9680 C   0  0  0  0  0  0  0  0  0  0  0  0
  187.5170  178.1010  141.1800 C   0  0  0  0  0  0  0  0  0  0  0  0
  185.4720  177.9990  144.3440 C   0  0  0  0  0  3  0  0  0  0  0  0
  189.8420  177.1410  147.2190 C   0  0  0  0  0  0  0  0  0  0  0  0
  188.8760  177.5030  148.1610 C   0  0  0  0  0  3  0  0  0  0  0  0
  188.2610  177.5640  145.4160 C   0  0  0  0  0  0  0  0  0  0  0  0
  187.6020  177.8890  147.7390 C   0  0  0  0  0  3  0  0  0  0  0  0
  189.5350  177.1680  145.8570 C   0  0  0  0  0  3  0  0  0  0  0  0
  187.2950  177.9160  146.3750 C   0  0  0  0  0  3  0  0  0  0  0  0
  191.1080  176.7540  147.6370 O   0  0  0  0  0  1  0  0  0  0  0  0
  189.9840  177.6440  140.9130 C   0  0  0  0  0  2  0  0  0  0  0  0
  190.5720  176.4870  140.2630 N   0  0  0  0  0  2  0  0  0  0  0  0
  189.9470  176.3780  138.9580 C   0  0  0  0  0  2  0  0  0  0  0  0
  190.9180  176.8280  137.8750 C   0  0  0  0  0  2  0  0  0  0  0  0
  193.5980  176.7960  138.5730 O   0  0  0  0  0  0  0  0  0  0  0  0
  191.8460  175.7550  137.5350 N   0  0  0  0  0  0  0  0  0  0  0  0
  193.1590  175.8100  137.9210 C   0  0  0  0  0  0  0  0  0  0  0  0
  193.5510  173.6760  136.8700 C   0  0  0  0  0  3  0  0  0  0  0  0
  192.2130  173.6340  136.4830 C   0  0  0  0  0  3  0  0  0  0  0  0
  191.3700  174.6920  136.8280 C   0  0  0  0  0  3  0  0  0  0  0  0
  194.0300  174.7670  137.5930 C   0  0  0  0  0  3  0  0  0  0  0  0
  1 11  1  0  0  0  0
  2  8  1  0  0  0  0
  3 10  2  0  0  0  0
  4 24  1  6  0  0  0
  4 13  1  0  0  0  0
  5  9  1  0  0  0  0
  6 12  1  0  0  0  0
  6  5  1  0  0  0  0
  7 15  2  0  0  0  0
  8  3  1  0  0  0  0
  8  1  2  0  0  0  0
  9  1  1  0  0  0  0
 10 14  1  0  0  0  0
 10 16  1  0  0  0  0
 11 16  2  0  0  0  0
 12  2  1  0  0  0  0
 13 14  2  0  0  0  0
 14 19  1  0  0  0  0
 15  4  1  0  0  0  0
 15  3  1  0  0  0  0
 17 23  1  0  0  0  0
 17 18  1  0  0  0  0
 19 21  1  0  0  0  0
 19 22  2  0  0  0  0
 20 18  2  0  0  0  0
 21 17  2  0  0  0  0
 22 20  1  0  0  0  0
 25 24  1  0  0  0  0
 26 25  1  0  0  0  0
 27 26  1  0  0  0  0
 29 27  1  0  0  0  0
 29 30  1  0  0  0  0
 30 28  2  0  0  0  0
 31 34  2  0  0  0  0
 32 33  2  0  0  0  0
 32 31  1  0  0  0  0
 33 29  1  0  0  0  0
 34 30  1  0  0  0  0
M  END
>  <MODEL>
7

>  <REMARK>
 VINA RESULT:      -9.6      2.836      6.655
  Name = 
  6 active torsions:
  status: ('A' for Active; 'I' for Inactive)
    1  A    between atoms: C_3  and  N_13
    2  A    between atoms: C_3  and  C_17
    3  A    between atoms: C_5  and  C_18
    4  A    between atoms: C_12  and  C_28
    5  A    between atoms: C_17  and  N_29
    6  A    between atoms: C_18  and  N_29
                            x       y       z     vdW  Elec       q    Type
                         _______ _______ _______ _____ _____    ______ ____

>  <TORSDO>
F 6

$$$$
=
 OpenBabel10252415033D

 34 38  0  0  1  0  0  0  0  0999 V2000
  185.2140  178.3060  145.4080 C   0  0  0  0  0  0  0  0  0  0  0  0
  187.6360  177.8000  145.3490 O   0  0  0  0  0  0  0  0  0  0  0  0
  186.4220  178.2020  143.2820 C   0  0  0  0  0  0  0  0  0  0  0  0
  187.7070  178.6370  141.0930 C   0  0  1  0  0  3  0  0  0  0  0  0
  186.2020  179.1580  147.5150 C   0  0  0  0  0  2  0  0  0  0  0  0
  187.5150  178.4020  147.7130 C   0  0  0  0  0  2  0  0  0  0  0  0
  188.6920  177.5140  142.9750 O   0  0  0  0  0  0  0  0  0  0  0  0
  186.4240  178.0890  144.6960 C   0  0  0  0  0  0  0  0  0  0  0  0
  185.1230  178.2770  146.9030 C   0  0  0  0  0  2  0  0  0  0  0  0
  185.2190  178.4810  142.5950 C   0  0  0  0  0  0  0  0  0  0  0  0
  184.0440  178.6030  144.7140 C   0  0  0  0  0  3  0  0  0  0  0  0
  187.7460  177.3020  146.6790 C   0  0  0  0  0  2  0  0  0  0  0  0
  186.3630  178.5880  140.4290 C   0  0  0  0  0  3  0  0  0  0  0  0
  185.2030  178.5560  141.1000 C   0  0  0  0  0  0  0  0  0  0  0  0
  187.6630  178.0530  142.4830 C   0  0  0  0  0  0  0  0  0  0  0  0
  184.0450  178.6870  143.3270 C   0  0  0  0  0  3  0  0  0  0  0  0
  182.3410  179.6130  138.8320 C   0  0  0  0  0  0  0  0  0  0  0  0
  181.5240  178.4820  138.8730 C   0  0  0  0  0  3  0  0  0  0  0  0
  183.9410  178.5280  140.3140 C   0  0  0  0  0  0  0  0  0  0  0  0
  181.9050  177.3740  139.6350 C   0  0  0  0  0  3  0  0  0  0  0  0
  183.5390  179.6370  139.5510 C   0  0  0  0  0  3  0  0  0  0  0  0
  183.1040  177.3990  140.3540 C   0  0  0  0  0  3  0  0  0  0  0  0
  181.9630  180.7160  138.0780 O   0  0  0  0  0  1  0  0  0  0  0  0
  188.7260  177.9490  140.1960 C   0  0  0  0  0  2  0  0  0  0  0  0
  189.0170  178.7830  139.0430 N   0  0  0  0  0  2  0  0  0  0  0  0
  189.2690  177.8850  137.9310 C   0  0  0  0  0  2  0  0  0  0  0  0
  188.4910  178.3420  136.7050 C   0  0  0  0  0  2  0  0  0  0  0  0
  188.3800  175.9430  135.3250 O   0  0  0  0  0  0  0  0  0  0  0  0
  187.2820  177.5440  136.5330 N   0  0  0  0  0  0  0  0  0  0  0  0
  187.3090  176.3620  135.8400 C   0  0  0  0  0  0  0  0  0  0  0  0
  184.9540  176.0680  136.2600 C   0  0  0  0  0  3  0  0  0  0  0  0
  184.9400  177.2720  136.9620 C   0  0  0  0  0  3  0  0  0  0  0  0
  186.1240  178.0010  137.0890 C   0  0  0  0  0  3  0  0  0  0  0  0
  186.1420  175.6080  135.6950 C   0  0  0  0  0  3  0  0  0  0  0  0
  1  9  1  0  0  0  0
  2 12  1  0  0  0  0
  3  8  1  0  0  0  0
  4 24  1  6  0  0  0
  4 15  1  0  0  0  0
  5  6  1  0  0  0  0
  8  2  1  0  0  0  0
  8  1  2  0  0  0  0
  9  5  1  0  0  0  0
 10  3  2  0  0  0  0
 10 16  1  0  0  0  0
 11  1  1  0  0  0  0
 12  6  1  0  0  0  0
 13  4  1  0  0  0  0
 13 14  2  0  0  0  0
 14 10  1  0  0  0  0
 15  7  2  0  0  0  0
 15  3  1  0  0  0  0
 16 11  2  0  0  0  0
 17 18  2  0  0  0  0
 17 21  1  0  0  0  0
 18 20  1  0  0  0  0
 19 22  1  0  0  0  0
 19 14  1  0  0  0  0
 20 22  2  0  0  0  0
 21 19  2  0  0  0  0
 23 17  1  0  0  0  0
 25 24  1  0  0  0  0
 26 25  1  0  0  0  0
 27 26  1  0  0  0  0
 28 30  2  0  0  0  0
 29 27  1  0  0  0  0
 29 33  1  0  0  0  0
 30 29  1  0  0  0  0
 31 32  1  0  0  0  0
 32 33  2  0  0  0  0
 34 30  1  0  0  0  0
 34 31  2  0  0  0  0
M  END
>  <MODEL>
8

>  <REMARK>
 VINA RESULT:      -9.3      1.610      2.464
  Name = 
  6 active torsions:
  status: ('A' for Active; 'I' for Inactive)
    1  A    between atoms: C_3  and  N_13
    2  A    between atoms: C_3  and  C_17
    3  A    between atoms: C_5  and  C_18
    4  A    between atoms: C_12  and  C_28
    5  A    between atoms: C_17  and  N_29
    6  A    between atoms: C_18  and  N_29
                            x       y       z     vdW  Elec       q    Type
                         _______ _______ _______ _____ _____    ______ ____

>  <TORSDO>
F 6

$$$$
=
 OpenBabel10252415033D

 34 38  0  0  1  0  0  0  0  0999 V2000
  185.0660  178.3350  145.2180 C   0  0  0  0  0  0  0  0  0  0  0  0
  187.4820  177.7980  145.2040 O   0  0  0  0  0  0  0  0  0  0  0  0
  186.3080  178.1960  143.1140 C   0  0  0  0  0  0  0  0  0  0  0  0
  187.6330  178.5960  140.9420 C   0  0  1  0  0  3  0  0  0  0  0  0
  186.0300  179.1940  147.3330 C   0  0  0  0  0  2  0  0  0  0  0  0
  187.3300  178.4230  147.5600 C   0  0  0  0  0  2  0  0  0  0  0  0
  188.5740  177.4780  142.8500 O   0  0  0  0  0  0  0  0  0  0  0  0
  186.2850  178.0970  144.5280 C   0  0  0  0  0  0  0  0  0  0  0  0
  184.9500  178.3200  146.7110 C   0  0  0  0  0  2  0  0  0  0  0  0
  185.1190  178.4840  142.4040 C   0  0  0  0  0  0  0  0  0  0  0  0
  183.9110  178.6390  144.5020 C   0  0  0  0  0  3  0  0  0  0  0  0
  187.5640  177.3110  146.5390 C   0  0  0  0  0  2  0  0  0  0  0  0
  186.3000  178.5570  140.2570 C   0  0  0  0  0  3  0  0  0  0  0  0
  185.1290  178.5460  140.9090 C   0  0  0  0  0  0  0  0  0  0  0  0
  187.5600  178.0250  142.3360 C   0  0  0  0  0  0  0  0  0  0  0  0
  183.9360  178.7110  143.1140 C   0  0  0  0  0  3  0  0  0  0  0  0
  182.2410  179.6600  138.7030 C   0  0  0  0  0  0  0  0  0  0  0  0
  181.4870  178.4880  138.6220 C   0  0  0  0  0  3  0  0  0  0  0  0
  183.8790  178.5260  140.1010 C   0  0  0  0  0  0  0  0  0  0  0  0
  181.9190  177.3350  139.2810 C   0  0  0  0  0  3  0  0  0  0  0  0
  183.4270  179.6800  139.4410 C   0  0  0  0  0  3  0  0  0  0  0  0
  183.1050  177.3550  140.0200 C   0  0  0  0  0  3  0  0  0  0  0  0
  181.8110  180.8080  138.0500 O   0  0  0  0  0  1  0  0  0  0  0  0
  188.6590  177.8880  140.0680 C   0  0  0  0  0  2  0  0  0  0  0  0
  188.7890  178.5770  138.7970 N   0  0  0  0  0  2  0  0  0  0  0  0
  189.2000  177.5830  137.8230 C   0  0  0  0  0  2  0  0  0  0  0  0
  189.5300  176.2730  138.5220 C   0  0  0  0  0  2  0  0  0  0  0  0
  190.1400  173.8040  137.4230 O   0  0  0  0  0  0  0  0  0  0  0  0
  190.8790  175.8310  138.1830 N   0  0  0  0  0  0  0  0  0  0  0  0
  191.0990  174.5940  137.6360 C   0  0  0  0  0  0  0  0  0  0  0  0
  193.4620  175.0620  137.5450 C   0  0  0  0  0  3  0  0  0  0  0  0
  193.2230  176.3170  138.1020 C   0  0  0  0  0  3  0  0  0  0  0  0
  191.9140  176.6860  138.4160 C   0  0  0  0  0  3  0  0  0  0  0  0
  192.3970  174.1940  137.3090 C   0  0  0  0  0  3  0  0  0  0  0  0
  1  9  1  0  0  0  0
  2 12  1  0  0  0  0
  3  8  2  0  0  0  0
  4 24  1  6  0  0  0
  4 15  1  0  0  0  0
  5  6  1  0  0  0  0
  8  2  1  0  0  0  0
  8  1  1  0  0  0  0
  9  5  1  0  0  0  0
 10 16  2  0  0  0  0
 10  3  1  0  0  0  0
 11  1  2  0  0  0  0
 12  6  1  0  0  0  0
 13 14  2  0  0  0  0
 13  4  1  0  0  0  0
 14 10  1  0  0  0  0
 15  7  2  0  0  0  0
 15  3  1  0  0  0  0
 16 11  1  0  0  0  0
 17 21  1  0  0  0  0
 18 17  2  0  0  0  0
 18 20  1  0  0  0  0
 19 14  1  0  0  0  0
 20 22  2  0  0  0  0
 21 19  2  0  0  0  0
 22 19  1  0  0  0  0
 23 17  1  0  0  0  0
 25 24  1  0  0  0  0
 26 27  1  0  0  0  0
 26 25  1  0  0  0  0
 28 30  2  0  0  0  0
 29 33  1  0  0  0  0
 29 27  1  0  0  0  0
 30 29  1  0  0  0  0
 31 32  1  0  0  0  0
 32 33  2  0  0  0  0
 34 31  2  0  0  0  0
 34 30  1  0  0  0  0
M  END
>  <MODEL>
9

>  <REMARK>
 VINA RESULT:      -9.3      2.596      3.977
  Name = 
  6 active torsions:
  status: ('A' for Active; 'I' for Inactive)
    1  A    between atoms: C_3  and  N_13
    2  A    between atoms: C_3  and  C_17
    3  A    between atoms: C_5  and  C_18
    4  A    between atoms: C_12  and  C_28
    5  A    between atoms: C_17  and  N_29
    6  A    between atoms: C_18  and  N_29
                            x       y       z     vdW  Elec       q    Type
                         _______ _______ _______ _____ _____    ______ ____

>  <TORSDO>
F 6

$$$$
