=
 OpenBabel10262421593D

 30 34  0  0  1  0  0  0  0  0999 V2000
  193.0700  176.4910  137.3230 C   0  0  1  0  0  3  0  0  0  0  0  0
  195.0850  175.5830  136.0600 C   0  0  1  0  0  3  0  0  0  0  0  0
  192.2430  173.4460  135.5780 C   0  0  0  0  0  2  0  0  0  0  0  0
  191.5290  176.7560  137.2960 C   0  0  2  0  0  3  0  0  0  0  0  0
  193.5620  176.2170  138.6200 O   0  0  0  0  0  0  0  0  0  0  0  0
  189.0560  178.7750  137.6690 C   0  0  0  0  0  2  0  0  0  0  0  0
  191.7240  177.2310  139.8070 C   0  0  1  0  0  3  0  0  0  0  0  0
  189.0160  174.6170  137.2340 C   0  0  0  0  0  2  0  0  0  0  0  0
  190.7420  173.5450  135.8950 C   0  0  2  0  0  3  0  0  0  0  0  0
  193.2100  177.3080  139.4310 C   0  0  0  0  0  2  0  0  0  0  0  0
  190.9260  176.5230  138.7020 C   0  0  1  0  0  3  0  0  0  0  0  0
  195.5710  174.4110  135.2220 C   0  0  0  0  0  2  0  0  0  0  0  0
  188.4850  175.9390  137.8370 C   0  0  2  0  0  3  0  0  0  0  0  0
  188.0910  178.1280  136.7210 C   0  0  0  0  0  3  0  0  0  0  0  0
  195.3690  176.8730  135.3120 C   0  0  0  0  0  1  0  0  0  0  0  0
  193.1360  174.0020  136.6860 C   0  0  2  0  0  3  0  0  0  0  0  0
  195.4420  173.0850  135.9770 C   0  0  0  0  0  2  0  0  0  0  0  0
  193.5800  175.4420  136.3190 C   0  0  1  0  0  3  0  0  0  0  0  0
  190.7850  175.9540  136.2270 C   0  0  0  0  0  2  0  0  0  0  0  0
  189.9450  173.5960  134.5940 C   0  0  0  0  0  1  0  0  0  0  0  0
  190.4220  174.6590  136.8000 N   0  0  1  0  0  0  0  0  0  0  0  0
  187.8550  176.8140  136.7810 C   0  0  0  0  0  3  0  0  0  0  0  0
  189.0080  178.1190  138.9750 N   0  0  0  0  0  2  0  0  0  0  0  0
  194.2900  173.0360  136.9910 C   0  0  1  0  0  3  0  0  0  0  0  0
  194.8200  173.2710  138.3930 C   0  0  0  0  0  1  0  0  0  0  0  0
  189.3990  176.7080  138.8400 C   0  0  2  0  0  3  0  0  0  0  0  0
  191.5820  176.5310  141.0060 O   0  0  0  0  0  0  0  0  0  0  0  0
  191.3090  177.5110  141.9630 C   0  0  0  0  0  2  0  0  0  0  0  0
  189.9330  177.3870  142.4130 N   0  0  0  0  0  2  0  0  0  0  0  0
  189.7470  176.0130  142.8470 C   0  0  0  0  0  1  0  0  0  0  0  0
  1  5  1  1  0  0  0
  2 15  1  6  0  0  0
  2 18  1  0  0  0  0
  3  9  1  0  0  0  0
  3 16  1  0  0  0  0
  4 19  1  6  0  0  0
  4  1  1  0  0  0  0
  4 11  1  0  0  0  0
  5 10  1  0  0  0  0
  6 23  1  0  0  0  0
  7 27  1  1  0  0  0
  8 13  1  0  0  0  0
  9 20  1  6  0  0  0
  9 21  1  0  0  0  0
 10  7  1  0  0  0  0
 11 26  1  0  0  0  0
 11  7  1  0  0  0  0
 12 17  1  0  0  0  0
 12  2  1  0  0  0  0
 13 26  1  0  0  0  0
 14 22  2  0  0  0  0
 14  6  1  0  0  0  0
 16 24  1  0  0  0  0
 17 24  1  0  0  0  0
 18 16  1  0  0  0  0
 18  1  1  0  0  0  0
 19 21  1  0  0  0  0
 21  8  1  0  0  0  0
 22 13  1  0  0  0  0
 24 25  1  0  0  0  0
 26 23  1  0  0  0  0
 27 28  1  0  0  0  0
 28 29  1  0  0  0  0
 29 30  1  0  0  0  0
M  END
>  <MODEL>
1

>  <REMARK>
 VINA RESULT:      -5.6      0.000      0.000
  Name = 
  3 active torsions:
  status: ('A' for Active; 'I' for Inactive)
    1  A    between atoms: O_6  and  C_8
    2  A    between atoms: O_6  and  C_21
    3  A    between atoms: N_9  and  C_21
                            x       y       z     vdW  Elec       q    Type
                         _______ _______ _______ _____ _____    ______ ____

>  <TORSDO>
F 3

$$$$
=
 OpenBabel10262421593D

 30 34  0  0  1  0  0  0  0  0999 V2000
  183.1010  178.1700  139.0830 C   0  0  1  0  0  3  0  0  0  0  0  0
  181.1930  179.3770  140.2590 C   0  0  1  0  0  3  0  0  0  0  0  0
  180.4770  179.0230  136.7610 C   0  0  0  0  0  2  0  0  0  0  0  0
  183.5010  177.0990  138.0160 C   0  0  2  0  0  3  0  0  0  0  0  0
  184.0420  179.2190  139.1950 O   0  0  0  0  0  0  0  0  0  0  0  0
  185.1640  174.4660  137.2180 C   0  0  0  0  0  2  0  0  0  0  0  0
  185.8880  178.0050  138.2310 C   0  0  1  0  0  3  0  0  0  0  0  0
  183.0910  177.1210  134.7410 C   0  0  0  0  0  2  0  0  0  0  0  0
  181.1080  178.2430  135.5950 C   0  0  2  0  0  3  0  0  0  0  0  0
  185.2810  178.6280  139.4940 C   0  0  0  0  0  2  0  0  0  0  0  0
  184.7810  177.5460  137.2710 C   0  0  1  0  0  3  0  0  0  0  0  0
  179.8700  180.0880  140.0210 C   0  0  0  0  0  2  0  0  0  0  0  0
  184.2750  176.1750  135.0540 C   0  0  2  0  0  3  0  0  0  0  0  0
  184.2540  173.9400  136.1480 C   0  0  0  0  0  3  0  0  0  0  0  0
  180.9940  178.3130  141.3230 C   0  0  0  0  0  1  0  0  0  0  0  0
  181.5070  179.6420  137.7060 C   0  0  2  0  0  3  0  0  0  0  0  0
  180.0280  181.2680  139.0580 C   0  0  0  0  0  2  0  0  0  0  0  0
  181.6750  178.7350  138.9520 C   0  0  1  0  0  3  0  0  0  0  0  0
  182.3760  176.7520  137.0390 C   0  0  0  0  0  2  0  0  0  0  0  0
  180.1360  177.1730  135.1070 C   0  0  0  0  0  1  0  0  0  0  0  0
  182.4330  177.6970  135.9240 N   0  0  1  0  0  0  0  0  0  0  0  0
  183.8210  174.7410  135.1690 C   0  0  0  0  0  3  0  0  0  0  0  0
  186.0680  175.4760  136.6710 N   0  0  0  0  0  2  0  0  0  0  0  0
  181.1470  181.1000  138.0200 C   0  0  1  0  0  3  0  0  0  0  0  0
  182.3820  181.8670  138.4570 C   0  0  0  0  0  1  0  0  0  0  0  0
  185.2930  176.6120  136.1520 C   0  0  2  0  0  3  0  0  0  0  0  0
  186.6990  178.9440  137.5920 O   0  0  0  0  0  0  0  0  0  0  0  0
  187.9810  178.3870  137.6170 C   0  0  0  0  0  2  0  0  0  0  0  0
  188.7630  179.0030  138.6740 N   0  0  0  0  0  2  0  0  0  0  0  0
  189.3780  177.9280  139.4330 C   0  0  0  0  0  1  0  0  0  0  0  0
  1  5  1  6  0  0  0
  2 15  1  1  0  0  0
  3 16  1  0  0  0  0
  4 19  1  6  0  0  0
  4  1  1  0  0  0  0
  5 10  1  0  0  0  0
  7 27  1  6  0  0  0
  7 10  1  0  0  0  0
  8 13  1  0  0  0  0
  8 21  1  0  0  0  0
  9 20  1  1  0  0  0
  9 21  1  0  0  0  0
  9  3  1  0  0  0  0
 11  4  1  0  0  0  0
 11  7  1  0  0  0  0
 12  2  1  0  0  0  0
 13 22  1  0  0  0  0
 13 26  1  0  0  0  0
 14  6  1  0  0  0  0
 16 24  1  0  0  0  0
 16 18  1  0  0  0  0
 17 12  1  0  0  0  0
 18  1  1  0  0  0  0
 18  2  1  0  0  0  0
 21 19  1  0  0  0  0
 22 14  2  0  0  0  0
 23  6  1  0  0  0  0
 24 25  1  0  0  0  0
 24 17  1  0  0  0  0
 26 23  1  0  0  0  0
 26 11  1  0  0  0  0
 27 28  1  0  0  0  0
 28 29  1  0  0  0  0
 29 30  1  0  0  0  0
M  END
>  <MODEL>
2

>  <REMARK>
 VINA RESULT:      -5.0      5.978     10.244
  Name = 
  3 active torsions:
  status: ('A' for Active; 'I' for Inactive)
    1  A    between atoms: O_6  and  C_8
    2  A    between atoms: O_6  and  C_21
    3  A    between atoms: N_9  and  C_21
                            x       y       z     vdW  Elec       q    Type
                         _______ _______ _______ _____ _____    ______ ____

>  <TORSDO>
F 3

$$$$
=
 OpenBabel10262421593D

 30 34  0  0  1  0  0  0  0  0999 V2000
  185.4730  176.9510  136.5160 C   0  0  1  0  0  3  0  0  0  0  0  0
  187.6960  178.0380  135.9190 C   0  0  1  0  0  3  0  0  0  0  0  0
  188.1710  174.5630  136.6760 C   0  0  0  0  0  2  0  0  0  0  0  0
  184.5580  175.6910  136.3640 C   0  0  2  0  0  3  0  0  0  0  0  0
  185.3050  177.6110  137.7540 O   0  0  0  0  0  0  0  0  0  0  0  0
  181.7060  174.4090  135.6190 C   0  0  0  0  0  2  0  0  0  0  0  0
  183.1220  176.7020  138.2290 C   0  0  1  0  0  3  0  0  0  0  0  0
  184.9940  172.6140  137.4750 C   0  0  0  0  0  2  0  0  0  0  0  0
  187.2380  173.3620  136.9030 C   0  0  2  0  0  3  0  0  0  0  0  0
  183.9440  177.9440  137.8590 C   0  0  0  0  0  2  0  0  0  0  0  0
  183.7890  175.4320  137.6810 C   0  0  1  0  0  3  0  0  0  0  0  0
  189.1930  177.7840  135.8330 C   0  0  0  0  0  2  0  0  0  0  0  0
  183.4740  172.8270  137.2820 C   0  0  2  0  0  3  0  0  0  0  0  0
  182.1760  173.0570  135.1710 C   0  0  0  0  0  3  0  0  0  0  0  0
  187.2180  178.6050  134.5940 C   0  0  0  0  0  1  0  0  0  0  0  0
  187.6600  175.8570  137.3080 C   0  0  2  0  0  3  0  0  0  0  0  0
  189.7680  177.3410  137.1810 C   0  0  0  0  0  2  0  0  0  0  0  0
  186.9680  176.7230  136.2250 C   0  0  1  0  0  3  0  0  0  0  0  0
  185.3050  174.4400  135.8960 C   0  0  0  0  0  2  0  0  0  0  0  0
  187.4310  172.3440  135.7830 C   0  0  0  0  0  1  0  0  0  0  0  0
  185.8320  173.7560  137.0750 N   0  0  1  0  0  0  0  0  0  0  0  0
  183.0170  172.3440  135.9270 C   0  0  0  0  0  3  0  0  0  0  0  0
  181.5630  174.4460  137.0740 N   0  0  0  0  0  2  0  0  0  0  0  0
  188.7850  176.5690  138.0730 C   0  0  1  0  0  3  0  0  0  0  0  0
  188.2050  177.4930  139.1280 C   0  0  0  0  0  1  0  0  0  0  0  0
  182.8640  174.1960  137.7110 C   0  0  2  0  0  3  0  0  0  0  0  0
  183.0170  176.6100  139.6180 O   0  0  0  0  0  0  0  0  0  0  0  0
  183.0680  177.9320  140.0700 C   0  0  0  0  0  2  0  0  0  0  0  0
  183.7580  177.9870  141.3470 N   0  0  0  0  0  2  0  0  0  0  0  0
  184.7920  179.0010  141.2300 C   0  0  0  0  0  1  0  0  0  0  0  0
  1  5  1  1  0  0  0
  2 15  1  6  0  0  0
  2 18  1  0  0  0  0
  3  9  1  0  0  0  0
  3 16  1  0  0  0  0
  4 19  1  1  0  0  0
  4  1  1  0  0  0  0
  4 11  1  0  0  0  0
  5 10  1  0  0  0  0
  6 23  1  0  0  0  0
  7 27  1  1  0  0  0
  9 20  1  6  0  0  0
  9 21  1  0  0  0  0
 10  7  1  0  0  0  0
 11 26  1  0  0  0  0
 11  7  1  0  0  0  0
 12  2  1  0  0  0  0
 12 17  1  0  0  0  0
 13  8  1  0  0  0  0
 13 26  1  0  0  0  0
 14  6  1  0  0  0  0
 14 22  2  0  0  0  0
 16 24  1  0  0  0  0
 17 24  1  0  0  0  0
 18  1  1  0  0  0  0
 18 16  1  0  0  0  0
 19 21  1  0  0  0  0
 21  8  1  0  0  0  0
 22 13  1  0  0  0  0
 23 26  1  0  0  0  0
 24 25  1  0  0  0  0
 27 28  1  0  0  0  0
 28 29  1  0  0  0  0
 30 29  1  0  0  0  0
M  END
>  <MODEL>
3

>  <REMARK>
 VINA RESULT:      -4.7      4.716      7.072
  Name = 
  3 active torsions:
  status: ('A' for Active; 'I' for Inactive)
    1  A    between atoms: O_6  and  C_8
    2  A    between atoms: O_6  and  C_21
    3  A    between atoms: N_9  and  C_21
                            x       y       z     vdW  Elec       q    Type
                         _______ _______ _______ _____ _____    ______ ____

>  <TORSDO>
F 3

$$$$
=
 OpenBabel10262421593D

 30 34  0  0  1  0  0  0  0  0999 V2000
  185.5840  178.0620  137.6090 C   0  0  1  0  0  3  0  0  0  0  0  0
  187.9200  178.7640  136.8810 C   0  0  1  0  0  3  0  0  0  0  0  0
  187.5970  175.1930  136.7610 C   0  0  0  0  0  2  0  0  0  0  0  0
  184.3720  177.1090  137.3490 C   0  0  2  0  0  3  0  0  0  0  0  0
  185.7360  178.4050  138.9720 O   0  0  0  0  0  0  0  0  0  0  0  0
  181.2210  176.7000  136.8590 C   0  0  0  0  0  2  0  0  0  0  0  0
  183.4690  177.8930  139.6150 C   0  0  1  0  0  3  0  0  0  0  0  0
  184.1540  173.8300  137.6620 C   0  0  0  0  0  2  0  0  0  0  0  0
  186.4280  174.2020  136.8800 C   0  0  2  0  0  3  0  0  0  0  0  0
  184.5250  178.9820  139.3870 C   0  0  0  0  0  2  0  0  0  0  0  0
  183.7260  176.6930  138.6920 C   0  0  1  0  0  3  0  0  0  0  0  0
  189.2840  178.2270  136.4780 C   0  0  0  0  0  2  0  0  0  0  0  0
  182.7230  174.4050  137.7930 C   0  0  2  0  0  3  0  0  0  0  0  0
  181.2800  175.4400  136.0480 C   0  0  0  0  0  3  0  0  0  0  0  0
  187.4440  179.7400  135.8200 C   0  0  0  0  0  1  0  0  0  0  0  0
  187.5070  176.3610  137.7420 C   0  0  2  0  0  3  0  0  0  0  0  0
  189.8880  177.3420  137.5720 C   0  0  0  0  0  2  0  0  0  0  0  0
  186.9280  177.6020  137.0150 C   0  0  1  0  0  3  0  0  0  0  0  0
  184.7200  175.8900  136.4930 C   0  0  0  0  0  2  0  0  0  0  0  0
  186.2230  173.4870  135.5480 C   0  0  0  0  0  1  0  0  0  0  0  0
  185.1960  174.8300  137.3810 N   0  0  1  0  0  0  0  0  0  0  0  0
  182.0010  174.3940  136.4680 C   0  0  0  0  0  3  0  0  0  0  0  0
  181.2670  176.3940  138.2880 N   0  0  0  0  0  2  0  0  0  0  0  0
  188.8570  176.5970  138.4320 C   0  0  1  0  0  3  0  0  0  0  0  0
  188.6580  177.3220  139.7500 C   0  0  0  0  0  1  0  0  0  0  0  0
  182.5310  175.7170  138.6130 C   0  0  2  0  0  3  0  0  0  0  0  0
  183.5120  177.4740  140.9460 O   0  0  0  0  0  0  0  0  0  0  0  0
  183.4840  178.6540  141.6940 C   0  0  0  0  0  2  0  0  0  0  0  0
  184.0750  178.4210  143.0010 N   0  0  0  0  0  2  0  0  0  0  0  0
  183.2210  179.0730  143.9790 C   0  0  0  0  0  1  0  0  0  0  0  0
  1  5  1  1  0  0  0
  2 15  1  6  0  0  0
  2 18  1  0  0  0  0
  3  9  1  0  0  0  0
  3 16  1  0  0  0  0
  4 19  1  1  0  0  0
  4  1  1  0  0  0  0
  4 11  1  0  0  0  0
  5 10  1  0  0  0  0
  6 23  1  0  0  0  0
  7 27  1  1  0  0  0
  8 13  1  0  0  0  0
  9 20  1  6  0  0  0
  9 21  1  0  0  0  0
 10  7  1  0  0  0  0
 11  7  1  0  0  0  0
 12  2  1  0  0  0  0
 12 17  1  0  0  0  0
 13 26  1  0  0  0  0
 14 22  2  0  0  0  0
 14  6  1  0  0  0  0
 16 24  1  0  0  0  0
 17 24  1  0  0  0  0
 18  1  1  0  0  0  0
 18 16  1  0  0  0  0
 19 21  1  0  0  0  0
 21  8  1  0  0  0  0
 22 13  1  0  0  0  0
 23 26  1  0  0  0  0
 24 25  1  0  0  0  0
 26 11  1  0  0  0  0
 27 28  1  0  0  0  0
 28 29  1  0  0  0  0
 29 30  1  0  0  0  0
M  END
>  <MODEL>
4

>  <REMARK>
 VINA RESULT:      -4.5      4.788      7.021
  Name = 
  3 active torsions:
  status: ('A' for Active; 'I' for Inactive)
    1  A    between atoms: O_6  and  C_8
    2  A    between atoms: O_6  and  C_21
    3  A    between atoms: N_9  and  C_21
                            x       y       z     vdW  Elec       q    Type
                         _______ _______ _______ _____ _____    ______ ____

>  <TORSDO>
F 3

$$$$
=
 OpenBabel10262421593D

 30 34  0  0  1  0  0  0  0  0999 V2000
  192.9510  176.0190  136.8530 C   0  0  1  0  0  3  0  0  0  0  0  0
  195.3580  175.5620  136.1640 C   0  0  1  0  0  3  0  0  0  0  0  0
  193.3980  172.5680  135.9090 C   0  0  0  0  0  2  0  0  0  0  0  0
  191.4380  175.7570  136.5510 C   0  0  2  0  0  3  0  0  0  0  0  0
  193.2160  176.2090  138.2290 O   0  0  0  0  0  0  0  0  0  0  0  0
  188.4770  176.8930  136.0290 C   0  0  0  0  0  2  0  0  0  0  0  0
  190.9600  176.8040  138.8400 C   0  0  1  0  0  3  0  0  0  0  0  0
  189.6990  172.9590  136.7410 C   0  0  0  0  0  2  0  0  0  0  0  0
  191.8970  172.2400  135.9850 C   0  0  2  0  0  3  0  0  0  0  0  0
  192.4090  177.2750  138.6580 C   0  0  0  0  0  2  0  0  0  0  0  0
  190.6440  175.6530  137.8740 C   0  0  1  0  0  3  0  0  0  0  0  0
  196.3180  174.4590  135.7490 C   0  0  0  0  0  2  0  0  0  0  0  0
  188.7040  174.1340  136.8850 C   0  0  2  0  0  3  0  0  0  0  0  0
  187.9550  175.7780  135.1720 C   0  0  0  0  0  3  0  0  0  0  0  0
  195.4200  176.6790  135.1370 C   0  0  0  0  0  1  0  0  0  0  0  0
  193.8450  173.6110  136.9330 C   0  0  2  0  0  3  0  0  0  0  0  0
  196.4110  173.3610  136.8120 C   0  0  0  0  0  2  0  0  0  0  0  0
  193.9340  175.0000  136.2490 C   0  0  1  0  0  3  0  0  0  0  0  0
  191.1920  174.5440  135.6520 C   0  0  0  0  0  2  0  0  0  0  0  0
  191.4110  171.7460  134.6260 C   0  0  0  0  0  1  0  0  0  0  0  0
  191.0940  173.3590  136.5030 N   0  0  1  0  0  0  0  0  0  0  0  0
  188.0900  174.5050  135.5570 C   0  0  0  0  0  3  0  0  0  0  0  0
  188.3420  176.5580  137.4460 N   0  0  0  0  0  2  0  0  0  0  0  0
  195.1320  173.1630  137.6390 C   0  0  1  0  0  3  0  0  0  0  0  0
  195.2680  173.8560  138.9820 C   0  0  0  0  0  1  0  0  0  0  0  0
  189.1320  175.3570  137.7530 C   0  0  2  0  0  3  0  0  0  0  0  0
  190.7710  176.3740  140.1540 O   0  0  0  0  0  0  0  0  0  0  0  0
  190.4010  177.5240  140.8580 C   0  0  0  0  0  2  0  0  0  0  0  0
  188.9740  177.7520  140.7100 N   0  0  0  0  0  2  0  0  0  0  0  0
  188.5610  178.6030  141.8130 C   0  0  0  0  0  1  0  0  0  0  0  0
  1  5  1  1  0  0  0
  2 15  1  6  0  0  0
  2 18  1  0  0  0  0
  3  9  1  0  0  0  0
  3 16  1  0  0  0  0
  4 19  1  1  0  0  0
  4  1  1  0  0  0  0
  4 11  1  0  0  0  0
  5 10  1  0  0  0  0
  6 23  1  0  0  0  0
  7 27  1  1  0  0  0
  8 13  1  0  0  0  0
  9 20  1  6  0  0  0
  9 21  1  0  0  0  0
 10  7  1  0  0  0  0
 11  7  1  0  0  0  0
 12  2  1  0  0  0  0
 12 17  1  0  0  0  0
 13 26  1  0  0  0  0
 14 22  2  0  0  0  0
 14  6  1  0  0  0  0
 16 24  1  0  0  0  0
 17 24  1  0  0  0  0
 18  1  1  0  0  0  0
 18 16  1  0  0  0  0
 19 21  1  0  0  0  0
 21  8  1  0  0  0  0
 22 13  1  0  0  0  0
 23 26  1  0  0  0  0
 24 25  1  0  0  0  0
 26 11  1  0  0  0  0
 27 28  1  0  0  0  0
 29 28  1  0  0  0  0
 29 30  1  0  0  0  0
M  END
>  <MODEL>
5

>  <REMARK>
 VINA RESULT:      -4.5      1.335      1.654
  Name = 
  3 active torsions:
  status: ('A' for Active; 'I' for Inactive)
    1  A    between atoms: O_6  and  C_8
    2  A    between atoms: O_6  and  C_21
    3  A    between atoms: N_9  and  C_21
                            x       y       z     vdW  Elec       q    Type
                         _______ _______ _______ _____ _____    ______ ____

>  <TORSDO>
F 3

$$$$
=
 OpenBabel10262421593D

 30 34  0  0  1  0  0  0  0  0999 V2000
  183.9900  176.3400  136.8740 C   0  0  1  0  0  3  0  0  0  0  0  0
  186.3320  175.3800  136.6080 C   0  0  1  0  0  3  0  0  0  0  0  0
  186.3780  178.1740  138.8590 C   0  0  0  0  0  2  0  0  0  0  0  0
  182.9300  176.9320  137.8620 C   0  0  2  0  0  3  0  0  0  0  0  0
  183.8930  176.8780  135.5710 O   0  0  0  0  0  0  0  0  0  0  0  0
  179.9500  176.9180  139.0650 C   0  0  0  0  0  2  0  0  0  0  0  0
  181.6130  177.6350  135.7800 C   0  0  1  0  0  3  0  0  0  0  0  0
  182.9830  179.7500  139.5800 C   0  0  0  0  0  2  0  0  0  0  0  0
  185.3050  179.0220  139.5620 C   0  0  2  0  0  3  0  0  0  0  0  0
  182.5810  176.6410  135.1260 C   0  0  0  0  0  2  0  0  0  0  0  0
  182.1260  178.0540  137.1650 C   0  0  1  0  0  3  0  0  0  0  0  0
  187.7880  175.5940  136.9920 C   0  0  0  0  0  2  0  0  0  0  0  0
  181.5010  179.3420  139.4010 C   0  0  2  0  0  3  0  0  0  0  0  0
  180.2560  177.4500  140.4340 C   0  0  0  0  0  3  0  0  0  0  0  0
  185.9370  173.9570  136.9600 C   0  0  0  0  0  1  0  0  0  0  0  0
  186.0220  177.8170  137.4160 C   0  0  2  0  0  3  0  0  0  0  0  0
  188.2950  176.9660  136.5380 C   0  0  0  0  0  2  0  0  0  0  0  0
  185.4480  176.3780  137.3670 C   0  0  1  0  0  3  0  0  0  0  0  0
  183.5240  177.4080  139.1890 C   0  0  0  0  0  2  0  0  0  0  0  0
  185.3820  178.8020  141.0690 C   0  0  0  0  0  1  0  0  0  0  0  0
  183.9550  178.7960  139.0230 N   0  0  1  0  0  0  0  0  0  0  0  0
  180.9990  178.5520  140.5850 C   0  0  0  0  0  3  0  0  0  0  0  0
  179.8010  178.0150  138.1100 N   0  0  0  0  0  2  0  0  0  0  0  0
  187.2190  178.0600  136.4860 C   0  0  1  0  0  3  0  0  0  0  0  0
  186.7470  178.2570  135.0580 C   0  0  0  0  0  1  0  0  0  0  0  0
  181.0570  178.7730  138.0190 C   0  0  2  0  0  3  0  0  0  0  0  0
  181.4860  178.7640  134.9690 O   0  0  0  0  0  0  0  0  0  0  0  0
  180.1400  178.7880  134.5950 C   0  0  0  0  0  2  0  0  0  0  0  0
  179.6300  180.1450  134.6810 N   0  0  0  0  0  2  0  0  0  0  0  0
  180.7770  181.0360  134.6380 C   0  0  0  0  0  1  0  0  0  0  0  0
  1  5  1  6  0  0  0
  1 18  1  0  0  0  0
  1  4  1  0  0  0  0
  2 15  1  1  0  0  0
  2 12  1  0  0  0  0
  2 18  1  0  0  0  0
  3  9  1  0  0  0  0
  4 19  1  1  0  0  0
  6 14  1  0  0  0  0
  7 27  1  6  0  0  0
  7 11  1  0  0  0  0
  9 20  1  1  0  0  0
 10  5  1  0  0  0  0
 10  7  1  0  0  0  0
 11  4  1  0  0  0  0
 11 26  1  0  0  0  0
 13  8  1  0  0  0  0
 13 22  1  0  0  0  0
 14 22  2  0  0  0  0
 16  3  1  0  0  0  0
 17 12  1  0  0  0  0
 18 16  1  0  0  0  0
 21 19  1  0  0  0  0
 21  9  1  0  0  0  0
 21  8  1  0  0  0  0
 23  6  1  0  0  0  0
 24 17  1  0  0  0  0
 24 16  1  0  0  0  0
 25 24  1  0  0  0  0
 26 23  1  0  0  0  0
 26 13  1  0  0  0  0
 28 29  1  0  0  0  0
 28 27  1  0  0  0  0
 30 29  1  0  0  0  0
M  END
>  <MODEL>
6

>  <REMARK>
 VINA RESULT:      -4.3      6.287      9.592
  Name = 
  3 active torsions:
  status: ('A' for Active; 'I' for Inactive)
    1  A    between atoms: O_6  and  C_8
    2  A    between atoms: O_6  and  C_21
    3  A    between atoms: N_9  and  C_21
                            x       y       z     vdW  Elec       q    Type
                         _______ _______ _______ _____ _____    ______ ____

>  <TORSDO>
F 3

$$$$
=
 OpenBabel10262421593D

 30 34  0  0  1  0  0  0  0  0999 V2000
  180.9360  176.9320  139.3380 C   0  0  1  0  0  3  0  0  0  0  0  0
  179.3550  174.9370  139.3790 C   0  0  1  0  0  3  0  0  0  0  0  0
  182.2000  174.2310  137.3100 C   0  0  0  0  0  2  0  0  0  0  0  0
  182.4240  177.4130  139.3710 C   0  0  2  0  0  3  0  0  0  0  0  0
  180.0950  177.7820  138.5850 O   0  0  0  0  0  0  0  0  0  0  0  0
  184.7060  179.2840  140.6450 C   0  0  0  0  0  2  0  0  0  0  0  0
  181.5300  179.7180  138.6970 C   0  0  1  0  0  3  0  0  0  0  0  0
  184.8350  176.9810  137.1580 C   0  0  0  0  0  2  0  0  0  0  0  0
  183.5520  174.9170  137.0480 C   0  0  2  0  0  3  0  0  0  0  0  0
  180.2120  179.0680  139.1390 C   0  0  0  0  0  2  0  0  0  0  0  0
  182.6020  178.6460  138.4540 C   0  0  1  0  0  3  0  0  0  0  0  0
  179.1170  173.5580  138.7850 C   0  0  0  0  0  2  0  0  0  0  0  0
  185.1840  178.2420  137.9840 C   0  0  2  0  0  3  0  0  0  0  0  0
  185.8950  178.4150  140.3630 C   0  0  0  0  0  3  0  0  0  0  0  0
  179.3050  174.8350  140.8920 C   0  0  0  0  0  1  0  0  0  0  0  0
  181.0340  175.2110  137.4310 C   0  0  2  0  0  3  0  0  0  0  0  0
  179.0170  173.6110  137.2580 C   0  0  0  0  0  2  0  0  0  0  0  0
  180.7240  175.4630  138.9290 C   0  0  1  0  0  3  0  0  0  0  0  0
  183.4350  176.3140  139.0350 C   0  0  0  0  0  2  0  0  0  0  0  0
  184.6840  174.0340  137.5630 C   0  0  0  0  0  1  0  0  0  0  0  0
  183.6110  176.2850  137.5840 N   0  0  1  0  0  0  0  0  0  0  0  0
  186.0940  177.9100  139.1410 C   0  0  0  0  0  3  0  0  0  0  0  0
  184.3770  180.0980  139.4750 N   0  0  0  0  0  2  0  0  0  0  0  0
  179.8350  174.7340  136.6020 C   0  0  1  0  0  3  0  0  0  0  0  0
  178.9310  175.9020  136.2570 C   0  0  0  0  0  1  0  0  0  0  0  0
  184.0290  179.2270  138.3430 C   0  0  2  0  0  3  0  0  0  0  0  0
  181.3210  180.4430  137.5230 O   0  0  0  0  0  0  0  0  0  0  0  0
  181.2070  181.7730  137.9390 C   0  0  0  0  0  2  0  0  0  0  0  0
  180.7030  182.5870  136.8470 N   0  0  0  0  0  2  0  0  0  0  0  0
  181.2250  183.9290  137.0380 C   0  0  0  0  0  1  0  0  0  0  0  0
  1  5  1  6  0  0  0
  1  4  1  0  0  0  0
  2 15  1  1  0  0  0
  3 16  1  0  0  0  0
  4 19  1  6  0  0  0
  5 10  1  0  0  0  0
  7 27  1  6  0  0  0
  7 10  1  0  0  0  0
  8 21  1  0  0  0  0
  8 13  1  0  0  0  0
  9  3  1  0  0  0  0
  9 20  1  1  0  0  0
  9 21  1  0  0  0  0
 11  7  1  0  0  0  0
 11  4  1  0  0  0  0
 12  2  1  0  0  0  0
 13 26  1  0  0  0  0
 13 22  1  0  0  0  0
 14  6  1  0  0  0  0
 16 18  1  0  0  0  0
 17 12  1  0  0  0  0
 18  1  1  0  0  0  0
 18  2  1  0  0  0  0
 21 19  1  0  0  0  0
 22 14  2  0  0  0  0
 23  6  1  0  0  0  0
 24 17  1  0  0  0  0
 24 16  1  0  0  0  0
 25 24  1  0  0  0  0
 26 11  1  0  0  0  0
 26 23  1  0  0  0  0
 27 28  1  0  0  0  0
 29 30  1  0  0  0  0
 29 28  1  0  0  0  0
M  END
>  <MODEL>
7

>  <REMARK>
 VINA RESULT:      -4.3      7.513     11.151
  Name = 
  3 active torsions:
  status: ('A' for Active; 'I' for Inactive)
    1  A    between atoms: O_6  and  C_8
    2  A    between atoms: O_6  and  C_21
    3  A    between atoms: N_9  and  C_21
                            x       y       z     vdW  Elec       q    Type
                         _______ _______ _______ _____ _____    ______ ____

>  <TORSDO>
F 3

$$$$
=
 OpenBabel10262421593D

 30 34  0  0  1  0  0  0  0  0999 V2000
  187.1230  176.9030  136.4560 C   0  0  1  0  0  3  0  0  0  0  0  0
  189.6090  177.1730  135.9830 C   0  0  1  0  0  3  0  0  0  0  0  0
  188.8880  173.8010  136.9760 C   0  0  0  0  0  2  0  0  0  0  0  0
  185.8600  175.9930  136.3010 C   0  0  2  0  0  3  0  0  0  0  0  0
  187.1030  177.6810  137.6360 O   0  0  0  0  0  0  0  0  0  0  0  0
  182.7970  175.6310  135.3980 C   0  0  0  0  0  2  0  0  0  0  0  0
  184.7200  177.5560  137.9810 C   0  0  1  0  0  3  0  0  0  0  0  0
  185.2090  173.0370  137.6200 C   0  0  0  0  0  2  0  0  0  0  0  0
  187.6040  172.9830  137.1930 C   0  0  2  0  0  3  0  0  0  0  0  0
  185.9190  178.4370  137.6090 C   0  0  0  0  0  2  0  0  0  0  0  0
  184.9710  176.1000  137.5630 C   0  0  1  0  0  3  0  0  0  0  0  0
  190.9450  176.4500  136.0360 C   0  0  0  0  0  2  0  0  0  0  0  0
  183.8540  173.7070  137.2890 C   0  0  2  0  0  3  0  0  0  0  0  0
  182.8290  174.1680  135.0690 C   0  0  0  0  0  3  0  0  0  0  0  0
  189.4210  177.7540  134.5940 C   0  0  0  0  0  1  0  0  0  0  0  0
  188.7860  175.2380  137.4880 C   0  0  2  0  0  3  0  0  0  0  0  0
  191.2650  175.9570  137.4500 C   0  0  0  0  0  2  0  0  0  0  0  0
  188.4780  176.1880  136.3030 C   0  0  1  0  0  3  0  0  0  0  0  0
  186.1880  174.5360  135.9690 C   0  0  0  0  0  2  0  0  0  0  0  0
  187.5240  171.8690  136.1530 C   0  0  0  0  0  1  0  0  0  0  0  0
  186.3930  173.8170  137.2260 N   0  0  1  0  0  0  0  0  0  0  0  0
  183.3480  173.2870  135.9310 C   0  0  0  0  0  3  0  0  0  0  0  0
  182.5860  175.8280  136.8320 N   0  0  0  0  0  2  0  0  0  0  0  0
  190.0330  175.6130  138.3010 C   0  0  1  0  0  3  0  0  0  0  0  0
  189.7210  176.7560  139.2490 C   0  0  0  0  0  1  0  0  0  0  0  0
  183.6950  175.2300  137.5870 C   0  0  2  0  0  3  0  0  0  0  0  0
  184.5070  177.6150  139.3590 O   0  0  0  0  0  0  0  0  0  0  0  0
  184.1740  178.9480  139.6130 C   0  0  0  0  0  2  0  0  0  0  0  0
  182.7570  179.1550  139.3680 N   0  0  0  0  0  2  0  0  0  0  0  0
  182.0410  178.6150  140.5110 C   0  0  0  0  0  1  0  0  0  0  0  0
  1  5  1  1  0  0  0
  2 15  1  6  0  0  0
  2 12  1  0  0  0  0
  2 18  1  0  0  0  0
  3  9  1  0  0  0  0
  3 16  1  0  0  0  0
  4 19  1  1  0  0  0
  4  1  1  0  0  0  0
  4 11  1  0  0  0  0
  6 23  1  0  0  0  0
  7 27  1  1  0  0  0
  9 20  1  6  0  0  0
  9 21  1  0  0  0  0
 10  5  1  0  0  0  0
 10  7  1  0  0  0  0
 11 26  1  0  0  0  0
 11  7  1  0  0  0  0
 12 17  1  0  0  0  0
 13 26  1  0  0  0  0
 13  8  1  0  0  0  0
 14  6  1  0  0  0  0
 14 22  2  0  0  0  0
 16 24  1  0  0  0  0
 17 24  1  0  0  0  0
 18  1  1  0  0  0  0
 18 16  1  0  0  0  0
 19 21  1  0  0  0  0
 21  8  1  0  0  0  0
 22 13  1  0  0  0  0
 23 26  1  0  0  0  0
 24 25  1  0  0  0  0
 27 28  1  0  0  0  0
 29 28  1  0  0  0  0
 29 30  1  0  0  0  0
M  END
>  <MODEL>
8

>  <REMARK>
 VINA RESULT:      -4.2      4.095      6.023
  Name = 
  3 active torsions:
  status: ('A' for Active; 'I' for Inactive)
    1  A    between atoms: O_6  and  C_8
    2  A    between atoms: O_6  and  C_21
    3  A    between atoms: N_9  and  C_21
                            x       y       z     vdW  Elec       q    Type
                         _______ _______ _______ _____ _____    ______ ____

>  <TORSDO>
F 3

$$$$
=
 OpenBabel10262421593D

 30 34  0  0  1  0  0  0  0  0999 V2000
  191.5930  175.9250  138.2000 C   0  0  1  0  0  3  0  0  0  0  0  0
  189.9560  177.0110  139.8180 C   0  0  1  0  0  3  0  0  0  0  0  0
  188.1820  175.2880  137.2180 C   0  0  0  0  0  2  0  0  0  0  0  0
  191.9260  174.6640  137.3370 C   0  0  2  0  0  3  0  0  0  0  0  0
  192.0700  177.1280  137.6300 O   0  0  0  0  0  0  0  0  0  0  0  0
  193.9980  172.3630  136.4730 C   0  0  0  0  0  2  0  0  0  0  0  0
  193.7350  176.0970  136.2230 C   0  0  1  0  0  3  0  0  0  0  0  0
  190.3630  173.4300  134.7040 C   0  0  0  0  0  2  0  0  0  0  0  0
  188.5740  174.3080  136.1000 C   0  0  2  0  0  3  0  0  0  0  0  0
  193.4550  176.9750  137.4490 C   0  0  0  0  0  2  0  0  0  0  0  0
  192.5940  175.0920  136.0080 C   0  0  1  0  0  3  0  0  0  0  0  0
  188.4790  177.2750  140.0630 C   0  0  0  0  0  2  0  0  0  0  0  0
  191.8320  172.9480  134.6400 C   0  0  2  0  0  3  0  0  0  0  0  0
  193.0100  171.3020  136.0880 C   0  0  0  0  0  3  0  0  0  0  0  0
  190.5540  176.3780  141.0620 C   0  0  0  0  0  1  0  0  0  0  0  0
  189.1940  176.4150  137.4200 C   0  0  2  0  0  3  0  0  0  0  0  0
  187.8420  178.0410  138.9000 C   0  0  0  0  0  2  0  0  0  0  0  0
  190.1180  176.0720  138.6160 C   0  0  1  0  0  3  0  0  0  0  0  0
  190.7240  173.7500  137.0910 C   0  0  0  0  0  2  0  0  0  0  0  0
  187.9390  172.9460  136.3660 C   0  0  0  0  0  1  0  0  0  0  0  0
  190.0280  174.2260  135.8960 N   0  0  1  0  0  0  0  0  0  0  0  0
  191.9940  171.5850  135.2670 C   0  0  0  0  0  3  0  0  0  0  0  0
  194.2160  173.2890  135.3620 N   0  0  0  0  0  2  0  0  0  0  0  0
  188.4820  177.7710  137.5300 C   0  0  1  0  0  3  0  0  0  0  0  0
  189.4310  178.8980  137.1690 C   0  0  0  0  0  1  0  0  0  0  0  0
  192.9550  173.9620  135.0190 C   0  0  2  0  0  3  0  0  0  0  0  0
  193.8630  176.9040  135.0920 O   0  0  0  0  0  0  0  0  0  0  0  0
  195.1440  176.6340  134.6020 C   0  0  0  0  0  2  0  0  0  0  0  0
  196.1260  177.4060  135.3430 N   0  0  0  0  0  2  0  0  0  0  0  0
  196.1810  178.7240  134.7370 C   0  0  0  0  0  1  0  0  0  0  0  0
  1  5  1  6  0  0  0
  1 18  1  0  0  0  0
  2 12  1  0  0  0  0
  2 15  1  1  0  0  0
  3 16  1  0  0  0  0
  4 19  1  6  0  0  0
  4  1  1  0  0  0  0
  7 27  1  6  0  0  0
  7 10  1  0  0  0  0
  8 21  1  0  0  0  0
  9 20  1  1  0  0  0
  9  3  1  0  0  0  0
 10  5  1  0  0  0  0
 11  7  1  0  0  0  0
 11  4  1  0  0  0  0
 13  8  1  0  0  0  0
 13 26  1  0  0  0  0
 13 22  1  0  0  0  0
 14  6  1  0  0  0  0
 16 24  1  0  0  0  0
 16 18  1  0  0  0  0
 17 12  1  0  0  0  0
 18  2  1  0  0  0  0
 21  9  1  0  0  0  0
 21 19  1  0  0  0  0
 22 14  2  0  0  0  0
 23  6  1  0  0  0  0
 24 17  1  0  0  0  0
 25 24  1  0  0  0  0
 26 23  1  0  0  0  0
 26 11  1  0  0  0  0
 28 27  1  0  0  0  0
 28 29  1  0  0  0  0
 30 29  1  0  0  0  0
M  END
>  <MODEL>
9

>  <REMARK>
 VINA RESULT:      -4.2      2.195      6.203
  Name = 
  3 active torsions:
  status: ('A' for Active; 'I' for Inactive)
    1  A    between atoms: O_6  and  C_8
    2  A    between atoms: O_6  and  C_21
    3  A    between atoms: N_9  and  C_21
                            x       y       z     vdW  Elec       q    Type
                         _______ _______ _______ _____ _____    ______ ____

>  <TORSDO>
F 3

$$$$
