=
 OpenBabel10262420413D

 55 58  0  0  1  0  0  0  0  0999 V2000
  185.6540  178.5110  144.4260 C   0  0  0  0  0  2  0  0  0  0  0  0
  186.8680  177.9670  141.7900 C   0  0  2  0  0  3  0  0  0  0  0  0
  185.6470  178.8860  141.9170 C   0  0  2  0  0  3  0  0  0  0  0  0
  186.9420  177.7110  144.3100 C   0  0  0  0  0  2  0  0  0  0  0  0
  185.5840  179.5440  143.3050 C   0  0  0  0  0  2  0  0  0  0  0  0
  186.9730  176.9820  142.9680 C   0  0  0  0  0  2  0  0  0  0  0  0
  188.1470  178.7840  141.5910 C   0  0  0  0  0  2  0  0  0  0  0  0
  188.5660  178.7340  140.2550 O   0  0  0  0  0  0  0  0  0  0  0  0
  189.3790  177.6020  140.1540 C   0  0  0  0  0  2  0  0  0  0  0  0
  189.5700  177.2410  138.7120 C   0  0  2  0  0  3  0  0  0  0  0  0
  190.1130  175.7730  138.3300 S   0  0  0  0  0  0  0  0  0  0  0  0
  189.2590  178.2410  137.6400 C   0  0  0  0  0  1  0  0  0  0  0  0
  191.7590  176.8280  136.1330 O   0  0  0  0  0  0  0  0  0  0  0  0
  191.9680  176.0820  137.4190 S   0  0  0  0  0  0  0  0  0  0  0  0
  192.7980  176.9300  138.3470 O   0  0  0  0  0  0  0  0  0  0  0  0
  194.9580  172.1860  136.2720 C   0  0  0  0  0  2  0  0  0  0  0  0
  192.7540  174.4860  137.1150 C   0  0  2  0  0  3  0  0  0  0  0  0
  195.2620  173.0320  138.6670 C   0  0  0  0  0  2  0  0  0  0  0  0
  194.7970  175.6550  136.6740 O   0  0  0  0  0  0  0  0  0  0  0  0
  194.2550  174.5960  136.9530 C   0  0  0  0  0  0  0  0  0  0  0  0
  192.9400  172.8810  135.1740 O   0  0  0  0  0  0  0  0  0  0  0  0
  196.4390  173.5840  137.8670 C   0  0  0  0  0  2  0  0  0  0  0  0
  193.4760  171.9130  136.0480 C   0  0  1  0  0  3  0  0  0  0  0  0
  195.0970  173.3780  137.2020 C   0  0  0  0  0  0  0  0  0  0  0  0
  190.7200  173.2070  136.1450 C   0  0  0  0  0  1  0  0  0  0  0  0
  192.1140  173.7770  135.8960 C   0  0  1  0  0  3  0  0  0  0  0  0
  193.2400  170.5260  135.5480 C   0  0  0  0  0  0  0  0  0  0  0  0
  191.9920  170.1900  134.9490 N   0  0  0  0  0  1  0  0  0  0  0  0
  194.1730  169.6770  135.5380 O   0  0  0  0  0  0  0  0  0  0  0  0
  184.3790  178.0970  141.5990 C   0  0  0  0  0  2  0  0  0  0  0  0
  183.3780  178.9470  140.9590 N   0  0  0  0  0  2  0  0  0  0  0  0
  183.3410  178.7120  139.5100 C   0  0  1  0  0  3  0  0  0  0  0  0
  181.9830  179.0580  138.8390 C   0  0  1  0  0  3  0  0  0  0  0  0
  181.9410  176.6130  139.5370 C   0  0  0  0  0  2  0  0  0  0  0  0
  180.4530  175.0480  138.2650 C   0  0  0  0  0  2  0  0  0  0  0  0
  181.1200  177.2580  137.2560 N   0  0  0  0  0  0  0  0  0  0  0  0
  180.2640  176.0680  137.1310 C   0  0  0  0  0  2  0  0  0  0  0  0
  181.8060  175.2110  138.9380 C   0  0  0  0  0  2  0  0  0  0  0  0
  181.2670  177.6850  138.6660 C   0  0  2  0  0  3  0  0  0  0  0  0
  180.4930  178.2450  136.5600 O   0  0  0  0  0  1  0  0  0  0  0  0
  181.0800  181.3260  138.8900 C   0  0  0  0  0  1  0  0  0  0  0  0
  181.1960  180.0630  139.6150 N   0  0  0  0  0  0  0  0  0  0  0  0
  179.8310  179.6310  140.0040 C   0  0  0  0  0  2  0  0  0  0  0  0
  179.5730  179.4050  141.4860 C   0  0  0  0  0  0  0  0  0  0  0  0
  179.3860  177.9990  141.9550 C   0  0  0  0  0  1  0  0  0  0  0  0
  179.6170  180.3780  142.3930 C   0  0  0  0  0  2  0  0  0  0  0  0
  184.5200  179.3750  138.7920 C   0  0  0  0  0  2  0  0  0  0  0  0
  185.5510  178.3540  138.3330 C   0  0  0  0  0  2  0  0  0  0  0  0
  184.8250  177.1930  137.6930 C   0  0  0  0  0  2  0  0  0  0  0  0
  185.8000  176.0890  137.2870 C   0  0  0  0  0  2  0  0  0  0  0  0
  184.0520  175.6300  135.7180 O   0  0  0  0  0  1  0  0  0  0  0  0
  185.1220  175.0390  136.4100 C   0  0  1  0  0  0  0  0  0  0  0  0
  186.1430  174.5630  135.3990 C   0  0  0  0  0  1  0  0  0  0  0  0
  184.6610  173.9160  137.2420 N   0  0  0  0  0  2  0  0  0  0  0  0
  185.7750  173.0450  137.5930 C   0  0  0  0  0  1  0  0  0  0  0  0
  2  7  1  1  0  0  0
  2  3  1  0  0  0  0
  2  6  1  0  0  0  0
  3 30  1  1  0  0  0
  3  5  1  0  0  0  0
  4  1  1  0  0  0  0
  5  1  1  0  0  0  0
  6  4  1  0  0  0  0
  8  7  1  0  0  0  0
  9  8  1  0  0  0  0
 10 12  1  1  0  0  0
 10  9  1  0  0  0  0
 11 10  1  0  0  0  0
 13 14  2  0  0  0  0
 14 11  1  0  0  0  0
 14 15  2  0  0  0  0
 16 24  1  0  0  0  0
 17 14  1  6  0  0  0
 19 20  2  0  0  0  0
 20 17  1  0  0  0  0
 20 24  1  0  0  0  0
 21 26  1  0  0  0  0
 21 23  1  0  0  0  0
 22 18  1  0  0  0  0
 23 27  1  6  0  0  0
 23 16  1  0  0  0  0
 24 22  1  0  0  0  0
 24 18  1  0  0  0  0
 26 25  1  1  0  0  0
 26 17  1  0  0  0  0
 28 27  1  0  0  0  0
 29 27  2  0  0  0  0
 31 30  1  0  0  0  0
 32 47  1  6  0  0  0
 32 31  1  0  0  0  0
 33 32  1  0  0  0  0
 33 42  1  1  0  0  0
 35 38  1  0  0  0  0
 36 39  1  0  0  0  0
 37 36  1  0  0  0  0
 37 35  1  0  0  0  0
 38 34  1  0  0  0  0
 39 33  1  6  0  0  0
 39 34  1  0  0  0  0
 40 36  1  0  0  0  0
 41 42  1  0  0  0  0
 42 43  1  0  0  0  0
 43 44  1  0  0  0  0
 44 45  1  0  0  0  0
 44 46  2  0  0  0  0
 48 47  1  0  0  0  0
 49 48  1  0  0  0  0
 50 49  1  0  0  0  0
 51 52  1  0  0  0  0
 52 53  1  6  0  0  0
 52 54  1  0  0  0  0
 52 50  1  0  0  0  0
 54 55  1  0  0  0  0
M  END
>  <MODEL>
1

>  <REMARK>
 VINA RESULT:      -5.1      0.000      0.000
  Name = 
  21 active torsions:
  status: ('A' for Active; 'I' for Inactive)
    1  A    between atoms: C_1  and  C_29
    2  A    between atoms: C_2  and  N_28
    3  A    between atoms: C_2  and  C_31
    4  A    between atoms: C_4  and  C_40
    5  A    between atoms: C_6  and  S_20
    6  A    between atoms: C_8  and  C_35
    7  A    between atoms: N_10  and  C_39
    8  A    between atoms: C_13  and  C_48
    9  A    between atoms: C_13  and  C_52
   10  A    between atoms: S_20  and  S_22
   11  A    between atoms: C_26  and  C_49
   12  A    between atoms: C_27  and  C_54
   13  A    between atoms: N_28  and  C_33
   14  A    between atoms: C_33  and  C_34
   15  A    between atoms: C_33  and  C_49
   16  A    between atoms: C_34  and  C_52
   17  A    between atoms: C_35  and  O_51
   18  A    between atoms: C_39  and  C_48
   19  A    between atoms: C_40  and  N_45
   20  A    between atoms: N_45  and  C_49
   21  A    between atoms: O_51  and  C_54
                            x       y       z     vdW  Elec       q    Type
                         _______ _______ _______ _____ _____    ______ ____

>  <TORSDO>
F 21

$$$$
=
 OpenBabel10262420413D

 55 58  0  0  1  0  0  0  0  0999 V2000
  190.4820  177.6030  144.5830 C   0  0  0  0  0  2  0  0  0  0  0  0
  190.6160  176.9870  141.6980 C   0  0  2  0  0  3  0  0  0  0  0  0
  189.6660  178.0690  142.2260 C   0  0  2  0  0  3  0  0  0  0  0  0
  191.5150  176.6280  144.0400 C   0  0  0  0  0  2  0  0  0  0  0  0
  190.1860  178.6760  143.5390 C   0  0  0  0  0  2  0  0  0  0  0  0
  190.9720  175.9530  142.7810 C   0  0  0  0  0  2  0  0  0  0  0  0
  191.8540  177.6150  141.0550 C   0  0  0  0  0  2  0  0  0  0  0  0
  192.2440  176.8940  139.9190 O   0  0  0  0  0  0  0  0  0  0  0  0
  191.2390  177.1060  138.9720 C   0  0  0  0  0  2  0  0  0  0  0  0
  191.5140  176.2870  137.7480 C   0  0  2  0  0  3  0  0  0  0  0  0
  190.4490  176.2910  136.5380 S   0  0  0  0  0  0  0  0  0  0  0  0
  192.7680  175.4720  137.6550 C   0  0  0  0  0  1  0  0  0  0  0  0
  190.2900  173.6850  135.1820 O   0  0  0  0  0  0  0  0  0  0  0  0
  189.7330  174.3310  136.4170 S   0  0  0  0  0  0  0  0  0  0  0  0
  190.2330  173.5850  137.6260 O   0  0  0  0  0  0  0  0  0  0  0  0
  184.7860  175.1150  137.0110 C   0  0  0  0  0  2  0  0  0  0  0  0
  187.9290  174.3590  136.3690 C   0  0  2  0  0  3  0  0  0  0  0  0
  185.8740  176.7080  135.3320 C   0  0  0  0  0  2  0  0  0  0  0  0
  187.9880  176.2340  137.8580 O   0  0  0  0  0  0  0  0  0  0  0  0
  187.3450  175.5780  137.0510 C   0  0  0  0  0  0  0  0  0  0  0  0
  186.0510  173.1450  137.5430 O   0  0  0  0  0  0  0  0  0  0  0  0
  185.6940  177.5050  136.6210 C   0  0  0  0  0  2  0  0  0  0  0  0
  185.1410  173.6880  136.6120 C   0  0  1  0  0  3  0  0  0  0  0  0
  185.9590  176.0180  136.6770 C   0  0  0  0  0  0  0  0  0  0  0  0
  187.4890  171.8230  136.0730 C   0  0  0  0  0  1  0  0  0  0  0  0
  187.3390  173.0550  136.9610 C   0  0  1  0  0  3  0  0  0  0  0  0
  183.9240  172.8350  136.4690 C   0  0  0  0  0  0  0  0  0  0  0  0
  183.9880  171.6240  135.7230 N   0  0  0  0  0  1  0  0  0  0  0  0
  182.8660  173.1110  137.1000 O   0  0  0  0  0  0  0  0  0  0  0  0
  188.2640  177.4860  142.3800 C   0  0  0  0  0  2  0  0  0  0  0  0
  187.3740  178.4280  143.0560 N   0  0  0  0  0  2  0  0  0  0  0  0
  185.9700  178.1470  142.7330 C   0  0  1  0  0  3  0  0  0  0  0  0
  185.0650  177.8990  143.9710 C   0  0  1  0  0  3  0  0  0  0  0  0
  187.1750  177.2000  145.2060 C   0  0  0  0  0  2  0  0  0  0  0  0
  187.5900  178.1700  147.4790 C   0  0  0  0  0  2  0  0  0  0  0  0
  185.2720  178.2070  146.4920 N   0  0  0  0  0  0  0  0  0  0  0  0
  186.1410  178.6700  147.5850 C   0  0  0  0  0  2  0  0  0  0  0  0
  187.6830  176.9170  146.6230 C   0  0  0  0  0  2  0  0  0  0  0  0
  185.9870  178.1750  145.1960 C   0  0  2  0  0  3  0  0  0  0  0  0
  184.2560  179.1100  146.4120 O   0  0  0  0  0  1  0  0  0  0  0  0
  184.1170  180.1390  143.7600 C   0  0  0  0  0  1  0  0  0  0  0  0
  183.8180  178.7210  143.9490 N   0  0  0  0  0  0  0  0  0  0  0  0
  182.8190  178.3230  142.9270 C   0  0  0  0  0  2  0  0  0  0  0  0
  181.4040  178.8560  143.0980 C   0  0  0  0  0  0  0  0  0  0  0  0
  180.8230  179.6580  141.9800 C   0  0  0  0  0  1  0  0  0  0  0  0
  180.6270  178.5500  144.1330 C   0  0  0  0  0  2  0  0  0  0  0  0
  185.3770  179.1980  141.7910 C   0  0  0  0  0  2  0  0  0  0  0  0
  185.5280  178.8000  140.3310 C   0  0  0  0  0  2  0  0  0  0  0  0
  184.2020  178.2640  139.8400 C   0  0  0  0  0  2  0  0  0  0  0  0
  183.4710  179.2970  138.9850 C   0  0  0  0  0  2  0  0  0  0  0  0
  182.4380  178.2850  137.0790 O   0  0  0  0  0  1  0  0  0  0  0  0
  182.1880  178.7230  138.3890 C   0  0  1  0  0  0  0  0  0  0  0  0
  181.7930  177.5260  139.2280 C   0  0  0  0  0  1  0  0  0  0  0  0
  181.1260  179.7420  138.4160 N   0  0  0  0  0  2  0  0  0  0  0  0
  180.9200  180.3040  137.0870 C   0  0  0  0  0  1  0  0  0  0  0  0
  2  7  1  1  0  0  0
  2  3  1  0  0  0  0
  2  6  1  0  0  0  0
  3 30  1  1  0  0  0
  3  5  1  0  0  0  0
  4  1  1  0  0  0  0
  5  1  1  0  0  0  0
  6  4  1  0  0  0  0
  8  7  1  0  0  0  0
  9  8  1  0  0  0  0
 10 12  1  1  0  0  0
 10  9  1  0  0  0  0
 11 10  1  0  0  0  0
 13 14  2  0  0  0  0
 14 11  1  0  0  0  0
 14 15  2  0  0  0  0
 17 14  1  1  0  0  0
 17 26  1  0  0  0  0
 17 20  1  0  0  0  0
 18 22  1  0  0  0  0
 18 24  1  0  0  0  0
 20 19  2  0  0  0  0
 22 24  1  0  0  0  0
 23 27  1  1  0  0  0
 23 16  1  0  0  0  0
 23 21  1  0  0  0  0
 24 16  1  0  0  0  0
 24 20  1  0  0  0  0
 26 25  1  6  0  0  0
 26 21  1  0  0  0  0
 27 29  2  0  0  0  0
 28 27  1  0  0  0  0
 30 31  1  0  0  0  0
 32 47  1  1  0  0  0
 32 31  1  0  0  0  0
 32 33  1  0  0  0  0
 33 42  1  6  0  0  0
 34 38  1  0  0  0  0
 35 37  1  0  0  0  0
 36 37  1  0  0  0  0
 38 35  1  0  0  0  0
 39 33  1  6  0  0  0
 39 34  1  0  0  0  0
 39 36  1  0  0  0  0
 40 36  1  0  0  0  0
 41 42  1  0  0  0  0
 43 44  1  0  0  0  0
 43 42  1  0  0  0  0
 44 46  2  0  0  0  0
 45 44  1  0  0  0  0
 48 47  1  0  0  0  0
 49 48  1  0  0  0  0
 50 49  1  0  0  0  0
 51 52  1  0  0  0  0
 52 54  1  0  0  0  0
 52 50  1  0  0  0  0
 52 53  1  1  0  0  0
 55 54  1  0  0  0  0
M  END
>  <MODEL>
2

>  <REMARK>
 VINA RESULT:      -4.7      2.716      6.640
  Name = 
  21 active torsions:
  status: ('A' for Active; 'I' for Inactive)
    1  A    between atoms: C_1  and  C_29
    2  A    between atoms: C_2  and  N_28
    3  A    between atoms: C_2  and  C_31
    4  A    between atoms: C_4  and  C_40
    5  A    between atoms: C_6  and  S_20
    6  A    between atoms: C_8  and  C_35
    7  A    between atoms: N_10  and  C_39
    8  A    between atoms: C_13  and  C_48
    9  A    between atoms: C_13  and  C_52
   10  A    between atoms: S_20  and  S_22
   11  A    between atoms: C_26  and  C_49
   12  A    between atoms: C_27  and  C_54
   13  A    between atoms: N_28  and  C_33
   14  A    between atoms: C_33  and  C_34
   15  A    between atoms: C_33  and  C_49
   16  A    between atoms: C_34  and  C_52
   17  A    between atoms: C_35  and  O_51
   18  A    between atoms: C_39  and  C_48
   19  A    between atoms: C_40  and  N_45
   20  A    between atoms: N_45  and  C_49
   21  A    between atoms: O_51  and  C_54
                            x       y       z     vdW  Elec       q    Type
                         _______ _______ _______ _____ _____    ______ ____

>  <TORSDO>
F 21

$$$$
=
 OpenBabel10262420413D

 55 58  0  0  1  0  0  0  0  0999 V2000
  186.2580  175.1770  136.7810 C   0  0  0  0  0  2  0  0  0  0  0  0
  186.7530  177.6680  135.2730 C   0  0  2  0  0  3  0  0  0  0  0  0
  185.6590  177.6040  136.3460 C   0  0  2  0  0  3  0  0  0  0  0  0
  187.4260  175.2850  135.8130 C   0  0  0  0  0  2  0  0  0  0  0  0
  185.9800  176.5400  137.4080 C   0  0  0  0  0  2  0  0  0  0  0  0
  187.0830  176.2770  134.7030 C   0  0  0  0  0  2  0  0  0  0  0  0
  187.9920  178.3960  135.7990 C   0  0  0  0  0  2  0  0  0  0  0  0
  187.7490  178.9360  137.0690 O   0  0  0  0  0  0  0  0  0  0  0  0
  188.9920  178.9820  137.7050 C   0  0  0  0  0  2  0  0  0  0  0  0
  189.2210  177.7110  138.4640 C   0  0  2  0  0  3  0  0  0  0  0  0
  188.2780  177.3610  139.7230 S   0  0  0  0  0  0  0  0  0  0  0  0
  190.3200  176.7780  138.0530 C   0  0  0  0  0  1  0  0  0  0  0  0
  190.1910  176.0080  141.5010 O   0  0  0  0  0  0  0  0  0  0  0  0
  189.5430  177.3570  141.3860 S   0  0  0  0  0  0  0  0  0  0  0  0
  190.6100  178.3940  141.1520 O   0  0  0  0  0  0  0  0  0  0  0  0
  187.1770  177.5060  145.8380 C   0  0  0  0  0  2  0  0  0  0  0  0
  188.5810  177.7360  142.8650 C   0  0  2  0  0  3  0  0  0  0  0  0
  189.5780  178.3840  145.9320 C   0  0  0  0  0  2  0  0  0  0  0  0
  189.4920  175.7670  143.8790 O   0  0  0  0  0  0  0  0  0  0  0  0
  188.9300  176.8410  144.0350 C   0  0  0  0  0  0  0  0  0  0  0  0
  186.2080  177.3650  143.6470 O   0  0  0  0  0  0  0  0  0  0  0  0
  189.6170  176.9740  146.5130 C   0  0  0  0  0  2  0  0  0  0  0  0
  186.4430  178.2430  144.7240 C   0  0  1  0  0  3  0  0  0  0  0  0
  188.6250  177.3210  145.4250 C   0  0  0  0  0  0  0  0  0  0  0  0
  186.5350  178.8640  141.7440 C   0  0  0  0  0  1  0  0  0  0  0  0
  187.0620  177.6900  142.5650 C   0  0  1  0  0  3  0  0  0  0  0  0
  185.1790  178.8670  145.2150 C   0  0  0  0  0  0  0  0  0  0  0  0
  184.2580  179.4310  144.2870 N   0  0  0  0  0  1  0  0  0  0  0  0
  184.8540  178.7940  146.4330 O   0  0  0  0  0  0  0  0  0  0  0  0
  184.3060  177.3620  135.6820 C   0  0  0  0  0  2  0  0  0  0  0  0
  183.2090  177.7130  136.5810 N   0  0  0  0  0  2  0  0  0  0  0  0
  181.9770  177.0090  136.2050 C   0  0  1  0  0  3  0  0  0  0  0  0
  180.6750  177.8180  136.4560 C   0  0  1  0  0  3  0  0  0  0  0  0
  181.2010  177.9680  138.9400 C   0  0  0  0  0  2  0  0  0  0  0  0
  179.9020  176.5120  140.5120 C   0  0  0  0  0  2  0  0  0  0  0  0
  179.9900  175.9570  138.0560 N   0  0  0  0  0  0  0  0  0  0  0  0
  179.3770  175.6460  139.3560 C   0  0  0  0  0  2  0  0  0  0  0  0
  181.2700  177.0920  140.1930 C   0  0  0  0  0  2  0  0  0  0  0  0
  180.2260  177.4090  137.8910 C   0  0  2  0  0  3  0  0  0  0  0  0
  179.1000  175.5450  137.1130 O   0  0  0  0  0  1  0  0  0  0  0  0
  181.1770  179.6170  134.8840 C   0  0  0  0  0  1  0  0  0  0  0  0
  180.8640  179.2880  136.2730 N   0  0  0  0  0  0  0  0  0  0  0  0
  179.7170  180.1290  136.6960 C   0  0  0  0  0  2  0  0  0  0  0  0
  180.0420  181.4510  137.3770 C   0  0  0  0  0  0  0  0  0  0  0  0
  178.9330  182.4380  137.5450 C   0  0  0  0  0  1  0  0  0  0  0  0
  181.2240  181.7210  137.9240 C   0  0  0  0  0  2  0  0  0  0  0  0
  182.0440  176.4600  134.7770 C   0  0  0  0  0  2  0  0  0  0  0  0
  181.1470  175.2460  134.5940 C   0  0  0  0  0  2  0  0  0  0  0  0
  181.8610  174.0330  135.1450 C   0  0  0  0  0  2  0  0  0  0  0  0
  180.9820  172.7870  135.0560 C   0  0  0  0  0  2  0  0  0  0  0  0
  181.0130  170.4770  135.6800 O   0  0  0  0  0  1  0  0  0  0  0  0
  181.3520  171.7640  136.1280 C   0  0  1  0  0  0  0  0  0  0  0  0
  182.8530  171.8260  136.3170 C   0  0  0  0  0  1  0  0  0  0  0  0
  180.6620  172.0880  137.3870 N   0  0  0  0  0  2  0  0  0  0  0  0
  179.2290  171.8510  137.2630 C   0  0  0  0  0  1  0  0  0  0  0  0
  1  5  1  0  0  0  0
  2  7  1  1  0  0  0
  2  3  1  0  0  0  0
  3 30  1  6  0  0  0
  3  5  1  0  0  0  0
  4  1  1  0  0  0  0
  6  2  1  0  0  0  0
  6  4  1  0  0  0  0
  7  8  1  0  0  0  0
  8  9  1  0  0  0  0
  9 10  1  0  0  0  0
 10 12  1  1  0  0  0
 10 11  1  0  0  0  0
 11 14  1  0  0  0  0
 14 13  2  0  0  0  0
 15 14  2  0  0  0  0
 17 14  1  6  0  0  0
 17 20  1  0  0  0  0
 18 22  1  0  0  0  0
 19 20  2  0  0  0  0
 20 24  1  0  0  0  0
 21 23  1  0  0  0  0
 23 27  1  1  0  0  0
 23 16  1  0  0  0  0
 24 16  1  0  0  0  0
 24 18  1  0  0  0  0
 24 22  1  0  0  0  0
 26 25  1  1  0  0  0
 26 17  1  0  0  0  0
 26 21  1  0  0  0  0
 27 29  2  0  0  0  0
 28 27  1  0  0  0  0
 30 31  1  0  0  0  0
 32 47  1  6  0  0  0
 32 33  1  0  0  0  0
 32 31  1  0  0  0  0
 33 42  1  1  0  0  0
 34 38  1  0  0  0  0
 36 37  1  0  0  0  0
 37 35  1  0  0  0  0
 38 35  1  0  0  0  0
 39 33  1  6  0  0  0
 39 36  1  0  0  0  0
 39 34  1  0  0  0  0
 40 36  1  0  0  0  0
 41 42  1  0  0  0  0
 42 43  1  0  0  0  0
 43 44  1  0  0  0  0
 44 45  1  0  0  0  0
 44 46  2  0  0  0  0
 48 47  1  0  0  0  0
 48 49  1  0  0  0  0
 50 49  1  0  0  0  0
 50 52  1  0  0  0  0
 51 52  1  0  0  0  0
 52 53  1  1  0  0  0
 52 54  1  0  0  0  0
 55 54  1  0  0  0  0
M  END
>  <MODEL>
3

>  <REMARK>
 VINA RESULT:      -4.5      4.064      7.374
  Name = 
  21 active torsions:
  status: ('A' for Active; 'I' for Inactive)
    1  A    between atoms: C_1  and  C_29
    2  A    between atoms: C_2  and  N_28
    3  A    between atoms: C_2  and  C_31
    4  A    between atoms: C_4  and  C_40
    5  A    between atoms: C_6  and  S_20
    6  A    between atoms: C_8  and  C_35
    7  A    between atoms: N_10  and  C_39
    8  A    between atoms: C_13  and  C_48
    9  A    between atoms: C_13  and  C_52
   10  A    between atoms: S_20  and  S_22
   11  A    between atoms: C_26  and  C_49
   12  A    between atoms: C_27  and  C_54
   13  A    between atoms: N_28  and  C_33
   14  A    between atoms: C_33  and  C_34
   15  A    between atoms: C_33  and  C_49
   16  A    between atoms: C_34  and  C_52
   17  A    between atoms: C_35  and  O_51
   18  A    between atoms: C_39  and  C_48
   19  A    between atoms: C_40  and  N_45
   20  A    between atoms: N_45  and  C_49
   21  A    between atoms: O_51  and  C_54
                            x       y       z     vdW  Elec       q    Type
                         _______ _______ _______ _____ _____    ______ ____

>  <TORSDO>
F 21

$$$$
=
 OpenBabel10262420413D

 55 59  0  0  1  0  0  0  0  0999 V2000
  190.5720  177.5720  144.1270 C   0  0  0  0  0  2  0  0  0  0  0  0
  190.8090  176.9320  141.2540 C   0  0  2  0  0  3  0  0  0  0  0  0
  189.9080  178.0780  141.7310 C   0  0  2  0  0  3  0  0  0  0  0  0
  191.5630  176.5270  143.6390 C   0  0  0  0  0  2  0  0  0  0  0  0
  190.4010  178.6570  143.0670 C   0  0  0  0  0  2  0  0  0  0  0  0
  191.0400  175.8830  142.3570 C   0  0  0  0  0  2  0  0  0  0  0  0
  192.1180  177.4720  140.6730 C   0  0  0  0  0  2  0  0  0  0  0  0
  192.5990  176.6270  139.6640 O   0  0  0  0  0  0  0  0  0  0  0  0
  191.8970  176.9780  138.5090 C   0  0  0  0  0  2  0  0  0  0  0  0
  192.0350  175.8950  137.4820 C   0  0  2  0  0  3  0  0  0  0  0  0
  191.1480  175.9610  136.1390 S   0  0  0  0  0  0  0  0  0  0  0  0
  192.9900  174.7620  137.7090 C   0  0  0  0  0  1  0  0  0  0  0  0
  190.2940  173.3330  135.1330 O   0  0  0  0  0  0  0  0  0  0  0  0
  189.8930  174.2920  136.2150 S   0  0  0  0  0  0  0  0  0  0  0  0
  190.0920  173.6300  137.5530 O   0  0  0  0  0  0  0  0  0  0  0  0
  185.2930  176.3510  136.4360 C   0  0  0  0  0  2  0  0  0  0  0  0
  188.1820  174.8240  136.0000 C   0  0  2  0  0  3  0  0  0  0  0  0
  186.9700  177.7460  135.0990 C   0  0  0  0  0  2  0  0  0  0  0  0
  188.5420  176.4440  137.7270 O   0  0  0  0  0  0  0  0  0  0  0  0
  187.8570  176.0790  136.7820 C   0  0  0  0  0  0  0  0  0  0  0  0
  185.9160  174.0640  136.8150 O   0  0  0  0  0  0  0  0  0  0  0  0
  186.8420  178.4230  136.4600 C   0  0  0  0  0  2  0  0  0  0  0  0
  185.3080  174.9310  135.8840 C   0  0  1  0  0  3  0  0  0  0  0  0
  186.6960  176.9230  136.3410 C   0  0  0  0  0  0  0  0  0  0  0  0
  187.1300  172.5550  135.3240 C   0  0  0  0  0  1  0  0  0  0  0  0
  187.1980  173.6810  136.3520 C   0  0  1  0  0  3  0  0  0  0  0  0
  183.9380  174.4700  135.5110 C   0  0  0  0  0  0  0  0  0  0  0  0
  183.5090  173.1580  135.8640 N   0  0  0  0  0  1  0  0  0  0  0  0
  183.1070  175.2680  134.9950 O   0  0  0  0  0  0  0  0  0  0  0  0
  188.4640  177.5910  141.8150 C   0  0  0  0  0  2  0  0  0  0  0  0
  187.5460  178.7060  142.0330 N   0  0  0  0  0  2  0  0  0  0  0  0
  186.2100  178.2210  142.4020 C   0  0  1  0  0  3  0  0  0  0  0  0
  185.8080  178.5070  143.8750 C   0  0  1  0  0  3  0  0  0  0  0  0
  183.6810  178.6040  142.4850 C   0  0  2  0  0  3  0  0  0  0  0  0
  181.4830  178.6020  143.6890 C   0  0  0  0  0  2  0  0  0  0  0  0
  183.5950  179.2220  144.9140 N   0  0  0  0  0  0  0  0  0  0  0  0
  182.1600  178.9180  145.0310 C   0  0  0  0  0  2  0  0  0  0  0  0
  182.2650  179.1840  142.5230 C   0  0  0  0  0  2  0  0  0  0  0  0
  184.2560  178.3800  143.8930 C   0  0  2  0  0  3  0  0  0  0  0  0
  184.1370  178.9460  146.1310 O   0  0  0  0  0  1  0  0  0  0  0  0
  186.9630  176.3820  144.2080 C   0  0  0  0  0  1  0  0  0  0  0  0
  186.5050  177.6130  144.8470 N   0  0  0  0  0  0  0  0  0  0  0  0
  187.6620  178.2240  145.5480 C   0  0  0  0  0  2  0  0  0  0  0  0
  187.8820  177.8230  146.9990 C   0  0  0  0  0  0  0  0  0  0  0  0
  189.0340  176.9210  147.3050 C   0  0  0  0  0  1  0  0  0  0  0  0
  187.1770  178.3210  148.0110 C   0  0  0  0  0  2  0  0  0  0  0  0
  185.1380  178.6890  141.4140 C   0  0  2  0  0  3  0  0  0  0  0  0
  185.6800  178.7890  139.9950 C   0  0  0  0  0  2  0  0  0  0  0  0
  184.5110  178.8960  139.0410 C   0  0  0  0  0  2  0  0  0  0  0  0
  183.5210  177.7520  139.2520 C   0  0  0  0  0  2  0  0  0  0  0  0
  181.1590  177.5510  139.5770 O   0  0  0  0  0  1  0  0  0  0  0  0
  182.1310  178.1130  138.7340 C   0  0  1  0  0  0  0  0  0  0  0  0
  182.0030  179.6210  138.7910 C   0  0  0  0  0  1  0  0  0  0  0  0
  181.9750  177.6370  137.3510 N   0  0  0  0  0  2  0  0  0  0  0  0
  181.4230  178.6880  136.5040 C   0  0  0  0  0  1  0  0  0  0  0  0
  2  7  1  1  0  0  0
  2  3  1  0  0  0  0
  2  6  1  0  0  0  0
  3 30  1  1  0  0  0
  3  5  1  0  0  0  0
  4  1  1  0  0  0  0
  5  1  1  0  0  0  0
  6  4  1  0  0  0  0
  8  7  1  0  0  0  0
  9  8  1  0  0  0  0
 10 12  1  1  0  0  0
 10  9  1  0  0  0  0
 11 14  1  0  0  0  0
 11 10  1  0  0  0  0
 13 14  2  0  0  0  0
 14 15  2  0  0  0  0
 17 14  1  1  0  0  0
 17 26  1  0  0  0  0
 17 20  1  0  0  0  0
 18 24  1  0  0  0  0
 18 22  1  0  0  0  0
 20 19  2  0  0  0  0
 23 27  1  1  0  0  0
 23 16  1  0  0  0  0
 23 21  1  0  0  0  0
 24 16  1  0  0  0  0
 24 22  1  0  0  0  0
 24 20  1  0  0  0  0
 26 25  1  6  0  0  0
 26 21  1  0  0  0  0
 27 28  1  0  0  0  0
 29 27  2  0  0  0  0
 30 31  1  0  0  0  0
 32 31  1  6  0  0  0
 32 33  1  0  0  0  0
 33 39  1  0  0  0  0
 33 42  1  1  0  0  0
 34 38  1  1  0  0  0
 34 39  1  0  0  0  0
 35 37  1  0  0  0  0
 36 37  1  0  0  0  0
 36 40  1  0  0  0  0
 38 35  1  0  0  0  0
 39 36  1  1  0  0  0
 41 42  1  0  0  0  0
 42 43  1  0  0  0  0
 43 44  1  0  0  0  0
 44 45  1  0  0  0  0
 44 46  2  0  0  0  0
 47 48  1  6  0  0  0
 47 32  1  0  0  0  0
 47 34  1  0  0  0  0
 49 50  1  0  0  0  0
 49 48  1  0  0  0  0
 52 53  1  1  0  0  0
 52 50  1  0  0  0  0
 52 51  1  0  0  0  0
 54 52  1  0  0  0  0
 55 54  1  0  0  0  0
M  END
>  <MODEL>
4

>  <REMARK>
 VINA RESULT:      -4.2      2.724      6.767
  Name = 
  21 active torsions:
  status: ('A' for Active; 'I' for Inactive)
    1  A    between atoms: C_1  and  C_29
    2  A    between atoms: C_2  and  N_28
    3  A    between atoms: C_2  and  C_31
    4  A    between atoms: C_4  and  C_40
    5  A    between atoms: C_6  and  S_20
    6  A    between atoms: C_8  and  C_35
    7  A    between atoms: N_10  and  C_39
    8  A    between atoms: C_13  and  C_48
    9  A    between atoms: C_13  and  C_52
   10  A    between atoms: S_20  and  S_22
   11  A    between atoms: C_26  and  C_49
   12  A    between atoms: C_27  and  C_54
   13  A    between atoms: N_28  and  C_33
   14  A    between atoms: C_33  and  C_34
   15  A    between atoms: C_33  and  C_49
   16  A    between atoms: C_34  and  C_52
   17  A    between atoms: C_35  and  O_51
   18  A    between atoms: C_39  and  C_48
   19  A    between atoms: C_40  and  N_45
   20  A    between atoms: N_45  and  C_49
   21  A    between atoms: O_51  and  C_54
                            x       y       z     vdW  Elec       q    Type
                         _______ _______ _______ _____ _____    ______ ____

>  <TORSDO>
F 21

$$$$
=
 OpenBabel10262420413D

 55 58  0  0  1  0  0  0  0  0999 V2000
  186.9120  178.0150  144.4650 C   0  0  0  0  0  2  0  0  0  0  0  0
  185.0080  178.9200  142.3980 C   0  0  2  0  0  3  0  0  0  0  0  0
  186.1810  178.0010  142.0360 C   0  0  2  0  0  3  0  0  0  0  0  0
  185.6740  178.8150  144.8410 C   0  0  0  0  0  2  0  0  0  0  0  0
  186.6180  177.1530  143.2410 C   0  0  0  0  0  2  0  0  0  0  0  0
  185.2820  179.7270  143.6800 C   0  0  0  0  0  2  0  0  0  0  0  0
  183.6980  178.1320  142.4690 C   0  0  0  0  0  2  0  0  0  0  0  0
  183.1370  177.9850  141.1930 O   0  0  0  0  0  0  0  0  0  0  0  0
  182.7740  179.2710  140.7870 C   0  0  0  0  0  2  0  0  0  0  0  0
  182.9200  179.3940  139.3010 C   0  0  2  0  0  3  0  0  0  0  0  0
  181.8440  180.2580  138.4700 S   0  0  0  0  0  0  0  0  0  0  0  0
  184.0580  178.7170  138.5990 C   0  0  0  0  0  1  0  0  0  0  0  0
  179.5160  179.4210  136.8790 O   0  0  0  0  0  0  0  0  0  0  0  0
  180.8800  178.8940  137.2150 S   0  0  0  0  0  0  0  0  0  0  0  0
  181.6890  178.7870  135.9480 O   0  0  0  0  0  0  0  0  0  0  0  0
  180.3880  174.0720  138.6110 C   0  0  0  0  0  2  0  0  0  0  0  0
  180.7650  177.2970  138.0490 C   0  0  2  0  0  3  0  0  0  0  0  0
  182.7750  174.6970  137.9370 C   0  0  0  0  0  2  0  0  0  0  0  0
  180.6600  176.2560  135.8950 O   0  0  0  0  0  0  0  0  0  0  0  0
  180.8680  176.1280  137.0930 C   0  0  0  0  0  0  0  0  0  0  0  0
  178.9320  175.9150  139.1030 O   0  0  0  0  0  0  0  0  0  0  0  0
  182.1820  173.9410  136.7520 C   0  0  0  0  0  2  0  0  0  0  0  0
  179.9130  175.0700  139.6600 C   0  0  1  0  0  3  0  0  0  0  0  0
  181.2950  174.7940  137.6310 C   0  0  0  0  0  0  0  0  0  0  0  0
  179.4840  178.0410  140.1760 C   0  0  0  0  0  1  0  0  0  0  0  0
  179.4710  177.2090  138.8970 C   0  0  1  0  0  3  0  0  0  0  0  0
  179.4170  174.3840  140.8900 C   0  0  0  0  0  0  0  0  0  0  0  0
  179.5560  172.9720  141.0210 N   0  0  0  0  0  1  0  0  0  0  0  0
  178.9860  175.0510  141.8710 O   0  0  0  0  0  0  0  0  0  0  0  0
  187.3300  178.8350  141.4760 C   0  0  0  0  0  2  0  0  0  0  0  0
  187.4090  178.7110  140.0220 N   0  0  0  0  0  2  0  0  0  0  0  0
  188.4920  177.8000  139.6320 C   0  0  1  0  0  3  0  0  0  0  0  0
  188.9680  177.9620  138.1620 C   0  0  1  0  0  3  0  0  0  0  0  0
  190.9640  177.0380  136.8870 C   0  0  0  0  0  2  0  0  0  0  0  0
  191.3390  174.5610  136.9150 C   0  0  0  0  0  2  0  0  0  0  0  0
  189.0780  175.5040  137.5030 N   0  0  0  0  0  0  0  0  0  0  0  0
  189.9250  174.3020  137.4580 C   0  0  0  0  0  2  0  0  0  0  0  0
  191.3840  175.8180  136.0630 C   0  0  0  0  0  2  0  0  0  0  0  0
  189.8490  176.7060  137.8910 C   0  0  2  0  0  3  0  0  0  0  0  0
  188.1330  175.2610  138.4520 O   0  0  0  0  0  1  0  0  0  0  0  0
  187.7800  179.4910  136.6750 C   0  0  0  0  0  1  0  0  0  0  0  0
  187.8340  178.1310  137.2040 N   0  0  0  0  0  0  0  0  0  0  0  0
  187.8350  177.1910  136.0560 C   0  0  0  0  0  2  0  0  0  0  0  0
  186.4800  176.7220  135.5450 C   0  0  0  0  0  0  0  0  0  0  0  0
  186.0430  175.3390  135.9020 C   0  0  0  0  0  1  0  0  0  0  0  0
  185.6280  177.5130  134.8990 C   0  0  0  0  0  2  0  0  0  0  0  0
  189.6600  177.8420  140.6210 C   0  0  0  0  0  2  0  0  0  0  0  0
  189.9840  176.4630  141.1750 C   0  0  0  0  0  2  0  0  0  0  0  0
  190.8450  176.6300  142.4060 C   0  0  0  0  0  2  0  0  0  0  0  0
  190.0920  176.2080  143.6670 C   0  0  0  0  0  2  0  0  0  0  0  0
  191.9670  176.3850  145.1430 O   0  0  0  0  0  1  0  0  0  0  0  0
  190.6710  176.8740  144.9120 C   0  0  1  0  0  0  0  0  0  0  0  0
  190.7620  178.3600  144.6340 C   0  0  0  0  0  1  0  0  0  0  0  0
  189.7940  176.6220  146.0670 N   0  0  0  0  0  2  0  0  0  0  0  0
  189.4060  177.8750  146.7020 C   0  0  0  0  0  1  0  0  0  0  0  0
  1  4  1  0  0  0  0
  2  7  1  1  0  0  0
  2  6  1  0  0  0  0
  3 30  1  1  0  0  0
  3  2  1  0  0  0  0
  3  5  1  0  0  0  0
  5  1  1  0  0  0  0
  6  4  1  0  0  0  0
  8  7  1  0  0  0  0
  9  8  1  0  0  0  0
 10 12  1  6  0  0  0
 10  9  1  0  0  0  0
 11 10  1  0  0  0  0
 13 14  2  0  0  0  0
 14 11  1  0  0  0  0
 15 14  2  0  0  0  0
 16 23  1  0  0  0  0
 17 14  1  6  0  0  0
 17 26  1  0  0  0  0
 19 20  2  0  0  0  0
 20 24  1  0  0  0  0
 20 17  1  0  0  0  0
 21 23  1  0  0  0  0
 22 24  1  0  0  0  0
 22 18  1  0  0  0  0
 23 27  1  1  0  0  0
 24 18  1  0  0  0  0
 24 16  1  0  0  0  0
 26 21  1  0  0  0  0
 26 25  1  1  0  0  0
 27 28  1  0  0  0  0
 27 29  2  0  0  0  0
 31 30  1  0  0  0  0
 32 31  1  0  0  0  0
 32 47  1  1  0  0  0
 33 42  1  6  0  0  0
 33 32  1  0  0  0  0
 34 39  1  0  0  0  0
 35 37  1  0  0  0  0
 36 39  1  0  0  0  0
 36 40  1  0  0  0  0
 37 36  1  0  0  0  0
 38 34  1  0  0  0  0
 38 35  1  0  0  0  0
 39 33  1  6  0  0  0
 41 42  1  0  0  0  0
 43 42  1  0  0  0  0
 44 45  1  0  0  0  0
 44 43  1  0  0  0  0
 46 44  2  0  0  0  0
 47 48  1  0  0  0  0
 48 49  1  0  0  0  0
 49 50  1  0  0  0  0
 50 52  1  0  0  0  0
 52 53  1  6  0  0  0
 52 51  1  0  0  0  0
 52 54  1  0  0  0  0
 54 55  1  0  0  0  0
M  END
>  <MODEL>
5

>  <REMARK>
 VINA RESULT:      -4.2      3.819     10.018
  Name = 
  21 active torsions:
  status: ('A' for Active; 'I' for Inactive)
    1  A    between atoms: C_1  and  C_29
    2  A    between atoms: C_2  and  N_28
    3  A    between atoms: C_2  and  C_31
    4  A    between atoms: C_4  and  C_40
    5  A    between atoms: C_6  and  S_20
    6  A    between atoms: C_8  and  C_35
    7  A    between atoms: N_10  and  C_39
    8  A    between atoms: C_13  and  C_48
    9  A    between atoms: C_13  and  C_52
   10  A    between atoms: S_20  and  S_22
   11  A    between atoms: C_26  and  C_49
   12  A    between atoms: C_27  and  C_54
   13  A    between atoms: N_28  and  C_33
   14  A    between atoms: C_33  and  C_34
   15  A    between atoms: C_33  and  C_49
   16  A    between atoms: C_34  and  C_52
   17  A    between atoms: C_35  and  O_51
   18  A    between atoms: C_39  and  C_48
   19  A    between atoms: C_40  and  N_45
   20  A    between atoms: N_45  and  C_49
   21  A    between atoms: O_51  and  C_54
                            x       y       z     vdW  Elec       q    Type
                         _______ _______ _______ _____ _____    ______ ____

>  <TORSDO>
F 21

$$$$
=
 OpenBabel10262420413D

 55 58  0  0  1  0  0  0  0  0999 V2000
  185.2120  178.4090  140.0160 C   0  0  0  0  0  2  0  0  0  0  0  0
  182.2920  178.6720  140.3710 C   0  0  2  0  0  3  0  0  0  0  0  0
  182.9420  177.2930  140.2050 C   0  0  2  0  0  3  0  0  0  0  0  0
  184.5800  179.7600  140.3130 C   0  0  0  0  0  2  0  0  0  0  0  0
  184.4030  177.3020  140.6850 C   0  0  0  0  0  2  0  0  0  0  0  0
  183.1550  179.7920  139.7630 C   0  0  0  0  0  2  0  0  0  0  0  0
  181.9340  178.9350  141.8350 C   0  0  0  0  0  2  0  0  0  0  0  0
  182.6820  178.1100  142.6850 O   0  0  0  0  0  0  0  0  0  0  0  0
  182.8170  178.8200  143.8810 C   0  0  0  0  0  2  0  0  0  0  0  0
  184.2480  179.2230  144.0730 C   0  0  2  0  0  3  0  0  0  0  0  0
  185.3740  178.0840  144.2380 S   0  0  0  0  0  0  0  0  0  0  0  0
  184.6200  180.6750  144.1120 C   0  0  0  0  0  1  0  0  0  0  0  0
  185.9050  179.7410  146.6090 O   0  0  0  0  0  0  0  0  0  0  0  0
  186.1360  178.3250  146.1690 S   0  0  0  0  0  0  0  0  0  0  0  0
  185.3730  177.4000  147.0810 O   0  0  0  0  0  0  0  0  0  0  0  0
  190.8100  176.5890  145.4090 C   0  0  0  0  0  2  0  0  0  0  0  0
  187.8970  177.9320  146.1670 C   0  0  2  0  0  3  0  0  0  0  0  0
  190.2100  178.5810  143.9210 C   0  0  0  0  0  2  0  0  0  0  0  0
  187.5320  176.6250  144.1930 O   0  0  0  0  0  0  0  0  0  0  0  0
  188.3330  177.2060  144.9120 C   0  0  0  0  0  0  0  0  0  0  0  0
  189.3970  176.2590  147.3210 O   0  0  0  0  0  0  0  0  0  0  0  0
  190.0950  177.3410  143.0400 C   0  0  0  0  0  2  0  0  0  0  0  0
  190.5210  176.9710  146.8550 C   0  0  1  0  0  3  0  0  0  0  0  0
  189.7800  177.2560  144.5160 C   0  0  0  0  0  0  0  0  0  0  0  0
  188.3220  177.9490  148.7230 C   0  0  0  0  0  1  0  0  0  0  0  0
  188.2870  177.1310  147.4350 C   0  0  1  0  0  3  0  0  0  0  0  0
  191.7120  176.7580  147.7310 C   0  0  0  0  0  0  0  0  0  0  0  0
  192.0130  177.6940  148.7620 N   0  0  0  0  0  1  0  0  0  0  0  0
  192.3880  175.6950  147.6510 O   0  0  0  0  0  0  0  0  0  0  0  0
  182.8180  176.8410  138.7530 C   0  0  0  0  0  2  0  0  0  0  0  0
  182.8000  175.3830  138.6560 N   0  0  0  0  0  2  0  0  0  0  0  0
  182.6950  174.9520  137.2560 C   0  0  1  0  0  3  0  0  0  0  0  0
  181.2700  174.5060  136.8280 C   0  0  1  0  0  3  0  0  0  0  0  0
  182.8050  172.4820  136.9470 C   0  0  0  0  0  2  0  0  0  0  0  0
  181.9390  170.2910  136.0940 C   0  0  0  0  0  2  0  0  0  0  0  0
  180.8360  172.4460  135.3940 N   0  0  0  0  0  0  0  0  0  0  0  0
  180.7630  170.9760  135.3800 C   0  0  0  0  0  2  0  0  0  0  0  0
  183.1490  171.2070  136.1730 C   0  0  0  0  0  2  0  0  0  0  0  0
  181.3690  172.9590  136.6750 C   0  0  2  0  0  3  0  0  0  0  0  0
  179.5580  172.8860  135.2400 O   0  0  0  0  0  1  0  0  0  0  0  0
  179.0190  175.4190  137.0760 C   0  0  0  0  0  1  0  0  0  0  0  0
  180.2130  174.9590  137.7810 N   0  0  0  0  0  0  0  0  0  0  0  0
  179.7930  173.9480  138.7830 C   0  0  0  0  0  2  0  0  0  0  0  0
  179.5950  174.4300  140.2130 C   0  0  0  0  0  0  0  0  0  0  0  0
  179.4170  173.3980  141.2770 C   0  0  0  0  0  1  0  0  0  0  0  0
  179.6860  175.7080  140.5730 C   0  0  0  0  0  2  0  0  0  0  0  0
  183.2860  175.9850  136.2930 C   0  0  0  0  0  2  0  0  0  0  0  0
  183.6720  175.3620  134.9600 C   0  0  0  0  0  2  0  0  0  0  0  0
  185.1670  175.1380  134.9490 C   0  0  0  0  0  2  0  0  0  0  0  0
  185.9150  176.4240  134.6020 C   0  0  0  0  0  2  0  0  0  0  0  0
  187.9670  177.5540  135.0900 O   0  0  0  0  0  1  0  0  0  0  0  0
  186.9530  176.7700  135.6660 C   0  0  1  0  0  0  0  0  0  0  0  0
  186.2570  177.5920  136.7300 C   0  0  0  0  0  1  0  0  0  0  0  0
  187.5030  175.5350  136.2480 N   0  0  0  0  0  2  0  0  0  0  0  0
  188.9520  175.4950  136.0950 C   0  0  0  0  0  1  0  0  0  0  0  0
  1  4  1  0  0  0  0
  1  5  1  0  0  0  0
  2  7  1  1  0  0  0
  3 30  1  6  0  0  0
  3  2  1  0  0  0  0
  3  5  1  0  0  0  0
  6  4  1  0  0  0  0
  6  2  1  0  0  0  0
  7  8  1  0  0  0  0
  8  9  1  0  0  0  0
  9 10  1  0  0  0  0
 10 12  1  1  0  0  0
 10 11  1  0  0  0  0
 11 14  1  0  0  0  0
 14 13  2  0  0  0  0
 14 15  2  0  0  0  0
 16 23  1  0  0  0  0
 17 14  1  6  0  0  0
 17 26  1  0  0  0  0
 18 24  1  0  0  0  0
 19 20  2  0  0  0  0
 20 17  1  0  0  0  0
 21 26  1  0  0  0  0
 22 18  1  0  0  0  0
 22 24  1  0  0  0  0
 23 21  1  0  0  0  0
 23 27  1  1  0  0  0
 24 20  1  0  0  0  0
 24 16  1  0  0  0  0
 26 25  1  1  0  0  0
 27 28  1  0  0  0  0
 29 27  2  0  0  0  0
 31 30  1  0  0  0  0
 32 47  1  6  0  0  0
 32 31  1  0  0  0  0
 33 32  1  0  0  0  0
 33 42  1  1  0  0  0
 35 38  1  0  0  0  0
 36 39  1  0  0  0  0
 37 36  1  0  0  0  0
 37 35  1  0  0  0  0
 38 34  1  0  0  0  0
 39 33  1  6  0  0  0
 39 34  1  0  0  0  0
 40 36  1  0  0  0  0
 41 42  1  0  0  0  0
 42 43  1  0  0  0  0
 43 44  1  0  0  0  0
 44 46  2  0  0  0  0
 44 45  1  0  0  0  0
 48 47  1  0  0  0  0
 49 48  1  0  0  0  0
 50 49  1  0  0  0  0
 50 52  1  0  0  0  0
 51 52  1  0  0  0  0
 52 54  1  0  0  0  0
 52 53  1  1  0  0  0
 55 54  1  0  0  0  0
M  END
>  <MODEL>
6

>  <REMARK>
 VINA RESULT:      -4.1      4.421      7.911
  Name = 
  21 active torsions:
  status: ('A' for Active; 'I' for Inactive)
    1  A    between atoms: C_1  and  C_29
    2  A    between atoms: C_2  and  N_28
    3  A    between atoms: C_2  and  C_31
    4  A    between atoms: C_4  and  C_40
    5  A    between atoms: C_6  and  S_20
    6  A    between atoms: C_8  and  C_35
    7  A    between atoms: N_10  and  C_39
    8  A    between atoms: C_13  and  C_48
    9  A    between atoms: C_13  and  C_52
   10  A    between atoms: S_20  and  S_22
   11  A    between atoms: C_26  and  C_49
   12  A    between atoms: C_27  and  C_54
   13  A    between atoms: N_28  and  C_33
   14  A    between atoms: C_33  and  C_34
   15  A    between atoms: C_33  and  C_49
   16  A    between atoms: C_34  and  C_52
   17  A    between atoms: C_35  and  O_51
   18  A    between atoms: C_39  and  C_48
   19  A    between atoms: C_40  and  N_45
   20  A    between atoms: N_45  and  C_49
   21  A    between atoms: O_51  and  C_54
                            x       y       z     vdW  Elec       q    Type
                         _______ _______ _______ _____ _____    ______ ____

>  <TORSDO>
F 21

$$$$
=
 OpenBabel10262420413D

 55 58  0  0  1  0  0  0  0  0999 V2000
  184.5480  179.1030  138.3430 C   0  0  0  0  0  2  0  0  0  0  0  0
  182.1350  178.1140  139.7300 C   0  0  2  0  0  3  0  0  0  0  0  0
  183.0830  177.1430  139.0150 C   0  0  2  0  0  3  0  0  0  0  0  0
  183.6790  180.0430  139.1640 C   0  0  0  0  0  2  0  0  0  0  0  0
  184.5130  177.7040  138.9510 C   0  0  0  0  0  2  0  0  0  0  0  0
  182.2360  179.5410  139.1610 C   0  0  0  0  0  2  0  0  0  0  0  0
  182.3470  178.0690  141.2440 C   0  0  0  0  0  2  0  0  0  0  0  0
  183.3480  178.9680  141.6330 O   0  0  0  0  0  0  0  0  0  0  0  0
  184.1620  178.2680  142.5270 C   0  0  0  0  0  2  0  0  0  0  0  0
  184.3070  179.0480  143.7990 C   0  0  2  0  0  3  0  0  0  0  0  0
  185.7660  179.5640  144.2480 S   0  0  0  0  0  0  0  0  0  0  0  0
  183.1030  179.3410  144.6420 C   0  0  0  0  0  1  0  0  0  0  0  0
  185.8430  179.4670  147.1870 O   0  0  0  0  0  0  0  0  0  0  0  0
  186.1860  178.5670  146.0360 S   0  0  0  0  0  0  0  0  0  0  0  0
  185.3090  177.3430  146.0950 O   0  0  0  0  0  0  0  0  0  0  0  0
  190.8330  176.7420  145.3190 C   0  0  0  0  0  2  0  0  0  0  0  0
  187.9340  178.1170  146.0690 C   0  0  2  0  0  3  0  0  0  0  0  0
  190.3520  178.8600  143.9680 C   0  0  0  0  0  2  0  0  0  0  0  0
  187.6090  176.9770  143.9880 O   0  0  0  0  0  0  0  0  0  0  0  0
  188.3970  177.4750  144.7790 C   0  0  0  0  0  0  0  0  0  0  0  0
  189.3360  176.3140  147.1460 O   0  0  0  0  0  0  0  0  0  0  0  0
  190.2350  177.6940  142.9900 C   0  0  0  0  0  2  0  0  0  0  0  0
  190.4980  177.0230  146.7790 C   0  0  1  0  0  3  0  0  0  0  0  0
  189.8600  177.5080  144.4430 C   0  0  0  0  0  0  0  0  0  0  0  0
  188.2570  177.9270  148.6330 C   0  0  0  0  0  1  0  0  0  0  0  0
  188.2490  177.2110  147.2850 C   0  0  1  0  0  3  0  0  0  0  0  0
  191.6470  176.7050  147.6800 C   0  0  0  0  0  0  0  0  0  0  0  0
  192.5400  175.6470  147.3450 N   0  0  0  0  0  1  0  0  0  0  0  0
  191.9090  177.4380  148.6720 O   0  0  0  0  0  0  0  0  0  0  0  0
  182.5330  176.8190  137.6290 C   0  0  0  0  0  2  0  0  0  0  0  0
  182.4720  175.3760  137.4120 N   0  0  0  0  0  2  0  0  0  0  0  0
  183.1340  175.0070  136.1540 C   0  0  1  0  0  3  0  0  0  0  0  0
  182.3150  174.0360  135.2590 C   0  0  1  0  0  3  0  0  0  0  0  0
  184.3000  172.5570  135.8410 C   0  0  0  0  0  2  0  0  0  0  0  0
  183.9050  170.0960  136.0910 C   0  0  0  0  0  2  0  0  0  0  0  0
  182.2410  171.5230  134.8500 N   0  0  0  0  0  0  0  0  0  0  0  0
  182.5270  170.1970  135.4190 C   0  0  0  0  0  2  0  0  0  0  0  0
  184.8580  171.1580  135.5670 C   0  0  0  0  0  2  0  0  0  0  0  0
  182.7710  172.6130  135.6990 C   0  0  2  0  0  3  0  0  0  0  0  0
  180.8860  171.6240  134.7960 O   0  0  0  0  0  1  0  0  0  0  0  0
  180.3900  174.2320  136.7490 C   0  0  0  0  0  1  0  0  0  0  0  0
  180.8420  174.2640  135.3600 N   0  0  0  0  0  0  0  0  0  0  0  0
  180.3560  175.5240  134.7470 C   0  0  0  0  0  2  0  0  0  0  0  0
  179.6030  176.4890  135.6520 C   0  0  0  0  0  0  0  0  0  0  0  0
  179.5140  177.9180  135.2270 C   0  0  0  0  0  1  0  0  0  0  0  0
  178.9310  176.1040  136.7340 C   0  0  0  0  0  2  0  0  0  0  0  0
  183.6140  176.2360  135.3780 C   0  0  0  0  0  2  0  0  0  0  0  0
  184.8870  175.9500  134.5940 C   0  0  0  0  0  2  0  0  0  0  0  0
  186.0530  175.9490  135.5570 C   0  0  0  0  0  2  0  0  0  0  0  0
  186.4330  177.3710  135.9640 C   0  0  0  0  0  2  0  0  0  0  0  0
  188.6960  177.5430  135.2040 O   0  0  0  0  0  1  0  0  0  0  0  0
  187.9040  177.4640  136.3620 C   0  0  1  0  0  0  0  0  0  0  0  0
  188.0820  178.7420  137.1530 C   0  0  0  0  0  1  0  0  0  0  0  0
  188.2750  176.2980  137.1800 N   0  0  0  0  0  2  0  0  0  0  0  0
  188.7990  176.7230  138.4730 C   0  0  0  0  0  1  0  0  0  0  0  0
  1  5  1  0  0  0  0
  1  4  1  0  0  0  0
  2  7  1  1  0  0  0
  3 30  1  6  0  0  0
  3  2  1  0  0  0  0
  5  3  1  0  0  0  0
  6  4  1  0  0  0  0
  6  2  1  0  0  0  0
  7  8  1  0  0  0  0
  8  9  1  0  0  0  0
  9 10  1  0  0  0  0
 10 11  1  0  0  0  0
 10 12  1  1  0  0  0
 11 14  1  0  0  0  0
 14 15  2  0  0  0  0
 14 13  2  0  0  0  0
 16 23  1  0  0  0  0
 17 14  1  6  0  0  0
 17 26  1  0  0  0  0
 18 24  1  0  0  0  0
 19 20  2  0  0  0  0
 20 17  1  0  0  0  0
 21 26  1  0  0  0  0
 22 18  1  0  0  0  0
 22 24  1  0  0  0  0
 23 21  1  0  0  0  0
 23 27  1  1  0  0  0
 24 20  1  0  0  0  0
 24 16  1  0  0  0  0
 26 25  1  1  0  0  0
 27 29  2  0  0  0  0
 28 27  1  0  0  0  0
 31 30  1  0  0  0  0
 32 47  1  6  0  0  0
 32 31  1  0  0  0  0
 33 42  1  1  0  0  0
 33 32  1  0  0  0  0
 36 37  1  0  0  0  0
 36 39  1  0  0  0  0
 37 35  1  0  0  0  0
 38 34  1  0  0  0  0
 38 35  1  0  0  0  0
 39 33  1  6  0  0  0
 39 34  1  0  0  0  0
 40 36  1  0  0  0  0
 42 41  1  0  0  0  0
 43 42  1  0  0  0  0
 43 44  1  0  0  0  0
 44 46  2  0  0  0  0
 45 44  1  0  0  0  0
 48 47  1  0  0  0  0
 48 49  1  0  0  0  0
 49 50  1  0  0  0  0
 50 52  1  0  0  0  0
 51 52  1  0  0  0  0
 52 53  1  1  0  0  0
 52 54  1  0  0  0  0
 54 55  1  0  0  0  0
M  END
>  <MODEL>
7

>  <REMARK>
 VINA RESULT:      -4.0      4.590      8.222
  Name = 
  21 active torsions:
  status: ('A' for Active; 'I' for Inactive)
    1  A    between atoms: C_1  and  C_29
    2  A    between atoms: C_2  and  N_28
    3  A    between atoms: C_2  and  C_31
    4  A    between atoms: C_4  and  C_40
    5  A    between atoms: C_6  and  S_20
    6  A    between atoms: C_8  and  C_35
    7  A    between atoms: N_10  and  C_39
    8  A    between atoms: C_13  and  C_48
    9  A    between atoms: C_13  and  C_52
   10  A    between atoms: S_20  and  S_22
   11  A    between atoms: C_26  and  C_49
   12  A    between atoms: C_27  and  C_54
   13  A    between atoms: N_28  and  C_33
   14  A    between atoms: C_33  and  C_34
   15  A    between atoms: C_33  and  C_49
   16  A    between atoms: C_34  and  C_52
   17  A    between atoms: C_35  and  O_51
   18  A    between atoms: C_39  and  C_48
   19  A    between atoms: C_40  and  N_45
   20  A    between atoms: N_45  and  C_49
   21  A    between atoms: O_51  and  C_54
                            x       y       z     vdW  Elec       q    Type
                         _______ _______ _______ _____ _____    ______ ____

>  <TORSDO>
F 21

$$$$
=
 OpenBabel10262420413D

 55 58  0  0  1  0  0  0  0  0999 V2000
  186.3350  175.3180  136.9790 C   0  0  0  0  0  2  0  0  0  0  0  0
  186.6720  177.8610  135.5160 C   0  0  2  0  0  3  0  0  0  0  0  0
  185.6160  177.7250  136.6200 C   0  0  2  0  0  3  0  0  0  0  0  0
  187.4670  175.5000  135.9790 C   0  0  0  0  0  2  0  0  0  0  0  0
  186.0170  176.6530  137.6470 C   0  0  0  0  0  2  0  0  0  0  0  0
  187.0450  176.4990  134.9030 C   0  0  0  0  0  2  0  0  0  0  0  0
  187.8930  178.6320  136.0210 C   0  0  0  0  0  2  0  0  0  0  0  0
  187.8030  178.8580  137.4010 O   0  0  0  0  0  0  0  0  0  0  0  0
  189.1190  178.8820  137.8690 C   0  0  0  0  0  2  0  0  0  0  0  0
  189.4560  177.5650  138.5010 C   0  0  2  0  0  3  0  0  0  0  0  0
  188.7390  177.1460  139.8820 S   0  0  0  0  0  0  0  0  0  0  0  0
  190.4530  176.6530  137.8520 C   0  0  0  0  0  1  0  0  0  0  0  0
  191.0310  175.7570  141.0940 O   0  0  0  0  0  0  0  0  0  0  0  0
  190.2730  177.0350  141.2970 S   0  0  0  0  0  0  0  0  0  0  0  0
  191.2010  178.1980  141.0590 O   0  0  0  0  0  0  0  0  0  0  0  0
  187.8500  178.0860  145.5950 C   0  0  0  0  0  2  0  0  0  0  0  0
  189.5580  177.1020  142.9540 C   0  0  2  0  0  3  0  0  0  0  0  0
  186.4370  176.7530  143.9300 C   0  0  0  0  0  2  0  0  0  0  0  0
  188.2470  178.9740  142.2370 O   0  0  0  0  0  0  0  0  0  0  0  0
  188.4050  178.0780  143.0540 C   0  0  0  0  0  0  0  0  0  0  0  0
  190.2160  178.0780  145.1890 O   0  0  0  0  0  0  0  0  0  0  0  0
  185.9560  178.1980  143.8370 C   0  0  0  0  0  2  0  0  0  0  0  0
  189.1700  177.3510  145.7940 C   0  0  1  0  0  3  0  0  0  0  0  0
  187.4030  177.8980  144.1570 C   0  0  0  0  0  0  0  0  0  0  0  0
  191.5990  176.2620  144.3120 C   0  0  0  0  0  1  0  0  0  0  0  0
  190.6450  177.4150  144.0130 C   0  0  1  0  0  3  0  0  0  0  0  0
  189.4440  177.0890  147.2390 C   0  0  0  0  0  0  0  0  0  0  0  0
  190.7510  177.3000  147.7640 N   0  0  0  0  0  1  0  0  0  0  0  0
  188.5040  176.8000  148.0300 O   0  0  0  0  0  0  0  0  0  0  0  0
  184.2550  177.4370  135.9920 C   0  0  0  0  0  2  0  0  0  0  0  0
  183.1730  177.7050  136.9360 N   0  0  0  0  0  2  0  0  0  0  0  0
  181.9000  177.1690  136.4410 C   0  0  1  0  0  3  0  0  0  0  0  0
  180.6520  177.9950  136.8570 C   0  0  1  0  0  3  0  0  0  0  0  0
  181.8170  178.3260  139.0930 C   0  0  0  0  0  2  0  0  0  0  0  0
  180.8160  177.2400  141.1170 C   0  0  0  0  0  2  0  0  0  0  0  0
  180.2030  176.4260  138.8130 N   0  0  0  0  0  0  0  0  0  0  0  0
  179.9160  176.3420  140.2540 C   0  0  0  0  0  2  0  0  0  0  0  0
  182.1110  177.5830  140.3980 C   0  0  0  0  0  2  0  0  0  0  0  0
  180.5480  177.8040  138.3990 C   0  0  2  0  0  3  0  0  0  0  0  0
  179.0580  176.0490  138.1810 O   0  0  0  0  0  1  0  0  0  0  0  0
  180.7240  179.5380  134.9660 C   0  0  0  0  0  1  0  0  0  0  0  0
  180.7330  179.4210  136.4220 N   0  0  0  0  0  0  0  0  0  0  0  0
  179.6700  180.3060  136.9590 C   0  0  0  0  0  2  0  0  0  0  0  0
  180.1160  181.4950  137.7970 C   0  0  0  0  0  0  0  0  0  0  0  0
  180.7070  182.6670  137.0830 C   0  0  0  0  0  1  0  0  0  0  0  0
  179.9050  181.5880  139.1070 C   0  0  0  0  0  2  0  0  0  0  0  0
  181.9370  176.9060  134.9330 C   0  0  0  0  0  2  0  0  0  0  0  0
  181.5000  175.4890  134.5940 C   0  0  0  0  0  2  0  0  0  0  0  0
  182.5350  174.5250  135.1280 C   0  0  0  0  0  2  0  0  0  0  0  0
  181.9370  173.1370  135.3440 C   0  0  0  0  0  2  0  0  0  0  0  0
  184.2810  172.6530  135.3340 O   0  0  0  0  0  1  0  0  0  0  0  0
  183.0220  172.0960  135.6110 C   0  0  1  0  0  0  0  0  0  0  0  0
  182.9650  171.7470  137.0830 C   0  0  0  0  0  1  0  0  0  0  0  0
  182.7770  170.8990  134.7900 N   0  0  0  0  0  2  0  0  0  0  0  0
  182.3450  169.7830  135.6230 C   0  0  0  0  0  1  0  0  0  0  0  0
  1  5  1  0  0  0  0
  2  7  1  1  0  0  0
  2  3  1  0  0  0  0
  3 30  1  6  0  0  0
  3  5  1  0  0  0  0
  4  1  1  0  0  0  0
  6  2  1  0  0  0  0
  6  4  1  0  0  0  0
  7  8  1  0  0  0  0
  8  9  1  0  0  0  0
  9 10  1  0  0  0  0
 10 12  1  1  0  0  0
 10 11  1  0  0  0  0
 11 14  1  0  0  0  0
 13 14  2  0  0  0  0
 15 14  2  0  0  0  0
 16 23  1  0  0  0  0
 17 14  1  6  0  0  0
 17 20  1  0  0  0  0
 17 26  1  0  0  0  0
 18 24  1  0  0  0  0
 19 20  2  0  0  0  0
 20 24  1  0  0  0  0
 21 23  1  0  0  0  0
 22 18  1  0  0  0  0
 22 24  1  0  0  0  0
 23 27  1  1  0  0  0
 24 16  1  0  0  0  0
 26 25  1  1  0  0  0
 26 21  1  0  0  0  0
 27 28  1  0  0  0  0
 27 29  2  0  0  0  0
 30 31  1  0  0  0  0
 32 47  1  6  0  0  0
 32 33  1  0  0  0  0
 32 31  1  0  0  0  0
 33 42  1  1  0  0  0
 34 38  1  0  0  0  0
 36 37  1  0  0  0  0
 37 35  1  0  0  0  0
 38 35  1  0  0  0  0
 39 33  1  6  0  0  0
 39 36  1  0  0  0  0
 39 34  1  0  0  0  0
 40 36  1  0  0  0  0
 41 42  1  0  0  0  0
 42 43  1  0  0  0  0
 43 44  1  0  0  0  0
 44 46  2  0  0  0  0
 45 44  1  0  0  0  0
 48 47  1  0  0  0  0
 48 49  1  0  0  0  0
 49 50  1  0  0  0  0
 50 52  1  0  0  0  0
 51 52  1  0  0  0  0
 52 53  1  1  0  0  0
 54 52  1  0  0  0  0
 54 55  1  0  0  0  0
M  END
>  <MODEL>
8

>  <REMARK>
 VINA RESULT:      -3.9      3.755      7.080
  Name = 
  21 active torsions:
  status: ('A' for Active; 'I' for Inactive)
    1  A    between atoms: C_1  and  C_29
    2  A    between atoms: C_2  and  N_28
    3  A    between atoms: C_2  and  C_31
    4  A    between atoms: C_4  and  C_40
    5  A    between atoms: C_6  and  S_20
    6  A    between atoms: C_8  and  C_35
    7  A    between atoms: N_10  and  C_39
    8  A    between atoms: C_13  and  C_48
    9  A    between atoms: C_13  and  C_52
   10  A    between atoms: S_20  and  S_22
   11  A    between atoms: C_26  and  C_49
   12  A    between atoms: C_27  and  C_54
   13  A    between atoms: N_28  and  C_33
   14  A    between atoms: C_33  and  C_34
   15  A    between atoms: C_33  and  C_49
   16  A    between atoms: C_34  and  C_52
   17  A    between atoms: C_35  and  O_51
   18  A    between atoms: C_39  and  C_48
   19  A    between atoms: C_40  and  N_45
   20  A    between atoms: N_45  and  C_49
   21  A    between atoms: O_51  and  C_54
                            x       y       z     vdW  Elec       q    Type
                         _______ _______ _______ _____ _____    ______ ____

>  <TORSDO>
F 21

$$$$
=
 OpenBabel10262420413D

 55 58  0  0  1  0  0  0  0  0999 V2000
  185.5890  177.6680  144.2750 C   0  0  0  0  0  2  0  0  0  0  0  0
  188.2010  177.9540  142.9280 C   0  0  2  0  0  3  0  0  0  0  0  0
  187.0160  178.8470  142.5400 C   0  0  2  0  0  3  0  0  0  0  0  0
  186.8010  176.8790  144.7460 C   0  0  0  0  0  2  0  0  0  0  0  0
  186.0360  179.0140  143.7130 C   0  0  0  0  0  2  0  0  0  0  0  0
  187.7420  176.6320  143.5680 C   0  0  0  0  0  2  0  0  0  0  0  0
  189.1960  178.7170  143.8050 C   0  0  0  0  0  2  0  0  0  0  0  0
  190.3190  179.1030  143.0630 O   0  0  0  0  0  0  0  0  0  0  0  0
  191.3310  178.2050  143.4110 C   0  0  0  0  0  2  0  0  0  0  0  0
  191.4390  177.1330  142.3700 C   0  0  2  0  0  3  0  0  0  0  0  0
  191.9260  177.5210  140.8840 S   0  0  0  0  0  0  0  0  0  0  0  0
  191.0930  175.7150  142.7120 C   0  0  0  0  0  1  0  0  0  0  0  0
  189.5060  175.9850  140.2240 O   0  0  0  0  0  0  0  0  0  0  0  0
  190.2990  177.1160  139.6370 S   0  0  0  0  0  0  0  0  0  0  0  0
  189.4350  178.3500  139.5970 O   0  0  0  0  0  0  0  0  0  0  0  0
  191.1530  175.3450  134.9920 C   0  0  0  0  0  2  0  0  0  0  0  0
  190.9030  176.6910  137.9910 C   0  0  2  0  0  3  0  0  0  0  0  0
  189.6850  177.4400  135.0290 C   0  0  0  0  0  2  0  0  0  0  0  0
  188.8470  175.5210  137.6150 O   0  0  0  0  0  0  0  0  0  0  0  0
  189.8420  176.0400  137.1290 C   0  0  0  0  0  0  0  0  0  0  0  0
  192.4030  174.9190  136.9960 O   0  0  0  0  0  0  0  0  0  0  0  0
  188.7400  176.2620  134.8130 C   0  0  0  0  0  2  0  0  0  0  0  0
  192.4210  175.6390  135.7840 C   0  0  1  0  0  3  0  0  0  0  0  0
  189.9970  176.0880  135.6360 C   0  0  0  0  0  0  0  0  0  0  0  0
  193.4360  176.5350  138.5130 C   0  0  0  0  0  1  0  0  0  0  0  0
  192.1690  175.8030  138.0780 C   0  0  1  0  0  3  0  0  0  0  0  0
  193.6490  175.3470  134.9860 C   0  0  0  0  0  0  0  0  0  0  0  0
  194.5120  176.4110  134.5950 N   0  0  0  0  0  1  0  0  0  0  0  0
  194.0000  174.1570  134.7560 O   0  0  0  0  0  0  0  0  0  0  0  0
  186.3340  178.2800  141.2990 C   0  0  0  0  0  2  0  0  0  0  0  0
  185.4640  179.2750  140.6760 N   0  0  0  0  0  2  0  0  0  0  0  0
  184.2620  178.6440  140.1160 C   0  0  1  0  0  3  0  0  0  0  0  0
  182.9560  179.4590  140.3210 C   0  0  1  0  0  3  0  0  0  0  0  0
  182.1500  181.1100  138.5630 C   0  0  0  0  0  2  0  0  0  0  0  0
  180.9520  180.2070  136.5560 C   0  0  0  0  0  2  0  0  0  0  0  0
  181.1520  178.8100  138.6440 N   0  0  0  0  0  0  0  0  0  0  0  0
  180.7500  178.8400  137.2290 C   0  0  0  0  0  2  0  0  0  0  0  0
  180.9960  181.3280  137.5810 C   0  0  0  0  0  2  0  0  0  0  0  0
  182.3630  179.6230  138.8900 C   0  0  2  0  0  3  0  0  0  0  0  0
  181.4280  177.5090  138.9280 O   0  0  0  0  0  1  0  0  0  0  0  0
  182.6900  178.5400  142.5670 C   0  0  0  0  0  1  0  0  0  0  0  0
  182.0240  178.8190  141.2970 N   0  0  0  0  0  0  0  0  0  0  0  0
  180.7880  179.5870  141.5860 C   0  0  0  0  0  2  0  0  0  0  0  0
  179.6160  178.8170  142.1770 C   0  0  0  0  0  0  0  0  0  0  0  0
  179.3070  177.4730  141.6030 C   0  0  0  0  0  1  0  0  0  0  0  0
  178.9320  179.2280  143.2410 C   0  0  0  0  0  2  0  0  0  0  0  0
  184.4590  178.2350  138.6540 C   0  0  0  0  0  2  0  0  0  0  0  0
  185.8260  178.6470  138.1280 C   0  0  0  0  0  2  0  0  0  0  0  0
  186.2280  177.6890  137.0300 C   0  0  0  0  0  2  0  0  0  0  0  0
  185.1960  176.5750  136.8650 C   0  0  0  0  0  2  0  0  0  0  0  0
  183.2970  177.0430  135.4860 O   0  0  0  0  0  1  0  0  0  0  0  0
  184.6140  176.5570  135.4540 C   0  0  1  0  0  0  0  0  0  0  0  0
  185.4500  177.4920  134.6050 C   0  0  0  0  0  1  0  0  0  0  0  0
  184.6630  175.1900  134.9110 N   0  0  0  0  0  2  0  0  0  0  0  0
  185.0670  174.2420  135.9420 C   0  0  0  0  0  1  0  0  0  0  0  0
  1  4  1  0  0  0  0
  2  6  1  0  0  0  0
  2  7  1  1  0  0  0
  3 30  1  6  0  0  0
  3  2  1  0  0  0  0
  3  5  1  0  0  0  0
  5  1  1  0  0  0  0
  6  4  1  0  0  0  0
  8  9  1  0  0  0  0
  8  7  1  0  0  0  0
 10 12  1  6  0  0  0
 10  9  1  0  0  0  0
 11 10  1  0  0  0  0
 14 13  2  0  0  0  0
 14 11  1  0  0  0  0
 15 14  2  0  0  0  0
 16 24  1  0  0  0  0
 16 23  1  0  0  0  0
 17 26  1  0  0  0  0
 17 14  1  1  0  0  0
 18 24  1  0  0  0  0
 20 19  2  0  0  0  0
 20 17  1  0  0  0  0
 21 26  1  0  0  0  0
 22 18  1  0  0  0  0
 22 24  1  0  0  0  0
 23 27  1  6  0  0  0
 23 21  1  0  0  0  0
 24 20  1  0  0  0  0
 26 25  1  6  0  0  0
 28 27  1  0  0  0  0
 29 27  2  0  0  0  0
 31 30  1  0  0  0  0
 32 47  1  6  0  0  0
 32 33  1  0  0  0  0
 32 31  1  0  0  0  0
 33 42  1  1  0  0  0
 34 39  1  0  0  0  0
 35 37  1  0  0  0  0
 35 38  1  0  0  0  0
 36 39  1  0  0  0  0
 36 40  1  0  0  0  0
 37 36  1  0  0  0  0
 38 34  1  0  0  0  0
 39 33  1  1  0  0  0
 42 43  1  0  0  0  0
 42 41  1  0  0  0  0
 43 44  1  0  0  0  0
 44 46  2  0  0  0  0
 45 44  1  0  0  0  0
 48 47  1  0  0  0  0
 49 48  1  0  0  0  0
 50 49  1  0  0  0  0
 52 53  1  6  0  0  0
 52 51  1  0  0  0  0
 52 50  1  0  0  0  0
 54 52  1  0  0  0  0
 54 55  1  0  0  0  0
M  END
>  <MODEL>
9

>  <REMARK>
 VINA RESULT:      -3.9      2.474      3.724
  Name = 
  21 active torsions:
  status: ('A' for Active; 'I' for Inactive)
    1  A    between atoms: C_1  and  C_29
    2  A    between atoms: C_2  and  N_28
    3  A    between atoms: C_2  and  C_31
    4  A    between atoms: C_4  and  C_40
    5  A    between atoms: C_6  and  S_20
    6  A    between atoms: C_8  and  C_35
    7  A    between atoms: N_10  and  C_39
    8  A    between atoms: C_13  and  C_48
    9  A    between atoms: C_13  and  C_52
   10  A    between atoms: S_20  and  S_22
   11  A    between atoms: C_26  and  C_49
   12  A    between atoms: C_27  and  C_54
   13  A    between atoms: N_28  and  C_33
   14  A    between atoms: C_33  and  C_34
   15  A    between atoms: C_33  and  C_49
   16  A    between atoms: C_34  and  C_52
   17  A    between atoms: C_35  and  O_51
   18  A    between atoms: C_39  and  C_48
   19  A    between atoms: C_40  and  N_45
   20  A    between atoms: N_45  and  C_49
   21  A    between atoms: O_51  and  C_54
                            x       y       z     vdW  Elec       q    Type
                         _______ _______ _______ _____ _____    ______ ____

>  <TORSDO>
F 21

$$$$
