=
 OpenBabel10262422253D

 43 48  0  0  1  0  0  0  0  0999 V2000
  190.2670  177.6270  144.4570 C   0  0  1  0  0  3  0  0  0  0  0  0
  190.8970  177.3360  139.3480 C   0  0  0  0  0  0  0  0  0  0  0  0
  188.2990  177.3150  138.1240 C   0  0  2  0  0  3  0  0  0  0  0  0
  191.2060  177.3470  142.1370 C   0  0  0  0  0  0  0  0  0  0  0  0
  188.9610  177.1030  143.8700 C   0  0  0  0  0  2  0  0  0  0  0  0
  190.4970  177.0370  145.6980 O   0  0  0  0  0  1  0  0  0  0  0  0
  189.9210  177.4960  141.5790 C   0  0  0  0  0  0  0  0  0  0  0  0
  191.3760  177.3250  143.5570 N   0  0  0  0  0  2  0  0  0  0  0  0
  188.7390  177.7220  142.4910 C   0  0  0  0  0  2  0  0  0  0  0  0
  188.4030  177.7660  139.5830 C   0  0  0  0  0  2  0  0  0  0  0  0
  189.7610  177.4940  140.1790 C   0  0  0  0  0  0  0  0  0  0  0  0
  192.1600  177.1660  139.9230 C   0  0  0  0  0  3  0  0  0  0  0  0
  190.7820  177.2450  137.8480 C   0  0  2  0  0  3  0  0  0  0  0  0
  189.4800  177.8580  137.3280 C   0  0  0  0  0  2  0  0  0  0  0  0
  192.3150  177.1730  141.3080 C   0  0  0  0  0  3  0  0  0  0  0  0
  186.9650  177.7100  137.4890 C   0  0  2  0  0  3  0  0  0  0  0  0
  187.1540  178.4750  136.1830 C   0  0  0  0  0  1  0  0  0  0  0  0
  186.1950  178.5110  138.4320 N   0  0  0  0  0  2  0  0  0  0  0  0
  184.7700  178.4630  138.5270 C   0  0  0  0  0  0  0  0  0  0  0  0
  184.1050  177.6640  137.8150 O   0  0  0  0  0  0  0  0  0  0  0  0
  184.0640  179.3920  139.4560 C   0  0  0  0  0  2  0  0  0  0  0  0
  183.9070  178.7720  140.8450 C   0  0  2  0  0  0  0  0  0  0  0  0
  184.9860  179.0030  141.8430 C   0  0  1  0  0  0  0  0  0  0  0  0
  184.9060  177.8080  141.0970 O   0  0  0  0  0  0  0  0  0  0  0  0
  186.0890  179.7640  141.4470 O   0  0  0  0  0  1  0  0  0  0  0  0
  184.7910  178.7670  143.3120 C   0  0  0  0  0  0  0  0  0  0  0  0
  183.4500  179.0170  145.4510 C   0  0  0  0  0  2  0  0  0  0  0  0
  185.5960  177.7790  145.4660 C   0  0  0  0  0  2  0  0  0  0  0  0
  184.7810  178.8560  146.1720 C   0  0  0  0  0  2  0  0  0  0  0  0
  185.7080  178.0510  143.9890 C   0  0  0  0  0  3  0  0  0  0  0  0
  183.6900  179.5170  144.0270 C   0  0  0  0  0  2  0  0  0  0  0  0
  182.5380  178.2840  141.3170 C   0  0  0  0  0  2  0  0  0  0  0  0
  180.5030  179.4920  141.6570 O   0  0  0  0  0  1  0  0  0  0  0  0
  181.4110  179.0820  140.6810 C   0  0  0  0  0  2  0  0  0  0  0  0
  190.8750  175.8810  137.4470 O   0  0  0  0  0  0  0  0  0  0  0  0
  194.3140  175.4800  136.0900 C   0  0  0  0  0  3  0  0  0  0  0  0
  194.3960  174.0820  135.9990 C   0  0  0  0  0  0  0  0  0  0  0  0
  192.1370  173.9120  136.8700 C   0  0  0  0  0  3  0  0  0  0  0  0
  193.1490  176.0890  136.5680 C   0  0  0  0  0  3  0  0  0  0  0  0
  192.0530  175.3040  136.9610 C   0  0  0  0  0  0  0  0  0  0  0  0
  193.3020  173.3040  136.3910 C   0  0  0  0  0  3  0  0  0  0  0  0
  195.5450  173.4430  135.5260 O   0  0  0  0  0  0  0  0  0  0  0  0
  196.6770  174.1560  135.0470 C   0  0  0  0  0  1  0  0  0  0  0  0
  1  6  1  1  0  0  0
  2 12  2  0  0  0  0
  2 11  1  0  0  0  0
  3 16  1  6  0  0  0
  3 10  1  0  0  0  0
  4  8  1  0  0  0  0
  5  1  1  0  0  0  0
  7  4  1  0  0  0  0
  7  9  1  0  0  0  0
  8  1  1  0  0  0  0
  9  5  1  0  0  0  0
 10 11  1  0  0  0  0
 11  7  2  0  0  0  0
 12 15  1  0  0  0  0
 13 35  1  1  0  0  0
 13  2  1  0  0  0  0
 14 13  1  0  0  0  0
 14  3  1  0  0  0  0
 15  4  2  0  0  0  0
 16 17  1  6  0  0  0
 16 18  1  0  0  0  0
 18 19  1  0  0  0  0
 19 21  1  0  0  0  0
 20 19  2  0  0  0  0
 22 21  1  6  0  0  0
 22 24  1  0  0  0  0
 22 32  1  0  0  0  0
 22 23  1  0  0  0  0
 23 25  1  6  0  0  0
 23 26  1  0  0  0  0
 24 23  1  0  0  0  0
 26 30  2  0  0  0  0
 26 31  1  0  0  0  0
 27 29  1  0  0  0  0
 28 29  1  0  0  0  0
 30 28  1  0  0  0  0
 31 27  1  0  0  0  0
 34 32  1  0  0  0  0
 34 33  1  0  0  0  0
 36 39  1  0  0  0  0
 37 36  2  0  0  0  0
 37 41  1  0  0  0  0
 38 40  1  0  0  0  0
 39 40  2  0  0  0  0
 40 35  1  0  0  0  0
 41 38  2  0  0  0  0
 42 37  1  0  0  0  0
 43 42  1  0  0  0  0
M  END
>  <MODEL>
1

>  <REMARK>
 VINA RESULT:      -8.7      0.000      0.000
  Name = 
  10 active torsions:
  status: ('A' for Active; 'I' for Inactive)
    1  A    between atoms: O_1  and  C_34
    2  A    between atoms: O_1  and  C_35
    3  A    between atoms: C_2  and  N_6
    4  A    between atoms: C_2  and  C_13
    5  A    between atoms: C_3  and  C_4
    6  A    between atoms: C_3  and  C_12
    7  A    between atoms: C_4  and  C_15
    8  A    between atoms: C_11  and  C_14
    9  A    between atoms: C_15  and  C_42
   10  A    between atoms: C_19  and  O_25
                            x       y       z     vdW  Elec       q    Type
                         _______ _______ _______ _____ _____    ______ ____

>  <TORSDO>
F 10

$$$$
=
 OpenBabel10262422253D

 43 48  0  0  1  0  0  0  0  0999 V2000
  180.2970  178.7970  142.6690 C   0  0  1  0  0  3  0  0  0  0  0  0
  185.4500  178.7500  142.7960 C   0  0  0  0  0  0  0  0  0  0  0  0
  186.4060  178.1030  140.1670 C   0  0  2  0  0  3  0  0  0  0  0  0
  182.7090  178.7950  143.3910 C   0  0  0  0  0  0  0  0  0  0  0  0
  180.7700  177.9740  141.4760 C   0  0  0  0  0  2  0  0  0  0  0  0
  179.1100  178.2640  143.1690 O   0  0  0  0  0  1  0  0  0  0  0  0
  183.1280  178.6280  142.0570 C   0  0  0  0  0  0  0  0  0  0  0  0
  181.3150  178.7940  143.7140 N   0  0  0  0  0  2  0  0  0  0  0  0
  182.0930  178.5390  140.9610 C   0  0  0  0  0  2  0  0  0  0  0  0
  184.9480  178.5430  140.3130 C   0  0  0  0  0  2  0  0  0  0  0  0
  184.5030  178.6080  141.7520 C   0  0  0  0  0  0  0  0  0  0  0  0
  185.0130  178.8910  144.1160 C   0  0  0  0  0  3  0  0  0  0  0  0
  186.9330  178.6570  142.5450 C   0  0  2  0  0  3  0  0  0  0  0  0
  187.2940  178.9350  141.0840 C   0  0  0  0  0  2  0  0  0  0  0  0
  183.6510  178.9150  144.4130 C   0  0  0  0  0  3  0  0  0  0  0  0
  186.8870  178.1640  138.7160 C   0  0  2  0  0  3  0  0  0  0  0  0
  185.7300  178.3210  137.7330 C   0  0  0  0  0  1  0  0  0  0  0  0
  187.6500  176.9620  138.4050 N   0  0  0  0  0  2  0  0  0  0  0  0
  188.4530  176.8210  137.2310 C   0  0  0  0  0  0  0  0  0  0  0  0
  188.5820  177.7780  136.4220 O   0  0  0  0  0  0  0  0  0  0  0  0
  189.1210  175.5170  136.9500 C   0  0  0  0  0  2  0  0  0  0  0  0
  190.6040  175.5630  137.3170 C   0  0  2  0  0  0  0  0  0  0  0  0
  191.5100  174.5510  136.7100 C   0  0  1  0  0  0  0  0  0  0  0  0
  191.0000  174.4050  138.0170 O   0  0  0  0  0  0  0  0  0  0  0  0
  190.9480  173.6070  135.8470 O   0  0  0  0  0  1  0  0  0  0  0  0
  193.0030  174.7070  136.6990 C   0  0  0  0  0  0  0  0  0  0  0  0
  195.1340  175.6950  135.7410 C   0  0  0  0  0  2  0  0  0  0  0  0
  195.2380  174.1610  137.6830 C   0  0  0  0  0  2  0  0  0  0  0  0
  195.8270  174.4660  136.3110 C   0  0  0  0  0  2  0  0  0  0  0  0
  193.7350  174.0690  137.6310 C   0  0  0  0  0  3  0  0  0  0  0  0
  193.6510  175.3970  135.5200 C   0  0  0  0  0  2  0  0  0  0  0  0
  191.1990  176.8200  137.9520 C   0  0  0  0  0  2  0  0  0  0  0  0
  190.4650  177.7560  140.0260 O   0  0  0  0  0  1  0  0  0  0  0  0
  191.2180  176.7230  139.4690 C   0  0  0  0  0  2  0  0  0  0  0  0
  187.3990  177.3650  142.9270 O   0  0  0  0  0  0  0  0  0  0  0  0
  189.6770  177.2720  145.8640 C   0  0  0  0  0  3  0  0  0  0  0  0
  190.8300  176.7250  145.2810 C   0  0  0  0  0  0  0  0  0  0  0  0
  189.6780  176.6170  143.1480 C   0  0  0  0  0  3  0  0  0  0  0  0
  188.5320  177.4900  145.0920 C   0  0  0  0  0  3  0  0  0  0  0  0
  188.5280  177.1630  143.7270 C   0  0  0  0  0  0  0  0  0  0  0  0
  190.8230  176.4000  143.9210 C   0  0  0  0  0  3  0  0  0  0  0  0
  191.9910  176.4940  146.0240 O   0  0  0  0  0  0  0  0  0  0  0  0
  191.9910  175.7470  147.2330 C   0  0  0  0  0  1  0  0  0  0  0  0
  1  6  1  1  0  0  0
  1  8  1  0  0  0  0
  2 12  1  0  0  0  0
  3 16  1  6  0  0  0
  3 10  1  0  0  0  0
  3 14  1  0  0  0  0
  4  8  1  0  0  0  0
  4 15  1  0  0  0  0
  5  1  1  0  0  0  0
  7  4  2  0  0  0  0
  9  5  1  0  0  0  0
  9  7  1  0  0  0  0
 10 11  1  0  0  0  0
 11  7  1  0  0  0  0
 11  2  2  0  0  0  0
 12 15  2  0  0  0  0
 13  2  1  0  0  0  0
 13 35  1  6  0  0  0
 14 13  1  0  0  0  0
 16 17  1  6  0  0  0
 18 16  1  0  0  0  0
 19 18  1  0  0  0  0
 20 19  2  0  0  0  0
 21 19  1  0  0  0  0
 22 21  1  6  0  0  0
 22 32  1  0  0  0  0
 22 24  1  0  0  0  0
 23 25  1  6  0  0  0
 23 22  1  0  0  0  0
 23 24  1  0  0  0  0
 26 23  1  0  0  0  0
 26 30  2  0  0  0  0
 27 29  1  0  0  0  0
 29 28  1  0  0  0  0
 30 28  1  0  0  0  0
 31 27  1  0  0  0  0
 31 26  1  0  0  0  0
 32 34  1  0  0  0  0
 34 33  1  0  0  0  0
 35 40  1  0  0  0  0
 37 36  1  0  0  0  0
 37 42  1  0  0  0  0
 38 40  2  0  0  0  0
 38 41  1  0  0  0  0
 39 36  2  0  0  0  0
 40 39  1  0  0  0  0
 41 37  2  0  0  0  0
 42 43  1  0  0  0  0
M  END
>  <MODEL>
2

>  <REMARK>
 VINA RESULT:      -8.6      2.055      9.083
  Name = 
  10 active torsions:
  status: ('A' for Active; 'I' for Inactive)
    1  A    between atoms: O_1  and  C_34
    2  A    between atoms: O_1  and  C_35
    3  A    between atoms: C_2  and  N_6
    4  A    between atoms: C_2  and  C_13
    5  A    between atoms: C_3  and  C_4
    6  A    between atoms: C_3  and  C_12
    7  A    between atoms: C_4  and  C_15
    8  A    between atoms: C_11  and  C_14
    9  A    between atoms: C_15  and  C_42
   10  A    between atoms: C_19  and  O_25
                            x       y       z     vdW  Elec       q    Type
                         _______ _______ _______ _____ _____    ______ ____

>  <TORSDO>
F 10

$$$$
=
 OpenBabel10262422253D

 43 48  0  0  1  0  0  0  0  0999 V2000
  188.6330  177.6730  145.4960 C   0  0  1  0  0  3  0  0  0  0  0  0
  190.7360  177.3720  140.7990 C   0  0  0  0  0  0  0  0  0  0  0  0
  188.6160  177.4280  138.8620 C   0  0  2  0  0  3  0  0  0  0  0  0
  190.2070  177.3700  143.5540 C   0  0  0  0  0  0  0  0  0  0  0  0
  187.5450  177.1880  144.5440 C   0  0  0  0  0  2  0  0  0  0  0  0
  188.4700  177.0750  146.7440 O   0  0  0  0  0  1  0  0  0  0  0  0
  189.1490  177.5560  142.6430 C   0  0  0  0  0  0  0  0  0  0  0  0
  189.9490  177.3410  144.9610 N   0  0  0  0  0  2  0  0  0  0  0  0
  187.7570  177.8160  143.1670 C   0  0  0  0  0  2  0  0  0  0  0  0
  188.2970  177.8740  140.2900 C   0  0  0  0  0  2  0  0  0  0  0  0
  189.4100  177.5610  141.2580 C   0  0  0  0  0  0  0  0  0  0  0  0
  191.7670  177.1640  141.7190 C   0  0  0  0  0  3  0  0  0  0  0  0
  191.0660  177.2870  139.3310 C   0  0  2  0  0  3  0  0  0  0  0  0
  189.9930  177.9380  138.4550 C   0  0  0  0  0  2  0  0  0  0  0  0
  191.5060  177.1650  143.0880 C   0  0  0  0  0  3  0  0  0  0  0  0
  187.5400  177.8620  137.8650 C   0  0  2  0  0  3  0  0  0  0  0  0
  188.1170  178.6940  136.7230 C   0  0  0  0  0  1  0  0  0  0  0  0
  186.5070  178.6160  138.5620 N   0  0  0  0  0  2  0  0  0  0  0  0
  185.1100  178.4660  138.3000 C   0  0  0  0  0  0  0  0  0  0  0  0
  184.7000  177.6120  137.4690 O   0  0  0  0  0  0  0  0  0  0  0  0
  184.1330  179.3520  138.9960 C   0  0  0  0  0  2  0  0  0  0  0  0
  183.0780  178.5350  139.7420 C   0  0  2  0  0  0  0  0  0  0  0  0
  181.7940  178.2440  139.0490 C   0  0  1  0  0  0  0  0  0  0  0  0
  181.9130  179.2920  139.9860 O   0  0  0  0  0  0  0  0  0  0  0  0
  181.6220  178.7470  137.7570 O   0  0  0  0  0  1  0  0  0  0  0  0
  180.8500  177.1740  139.5150 C   0  0  0  0  0  0  0  0  0  0  0  0
  178.9310  176.3740  140.9690 C   0  0  0  0  0  2  0  0  0  0  0  0
  180.0130  174.8200  139.3710 C   0  0  0  0  0  2  0  0  0  0  0  0
  179.5360  174.9870  140.8100 C   0  0  0  0  0  2  0  0  0  0  0  0
  180.9140  175.9530  138.9540 C   0  0  0  0  0  3  0  0  0  0  0  0
  180.0050  177.4370  140.7420 C   0  0  0  0  0  2  0  0  0  0  0  0
  183.4700  177.7170  140.9730 C   0  0  0  0  0  2  0  0  0  0  0  0
  184.0500  178.3940  143.1910 O   0  0  0  0  0  1  0  0  0  0  0  0
  184.4480  178.4760  141.8570 C   0  0  0  0  0  2  0  0  0  0  0  0
  191.2370  175.9210  138.9610 O   0  0  0  0  0  0  0  0  0  0  0  0
  193.9590  175.9290  136.4280 C   0  0  0  0  0  3  0  0  0  0  0  0
  193.9320  174.5880  136.0140 C   0  0  0  0  0  0  0  0  0  0  0  0
  192.1150  174.1640  137.5660 C   0  0  0  0  0  3  0  0  0  0  0  0
  193.0680  176.3830  137.4050 C   0  0  0  0  0  3  0  0  0  0  0  0
  192.1400  175.5000  137.9790 C   0  0  0  0  0  0  0  0  0  0  0  0
  193.0060  173.7110  136.5870 C   0  0  0  0  0  3  0  0  0  0  0  0
  194.8090  174.1020  135.0400 O   0  0  0  0  0  0  0  0  0  0  0  0
  196.2180  174.0700  135.2240 C   0  0  0  0  0  1  0  0  0  0  0  0
  1  6  1  1  0  0  0
  2 11  2  0  0  0  0
  2 12  1  0  0  0  0
  3 16  1  6  0  0  0
  3 10  1  0  0  0  0
  4  8  1  0  0  0  0
  5  1  1  0  0  0  0
  7  9  1  0  0  0  0
  7  4  2  0  0  0  0
  8  1  1  0  0  0  0
  9  5  1  0  0  0  0
 10 11  1  0  0  0  0
 11  7  1  0  0  0  0
 12 15  2  0  0  0  0
 13 35  1  6  0  0  0
 13  2  1  0  0  0  0
 14  3  1  0  0  0  0
 14 13  1  0  0  0  0
 15  4  1  0  0  0  0
 16 17  1  6  0  0  0
 16 18  1  0  0  0  0
 19 18  1  0  0  0  0
 19 21  1  0  0  0  0
 20 19  2  0  0  0  0
 22 21  1  6  0  0  0
 22 24  1  0  0  0  0
 22 32  1  0  0  0  0
 23 25  1  6  0  0  0
 23 26  1  0  0  0  0
 23 22  1  0  0  0  0
 23 24  1  0  0  0  0
 26 31  1  0  0  0  0
 28 29  1  0  0  0  0
 29 27  1  0  0  0  0
 30 28  1  0  0  0  0
 30 26  2  0  0  0  0
 31 27  1  0  0  0  0
 32 34  1  0  0  0  0
 34 33  1  0  0  0  0
 36 39  1  0  0  0  0
 37 36  2  0  0  0  0
 37 41  1  0  0  0  0
 38 40  1  0  0  0  0
 39 40  2  0  0  0  0
 40 35  1  0  0  0  0
 41 38  2  0  0  0  0
 42 43  1  0  0  0  0
 42 37  1  0  0  0  0
M  END
>  <MODEL>
3

>  <REMARK>
 VINA RESULT:      -8.2      1.783      3.246
  Name = 
  10 active torsions:
  status: ('A' for Active; 'I' for Inactive)
    1  A    between atoms: O_1  and  C_34
    2  A    between atoms: O_1  and  C_35
    3  A    between atoms: C_2  and  N_6
    4  A    between atoms: C_2  and  C_13
    5  A    between atoms: C_3  and  C_4
    6  A    between atoms: C_3  and  C_12
    7  A    between atoms: C_4  and  C_15
    8  A    between atoms: C_11  and  C_14
    9  A    between atoms: C_15  and  C_42
   10  A    between atoms: C_19  and  O_25
                            x       y       z     vdW  Elec       q    Type
                         _______ _______ _______ _____ _____    ______ ____

>  <TORSDO>
F 10

$$$$
=
 OpenBabel10262422253D

 43 48  0  0  1  0  0  0  0  0999 V2000
  188.5550  178.1980  144.3500 C   0  0  1  0  0  3  0  0  0  0  0  0
  190.7670  177.1060  139.8240 C   0  0  0  0  0  0  0  0  0  0  0  0
  188.6880  176.6290  137.9010 C   0  0  2  0  0  3  0  0  0  0  0  0
  190.1840  177.6190  142.5190 C   0  0  0  0  0  0  0  0  0  0  0  0
  187.5200  177.4590  143.5080 C   0  0  0  0  0  2  0  0  0  0  0  0
  188.4060  177.8520  145.6920 O   0  0  0  0  0  1  0  0  0  0  0  0
  189.1340  177.5470  141.5830 C   0  0  0  0  0  0  0  0  0  0  0  0
  189.9000  177.8550  143.9020 N   0  0  0  0  0  2  0  0  0  0  0  0
  187.7180  177.8110  142.0350 C   0  0  0  0  0  2  0  0  0  0  0  0
  188.3110  177.3290  139.2090 C   0  0  0  0  0  2  0  0  0  0  0  0
  189.4220  177.2920  140.2270 C   0  0  0  0  0  0  0  0  0  0  0  0
  191.7910  177.1580  140.7730 C   0  0  0  0  0  3  0  0  0  0  0  0
  191.1320  176.7510  138.4050 C   0  0  2  0  0  3  0  0  0  0  0  0
  190.0370  177.1400  137.4090 C   0  0  0  0  0  2  0  0  0  0  0  0
  191.5030  177.4150  142.1130 C   0  0  0  0  0  3  0  0  0  0  0  0
  187.6060  176.7810  136.8300 C   0  0  2  0  0  3  0  0  0  0  0  0
  188.1210  177.5080  135.5920 C   0  0  0  0  0  1  0  0  0  0  0  0
  186.4630  177.4900  137.3900 N   0  0  0  0  0  2  0  0  0  0  0  0
  185.1070  177.1780  137.0670 C   0  0  0  0  0  0  0  0  0  0  0  0
  184.8340  176.2120  136.3050 O   0  0  0  0  0  0  0  0  0  0  0  0
  184.0070  178.0240  137.6150 C   0  0  0  0  0  2  0  0  0  0  0  0
  183.7650  177.7270  139.0960 C   0  0  2  0  0  0  0  0  0  0  0  0
  183.8740  178.8510  140.0640 C   0  0  1  0  0  0  0  0  0  0  0  0
  184.9300  177.9380  139.8620 O   0  0  0  0  0  0  0  0  0  0  0  0
  184.2030  180.1130  139.5650 O   0  0  0  0  0  1  0  0  0  0  0  0
  183.3170  178.7730  141.4560 C   0  0  0  0  0  0  0  0  0  0  0  0
  181.3660  178.6660  143.0740 C   0  0  0  0  0  2  0  0  0  0  0  0
  183.6920  178.6280  143.9260 C   0  0  0  0  0  2  0  0  0  0  0  0
  182.3210  179.2740  144.0910 C   0  0  0  0  0  2  0  0  0  0  0  0
  184.1650  178.6950  142.4980 C   0  0  0  0  0  3  0  0  0  0  0  0
  181.8360  179.0010  141.6580 C   0  0  0  0  0  2  0  0  0  0  0  0
  183.0570  176.4390  139.5140 C   0  0  0  0  0  2  0  0  0  0  0  0
  180.8050  176.9770  138.9180 O   0  0  0  0  0  1  0  0  0  0  0  0
  181.8720  176.1350  138.6100 C   0  0  0  0  0  2  0  0  0  0  0  0
  191.3990  175.3540  138.3190 O   0  0  0  0  0  0  0  0  0  0  0  0
  193.4060  173.3610  135.9040 C   0  0  0  0  0  3  0  0  0  0  0  0
  194.7010  173.7990  136.2200 C   0  0  0  0  0  0  0  0  0  0  0  0
  193.7740  175.2580  137.9230 C   0  0  0  0  0  3  0  0  0  0  0  0
  192.3020  173.8700  136.5950 C   0  0  0  0  0  3  0  0  0  0  0  0
  192.4820  174.8230  137.6110 C   0  0  0  0  0  0  0  0  0  0  0  0
  194.8770  174.7480  137.2320 C   0  0  0  0  0  3  0  0  0  0  0  0
  195.8260  173.3120  135.5490 O   0  0  0  0  0  0  0  0  0  0  0  0
  197.0930  173.9520  135.6110 C   0  0  0  0  0  1  0  0  0  0  0  0
  1  6  1  1  0  0  0
  2 11  2  0  0  0  0
  2 12  1  0  0  0  0
  3 16  1  6  0  0  0
  3 10  1  0  0  0  0
  4  8  1  0  0  0  0
  5  1  1  0  0  0  0
  7  9  1  0  0  0  0
  7  4  2  0  0  0  0
  8  1  1  0  0  0  0
  9  5  1  0  0  0  0
 10 11  1  0  0  0  0
 11  7  1  0  0  0  0
 12 15  2  0  0  0  0
 13 35  1  1  0  0  0
 13  2  1  0  0  0  0
 14  3  1  0  0  0  0
 14 13  1  0  0  0  0
 15  4  1  0  0  0  0
 16 17  1  6  0  0  0
 16 18  1  0  0  0  0
 19 18  1  0  0  0  0
 19 21  1  0  0  0  0
 20 19  2  0  0  0  0
 22 21  1  6  0  0  0
 22 32  1  0  0  0  0
 22 24  1  0  0  0  0
 22 23  1  0  0  0  0
 23 25  1  6  0  0  0
 23 26  1  0  0  0  0
 24 23  1  0  0  0  0
 26 31  1  0  0  0  0
 26 30  2  0  0  0  0
 27 29  1  0  0  0  0
 28 29  1  0  0  0  0
 30 28  1  0  0  0  0
 31 27  1  0  0  0  0
 34 33  1  0  0  0  0
 34 32  1  0  0  0  0
 36 37  2  0  0  0  0
 36 39  1  0  0  0  0
 37 41  1  0  0  0  0
 39 40  2  0  0  0  0
 40 38  1  0  0  0  0
 40 35  1  0  0  0  0
 41 38  2  0  0  0  0
 42 43  1  0  0  0  0
 42 37  1  0  0  0  0
M  END
>  <MODEL>
4

>  <REMARK>
 VINA RESULT:      -8.2      1.497      1.961
  Name = 
  10 active torsions:
  status: ('A' for Active; 'I' for Inactive)
    1  A    between atoms: O_1  and  C_34
    2  A    between atoms: O_1  and  C_35
    3  A    between atoms: C_2  and  N_6
    4  A    between atoms: C_2  and  C_13
    5  A    between atoms: C_3  and  C_4
    6  A    between atoms: C_3  and  C_12
    7  A    between atoms: C_4  and  C_15
    8  A    between atoms: C_11  and  C_14
    9  A    between atoms: C_15  and  C_42
   10  A    between atoms: C_19  and  O_25
                            x       y       z     vdW  Elec       q    Type
                         _______ _______ _______ _____ _____    ______ ____

>  <TORSDO>
F 10

$$$$
=
 OpenBabel10262422253D

 43 48  0  0  1  0  0  0  0  0999 V2000
  181.1830  178.7480  141.3120 C   0  0  1  0  0  3  0  0  0  0  0  0
  186.2770  178.6420  142.0930 C   0  0  0  0  0  0  0  0  0  0  0  0
  187.5390  177.7690  139.6660 C   0  0  2  0  0  3  0  0  0  0  0  0
  183.4850  178.7720  142.3320 C   0  0  0  0  0  0  0  0  0  0  0  0
  181.7820  177.8240  140.2580 C   0  0  0  0  0  2  0  0  0  0  0  0
  179.9310  178.2740  141.6990 O   0  0  0  0  0  1  0  0  0  0  0  0
  184.0630  178.4910  141.0790 C   0  0  0  0  0  0  0  0  0  0  0  0
  182.0620  178.8160  142.4750 N   0  0  0  0  0  2  0  0  0  0  0  0
  183.1720  178.3280  139.8710 C   0  0  0  0  0  2  0  0  0  0  0  0
  186.0850  178.2400  139.5910 C   0  0  0  0  0  2  0  0  0  0  0  0
  185.4650  178.4270  140.9530 C   0  0  0  0  0  0  0  0  0  0  0  0
  185.6820  178.8950  143.3320 C   0  0  0  0  0  3  0  0  0  0  0  0
  187.7770  178.5080  142.0400 C   0  0  2  0  0  3  0  0  0  0  0  0
  188.3240  178.6610  140.6190 C   0  0  0  0  0  2  0  0  0  0  0  0
  184.2950  178.9620  143.4520 C   0  0  0  0  0  3  0  0  0  0  0  0
  188.1980  177.7040  138.2870 C   0  0  2  0  0  3  0  0  0  0  0  0
  188.9340  178.9950  137.9410 C   0  0  0  0  0  1  0  0  0  0  0  0
  187.1880  177.4170  137.2770 N   0  0  0  0  0  2  0  0  0  0  0  0
  186.9870  176.1210  136.7100 C   0  0  0  0  0  0  0  0  0  0  0  0
  187.6590  175.1330  137.1110 O   0  0  0  0  0  0  0  0  0  0  0  0
  185.9940  175.9450  135.6120 C   0  0  0  0  0  2  0  0  0  0  0  0
  184.7480  175.2060  136.1040 C   0  0  2  0  0  0  0  0  0  0  0  0
  183.5880  176.0150  136.5650 C   0  0  1  0  0  0  0  0  0  0  0  0
  184.5090  175.4510  137.4730 O   0  0  0  0  0  0  0  0  0  0  0  0
  183.7090  177.4070  136.5320 O   0  0  0  0  0  1  0  0  0  0  0  0
  182.2120  175.4370  136.7230 C   0  0  0  0  0  0  0  0  0  0  0  0
  179.9680  174.7320  135.7720 C   0  0  0  0  0  2  0  0  0  0  0  0
  180.4510  174.4210  138.1810 C   0  0  0  0  0  2  0  0  0  0  0  0
  179.4300  174.9470  137.1790 C   0  0  0  0  0  2  0  0  0  0  0  0
  181.8180  175.0020  137.9330 C   0  0  0  0  0  3  0  0  0  0  0  0
  181.2390  175.5570  135.5710 C   0  0  0  0  0  2  0  0  0  0  0  0
  184.5490  173.7290  135.7670 C   0  0  0  0  0  2  0  0  0  0  0  0
  183.8770  172.0930  137.3750 O   0  0  0  0  0  1  0  0  0  0  0  0
  184.9690  172.8320  136.9200 C   0  0  0  0  0  2  0  0  0  0  0  0
  188.1610  177.2450  142.5790 O   0  0  0  0  0  0  0  0  0  0  0  0
  191.3790  176.4200  144.2490 C   0  0  0  0  0  3  0  0  0  0  0  0
  191.1030  176.8320  145.5620 C   0  0  0  0  0  0  0  0  0  0  0  0
  188.8800  177.5080  144.8640 C   0  0  0  0  0  3  0  0  0  0  0  0
  190.4090  176.5510  143.2510 C   0  0  0  0  0  3  0  0  0  0  0  0
  189.1510  177.0970  143.5550 C   0  0  0  0  0  0  0  0  0  0  0  0
  189.8500  177.3750  145.8620 C   0  0  0  0  0  3  0  0  0  0  0  0
  192.0500  176.7150  146.5830 O   0  0  0  0  0  0  0  0  0  0  0  0
  192.0540  175.6330  147.5040 C   0  0  0  0  0  1  0  0  0  0  0  0
  1  6  1  1  0  0  0
  1  8  1  0  0  0  0
  2 12  1  0  0  0  0
  3 16  1  6  0  0  0
  3 14  1  0  0  0  0
  4  8  1  0  0  0  0
  4 15  1  0  0  0  0
  5  1  1  0  0  0  0
  7  4  2  0  0  0  0
  9  5  1  0  0  0  0
  9  7  1  0  0  0  0
 10  3  1  0  0  0  0
 10 11  1  0  0  0  0
 11  7  1  0  0  0  0
 11  2  2  0  0  0  0
 12 15  2  0  0  0  0
 13  2  1  0  0  0  0
 13 35  1  6  0  0  0
 14 13  1  0  0  0  0
 16 17  1  6  0  0  0
 18 16  1  0  0  0  0
 19 20  2  0  0  0  0
 19 18  1  0  0  0  0
 21 19  1  0  0  0  0
 22 21  1  6  0  0  0
 22 23  1  0  0  0  0
 22 24  1  0  0  0  0
 23 25  1  6  0  0  0
 23 26  1  0  0  0  0
 23 24  1  0  0  0  0
 26 30  2  0  0  0  0
 27 29  1  0  0  0  0
 29 28  1  0  0  0  0
 30 28  1  0  0  0  0
 31 27  1  0  0  0  0
 31 26  1  0  0  0  0
 32 22  1  0  0  0  0
 32 34  1  0  0  0  0
 34 33  1  0  0  0  0
 35 40  1  0  0  0  0
 36 37  1  0  0  0  0
 37 41  2  0  0  0  0
 37 42  1  0  0  0  0
 38 41  1  0  0  0  0
 39 40  1  0  0  0  0
 39 36  2  0  0  0  0
 40 38  2  0  0  0  0
 42 43  1  0  0  0  0
M  END
>  <MODEL>
5

>  <REMARK>
 VINA RESULT:      -8.2      3.692      7.726
  Name = 
  10 active torsions:
  status: ('A' for Active; 'I' for Inactive)
    1  A    between atoms: O_1  and  C_34
    2  A    between atoms: O_1  and  C_35
    3  A    between atoms: C_2  and  N_6
    4  A    between atoms: C_2  and  C_13
    5  A    between atoms: C_3  and  C_4
    6  A    between atoms: C_3  and  C_12
    7  A    between atoms: C_4  and  C_15
    8  A    between atoms: C_11  and  C_14
    9  A    between atoms: C_15  and  C_42
   10  A    between atoms: C_19  and  O_25
                            x       y       z     vdW  Elec       q    Type
                         _______ _______ _______ _____ _____    ______ ____

>  <TORSDO>
F 10

$$$$
=
 OpenBabel10262422253D

 43 48  0  0  1  0  0  0  0  0999 V2000
  187.7800  177.9150  145.1190 C   0  0  1  0  0  3  0  0  0  0  0  0
  190.2850  177.3130  140.6540 C   0  0  0  0  0  0  0  0  0  0  0  0
  188.3420  177.2250  138.5400 C   0  0  2  0  0  3  0  0  0  0  0  0
  189.5180  177.4920  143.3460 C   0  0  0  0  0  0  0  0  0  0  0  0
  186.7800  177.3600  144.1120 C   0  0  0  0  0  2  0  0  0  0  0  0
  187.5100  177.4010  146.3860 O   0  0  0  0  0  1  0  0  0  0  0  0
  188.5430  177.6100  142.3360 C   0  0  0  0  0  0  0  0  0  0  0  0
  189.1380  177.5560  144.7240 N   0  0  0  0  0  2  0  0  0  0  0  0
  187.1100  177.8950  142.7190 C   0  0  0  0  0  2  0  0  0  0  0  0
  187.8990  177.7630  139.9020 C   0  0  0  0  0  2  0  0  0  0  0  0
  188.9230  177.5240  140.9820 C   0  0  0  0  0  0  0  0  0  0  0  0
  191.2320  177.1740  141.6720 C   0  0  0  0  0  3  0  0  0  0  0  0
  190.7420  177.1320  139.2290 C   0  0  2  0  0  3  0  0  0  0  0  0
  189.7490  177.7160  138.2220 C   0  0  0  0  0  2  0  0  0  0  0  0
  190.8530  177.2650  143.0100 C   0  0  0  0  0  3  0  0  0  0  0  0
  187.3570  177.5850  137.4270 C   0  0  2  0  0  3  0  0  0  0  0  0
  187.3770  179.0750  137.1010 C   0  0  0  0  0  1  0  0  0  0  0  0
  186.0140  177.1740  137.8140 N   0  0  0  0  0  2  0  0  0  0  0  0
  184.9010  177.1720  136.9170 C   0  0  0  0  0  0  0  0  0  0  0  0
  185.0520  177.4820  135.7060 O   0  0  0  0  0  0  0  0  0  0  0  0
  183.5440  176.8280  137.4310 C   0  0  0  0  0  2  0  0  0  0  0  0
  183.1110  177.7880  138.5400 C   0  0  2  0  0  0  0  0  0  0  0  0
  182.6770  177.2090  139.8400 C   0  0  1  0  0  0  0  0  0  0  0  0
  181.7480  177.6240  138.8620 O   0  0  0  0  0  0  0  0  0  0  0  0
  182.6770  175.8180  139.9670 O   0  0  0  0  0  1  0  0  0  0  0  0
  182.5800  178.0260  141.0950 C   0  0  0  0  0  0  0  0  0  0  0  0
  183.6430  179.2100  143.0720 C   0  0  0  0  0  2  0  0  0  0  0  0
  181.1850  179.2540  142.7700 C   0  0  0  0  0  2  0  0  0  0  0  0
  182.3070  179.0030  143.7700 C   0  0  0  0  0  2  0  0  0  0  0  0
  181.3720  178.4430  141.5150 C   0  0  0  0  0  3  0  0  0  0  0  0
  183.8120  178.1740  141.9600 C   0  0  0  0  0  2  0  0  0  0  0  0
  183.4850  179.2680  138.4620 C   0  0  0  0  0  2  0  0  0  0  0  0
  181.8560  180.9030  139.0850 O   0  0  0  0  0  1  0  0  0  0  0  0
  182.3040  180.1190  138.0220 C   0  0  0  0  0  2  0  0  0  0  0  0
  190.9450  175.7450  138.9680 O   0  0  0  0  0  0  0  0  0  0  0  0
  192.3510  173.7200  136.1850 C   0  0  0  0  0  3  0  0  0  0  0  0
  193.5800  174.3690  135.9860 C   0  0  0  0  0  0  0  0  0  0  0  0
  193.0300  175.9160  137.7740 C   0  0  0  0  0  3  0  0  0  0  0  0
  191.4690  174.1670  137.1730 C   0  0  0  0  0  3  0  0  0  0  0  0
  191.8060  175.2700  137.9740 C   0  0  0  0  0  0  0  0  0  0  0  0
  193.9130  175.4670  136.7860 C   0  0  0  0  0  3  0  0  0  0  0  0
  194.4840  173.9480  135.0080 O   0  0  0  0  0  0  0  0  0  0  0  0
  195.0330  172.6370  134.9850 C   0  0  0  0  0  1  0  0  0  0  0  0
  1  6  1  1  0  0  0
  2 11  2  0  0  0  0
  2 12  1  0  0  0  0
  3 16  1  6  0  0  0
  3 10  1  0  0  0  0
  4  8  1  0  0  0  0
  5  1  1  0  0  0  0
  7  9  1  0  0  0  0
  7  4  2  0  0  0  0
  8  1  1  0  0  0  0
  9  5  1  0  0  0  0
 10 11  1  0  0  0  0
 11  7  1  0  0  0  0
 12 15  2  0  0  0  0
 13 35  1  6  0  0  0
 13  2  1  0  0  0  0
 14  3  1  0  0  0  0
 14 13  1  0  0  0  0
 15  4  1  0  0  0  0
 16 17  1  1  0  0  0
 16 18  1  0  0  0  0
 19 21  1  0  0  0  0
 19 18  1  0  0  0  0
 20 19  2  0  0  0  0
 22 21  1  6  0  0  0
 22 24  1  0  0  0  0
 22 23  1  0  0  0  0
 23 25  1  1  0  0  0
 23 26  1  0  0  0  0
 24 23  1  0  0  0  0
 26 30  2  0  0  0  0
 26 31  1  0  0  0  0
 27 29  1  0  0  0  0
 28 29  1  0  0  0  0
 30 28  1  0  0  0  0
 31 27  1  0  0  0  0
 32 22  1  0  0  0  0
 34 32  1  0  0  0  0
 34 33  1  0  0  0  0
 36 39  1  0  0  0  0
 37 36  2  0  0  0  0
 37 41  1  0  0  0  0
 38 40  1  0  0  0  0
 39 40  2  0  0  0  0
 40 35  1  0  0  0  0
 41 38  2  0  0  0  0
 42 37  1  0  0  0  0
 43 42  1  0  0  0  0
M  END
>  <MODEL>
6

>  <REMARK>
 VINA RESULT:      -7.9      1.715      2.614
  Name = 
  10 active torsions:
  status: ('A' for Active; 'I' for Inactive)
    1  A    between atoms: O_1  and  C_34
    2  A    between atoms: O_1  and  C_35
    3  A    between atoms: C_2  and  N_6
    4  A    between atoms: C_2  and  C_13
    5  A    between atoms: C_3  and  C_4
    6  A    between atoms: C_3  and  C_12
    7  A    between atoms: C_4  and  C_15
    8  A    between atoms: C_11  and  C_14
    9  A    between atoms: C_15  and  C_42
   10  A    between atoms: C_19  and  O_25
                            x       y       z     vdW  Elec       q    Type
                         _______ _______ _______ _____ _____    ______ ____

>  <TORSDO>
F 10

$$$$
=
 OpenBabel10262422253D

 43 48  0  0  1  0  0  0  0  0999 V2000
  180.9120  178.8660  142.1150 C   0  0  1  0  0  3  0  0  0  0  0  0
  185.9910  178.7660  142.9910 C   0  0  0  0  0  0  0  0  0  0  0  0
  187.3010  177.9200  140.5800 C   0  0  2  0  0  3  0  0  0  0  0  0
  183.1940  178.8870  143.1790 C   0  0  0  0  0  0  0  0  0  0  0  0
  181.5340  177.9540  141.0640 C   0  0  0  0  0  2  0  0  0  0  0  0
  179.6540  178.3850  142.4740 O   0  0  0  0  0  1  0  0  0  0  0  0
  183.7970  178.6190  141.9340 C   0  0  0  0  0  0  0  0  0  0  0  0
  181.7690  178.9260  143.2950 N   0  0  0  0  0  2  0  0  0  0  0  0
  182.9290  178.4650  140.7080 C   0  0  0  0  0  2  0  0  0  0  0  0
  185.8470  178.3880  140.4820 C   0  0  0  0  0  2  0  0  0  0  0  0
  185.2010  178.5600  141.8340 C   0  0  0  0  0  0  0  0  0  0  0  0
  185.3720  179.0060  144.2210 C   0  0  0  0  0  3  0  0  0  0  0  0
  187.4920  178.6370  142.9660 C   0  0  2  0  0  3  0  0  0  0  0  0
  188.0650  178.8050  141.5570 C   0  0  0  0  0  2  0  0  0  0  0  0
  183.9830  179.0680  144.3150 C   0  0  0  0  0  3  0  0  0  0  0  0
  187.9860  177.8710  139.2130 C   0  0  2  0  0  3  0  0  0  0  0  0
  188.9980  178.9990  139.0360 C   0  0  0  0  0  1  0  0  0  0  0  0
  186.9800  177.9300  138.1620 N   0  0  0  0  0  2  0  0  0  0  0  0
  186.9910  177.0820  137.0120 C   0  0  0  0  0  0  0  0  0  0  0  0
  187.8660  176.1840  136.8840 O   0  0  0  0  0  0  0  0  0  0  0  0
  185.9730  177.2830  135.9400 C   0  0  0  0  0  2  0  0  0  0  0  0
  184.7730  176.3560  136.1350 C   0  0  2  0  0  0  0  0  0  0  0  0
  184.7960  175.0260  135.4680 C   0  0  1  0  0  0  0  0  0  0  0  0
  184.0970  176.1220  134.9190 O   0  0  0  0  0  0  0  0  0  0  0  0
  185.9110  174.7070  134.6890 O   0  0  0  0  0  1  0  0  0  0  0  0
  183.8750  173.9080  135.8620 C   0  0  0  0  0  0  0  0  0  0  0  0
  183.3490  171.8260  137.2130 C   0  0  0  0  0  2  0  0  0  0  0  0
  181.6650  172.7550  135.6510 C   0  0  0  0  0  2  0  0  0  0  0  0
  182.3770  171.4820  136.0930 C   0  0  0  0  0  2  0  0  0  0  0  0
  182.6450  173.8490  135.3200 C   0  0  0  0  0  3  0  0  0  0  0  0
  184.4310  172.7690  136.6880 C   0  0  0  0  0  2  0  0  0  0  0  0
  183.7850  176.6080  137.2740 C   0  0  0  0  0  2  0  0  0  0  0  0
  182.4350  178.5740  137.4490 O   0  0  0  0  0  1  0  0  0  0  0  0
  182.5510  177.3510  136.7880 C   0  0  0  0  0  2  0  0  0  0  0  0
  187.8690  177.3700  143.5000 O   0  0  0  0  0  0  0  0  0  0  0  0
  191.2240  176.7390  144.9720 C   0  0  0  0  0  3  0  0  0  0  0  0
  190.9420  176.8950  146.3380 C   0  0  0  0  0  0  0  0  0  0  0  0
  188.6250  177.3620  145.7870 C   0  0  0  0  0  3  0  0  0  0  0  0
  190.2120  176.8930  144.0210 C   0  0  0  0  0  3  0  0  0  0  0  0
  188.9040  177.2060  144.4260 C   0  0  0  0  0  0  0  0  0  0  0  0
  189.6390  177.2060  146.7380 C   0  0  0  0  0  3  0  0  0  0  0  0
  191.9310  176.7480  147.3140 O   0  0  0  0  0  0  0  0  0  0  0  0
  192.4310  175.4780  147.7140 C   0  0  0  0  0  1  0  0  0  0  0  0
  1  6  1  1  0  0  0
  1  8  1  0  0  0  0
  2 12  1  0  0  0  0
  3 16  1  6  0  0  0
  3 14  1  0  0  0  0
  4  8  1  0  0  0  0
  4 15  1  0  0  0  0
  5  1  1  0  0  0  0
  7  4  2  0  0  0  0
  9  5  1  0  0  0  0
  9  7  1  0  0  0  0
 10  3  1  0  0  0  0
 10 11  1  0  0  0  0
 11  7  1  0  0  0  0
 11  2  2  0  0  0  0
 12 15  2  0  0  0  0
 13  2  1  0  0  0  0
 13 35  1  6  0  0  0
 14 13  1  0  0  0  0
 16 17  1  6  0  0  0
 18 16  1  0  0  0  0
 19 18  1  0  0  0  0
 20 19  2  0  0  0  0
 21 19  1  0  0  0  0
 22 21  1  6  0  0  0
 22 32  1  0  0  0  0
 23 25  1  6  0  0  0
 23 26  1  0  0  0  0
 23 22  1  0  0  0  0
 24 23  1  0  0  0  0
 24 22  1  0  0  0  0
 26 31  1  0  0  0  0
 28 29  1  0  0  0  0
 29 27  1  0  0  0  0
 30 28  1  0  0  0  0
 30 26  2  0  0  0  0
 31 27  1  0  0  0  0
 34 32  1  0  0  0  0
 34 33  1  0  0  0  0
 35 40  1  0  0  0  0
 36 37  1  0  0  0  0
 37 41  2  0  0  0  0
 37 42  1  0  0  0  0
 38 41  1  0  0  0  0
 39 40  1  0  0  0  0
 39 36  2  0  0  0  0
 40 38  2  0  0  0  0
 42 43  1  0  0  0  0
M  END
>  <MODEL>
7

>  <REMARK>
 VINA RESULT:      -7.9      3.791      8.101
  Name = 
  10 active torsions:
  status: ('A' for Active; 'I' for Inactive)
    1  A    between atoms: O_1  and  C_34
    2  A    between atoms: O_1  and  C_35
    3  A    between atoms: C_2  and  N_6
    4  A    between atoms: C_2  and  C_13
    5  A    between atoms: C_3  and  C_4
    6  A    between atoms: C_3  and  C_12
    7  A    between atoms: C_4  and  C_15
    8  A    between atoms: C_11  and  C_14
    9  A    between atoms: C_15  and  C_42
   10  A    between atoms: C_19  and  O_25
                            x       y       z     vdW  Elec       q    Type
                         _______ _______ _______ _____ _____    ______ ____

>  <TORSDO>
F 10

$$$$
=
 OpenBabel10262422253D

 43 48  0  0  1  0  0  0  0  0999 V2000
  190.2000  176.8680  137.0550 C   0  0  1  0  0  3  0  0  0  0  0  0
  185.0780  176.6420  136.5160 C   0  0  0  0  0  0  0  0  0  0  0  0
  183.8800  177.9460  138.7760 C   0  0  2  0  0  3  0  0  0  0  0  0
  187.8580  176.3240  136.3080 C   0  0  0  0  0  0  0  0  0  0  0  0
  189.5910  177.0730  138.4380 C   0  0  0  0  0  2  0  0  0  0  0  0
  191.3960  176.1620  137.1660 O   0  0  0  0  0  1  0  0  0  0  0  0
  187.3240  177.1050  137.3510 C   0  0  0  0  0  0  0  0  0  0  0  0
  189.2720  176.1310  136.2040 N   0  0  0  0  0  2  0  0  0  0  0  0
  188.2600  177.8100  138.3030 C   0  0  0  0  0  2  0  0  0  0  0  0
  185.3650  178.1970  138.5050 C   0  0  0  0  0  2  0  0  0  0  0  0
  185.9280  177.2700  137.4580 C   0  0  0  0  0  0  0  0  0  0  0  0
  185.6280  175.8510  135.5020 C   0  0  0  0  0  3  0  0  0  0  0  0
  183.5770  176.7140  136.6230 C   0  0  2  0  0  3  0  0  0  0  0  0
  183.1120  177.9080  137.4600 C   0  0  0  0  0  2  0  0  0  0  0  0
  187.0090  175.6940  135.3970 C   0  0  0  0  0  3  0  0  0  0  0  0
  183.2860  178.9720  139.7430 C   0  0  2  0  0  3  0  0  0  0  0  0
  182.7380  180.1960  139.0160 C   0  0  0  0  0  1  0  0  0  0  0  0
  184.2990  179.3740  140.7090 N   0  0  0  0  0  2  0  0  0  0  0  0
  184.2600  179.0090  142.0900 C   0  0  0  0  0  0  0  0  0  0  0  0
  183.3490  178.2570  142.5300 O   0  0  0  0  0  0  0  0  0  0  0  0
  185.2900  179.5490  143.0230 C   0  0  0  0  0  2  0  0  0  0  0  0
  186.2570  178.4540  143.4750 C   0  0  2  0  0  0  0  0  0  0  0  0
  187.5350  178.2940  142.7290 C   0  0  1  0  0  0  0  0  0  0  0  0
  186.4190  177.4660  142.4810 O   0  0  0  0  0  0  0  0  0  0  0  0
  187.7710  179.1480  141.6490 O   0  0  0  0  0  1  0  0  0  0  0  0
  188.7000  177.5240  143.2800 C   0  0  0  0  0  0  0  0  0  0  0  0
  190.5030  177.1560  145.0270 C   0  0  0  0  0  2  0  0  0  0  0  0
  190.2830  175.5930  143.1170 C   0  0  0  0  0  2  0  0  0  0  0  0
  191.2650  176.4330  143.9250 C   0  0  0  0  0  2  0  0  0  0  0  0
  189.1150  176.4160  142.6400 C   0  0  0  0  0  3  0  0  0  0  0  0
  189.5020  178.1320  144.4090 C   0  0  0  0  0  2  0  0  0  0  0  0
  186.1100  177.8240  144.8590 C   0  0  0  0  0  2  0  0  0  0  0  0
  184.4250  178.8760  146.1910 O   0  0  0  0  0  1  0  0  0  0  0  0
  185.7930  178.8700  145.9170 C   0  0  0  0  0  2  0  0  0  0  0  0
  183.0820  175.5010  137.1830 O   0  0  0  0  0  0  0  0  0  0  0  0
  184.4530  172.0520  136.9590 C   0  0  0  0  0  3  0  0  0  0  0  0
  184.0710  171.7050  135.6540 C   0  0  0  0  0  0  0  0  0  0  0  0
  183.0410  173.8880  135.3950 C   0  0  0  0  0  3  0  0  0  0  0  0
  184.1310  173.3100  137.4770 C   0  0  0  0  0  3  0  0  0  0  0  0
  183.4220  174.2360  136.6940 C   0  0  0  0  0  0  0  0  0  0  0  0
  183.3650  172.6290  134.8770 C   0  0  0  0  0  3  0  0  0  0  0  0
  184.3760  170.4570  135.1060 O   0  0  0  0  0  0  0  0  0  0  0  0
  185.7070  170.0540  134.8110 C   0  0  0  0  0  1  0  0  0  0  0  0
  1  6  1  1  0  0  0
  1  5  1  0  0  0  0
  2 13  1  0  0  0  0
  2 11  1  0  0  0  0
  3 16  1  1  0  0  0
  4  7  1  0  0  0  0
  7 11  2  0  0  0  0
  7  9  1  0  0  0  0
  8  4  1  0  0  0  0
  8  1  1  0  0  0  0
  9  5  1  0  0  0  0
 10  3  1  0  0  0  0
 11 10  1  0  0  0  0
 12  2  2  0  0  0  0
 13 35  1  1  0  0  0
 13 14  1  0  0  0  0
 14  3  1  0  0  0  0
 15 12  1  0  0  0  0
 15  4  2  0  0  0  0
 16 17  1  6  0  0  0
 16 18  1  0  0  0  0
 18 19  1  0  0  0  0
 19 20  2  0  0  0  0
 19 21  1  0  0  0  0
 22 21  1  6  0  0  0
 22 32  1  0  0  0  0
 23 25  1  6  0  0  0
 23 26  1  0  0  0  0
 23 22  1  0  0  0  0
 24 23  1  0  0  0  0
 24 22  1  0  0  0  0
 26 31  1  0  0  0  0
 28 29  1  0  0  0  0
 29 27  1  0  0  0  0
 30 28  1  0  0  0  0
 30 26  2  0  0  0  0
 31 27  1  0  0  0  0
 32 34  1  0  0  0  0
 34 33  1  0  0  0  0
 36 39  1  0  0  0  0
 37 36  2  0  0  0  0
 38 40  1  0  0  0  0
 40 35  1  0  0  0  0
 40 39  2  0  0  0  0
 41 38  2  0  0  0  0
 41 37  1  0  0  0  0
 42 37  1  0  0  0  0
 43 42  1  0  0  0  0
M  END
>  <MODEL>
8

>  <REMARK>
 VINA RESULT:      -7.6      3.331      6.799
  Name = 
  10 active torsions:
  status: ('A' for Active; 'I' for Inactive)
    1  A    between atoms: O_1  and  C_34
    2  A    between atoms: O_1  and  C_35
    3  A    between atoms: C_2  and  N_6
    4  A    between atoms: C_2  and  C_13
    5  A    between atoms: C_3  and  C_4
    6  A    between atoms: C_3  and  C_12
    7  A    between atoms: C_4  and  C_15
    8  A    between atoms: C_11  and  C_14
    9  A    between atoms: C_15  and  C_42
   10  A    between atoms: C_19  and  O_25
                            x       y       z     vdW  Elec       q    Type
                         _______ _______ _______ _____ _____    ______ ____

>  <TORSDO>
F 10

$$$$
=
 OpenBabel10262422253D

 43 48  0  0  1  0  0  0  0  0999 V2000
  188.4010  177.8800  145.0420 C   0  0  1  0  0  3  0  0  0  0  0  0
  190.6480  177.2520  140.4450 C   0  0  0  0  0  0  0  0  0  0  0  0
  188.5890  177.1590  138.4450 C   0  0  2  0  0  3  0  0  0  0  0  0
  190.0350  177.4460  143.1760 C   0  0  0  0  0  0  0  0  0  0  0  0
  187.3450  177.3230  144.0950 C   0  0  0  0  0  2  0  0  0  0  0  0
  188.2020  177.3730  146.3240 O   0  0  0  0  0  1  0  0  0  0  0  0
  189.0050  177.5610  142.2220 C   0  0  0  0  0  0  0  0  0  0  0  0
  189.7340  177.5160  144.5730 N   0  0  0  0  0  2  0  0  0  0  0  0
  187.5970  177.8510  142.6840 C   0  0  0  0  0  2  0  0  0  0  0  0
  188.2250  177.7050  139.8280 C   0  0  0  0  0  2  0  0  0  0  0  0
  189.3080  177.4670  140.8490 C   0  0  0  0  0  0  0  0  0  0  0  0
  191.6520  177.1160  141.4090 C   0  0  0  0  0  3  0  0  0  0  0  0
  191.0240  177.0640  138.9980 C   0  0  2  0  0  3  0  0  0  0  0  0
  189.9770  177.6450  138.0450 C   0  0  0  0  0  2  0  0  0  0  0  0
  191.3480  177.2140  142.7660 C   0  0  0  0  0  3  0  0  0  0  0  0
  187.5430  177.5160  137.3880 C   0  0  2  0  0  3  0  0  0  0  0  0
  187.6140  178.9850  136.9820 C   0  0  0  0  0  1  0  0  0  0  0  0
  186.2140  177.1980  137.8910 N   0  0  0  0  0  2  0  0  0  0  0  0
  185.0680  177.0480  137.0510 C   0  0  0  0  0  0  0  0  0  0  0  0
  185.1750  177.1330  135.7980 O   0  0  0  0  0  0  0  0  0  0  0  0
  183.7290  176.8180  137.6670 C   0  0  0  0  0  2  0  0  0  0  0  0
  183.1210  178.1270  138.1730 C   0  0  2  0  0  0  0  0  0  0  0  0
  181.6480  178.1850  138.3750 C   0  0  1  0  0  0  0  0  0  0  0  0
  182.2610  178.7020  137.2140 O   0  0  0  0  0  0  0  0  0  0  0  0
  180.9030  177.0410  138.0790 O   0  0  0  0  0  1  0  0  0  0  0  0
  180.9870  179.2570  139.1910 C   0  0  0  0  0  0  0  0  0  0  0  0
  180.0640  180.1400  141.3830 C   0  0  0  0  0  2  0  0  0  0  0  0
  179.9970  181.5500  139.3480 C   0  0  0  0  0  2  0  0  0  0  0  0
  179.1780  181.0290  140.5230 C   0  0  0  0  0  2  0  0  0  0  0  0
  180.6740  180.4270  138.6060 C   0  0  0  0  0  3  0  0  0  0  0  0
  180.5010  178.9140  140.5820 C   0  0  0  0  0  2  0  0  0  0  0  0
  184.0110  179.1870  138.8200 C   0  0  0  0  0  2  0  0  0  0  0  0
  185.3100  179.7010  140.7600 O   0  0  0  0  0  1  0  0  0  0  0  0
  184.3310  178.8410  140.2650 C   0  0  0  0  0  2  0  0  0  0  0  0
  191.2100  175.6750  138.7330 O   0  0  0  0  0  0  0  0  0  0  0  0
  194.4110  174.9470  136.9870 C   0  0  0  0  0  3  0  0  0  0  0  0
  193.9490  174.1780  135.9080 C   0  0  0  0  0  0  0  0  0  0  0  0
  191.6790  174.4220  136.7290 C   0  0  0  0  0  3  0  0  0  0  0  0
  193.5110  175.4510  137.9300 C   0  0  0  0  0  3  0  0  0  0  0  0
  192.1370  175.1900  137.8050 C   0  0  0  0  0  0  0  0  0  0  0  0
  192.5800  173.9200  135.7850 C   0  0  0  0  0  3  0  0  0  0  0  0
  194.8220  173.6600  134.9480 O   0  0  0  0  0  0  0  0  0  0  0  0
  196.2300  173.8490  135.0100 C   0  0  0  0  0  1  0  0  0  0  0  0
  1  6  1  1  0  0  0
  2 11  2  0  0  0  0
  2 12  1  0  0  0  0
  3 16  1  6  0  0  0
  3 10  1  0  0  0  0
  4  8  1  0  0  0  0
  5  1  1  0  0  0  0
  7  9  1  0  0  0  0
  7  4  2  0  0  0  0
  8  1  1  0  0  0  0
  9  5  1  0  0  0  0
 10 11  1  0  0  0  0
 11  7  1  0  0  0  0
 12 15  2  0  0  0  0
 13 35  1  6  0  0  0
 13  2  1  0  0  0  0
 14  3  1  0  0  0  0
 14 13  1  0  0  0  0
 15  4  1  0  0  0  0
 16 17  1  1  0  0  0
 16 18  1  0  0  0  0
 19 21  1  0  0  0  0
 19 18  1  0  0  0  0
 20 19  2  0  0  0  0
 22 21  1  6  0  0  0
 22 23  1  0  0  0  0
 22 32  1  0  0  0  0
 23 25  1  6  0  0  0
 23 26  1  0  0  0  0
 24 22  1  0  0  0  0
 24 23  1  0  0  0  0
 26 31  1  0  0  0  0
 28 29  1  0  0  0  0
 29 27  1  0  0  0  0
 30 26  2  0  0  0  0
 30 28  1  0  0  0  0
 31 27  1  0  0  0  0
 32 34  1  0  0  0  0
 34 33  1  0  0  0  0
 36 39  1  0  0  0  0
 37 36  2  0  0  0  0
 38 40  1  0  0  0  0
 40 39  2  0  0  0  0
 40 35  1  0  0  0  0
 41 37  1  0  0  0  0
 41 38  2  0  0  0  0
 42 43  1  0  0  0  0
 42 37  1  0  0  0  0
M  END
>  <MODEL>
9

>  <REMARK>
 VINA RESULT:      -7.5      1.789      3.411
  Name = 
  10 active torsions:
  status: ('A' for Active; 'I' for Inactive)
    1  A    between atoms: O_1  and  C_34
    2  A    between atoms: O_1  and  C_35
    3  A    between atoms: C_2  and  N_6
    4  A    between atoms: C_2  and  C_13
    5  A    between atoms: C_3  and  C_4
    6  A    between atoms: C_3  and  C_12
    7  A    between atoms: C_4  and  C_15
    8  A    between atoms: C_11  and  C_14
    9  A    between atoms: C_15  and  C_42
   10  A    between atoms: C_19  and  O_25
                            x       y       z     vdW  Elec       q    Type
                         _______ _______ _______ _____ _____    ______ ____

>  <TORSDO>
F 10

$$$$
