=
 OpenBabel10262422423D

 43 48  0  0  1  0  0  0  0  0999 V2000
  190.7590  176.6980  145.5610 O   0  0  0  0  0  0  0  0  0  0  0  0
  187.6500  178.2170  142.0250 C   0  0  2  0  0  3  0  0  0  0  0  0
  189.5020  177.9400  140.3790 C   0  0  0  0  0  2  0  0  0  0  0  0
  189.5880  178.0720  143.9510 C   0  0  2  0  0  3  0  0  0  0  0  0
  191.2220  175.2070  143.7200 C   0  0  0  0  0  2  0  0  0  0  0  0
  191.7860  176.1260  144.8050 C   0  0  0  0  0  2  0  0  0  0  0  0
  189.8860  177.1540  142.7420 C   0  0  1  0  0  3  0  0  0  0  0  0
  190.6380  177.9990  145.0600 C   0  0  0  0  0  2  0  0  0  0  0  0
  189.8840  175.6780  143.1440 C   0  0  0  0  0  2  0  0  0  0  0  0
  188.5000  178.2340  139.2850 C   0  0  0  0  0  0  0  0  0  0  0  0
  188.8510  177.3490  141.6220 C   0  0  1  0  0  3  0  0  0  0  0  0
  187.1100  177.7540  143.3780 C   0  0  0  0  0  2  0  0  0  0  0  0
  186.5930  178.1320  140.9240 C   0  0  2  0  0  3  0  0  0  0  0  0
  187.1960  178.3960  139.5650 C   0  0  0  0  0  3  0  0  0  0  0  0
  188.1590  177.9060  144.4910 C   0  0  0  0  0  2  0  0  0  0  0  0
  188.9920  178.5320  137.9230 C   0  0  0  0  0  0  0  0  0  0  0  0
  189.5210  177.5030  137.0760 N   0  0  0  0  0  2  0  0  0  0  0  0
  188.9960  179.7210  137.5050 O   0  0  0  0  0  0  0  0  0  0  0  0
  189.0180  176.1650  137.0290 C   0  0  0  0  0  0  0  0  0  0  0  0
  187.8500  175.9050  137.4230 O   0  0  0  0  0  0  0  0  0  0  0  0
  189.8830  175.0690  136.5110 C   0  0  0  0  0  2  0  0  0  0  0  0
  189.3300  173.7770  136.9020 N   0  0  0  0  0  2  0  0  0  0  0  0
  187.6620  172.2190  136.0010 C   0  0  0  0  0  3  0  0  0  0  0  0
  188.8970  172.7320  136.0140 C   0  0  0  0  0  0  0  0  0  0  0  0
  189.8710  172.2080  135.0210 C   0  0  0  0  0  1  0  0  0  0  0  0
  186.5400  172.6670  136.8740 C   0  0  0  0  0  2  0  0  0  0  0  0
  184.2550  173.6990  136.4880 C   0  0  2  0  0  0  0  0  0  0  0  0
  184.0860  172.3230  137.0880 C   0  0  0  0  0  2  0  0  0  0  0  0
  185.2270  172.5860  136.1120 C   0  0  2  0  0  3  0  0  0  0  0  0
  183.2550  175.5140  135.0940 C   0  0  0  0  0  3  0  0  0  0  0  0
  184.4250  176.0350  137.1930 C   0  0  0  0  0  3  0  0  0  0  0  0
  183.7920  176.4240  135.9160 C   0  0  0  0  0  3  0  0  0  0  0  0
  184.6380  174.7530  137.4890 C   0  0  0  0  0  3  0  0  0  0  0  0
  183.1920  174.0520  135.4520 C   0  0  0  0  0  2  0  0  0  0  0  0
  185.4610  179.1180  141.1880 C   0  0  0  0  0  2  0  0  0  0  0  0
  182.2600  177.3950  140.1200 C   0  0  0  0  0  3  0  0  0  0  0  0
  181.9310  178.1020  138.9570 C   0  0  0  0  0  0  0  0  0  0  0  0
  183.9170  179.4710  139.2470 C   0  0  0  0  0  3  0  0  0  0  0  0
  183.4110  177.7230  140.8440 C   0  0  0  0  0  3  0  0  0  0  0  0
  184.2420  178.7590  140.4060 C   0  0  0  0  0  0  0  0  0  0  0  0
  182.7670  179.1440  138.5240 C   0  0  0  0  0  3  0  0  0  0  0  0
  180.6450  176.5230  137.5540 C   0  0  0  0  0  1  0  0  0  0  0  0
  180.7740  177.7500  138.2570 O   0  0  0  0  0  0  0  0  0  0  0  0
  2 12  1  1  0  0  0
  4 15  1  1  0  0  0
  4  8  1  0  0  0  0
  5  6  1  0  0  0  0
  6  1  1  0  0  0  0
  7  9  1  1  0  0  0
  7  4  1  0  0  0  0
  8  1  1  0  0  0  0
  9  5  1  0  0  0  0
 10 14  2  0  0  0  0
 10  3  1  0  0  0  0
 11  3  1  6  0  0  0
 11  2  1  0  0  0  0
 11  7  1  0  0  0  0
 12 15  1  0  0  0  0
 13 35  1  1  0  0  0
 13  2  1  0  0  0  0
 14 13  1  0  0  0  0
 16 10  1  0  0  0  0
 17 16  1  0  0  0  0
 18 16  2  0  0  0  0
 19 17  1  0  0  0  0
 19 20  2  0  0  0  0
 21 22  1  0  0  0  0
 21 19  1  0  0  0  0
 23 24  2  0  0  0  0
 23 26  1  0  0  0  0
 24 22  1  0  0  0  0
 25 24  1  0  0  0  0
 27 34  1  6  0  0  0
 27 28  1  0  0  0  0
 27 33  1  0  0  0  0
 29 27  1  0  0  0  0
 29 26  1  1  0  0  0
 29 28  1  0  0  0  0
 30 34  1  0  0  0  0
 30 32  2  0  0  0  0
 31 33  2  0  0  0  0
 32 31  1  0  0  0  0
 36 39  1  0  0  0  0
 37 36  2  0  0  0  0
 38 40  1  0  0  0  0
 40 39  2  0  0  0  0
 40 35  1  0  0  0  0
 41 37  1  0  0  0  0
 41 38  2  0  0  0  0
 42 43  1  0  0  0  0
 43 37  1  0  0  0  0
M  END
>  <MODEL>
1

>  <REMARK>
 VINA RESULT:      -7.7      0.000      0.000
  Name = 
  9 active torsions:
  status: ('A' for Active; 'I' for Inactive)
    1  A    between atoms: C_1  and  C_34
    2  A    between atoms: C_1  and  C_35
    3  A    between atoms: C_2  and  C_27
    4  A    between atoms: C_3  and  N_4
    5  A    between atoms: C_3  and  C_12
    6  A    between atoms: N_4  and  C_15
    7  A    between atoms: C_10  and  C_41
    8  A    between atoms: C_19  and  O_37
    9  A    between atoms: C_22  and  C_41
                            x       y       z     vdW  Elec       q    Type
                         _______ _______ _______ _____ _____    ______ ____

>  <TORSDO>
F 9

$$$$
=
 OpenBabel10262422423D

 43 48  0  0  1  0  0  0  0  0999 V2000
  181.3200  173.2850  135.1420 O   0  0  0  0  0  0  0  0  0  0  0  0
  184.9550  176.4930  136.1280 C   0  0  2  0  0  3  0  0  0  0  0  0
  183.5380  177.4260  137.9550 C   0  0  0  0  0  2  0  0  0  0  0  0
  182.6710  175.2900  135.2220 C   0  0  2  0  0  3  0  0  0  0  0  0
  181.4120  173.3130  137.5550 C   0  0  0  0  0  2  0  0  0  0  0  0
  180.5410  173.3790  136.2990 C   0  0  0  0  0  2  0  0  0  0  0  0
  182.7320  175.3550  136.7660 C   0  0  1  0  0  3  0  0  0  0  0  0
  181.4190  174.6010  134.6780 C   0  0  0  0  0  2  0  0  0  0  0  0
  182.7910  173.9580  137.3860 C   0  0  0  0  0  2  0  0  0  0  0  0
  184.7180  178.2790  138.3610 C   0  0  0  0  0  0  0  0  0  0  0  0
  183.9600  176.1460  137.2460 C   0  0  1  0  0  3  0  0  0  0  0  0
  185.2330  175.2500  135.2830 C   0  0  0  0  0  2  0  0  0  0  0  0
  186.2270  177.0530  136.7630 C   0  0  2  0  0  3  0  0  0  0  0  0
  185.9100  178.1490  137.7520 C   0  0  0  0  0  3  0  0  0  0  0  0
  183.9590  174.7330  134.5960 C   0  0  0  0  0  2  0  0  0  0  0  0
  184.5060  179.3960  139.3060 C   0  0  0  0  0  0  0  0  0  0  0  0
  185.0820  179.3870  140.6170 N   0  0  0  0  0  2  0  0  0  0  0  0
  183.7620  180.3600  138.9790 O   0  0  0  0  0  0  0  0  0  0  0  0
  186.3750  178.8560  140.9220 C   0  0  0  0  0  0  0  0  0  0  0  0
  187.2420  178.7210  140.0190 O   0  0  0  0  0  0  0  0  0  0  0  0
  186.6980  178.4540  142.3200 C   0  0  0  0  0  2  0  0  0  0  0  0
  185.4780  178.0550  143.0140 N   0  0  0  0  0  2  0  0  0  0  0  0
  185.5070  178.2170  145.4620 C   0  0  0  0  0  3  0  0  0  0  0  0
  185.0080  178.5680  144.2720 C   0  0  0  0  0  0  0  0  0  0  0  0
  183.9190  179.5800  144.2530 C   0  0  0  0  0  1  0  0  0  0  0  0
  186.6420  177.2720  145.6700 C   0  0  0  0  0  2  0  0  0  0  0  0
  189.1070  177.5230  145.1300 C   0  0  2  0  0  0  0  0  0  0  0  0
  188.9520  177.1340  146.5810 C   0  0  0  0  0  2  0  0  0  0  0  0
  187.9210  178.0500  145.9300 C   0  0  2  0  0  3  0  0  0  0  0  0
  190.5200  178.6430  143.4010 C   0  0  0  0  0  3  0  0  0  0  0  0
  189.4440  176.4790  142.9430 C   0  0  0  0  0  3  0  0  0  0  0  0
  190.1790  177.6900  142.5240 C   0  0  0  0  0  3  0  0  0  0  0  0
  188.9440  176.3730  144.1750 C   0  0  0  0  0  3  0  0  0  0  0  0
  190.2470  178.5050  144.8770 C   0  0  0  0  0  2  0  0  0  0  0  0
  187.1750  177.5820  135.6920 C   0  0  0  0  0  2  0  0  0  0  0  0
  190.5270  176.7120  137.2290 C   0  0  0  0  0  3  0  0  0  0  0  0
  191.1170  175.9520  136.2130 C   0  0  0  0  0  0  0  0  0  0  0  0
  189.1310  176.2620  134.8480 C   0  0  0  0  0  3  0  0  0  0  0  0
  189.2460  177.2470  137.0570 C   0  0  0  0  0  3  0  0  0  0  0  0
  188.5480  177.0250  135.8660 C   0  0  0  0  0  0  0  0  0  0  0  0
  190.4100  175.7280  135.0190 C   0  0  0  0  0  3  0  0  0  0  0  0
  192.7150  174.5700  137.4990 C   0  0  0  0  0  1  0  0  0  0  0  0
  192.3980  175.4310  136.4150 O   0  0  0  0  0  0  0  0  0  0  0  0
  1  6  1  0  0  0  0
  2 12  1  1  0  0  0
  2 13  1  0  0  0  0
  2 11  1  0  0  0  0
  3 10  1  0  0  0  0
  4 15  1  1  0  0  0
  4  7  1  0  0  0  0
  6  5  1  0  0  0  0
  7 11  1  0  0  0  0
  7  9  1  1  0  0  0
  8  1  1  0  0  0  0
  8  4  1  0  0  0  0
  9  5  1  0  0  0  0
 10 16  1  0  0  0  0
 11  3  1  6  0  0  0
 13 35  1  6  0  0  0
 13 14  1  0  0  0  0
 14 10  2  0  0  0  0
 15 12  1  0  0  0  0
 16 17  1  0  0  0  0
 17 19  1  0  0  0  0
 18 16  2  0  0  0  0
 19 21  1  0  0  0  0
 20 19  2  0  0  0  0
 21 22  1  0  0  0  0
 22 24  1  0  0  0  0
 23 26  1  0  0  0  0
 24 23  2  0  0  0  0
 25 24  1  0  0  0  0
 27 33  1  6  0  0  0
 27 29  1  0  0  0  0
 27 28  1  0  0  0  0
 29 26  1  6  0  0  0
 29 28  1  0  0  0  0
 30 34  1  0  0  0  0
 31 33  2  0  0  0  0
 32 31  1  0  0  0  0
 32 30  2  0  0  0  0
 34 27  1  0  0  0  0
 35 40  1  0  0  0  0
 37 43  1  0  0  0  0
 37 36  2  0  0  0  0
 38 41  2  0  0  0  0
 38 40  1  0  0  0  0
 39 36  1  0  0  0  0
 40 39  2  0  0  0  0
 41 37  1  0  0  0  0
 43 42  1  0  0  0  0
M  END
>  <MODEL>
2

>  <REMARK>
 VINA RESULT:      -7.6      2.793      9.442
  Name = 
  9 active torsions:
  status: ('A' for Active; 'I' for Inactive)
    1  A    between atoms: C_1  and  C_34
    2  A    between atoms: C_1  and  C_35
    3  A    between atoms: C_2  and  C_27
    4  A    between atoms: C_3  and  N_4
    5  A    between atoms: C_3  and  C_12
    6  A    between atoms: N_4  and  C_15
    7  A    between atoms: C_10  and  C_41
    8  A    between atoms: C_19  and  O_37
    9  A    between atoms: C_22  and  C_41
                            x       y       z     vdW  Elec       q    Type
                         _______ _______ _______ _____ _____    ______ ____

>  <TORSDO>
F 9

$$$$
=
 OpenBabel10262422423D

 43 48  0  0  1  0  0  0  0  0999 V2000
  184.9530  172.3400  135.2190 O   0  0  0  0  0  0  0  0  0  0  0  0
  189.0440  174.9900  136.0670 C   0  0  2  0  0  3  0  0  0  0  0  0
  187.7170  176.4020  137.6360 C   0  0  0  0  0  2  0  0  0  0  0  0
  186.6350  174.0770  135.1450 C   0  0  2  0  0  3  0  0  0  0  0  0
  184.9130  172.6970  137.6060 C   0  0  0  0  0  2  0  0  0  0  0  0
  184.1390  172.7300  136.2870 C   0  0  0  0  0  2  0  0  0  0  0  0
  186.6200  174.3510  136.6670 C   0  0  1  0  0  3  0  0  0  0  0  0
  185.3120  173.5410  134.5960 C   0  0  0  0  0  2  0  0  0  0  0  0
  186.3920  173.0660  137.4670 C   0  0  0  0  0  2  0  0  0  0  0  0
  189.0070  177.0910  138.0200 C   0  0  0  0  0  0  0  0  0  0  0  0
  187.9410  174.9810  137.1360 C   0  0  1  0  0  3  0  0  0  0  0  0
  189.1410  173.6100  135.4160 C   0  0  0  0  0  2  0  0  0  0  0  0
  190.3580  175.4100  136.7230 C   0  0  2  0  0  3  0  0  0  0  0  0
  190.1880  176.6740  137.5320 C   0  0  0  0  0  3  0  0  0  0  0  0
  187.8350  173.2250  134.7020 C   0  0  0  0  0  2  0  0  0  0  0  0
  188.9450  178.3510  138.7910 C   0  0  0  0  0  0  0  0  0  0  0  0
  188.7200  178.3520  140.2070 N   0  0  0  0  0  2  0  0  0  0  0  0
  189.0430  179.4560  138.1930 O   0  0  0  0  0  0  0  0  0  0  0  0
  189.2430  177.3680  141.1030 C   0  0  0  0  0  0  0  0  0  0  0  0
  190.2410  176.6720  140.7800 O   0  0  0  0  0  0  0  0  0  0  0  0
  188.5990  177.1620  142.4310 C   0  0  0  0  0  2  0  0  0  0  0  0
  187.2490  177.7140  142.4160 N   0  0  0  0  0  0  0  0  0  0  0  0
  185.2020  178.5150  143.5070 C   0  0  0  0  0  2  0  0  0  0  0  0
  186.4120  177.9480  143.5620 C   0  0  0  0  0  0  0  0  0  0  0  0
  186.9040  177.5030  144.8920 C   0  0  0  0  0  1  0  0  0  0  0  0
  184.5210  178.9590  142.2570 C   0  0  0  0  0  2  0  0  0  0  0  0
  183.1850  177.9840  140.3340 C   0  0  2  0  0  0  0  0  0  0  0  0
  182.2390  178.6110  141.3300 C   0  0  0  0  0  2  0  0  0  0  0  0
  183.5030  177.9160  141.8240 C   0  0  2  0  0  3  0  0  0  0  0  0
  183.5050  176.2840  138.5320 C   0  0  0  0  0  3  0  0  0  0  0  0
  184.3960  178.5630  138.2890 C   0  0  0  0  0  3  0  0  0  0  0  0
  184.2800  177.1520  137.8680 C   0  0  0  0  0  3  0  0  0  0  0  0
  183.8720  178.9800  139.4430 C   0  0  0  0  0  3  0  0  0  0  0  0
  182.6460  176.7070  139.6950 C   0  0  0  0  0  2  0  0  0  0  0  0
  191.4440  175.6120  135.6720 C   0  0  0  0  0  2  0  0  0  0  0  0
  195.1860  175.2500  136.1390 C   0  0  0  0  0  3  0  0  0  0  0  0
  195.2560  174.2450  137.1120 C   0  0  0  0  0  0  0  0  0  0  0  0
  192.8290  174.1270  137.1400 C   0  0  0  0  0  3  0  0  0  0  0  0
  193.9460  175.6910  135.6670 C   0  0  0  0  0  3  0  0  0  0  0  0
  192.7660  175.1280  136.1650 C   0  0  0  0  0  0  0  0  0  0  0  0
  194.0670  173.6860  137.6120 C   0  0  0  0  0  3  0  0  0  0  0  0
  197.6570  174.6640  137.5310 C   0  0  0  0  0  1  0  0  0  0  0  0
  196.5100  173.8270  137.5640 O   0  0  0  0  0  0  0  0  0  0  0  0
  1  6  1  0  0  0  0
  2 12  1  1  0  0  0
  2 13  1  0  0  0  0
  2 11  1  0  0  0  0
  3 10  1  0  0  0  0
  4  8  1  1  0  0  0
  4  7  1  0  0  0  0
  6  5  1  0  0  0  0
  7 11  1  0  0  0  0
  7  9  1  1  0  0  0
  8  1  1  0  0  0  0
  9  5  1  0  0  0  0
 10 16  1  0  0  0  0
 11  3  1  6  0  0  0
 13 35  1  6  0  0  0
 13 14  1  0  0  0  0
 14 10  2  0  0  0  0
 15  4  1  0  0  0  0
 15 12  1  0  0  0  0
 16 17  1  0  0  0  0
 17 19  1  0  0  0  0
 18 16  2  0  0  0  0
 19 21  1  0  0  0  0
 20 19  2  0  0  0  0
 22 21  1  0  0  0  0
 22 24  2  0  0  0  0
 23 24  1  0  0  0  0
 24 25  1  0  0  0  0
 26 23  1  0  0  0  0
 27 33  1  6  0  0  0
 27 28  1  0  0  0  0
 27 29  1  0  0  0  0
 28 29  1  0  0  0  0
 29 26  1  6  0  0  0
 30 34  1  0  0  0  0
 31 33  2  0  0  0  0
 32 31  1  0  0  0  0
 32 30  2  0  0  0  0
 34 27  1  0  0  0  0
 35 40  1  0  0  0  0
 36 37  1  0  0  0  0
 37 43  1  0  0  0  0
 37 41  2  0  0  0  0
 38 41  1  0  0  0  0
 39 36  2  0  0  0  0
 39 40  1  0  0  0  0
 40 38  2  0  0  0  0
 42 43  1  0  0  0  0
M  END
>  <MODEL>
3

>  <REMARK>
 VINA RESULT:      -7.6      3.038      8.900
  Name = 
  9 active torsions:
  status: ('A' for Active; 'I' for Inactive)
    1  A    between atoms: C_1  and  C_34
    2  A    between atoms: C_1  and  C_35
    3  A    between atoms: C_2  and  C_27
    4  A    between atoms: C_3  and  N_4
    5  A    between atoms: C_3  and  C_12
    6  A    between atoms: N_4  and  C_15
    7  A    between atoms: C_10  and  C_41
    8  A    between atoms: C_19  and  O_37
    9  A    between atoms: C_22  and  C_41
                            x       y       z     vdW  Elec       q    Type
                         _______ _______ _______ _____ _____    ______ ____

>  <TORSDO>
F 9

$$$$
=
 OpenBabel10262422423D

 43 48  0  0  1  0  0  0  0  0999 V2000
  186.2110  178.3720  146.7720 O   0  0  0  0  0  0  0  0  0  0  0  0
  183.1130  178.8820  142.9490 C   0  0  2  0  0  3  0  0  0  0  0  0
  185.0970  179.2290  141.4800 C   0  0  0  0  0  2  0  0  0  0  0  0
  184.8160  179.3290  145.0430 C   0  0  2  0  0  3  0  0  0  0  0  0
  187.2860  177.1310  145.0020 C   0  0  0  0  0  2  0  0  0  0  0  0
  187.4310  178.1650  146.1200 C   0  0  0  0  0  2  0  0  0  0  0  0
  185.4960  178.5700  143.8800 C   0  0  1  0  0  3  0  0  0  0  0  0
  185.7310  179.5750  146.2430 C   0  0  0  0  0  2  0  0  0  0  0  0
  185.9250  177.1630  144.3010 C   0  0  0  0  0  2  0  0  0  0  0  0
  184.1570  179.2080  140.2960 C   0  0  0  0  0  0  0  0  0  0  0  0
  184.5580  178.4440  142.6680 C   0  0  1  0  0  3  0  0  0  0  0  0
  182.6280  178.2520  144.2540 C   0  0  0  0  0  2  0  0  0  0  0  0
  182.2410  178.4840  141.7590 C   0  0  2  0  0  3  0  0  0  0  0  0
  182.8490  178.9450  140.4550 C   0  0  0  0  0  3  0  0  0  0  0  0
  183.4710  178.7110  145.4550 C   0  0  0  0  0  2  0  0  0  0  0  0
  184.6500  179.6660  138.9800 C   0  0  0  0  0  0  0  0  0  0  0  0
  185.3870  178.7950  138.1130 N   0  0  0  0  0  2  0  0  0  0  0  0
  184.4650  180.8610  138.6230 O   0  0  0  0  0  0  0  0  0  0  0  0
  185.1280  177.3960  137.9700 C   0  0  0  0  0  0  0  0  0  0  0  0
  184.0080  176.9160  138.2860 O   0  0  0  0  0  0  0  0  0  0  0  0
  186.1940  176.4970  137.4460 C   0  0  0  0  0  2  0  0  0  0  0  0
  187.4360  176.7240  138.1770 N   0  0  0  0  0  0  0  0  0  0  0  0
  189.6910  177.6580  138.4220 C   0  0  0  0  0  2  0  0  0  0  0  0
  188.5740  177.4690  137.7110 C   0  0  0  0  0  0  0  0  0  0  0  0
  188.5250  178.0390  136.3400 C   0  0  0  0  0  1  0  0  0  0  0  0
  189.9450  177.1040  139.7830 C   0  0  0  0  0  2  0  0  0  0  0  0
  189.7040  177.6040  142.2580 C   0  0  2  0  0  0  0  0  0  0  0  0
  188.3530  177.7210  141.5920 C   0  0  0  0  0  2  0  0  0  0  0  0
  189.6070  178.1470  140.8370 C   0  0  2  0  0  3  0  0  0  0  0  0
  191.1700  178.2950  144.1590 C   0  0  0  0  0  3  0  0  0  0  0  0
  191.0690  175.9470  143.4320 C   0  0  0  0  0  3  0  0  0  0  0  0
  191.6640  177.0510  144.2130 C   0  0  0  0  0  3  0  0  0  0  0  0
  190.1300  176.1850  142.5150 C   0  0  0  0  0  3  0  0  0  0  0  0
  189.9340  178.6300  143.3640 C   0  0  0  0  0  2  0  0  0  0  0  0
  180.8360  179.0570  141.9060 C   0  0  0  0  0  2  0  0  0  0  0  0
  179.7290  181.4230  139.1620 C   0  0  0  0  0  3  0  0  0  0  0  0
  179.3930  180.5310  138.1360 C   0  0  0  0  0  0  0  0  0  0  0  0
  179.9930  178.6700  139.5780 C   0  0  0  0  0  3  0  0  0  0  0  0
  180.1940  180.9420  140.3900 C   0  0  0  0  0  3  0  0  0  0  0  0
  180.3240  179.5660  140.6010 C   0  0  0  0  0  0  0  0  0  0  0  0
  179.5290  179.1490  138.3510 C   0  0  0  0  0  3  0  0  0  0  0  0
  179.7430  181.1090  135.7570 C   0  0  0  0  0  1  0  0  0  0  0  0
  178.9310  181.0420  136.9200 O   0  0  0  0  0  0  0  0  0  0  0  0
  2 12  1  1  0  0  0
  4 15  1  1  0  0  0
  4  8  1  0  0  0  0
  5  6  1  0  0  0  0
  6  1  1  0  0  0  0
  7  9  1  1  0  0  0
  7  4  1  0  0  0  0
  8  1  1  0  0  0  0
  9  5  1  0  0  0  0
 10 14  2  0  0  0  0
 10  3  1  0  0  0  0
 11  3  1  6  0  0  0
 11  2  1  0  0  0  0
 11  7  1  0  0  0  0
 12 15  1  0  0  0  0
 13 35  1  1  0  0  0
 13  2  1  0  0  0  0
 14 13  1  0  0  0  0
 16 10  1  0  0  0  0
 17 16  1  0  0  0  0
 18 16  2  0  0  0  0
 19 17  1  0  0  0  0
 19 20  2  0  0  0  0
 21 19  1  0  0  0  0
 21 22  1  0  0  0  0
 23 26  1  0  0  0  0
 24 22  2  0  0  0  0
 24 23  1  0  0  0  0
 25 24  1  0  0  0  0
 27 28  1  1  0  0  0
 27 33  1  0  0  0  0
 27 34  1  0  0  0  0
 29 26  1  6  0  0  0
 29 28  1  0  0  0  0
 29 27  1  0  0  0  0
 30 32  2  0  0  0  0
 31 32  1  0  0  0  0
 33 31  2  0  0  0  0
 34 30  1  0  0  0  0
 36 39  1  0  0  0  0
 37 41  1  0  0  0  0
 37 36  2  0  0  0  0
 38 40  1  0  0  0  0
 39 40  2  0  0  0  0
 40 35  1  0  0  0  0
 41 38  2  0  0  0  0
 42 43  1  0  0  0  0
 43 37  1  0  0  0  0
M  END
>  <MODEL>
4

>  <REMARK>
 VINA RESULT:      -7.4      2.867      5.988
  Name = 
  9 active torsions:
  status: ('A' for Active; 'I' for Inactive)
    1  A    between atoms: C_1  and  C_34
    2  A    between atoms: C_1  and  C_35
    3  A    between atoms: C_2  and  C_27
    4  A    between atoms: C_3  and  N_4
    5  A    between atoms: C_3  and  C_12
    6  A    between atoms: N_4  and  C_15
    7  A    between atoms: C_10  and  C_41
    8  A    between atoms: C_19  and  O_37
    9  A    between atoms: C_22  and  C_41
                            x       y       z     vdW  Elec       q    Type
                         _______ _______ _______ _____ _____    ______ ____

>  <TORSDO>
F 9

$$$$
=
 OpenBabel10262422423D

 43 48  0  0  1  0  0  0  0  0999 V2000
  195.2760  174.1840  135.4370 O   0  0  0  0  0  0  0  0  0  0  0  0
  190.5550  174.4200  136.8980 C   0  0  2  0  0  3  0  0  0  0  0  0
  191.0360  176.6750  137.8460 C   0  0  0  0  0  2  0  0  0  0  0  0
  193.2690  174.0920  136.7850 C   0  0  2  0  0  3  0  0  0  0  0  0
  194.6320  176.4510  134.9110 C   0  0  0  0  0  2  0  0  0  0  0  0
  195.6690  175.5220  135.5430 C   0  0  0  0  0  2  0  0  0  0  0  0
  192.8360  175.5470  136.4900 C   0  0  1  0  0  3  0  0  0  0  0  0
  194.7790  173.8640  136.7060 C   0  0  0  0  0  2  0  0  0  0  0  0
  193.1890  175.9600  135.0600 C   0  0  0  0  0  2  0  0  0  0  0  0
  189.5570  176.8110  138.1310 C   0  0  0  0  0  0  0  0  0  0  0  0
  191.3230  175.7330  136.6850 C   0  0  1  0  0  3  0  0  0  0  0  0
  190.9860  173.3950  135.8500 C   0  0  0  0  0  2  0  0  0  0  0  0
  189.0560  174.7130  136.8340 C   0  0  2  0  0  3  0  0  0  0  0  0
  188.6850  175.8700  137.7310 C   0  0  0  0  0  3  0  0  0  0  0  0
  192.4810  173.0570  135.9660 C   0  0  0  0  0  2  0  0  0  0  0  0
  189.0940  177.8970  139.0200 C   0  0  0  0  0  0  0  0  0  0  0  0
  189.0100  177.7180  140.4400 N   0  0  0  0  0  2  0  0  0  0  0  0
  188.7160  178.9930  138.5260 O   0  0  0  0  0  0  0  0  0  0  0  0
  189.9410  176.9500  141.2080 C   0  0  0  0  0  0  0  0  0  0  0  0
  191.0960  176.7110  140.7650 O   0  0  0  0  0  0  0  0  0  0  0  0
  189.5410  176.4250  142.5440 C   0  0  0  0  0  2  0  0  0  0  0  0
  189.4280  177.5260  143.4940 N   0  0  0  0  0  2  0  0  0  0  0  0
  187.9230  177.2780  145.4150 C   0  0  0  0  0  3  0  0  0  0  0  0
  189.1490  177.4120  144.9000 C   0  0  0  0  0  0  0  0  0  0  0  0
  190.2980  177.4090  145.8430 C   0  0  0  0  0  1  0  0  0  0  0  0
  186.6640  177.1920  144.6200 C   0  0  0  0  0  2  0  0  0  0  0  0
  184.7090  178.8020  144.4990 C   0  0  2  0  0  0  0  0  0  0  0  0
  185.7630  179.3680  145.4210 C   0  0  0  0  0  2  0  0  0  0  0  0
  185.5280  177.8620  145.3760 C   0  0  2  0  0  3  0  0  0  0  0  0
  182.2910  178.7360  143.8730 C   0  0  0  0  0  3  0  0  0  0  0  0
  184.0380  178.8970  142.1480 C   0  0  0  0  0  3  0  0  0  0  0  0
  182.6400  178.6870  142.5810 C   0  0  0  0  0  3  0  0  0  0  0  0
  185.0270  178.9700  143.0400 C   0  0  0  0  0  3  0  0  0  0  0  0
  183.2800  179.0840  144.9550 C   0  0  0  0  0  2  0  0  0  0  0  0
  188.2490  173.4790  137.2200 C   0  0  0  0  0  2  0  0  0  0  0  0
  185.0890  174.5050  135.4010 C   0  0  0  0  0  3  0  0  0  0  0  0
  184.0970  173.9510  136.2180 C   0  0  0  0  0  0  0  0  0  0  0  0
  185.8210  173.0910  137.6990 C   0  0  0  0  0  3  0  0  0  0  0  0
  186.4400  174.3560  135.7290 C   0  0  0  0  0  3  0  0  0  0  0  0
  186.8070  173.6510  136.8800 C   0  0  0  0  0  0  0  0  0  0  0  0
  184.4710  173.2400  137.3720 C   0  0  0  0  0  3  0  0  0  0  0  0
  181.7480  174.4570  136.8040 C   0  0  0  0  0  1  0  0  0  0  0  0
  182.7560  174.1180  135.8620 O   0  0  0  0  0  0  0  0  0  0  0  0
  1  6  1  0  0  0  0
  1  8  1  0  0  0  0
  2 12  1  6  0  0  0
  3 10  1  0  0  0  0
  4 15  1  6  0  0  0
  5  9  1  0  0  0  0
  5  6  1  0  0  0  0
  7  9  1  6  0  0  0
  7 11  1  0  0  0  0
  7  4  1  0  0  0  0
  8  4  1  0  0  0  0
 10 16  1  0  0  0  0
 11  2  1  0  0  0  0
 11  3  1  1  0  0  0
 12 15  1  0  0  0  0
 13  2  1  0  0  0  0
 13 35  1  1  0  0  0
 13 14  1  0  0  0  0
 14 10  2  0  0  0  0
 16 17  1  0  0  0  0
 17 19  1  0  0  0  0
 18 16  2  0  0  0  0
 19 21  1  0  0  0  0
 20 19  2  0  0  0  0
 21 22  1  0  0  0  0
 22 24  1  0  0  0  0
 24 23  2  0  0  0  0
 24 25  1  0  0  0  0
 26 23  1  0  0  0  0
 27 33  1  6  0  0  0
 27 34  1  0  0  0  0
 27 29  1  0  0  0  0
 27 28  1  0  0  0  0
 29 26  1  6  0  0  0
 29 28  1  0  0  0  0
 30 34  1  0  0  0  0
 31 32  1  0  0  0  0
 31 33  2  0  0  0  0
 32 30  2  0  0  0  0
 36 39  2  0  0  0  0
 36 37  1  0  0  0  0
 37 41  2  0  0  0  0
 39 40  1  0  0  0  0
 40 35  1  0  0  0  0
 40 38  2  0  0  0  0
 41 38  1  0  0  0  0
 43 37  1  0  0  0  0
 43 42  1  0  0  0  0
M  END
>  <MODEL>
5

>  <REMARK>
 VINA RESULT:      -7.3      3.042      7.726
  Name = 
  9 active torsions:
  status: ('A' for Active; 'I' for Inactive)
    1  A    between atoms: C_1  and  C_34
    2  A    between atoms: C_1  and  C_35
    3  A    between atoms: C_2  and  C_27
    4  A    between atoms: C_3  and  N_4
    5  A    between atoms: C_3  and  C_12
    6  A    between atoms: N_4  and  C_15
    7  A    between atoms: C_10  and  C_41
    8  A    between atoms: C_19  and  O_37
    9  A    between atoms: C_22  and  C_41
                            x       y       z     vdW  Elec       q    Type
                         _______ _______ _______ _____ _____    ______ ____

>  <TORSDO>
F 9

$$$$
=
 OpenBabel10262422423D

 43 48  0  0  1  0  0  0  0  0999 V2000
  180.4240  172.9800  137.0140 O   0  0  0  0  0  0  0  0  0  0  0  0
  181.3470  177.5740  138.6000 C   0  0  2  0  0  3  0  0  0  0  0  0
  183.7520  176.9450  138.7990 C   0  0  0  0  0  2  0  0  0  0  0  0
  180.8490  174.8890  138.4380 C   0  0  2  0  0  3  0  0  0  0  0  0
  182.4650  173.5760  135.8690 C   0  0  0  0  0  2  0  0  0  0  0  0
  181.7090  172.5310  136.6910 C   0  0  0  0  0  2  0  0  0  0  0  0
  182.1730  175.2870  137.7450 C   0  0  1  0  0  3  0  0  0  0  0  0
  180.5240  173.3970  138.3460 C   0  0  0  0  0  2  0  0  0  0  0  0
  182.1220  175.0220  136.2390 C   0  0  0  0  0  2  0  0  0  0  0  0
  184.0490  178.3940  139.1130 C   0  0  0  0  0  0  0  0  0  0  0  0
  182.4930  176.7750  137.9600 C   0  0  1  0  0  3  0  0  0  0  0  0
  180.0340  177.2550  137.8850 C   0  0  0  0  0  2  0  0  0  0  0  0
  181.6910  179.0610  138.5350 C   0  0  2  0  0  3  0  0  0  0  0  0
  183.0810  179.3260  139.0640 C   0  0  0  0  0  3  0  0  0  0  0  0
  179.6630  175.7690  138.0130 C   0  0  0  0  0  2  0  0  0  0  0  0
  185.3740  178.7530  139.6600 C   0  0  0  0  0  0  0  0  0  0  0  0
  185.5170  179.2970  140.9780 N   0  0  0  0  0  2  0  0  0  0  0  0
  186.4030  178.6280  138.9420 O   0  0  0  0  0  0  0  0  0  0  0  0
  184.7220  178.9030  142.1000 C   0  0  0  0  0  0  0  0  0  0  0  0
  184.1240  177.7950  142.1040 O   0  0  0  0  0  0  0  0  0  0  0  0
  184.5980  179.8130  143.2730 C   0  0  0  0  0  2  0  0  0  0  0  0
  185.5750  179.4450  144.2910 N   0  0  0  0  0  2  0  0  0  0  0  0
  186.2040  177.3960  145.4860 C   0  0  0  0  0  3  0  0  0  0  0  0
  185.4030  178.4540  145.3190 C   0  0  0  0  0  0  0  0  0  0  0  0
  184.2850  178.6310  146.2810 C   0  0  0  0  0  1  0  0  0  0  0  0
  187.4100  177.0960  144.6620 C   0  0  0  0  0  2  0  0  0  0  0  0
  189.9330  177.3490  144.6640 C   0  0  2  0  0  0  0  0  0  0  0  0
  189.4690  176.9710  146.0510 C   0  0  0  0  0  2  0  0  0  0  0  0
  188.6030  177.8790  145.1860 C   0  0  2  0  0  3  0  0  0  0  0  0
  191.6840  178.4590  143.2700 C   0  0  0  0  0  3  0  0  0  0  0  0
  190.7340  176.2880  142.6100 C   0  0  0  0  0  3  0  0  0  0  0  0
  191.5410  177.4980  142.3480 C   0  0  0  0  0  3  0  0  0  0  0  0
  189.9810  176.1910  143.7060 C   0  0  0  0  0  3  0  0  0  0  0  0
  191.1000  178.3320  144.6540 C   0  0  0  0  0  2  0  0  0  0  0  0
  180.6750  179.8840  139.3190 C   0  0  0  0  0  2  0  0  0  0  0  0
  180.3230  182.4210  136.5280 C   0  0  0  0  0  3  0  0  0  0  0  0
  179.4710  183.3680  137.1090 C   0  0  0  0  0  0  0  0  0  0  0  0
  179.4110  182.0400  139.1430 C   0  0  0  0  0  3  0  0  0  0  0  0
  180.7180  181.2900  137.2490 C   0  0  0  0  0  3  0  0  0  0  0  0
  180.2650  181.1000  138.5580 C   0  0  0  0  0  0  0  0  0  0  0  0
  179.0150  183.1700  138.4240 C   0  0  0  0  0  3  0  0  0  0  0  0
  179.2490  185.8160  136.8400 C   0  0  0  0  0  1  0  0  0  0  0  0
  179.0940  184.4870  136.3630 O   0  0  0  0  0  0  0  0  0  0  0  0
  1  8  1  0  0  0  0
  2 12  1  6  0  0  0
  3 10  1  0  0  0  0
  4 15  1  6  0  0  0
  5  9  1  0  0  0  0
  5  6  1  0  0  0  0
  6  1  1  0  0  0  0
  7  9  1  6  0  0  0
  7 11  1  0  0  0  0
  7  4  1  0  0  0  0
  8  4  1  0  0  0  0
 10 16  1  0  0  0  0
 11  2  1  0  0  0  0
 11  3  1  1  0  0  0
 12 15  1  0  0  0  0
 13  2  1  0  0  0  0
 13 14  1  0  0  0  0
 13 35  1  1  0  0  0
 14 10  2  0  0  0  0
 16 17  1  0  0  0  0
 17 19  1  0  0  0  0
 18 16  2  0  0  0  0
 19 20  2  0  0  0  0
 19 21  1  0  0  0  0
 21 22  1  0  0  0  0
 22 24  1  0  0  0  0
 24 23  2  0  0  0  0
 24 25  1  0  0  0  0
 26 23  1  0  0  0  0
 27 33  1  6  0  0  0
 27 29  1  0  0  0  0
 27 28  1  0  0  0  0
 29 26  1  6  0  0  0
 29 28  1  0  0  0  0
 30 34  1  0  0  0  0
 31 33  2  0  0  0  0
 32 31  1  0  0  0  0
 32 30  2  0  0  0  0
 34 27  1  0  0  0  0
 36 37  2  0  0  0  0
 36 39  1  0  0  0  0
 37 41  1  0  0  0  0
 39 40  2  0  0  0  0
 40 38  1  0  0  0  0
 40 35  1  0  0  0  0
 41 38  2  0  0  0  0
 43 42  1  0  0  0  0
 43 37  1  0  0  0  0
M  END
>  <MODEL>
6

>  <REMARK>
 VINA RESULT:      -7.2      3.516      9.107
  Name = 
  9 active torsions:
  status: ('A' for Active; 'I' for Inactive)
    1  A    between atoms: C_1  and  C_34
    2  A    between atoms: C_1  and  C_35
    3  A    between atoms: C_2  and  C_27
    4  A    between atoms: C_3  and  N_4
    5  A    between atoms: C_3  and  C_12
    6  A    between atoms: N_4  and  C_15
    7  A    between atoms: C_10  and  C_41
    8  A    between atoms: C_19  and  O_37
    9  A    between atoms: C_22  and  C_41
                            x       y       z     vdW  Elec       q    Type
                         _______ _______ _______ _____ _____    ______ ____

>  <TORSDO>
F 9

$$$$
=
 OpenBabel10262422423D

 43 48  0  0  1  0  0  0  0  0999 V2000
  184.3410  171.8080  136.2020 O   0  0  0  0  0  0  0  0  0  0  0  0
  184.5200  176.4810  137.8180 C   0  0  2  0  0  3  0  0  0  0  0  0
  186.9610  176.4870  137.3080 C   0  0  0  0  0  2  0  0  0  0  0  0
  184.6690  173.7580  137.5960 C   0  0  2  0  0  3  0  0  0  0  0  0
  185.7650  172.9100  134.5940 C   0  0  0  0  0  2  0  0  0  0  0  0
  185.5510  171.7040  135.5100 C   0  0  0  0  0  2  0  0  0  0  0  0
  185.6050  174.4840  136.6010 C   0  0  1  0  0  3  0  0  0  0  0  0
  184.7060  172.2330  137.4840 C   0  0  0  0  0  2  0  0  0  0  0  0
  185.1980  174.2190  135.1500 C   0  0  0  0  0  2  0  0  0  0  0  0
  186.9700  177.9630  137.6370 C   0  0  0  0  0  0  0  0  0  0  0  0
  185.5980  176.0040  136.8330 C   0  0  1  0  0  3  0  0  0  0  0  0
  183.1790  175.8390  137.4650 C   0  0  0  0  0  2  0  0  0  0  0  0
  184.4570  178.0070  137.7740 C   0  0  2  0  0  3  0  0  0  0  0  0
  185.8310  178.6170  137.9230 C   0  0  0  0  0  3  0  0  0  0  0  0
  183.2340  174.3070  137.5770 C   0  0  0  0  0  2  0  0  0  0  0  0
  188.2670  178.6470  137.8290 C   0  0  0  0  0  0  0  0  0  0  0  0
  188.7750  178.9340  139.1370 N   0  0  0  0  0  2  0  0  0  0  0  0
  188.9240  179.0360  136.8260 O   0  0  0  0  0  0  0  0  0  0  0  0
  188.6150  178.0720  140.2670 C   0  0  0  0  0  0  0  0  0  0  0  0
  188.3680  176.8470  140.1100 O   0  0  0  0  0  0  0  0  0  0  0  0
  188.7370  178.6280  141.6440 C   0  0  0  0  0  2  0  0  0  0  0  0
  188.9830  177.5490  142.5940 N   0  0  0  0  0  2  0  0  0  0  0  0
  188.0940  177.4780  144.8790 C   0  0  0  0  0  3  0  0  0  0  0  0
  189.0990  177.6800  144.0210 C   0  0  0  0  0  0  0  0  0  0  0  0
  190.4290  178.0280  144.5860 C   0  0  0  0  0  1  0  0  0  0  0  0
  186.7150  177.0580  144.4990 C   0  0  0  0  0  2  0  0  0  0  0  0
  184.8220  178.7460  144.5220 C   0  0  2  0  0  0  0  0  0  0  0  0
  185.9920  179.3000  145.3000 C   0  0  0  0  0  2  0  0  0  0  0  0
  185.6950  177.8050  145.3440 C   0  0  2  0  0  3  0  0  0  0  0  0
  182.3500  178.7610  144.1620 C   0  0  0  0  0  3  0  0  0  0  0  0
  183.9020  178.7820  142.2550 C   0  0  0  0  0  3  0  0  0  0  0  0
  182.5530  178.6490  142.8440 C   0  0  0  0  0  3  0  0  0  0  0  0
  184.9850  178.8460  143.0310 C   0  0  0  0  0  3  0  0  0  0  0  0
  183.4640  179.1070  145.1160 C   0  0  0  0  0  2  0  0  0  0  0  0
  183.5340  178.5390  138.8640 C   0  0  0  0  0  2  0  0  0  0  0  0
  180.7370  180.0720  136.8190 C   0  0  0  0  0  3  0  0  0  0  0  0
  180.7250  181.3880  137.2950 C   0  0  0  0  0  0  0  0  0  0  0  0
  182.5580  180.8460  138.7940 C   0  0  0  0  0  3  0  0  0  0  0  0
  181.6540  179.1460  137.3260 C   0  0  0  0  0  3  0  0  0  0  0  0
  182.5680  179.5330  138.3120 C   0  0  0  0  0  0  0  0  0  0  0  0
  181.6420  181.7710  138.2880 C   0  0  0  0  0  3  0  0  0  0  0  0
  179.7860  183.6680  137.1070 C   0  0  0  0  0  1  0  0  0  0  0  0
  179.7960  182.2890  136.7680 O   0  0  0  0  0  0  0  0  0  0  0  0
  1  8  1  0  0  0  0
  2 12  1  6  0  0  0
  3 10  1  0  0  0  0
  4  8  1  6  0  0  0
  5  9  1  0  0  0  0
  5  6  1  0  0  0  0
  6  1  1  0  0  0  0
  7  9  1  6  0  0  0
  7 11  1  0  0  0  0
  7  4  1  0  0  0  0
 10 16  1  0  0  0  0
 10 14  2  0  0  0  0
 11  3  1  1  0  0  0
 11  2  1  0  0  0  0
 12 15  1  0  0  0  0
 13  2  1  0  0  0  0
 13 14  1  0  0  0  0
 13 35  1  1  0  0  0
 15  4  1  0  0  0  0
 16 17  1  0  0  0  0
 17 19  1  0  0  0  0
 18 16  2  0  0  0  0
 19 21  1  0  0  0  0
 20 19  2  0  0  0  0
 21 22  1  0  0  0  0
 22 24  1  0  0  0  0
 24 25  1  0  0  0  0
 24 23  2  0  0  0  0
 26 23  1  0  0  0  0
 27 33  1  6  0  0  0
 27 34  1  0  0  0  0
 27 28  1  0  0  0  0
 27 29  1  0  0  0  0
 28 29  1  0  0  0  0
 29 26  1  6  0  0  0
 30 34  1  0  0  0  0
 31 32  1  0  0  0  0
 31 33  2  0  0  0  0
 32 30  2  0  0  0  0
 36 37  2  0  0  0  0
 36 39  1  0  0  0  0
 37 41  1  0  0  0  0
 39 40  2  0  0  0  0
 40 38  1  0  0  0  0
 40 35  1  0  0  0  0
 41 38  2  0  0  0  0
 43 42  1  0  0  0  0
 43 37  1  0  0  0  0
M  END
>  <MODEL>
7

>  <REMARK>
 VINA RESULT:      -7.2      2.507      7.422
  Name = 
  9 active torsions:
  status: ('A' for Active; 'I' for Inactive)
    1  A    between atoms: C_1  and  C_34
    2  A    between atoms: C_1  and  C_35
    3  A    between atoms: C_2  and  C_27
    4  A    between atoms: C_3  and  N_4
    5  A    between atoms: C_3  and  C_12
    6  A    between atoms: N_4  and  C_15
    7  A    between atoms: C_10  and  C_41
    8  A    between atoms: C_19  and  O_37
    9  A    between atoms: C_22  and  C_41
                            x       y       z     vdW  Elec       q    Type
                         _______ _______ _______ _____ _____    ______ ____

>  <TORSDO>
F 9

$$$$
=
 OpenBabel10262422423D

 43 48  0  0  1  0  0  0  0  0999 V2000
  193.8230  173.3060  136.3100 O   0  0  0  0  0  0  0  0  0  0  0  0
  190.1180  176.5400  136.8460 C   0  0  2  0  0  3  0  0  0  0  0  0
  190.4510  176.4030  139.3130 C   0  0  0  0  0  2  0  0  0  0  0  0
  191.6400  174.2700  136.7010 C   0  0  2  0  0  3  0  0  0  0  0  0
  194.6200  174.8010  138.0300 C   0  0  0  0  0  2  0  0  0  0  0  0
  194.4240  173.3550  137.5720 C   0  0  0  0  0  2  0  0  0  0  0  0
  192.1080  175.2250  137.8240 C   0  0  1  0  0  3  0  0  0  0  0  0
  192.4830  173.0010  136.5720 C   0  0  0  0  0  2  0  0  0  0  0  0
  193.5190  175.7550  137.5590 C   0  0  0  0  0  2  0  0  0  0  0  0
  189.4410  177.5190  139.4570 C   0  0  0  0  0  0  0  0  0  0  0  0
  191.1620  176.4290  137.9670 C   0  0  1  0  0  3  0  0  0  0  0  0
  190.7990  176.3670  135.4890 C   0  0  0  0  0  2  0  0  0  0  0  0
  189.4110  177.8890  136.9670 C   0  0  2  0  0  3  0  0  0  0  0  0
  188.9220  178.1270  138.3770 C   0  0  0  0  0  3  0  0  0  0  0  0
  191.4500  174.9810  135.3520 C   0  0  0  0  0  2  0  0  0  0  0  0
  188.8820  177.8130  140.7930 C   0  0  0  0  0  0  0  0  0  0  0  0
  189.5840  177.4620  141.9920 N   0  0  0  0  0  2  0  0  0  0  0  0
  187.7400  178.3390  140.8920 O   0  0  0  0  0  0  0  0  0  0  0  0
  191.0050  177.5280  142.1390 C   0  0  0  0  0  0  0  0  0  0  0  0
  191.6950  178.2570  141.3780 O   0  0  0  0  0  0  0  0  0  0  0  0
  191.6760  176.7240  143.1980 C   0  0  0  0  0  2  0  0  0  0  0  0
  191.5350  177.3890  144.4880 N   0  0  0  0  0  2  0  0  0  0  0  0
  190.1570  177.1020  146.4980 C   0  0  0  0  0  3  0  0  0  0  0  0
  191.2030  176.7610  145.7390 C   0  0  0  0  0  0  0  0  0  0  0  0
  192.0560  175.6370  146.2050 C   0  0  0  0  0  1  0  0  0  0  0  0
  189.1590  178.1560  146.1570 C   0  0  0  0  0  2  0  0  0  0  0  0
  186.9470  177.6580  145.0210 C   0  0  2  0  0  0  0  0  0  0  0  0
  187.8150  176.4220  144.9830 C   0  0  0  0  0  2  0  0  0  0  0  0
  188.4550  177.8000  144.8570 C   0  0  2  0  0  3  0  0  0  0  0  0
  185.0760  178.9360  143.9700 C   0  0  0  0  0  3  0  0  0  0  0  0
  185.2110  178.6780  146.4120 C   0  0  0  0  0  3  0  0  0  0  0  0
  184.6450  179.2830  145.1890 C   0  0  0  0  0  3  0  0  0  0  0  0
  186.2890  177.8940  146.3520 C   0  0  0  0  0  3  0  0  0  0  0  0
  186.1040  177.8540  143.7640 C   0  0  0  0  0  2  0  0  0  0  0  0
  188.2420  177.9740  135.9930 C   0  0  0  0  0  2  0  0  0  0  0  0
  184.8320  176.8130  137.1680 C   0  0  0  0  0  3  0  0  0  0  0  0
  184.9970  175.4220  137.1910 C   0  0  0  0  0  0  0  0  0  0  0  0
  187.2910  175.6980  136.4370 C   0  0  0  0  0  3  0  0  0  0  0  0
  185.8900  177.6430  136.7830 C   0  0  0  0  0  3  0  0  0  0  0  0
  187.1210  177.0870  136.4200 C   0  0  0  0  0  0  0  0  0  0  0  0
  186.2350  174.8690  136.8220 C   0  0  0  0  0  3  0  0  0  0  0  0
  183.2900  173.7020  136.7010 C   0  0  0  0  0  1  0  0  0  0  0  0
  183.9220  174.6200  137.5810 O   0  0  0  0  0  0  0  0  0  0  0  0
  1  8  1  0  0  0  0
  1  6  1  0  0  0  0
  2 12  1  6  0  0  0
  2 13  1  0  0  0  0
  2 11  1  0  0  0  0
  3 10  1  0  0  0  0
  4 15  1  6  0  0  0
  4  7  1  0  0  0  0
  6  5  1  0  0  0  0
  7  9  1  6  0  0  0
  7 11  1  0  0  0  0
  8  4  1  0  0  0  0
  9  5  1  0  0  0  0
 10 16  1  0  0  0  0
 11  3  1  1  0  0  0
 13 35  1  6  0  0  0
 13 14  1  0  0  0  0
 14 10  2  0  0  0  0
 15 12  1  0  0  0  0
 16 18  2  0  0  0  0
 16 17  1  0  0  0  0
 17 19  1  0  0  0  0
 19 21  1  0  0  0  0
 20 19  2  0  0  0  0
 21 22  1  0  0  0  0
 22 24  1  0  0  0  0
 24 25  1  0  0  0  0
 24 23  2  0  0  0  0
 26 23  1  0  0  0  0
 27 34  1  6  0  0  0
 27 33  1  0  0  0  0
 28 27  1  0  0  0  0
 29 28  1  0  0  0  0
 29 27  1  0  0  0  0
 29 26  1  1  0  0  0
 30 32  2  0  0  0  0
 32 31  1  0  0  0  0
 33 31  2  0  0  0  0
 34 30  1  0  0  0  0
 35 40  1  0  0  0  0
 36 37  1  0  0  0  0
 37 43  1  0  0  0  0
 38 41  1  0  0  0  0
 39 36  2  0  0  0  0
 40 38  2  0  0  0  0
 40 39  1  0  0  0  0
 41 37  2  0  0  0  0
 42 43  1  0  0  0  0
M  END
>  <MODEL>
8

>  <REMARK>
 VINA RESULT:      -7.2      2.926      7.610
  Name = 
  9 active torsions:
  status: ('A' for Active; 'I' for Inactive)
    1  A    between atoms: C_1  and  C_34
    2  A    between atoms: C_1  and  C_35
    3  A    between atoms: C_2  and  C_27
    4  A    between atoms: C_3  and  N_4
    5  A    between atoms: C_3  and  C_12
    6  A    between atoms: N_4  and  C_15
    7  A    between atoms: C_10  and  C_41
    8  A    between atoms: C_19  and  O_37
    9  A    between atoms: C_22  and  C_41
                            x       y       z     vdW  Elec       q    Type
                         _______ _______ _______ _____ _____    ______ ____

>  <TORSDO>
F 9

$$$$
=
 OpenBabel10262422423D

 43 48  0  0  1  0  0  0  0  0999 V2000
  190.6290  176.8310  145.6350 O   0  0  0  0  0  0  0  0  0  0  0  0
  187.5120  178.2470  142.0630 C   0  0  2  0  0  3  0  0  0  0  0  0
  189.3880  178.0210  140.4370 C   0  0  0  0  0  2  0  0  0  0  0  0
  189.4340  178.1650  144.0090 C   0  0  2  0  0  3  0  0  0  0  0  0
  191.1550  175.3500  143.8030 C   0  0  0  0  0  2  0  0  0  0  0  0
  191.6800  176.2880  144.8910 C   0  0  0  0  0  2  0  0  0  0  0  0
  189.7710  177.2530  142.8060 C   0  0  1  0  0  3  0  0  0  0  0  0
  190.4740  178.1260  145.1290 C   0  0  0  0  0  2  0  0  0  0  0  0
  189.8090  175.7780  143.2120 C   0  0  0  0  0  2  0  0  0  0  0  0
  188.3900  178.2830  139.3320 C   0  0  0  0  0  0  0  0  0  0  0  0
  188.7430  177.4140  141.6750 C   0  0  1  0  0  3  0  0  0  0  0  0
  186.9730  177.7710  143.4120 C   0  0  0  0  0  2  0  0  0  0  0  0
  186.4700  178.1280  140.9520 C   0  0  2  0  0  3  0  0  0  0  0  0
  187.0780  178.4070  139.5980 C   0  0  0  0  0  3  0  0  0  0  0  0
  188.0060  177.9570  144.5350 C   0  0  0  0  0  2  0  0  0  0  0  0
  188.8860  178.5910  137.9740 C   0  0  0  0  0  0  0  0  0  0  0  0
  189.5820  177.6130  137.1910 N   0  0  0  0  0  2  0  0  0  0  0  0
  188.7430  179.7520  137.5040 O   0  0  0  0  0  0  0  0  0  0  0  0
  189.2690  176.2180  137.1870 C   0  0  0  0  0  0  0  0  0  0  0  0
  188.1340  175.8140  137.5550 O   0  0  0  0  0  0  0  0  0  0  0  0
  190.2950  175.2320  136.7460 C   0  0  0  0  0  2  0  0  0  0  0  0
  191.2960  175.0590  137.7920 N   0  0  0  0  0  2  0  0  0  0  0  0
  193.5530  175.8250  137.2080 C   0  0  0  0  0  3  0  0  0  0  0  0
  192.4690  175.8670  137.9900 C   0  0  0  0  0  0  0  0  0  0  0  0
  192.4690  176.8370  139.1160 C   0  0  0  0  0  1  0  0  0  0  0  0
  193.7030  174.9670  135.9980 C   0  0  0  0  0  2  0  0  0  0  0  0
  195.8440  173.6090  136.0700 C   0  0  2  0  0  0  0  0  0  0  0  0
  194.8680  172.9510  135.1240 C   0  0  0  0  0  2  0  0  0  0  0  0
  194.3510  173.6450  136.3780 C   0  0  2  0  0  3  0  0  0  0  0  0
  197.8050  173.3230  137.5920 C   0  0  0  0  0  3  0  0  0  0  0  0
  197.6840  175.2210  136.0320 C   0  0  0  0  0  3  0  0  0  0  0  0
  198.2840  174.5020  137.1750 C   0  0  0  0  0  3  0  0  0  0  0  0
  196.5410  174.8060  135.4850 C   0  0  0  0  0  3  0  0  0  0  0  0
  196.6810  172.6190  136.8760 C   0  0  0  0  0  2  0  0  0  0  0  0
  185.3060  179.0800  141.2020 C   0  0  0  0  0  2  0  0  0  0  0  0
  182.3360  177.1630  139.8380 C   0  0  0  0  0  3  0  0  0  0  0  0
  181.8740  178.0270  138.8380 C   0  0  0  0  0  0  0  0  0  0  0  0
  183.6630  179.5810  139.3770 C   0  0  0  0  0  3  0  0  0  0  0  0
  183.4550  177.5040  140.6040 C   0  0  0  0  0  3  0  0  0  0  0  0
  184.1220  178.7110  140.3730 C   0  0  0  0  0  0  0  0  0  0  0  0
  182.5450  179.2410  138.6120 C   0  0  0  0  0  3  0  0  0  0  0  0
  179.6440  176.9740  138.6560 C   0  0  0  0  0  1  0  0  0  0  0  0
  180.7530  177.6580  138.0900 O   0  0  0  0  0  0  0  0  0  0  0  0
  2 12  1  1  0  0  0
  4 15  1  1  0  0  0
  4  8  1  0  0  0  0
  5  6  1  0  0  0  0
  6  1  1  0  0  0  0
  7  9  1  1  0  0  0
  7  4  1  0  0  0  0
  8  1  1  0  0  0  0
  9  5  1  0  0  0  0
 10 14  2  0  0  0  0
 10  3  1  0  0  0  0
 11  3  1  6  0  0  0
 11  2  1  0  0  0  0
 11  7  1  0  0  0  0
 12 15  1  0  0  0  0
 13 35  1  1  0  0  0
 13  2  1  0  0  0  0
 14 13  1  0  0  0  0
 16 10  1  0  0  0  0
 17 16  1  0  0  0  0
 18 16  2  0  0  0  0
 19 17  1  0  0  0  0
 19 20  2  0  0  0  0
 21 19  1  0  0  0  0
 21 22  1  0  0  0  0
 22 24  1  0  0  0  0
 23 24  2  0  0  0  0
 24 25  1  0  0  0  0
 26 23  1  0  0  0  0
 27 28  1  6  0  0  0
 27 29  1  0  0  0  0
 27 34  1  0  0  0  0
 28 29  1  0  0  0  0
 29 26  1  6  0  0  0
 31 32  1  0  0  0  0
 32 30  2  0  0  0  0
 33 31  2  0  0  0  0
 33 27  1  0  0  0  0
 34 30  1  0  0  0  0
 36 39  1  0  0  0  0
 37 36  2  0  0  0  0
 38 40  1  0  0  0  0
 40 39  2  0  0  0  0
 40 35  1  0  0  0  0
 41 37  1  0  0  0  0
 41 38  2  0  0  0  0
 43 42  1  0  0  0  0
 43 37  1  0  0  0  0
M  END
>  <MODEL>
9

>  <REMARK>
 VINA RESULT:      -7.1      3.202      5.857
  Name = 
  9 active torsions:
  status: ('A' for Active; 'I' for Inactive)
    1  A    between atoms: C_1  and  C_34
    2  A    between atoms: C_1  and  C_35
    3  A    between atoms: C_2  and  C_27
    4  A    between atoms: C_3  and  N_4
    5  A    between atoms: C_3  and  C_12
    6  A    between atoms: N_4  and  C_15
    7  A    between atoms: C_10  and  C_41
    8  A    between atoms: C_19  and  O_37
    9  A    between atoms: C_22  and  C_41
                            x       y       z     vdW  Elec       q    Type
                         _______ _______ _______ _____ _____    ______ ____

>  <TORSDO>
F 9

$$$$
