=
 OpenBabel10262419443D

 25 29  0  0  1  0  0  0  0  0999 V2000
  190.1650  176.5140  143.9970 C   0  0  2  0  0  3  0  0  0  0  0  0
  189.1550  177.0580  144.9790 C   0  0  0  0  0  0  0  0  0  0  0  0
  191.7270  176.3400  146.0550 C   0  0  0  0  0  3  0  0  0  0  0  0
  190.8720  177.0400  146.8000 C   0  0  0  0  0  3  0  0  0  0  0  0
  188.5860  177.9620  147.1680 C   0  0  0  0  0  0  0  0  0  0  0  0
  188.9210  178.2730  148.4460 F   0  0  0  0  0  0  0  0  0  0  0  0
  187.8530  177.3270  144.5420 C   0  0  0  0  0  3  0  0  0  0  0  0
  191.3600  175.9070  144.6990 C   0  0  0  0  0  0  0  0  0  0  0  0
  192.0540  175.0320  144.1220 O   0  0  0  0  0  0  0  0  0  0  0  0
  187.2890  178.2240  146.7180 C   0  0  0  0  0  3  0  0  0  0  0  0
  186.9180  177.8970  145.4100 C   0  0  0  0  0  0  0  0  0  0  0  0
  189.5230  177.3730  146.3060 C   0  0  0  0  0  0  0  0  0  0  0  0
  190.5380  177.6110  142.9830 C   0  0  2  0  0  3  0  0  0  0  0  0
  190.7460  177.7810  140.5840 N   0  0  2  0  0  0  0  0  0  0  0  0
  189.7670  177.5780  141.6710 C   0  0  1  0  0  3  0  0  0  0  0  0
  190.1150  176.4690  140.7790 C   0  0  0  0  0  2  0  0  0  0  0  0
  192.0890  177.6840  141.1550 C   0  0  0  0  0  2  0  0  0  0  0  0
  192.0080  177.7360  142.6660 C   0  0  0  0  0  2  0  0  0  0  0  0
  185.5420  178.1990  144.9290 C   0  0  0  0  0  2  0  0  0  0  0  0
  185.4470  177.9610  143.4330 C   0  0  2  0  0  3  0  0  0  0  0  0
  185.2040  179.2300  142.7540 C   0  0  2  0  0  3  0  0  0  0  0  0
  184.0910  178.2940  142.9740 N   0  0  0  0  0  2  0  0  0  0  0  0
  185.6590  179.1470  141.3350 C   0  0  0  0  0  0  0  0  0  0  0  0
  184.8720  179.6730  140.3180 O   0  0  0  0  0  0  0  0  0  0  0  0
  186.7390  178.5650  141.0510 O   0  0  0  0  0  1  0  0  0  0  0  0
  1  8  1  1  0  0  0
  1  2  1  0  0  0  0
  2 12  1  0  0  0  0
  3  4  2  0  0  0  0
  5  6  1  0  0  0  0
  7  2  2  0  0  0  0
  7 11  1  0  0  0  0
  8  3  1  0  0  0  0
  9  8  2  0  0  0  0
 10  5  1  0  0  0  0
 11 10  2  0  0  0  0
 12  4  1  0  0  0  0
 12  5  2  0  0  0  0
 13 18  1  6  0  0  0
 13  1  1  0  0  0  0
 14 16  1  6  0  0  0
 14 17  1  0  0  0  0
 14 15  1  0  0  0  0
 15 16  1  6  0  0  0
 15 13  1  0  0  0  0
 17 18  1  0  0  0  0
 19 11  1  0  0  0  0
 20 19  1  1  0  0  0
 21 23  1  6  0  0  0
 21 22  1  0  0  0  0
 21 20  1  0  0  0  0
 22 20  1  0  0  0  0
 24 23  2  0  0  0  0
 25 23  1  0  0  0  0
M  END
>  <MODEL>
1

>  <REMARK>
 VINA RESULT:      -9.3      0.000      0.000
  Name = 
  4 active torsions:
  status: ('A' for Active; 'I' for Inactive)
    1  A    between atoms: C_1  and  C_5
    2  A    between atoms: C_2  and  CA_21
    3  A    between atoms: C_6  and  C_15
    4  A    between atoms: C_6  and  C_23
                            x       y       z     vdW  Elec       q    Type
                         _______ _______ _______ _____ _____    ______ ____

>  <TORSDO>
F 4

$$$$
=
 OpenBabel10262419443D

 25 29  0  0  1  0  0  0  0  0999 V2000
  188.8510  177.0490  145.6410 C   0  0  2  0  0  3  0  0  0  0  0  0
  187.5380  177.7610  145.8590 C   0  0  0  0  0  0  0  0  0  0  0  0
  189.3810  177.7710  148.0710 C   0  0  0  0  0  3  0  0  0  0  0  0
  188.3130  178.5670  148.0980 C   0  0  0  0  0  3  0  0  0  0  0  0
  186.1200  179.2690  147.1430 C   0  0  0  0  0  0  0  0  0  0  0  0
  185.8880  180.0290  148.2430 F   0  0  0  0  0  0  0  0  0  0  0  0
  186.5550  177.7040  144.8630 C   0  0  0  0  0  3  0  0  0  0  0  0
  189.6130  176.8660  146.9360 C   0  0  0  0  0  0  0  0  0  0  0  0
  190.4570  175.9410  147.0460 O   0  0  0  0  0  0  0  0  0  0  0  0
  185.1480  179.2010  146.1420 C   0  0  0  0  0  3  0  0  0  0  0  0
  185.3590  178.4120  145.0080 C   0  0  0  0  0  0  0  0  0  0  0  0
  187.3150  178.5460  147.0130 C   0  0  0  0  0  0  0  0  0  0  0  0
  189.6570  177.7800  144.5510 C   0  0  2  0  0  3  0  0  0  0  0  0
  190.8060  177.1710  142.5160 N   0  0  2  0  0  0  0  0  0  0  0  0
  189.4660  177.2560  143.1350 C   0  0  1  0  0  3  0  0  0  0  0  0
  190.0740  175.9480  142.8750 C   0  0  0  0  0  2  0  0  0  0  0  0
  191.8050  177.3770  143.5630 C   0  0  0  0  0  2  0  0  0  0  0  0
  191.1370  177.9140  144.8120 C   0  0  0  0  0  2  0  0  0  0  0  0
  184.3310  178.3610  143.9320 C   0  0  0  0  0  2  0  0  0  0  0  0
  184.9630  177.9290  142.6220 C   0  0  2  0  0  3  0  0  0  0  0  0
  184.9280  179.0410  141.6760 C   0  0  2  0  0  3  0  0  0  0  0  0
  183.9460  177.9520  141.5620 N   0  0  0  0  0  2  0  0  0  0  0  0
  185.9930  178.8690  140.6450 C   0  0  0  0  0  0  0  0  0  0  0  0
  185.6830  178.9850  139.2960 O   0  0  0  0  0  0  0  0  0  0  0  0
  187.1680  178.5790  140.9920 O   0  0  0  0  0  1  0  0  0  0  0  0
  1  2  1  1  0  0  0
  1  8  1  0  0  0  0
  2 12  1  0  0  0  0
  3  4  2  0  0  0  0
  5  6  1  0  0  0  0
  7 11  1  0  0  0  0
  7  2  2  0  0  0  0
  8  9  2  0  0  0  0
  8  3  1  0  0  0  0
 10  5  1  0  0  0  0
 11 10  2  0  0  0  0
 12  5  2  0  0  0  0
 12  4  1  0  0  0  0
 13 18  1  1  0  0  0
 13  1  1  0  0  0  0
 14 16  1  1  0  0  0
 14 15  1  0  0  0  0
 14 17  1  0  0  0  0
 15 16  1  1  0  0  0
 15 13  1  0  0  0  0
 17 18  1  0  0  0  0
 19 11  1  0  0  0  0
 20 19  1  1  0  0  0
 21 23  1  6  0  0  0
 21 20  1  0  0  0  0
 22 21  1  0  0  0  0
 22 20  1  0  0  0  0
 23 25  1  0  0  0  0
 24 23  2  0  0  0  0
M  END
>  <MODEL>
2

>  <REMARK>
 VINA RESULT:      -9.2      1.641      2.234
  Name = 
  4 active torsions:
  status: ('A' for Active; 'I' for Inactive)
    1  A    between atoms: C_1  and  C_5
    2  A    between atoms: C_2  and  CA_21
    3  A    between atoms: C_6  and  C_15
    4  A    between atoms: C_6  and  C_23
                            x       y       z     vdW  Elec       q    Type
                         _______ _______ _______ _____ _____    ______ ____

>  <TORSDO>
F 4

$$$$
=
 OpenBabel10262419443D

 25 29  0  0  1  0  0  0  0  0999 V2000
  189.0990  177.0870  145.6600 C   0  0  2  0  0  3  0  0  0  0  0  0
  187.7290  177.6990  145.8270 C   0  0  0  0  0  0  0  0  0  0  0  0
  189.4360  177.7340  148.1440 C   0  0  0  0  0  3  0  0  0  0  0  0
  188.3160  178.4560  148.1390 C   0  0  0  0  0  3  0  0  0  0  0  0
  186.1380  179.0500  147.0820 C   0  0  0  0  0  0  0  0  0  0  0  0
  185.7910  179.7430  148.1950 F   0  0  0  0  0  0  0  0  0  0  0  0
  186.8120  177.6210  144.7710 C   0  0  0  0  0  3  0  0  0  0  0  0
  189.7960  176.8980  146.9900 C   0  0  0  0  0  0  0  0  0  0  0  0
  190.6950  176.0280  147.1140 O   0  0  0  0  0  0  0  0  0  0  0  0
  185.2330  178.9620  146.0210 C   0  0  0  0  0  3  0  0  0  0  0  0
  185.5640  178.2400  144.8710 C   0  0  0  0  0  0  0  0  0  0  0  0
  187.3860  178.4160  146.9950 C   0  0  0  0  0  0  0  0  0  0  0  0
  189.9140  177.9190  144.6510 C   0  0  2  0  0  3  0  0  0  0  0  0
  190.6940  177.6470  142.3820 N   0  0  2  0  0  0  0  0  0  0  0  0
  189.4720  177.8010  143.1990 C   0  0  1  0  0  3  0  0  0  0  0  0
  189.7750  176.5150  142.5650 C   0  0  0  0  0  2  0  0  0  0  0  0
  191.8200  177.4160  143.2850 C   0  0  0  0  0  2  0  0  0  0  0  0
  191.4100  177.7330  144.7080 C   0  0  0  0  0  2  0  0  0  0  0  0
  184.6050  178.1680  143.7340 C   0  0  0  0  0  2  0  0  0  0  0  0
  183.2570  178.7280  144.1500 C   0  0  2  0  0  3  0  0  0  0  0  0
  182.4670  179.0270  142.9590 C   0  0  2  0  0  3  0  0  0  0  0  0
  183.1430  180.1160  143.6810 N   0  0  0  0  0  2  0  0  0  0  0  0
  181.0130  179.0260  143.2960 C   0  0  0  0  0  0  0  0  0  0  0  0
  180.1430  179.8800  142.6300 O   0  0  0  0  0  0  0  0  0  0  0  0
  180.5770  178.2800  144.2110 O   0  0  0  0  0  1  0  0  0  0  0  0
  1  2  1  1  0  0  0
  1  8  1  0  0  0  0
  2 12  1  0  0  0  0
  4  3  2  0  0  0  0
  5  6  1  0  0  0  0
  7 11  1  0  0  0  0
  7  2  2  0  0  0  0
  8  9  2  0  0  0  0
  8  3  1  0  0  0  0
 10  5  1  0  0  0  0
 11 10  2  0  0  0  0
 12  5  2  0  0  0  0
 12  4  1  0  0  0  0
 13 18  1  6  0  0  0
 13  1  1  0  0  0  0
 14 16  1  6  0  0  0
 14 15  1  0  0  0  0
 14 17  1  0  0  0  0
 15 16  1  1  0  0  0
 15 13  1  0  0  0  0
 17 18  1  0  0  0  0
 19 11  1  0  0  0  0
 20 19  1  6  0  0  0
 21 23  1  1  0  0  0
 21 22  1  0  0  0  0
 21 20  1  0  0  0  0
 22 20  1  0  0  0  0
 23 25  1  0  0  0  0
 24 23  2  0  0  0  0
M  END
>  <MODEL>
3

>  <REMARK>
 VINA RESULT:      -8.6      2.412      3.014
  Name = 
  4 active torsions:
  status: ('A' for Active; 'I' for Inactive)
    1  A    between atoms: C_1  and  C_5
    2  A    between atoms: C_2  and  CA_21
    3  A    between atoms: C_6  and  C_15
    4  A    between atoms: C_6  and  C_23
                            x       y       z     vdW  Elec       q    Type
                         _______ _______ _______ _____ _____    ______ ____

>  <TORSDO>
F 4

$$$$
=
 OpenBabel10262419443D

 25 29  0  0  1  0  0  0  0  0999 V2000
  188.6110  176.8850  142.7020 C   0  0  2  0  0  3  0  0  0  0  0  0
  187.4660  177.4510  143.5070 C   0  0  0  0  0  0  0  0  0  0  0  0
  189.8400  176.7530  144.9780 C   0  0  0  0  0  3  0  0  0  0  0  0
  188.8840  177.4680  145.5690 C   0  0  0  0  0  3  0  0  0  0  0  0
  186.5730  178.4010  145.5640 C   0  0  0  0  0  0  0  0  0  0  0  0
  186.7100  178.7380  146.8710 F   0  0  0  0  0  0  0  0  0  0  0  0
  186.2470  177.7120  142.8710 C   0  0  0  0  0  3  0  0  0  0  0  0
  189.6830  176.2920  143.5910 C   0  0  0  0  0  0  0  0  0  0  0  0
  190.4530  175.4040  143.1440 O   0  0  0  0  0  0  0  0  0  0  0  0
  185.3610  178.6550  144.9160 C   0  0  0  0  0  3  0  0  0  0  0  0
  185.1930  178.3020  143.5740 C   0  0  0  0  0  0  0  0  0  0  0  0
  187.6280  177.7930  144.8680 C   0  0  0  0  0  0  0  0  0  0  0  0
  189.1400  177.9610  141.7350 C   0  0  2  0  0  3  0  0  0  0  0  0
  188.6890  178.6500  139.4650 N   0  0  2  0  0  0  0  0  0  0  0  0
  188.0970  178.5850  140.8180 C   0  0  1  0  0  3  0  0  0  0  0  0
  187.6040  177.7030  139.7570 C   0  0  0  0  0  2  0  0  0  0  0  0
  189.9280  177.8740  139.4710 C   0  0  0  0  0  2  0  0  0  0  0  0
  190.3290  177.5590  140.8970 C   0  0  0  0  0  2  0  0  0  0  0  0
  183.9080  178.5950  142.8810 C   0  0  0  0  0  2  0  0  0  0  0  0
  184.1180  178.6260  141.3790 C   0  0  2  0  0  3  0  0  0  0  0  0
  182.8650  178.9850  140.7210 C   0  0  2  0  0  3  0  0  0  0  0  0
  183.2990  177.5790  140.7520 N   0  0  0  0  0  2  0  0  0  0  0  0
  183.1420  179.5670  139.3750 C   0  0  0  0  0  0  0  0  0  0  0  0
  184.3820  180.1300  139.1000 O   0  0  0  0  0  1  0  0  0  0  0  0
  182.2400  179.5850  138.4960 O   0  0  0  0  0  0  0  0  0  0  0  0
  1  2  1  1  0  0  0
  1  8  1  0  0  0  0
  2 12  1  0  0  0  0
  3  4  2  0  0  0  0
  5  6  1  0  0  0  0
  7  2  2  0  0  0  0
  7 11  1  0  0  0  0
  8  3  1  0  0  0  0
  9  8  2  0  0  0  0
 10  5  1  0  0  0  0
 11 10  2  0  0  0  0
 12  5  2  0  0  0  0
 12  4  1  0  0  0  0
 13 18  1  6  0  0  0
 13  1  1  0  0  0  0
 14 17  1  1  0  0  0
 14 16  1  0  0  0  0
 14 15  1  0  0  0  0
 15 16  1  6  0  0  0
 15 13  1  0  0  0  0
 17 18  1  0  0  0  0
 19 11  1  0  0  0  0
 20 19  1  1  0  0  0
 21 23  1  6  0  0  0
 21 22  1  0  0  0  0
 21 20  1  0  0  0  0
 22 20  1  0  0  0  0
 24 23  1  0  0  0  0
 25 23  2  0  0  0  0
M  END
>  <MODEL>
4

>  <REMARK>
 VINA RESULT:      -8.2      1.845      2.633
  Name = 
  4 active torsions:
  status: ('A' for Active; 'I' for Inactive)
    1  A    between atoms: C_1  and  C_5
    2  A    between atoms: C_2  and  CA_21
    3  A    between atoms: C_6  and  C_15
    4  A    between atoms: C_6  and  C_23
                            x       y       z     vdW  Elec       q    Type
                         _______ _______ _______ _____ _____    ______ ____

>  <TORSDO>
F 4

$$$$
=
 OpenBabel10262419443D

 25 29  0  0  1  0  0  0  0  0999 V2000
  186.3940  177.7280  145.8150 C   0  0  2  0  0  3  0  0  0  0  0  0
  186.7540  177.7470  144.3490 C   0  0  0  0  0  0  0  0  0  0  0  0
  184.3440  179.1370  145.0930 C   0  0  0  0  0  3  0  0  0  0  0  0
  184.8530  179.3030  143.8720 C   0  0  0  0  0  3  0  0  0  0  0  0
  186.4660  178.6280  142.0960 C   0  0  0  0  0  0  0  0  0  0  0  0
  185.8040  179.4060  141.2040 F   0  0  0  0  0  0  0  0  0  0  0  0
  187.8540  177.0030  143.9050 C   0  0  0  0  0  3  0  0  0  0  0  0
  184.9860  178.2280  146.0540 C   0  0  0  0  0  0  0  0  0  0  0  0
  184.3570  177.8760  147.0840 O   0  0  0  0  0  0  0  0  0  0  0  0
  187.5650  177.8790  141.6680 C   0  0  0  0  0  3  0  0  0  0  0  0
  188.2530  177.0590  142.5670 C   0  0  0  0  0  0  0  0  0  0  0  0
  186.0500  178.5630  143.4350 C   0  0  0  0  0  0  0  0  0  0  0  0
  187.4640  178.4920  146.6170 C   0  0  2  0  0  3  0  0  0  0  0  0
  189.4050  177.9230  147.9350 N   0  0  2  0  0  0  0  0  0  0  0  0
  188.8670  177.9070  146.5580 C   0  0  1  0  0  3  0  0  0  0  0  0
  189.0420  176.6510  147.2940 C   0  0  0  0  0  2  0  0  0  0  0  0
  188.3120  178.2530  148.8480 C   0  0  0  0  0  2  0  0  0  0  0  0
  187.1240  178.7680  148.0610 C   0  0  0  0  0  2  0  0  0  0  0  0
  189.4370  176.2810  142.1110 C   0  0  0  0  0  2  0  0  0  0  0  0
  190.6320  176.5780  142.9970 C   0  0  2  0  0  3  0  0  0  0  0  0
  190.9110  178.0110  142.9720 C   0  0  2  0  0  3  0  0  0  0  0  0
  191.7340  177.0910  142.1710 N   0  0  0  0  0  2  0  0  0  0  0  0
  191.6560  178.4090  144.2030 C   0  0  0  0  0  0  0  0  0  0  0  0
  191.8730  177.4850  145.2170 O   0  0  0  0  0  1  0  0  0  0  0  0
  192.0550  179.5950  144.3440 O   0  0  0  0  0  0  0  0  0  0  0  0
  1  2  1  6  0  0  0
  1  8  1  0  0  0  0
  1 13  1  0  0  0  0
  3  8  1  0  0  0  0
  4  3  2  0  0  0  0
  5 12  1  0  0  0  0
  6  5  1  0  0  0  0
  7  2  1  0  0  0  0
  8  9  2  0  0  0  0
 10  5  2  0  0  0  0
 10 11  1  0  0  0  0
 11  7  2  0  0  0  0
 12  4  1  0  0  0  0
 12  2  2  0  0  0  0
 13 18  1  1  0  0  0
 14 16  1  1  0  0  0
 14 17  1  0  0  0  0
 15 13  1  0  0  0  0
 15 16  1  1  0  0  0
 15 14  1  0  0  0  0
 18 17  1  0  0  0  0
 19 11  1  0  0  0  0
 20 19  1  6  0  0  0
 21 20  1  0  0  0  0
 21 23  1  1  0  0  0
 22 21  1  0  0  0  0
 22 20  1  0  0  0  0
 23 25  2  0  0  0  0
 23 24  1  0  0  0  0
M  END
>  <MODEL>
5

>  <REMARK>
 VINA RESULT:      -8.2      3.192      6.337
  Name = 
  4 active torsions:
  status: ('A' for Active; 'I' for Inactive)
    1  A    between atoms: C_1  and  C_5
    2  A    between atoms: C_2  and  CA_21
    3  A    between atoms: C_6  and  C_15
    4  A    between atoms: C_6  and  C_23
                            x       y       z     vdW  Elec       q    Type
                         _______ _______ _______ _____ _____    ______ ____

>  <TORSDO>
F 4

$$$$
=
 OpenBabel10262419443D

 25 29  0  0  1  0  0  0  0  0999 V2000
  188.2770  177.2830  144.8510 C   0  0  2  0  0  3  0  0  0  0  0  0
  186.8770  177.7030  144.4740 C   0  0  0  0  0  0  0  0  0  0  0  0
  187.5520  177.8660  147.2680 C   0  0  0  0  0  3  0  0  0  0  0  0
  186.4310  178.4340  146.8250 C   0  0  0  0  0  3  0  0  0  0  0  0
  184.7600  178.7820  145.0090 C   0  0  0  0  0  0  0  0  0  0  0  0
  183.9240  179.3780  145.8970 F   0  0  0  0  0  0  0  0  0  0  0  0
  186.4500  177.5490  143.1490 C   0  0  0  0  0  3  0  0  0  0  0  0
  188.4340  177.1320  146.3480 C   0  0  0  0  0  0  0  0  0  0  0  0
  189.3280  176.3820  146.8170 O   0  0  0  0  0  0  0  0  0  0  0  0
  184.3470  178.6200  143.6840 C   0  0  0  0  0  3  0  0  0  0  0  0
  185.1860  177.9950  142.7560 C   0  0  0  0  0  0  0  0  0  0  0  0
  186.0210  178.3200  145.4140 C   0  0  0  0  0  0  0  0  0  0  0  0
  189.2930  178.2540  144.2200 C   0  0  2  0  0  3  0  0  0  0  0  0
  191.2780  178.0720  142.8580 N   0  0  2  0  0  0  0  0  0  0  0  0
  189.8170  177.8530  142.8490 C   0  0  1  0  0  3  0  0  0  0  0  0
  190.7320  176.7080  142.8500 C   0  0  0  0  0  2  0  0  0  0  0  0
  191.6890  178.3450  144.2340 C   0  0  0  0  0  2  0  0  0  0  0  0
  190.4700  178.6230  145.0890 C   0  0  0  0  0  2  0  0  0  0  0  0
  184.7510  177.8460  141.3400 C   0  0  0  0  0  2  0  0  0  0  0  0
  183.8840  179.0220  140.9320 C   0  0  2  0  0  3  0  0  0  0  0  0
  183.4260  178.8340  139.5580 C   0  0  2  0  0  3  0  0  0  0  0  0
  184.5410  179.7530  139.8390 N   0  0  0  0  0  2  0  0  0  0  0  0
  182.1770  179.6160  139.3230 C   0  0  0  0  0  0  0  0  0  0  0  0
  181.9660  180.2440  138.1020 O   0  0  0  0  0  0  0  0  0  0  0  0
  181.3280  179.7420  140.2450 O   0  0  0  0  0  1  0  0  0  0  0  0
  1  2  1  1  0  0  0
  1  8  1  0  0  0  0
  2 12  1  0  0  0  0
  4  3  2  0  0  0  0
  5 12  2  0  0  0  0
  5  6  1  0  0  0  0
  7  2  2  0  0  0  0
  8  9  2  0  0  0  0
  8  3  1  0  0  0  0
 10  5  1  0  0  0  0
 11  7  1  0  0  0  0
 11 10  2  0  0  0  0
 12  4  1  0  0  0  0
 13  1  1  0  0  0  0
 13 18  1  1  0  0  0
 14 16  1  1  0  0  0
 14 17  1  0  0  0  0
 15 16  1  1  0  0  0
 15 14  1  0  0  0  0
 15 13  1  0  0  0  0
 17 18  1  0  0  0  0
 19 11  1  0  0  0  0
 20 19  1  6  0  0  0
 21 23  1  1  0  0  0
 21 22  1  0  0  0  0
 21 20  1  0  0  0  0
 22 20  1  0  0  0  0
 23 25  1  0  0  0  0
 24 23  2  0  0  0  0
M  END
>  <MODEL>
6

>  <REMARK>
 VINA RESULT:      -8.2      2.490      3.614
  Name = 
  4 active torsions:
  status: ('A' for Active; 'I' for Inactive)
    1  A    between atoms: C_1  and  C_5
    2  A    between atoms: C_2  and  CA_21
    3  A    between atoms: C_6  and  C_15
    4  A    between atoms: C_6  and  C_23
                            x       y       z     vdW  Elec       q    Type
                         _______ _______ _______ _____ _____    ______ ____

>  <TORSDO>
F 4

$$$$
=
 OpenBabel10262419443D

 25 29  0  0  1  0  0  0  0  0999 V2000
  186.9170  178.7920  145.9390 C   0  0  2  0  0  3  0  0  0  0  0  0
  188.1710  177.9830  145.7060 C   0  0  0  0  0  0  0  0  0  0  0  0
  187.4170  178.4120  148.4510 C   0  0  0  0  0  3  0  0  0  0  0  0
  188.3640  177.5210  148.1580 C   0  0  0  0  0  3  0  0  0  0  0  0
  189.9290  176.5010  146.5090 C   0  0  0  0  0  0  0  0  0  0  0  0
  190.5650  175.8530  147.5170 F   0  0  0  0  0  0  0  0  0  0  0  0
  188.6510  177.8270  144.4000 C   0  0  0  0  0  3  0  0  0  0  0  0
  186.7720  179.1980  147.3890 C   0  0  0  0  0  0  0  0  0  0  0  0
  186.0900  180.2080  147.6970 O   0  0  0  0  0  0  0  0  0  0  0  0
  190.3980  176.3560  145.2000 C   0  0  0  0  0  3  0  0  0  0  0  0
  189.7670  177.0250  144.1480 C   0  0  0  0  0  0  0  0  0  0  0  0
  188.8200  177.3180  146.7710 C   0  0  0  0  0  0  0  0  0  0  0  0
  185.7010  178.0230  145.3900 C   0  0  2  0  0  3  0  0  0  0  0  0
  184.0140  178.3880  143.7010 N   0  0  2  0  0  0  0  0  0  0  0  0
  185.4610  178.1610  143.8930 C   0  0  1  0  0  3  0  0  0  0  0  0
  184.9750  179.4750  143.4650 C   0  0  0  0  0  2  0  0  0  0  0  0
  183.4150  178.6430  145.0110 C   0  0  0  0  0  2  0  0  0  0  0  0
  184.3950  178.2710  146.1040 C   0  0  0  0  0  2  0  0  0  0  0  0
  190.2570  176.8490  142.7530 C   0  0  0  0  0  2  0  0  0  0  0  0
  189.6920  177.9380  141.8580 C   0  0  2  0  0  3  0  0  0  0  0  0
  188.9710  177.3270  140.7460 C   0  0  2  0  0  3  0  0  0  0  0  0
  190.3280  177.8570  140.5360 N   0  0  0  0  0  2  0  0  0  0  0  0
  187.9660  178.2860  140.2000 C   0  0  0  0  0  0  0  0  0  0  0  0
  187.8020  178.4170  138.8270 O   0  0  0  0  0  0  0  0  0  0  0  0
  187.2910  179.0070  140.9810 O   0  0  0  0  0  1  0  0  0  0  0  0
  1  2  1  1  0  0  0
  1  8  1  0  0  0  0
  2 12  1  0  0  0  0
  4  3  2  0  0  0  0
  5 12  2  0  0  0  0
  5  6  1  0  0  0  0
  7  2  2  0  0  0  0
  8  9  2  0  0  0  0
  8  3  1  0  0  0  0
 10  5  1  0  0  0  0
 11  7  1  0  0  0  0
 11 10  2  0  0  0  0
 12  4  1  0  0  0  0
 13  1  1  0  0  0  0
 13 18  1  1  0  0  0
 14 16  1  6  0  0  0
 14 15  1  0  0  0  0
 14 17  1  0  0  0  0
 15 16  1  1  0  0  0
 15 13  1  0  0  0  0
 17 18  1  0  0  0  0
 19 11  1  0  0  0  0
 20 19  1  1  0  0  0
 21 23  1  6  0  0  0
 21 20  1  0  0  0  0
 22 21  1  0  0  0  0
 22 20  1  0  0  0  0
 23 25  1  0  0  0  0
 24 23  2  0  0  0  0
M  END
>  <MODEL>
7

>  <REMARK>
 VINA RESULT:      -7.9      1.961      5.150
  Name = 
  4 active torsions:
  status: ('A' for Active; 'I' for Inactive)
    1  A    between atoms: C_1  and  C_5
    2  A    between atoms: C_2  and  CA_21
    3  A    between atoms: C_6  and  C_15
    4  A    between atoms: C_6  and  C_23
                            x       y       z     vdW  Elec       q    Type
                         _______ _______ _______ _____ _____    ______ ____

>  <TORSDO>
F 4

$$$$
=
 OpenBabel10262419443D

 25 29  0  0  1  0  0  0  0  0999 V2000
  189.2320  176.9700  139.9150 C   0  0  2  0  0  3  0  0  0  0  0  0
  189.4550  177.2180  141.3880 C   0  0  0  0  0  0  0  0  0  0  0  0
  191.8140  177.0570  139.7470 C   0  0  0  0  0  3  0  0  0  0  0  0
  191.9100  177.5030  140.9990 C   0  0  0  0  0  3  0  0  0  0  0  0
  190.8940  177.8560  143.2470 C   0  0  0  0  0  0  0  0  0  0  0  0
  192.1150  178.1700  143.7460 F   0  0  0  0  0  0  0  0  0  0  0  0
  188.3580  177.2020  142.2580 C   0  0  0  0  0  3  0  0  0  0  0  0
  190.5200  176.6200  139.2030 C   0  0  0  0  0  0  0  0  0  0  0  0
  190.4910  175.9580  138.1350 O   0  0  0  0  0  0  0  0  0  0  0  0
  189.7890  177.8340  144.1030 C   0  0  0  0  0  3  0  0  0  0  0  0
  188.5250  177.4980  143.6130 C   0  0  0  0  0  0  0  0  0  0  0  0
  190.7360  177.5420  141.8890 C   0  0  0  0  0  0  0  0  0  0  0  0
  188.4950  178.1740  139.2980 C   0  0  2  0  0  3  0  0  0  0  0  0
  187.0160  178.5510  137.4270 N   0  0  2  0  0  0  0  0  0  0  0  0
  187.1110  177.8760  138.7380 C   0  0  1  0  0  3  0  0  0  0  0  0
  187.1040  177.0860  137.5030 C   0  0  0  0  0  2  0  0  0  0  0  0
  188.3500  179.0260  137.0610 C   0  0  0  0  0  2  0  0  0  0  0  0
  189.2680  178.9530  138.2630 C   0  0  0  0  0  2  0  0  0  0  0  0
  187.3470  177.4990  144.5250 C   0  0  0  0  0  2  0  0  0  0  0  0
  187.6930  178.1990  145.8260 C   0  0  2  0  0  3  0  0  0  0  0  0
  187.5710  177.2550  146.9330 C   0  0  2  0  0  3  0  0  0  0  0  0
  186.5030  178.2370  146.6870 N   0  0  0  0  0  2  0  0  0  0  0  0
  188.4120  177.7010  148.0820 C   0  0  0  0  0  0  0  0  0  0  0  0
  189.7790  177.8780  147.9190 O   0  0  0  0  0  0  0  0  0  0  0  0
  187.8900  177.8810  149.2140 O   0  0  0  0  0  1  0  0  0  0  0  0
  1  8  1  6  0  0  0
  1  2  1  0  0  0  0
  2 12  2  0  0  0  0
  2  7  1  0  0  0  0
  3  4  2  0  0  0  0
  4 12  1  0  0  0  0
  5  6  1  0  0  0  0
  5 10  2  0  0  0  0
  7 11  2  0  0  0  0
  8  3  1  0  0  0  0
  9  8  2  0  0  0  0
 11 10  1  0  0  0  0
 11 19  1  0  0  0  0
 12  5  1  0  0  0  0
 13 18  1  6  0  0  0
 13  1  1  0  0  0  0
 14 17  1  6  0  0  0
 14 16  1  0  0  0  0
 14 15  1  0  0  0  0
 15 16  1  6  0  0  0
 15 13  1  0  0  0  0
 17 18  1  0  0  0  0
 20 19  1  6  0  0  0
 20 22  1  0  0  0  0
 20 21  1  0  0  0  0
 21 23  1  1  0  0  0
 22 21  1  0  0  0  0
 23 25  1  0  0  0  0
 24 23  2  0  0  0  0
M  END
>  <MODEL>
8

>  <REMARK>
 VINA RESULT:      -7.8      3.329      5.233
  Name = 
  4 active torsions:
  status: ('A' for Active; 'I' for Inactive)
    1  A    between atoms: C_1  and  C_5
    2  A    between atoms: C_2  and  CA_21
    3  A    between atoms: C_6  and  C_15
    4  A    between atoms: C_6  and  C_23
                            x       y       z     vdW  Elec       q    Type
                         _______ _______ _______ _____ _____    ______ ____

>  <TORSDO>
F 4

$$$$
=
 OpenBabel10262419443D

 25 29  0  0  1  0  0  0  0  0999 V2000
  186.4460  177.6780  145.8060 C   0  0  2  0  0  3  0  0  0  0  0  0
  186.6400  177.8340  144.3170 C   0  0  0  0  0  0  0  0  0  0  0  0
  184.2690  179.0300  145.4280 C   0  0  0  0  0  3  0  0  0  0  0  0
  184.6320  179.3200  144.1790 C   0  0  0  0  0  3  0  0  0  0  0  0
  186.0680  178.8750  142.1910 C   0  0  0  0  0  0  0  0  0  0  0  0
  185.2780  179.6860  141.4430 F   0  0  0  0  0  0  0  0  0  0  0  0
  187.7160  177.1870  143.6970 C   0  0  0  0  0  3  0  0  0  0  0  0
  185.0520  178.0830  146.2360 C   0  0  0  0  0  0  0  0  0  0  0  0
  184.5570  177.6170  147.2930 O   0  0  0  0  0  0  0  0  0  0  0  0
  187.1450  178.2220  141.5860 C   0  0  0  0  0  3  0  0  0  0  0  0
  187.9620  177.3700  142.3340 C   0  0  0  0  0  0  0  0  0  0  0  0
  185.8050  178.6810  143.5550 C   0  0  0  0  0  0  0  0  0  0  0  0
  187.5630  178.4320  146.5520 C   0  0  2  0  0  3  0  0  0  0  0  0
  189.5200  177.8400  147.8370 N   0  0  2  0  0  0  0  0  0  0  0  0
  188.9440  177.7950  146.4770 C   0  0  1  0  0  3  0  0  0  0  0  0
  189.0960  176.5610  147.2510 C   0  0  0  0  0  2  0  0  0  0  0  0
  188.4640  178.2390  148.7660 C   0  0  0  0  0  2  0  0  0  0  0  0
  187.2740  178.7690  147.9940 C   0  0  0  0  0  2  0  0  0  0  0  0
  189.1220  176.6940  141.6900 C   0  0  0  0  0  2  0  0  0  0  0  0
  189.6880  177.5660  140.5840 C   0  0  2  0  0  3  0  0  0  0  0  0
  189.5070  176.8990  139.2990 C   0  0  2  0  0  3  0  0  0  0  0  0
  190.8230  176.8760  139.9560 N   0  0  0  0  0  2  0  0  0  0  0  0
  189.5130  177.9040  138.1950 C   0  0  0  0  0  0  0  0  0  0  0  0
  189.0750  179.2000  138.4300 O   0  0  0  0  0  1  0  0  0  0  0  0
  189.8780  177.5690  137.0370 O   0  0  0  0  0  0  0  0  0  0  0  0
  1  2  1  6  0  0  0
  1  8  1  0  0  0  0
  1 13  1  0  0  0  0
  3  8  1  0  0  0  0
  4  3  2  0  0  0  0
  5 12  1  0  0  0  0
  6  5  1  0  0  0  0
  7  2  1  0  0  0  0
  8  9  2  0  0  0  0
 10  5  2  0  0  0  0
 10 11  1  0  0  0  0
 11  7  2  0  0  0  0
 12  4  1  0  0  0  0
 12  2  2  0  0  0  0
 13 18  1  1  0  0  0
 14 16  1  1  0  0  0
 14 17  1  0  0  0  0
 15 13  1  0  0  0  0
 15 16  1  1  0  0  0
 15 14  1  0  0  0  0
 18 17  1  0  0  0  0
 19 11  1  0  0  0  0
 20 19  1  1  0  0  0
 21 23  1  6  0  0  0
 21 22  1  0  0  0  0
 21 20  1  0  0  0  0
 22 20  1  0  0  0  0
 23 24  1  0  0  0  0
 25 23  2  0  0  0  0
M  END
>  <MODEL>
9

>  <REMARK>
 VINA RESULT:      -7.8      3.317      6.008
  Name = 
  4 active torsions:
  status: ('A' for Active; 'I' for Inactive)
    1  A    between atoms: C_1  and  C_5
    2  A    between atoms: C_2  and  CA_21
    3  A    between atoms: C_6  and  C_15
    4  A    between atoms: C_6  and  C_23
                            x       y       z     vdW  Elec       q    Type
                         _______ _______ _______ _____ _____    ______ ____

>  <TORSDO>
F 4

$$$$
