=
 OpenBabel10262421343D

 32 37  0  0  1  0  0  0  0  0999 V2000
  179.3620  179.3190  139.6550 C   0  0  2  0  0  3  0  0  0  0  0  0
  180.6840  179.3200  143.1750 C   0  0  0  0  0  3  0  0  0  0  0  0
  185.8450  178.1500  143.3120 C   0  0  0  0  0  0  0  0  0  0  0  0
  186.6590  178.3680  148.1970 C   0  0  0  0  0  3  0  0  0  0  0  0
  187.9260  178.0550  147.9370 C   0  0  0  0  0  3  0  0  0  0  0  0
  183.6530  178.5690  142.3310 C   0  0  0  0  0  0  0  0  0  0  0  0
  183.9720  178.6980  144.7360 C   0  0  0  0  0  3  0  0  0  0  0  0
  179.3460  179.4500  141.0990 N   0  0  0  0  0  2  0  0  0  0  0  0
  181.7380  179.1450  143.9640 C   0  0  0  0  0  3  0  0  0  0  0  0
  185.6340  178.5150  147.1070 C   0  0  0  0  0  3  0  0  0  0  0  0
  185.3270  178.3750  144.5990 C   0  0  0  0  0  0  0  0  0  0  0  0
  186.1810  178.2730  145.7120 C   0  0  2  0  0  3  0  0  0  0  0  0
  188.0120  177.7280  144.1970 C   0  0  0  0  0  0  0  0  0  0  0  0
  181.0670  178.8990  139.1620 S   0  0  0  0  0  0  0  0  0  0  0  0
  181.5770  178.9230  140.8760 C   0  0  0  0  0  0  0  0  0  0  0  0
  178.9790  180.5800  139.0480 N   0  0  0  0  0  1  0  0  0  0  0  0
  183.1240  178.7990  143.6260 C   0  0  0  0  0  0  0  0  0  0  0  0
  182.9820  178.6260  141.1800 C   0  0  0  0  0  3  0  0  0  0  0  0
  180.5990  179.2160  141.7190 C   0  0  0  0  0  0  0  0  0  0  0  0
  188.3770  177.8380  146.5560 C   0  0  0  0  0  3  0  0  0  0  0  0
  187.5430  177.9440  145.5100 C   0  0  0  0  0  0  0  0  0  0  0  0
  185.0100  178.2480  142.2010 C   0  0  0  0  0  3  0  0  0  0  0  0
  187.1540  177.8360  143.1470 N   0  0  0  0  0  0  0  0  0  0  0  0
  191.6160  178.5600  143.8900 C   0  0  0  0  0  0  0  0  0  0  0  0
  192.0640  177.6060  142.8250 C   0  0  0  0  0  2  0  0  0  0  0  0
  189.6450  176.9210  142.4650 C   0  0  1  0  0  3  0  0  0  0  0  0
  191.3380  176.6430  140.7610 F   0  0  0  0  0  0  0  0  0  0  0  0
  190.9370  177.4510  141.8090 C   0  0  2  0  0  3  0  0  0  0  0  0
  190.3740  178.4730  144.3800 C   0  0  0  0  0  3  0  0  0  0  0  0
  192.4300  179.5730  144.2830 F   0  0  0  0  0  0  0  0  0  0  0  0
  189.6060  175.5260  142.4120 O   0  0  0  0  0  1  0  0  0  0  0  0
  189.4460  177.3720  143.9280 C   0  0  1  0  0  3  0  0  0  0  0  0
  1 16  1  6  0  0  0
  1  8  1  0  0  0  0
  2  9  1  0  0  0  0
  3 11  1  0  0  0  0
  5  4  1  0  0  0  0
  6 17  1  0  0  0  0
  8 19  1  0  0  0  0
 10  4  2  0  0  0  0
 11  7  2  0  0  0  0
 11 12  1  0  0  0  0
 12 10  1  1  0  0  0
 13 21  2  0  0  0  0
 14  1  1  0  0  0  0
 14 15  1  0  0  0  0
 15 18  2  0  0  0  0
 15 19  1  0  0  0  0
 17  9  2  0  0  0  0
 17  7  1  0  0  0  0
 18  6  1  0  0  0  0
 19  2  2  0  0  0  0
 20  5  2  0  0  0  0
 21 12  1  0  0  0  0
 21 20  1  0  0  0  0
 22  6  2  0  0  0  0
 22  3  1  0  0  0  0
 23  3  2  0  0  0  0
 23 13  1  0  0  0  0
 24 30  1  0  0  0  0
 24 29  2  0  0  0  0
 25 24  1  0  0  0  0
 26 31  1  1  0  0  0
 26 32  1  0  0  0  0
 28 27  1  6  0  0  0
 28 26  1  0  0  0  0
 28 25  1  0  0  0  0
 32 13  1  6  0  0  0
 32 29  1  0  0  0  0
M  END
>  <MODEL>
1

>  <REMARK>
 VINA RESULT:     -12.1      0.000      0.000
  Name = 
  1 active torsions:
  status: ('A' for Active; 'I' for Inactive)
    1  A    between atoms: C_16  and  C_32
                            x       y       z     vdW  Elec       q    Type
                         _______ _______ _______ _____ _____    ______ ____

>  <TORSDO>
F 1

$$$$
=
 OpenBabel10262421343D

 32 37  0  0  1  0  0  0  0  0999 V2000
  191.8170  176.7480  147.3330 C   0  0  2  0  0  3  0  0  0  0  0  0
  188.2050  177.7500  147.6250 C   0  0  0  0  0  3  0  0  0  0  0  0
  185.8390  177.8920  142.8930 C   0  0  0  0  0  0  0  0  0  0  0  0
  181.2740  179.2780  144.2410 C   0  0  0  0  0  3  0  0  0  0  0  0
  180.9460  179.2320  142.9520 C   0  0  0  0  0  3  0  0  0  0  0  0
  187.6390  177.5740  144.5040 C   0  0  0  0  0  0  0  0  0  0  0  0
  185.4270  178.2520  145.2450 C   0  0  0  0  0  3  0  0  0  0  0  0
  190.5780  177.1450  147.9720 N   0  0  0  0  0  2  0  0  0  0  0  0
  187.0660  177.9920  146.9870 C   0  0  0  0  0  3  0  0  0  0  0  0
  182.6600  178.9500  144.7240 C   0  0  0  0  0  3  0  0  0  0  0  0
  184.9550  178.2420  143.9280 C   0  0  0  0  0  0  0  0  0  0  0  0
  183.6230  178.5700  143.6150 C   0  0  0  0  0  0  0  0  0  0  0  0
  184.1310  178.1820  141.2620 C   0  0  0  0  0  0  0  0  0  0  0  0
  191.4970  176.6330  145.5410 S   0  0  0  0  0  0  0  0  0  0  0  0
  189.7980  177.1250  145.8050 C   0  0  0  0  0  0  0  0  0  0  0  0
  192.2290  175.4500  147.8350 N   0  0  0  0  0  1  0  0  0  0  0  0
  186.7530  177.9250  145.5540 C   0  0  0  0  0  0  0  0  0  0  0  0
  188.9240  177.2380  144.6320 C   0  0  0  0  0  3  0  0  0  0  0  0
  189.4980  177.3420  147.0760 C   0  0  0  0  0  0  0  0  0  0  0  0
  181.9400  178.8520  141.9380 C   0  0  0  0  0  3  0  0  0  0  0  0
  183.2040  178.5410  142.2630 C   0  0  0  0  0  0  0  0  0  0  0  0
  187.1600  177.5640  143.1890 C   0  0  0  0  0  3  0  0  0  0  0  0
  185.4100  177.8720  141.6060 N   0  0  0  0  0  2  0  0  0  0  0  0
  182.9400  176.4280  138.2160 C   0  0  0  0  0  0  0  0  0  0  0  0
  183.6420  177.1840  137.1290 C   0  0  0  0  0  2  0  0  0  0  0  0
  184.9420  178.4600  138.8990 C   0  0  1  0  0  3  0  0  0  0  0  0
  185.7410  178.2120  136.6290 F   0  0  0  0  0  0  0  0  0  0  0  0
  185.0250  177.5830  137.6320 C   0  0  2  0  0  3  0  0  0  0  0  0
  183.0190  176.8560  139.4810 C   0  0  0  0  0  3  0  0  0  0  0  0
  182.3160  175.2560  137.9350 F   0  0  0  0  0  0  0  0  0  0  0  0
  184.9040  179.8130  138.5560 O   0  0  0  0  0  1  0  0  0  0  0  0
  183.7400  178.1400  139.8130 C   0  0  1  0  0  3  0  0  0  0  0  0
  1 16  1  1  0  0  0
  1  8  1  0  0  0  0
  3 22  2  0  0  0  0
  3 11  1  0  0  0  0
  4 10  2  0  0  0  0
  5  4  1  0  0  0  0
  6 18  2  0  0  0  0
  6 17  1  0  0  0  0
  7 17  2  0  0  0  0
  9  2  2  0  0  0  0
 11  7  1  0  0  0  0
 12 11  2  0  0  0  0
 12 10  1  0  0  0  0
 13 23  1  0  0  0  0
 13 21  2  0  0  0  0
 14 15  1  0  0  0  0
 14  1  1  0  0  0  0
 15 19  2  0  0  0  0
 17  9  1  0  0  0  0
 18 15  1  0  0  0  0
 19  2  1  0  0  0  0
 19  8  1  0  0  0  0
 20 21  1  0  0  0  0
 20  5  2  0  0  0  0
 21 12  1  0  0  0  0
 22  6  1  0  0  0  0
 23  3  1  0  0  0  0
 24 29  2  0  0  0  0
 25 28  1  0  0  0  0
 25 24  1  0  0  0  0
 26 31  1  6  0  0  0
 26 32  1  0  0  0  0
 28 27  1  6  0  0  0
 28 26  1  0  0  0  0
 29 32  1  0  0  0  0
 30 24  1  0  0  0  0
 32 13  1  1  0  0  0
M  END
>  <MODEL>
2

>  <REMARK>
 VINA RESULT:     -11.7      4.126      8.343
  Name = 
  1 active torsions:
  status: ('A' for Active; 'I' for Inactive)
    1  A    between atoms: C_16  and  C_32
                            x       y       z     vdW  Elec       q    Type
                         _______ _______ _______ _____ _____    ______ ____

>  <TORSDO>
F 1

$$$$
=
 OpenBabel10262421343D

 32 37  0  0  1  0  0  0  0  0999 V2000
  191.5800  176.8450  146.9050 C   0  0  2  0  0  3  0  0  0  0  0  0
  187.9080  177.5800  147.2470 C   0  0  0  0  0  3  0  0  0  0  0  0
  185.5900  178.1320  142.5210 C   0  0  0  0  0  0  0  0  0  0  0  0
  180.9310  179.0630  143.9390 C   0  0  0  0  0  3  0  0  0  0  0  0
  180.6210  179.1490  142.6470 C   0  0  0  0  0  3  0  0  0  0  0  0
  187.3890  177.7380  144.1170 C   0  0  0  0  0  0  0  0  0  0  0  0
  185.1300  178.1860  144.8910 C   0  0  0  0  0  3  0  0  0  0  0  0
  190.3110  177.0860  147.5640 N   0  0  0  0  0  2  0  0  0  0  0  0
  186.7630  177.8230  146.6200 C   0  0  0  0  0  3  0  0  0  0  0  0
  182.3290  178.7670  144.4050 C   0  0  0  0  0  3  0  0  0  0  0  0
  184.6740  178.3020  143.5740 C   0  0  0  0  0  0  0  0  0  0  0  0
  183.3280  178.5810  143.2770 C   0  0  0  0  0  0  0  0  0  0  0  0
  183.8850  178.5070  140.9040 C   0  0  0  0  0  0  0  0  0  0  0  0
  191.2870  176.9230  145.1070 S   0  0  0  0  0  0  0  0  0  0  0  0
  189.5570  177.2740  145.3960 C   0  0  0  0  0  0  0  0  0  0  0  0
  192.0680  175.5250  147.2590 N   0  0  0  0  0  1  0  0  0  0  0  0
  186.4710  177.9070  145.1840 C   0  0  0  0  0  0  0  0  0  0  0  0
  188.6910  177.4710  144.2280 C   0  0  0  0  0  3  0  0  0  0  0  0
  189.2300  177.3200  146.6780 C   0  0  0  0  0  0  0  0  0  0  0  0
  181.6480  178.9550  141.6140 C   0  0  0  0  0  3  0  0  0  0  0  0
  182.9260  178.6860  141.9230 C   0  0  0  0  0  0  0  0  0  0  0  0
  186.9250  177.8550  142.8010 C   0  0  0  0  0  3  0  0  0  0  0  0
  185.1770  178.2390  141.2330 N   0  0  0  0  0  2  0  0  0  0  0  0
  182.0500  180.0510  138.0720 C   0  0  0  0  0  0  0  0  0  0  0  0
  181.8260  178.8750  137.1710 C   0  0  0  0  0  2  0  0  0  0  0  0
  182.7570  177.3530  138.9770 C   0  0  1  0  0  3  0  0  0  0  0  0
  181.2750  176.5500  137.2420 F   0  0  0  0  0  0  0  0  0  0  0  0
  181.5700  177.6450  138.0350 C   0  0  2  0  0  3  0  0  0  0  0  0
  182.8110  179.9160  139.1640 C   0  0  0  0  0  3  0  0  0  0  0  0
  181.3990  181.2200  137.8400 F   0  0  0  0  0  0  0  0  0  0  0  0
  183.6630  176.4820  138.3690 O   0  0  0  0  0  1  0  0  0  0  0  0
  183.5130  178.6120  139.4530 C   0  0  1  0  0  3  0  0  0  0  0  0
  1 16  1  6  0  0  0
  1  8  1  0  0  0  0
  3 22  2  0  0  0  0
  3 11  1  0  0  0  0
  4 10  2  0  0  0  0
  5  4  1  0  0  0  0
  6 18  2  0  0  0  0
  6 17  1  0  0  0  0
  7 17  2  0  0  0  0
  9  2  2  0  0  0  0
 11  7  1  0  0  0  0
 12 11  2  0  0  0  0
 12 10  1  0  0  0  0
 13 23  1  0  0  0  0
 13 21  2  0  0  0  0
 14 15  1  0  0  0  0
 14  1  1  0  0  0  0
 15 19  2  0  0  0  0
 17  9  1  0  0  0  0
 18 15  1  0  0  0  0
 19  2  1  0  0  0  0
 19  8  1  0  0  0  0
 20 21  1  0  0  0  0
 20  5  2  0  0  0  0
 21 12  1  0  0  0  0
 22  6  1  0  0  0  0
 23  3  1  0  0  0  0
 24 29  2  0  0  0  0
 25 28  1  0  0  0  0
 25 24  1  0  0  0  0
 26 31  1  6  0  0  0
 26 32  1  0  0  0  0
 28 27  1  6  0  0  0
 28 26  1  0  0  0  0
 29 32  1  0  0  0  0
 30 24  1  0  0  0  0
 32 13  1  1  0  0  0
M  END
>  <MODEL>
3

>  <REMARK>
 VINA RESULT:     -11.2      4.445      8.613
  Name = 
  1 active torsions:
  status: ('A' for Active; 'I' for Inactive)
    1  A    between atoms: C_16  and  C_32
                            x       y       z     vdW  Elec       q    Type
                         _______ _______ _______ _____ _____    ______ ____

>  <TORSDO>
F 1

$$$$
=
 OpenBabel10262421343D

 32 37  0  0  1  0  0  0  0  0999 V2000
  191.0190  177.4200  144.1090 C   0  0  2  0  0  3  0  0  0  0  0  0
  187.5190  177.6400  145.4640 C   0  0  0  0  0  3  0  0  0  0  0  0
  184.0210  178.7250  141.6420 C   0  0  0  0  0  0  0  0  0  0  0  0
  179.8350  178.8310  144.2960 C   0  0  0  0  0  3  0  0  0  0  0  0
  179.1960  179.1030  143.1600 C   0  0  0  0  0  3  0  0  0  0  0  0
  186.1960  178.2770  142.6470 C   0  0  0  0  0  0  0  0  0  0  0  0
  184.1890  178.3100  144.0150 C   0  0  0  0  0  3  0  0  0  0  0  0
  189.9510  177.3900  145.0880 N   0  0  0  0  0  2  0  0  0  0  0  0
  186.2360  177.8510  145.1930 C   0  0  0  0  0  3  0  0  0  0  0  0
  181.3240  178.6280  144.3430 C   0  0  0  0  0  3  0  0  0  0  0  0
  183.4000  178.5980  142.8970 C   0  0  0  0  0  0  0  0  0  0  0  0
  182.0060  178.7620  142.9940 C   0  0  0  0  0  0  0  0  0  0  0  0
  181.9340  179.1680  140.5910 C   0  0  0  0  0  0  0  0  0  0  0  0
  190.2660  177.7750  142.4870 S   0  0  0  0  0  0  0  0  0  0  0  0
  188.6490  177.8600  143.2470 C   0  0  0  0  0  0  0  0  0  0  0  0
  191.6760  176.1270  144.0660 N   0  0  0  0  0  1  0  0  0  0  0  0
  185.5770  178.1470  143.9160 C   0  0  0  0  0  0  0  0  0  0  0  0
  187.4980  178.1520  142.3850 C   0  0  0  0  0  3  0  0  0  0  0  0
  188.6630  177.6440  144.5530 C   0  0  0  0  0  0  0  0  0  0  0  0
  179.9310  179.2150  141.8940 C   0  0  0  0  0  2  0  0  0  0  0  0
  181.2610  179.0520  141.8260 C   0  0  0  0  0  0  0  0  0  0  0  0
  185.4000  178.5650  141.5310 C   0  0  0  0  0  3  0  0  0  0  0  0
  183.2820  179.0030  140.5390 N   0  0  0  0  0  0  0  0  0  0  0  0
  181.4680  178.9940  136.9130 C   0  0  0  0  0  0  0  0  0  0  0  0
  180.8040  180.3050  136.6230 C   0  0  0  0  0  2  0  0  0  0  0  0
  181.1810  180.9950  139.0370 C   0  0  1  0  0  3  0  0  0  0  0  0
  180.8650  182.6080  137.2630 F   0  0  0  0  0  0  0  0  0  0  0  0
  181.3910  181.3620  137.5530 C   0  0  2  0  0  3  0  0  0  0  0  0
  181.6840  178.6250  138.1810 C   0  0  0  0  0  3  0  0  0  0  0  0
  181.9440  178.2320  135.8950 F   0  0  0  0  0  0  0  0  0  0  0  0
  179.9860  181.5390  139.5120 O   0  0  0  0  0  1  0  0  0  0  0  0
  181.1910  179.4780  139.3230 C   0  0  1  0  0  3  0  0  0  0  0  0
  1 16  1  6  0  0  0
  1  8  1  0  0  0  0
  3 11  1  0  0  0  0
  4 10  1  0  0  0  0
  5  4  2  0  0  0  0
  6 17  1  0  0  0  0
  9  2  1  0  0  0  0
 11 12  1  0  0  0  0
 11  7  2  0  0  0  0
 12 10  2  0  0  0  0
 13 21  2  0  0  0  0
 14 15  1  0  0  0  0
 14  1  1  0  0  0  0
 15 19  1  0  0  0  0
 17  7  1  0  0  0  0
 17  9  2  0  0  0  0
 18  6  1  0  0  0  0
 18 15  2  0  0  0  0
 19  8  1  0  0  0  0
 19  2  2  0  0  0  0
 20  5  1  0  0  0  0
 21 20  1  0  0  0  0
 21 12  1  0  0  0  0
 22  3  1  0  0  0  0
 22  6  2  0  0  0  0
 23 13  1  0  0  0  0
 23  3  2  0  0  0  0
 24 29  2  0  0  0  0
 25 24  1  0  0  0  0
 25 28  1  0  0  0  0
 26 32  1  0  0  0  0
 26 31  1  6  0  0  0
 28 27  1  6  0  0  0
 28 26  1  0  0  0  0
 29 32  1  0  0  0  0
 30 24  1  0  0  0  0
 32 13  1  1  0  0  0
M  END
>  <MODEL>
4

>  <REMARK>
 VINA RESULT:     -10.6      4.441      8.886
  Name = 
  1 active torsions:
  status: ('A' for Active; 'I' for Inactive)
    1  A    between atoms: C_16  and  C_32
                            x       y       z     vdW  Elec       q    Type
                         _______ _______ _______ _____ _____    ______ ____

>  <TORSDO>
F 1

$$$$
=
 OpenBabel10262421343D

 32 37  0  0  1  0  0  0  0  0999 V2000
  191.4430  176.6780  147.4160 C   0  0  2  0  0  3  0  0  0  0  0  0
  187.8800  177.4920  146.5350 C   0  0  0  0  0  3  0  0  0  0  0  0
  187.2410  178.0100  141.3060 C   0  0  0  0  0  0  0  0  0  0  0  0
  182.3990  179.0590  141.1180 C   0  0  0  0  0  3  0  0  0  0  0  0
  182.5300  179.1290  139.7950 C   0  0  0  0  0  3  0  0  0  0  0  0
  188.4120  177.6070  143.4050 C   0  0  0  0  0  0  0  0  0  0  0  0
  186.0360  178.1130  143.3960 C   0  0  0  0  0  3  0  0  0  0  0  0
  190.0350  176.9560  147.6230 N   0  0  0  0  0  2  0  0  0  0  0  0
  187.0080  177.7480  145.5670 C   0  0  0  0  0  3  0  0  0  0  0  0
  183.5620  178.7420  142.0180 C   0  0  0  0  0  3  0  0  0  0  0  0
  186.0370  178.2160  142.0010 C   0  0  0  0  0  0  0  0  0  0  0  0
  184.8680  178.5170  141.2780 C   0  0  0  0  0  0  0  0  0  0  0  0
  186.1660  178.3900  139.2180 C   0  0  0  0  0  0  0  0  0  0  0  0
  191.7540  176.7310  145.6200 S   0  0  0  0  0  0  0  0  0  0  0  0
  190.0340  177.1210  145.3250 C   0  0  0  0  0  0  0  0  0  0  0  0
  191.7570  175.3540  147.9230 N   0  0  0  0  0  1  0  0  0  0  0  0
  187.2010  177.8130  144.1130 C   0  0  0  0  0  0  0  0  0  0  0  0
  189.6000  177.3150  143.9370 C   0  0  0  0  0  3  0  0  0  0  0  0
  189.3080  177.1960  146.4300 C   0  0  0  0  0  0  0  0  0  0  0  0
  183.8320  178.8960  139.1560 C   0  0  0  0  0  3  0  0  0  0  0  0
  184.9320  178.6070  139.8670 C   0  0  0  0  0  0  0  0  0  0  0  0
  188.4060  177.7100  142.0080 C   0  0  0  0  0  3  0  0  0  0  0  0
  187.2740  178.1020  139.9530 N   0  0  0  0  0  2  0  0  0  0  0  0
  185.6550  177.0810  135.7830 C   0  0  0  0  0  0  0  0  0  0  0  0
  186.8540  177.6210  135.0650 C   0  0  0  0  0  2  0  0  0  0  0  0
  187.7680  178.4550  137.2820 C   0  0  1  0  0  3  0  0  0  0  0  0
  189.1910  178.0170  135.3760 F   0  0  0  0  0  0  0  0  0  0  0  0
  188.0410  177.6050  136.0240 C   0  0  2  0  0  3  0  0  0  0  0  0
  185.4130  177.4550  137.0450 C   0  0  0  0  0  3  0  0  0  0  0  0
  184.8770  176.1370  135.1940 F   0  0  0  0  0  0  0  0  0  0  0  0
  188.2060  179.7670  137.0910 O   0  0  0  0  0  1  0  0  0  0  0  0
  186.2890  178.4780  137.7240 C   0  0  1  0  0  3  0  0  0  0  0  0
  1  8  1  0  0  0  0
  1 16  1  6  0  0  0
  3 11  1  0  0  0  0
  3 22  2  0  0  0  0
  4 10  2  0  0  0  0
  5  4  1  0  0  0  0
  6 18  2  0  0  0  0
  6 17  1  0  0  0  0
  7 17  2  0  0  0  0
  9  2  2  0  0  0  0
 11  7  1  0  0  0  0
 12 11  2  0  0  0  0
 12 10  1  0  0  0  0
 13 21  2  0  0  0  0
 13 23  1  0  0  0  0
 14  1  1  0  0  0  0
 15 14  1  0  0  0  0
 15 19  2  0  0  0  0
 17  9  1  0  0  0  0
 18 15  1  0  0  0  0
 19  2  1  0  0  0  0
 19  8  1  0  0  0  0
 20  5  2  0  0  0  0
 20 21  1  0  0  0  0
 21 12  1  0  0  0  0
 22  6  1  0  0  0  0
 23  3  1  0  0  0  0
 24 29  2  0  0  0  0
 25 24  1  0  0  0  0
 25 28  1  0  0  0  0
 26 31  1  6  0  0  0
 26 32  1  0  0  0  0
 28 27  1  6  0  0  0
 28 26  1  0  0  0  0
 29 32  1  0  0  0  0
 30 24  1  0  0  0  0
 32 13  1  1  0  0  0
M  END
>  <MODEL>
5

>  <REMARK>
 VINA RESULT:     -10.2      4.574      8.348
  Name = 
  1 active torsions:
  status: ('A' for Active; 'I' for Inactive)
    1  A    between atoms: C_16  and  C_32
                            x       y       z     vdW  Elec       q    Type
                         _______ _______ _______ _____ _____    ______ ____

>  <TORSDO>
F 1

$$$$
=
 OpenBabel10262421343D

 32 37  0  0  1  0  0  0  0  0999 V2000
  188.5100  177.5960  147.8990 C   0  0  2  0  0  3  0  0  0  0  0  0
  186.9280  178.3270  144.5680 C   0  0  0  0  0  3  0  0  0  0  0  0
  190.0120  176.7530  140.5650 C   0  0  0  0  0  0  0  0  0  0  0  0
  187.1970  178.1000  136.7130 C   0  0  0  0  0  3  0  0  0  0  0  0
  188.1550  177.6180  135.9240 C   0  0  0  0  0  3  0  0  0  0  0  0
  189.3290  177.1190  142.8760 C   0  0  0  0  0  0  0  0  0  0  0  0
  187.8920  177.8060  141.0420 C   0  0  0  0  0  3  0  0  0  0  0  0
  187.5150  178.0690  146.9570 N   0  0  0  0  0  2  0  0  0  0  0  0
  187.0400  178.2540  143.2470 C   0  0  0  0  0  3  0  0  0  0  0  0
  187.3050  178.0620  138.2120 C   0  0  0  0  0  3  0  0  0  0  0  0
  188.8190  177.3370  140.1060 C   0  0  0  0  0  0  0  0  0  0  0  0
  188.5890  177.4330  138.7210 C   0  0  0  0  0  0  0  0  0  0  0  0
  190.7450  176.3620  138.3360 C   0  0  0  0  0  0  0  0  0  0  0  0
  189.8870  176.8910  146.9350 S   0  0  0  0  0  0  0  0  0  0  0  0
  189.0390  177.2940  145.4130 C   0  0  0  0  0  0  0  0  0  0  0  0
  187.9300  176.5660  148.7420 N   0  0  0  0  0  1  0  0  0  0  0  0
  188.1230  177.7090  142.4200 C   0  0  0  0  0  0  0  0  0  0  0  0
  189.6980  176.9530  144.1470 C   0  0  0  0  0  3  0  0  0  0  0  0
  187.8650  177.8780  145.5970 C   0  0  0  0  0  0  0  0  0  0  0  0
  189.3700  177.0220  136.4970 C   0  0  0  0  0  3  0  0  0  0  0  0
  189.5650  176.9400  137.8220 C   0  0  0  0  0  0  0  0  0  0  0  0
  190.2530  176.6510  141.9330 C   0  0  0  0  0  3  0  0  0  0  0  0
  190.9300  176.2880  139.6810 N   0  0  0  0  0  2  0  0  0  0  0  0
  192.4270  173.6300  136.4710 C   0  0  0  0  0  0  0  0  0  0  0  0
  193.8590  174.0720  136.4990 C   0  0  0  0  0  2  0  0  0  0  0  0
  193.2120  175.9620  138.0670 C   0  0  1  0  0  3  0  0  0  0  0  0
  195.4660  175.0940  137.9440 F   0  0  0  0  0  0  0  0  0  0  0  0
  194.1320  174.7440  137.8410 C   0  0  2  0  0  3  0  0  0  0  0  0
  191.4730  174.4400  136.9420 C   0  0  0  0  0  3  0  0  0  0  0  0
  192.1120  172.3730  136.0660 F   0  0  0  0  0  0  0  0  0  0  0  0
  193.8180  177.1280  137.5950 O   0  0  0  0  0  1  0  0  0  0  0  0
  191.8140  175.8280  137.4270 C   0  0  1  0  0  3  0  0  0  0  0  0
  1 16  1  1  0  0  0
  2 19  1  0  0  0  0
  3 22  2  0  0  0  0
  4 10  2  0  0  0  0
  5 20  2  0  0  0  0
  5  4  1  0  0  0  0
  6 18  2  0  0  0  0
  7 17  2  0  0  0  0
  8  1  1  0  0  0  0
  9  2  2  0  0  0  0
 10 12  1  0  0  0  0
 11  3  1  0  0  0  0
 11  7  1  0  0  0  0
 12 11  2  0  0  0  0
 13 23  1  0  0  0  0
 14  1  1  0  0  0  0
 15 19  2  0  0  0  0
 15 14  1  0  0  0  0
 17  6  1  0  0  0  0
 17  9  1  0  0  0  0
 18 15  1  0  0  0  0
 19  8  1  0  0  0  0
 20 21  1  0  0  0  0
 21 13  2  0  0  0  0
 21 12  1  0  0  0  0
 22  6  1  0  0  0  0
 23  3  1  0  0  0  0
 24 25  1  0  0  0  0
 24 29  2  0  0  0  0
 25 28  1  0  0  0  0
 26 31  1  6  0  0  0
 28 27  1  6  0  0  0
 28 26  1  0  0  0  0
 29 32  1  0  0  0  0
 30 24  1  0  0  0  0
 32 26  1  0  0  0  0
 32 13  1  1  0  0  0
M  END
>  <MODEL>
6

>  <REMARK>
 VINA RESULT:      -9.6      5.181      8.326
  Name = 
  1 active torsions:
  status: ('A' for Active; 'I' for Inactive)
    1  A    between atoms: C_16  and  C_32
                            x       y       z     vdW  Elec       q    Type
                         _______ _______ _______ _____ _____    ______ ____

>  <TORSDO>
F 1

$$$$
=
 OpenBabel10262421343D

 32 37  0  0  1  0  0  0  0  0999 V2000
  191.2020  176.7530  147.6820 C   0  0  2  0  0  3  0  0  0  0  0  0
  191.6810  177.1830  143.9780 C   0  0  0  0  0  3  0  0  0  0  0  0
  187.0750  178.0230  141.5090 C   0  0  0  0  0  0  0  0  0  0  0  0
  188.6580  178.4400  136.8290 C   0  0  0  0  0  3  0  0  0  0  0  0
  187.3860  178.6280  136.4820 C   0  0  0  0  0  3  0  0  0  0  0  0
  188.5920  177.6110  143.3710 C   0  0  0  0  0  0  0  0  0  0  0  0
  189.4460  177.8060  141.1050 C   0  0  0  0  0  3  0  0  0  0  0  0
  191.9050  176.8420  146.4180 N   0  0  0  0  0  2  0  0  0  0  0  0
  191.1020  177.4000  142.8030 C   0  0  0  0  0  3  0  0  0  0  0  0
  189.0680  178.2130  138.2580 C   0  0  0  0  0  2  0  0  0  0  0  0
  188.1550  178.0150  140.6100 C   0  0  0  0  0  0  0  0  0  0  0  0
  187.9100  178.2190  139.2390 C   0  0  0  0  0  0  0  0  0  0  0  0
  185.5340  178.4250  139.7420 C   0  0  0  0  0  0  0  0  0  0  0  0
  189.4290  177.0090  147.3430 S   0  0  0  0  0  0  0  0  0  0  0  0
  189.7800  177.1910  145.5990 C   0  0  0  0  0  0  0  0  0  0  0  0
  191.6790  177.7910  148.5780 N   0  0  0  0  0  1  0  0  0  0  0  0
  189.6870  177.6030  142.4700 C   0  0  0  0  0  0  0  0  0  0  0  0
  188.6530  177.4340  144.6920 C   0  0  0  0  0  3  0  0  0  0  0  0
  191.0660  177.0820  145.3010 C   0  0  0  0  0  0  0  0  0  0  0  0
  186.3220  178.6200  137.4950 C   0  0  0  0  0  3  0  0  0  0  0  0
  186.5820  178.4260  138.7970 C   0  0  0  0  0  0  0  0  0  0  0  0
  187.3020  177.8220  142.8680 C   0  0  0  0  0  3  0  0  0  0  0  0
  185.8110  178.2230  141.0580 N   0  0  0  0  0  0  0  0  0  0  0  0
  182.5980  180.5680  138.9920 C   0  0  0  0  0  0  0  0  0  0  0  0
  181.4580  179.6880  139.4070 C   0  0  0  0  0  2  0  0  0  0  0  0
  183.1280  178.0240  140.3520 C   0  0  1  0  0  3  0  0  0  0  0  0
  180.8320  178.1260  141.1060 F   0  0  0  0  0  0  0  0  0  0  0  0
  181.8840  178.8920  140.6370 C   0  0  2  0  0  3  0  0  0  0  0  0
  183.8450  180.0830  138.9910 C   0  0  0  0  0  3  0  0  0  0  0  0
  182.3790  181.8790  138.7180 F   0  0  0  0  0  0  0  0  0  0  0  0
  182.7490  176.7530  139.9170 O   0  0  0  0  0  1  0  0  0  0  0  0
  184.1060  178.6360  139.3260 C   0  0  1  0  0  3  0  0  0  0  0  0
  1 16  1  1  0  0  0
  2 19  1  0  0  0  0
  3 22  2  0  0  0  0
  4 10  1  0  0  0  0
  5  4  2  0  0  0  0
  5 20  1  0  0  0  0
  6 18  2  0  0  0  0
  7 17  2  0  0  0  0
  8  1  1  0  0  0  0
  9  2  2  0  0  0  0
 10 12  1  0  0  0  0
 11  7  1  0  0  0  0
 11  3  1  0  0  0  0
 12 11  2  0  0  0  0
 13 23  2  0  0  0  0
 14  1  1  0  0  0  0
 15 14  1  0  0  0  0
 17  9  1  0  0  0  0
 17  6  1  0  0  0  0
 18 15  1  0  0  0  0
 19 15  2  0  0  0  0
 19  8  1  0  0  0  0
 20 21  2  0  0  0  0
 21 12  1  0  0  0  0
 21 13  1  0  0  0  0
 22  6  1  0  0  0  0
 23  3  1  0  0  0  0
 24 25  1  0  0  0  0
 25 28  1  0  0  0  0
 26 31  1  6  0  0  0
 26 28  1  0  0  0  0
 28 27  1  6  0  0  0
 29 24  2  0  0  0  0
 29 32  1  0  0  0  0
 30 24  1  0  0  0  0
 32 13  1  1  0  0  0
 32 26  1  0  0  0  0
M  END
>  <MODEL>
7

>  <REMARK>
 VINA RESULT:      -9.6      4.736      9.365
  Name = 
  1 active torsions:
  status: ('A' for Active; 'I' for Inactive)
    1  A    between atoms: C_16  and  C_32
                            x       y       z     vdW  Elec       q    Type
                         _______ _______ _______ _____ _____    ______ ____

>  <TORSDO>
F 1

$$$$
=
 OpenBabel10262421343D

 32 37  0  0  1  0  0  0  0  0999 V2000
  188.8870  177.4460  148.1050 C   0  0  2  0  0  3  0  0  0  0  0  0
  190.1480  177.4110  144.5640 C   0  0  0  0  0  3  0  0  0  0  0  0
  186.2410  178.2850  141.1010 C   0  0  0  0  0  0  0  0  0  0  0  0
  188.7760  178.0460  136.8470 C   0  0  0  0  0  3  0  0  0  0  0  0
  187.6250  178.2820  136.2210 C   0  0  0  0  0  3  0  0  0  0  0  0
  187.3020  177.9850  143.2750 C   0  0  0  0  0  0  0  0  0  0  0  0
  188.6140  177.8550  141.2340 C   0  0  0  0  0  3  0  0  0  0  0  0
  189.8380  177.3390  147.0160 N   0  0  0  0  0  2  0  0  0  0  0  0
  189.8440  177.5310  143.2770 C   0  0  0  0  0  3  0  0  0  0  0  0
  188.8640  177.9570  138.3460 C   0  0  0  0  0  3  0  0  0  0  0  0
  187.4760  178.0970  140.4570 C   0  0  0  0  0  0  0  0  0  0  0  0
  187.5360  178.1580  139.0530 C   0  0  0  0  0  0  0  0  0  0  0  0
  185.1370  178.5890  139.0160 C   0  0  0  0  0  0  0  0  0  0  0  0
  187.2510  177.7870  147.3730 S   0  0  0  0  0  0  0  0  0  0  0  0
  187.9660  177.7410  145.7350 C   0  0  0  0  0  0  0  0  0  0  0  0
  189.2660  178.5440  148.9760 N   0  0  0  0  0  1  0  0  0  0  0  0
  188.5510  177.7950  142.6320 C   0  0  0  0  0  0  0  0  0  0  0  0
  187.0750  177.9580  144.5890 C   0  0  0  0  0  3  0  0  0  0  0  0
  189.2700  177.5070  145.7290 C   0  0  0  0  0  0  0  0  0  0  0  0
  186.3810  178.4680  136.9800 C   0  0  0  0  0  3  0  0  0  0  0  0
  186.3510  178.4070  138.3200 C   0  0  0  0  0  0  0  0  0  0  0  0
  186.1670  178.2270  142.4910 C   0  0  0  0  0  3  0  0  0  0  0  0
  185.1200  178.5220  140.3740 N   0  0  0  0  0  2  0  0  0  0  0  0
  181.8670  180.2960  138.6040 C   0  0  0  0  0  0  0  0  0  0  0  0
  181.0490  179.2380  137.9270 C   0  0  0  0  0  2  0  0  0  0  0  0
  182.9550  177.5940  138.2630 C   0  0  1  0  0  3  0  0  0  0  0  0
  180.6660  176.8780  137.9510 F   0  0  0  0  0  0  0  0  0  0  0  0
  181.4550  177.8790  138.4880 C   0  0  2  0  0  3  0  0  0  0  0  0
  183.1740  180.0960  138.8070 C   0  0  0  0  0  3  0  0  0  0  0  0
  181.2650  181.4050  139.1030 F   0  0  0  0  0  0  0  0  0  0  0  0
  183.1500  176.9220  137.0540 O   0  0  0  0  0  1  0  0  0  0  0  0
  183.8500  178.8510  138.2880 C   0  0  1  0  0  3  0  0  0  0  0  0
  1 16  1  1  0  0  0
  2 19  1  0  0  0  0
  3 22  2  0  0  0  0
  4 10  2  0  0  0  0
  5  4  1  0  0  0  0
  5 20  2  0  0  0  0
  6 18  2  0  0  0  0
  7 17  2  0  0  0  0
  8  1  1  0  0  0  0
  9  2  2  0  0  0  0
 10 12  1  0  0  0  0
 11  3  1  0  0  0  0
 11  7  1  0  0  0  0
 12 11  2  0  0  0  0
 13 23  1  0  0  0  0
 14  1  1  0  0  0  0
 15 14  1  0  0  0  0
 17  6  1  0  0  0  0
 17  9  1  0  0  0  0
 18 15  1  0  0  0  0
 19 15  2  0  0  0  0
 19  8  1  0  0  0  0
 20 21  1  0  0  0  0
 21 13  2  0  0  0  0
 21 12  1  0  0  0  0
 22  6  1  0  0  0  0
 23  3  1  0  0  0  0
 24 29  2  0  0  0  0
 24 30  1  0  0  0  0
 25 28  1  0  0  0  0
 25 24  1  0  0  0  0
 26 31  1  6  0  0  0
 26 32  1  0  0  0  0
 26 28  1  0  0  0  0
 28 27  1  6  0  0  0
 32 29  1  0  0  0  0
 32 13  1  1  0  0  0
M  END
>  <MODEL>
8

>  <REMARK>
 VINA RESULT:      -9.3      4.789      9.069
  Name = 
  1 active torsions:
  status: ('A' for Active; 'I' for Inactive)
    1  A    between atoms: C_16  and  C_32
                            x       y       z     vdW  Elec       q    Type
                         _______ _______ _______ _____ _____    ______ ____

>  <TORSDO>
F 1

$$$$
=
 OpenBabel10262421343D

 32 37  0  0  1  0  0  0  0  0999 V2000
  193.5190  175.8350  136.2940 C   0  0  2  0  0  3  0  0  0  0  0  0
  190.0870  177.1850  137.0210 C   0  0  0  0  0  3  0  0  0  0  0  0
  189.0470  177.1570  142.2110 C   0  0  0  0  0  0  0  0  0  0  0  0
  184.4570  179.0310  142.1910 C   0  0  0  0  0  3  0  0  0  0  0  0
  184.4690  178.9090  143.5170 C   0  0  0  0  0  3  0  0  0  0  0  0
  190.3270  176.8120  140.1670 C   0  0  0  0  0  0  0  0  0  0  0  0
  188.0840  177.7380  140.0740 C   0  0  0  0  0  3  0  0  0  0  0  0
  192.2110  176.4010  136.0280 N   0  0  0  0  0  2  0  0  0  0  0  0
  189.1820  177.4740  137.9490 C   0  0  0  0  0  3  0  0  0  0  0  0
  185.6320  178.6280  141.3430 C   0  0  0  0  0  3  0  0  0  0  0  0
  187.9680  177.6630  141.4660 C   0  0  0  0  0  0  0  0  0  0  0  0
  186.8030  178.0800  142.1370 C   0  0  1  0  0  3  0  0  0  0  0  0
  187.8570  177.4660  144.2480 C   0  0  0  0  0  0  0  0  0  0  0  0
  193.6700  175.6290  138.1000 S   0  0  0  0  0  0  0  0  0  0  0  0
  192.0200  176.2820  138.3200 C   0  0  0  0  0  0  0  0  0  0  0  0
  194.5470  176.7460  135.8240 N   0  0  0  0  0  1  0  0  0  0  0  0
  189.2440  177.3210  139.4080 C   0  0  0  0  0  0  0  0  0  0  0  0
  191.4940  176.3760  139.6870 C   0  0  0  0  0  3  0  0  0  0  0  0
  191.4260  176.6220  137.1870 C   0  0  0  0  0  0  0  0  0  0  0  0
  185.6460  178.3700  144.2100 C   0  0  0  0  0  3  0  0  0  0  0  0
  186.7460  177.9810  143.5480 C   0  0  0  0  0  0  0  0  0  0  0  0
  190.2050  176.7400  141.5600 C   0  0  0  0  0  3  0  0  0  0  0  0
  188.9640  177.0720  143.5620 N   0  0  0  0  0  0  0  0  0  0  0  0
  186.9460  178.6230  147.6550 C   0  0  0  0  0  0  0  0  0  0  0  0
  188.1050  178.1330  148.4680 C   0  0  0  0  0  2  0  0  0  0  0  0
  189.2730  177.4330  146.3250 C   0  0  1  0  0  3  0  0  0  0  0  0
  190.4820  177.8920  148.3690 F   0  0  0  0  0  0  0  0  0  0  0  0
  189.3720  178.2540  147.6270 C   0  0  2  0  0  3  0  0  0  0  0  0
  186.8470  178.2790  146.3660 C   0  0  0  0  0  3  0  0  0  0  0  0
  186.0580  179.4960  148.1940 F   0  0  0  0  0  0  0  0  0  0  0  0
  189.7740  176.1440  146.5190 O   0  0  0  0  0  1  0  0  0  0  0  0
  187.8460  177.3350  145.7440 C   0  0  1  0  0  3  0  0  0  0  0  0
  1 16  1  1  0  0  0
  1 14  1  0  0  0  0
  2 19  2  0  0  0  0
  2  9  1  0  0  0  0
  3 23  2  0  0  0  0
  4  5  1  0  0  0  0
  5 20  2  0  0  0  0
  6 22  2  0  0  0  0
  7 11  2  0  0  0  0
  8  1  1  0  0  0  0
  8 19  1  0  0  0  0
  9 17  2  0  0  0  0
 10  4  2  0  0  0  0
 11 12  1  0  0  0  0
 11  3  1  0  0  0  0
 12 10  1  1  0  0  0
 12 21  1  0  0  0  0
 14 15  1  0  0  0  0
 15 18  2  0  0  0  0
 17  7  1  0  0  0  0
 17  6  1  0  0  0  0
 18  6  1  0  0  0  0
 19 15  1  0  0  0  0
 21 20  1  0  0  0  0
 21 13  2  0  0  0  0
 22  3  1  0  0  0  0
 23 13  1  0  0  0  0
 24 30  1  0  0  0  0
 24 25  1  0  0  0  0
 26 31  1  1  0  0  0
 26 28  1  0  0  0  0
 28 27  1  1  0  0  0
 28 25  1  0  0  0  0
 29 24  2  0  0  0  0
 32 13  1  6  0  0  0
 32 26  1  0  0  0  0
 32 29  1  0  0  0  0
M  END
>  <MODEL>
9

>  <REMARK>
 VINA RESULT:      -9.3      4.451      8.056
  Name = 
  1 active torsions:
  status: ('A' for Active; 'I' for Inactive)
    1  A    between atoms: C_16  and  C_32
                            x       y       z     vdW  Elec       q    Type
                         _______ _______ _______ _____ _____    ______ ____

>  <TORSDO>
F 1

$$$$
