=
 OpenBabel10262423033D

 37 41  0  0  1  0  0  0  0  0999 V2000
  184.0130  178.0630  138.6310 C   0  0  1  0  0  3  0  0  0  0  0  0
  184.1700  174.8630  135.0320 C   0  0  0  0  0  1  0  0  0  0  0  0
  181.1610  178.7350  135.7350 C   0  0  0  0  0  1  0  0  0  0  0  0
  182.6750  176.0520  139.3710 C   0  0  0  0  0  1  0  0  0  0  0  0
  182.2820  177.8610  136.2570 C   0  0  1  0  0  3  0  0  0  0  0  0
  183.1210  176.8750  138.1700 C   0  0  1  0  0  0  0  0  0  0  0  0
  183.1890  175.5100  135.9860 C   0  0  0  0  0  0  0  0  0  0  0  0
  181.9490  177.3610  137.5300 O   0  0  0  0  0  0  0  0  0  0  0  0
  182.1220  174.4900  136.3380 C   0  0  0  0  0  1  0  0  0  0  0  0
  182.5380  176.7070  135.2880 C   0  0  0  0  0  2  0  0  0  0  0  0
  183.9410  175.9350  137.2530 C   0  0  0  0  0  2  0  0  0  0  0  0
  182.2380  179.4680  139.6340 C   0  0  0  0  0  3  0  0  0  0  0  0
  183.4610  178.7440  139.8030 N   0  0  0  0  0  0  0  0  0  0  0  0
  184.3070  178.9980  140.9680 C   0  0  0  0  0  2  0  0  0  0  0  0
  181.3070  178.7180  141.8350 C   0  0  0  0  0  2  0  0  0  0  0  0
  181.2790  179.5050  140.5610 C   0  0  0  0  0  3  0  0  0  0  0  0
  183.7410  178.3280  142.2110 C   0  0  2  0  0  3  0  0  0  0  0  0
  182.5040  179.0640  142.7070 C   0  0  0  0  0  2  0  0  0  0  0  0
  186.0470  177.7450  142.9620 C   0  0  0  0  0  3  0  0  0  0  0  0
  184.7820  178.2510  143.2820 C   0  0  0  0  0  0  0  0  0  0  0  0
  184.5230  178.6950  144.5890 C   0  0  0  0  0  3  0  0  0  0  0  0
  185.2630  179.0630  146.8560 O   0  0  0  0  0  1  0  0  0  0  0  0
  186.7820  178.1110  145.2400 C   0  0  0  0  0  3  0  0  0  0  0  0
  185.5210  178.6210  145.5660 C   0  0  0  0  0  0  0  0  0  0  0  0
  187.0450  177.6750  143.9380 C   0  0  0  0  0  3  0  0  0  0  0  0
  186.3820  177.9590  137.9250 C   0  0  0  0  0  3  0  0  0  0  0  0
  185.4600  177.7220  138.8500 C   0  0  0  0  0  3  0  0  0  0  0  0
  187.8220  177.6530  138.0740 C   0  0  0  0  0  0  0  0  0  0  0  0
  188.4910  176.7030  137.4040 C   0  0  0  0  0  3  0  0  0  0  0  0
  188.1760  174.3750  136.7790 C   0  0  2  0  0  3  0  0  0  0  0  0
  187.8980  175.7760  136.3960 C   0  0  2  0  0  3  0  0  0  0  0  0
  188.9230  175.0340  135.7840 O   0  0  0  0  0  0  0  0  0  0  0  0
  186.4780  172.8260  137.2350 C   0  0  0  0  0  2  0  0  0  0  0  0
  187.5580  172.1260  136.5550 C   0  0  0  0  0  2  0  0  0  0  0  0
  187.2080  173.4950  136.1480 N   0  0  0  0  0  0  0  0  0  0  0  0
  189.4670  177.2180  140.0580 C   0  0  0  0  0  1  0  0  0  0  0  0
  188.7540  178.6630  139.2200 S   0  0  0  0  0  0  0  0  0  0  0  0
  1 27  1  1  0  0  0
  1 13  1  0  0  0  0
  2  7  1  0  0  0  0
  5  3  1  6  0  0  0
  5  8  1  0  0  0  0
  6  1  1  0  0  0  0
  6  4  1  1  0  0  0
  7  9  1  0  0  0  0
  7 11  1  0  0  0  0
  8  6  1  0  0  0  0
 10  7  1  0  0  0  0
 10  5  1  0  0  0  0
 11  6  1  0  0  0  0
 12 13  1  0  0  0  0
 12 16  2  0  0  0  0
 13 14  1  0  0  0  0
 14 17  1  0  0  0  0
 15 18  1  0  0  0  0
 16 15  1  0  0  0  0
 17 18  1  0  0  0  0
 17 20  1  1  0  0  0
 19 20  2  0  0  0  0
 19 25  1  0  0  0  0
 20 21  1  0  0  0  0
 21 24  2  0  0  0  0
 23 24  1  0  0  0  0
 24 22  1  0  0  0  0
 25 23  2  0  0  0  0
 26 28  1  0  0  0  0
 26 27  2  0  0  0  0
 28 37  1  0  0  0  0
 29 28  2  0  0  0  0
 30 35  1  6  0  0  0
 31 30  1  0  0  0  0
 31 29  1  1  0  0  0
 32 31  1  0  0  0  0
 32 30  1  0  0  0  0
 34 33  1  0  0  0  0
 35 34  1  0  0  0  0
 35 33  1  0  0  0  0
 37 36  1  0  0  0  0
M  END
>  <MODEL>
1

>  <REMARK>
 VINA RESULT:      -6.8      0.000      0.000
  Name = 
  8 active torsions:
  status: ('A' for Active; 'I' for Inactive)
    1  A    between atoms: C_1  and  C_5
    2  A    between atoms: C_5  and  S_23
    3  A    between atoms: C_6  and  C_31
    4  A    between atoms: N_10  and  C_29
    5  A    between atoms: C_11  and  N_33
    6  A    between atoms: C_17  and  C_26
    7  A    between atoms: C_20  and  C_29
    8  A    between atoms: C_29  and  C_36
                            x       y       z     vdW  Elec       q    Type
                         _______ _______ _______ _____ _____    ______ ____

>  <TORSDO>
F 8

$$$$
=
 OpenBabel10262423033D

 37 41  0  0  1  0  0  0  0  0999 V2000
  184.0240  177.7890  140.1220 C   0  0  1  0  0  3  0  0  0  0  0  0
  187.0150  176.8030  136.4750 C   0  0  0  0  0  1  0  0  0  0  0  0
  187.9970  178.2510  141.1100 C   0  0  0  0  0  1  0  0  0  0  0  0
  184.2080  179.8880  138.7290 C   0  0  0  0  0  1  0  0  0  0  0  0
  186.9650  177.9420  140.0460 C   0  0  1  0  0  3  0  0  0  0  0  0
  184.9350  178.6300  139.1840 C   0  0  1  0  0  0  0  0  0  0  0  0
  186.7490  177.8640  137.5220 C   0  0  0  0  0  0  0  0  0  0  0  0
  186.1050  179.0440  139.8760 O   0  0  0  0  0  0  0  0  0  0  0  0
  187.0780  179.2190  136.9230 C   0  0  0  0  0  1  0  0  0  0  0  0
  187.6590  177.6060  138.7270 C   0  0  0  0  0  2  0  0  0  0  0  0
  185.2670  177.8110  137.9110 C   0  0  0  0  0  2  0  0  0  0  0  0
  182.3830  179.2740  141.2310 C   0  0  0  0  0  3  0  0  0  0  0  0
  183.6100  178.5410  141.3070 N   0  0  0  0  0  0  0  0  0  0  0  0
  184.5800  178.8450  142.3580 C   0  0  0  0  0  2  0  0  0  0  0  0
  181.6890  178.6600  143.5590 C   0  0  0  0  0  2  0  0  0  0  0  0
  181.5310  179.3770  142.2530 C   0  0  0  0  0  3  0  0  0  0  0  0
  184.1460  178.2530  143.6900 C   0  0  2  0  0  3  0  0  0  0  0  0
  182.9770  179.0340  144.2750 C   0  0  0  0  0  2  0  0  0  0  0  0
  185.1020  178.6660  145.9570 C   0  0  0  0  0  3  0  0  0  0  0  0
  185.2960  178.2180  144.6450 C   0  0  0  0  0  0  0  0  0  0  0  0
  186.5540  177.7250  144.2600 C   0  0  0  0  0  3  0  0  0  0  0  0
  188.8480  177.2050  144.7960 O   0  0  0  0  0  1  0  0  0  0  0  0
  187.4070  178.1470  146.4870 C   0  0  0  0  0  3  0  0  0  0  0  0
  187.6070  177.6940  145.1790 C   0  0  0  0  0  0  0  0  0  0  0  0
  186.1550  178.6310  146.8750 C   0  0  0  0  0  3  0  0  0  0  0  0
  182.5940  175.8550  139.5430 C   0  0  0  0  0  3  0  0  0  0  0  0
  182.8350  177.1570  139.4550 C   0  0  0  0  0  3  0  0  0  0  0  0
  181.4440  175.1680  138.9150 C   0  0  0  0  0  0  0  0  0  0  0  0
  181.4750  174.4960  137.7540 C   0  0  0  0  0  3  0  0  0  0  0  0
  182.7990  172.9190  136.4630 C   0  0  2  0  0  3  0  0  0  0  0  0
  182.6750  174.3320  136.8830 C   0  0  2  0  0  3  0  0  0  0  0  0
  183.5850  173.4570  137.5010 O   0  0  0  0  0  0  0  0  0  0  0  0
  183.3060  171.5300  134.6450 C   0  0  0  0  0  2  0  0  0  0  0  0
  184.5190  171.7080  135.4310 C   0  0  0  0  0  2  0  0  0  0  0  0
  183.5960  172.8380  135.2510 N   0  0  0  0  0  0  0  0  0  0  0  0
  179.2480  173.7490  138.9310 C   0  0  0  0  0  1  0  0  0  0  0  0
  179.8890  175.2090  139.8000 S   0  0  0  0  0  0  0  0  0  0  0  0
  1 27  1  6  0  0  0
  1 13  1  0  0  0  0
  2  7  1  0  0  0  0
  5  3  1  1  0  0  0
  6  4  1  6  0  0  0
  6  8  1  0  0  0  0
  6  1  1  0  0  0  0
  7 11  1  0  0  0  0
  7 10  1  0  0  0  0
  8  5  1  0  0  0  0
  9  7  1  0  0  0  0
 10  5  1  0  0  0  0
 11  6  1  0  0  0  0
 12 13  1  0  0  0  0
 12 16  2  0  0  0  0
 13 14  1  0  0  0  0
 14 17  1  0  0  0  0
 15 18  1  0  0  0  0
 16 15  1  0  0  0  0
 17 18  1  0  0  0  0
 17 20  1  1  0  0  0
 19 25  1  0  0  0  0
 20 19  2  0  0  0  0
 21 20  1  0  0  0  0
 21 24  2  0  0  0  0
 22 24  1  0  0  0  0
 23 25  2  0  0  0  0
 24 23  1  0  0  0  0
 27 26  2  0  0  0  0
 28 26  1  0  0  0  0
 28 37  1  0  0  0  0
 29 28  2  0  0  0  0
 30 35  1  6  0  0  0
 30 31  1  0  0  0  0
 30 32  1  0  0  0  0
 31 32  1  0  0  0  0
 31 29  1  1  0  0  0
 33 35  1  0  0  0  0
 33 34  1  0  0  0  0
 35 34  1  0  0  0  0
 36 37  1  0  0  0  0
M  END
>  <MODEL>
2

>  <REMARK>
 VINA RESULT:      -6.5      2.782      4.773
  Name = 
  8 active torsions:
  status: ('A' for Active; 'I' for Inactive)
    1  A    between atoms: C_1  and  C_5
    2  A    between atoms: C_5  and  S_23
    3  A    between atoms: C_6  and  C_31
    4  A    between atoms: N_10  and  C_29
    5  A    between atoms: C_11  and  N_33
    6  A    between atoms: C_17  and  C_26
    7  A    between atoms: C_20  and  C_29
    8  A    between atoms: C_29  and  C_36
                            x       y       z     vdW  Elec       q    Type
                         _______ _______ _______ _____ _____    ______ ____

>  <TORSDO>
F 8

$$$$
=
 OpenBabel10262423033D

 37 41  0  0  1  0  0  0  0  0999 V2000
  186.3200  178.0940  138.6280 C   0  0  1  0  0  3  0  0  0  0  0  0
  188.2130  174.2400  136.4410 C   0  0  0  0  0  1  0  0  0  0  0  0
  186.9420  178.6580  134.5950 C   0  0  0  0  0  1  0  0  0  0  0  0
  184.4000  176.5620  138.0370 C   0  0  0  0  0  1  0  0  0  0  0  0
  186.9880  177.7220  135.7840 C   0  0  1  0  0  3  0  0  0  0  0  0
  185.7950  177.0200  137.6330 C   0  0  1  0  0  0  0  0  0  0  0  0
  187.0870  175.2400  136.2910 C   0  0  0  0  0  0  0  0  0  0  0  0
  185.6980  177.5680  136.3250 O   0  0  0  0  0  0  0  0  0  0  0  0
  185.8960  174.5290  135.6760 C   0  0  0  0  0  1  0  0  0  0  0  0
  187.5460  176.3650  135.3580 C   0  0  0  0  0  2  0  0  0  0  0  0
  186.7150  175.7750  137.6790 C   0  0  0  0  0  2  0  0  0  0  0  0
  184.1420  179.2680  138.7270 C   0  0  0  0  0  3  0  0  0  0  0  0
  185.2420  178.6780  139.4270 N   0  0  0  0  0  0  0  0  0  0  0  0
  185.4640  178.9920  140.8380 C   0  0  0  0  0  2  0  0  0  0  0  0
  182.4370  178.3610  140.3210 C   0  0  0  0  0  2  0  0  0  0  0  0
  182.8780  179.1750  139.1440 C   0  0  0  0  0  3  0  0  0  0  0  0
  184.4920  178.2300  141.7270 C   0  0  2  0  0  3  0  0  0  0  0  0
  183.0900  178.8110  141.6180 C   0  0  0  0  0  2  0  0  0  0  0  0
  184.0970  178.6840  144.1470 C   0  0  0  0  0  3  0  0  0  0  0  0
  184.9660  178.2380  143.1450 C   0  0  0  0  0  0  0  0  0  0  0  0
  186.2500  177.7870  143.4910 C   0  0  0  0  0  3  0  0  0  0  0  0
  187.9290  177.3480  145.1680 O   0  0  0  0  0  1  0  0  0  0  0  0
  185.7880  178.2470  145.8240 C   0  0  0  0  0  3  0  0  0  0  0  0
  186.6600  177.7950  144.8280 C   0  0  0  0  0  0  0  0  0  0  0  0
  184.5070  178.6900  145.4830 C   0  0  0  0  0  3  0  0  0  0  0  0
  188.7180  177.8480  139.1830 C   0  0  0  0  0  3  0  0  0  0  0  0
  187.4480  177.6430  139.5110 C   0  0  0  0  0  3  0  0  0  0  0  0
  189.8770  177.4350  140.0050 C   0  0  0  0  0  0  0  0  0  0  0  0
  191.0410  176.9630  139.5320 C   0  0  0  0  0  3  0  0  0  0  0  0
  191.9710  175.4240  137.8960 C   0  0  2  0  0  3  0  0  0  0  0  0
  191.3690  176.7620  138.0900 C   0  0  2  0  0  3  0  0  0  0  0  0
  192.7570  176.5920  137.9470 O   0  0  0  0  0  0  0  0  0  0  0  0
  191.9900  173.5540  136.4840 C   0  0  0  0  0  2  0  0  0  0  0  0
  193.0930  174.4230  136.0990 C   0  0  0  0  0  2  0  0  0  0  0  0
  191.8110  175.0130  136.5120 N   0  0  0  0  0  0  0  0  0  0  0  0
  191.5040  177.3920  142.0500 C   0  0  0  0  0  1  0  0  0  0  0  0
  189.7220  177.6130  141.7780 S   0  0  0  0  0  0  0  0  0  0  0  0
  1 13  1  0  0  0  0
  1 27  1  1  0  0  0
  5  3  1  6  0  0  0
  5  8  1  0  0  0  0
  6 11  1  0  0  0  0
  6  4  1  1  0  0  0
  6  1  1  0  0  0  0
  7  2  1  0  0  0  0
  7 11  1  0  0  0  0
  8  6  1  0  0  0  0
  9  7  1  0  0  0  0
 10  5  1  0  0  0  0
 10  7  1  0  0  0  0
 12 16  2  0  0  0  0
 12 13  1  0  0  0  0
 13 14  1  0  0  0  0
 14 17  1  0  0  0  0
 15 18  1  0  0  0  0
 16 15  1  0  0  0  0
 17 20  1  1  0  0  0
 18 17  1  0  0  0  0
 19 25  1  0  0  0  0
 20 21  1  0  0  0  0
 20 19  2  0  0  0  0
 21 24  2  0  0  0  0
 24 22  1  0  0  0  0
 24 23  1  0  0  0  0
 25 23  2  0  0  0  0
 26 27  2  0  0  0  0
 26 28  1  0  0  0  0
 28 37  1  0  0  0  0
 29 28  2  0  0  0  0
 30 35  1  6  0  0  0
 30 32  1  0  0  0  0
 30 31  1  0  0  0  0
 31 29  1  1  0  0  0
 32 31  1  0  0  0  0
 33 35  1  0  0  0  0
 34 33  1  0  0  0  0
 34 35  1  0  0  0  0
 37 36  1  0  0  0  0
M  END
>  <MODEL>
3

>  <REMARK>
 VINA RESULT:      -6.5      2.330      3.381
  Name = 
  8 active torsions:
  status: ('A' for Active; 'I' for Inactive)
    1  A    between atoms: C_1  and  C_5
    2  A    between atoms: C_5  and  S_23
    3  A    between atoms: C_6  and  C_31
    4  A    between atoms: N_10  and  C_29
    5  A    between atoms: C_11  and  N_33
    6  A    between atoms: C_17  and  C_26
    7  A    between atoms: C_20  and  C_29
    8  A    between atoms: C_29  and  C_36
                            x       y       z     vdW  Elec       q    Type
                         _______ _______ _______ _____ _____    ______ ____

>  <TORSDO>
F 8

$$$$
=
 OpenBabel10262423033D

 37 41  0  0  1  0  0  0  0  0999 V2000
  188.2740  177.0570  141.4490 C   0  0  1  0  0  3  0  0  0  0  0  0
  186.9400  178.0820  136.9330 C   0  0  0  0  0  1  0  0  0  0  0  0
  190.9210  175.6630  138.6180 C   0  0  0  0  0  1  0  0  0  0  0  0
  189.0920  179.3940  140.9480 C   0  0  0  0  0  1  0  0  0  0  0  0
  189.6620  176.4450  138.9240 C   0  0  1  0  0  3  0  0  0  0  0  0
  188.7710  178.0330  140.3460 C   0  0  1  0  0  0  0  0  0  0  0  0
  188.1420  178.1650  137.8500 C   0  0  0  0  0  0  0  0  0  0  0  0
  189.9660  177.5400  139.7550 O   0  0  0  0  0  0  0  0  0  0  0  0
  188.9270  179.4140  137.4970 C   0  0  0  0  0  1  0  0  0  0  0  0
  189.0200  176.9300  137.6260 C   0  0  0  0  0  2  0  0  0  0  0  0
  187.6490  178.2520  139.3000 C   0  0  0  0  0  2  0  0  0  0  0  0
  190.5790  176.4830  142.1460 C   0  0  0  0  0  3  0  0  0  0  0  0
  189.2570  176.8870  142.5190 N   0  0  0  0  0  0  0  0  0  0  0  0
  188.8150  176.7540  143.9060 C   0  0  0  0  0  2  0  0  0  0  0  0
  191.6810  178.0190  143.7900 C   0  0  0  0  0  2  0  0  0  0  0  0
  191.6790  176.9480  142.7430 C   0  0  0  0  0  3  0  0  0  0  0  0
  189.3960  177.8600  144.7740 C   0  0  2  0  0  3  0  0  0  0  0  0
  190.8800  177.6300  145.0220 C   0  0  0  0  0  2  0  0  0  0  0  0
  189.3440  177.7860  147.2660 C   0  0  0  0  0  3  0  0  0  0  0  0
  188.6470  177.9580  146.0650 C   0  0  0  0  0  0  0  0  0  0  0  0
  187.2720  178.2400  146.0950 C   0  0  0  0  0  3  0  0  0  0  0  0
  185.2430  178.6190  147.3450 O   0  0  0  0  0  1  0  0  0  0  0  0
  187.3030  178.1610  148.5150 C   0  0  0  0  0  3  0  0  0  0  0  0
  186.6010  178.3380  147.3180 C   0  0  0  0  0  0  0  0  0  0  0  0
  188.6740  177.8870  148.4890 C   0  0  0  0  0  3  0  0  0  0  0  0
  186.2960  178.5160  141.7340 C   0  0  0  0  0  3  0  0  0  0  0  0
  186.9220  177.3810  142.0200 C   0  0  0  0  0  3  0  0  0  0  0  0
  184.9650  178.8980  142.2570 C   0  0  0  0  0  0  0  0  0  0  0  0
  183.7950  178.6950  141.6340 C   0  0  0  0  0  3  0  0  0  0  0  0
  182.3510  178.4960  139.6890 C   0  0  2  0  0  3  0  0  0  0  0  0
  183.6270  178.0580  140.2950 C   0  0  2  0  0  3  0  0  0  0  0  0
  182.4850  177.2380  140.3080 O   0  0  0  0  0  0  0  0  0  0  0  0
  181.5710  179.3850  137.6660 C   0  0  0  0  0  2  0  0  0  0  0  0
  181.0460  178.0330  137.7990 C   0  0  0  0  0  2  0  0  0  0  0  0
  182.4140  178.3290  138.2470 N   0  0  0  0  0  0  0  0  0  0  0  0
  183.2660  178.9950  144.2420 C   0  0  0  0  0  1  0  0  0  0  0  0
  184.9150  179.6620  143.8740 S   0  0  0  0  0  0  0  0  0  0  0  0
  1 27  1  1  0  0  0
  1 13  1  0  0  0  0
  2  7  1  0  0  0  0
  5  3  1  6  0  0  0
  5  8  1  0  0  0  0
  6  4  1  1  0  0  0
  6  1  1  0  0  0  0
  7 11  1  0  0  0  0
  8  6  1  0  0  0  0
  9  7  1  0  0  0  0
 10  7  1  0  0  0  0
 10  5  1  0  0  0  0
 11  6  1  0  0  0  0
 12 13  1  0  0  0  0
 12 16  2  0  0  0  0
 13 14  1  0  0  0  0
 14 17  1  0  0  0  0
 15 18  1  0  0  0  0
 16 15  1  0  0  0  0
 17 18  1  0  0  0  0
 17 20  1  1  0  0  0
 19 25  1  0  0  0  0
 20 21  1  0  0  0  0
 20 19  2  0  0  0  0
 21 24  2  0  0  0  0
 24 22  1  0  0  0  0
 24 23  1  0  0  0  0
 25 23  2  0  0  0  0
 26 27  2  0  0  0  0
 26 28  1  0  0  0  0
 28 37  1  0  0  0  0
 29 28  2  0  0  0  0
 30 35  1  6  0  0  0
 30 31  1  0  0  0  0
 30 32  1  0  0  0  0
 31 32  1  0  0  0  0
 31 29  1  1  0  0  0
 33 34  1  0  0  0  0
 33 35  1  0  0  0  0
 34 35  1  0  0  0  0
 37 36  1  0  0  0  0
M  END
>  <MODEL>
4

>  <REMARK>
 VINA RESULT:      -6.3      2.935      6.846
  Name = 
  8 active torsions:
  status: ('A' for Active; 'I' for Inactive)
    1  A    between atoms: C_1  and  C_5
    2  A    between atoms: C_5  and  S_23
    3  A    between atoms: C_6  and  C_31
    4  A    between atoms: N_10  and  C_29
    5  A    between atoms: C_11  and  N_33
    6  A    between atoms: C_17  and  C_26
    7  A    between atoms: C_20  and  C_29
    8  A    between atoms: C_29  and  C_36
                            x       y       z     vdW  Elec       q    Type
                         _______ _______ _______ _____ _____    ______ ____

>  <TORSDO>
F 8

$$$$
=
 OpenBabel10262423033D

 37 41  0  0  1  0  0  0  0  0999 V2000
  182.2430  177.8660  139.4200 C   0  0  1  0  0  3  0  0  0  0  0  0
  184.9670  174.4220  137.4350 C   0  0  0  0  0  1  0  0  0  0  0  0
  182.0540  177.8170  135.3060 C   0  0  0  0  0  1  0  0  0  0  0  0
  180.8740  175.7430  139.4300 C   0  0  0  0  0  1  0  0  0  0  0  0
  182.5780  177.1810  136.5750 C   0  0  1  0  0  3  0  0  0  0  0  0
  181.9640  176.5160  138.7010 C   0  0  1  0  0  0  0  0  0  0  0  0
  183.5640  174.9890  137.3790 C   0  0  0  0  0  0  0  0  0  0  0  0
  181.5040  176.7510  137.3770 O   0  0  0  0  0  0  0  0  0  0  0  0
  182.5990  173.8480  137.1110 C   0  0  0  0  0  1  0  0  0  0  0  0
  183.4860  176.0010  136.2320 C   0  0  0  0  0  2  0  0  0  0  0  0
  183.2400  175.6390  138.7290 C   0  0  0  0  0  2  0  0  0  0  0  0
  180.0690  178.4680  140.4400 C   0  0  0  0  0  3  0  0  0  0  0  0
  181.0630  178.7310  139.4450 N   0  0  0  0  0  0  0  0  0  0  0  0
  180.7340  179.5540  138.2820 C   0  0  0  0  0  2  0  0  0  0  0  0
  179.6700  180.8970  140.9080 C   0  0  0  0  0  2  0  0  0  0  0  0
  179.3980  179.4330  141.0730 C   0  0  0  0  0  3  0  0  0  0  0  0
  180.7120  181.0310  138.6460 C   0  0  2  0  0  3  0  0  0  0  0  0
  179.4790  181.3660  139.4740 C   0  0  0  0  0  2  0  0  0  0  0  0
  180.5420  181.2730  136.1700 C   0  0  0  0  0  3  0  0  0  0  0  0
  180.7720  181.8740  137.4120 C   0  0  0  0  0  0  0  0  0  0  0  0
  181.0300  183.2530  137.4780 C   0  0  0  0  0  3  0  0  0  0  0  0
  181.3210  185.3790  136.3760 O   0  0  0  0  0  1  0  0  0  0  0  0
  180.8410  183.4090  135.0690 C   0  0  0  0  0  3  0  0  0  0  0  0
  181.0680  184.0170  136.3080 C   0  0  0  0  0  0  0  0  0  0  0  0
  180.5770  182.0380  135.0000 C   0  0  0  0  0  3  0  0  0  0  0  0
  183.7470  178.5970  141.2430 C   0  0  0  0  0  3  0  0  0  0  0  0
  182.8360  177.7420  140.7950 C   0  0  0  0  0  3  0  0  0  0  0  0
  184.3700  178.5370  142.5840 C   0  0  0  0  0  0  0  0  0  0  0  0
  185.6530  178.2380  142.8360 C   0  0  0  0  0  3  0  0  0  0  0  0
  188.0220  177.8740  142.4280 C   0  0  2  0  0  3  0  0  0  0  0  0
  186.6800  177.9020  141.8060 C   0  0  2  0  0  3  0  0  0  0  0  0
  187.5770  178.9750  141.6730 O   0  0  0  0  0  0  0  0  0  0  0  0
  189.7200  176.2630  142.5530 C   0  0  0  0  0  2  0  0  0  0  0  0
  190.2860  177.4740  141.9750 C   0  0  0  0  0  2  0  0  0  0  0  0
  188.9190  177.0680  141.6180 N   0  0  0  0  0  0  0  0  0  0  0  0
  184.7280  178.9480  145.1410 C   0  0  0  0  0  1  0  0  0  0  0  0
  183.3280  178.9310  143.9840 S   0  0  0  0  0  0  0  0  0  0  0  0
  1 13  1  0  0  0  0
  1 27  1  1  0  0  0
  5  3  1  6  0  0  0
  5  8  1  0  0  0  0
  6 11  1  0  0  0  0
  6  1  1  0  0  0  0
  6  4  1  1  0  0  0
  7  2  1  0  0  0  0
  7 11  1  0  0  0  0
  8  6  1  0  0  0  0
  9  7  1  0  0  0  0
 10  5  1  0  0  0  0
 10  7  1  0  0  0  0
 12 16  2  0  0  0  0
 13 12  1  0  0  0  0
 14 17  1  0  0  0  0
 14 13  1  0  0  0  0
 15 16  1  0  0  0  0
 17 20  1  6  0  0  0
 17 18  1  0  0  0  0
 18 15  1  0  0  0  0
 19 20  1  0  0  0  0
 20 21  2  0  0  0  0
 23 24  2  0  0  0  0
 24 22  1  0  0  0  0
 24 21  1  0  0  0  0
 25 23  1  0  0  0  0
 25 19  2  0  0  0  0
 26 28  1  0  0  0  0
 27 26  2  0  0  0  0
 28 29  2  0  0  0  0
 28 37  1  0  0  0  0
 30 35  1  6  0  0  0
 31 30  1  0  0  0  0
 31 29  1  1  0  0  0
 32 31  1  0  0  0  0
 32 30  1  0  0  0  0
 34 33  1  0  0  0  0
 35 34  1  0  0  0  0
 35 33  1  0  0  0  0
 37 36  1  0  0  0  0
M  END
>  <MODEL>
5

>  <REMARK>
 VINA RESULT:      -6.3      3.127      6.299
  Name = 
  8 active torsions:
  status: ('A' for Active; 'I' for Inactive)
    1  A    between atoms: C_1  and  C_5
    2  A    between atoms: C_5  and  S_23
    3  A    between atoms: C_6  and  C_31
    4  A    between atoms: N_10  and  C_29
    5  A    between atoms: C_11  and  N_33
    6  A    between atoms: C_17  and  C_26
    7  A    between atoms: C_20  and  C_29
    8  A    between atoms: C_29  and  C_36
                            x       y       z     vdW  Elec       q    Type
                         _______ _______ _______ _____ _____    ______ ____

>  <TORSDO>
F 8

$$$$
=
 OpenBabel10262423033D

 37 41  0  0  1  0  0  0  0  0999 V2000
  188.4580  177.1050  141.2370 C   0  0  1  0  0  3  0  0  0  0  0  0
  191.2510  179.6370  144.2380 C   0  0  0  0  0  1  0  0  0  0  0  0
  192.4570  176.9310  140.2690 C   0  0  0  0  0  1  0  0  0  0  0  0
  188.9530  175.6180  143.2180 C   0  0  0  0  0  1  0  0  0  0  0  0
  191.3870  177.4130  141.2240 C   0  0  1  0  0  3  0  0  0  0  0  0
  189.4820  176.7530  142.3530 C   0  0  1  0  0  0  0  0  0  0  0  0
  191.1530  178.2690  143.5980 C   0  0  0  0  0  0  0  0  0  0  0  0
  190.7040  176.3130  141.7760 O   0  0  0  0  0  0  0  0  0  0  0  0
  191.6810  177.2420  144.5820 C   0  0  0  0  0  1  0  0  0  0  0  0
  192.0170  178.2530  142.3330 C   0  0  0  0  0  2  0  0  0  0  0  0
  189.6810  177.9780  143.2800 C   0  0  0  0  0  2  0  0  0  0  0  0
  186.5690  178.6280  140.7450 C   0  0  0  0  0  3  0  0  0  0  0  0
  187.3990  177.9910  141.7220 N   0  0  0  0  0  0  0  0  0  0  0  0
  187.4400  178.5020  143.0910 C   0  0  0  0  0  2  0  0  0  0  0  0
  184.4770  178.3100  142.0860 C   0  0  0  0  0  2  0  0  0  0  0  0
  185.2590  178.8220  140.9160 C   0  0  0  0  0  3  0  0  0  0  0  0
  186.2040  178.0800  143.8700 C   0  0  2  0  0  3  0  0  0  0  0  0
  184.9820  178.8610  143.4100 C   0  0  0  0  0  2  0  0  0  0  0  0
  185.5060  178.9990  146.0810 C   0  0  0  0  0  3  0  0  0  0  0  0
  186.4280  178.2530  145.3390 C   0  0  0  0  0  0  0  0  0  0  0  0
  187.5270  177.6660  145.9870 C   0  0  0  0  0  3  0  0  0  0  0  0
  188.7880  177.2530  148.0020 O   0  0  0  0  0  1  0  0  0  0  0  0
  186.7790  178.5870  148.0990 C   0  0  0  0  0  3  0  0  0  0  0  0
  187.7030  177.8360  147.3630 C   0  0  0  0  0  0  0  0  0  0  0  0
  185.6810  179.1660  147.4570 C   0  0  0  0  0  3  0  0  0  0  0  0
  189.0140  176.9630  138.8300 C   0  0  0  0  0  3  0  0  0  0  0  0
  189.0590  177.6430  139.9700 C   0  0  0  0  0  3  0  0  0  0  0  0
  189.5810  177.4330  137.5470 C   0  0  0  0  0  0  0  0  0  0  0  0
  190.4510  176.7550  136.7840 C   0  0  0  0  0  3  0  0  0  0  0  0
  192.4660  175.3950  136.8290 C   0  0  2  0  0  3  0  0  0  0  0  0
  191.0120  175.4080  137.1010 C   0  0  2  0  0  3  0  0  0  0  0  0
  191.5380  174.8340  135.9310 O   0  0  0  0  0  0  0  0  0  0  0  0
  194.4570  174.7910  137.9060 C   0  0  0  0  0  2  0  0  0  0  0  0
  194.2440  173.8690  136.8000 C   0  0  0  0  0  2  0  0  0  0  0  0
  193.0960  174.3330  137.5930 N   0  0  0  0  0  0  0  0  0  0  0  0
  187.3040  178.4760  136.7980 C   0  0  0  0  0  1  0  0  0  0  0  0
  189.0280  179.0250  136.9480 S   0  0  0  0  0  0  0  0  0  0  0  0
  1 27  1  6  0  0  0
  1 13  1  0  0  0  0
  1  6  1  0  0  0  0
  5  3  1  6  0  0  0
  5  8  1  0  0  0  0
  5 10  1  0  0  0  0
  6  4  1  1  0  0  0
  6 11  1  0  0  0  0
  7  2  1  0  0  0  0
  7  9  1  0  0  0  0
  8  6  1  0  0  0  0
 10  7  1  0  0  0  0
 11  7  1  0  0  0  0
 12 16  2  0  0  0  0
 12 13  1  0  0  0  0
 13 14  1  0  0  0  0
 14 17  1  0  0  0  0
 15 18  1  0  0  0  0
 16 15  1  0  0  0  0
 17 20  1  1  0  0  0
 18 17  1  0  0  0  0
 19 25  1  0  0  0  0
 20 21  1  0  0  0  0
 20 19  2  0  0  0  0
 21 24  2  0  0  0  0
 24 22  1  0  0  0  0
 24 23  1  0  0  0  0
 25 23  2  0  0  0  0
 26 27  2  0  0  0  0
 28 26  1  0  0  0  0
 29 28  2  0  0  0  0
 30 31  1  0  0  0  0
 30 35  1  1  0  0  0
 31 29  1  6  0  0  0
 32 30  1  0  0  0  0
 32 31  1  0  0  0  0
 34 35  1  0  0  0  0
 34 33  1  0  0  0  0
 35 33  1  0  0  0  0
 36 37  1  0  0  0  0
 37 28  1  0  0  0  0
M  END
>  <MODEL>
6

>  <REMARK>
 VINA RESULT:      -6.2      3.861      6.545
  Name = 
  8 active torsions:
  status: ('A' for Active; 'I' for Inactive)
    1  A    between atoms: C_1  and  C_5
    2  A    between atoms: C_5  and  S_23
    3  A    between atoms: C_6  and  C_31
    4  A    between atoms: N_10  and  C_29
    5  A    between atoms: C_11  and  N_33
    6  A    between atoms: C_17  and  C_26
    7  A    between atoms: C_20  and  C_29
    8  A    between atoms: C_29  and  C_36
                            x       y       z     vdW  Elec       q    Type
                         _______ _______ _______ _____ _____    ______ ____

>  <TORSDO>
F 8

$$$$
=
 OpenBabel10262423033D

 37 41  0  0  1  0  0  0  0  0999 V2000
  190.0770  174.9710  137.2120 C   0  0  1  0  0  3  0  0  0  0  0  0
  193.1720  171.5000  135.9500 C   0  0  0  0  0  1  0  0  0  0  0  0
  193.9580  175.7660  138.3430 C   0  0  0  0  0  1  0  0  0  0  0  0
  190.7640  175.4260  134.8240 C   0  0  0  0  0  1  0  0  0  0  0  0
  192.9910  174.8500  137.6220 C   0  0  1  0  0  3  0  0  0  0  0  0
  191.2080  174.8320  136.1540 C   0  0  1  0  0  0  0  0  0  0  0  0
  193.0030  173.0030  135.8870 C   0  0  0  0  0  0  0  0  0  0  0  0
  192.3630  175.5470  136.5720 O   0  0  0  0  0  0  0  0  0  0  0  0
  193.6240  173.4990  134.5940 C   0  0  0  0  0  1  0  0  0  0  0  0
  193.7350  173.6320  137.0760 C   0  0  0  0  0  2  0  0  0  0  0  0
  191.5060  173.3320  135.9060 C   0  0  0  0  0  2  0  0  0  0  0  0
  189.9910  177.4170  136.8360 C   0  0  0  0  0  3  0  0  0  0  0  0
  190.0010  176.3250  137.7620 N   0  0  0  0  0  0  0  0  0  0  0  0
  190.3150  176.5640  139.1700 C   0  0  0  0  0  2  0  0  0  0  0  0
  188.2730  178.7030  138.1290 C   0  0  0  0  0  2  0  0  0  0  0  0
  189.2540  178.5160  137.0130 C   0  0  0  0  0  3  0  0  0  0  0  0
  189.1260  177.1690  139.9000 C   0  0  2  0  0  3  0  0  0  0  0  0
  188.9280  178.6240  139.4990 C   0  0  0  0  0  2  0  0  0  0  0  0
  188.3110  177.5500  142.2270 C   0  0  0  0  0  3  0  0  0  0  0  0
  189.3030  177.0430  141.3800 C   0  0  0  0  0  0  0  0  0  0  0  0
  190.4280  176.4080  141.9320 C   0  0  0  0  0  3  0  0  0  0  0  0
  191.6700  175.6640  143.8620 O   0  0  0  0  0  1  0  0  0  0  0  0
  189.5660  176.8070  144.1600 C   0  0  0  0  0  3  0  0  0  0  0  0
  190.5590  176.2930  143.3190 C   0  0  0  0  0  0  0  0  0  0  0  0
  188.4420  177.4330  143.6130 C   0  0  0  0  0  3  0  0  0  0  0  0
  187.6040  175.0550  137.2210 C   0  0  0  0  0  3  0  0  0  0  0  0
  188.7220  174.5080  136.7580 C   0  0  0  0  0  3  0  0  0  0  0  0
  186.2400  174.6520  136.8170 C   0  0  0  0  0  0  0  0  0  0  0  0
  185.2110  175.4860  136.6030 C   0  0  0  0  0  3  0  0  0  0  0  0
  184.3940  177.3920  137.8720 C   0  0  2  0  0  3  0  0  0  0  0  0
  185.2570  176.9710  136.7470 C   0  0  2  0  0  3  0  0  0  0  0  0
  183.9730  177.5010  136.5330 O   0  0  0  0  0  0  0  0  0  0  0  0
  184.8270  178.6240  139.8180 C   0  0  0  0  0  2  0  0  0  0  0  0
  183.6990  179.2390  139.1340 C   0  0  0  0  0  2  0  0  0  0  0  0
  184.8170  178.6970  138.3500 N   0  0  0  0  0  0  0  0  0  0  0  0
  184.4580  172.9030  137.5910 C   0  0  0  0  0  1  0  0  0  0  0  0
  185.9510  172.9050  136.5570 S   0  0  0  0  0  0  0  0  0  0  0  0
  1 27  1  6  0  0  0
  1 13  1  0  0  0  0
  5  3  1  6  0  0  0
  6  4  1  6  0  0  0
  6  8  1  0  0  0  0
  6  1  1  0  0  0  0
  7 11  1  0  0  0  0
  7  2  1  0  0  0  0
  7 10  1  0  0  0  0
  8  5  1  0  0  0  0
  9  7  1  0  0  0  0
 10  5  1  0  0  0  0
 11  6  1  0  0  0  0
 12 16  2  0  0  0  0
 12 13  1  0  0  0  0
 13 14  1  0  0  0  0
 14 17  1  0  0  0  0
 15 18  1  0  0  0  0
 16 15  1  0  0  0  0
 17 20  1  1  0  0  0
 18 17  1  0  0  0  0
 19 25  1  0  0  0  0
 20 21  1  0  0  0  0
 20 19  2  0  0  0  0
 21 24  2  0  0  0  0
 24 22  1  0  0  0  0
 24 23  1  0  0  0  0
 25 23  2  0  0  0  0
 27 26  2  0  0  0  0
 28 26  1  0  0  0  0
 29 28  2  0  0  0  0
 30 35  1  6  0  0  0
 31 29  1  1  0  0  0
 31 30  1  0  0  0  0
 32 31  1  0  0  0  0
 32 30  1  0  0  0  0
 34 33  1  0  0  0  0
 35 34  1  0  0  0  0
 35 33  1  0  0  0  0
 37 28  1  0  0  0  0
 37 36  1  0  0  0  0
M  END
>  <MODEL>
7

>  <REMARK>
 VINA RESULT:      -6.0      3.397      7.577
  Name = 
  8 active torsions:
  status: ('A' for Active; 'I' for Inactive)
    1  A    between atoms: C_1  and  C_5
    2  A    between atoms: C_5  and  S_23
    3  A    between atoms: C_6  and  C_31
    4  A    between atoms: N_10  and  C_29
    5  A    between atoms: C_11  and  N_33
    6  A    between atoms: C_17  and  C_26
    7  A    between atoms: C_20  and  C_29
    8  A    between atoms: C_29  and  C_36
                            x       y       z     vdW  Elec       q    Type
                         _______ _______ _______ _____ _____    ______ ____

>  <TORSDO>
F 8

$$$$
=
 OpenBabel10262423033D

 37 41  0  0  1  0  0  0  0  0999 V2000
  185.8170  178.7980  140.5610 C   0  0  1  0  0  3  0  0  0  0  0  0
  182.9050  175.5630  138.4930 C   0  0  0  0  0  1  0  0  0  0  0  0
  186.8530  177.9340  136.6690 C   0  0  0  0  0  1  0  0  0  0  0  0
  183.8220  180.0640  139.6660 C   0  0  0  0  0  1  0  0  0  0  0  0
  185.8870  177.7310  137.8160 C   0  0  1  0  0  3  0  0  0  0  0  0
  184.7140  178.8460  139.4650 C   0  0  1  0  0  0  0  0  0  0  0  0
  183.5220  176.9200  138.2360 C   0  0  0  0  0  0  0  0  0  0  0  0
  185.3060  178.9620  138.1780 O   0  0  0  0  0  0  0  0  0  0  0  0
  182.5320  177.7530  137.4430 C   0  0  0  0  0  1  0  0  0  0  0  0
  184.8020  176.7340  137.4150 C   0  0  0  0  0  2  0  0  0  0  0  0
  183.8090  177.5940  139.5830 C   0  0  0  0  0  2  0  0  0  0  0  0
  186.2140  177.9360  142.8480 C   0  0  0  0  0  3  0  0  0  0  0  0
  185.2830  178.3950  141.8620 N   0  0  0  0  0  0  0  0  0  0  0  0
  183.8580  178.1030  142.0110 C   0  0  0  0  0  2  0  0  0  0  0  0
  185.0530  179.1240  144.7240 C   0  0  0  0  0  2  0  0  0  0  0  0
  186.0960  178.2170  144.1480 C   0  0  0  0  0  3  0  0  0  0  0  0
  183.2160  179.0220  143.0400 C   0  0  2  0  0  3  0  0  0  0  0  0
  183.6400  178.6340  144.4500 C   0  0  0  0  0  2  0  0  0  0  0  0
  180.9520  178.6330  144.0110 C   0  0  0  0  0  3  0  0  0  0  0  0
  181.7270  178.9980  142.9050 C   0  0  0  0  0  0  0  0  0  0  0  0
  181.0950  179.3560  141.7030 C   0  0  0  0  0  3  0  0  0  0  0  0
  179.0780  179.6930  140.4220 O   0  0  0  0  0  1  0  0  0  0  0  0
  178.9310  178.9660  142.7180 C   0  0  0  0  0  3  0  0  0  0  0  0
  179.7000  179.3360  141.6100 C   0  0  0  0  0  0  0  0  0  0  0  0
  179.5570  178.6160  143.9180 C   0  0  0  0  0  3  0  0  0  0  0  0
  188.2550  178.3830  140.5040 C   0  0  0  0  0  3  0  0  0  0  0  0
  187.0260  177.9780  140.2090 C   0  0  0  0  0  3  0  0  0  0  0  0
  189.4880  177.6270  140.1910 C   0  0  0  0  0  0  0  0  0  0  0  0
  190.0940  176.7510  141.0060 C   0  0  0  0  0  3  0  0  0  0  0  0
  190.7520  176.5580  143.3380 C   0  0  2  0  0  3  0  0  0  0  0  0
  189.6380  176.3900  142.3800 C   0  0  2  0  0  3  0  0  0  0  0  0
  190.3810  175.2920  142.8460 O   0  0  0  0  0  0  0  0  0  0  0  0
  190.2790  178.1640  144.9780 C   0  0  0  0  0  2  0  0  0  0  0  0
  191.3120  177.2780  145.4960 C   0  0  0  0  0  2  0  0  0  0  0  0
  190.2220  176.7250  144.6800 N   0  0  0  0  0  0  0  0  0  0  0  0
  190.9350  176.2160  138.5330 C   0  0  0  0  0  1  0  0  0  0  0  0
  190.2090  177.8810  138.5730 S   0  0  0  0  0  0  0  0  0  0  0  0
  1 27  1  6  0  0  0
  1 13  1  0  0  0  0
  5  3  1  6  0  0  0
  5  8  1  0  0  0  0
  6 11  1  0  0  0  0
  6  4  1  1  0  0  0
  6  1  1  0  0  0  0
  7  2  1  0  0  0  0
  7 11  1  0  0  0  0
  8  6  1  0  0  0  0
  9  7  1  0  0  0  0
 10  5  1  0  0  0  0
 10  7  1  0  0  0  0
 12 16  2  0  0  0  0
 13 14  1  0  0  0  0
 13 12  1  0  0  0  0
 14 17  1  0  0  0  0
 16 15  1  0  0  0  0
 17 20  1  1  0  0  0
 17 18  1  0  0  0  0
 18 15  1  0  0  0  0
 20 19  2  0  0  0  0
 21 20  1  0  0  0  0
 22 24  1  0  0  0  0
 23 25  2  0  0  0  0
 24 21  2  0  0  0  0
 24 23  1  0  0  0  0
 25 19  1  0  0  0  0
 27 26  2  0  0  0  0
 28 26  1  0  0  0  0
 28 29  2  0  0  0  0
 30 35  1  1  0  0  0
 31 29  1  6  0  0  0
 31 32  1  0  0  0  0
 31 30  1  0  0  0  0
 32 30  1  0  0  0  0
 33 34  1  0  0  0  0
 35 33  1  0  0  0  0
 35 34  1  0  0  0  0
 36 37  1  0  0  0  0
 37 28  1  0  0  0  0
M  END
>  <MODEL>
8

>  <REMARK>
 VINA RESULT:      -5.8      2.879      5.388
  Name = 
  8 active torsions:
  status: ('A' for Active; 'I' for Inactive)
    1  A    between atoms: C_1  and  C_5
    2  A    between atoms: C_5  and  S_23
    3  A    between atoms: C_6  and  C_31
    4  A    between atoms: N_10  and  C_29
    5  A    between atoms: C_11  and  N_33
    6  A    between atoms: C_17  and  C_26
    7  A    between atoms: C_20  and  C_29
    8  A    between atoms: C_29  and  C_36
                            x       y       z     vdW  Elec       q    Type
                         _______ _______ _______ _____ _____    ______ ____

>  <TORSDO>
F 8

$$$$
=
 OpenBabel10262423033D

 37 41  0  0  1  0  0  0  0  0999 V2000
  188.9380  178.0190  142.0480 C   0  0  1  0  0  3  0  0  0  0  0  0
  188.4850  177.6010  146.8270 C   0  0  0  0  0  1  0  0  0  0  0  0
  192.0550  179.7260  144.1300 C   0  0  0  0  0  1  0  0  0  0  0  0
  189.8580  175.7540  142.6830 C   0  0  0  0  0  1  0  0  0  0  0  0
  190.7690  178.9300  144.1680 C   0  0  1  0  0  3  0  0  0  0  0  0
  189.6430  177.1850  143.1550 C   0  0  1  0  0  0  0  0  0  0  0  0
  189.4940  177.3840  145.7200 C   0  0  0  0  0  0  0  0  0  0  0  0
  190.9230  177.7330  143.4430 O   0  0  0  0  0  0  0  0  0  0  0  0
  190.3440  176.1790  146.0780 C   0  0  0  0  0  1  0  0  0  0  0  0
  190.3870  178.6240  145.6150 C   0  0  0  0  0  2  0  0  0  0  0  0
  188.7390  177.1190  144.4110 C   0  0  0  0  0  2  0  0  0  0  0  0
  191.0010  177.8830  140.6870 C   0  0  0  0  0  3  0  0  0  0  0  0
  189.5720  177.8470  140.7410 N   0  0  0  0  0  0  0  0  0  0  0  0
  188.7890  178.0230  139.5180 C   0  0  0  0  0  2  0  0  0  0  0  0
  191.1430  176.0120  139.0270 C   0  0  0  0  0  2  0  0  0  0  0  0
  191.7210  177.0960  139.8840 C   0  0  0  0  0  3  0  0  0  0  0  0
  188.7870  176.7520  138.6820 C   0  0  2  0  0  3  0  0  0  0  0  0
  190.1400  176.5420  138.0160 C   0  0  0  0  0  2  0  0  0  0  0  0
  187.3140  178.0370  137.1330 C   0  0  0  0  0  3  0  0  0  0  0  0
  187.6920  176.7990  137.6640 C   0  0  0  0  0  0  0  0  0  0  0  0
  187.0560  175.6290  137.2190 C   0  0  0  0  0  3  0  0  0  0  0  0
  185.4190  174.5450  135.8170 O   0  0  0  0  0  1  0  0  0  0  0  0
  185.6670  176.9440  135.7330 C   0  0  0  0  0  3  0  0  0  0  0  0
  186.0440  175.7030  136.2570 C   0  0  0  0  0  0  0  0  0  0  0  0
  186.3030  178.1090  136.1700 C   0  0  0  0  0  3  0  0  0  0  0  0
  186.6450  178.7590  141.4840 C   0  0  0  0  0  3  0  0  0  0  0  0
  187.4530  177.8130  141.9470 C   0  0  0  0  0  3  0  0  0  0  0  0
  185.1770  178.6240  141.3550 C   0  0  0  0  0  0  0  0  0  0  0  0
  184.2740  179.0180  142.2650 C   0  0  0  0  0  3  0  0  0  0  0  0
  184.3000  178.7080  144.6760 C   0  0  2  0  0  3  0  0  0  0  0  0
  184.5910  179.6550  143.5770 C   0  0  2  0  0  3  0  0  0  0  0  0
  183.4170  179.7530  144.3440 O   0  0  0  0  0  0  0  0  0  0  0  0
  185.7890  177.8760  146.2830 C   0  0  0  0  0  2  0  0  0  0  0  0
  184.5560  178.2530  146.9600 C   0  0  0  0  0  2  0  0  0  0  0  0
  185.0610  179.0800  145.8550 N   0  0  0  0  0  0  0  0  0  0  0  0
  183.9030  179.4920  139.2440 C   0  0  0  0  0  1  0  0  0  0  0  0
  184.5570  177.9050  139.8380 S   0  0  0  0  0  0  0  0  0  0  0  0
  1 27  1  6  0  0  0
  1  6  1  0  0  0  0
  5  3  1  1  0  0  0
  5 10  1  0  0  0  0
  6  4  1  6  0  0  0
  6  8  1  0  0  0  0
  6 11  1  0  0  0  0
  7  9  1  0  0  0  0
  7  2  1  0  0  0  0
  8  5  1  0  0  0  0
 10  7  1  0  0  0  0
 11  7  1  0  0  0  0
 12 13  1  0  0  0  0
 13  1  1  0  0  0  0
 14 13  1  0  0  0  0
 15 16  1  0  0  0  0
 16 12  2  0  0  0  0
 17 20  1  6  0  0  0
 17 14  1  0  0  0  0
 18 17  1  0  0  0  0
 18 15  1  0  0  0  0
 19 20  1  0  0  0  0
 21 20  2  0  0  0  0
 22 24  1  0  0  0  0
 23 25  1  0  0  0  0
 23 24  2  0  0  0  0
 24 21  1  0  0  0  0
 25 19  2  0  0  0  0
 26 27  2  0  0  0  0
 28 26  1  0  0  0  0
 28 29  2  0  0  0  0
 30 35  1  1  0  0  0
 31 29  1  6  0  0  0
 31 32  1  0  0  0  0
 31 30  1  0  0  0  0
 32 30  1  0  0  0  0
 33 34  1  0  0  0  0
 35 33  1  0  0  0  0
 35 34  1  0  0  0  0
 36 37  1  0  0  0  0
 37 28  1  0  0  0  0
M  END
>  <MODEL>
9

>  <REMARK>
 VINA RESULT:      -5.8      2.998      9.300
  Name = 
  8 active torsions:
  status: ('A' for Active; 'I' for Inactive)
    1  A    between atoms: C_1  and  C_5
    2  A    between atoms: C_5  and  S_23
    3  A    between atoms: C_6  and  C_31
    4  A    between atoms: N_10  and  C_29
    5  A    between atoms: C_11  and  N_33
    6  A    between atoms: C_17  and  C_26
    7  A    between atoms: C_20  and  C_29
    8  A    between atoms: C_29  and  C_36
                            x       y       z     vdW  Elec       q    Type
                         _______ _______ _______ _____ _____    ______ ____

>  <TORSDO>
F 8

$$$$
