=
 OpenBabel10262422073D

 43 48  0  0  1  0  0  0  0  0999 V2000
  191.6830  176.3340  147.1870 C   0  0  0  0  0  0  0  0  0  0  0  0
  188.8770  177.0250  143.0710 C   0  0  0  0  0  0  0  0  0  0  0  0
  186.3750  177.9840  143.9340 C   0  0  0  0  0  0  0  0  0  0  0  0
  190.8650  176.4060  144.9110 C   0  0  0  0  0  0  0  0  0  0  0  0
  190.4820  176.8930  147.6380 C   0  0  0  0  0  3  0  0  0  0  0  0
  192.7550  175.9970  148.1580 C   0  0  0  0  0  1  0  0  0  0  0  0
  189.6520  176.9720  145.3610 C   0  0  0  0  0  0  0  0  0  0  0  0
  191.8740  176.0890  145.8230 C   0  0  0  0  0  3  0  0  0  0  0  0
  189.4690  177.2110  146.7290 C   0  0  0  0  0  3  0  0  0  0  0  0
  187.4240  177.8040  144.8410 O   0  0  0  0  0  0  0  0  0  0  0  0
  188.6500  177.2770  144.4320 C   0  0  0  0  0  0  0  0  0  0  0  0
  190.0570  176.4800  142.6650 N   0  0  0  0  0  0  0  0  0  0  0  0
  187.8410  177.4160  142.0530 C   0  0  1  0  0  3  0  0  0  0  0  0
  186.5530  177.7720  142.6640 N   0  0  0  0  0  0  0  0  0  0  0  0
  191.0420  176.1650  143.5480 C   0  0  0  0  0  3  0  0  0  0  0  0
  185.0350  178.4220  144.4190 C   0  0  1  0  0  3  0  0  0  0  0  0
  185.0840  178.6990  145.9110 C   0  0  0  0  0  1  0  0  0  0  0  0
  184.6000  179.6660  143.6610 C   0  0  0  0  0  2  0  0  0  0  0  0
  183.3720  179.4090  142.9180 N   0  0  0  0  0  0  0  0  0  0  0  0
  182.5000  178.5770  143.7370 C   0  0  0  0  0  1  0  0  0  0  0  0
  183.6810  178.7120  141.6630 C   0  0  0  0  0  2  0  0  0  0  0  0
  182.4420  178.2570  140.8820 C   0  0  2  0  0  3  0  0  0  0  0  0
  182.0790  178.4250  138.4920 C   0  0  0  0  0  2  0  0  0  0  0  0
  182.7050  177.0170  140.2070 N   0  0  0  0  0  0  0  0  0  0  0  0
  182.1420  179.2560  139.7690 C   0  0  1  0  0  3  0  0  0  0  0  0
  182.5190  177.0820  138.9460 C   0  0  0  0  0  3  0  0  0  0  0  0
  180.5380  181.1910  139.3390 N   0  0  0  0  0  0  0  0  0  0  0  0
  180.8430  179.9640  140.0210 C   0  0  0  0  0  0  0  0  0  0  0  0
  178.9830  183.2940  138.4980 S   0  0  0  0  0  0  0  0  0  0  0  0
  180.8940  181.9260  137.0060 C   0  0  0  0  0  2  0  0  0  0  0  0
  179.4140  182.3130  137.0220 C   0  0  0  0  0  2  0  0  0  0  0  0
  181.5010  181.7690  138.4020 C   0  0  0  0  0  2  0  0  0  0  0  0
  179.2670  181.8700  139.6130 C   0  0  0  0  0  2  0  0  0  0  0  0
  180.0200  179.4780  140.8450 O   0  0  0  0  0  0  0  0  0  0  0  0
  188.3600  178.5890  141.2260 C   0  0  0  0  0  2  0  0  0  0  0  0
  189.7330  177.6450  137.8240 C   0  0  0  0  0  3  0  0  0  0  0  0
  188.5700  177.6150  137.0460 C   0  0  0  0  0  0  0  0  0  0  0  0
  187.2630  178.2140  139.0060 C   0  0  0  0  0  3  0  0  0  0  0  0
  189.6640  177.9580  139.1850 C   0  0  0  0  0  3  0  0  0  0  0  0
  188.4280  178.2390  139.7780 C   0  0  0  0  0  0  0  0  0  0  0  0
  187.3320  177.9010  137.6450 C   0  0  0  0  0  3  0  0  0  0  0  0
  188.0000  176.1930  135.1050 C   0  0  0  0  0  1  0  0  0  0  0  0
  188.6730  177.2990  135.6890 O   0  0  0  0  0  0  0  0  0  0  0  0
  1  5  1  0  0  0  0
  1  6  1  0  0  0  0
  2 11  1  0  0  0  0
  3 16  1  0  0  0  0
  3 10  1  0  0  0  0
  4  7  1  0  0  0  0
  4  8  1  0  0  0  0
  7  9  1  0  0  0  0
  8  1  2  0  0  0  0
  9  5  2  0  0  0  0
 11 10  1  0  0  0  0
 11  7  2  0  0  0  0
 12  2  2  0  0  0  0
 12 15  1  0  0  0  0
 13 35  1  1  0  0  0
 13 14  1  0  0  0  0
 13  2  1  0  0  0  0
 14  3  2  0  0  0  0
 15  4  2  0  0  0  0
 16 17  1  1  0  0  0
 18 16  1  0  0  0  0
 19 18  1  0  0  0  0
 19 20  1  0  0  0  0
 21 19  1  0  0  0  0
 22 21  1  6  0  0  0
 23 26  1  0  0  0  0
 23 25  1  0  0  0  0
 24 22  1  0  0  0  0
 25 28  1  1  0  0  0
 25 22  1  0  0  0  0
 26 24  2  0  0  0  0
 27 33  1  0  0  0  0
 27 28  1  0  0  0  0
 28 34  2  0  0  0  0
 29 33  1  0  0  0  0
 30 31  1  0  0  0  0
 30 32  1  0  0  0  0
 31 29  1  0  0  0  0
 32 27  1  0  0  0  0
 36 39  1  0  0  0  0
 37 41  1  0  0  0  0
 37 36  2  0  0  0  0
 38 40  1  0  0  0  0
 39 40  2  0  0  0  0
 40 35  1  0  0  0  0
 41 38  2  0  0  0  0
 42 43  1  0  0  0  0
 43 37  1  0  0  0  0
M  END
>  <MODEL>
1

>  <REMARK>
 VINA RESULT:      -9.6      0.000      0.000
  Name = 
  9 active torsions:
  status: ('A' for Active; 'I' for Inactive)
    1  A    between atoms: C_1  and  C_34
    2  A    between atoms: C_1  and  C_35
    3  A    between atoms: C_2  and  C_6
    4  A    between atoms: C_2  and  C_13
    5  A    between atoms: C_3  and  C_4
    6  A    between atoms: C_3  and  N_12
    7  A    between atoms: C_6  and  N_12
    8  A    between atoms: C_14  and  C_22
    9  A    between atoms: C_19  and  O_37
                            x       y       z     vdW  Elec       q    Type
                         _______ _______ _______ _____ _____    ______ ____

>  <TORSDO>
F 9

$$$$
=
 OpenBabel10262422073D

 43 48  0  0  1  0  0  0  0  0999 V2000
  191.7700  176.2880  147.2600 C   0  0  0  0  0  0  0  0  0  0  0  0
  188.9520  177.0060  143.1560 C   0  0  0  0  0  0  0  0  0  0  0  0
  186.4800  178.0310  144.0270 C   0  0  0  0  0  0  0  0  0  0  0  0
  190.9370  176.3570  144.9880 C   0  0  0  0  0  0  0  0  0  0  0  0
  190.5850  176.8780  147.7130 C   0  0  0  0  0  3  0  0  0  0  0  0
  192.8400  175.9350  148.2270 C   0  0  0  0  0  1  0  0  0  0  0  0
  189.7420  176.9560  145.4420 C   0  0  0  0  0  0  0  0  0  0  0  0
  191.9450  176.0250  145.8970 C   0  0  0  0  0  3  0  0  0  0  0  0
  189.5730  177.2110  146.8080 C   0  0  0  0  0  3  0  0  0  0  0  0
  187.5300  177.8340  144.9280 O   0  0  0  0  0  0  0  0  0  0  0  0
  188.7400  177.2750  144.5160 C   0  0  0  0  0  0  0  0  0  0  0  0
  190.1160  176.4290  142.7480 N   0  0  0  0  0  0  0  0  0  0  0  0
  187.9180  177.4110  142.1410 C   0  0  1  0  0  3  0  0  0  0  0  0
  186.6430  177.8030  142.7570 N   0  0  0  0  0  0  0  0  0  0  0  0
  191.1000  176.0990  143.6270 C   0  0  0  0  0  3  0  0  0  0  0  0
  185.1530  178.5040  144.5160 C   0  0  1  0  0  3  0  0  0  0  0  0
  185.2760  179.0270  145.9370 C   0  0  0  0  0  1  0  0  0  0  0  0
  184.6280  179.5920  143.5940 C   0  0  0  0  0  2  0  0  0  0  0  0
  183.2810  179.2700  143.1370 N   0  0  0  0  0  0  0  0  0  0  0  0
  182.5370  178.7000  144.2530 C   0  0  0  0  0  1  0  0  0  0  0  0
  183.3420  178.2970  142.0380 C   0  0  0  0  0  2  0  0  0  0  0  0
  182.4760  178.6670  140.8290 C   0  0  2  0  0  3  0  0  0  0  0  0
  180.8460  177.2620  139.7150 C   0  0  0  0  0  2  0  0  0  0  0  0
  181.1340  178.9600  141.2480 N   0  0  0  0  0  0  0  0  0  0  0  0
  182.3460  177.4630  139.9030 C   0  0  1  0  0  3  0  0  0  0  0  0
  180.2580  178.2320  140.6730 C   0  0  0  0  0  3  0  0  0  0  0  0
  183.4910  176.6260  137.7840 N   0  0  0  0  0  0  0  0  0  0  0  0
  183.0280  177.7200  138.5920 C   0  0  0  0  0  0  0  0  0  0  0  0
  184.4900  175.3830  135.5460 S   0  0  0  0  0  0  0  0  0  0  0  0
  182.5000  174.4270  137.2410 C   0  0  0  0  0  2  0  0  0  0  0  0
  182.7830  174.7880  135.7810 C   0  0  0  0  0  2  0  0  0  0  0  0
  183.3140  175.2480  138.2430 C   0  0  0  0  0  2  0  0  0  0  0  0
  184.1670  176.9050  136.5120 C   0  0  0  0  0  2  0  0  0  0  0  0
  183.2010  178.9080  138.2030 O   0  0  0  0  0  0  0  0  0  0  0  0
  188.4590  178.5640  141.3000 C   0  0  0  0  0  2  0  0  0  0  0  0
  187.5790  177.7800  137.7000 C   0  0  0  0  0  3  0  0  0  0  0  0
  188.8200  177.3980  137.1800 C   0  0  0  0  0  0  0  0  0  0  0  0
  189.8330  177.7860  139.3550 C   0  0  0  0  0  3  0  0  0  0  0  0
  187.4620  178.1640  139.0400 C   0  0  0  0  0  3  0  0  0  0  0  0
  188.5900  178.1700  139.8670 C   0  0  0  0  0  0  0  0  0  0  0  0
  189.9490  177.4030  138.0160 C   0  0  0  0  0  3  0  0  0  0  0  0
  187.9100  177.3610  134.8800 C   0  0  0  0  0  1  0  0  0  0  0  0
  188.9030  177.0200  135.8370 O   0  0  0  0  0  0  0  0  0  0  0  0
  1  5  1  0  0  0  0
  1  6  1  0  0  0  0
  2 11  1  0  0  0  0
  3 16  1  0  0  0  0
  3 10  1  0  0  0  0
  4  7  1  0  0  0  0
  4  8  1  0  0  0  0
  7  9  1  0  0  0  0
  8  1  2  0  0  0  0
  9  5  2  0  0  0  0
 11 10  1  0  0  0  0
 11  7  2  0  0  0  0
 12  2  2  0  0  0  0
 12 15  1  0  0  0  0
 13 35  1  1  0  0  0
 13 14  1  0  0  0  0
 13  2  1  0  0  0  0
 14  3  2  0  0  0  0
 15  4  2  0  0  0  0
 16 17  1  1  0  0  0
 18 16  1  0  0  0  0
 19 18  1  0  0  0  0
 19 20  1  0  0  0  0
 21 19  1  0  0  0  0
 22 24  1  0  0  0  0
 22 21  1  1  0  0  0
 23 25  1  0  0  0  0
 23 26  1  0  0  0  0
 25 28  1  6  0  0  0
 25 22  1  0  0  0  0
 26 24  2  0  0  0  0
 27 32  1  0  0  0  0
 27 28  1  0  0  0  0
 29 31  1  0  0  0  0
 29 33  1  0  0  0  0
 30 32  1  0  0  0  0
 31 30  1  0  0  0  0
 33 27  1  0  0  0  0
 34 28  2  0  0  0  0
 36 39  1  0  0  0  0
 37 36  2  0  0  0  0
 37 41  1  0  0  0  0
 38 40  1  0  0  0  0
 39 40  2  0  0  0  0
 40 35  1  0  0  0  0
 41 38  2  0  0  0  0
 42 43  1  0  0  0  0
 43 37  1  0  0  0  0
M  END
>  <MODEL>
2

>  <REMARK>
 VINA RESULT:      -9.6      2.327      3.223
  Name = 
  9 active torsions:
  status: ('A' for Active; 'I' for Inactive)
    1  A    between atoms: C_1  and  C_34
    2  A    between atoms: C_1  and  C_35
    3  A    between atoms: C_2  and  C_6
    4  A    between atoms: C_2  and  C_13
    5  A    between atoms: C_3  and  C_4
    6  A    between atoms: C_3  and  N_12
    7  A    between atoms: C_6  and  N_12
    8  A    between atoms: C_14  and  C_22
    9  A    between atoms: C_19  and  O_37
                            x       y       z     vdW  Elec       q    Type
                         _______ _______ _______ _____ _____    ______ ____

>  <TORSDO>
F 9

$$$$
=
 OpenBabel10262422073D

 43 48  0  0  1  0  0  0  0  0999 V2000
  191.7550  176.3050  147.3760 C   0  0  0  0  0  0  0  0  0  0  0  0
  189.3420  176.8420  142.9970 C   0  0  0  0  0  0  0  0  0  0  0  0
  186.7750  177.8320  143.5900 C   0  0  0  0  0  0  0  0  0  0  0  0
  191.1500  176.2920  145.0330 C   0  0  0  0  0  0  0  0  0  0  0  0
  190.5200  176.8800  147.6940 C   0  0  0  0  0  3  0  0  0  0  0  0
  192.7330  176.0050  148.4540 C   0  0  0  0  0  1  0  0  0  0  0  0
  189.9030  176.8740  145.3490 C   0  0  0  0  0  0  0  0  0  0  0  0
  192.0700  176.0100  146.0460 C   0  0  0  0  0  3  0  0  0  0  0  0
  189.5950  177.1630  146.6850 C   0  0  0  0  0  3  0  0  0  0  0  0
  187.7350  177.6850  144.5950 O   0  0  0  0  0  0  0  0  0  0  0  0
  188.9920  177.1440  144.3210 C   0  0  0  0  0  0  0  0  0  0  0  0
  190.5530  176.2820  142.7220 N   0  0  0  0  0  0  0  0  0  0  0  0
  188.4050  177.1950  141.8740 C   0  0  1  0  0  3  0  0  0  0  0  0
  187.0680  177.5730  142.3500 N   0  0  0  0  0  0  0  0  0  0  0  0
  191.4520  176.0010  143.7020 C   0  0  0  0  0  3  0  0  0  0  0  0
  185.3970  178.2860  143.9330 C   0  0  1  0  0  3  0  0  0  0  0  0
  185.3370  178.7240  145.3860 C   0  0  0  0  0  1  0  0  0  0  0  0
  184.9950  179.4310  143.0160 C   0  0  0  0  0  2  0  0  0  0  0  0
  183.7140  179.1500  142.3790 N   0  0  0  0  0  0  0  0  0  0  0  0
  182.7220  178.9060  143.4200 C   0  0  0  0  0  1  0  0  0  0  0  0
  183.8280  177.9640  141.5200 C   0  0  0  0  0  2  0  0  0  0  0  0
  184.1360  178.2850  140.0530 C   0  0  2  0  0  3  0  0  0  0  0  0
  182.5520  178.9100  138.3310 C   0  0  0  0  0  2  0  0  0  0  0  0
  184.1080  179.7040  139.8360 N   0  0  0  0  0  0  0  0  0  0  0  0
  183.0320  177.7270  139.1630 C   0  0  1  0  0  3  0  0  0  0  0  0
  183.2800  180.0570  138.9310 C   0  0  0  0  0  3  0  0  0  0  0  0
  182.7650  175.4480  138.0510 N   0  0  0  0  0  0  0  0  0  0  0  0
  183.5540  176.6240  138.2890 C   0  0  0  0  0  0  0  0  0  0  0  0
  182.0690  173.0710  136.8590 S   0  0  0  0  0  0  0  0  0  0  0  0
  180.3520  175.1270  137.6200 C   0  0  0  0  0  2  0  0  0  0  0  0
  180.7940  174.2970  136.4120 C   0  0  0  0  0  2  0  0  0  0  0  0
  181.4480  175.3090  138.6720 C   0  0  0  0  0  2  0  0  0  0  0  0
  183.3040  174.3790  137.2030 C   0  0  0  0  0  2  0  0  0  0  0  0
  184.6980  176.7330  137.7690 O   0  0  0  0  0  0  0  0  0  0  0  0
  189.0020  178.3360  141.0560 C   0  0  0  0  0  2  0  0  0  0  0  0
  188.0980  177.7720  137.4200 C   0  0  0  0  0  3  0  0  0  0  0  0
  189.2890  177.2450  136.9090 C   0  0  0  0  0  0  0  0  0  0  0  0
  190.3010  177.4390  139.1110 C   0  0  0  0  0  3  0  0  0  0  0  0
  188.0060  178.1310  138.7690 C   0  0  0  0  0  3  0  0  0  0  0  0
  189.1090  177.9680  139.6140 C   0  0  0  0  0  0  0  0  0  0  0  0
  190.3930  177.0800  137.7630 C   0  0  0  0  0  3  0  0  0  0  0  0
  188.2060  176.4910  134.8170 C   0  0  0  0  0  1  0  0  0  0  0  0
  189.3490  176.8960  135.5570 O   0  0  0  0  0  0  0  0  0  0  0  0
  1  5  1  0  0  0  0
  1  6  1  0  0  0  0
  2 11  1  0  0  0  0
  3 16  1  0  0  0  0
  3 10  1  0  0  0  0
  4  7  1  0  0  0  0
  4  8  1  0  0  0  0
  7  9  1  0  0  0  0
  8  1  2  0  0  0  0
  9  5  2  0  0  0  0
 11 10  1  0  0  0  0
 11  7  2  0  0  0  0
 12  2  2  0  0  0  0
 12 15  1  0  0  0  0
 13 35  1  1  0  0  0
 13 14  1  0  0  0  0
 13  2  1  0  0  0  0
 14  3  2  0  0  0  0
 15  4  2  0  0  0  0
 16 17  1  1  0  0  0
 18 16  1  0  0  0  0
 19 18  1  0  0  0  0
 19 20  1  0  0  0  0
 21 19  1  0  0  0  0
 22 21  1  1  0  0  0
 23 26  1  0  0  0  0
 23 25  1  0  0  0  0
 24 22  1  0  0  0  0
 25 28  1  6  0  0  0
 25 22  1  0  0  0  0
 26 24  2  0  0  0  0
 27 28  1  0  0  0  0
 27 32  1  0  0  0  0
 29 33  1  0  0  0  0
 30 32  1  0  0  0  0
 31 29  1  0  0  0  0
 31 30  1  0  0  0  0
 33 27  1  0  0  0  0
 34 28  2  0  0  0  0
 36 39  1  0  0  0  0
 37 36  2  0  0  0  0
 37 41  1  0  0  0  0
 38 40  1  0  0  0  0
 39 40  2  0  0  0  0
 40 35  1  0  0  0  0
 41 38  2  0  0  0  0
 42 43  1  0  0  0  0
 43 37  1  0  0  0  0
M  END
>  <MODEL>
3

>  <REMARK>
 VINA RESULT:      -9.5      2.474      3.444
  Name = 
  9 active torsions:
  status: ('A' for Active; 'I' for Inactive)
    1  A    between atoms: C_1  and  C_34
    2  A    between atoms: C_1  and  C_35
    3  A    between atoms: C_2  and  C_6
    4  A    between atoms: C_2  and  C_13
    5  A    between atoms: C_3  and  C_4
    6  A    between atoms: C_3  and  N_12
    7  A    between atoms: C_6  and  N_12
    8  A    between atoms: C_14  and  C_22
    9  A    between atoms: C_19  and  O_37
                            x       y       z     vdW  Elec       q    Type
                         _______ _______ _______ _____ _____    ______ ____

>  <TORSDO>
F 9

$$$$
=
 OpenBabel10262422073D

 43 48  0  0  1  0  0  0  0  0999 V2000
  187.6390  177.7080  147.2510 C   0  0  0  0  0  0  0  0  0  0  0  0
  185.5680  178.8350  142.8090 C   0  0  0  0  0  0  0  0  0  0  0  0
  187.5090  178.3090  140.8410 C   0  0  0  0  0  0  0  0  0  0  0  0
  186.1410  178.4460  145.5000 C   0  0  0  0  0  0  0  0  0  0  0  0
  188.5920  177.3530  146.2900 C   0  0  0  0  0  3  0  0  0  0  0  0
  187.9310  177.5060  148.6940 C   0  0  0  0  0  1  0  0  0  0  0  0
  187.0990  178.0870  144.5260 C   0  0  0  0  0  0  0  0  0  0  0  0
  186.4150  178.2550  146.8570 C   0  0  0  0  0  3  0  0  0  0  0  0
  188.3240  177.5420  144.9300 C   0  0  0  0  0  3  0  0  0  0  0  0
  187.7430  177.9840  142.1800 O   0  0  0  0  0  0  0  0  0  0  0  0
  186.8090  178.2910  143.1710 C   0  0  0  0  0  0  0  0  0  0  0  0
  184.6640  179.1700  143.7710 N   0  0  0  0  0  0  0  0  0  0  0  0
  185.2120  178.9910  141.3560 C   0  0  1  0  0  3  0  0  0  0  0  0
  186.3670  178.8040  140.4670 N   0  0  0  0  0  0  0  0  0  0  0  0
  184.9240  178.9920  145.0930 C   0  0  0  0  0  3  0  0  0  0  0  0
  188.5770  178.0920  139.8220 C   0  0  1  0  0  3  0  0  0  0  0  0
  189.7140  177.2820  140.4200 C   0  0  0  0  0  1  0  0  0  0  0  0
  187.9920  177.3750  138.6160 C   0  0  0  0  0  2  0  0  0  0  0  0
  188.9210  177.4210  137.4930 N   0  0  0  0  0  0  0  0  0  0  0  0
  188.8730  178.7540  136.9060 C   0  0  0  0  0  1  0  0  0  0  0  0
  188.5410  176.4240  136.4840 C   0  0  0  0  0  2  0  0  0  0  0  0
  188.2690  175.0290  137.0570 C   0  0  2  0  0  3  0  0  0  0  0  0
  187.7160  173.0220  135.8170 C   0  0  0  0  0  2  0  0  0  0  0  0
  189.4120  174.1800  136.8660 N   0  0  0  0  0  0  0  0  0  0  0  0
  187.1460  174.3610  136.2730 C   0  0  1  0  0  3  0  0  0  0  0  0
  189.1430  173.1160  136.2150 C   0  0  0  0  0  3  0  0  0  0  0  0
  184.8430  175.1050  137.0760 N   0  0  0  0  0  0  0  0  0  0  0  0
  185.9320  174.1700  137.1340 C   0  0  0  0  0  0  0  0  0  0  0  0
  182.3190  176.0770  137.5650 S   0  0  0  0  0  0  0  0  0  0  0  0
  183.7550  176.2710  135.1870 C   0  0  0  0  0  2  0  0  0  0  0  0
  182.4400  175.7540  135.7740 C   0  0  0  0  0  2  0  0  0  0  0  0
  184.9150  176.2620  136.1850 C   0  0  0  0  0  2  0  0  0  0  0  0
  183.6730  174.9020  137.9380 C   0  0  0  0  0  2  0  0  0  0  0  0
  185.8760  173.1830  137.9180 O   0  0  0  0  0  0  0  0  0  0  0  0
  184.1170  177.9930  140.9930 C   0  0  0  0  0  2  0  0  0  0  0  0
  181.6700  180.0750  138.9850 C   0  0  0  0  0  3  0  0  0  0  0  0
  180.5320  180.0410  139.7980 C   0  0  0  0  0  0  0  0  0  0  0  0
  181.7350  178.6570  141.3950 C   0  0  0  0  0  3  0  0  0  0  0  0
  182.8350  179.4050  139.3720 C   0  0  0  0  0  3  0  0  0  0  0  0
  182.8670  178.6930  140.5760 C   0  0  0  0  0  0  0  0  0  0  0  0
  180.5700  179.3270  141.0080 C   0  0  0  0  0  3  0  0  0  0  0  0
  179.3550  182.1260  139.1790 C   0  0  0  0  0  1  0  0  0  0  0  0
  179.3840  180.7210  139.3840 O   0  0  0  0  0  0  0  0  0  0  0  0
  1  6  1  0  0  0  0
  2 11  2  0  0  0  0
  2 12  1  0  0  0  0
  3 10  1  0  0  0  0
  4  8  2  0  0  0  0
  5  1  2  0  0  0  0
  7  9  2  0  0  0  0
  7  4  1  0  0  0  0
  8  1  1  0  0  0  0
  9  5  1  0  0  0  0
 10 11  1  0  0  0  0
 11  7  1  0  0  0  0
 12 15  2  0  0  0  0
 13 35  1  6  0  0  0
 13  2  1  0  0  0  0
 14  3  2  0  0  0  0
 14 13  1  0  0  0  0
 15  4  1  0  0  0  0
 16 17  1  1  0  0  0
 16  3  1  0  0  0  0
 18 16  1  0  0  0  0
 19 18  1  0  0  0  0
 20 19  1  0  0  0  0
 21 19  1  0  0  0  0
 22 21  1  6  0  0  0
 23 26  1  0  0  0  0
 23 25  1  0  0  0  0
 24 22  1  0  0  0  0
 25 22  1  0  0  0  0
 25 28  1  1  0  0  0
 26 24  2  0  0  0  0
 27 28  1  0  0  0  0
 27 33  1  0  0  0  0
 28 34  2  0  0  0  0
 29 33  1  0  0  0  0
 30 31  1  0  0  0  0
 30 32  1  0  0  0  0
 31 29  1  0  0  0  0
 32 27  1  0  0  0  0
 36 39  2  0  0  0  0
 36 37  1  0  0  0  0
 37 41  2  0  0  0  0
 39 40  1  0  0  0  0
 40 35  1  0  0  0  0
 40 38  2  0  0  0  0
 41 38  1  0  0  0  0
 42 43  1  0  0  0  0
 43 37  1  0  0  0  0
M  END
>  <MODEL>
4

>  <REMARK>
 VINA RESULT:      -9.4      2.765      6.810
  Name = 
  9 active torsions:
  status: ('A' for Active; 'I' for Inactive)
    1  A    between atoms: C_1  and  C_34
    2  A    between atoms: C_1  and  C_35
    3  A    between atoms: C_2  and  C_6
    4  A    between atoms: C_2  and  C_13
    5  A    between atoms: C_3  and  C_4
    6  A    between atoms: C_3  and  N_12
    7  A    between atoms: C_6  and  N_12
    8  A    between atoms: C_14  and  C_22
    9  A    between atoms: C_19  and  O_37
                            x       y       z     vdW  Elec       q    Type
                         _______ _______ _______ _____ _____    ______ ____

>  <TORSDO>
F 9

$$$$
=
 OpenBabel10262422073D

 43 48  0  0  1  0  0  0  0  0999 V2000
  191.5770  176.2930  146.9530 C   0  0  0  0  0  0  0  0  0  0  0  0
  187.9230  178.0080  143.9540 C   0  0  0  0  0  0  0  0  0  0  0  0
  188.8990  177.8850  141.3170 C   0  0  0  0  0  0  0  0  0  0  0  0
  189.5190  177.2280  146.0900 C   0  0  0  0  0  0  0  0  0  0  0  0
  192.0560  176.1370  145.6480 C   0  0  0  0  0  3  0  0  0  0  0  0
  192.4190  175.8800  148.1060 C   0  0  0  0  0  1  0  0  0  0  0  0
  189.9970  177.0700  144.7700 C   0  0  0  0  0  0  0  0  0  0  0  0
  190.3090  176.8400  147.1750 C   0  0  0  0  0  3  0  0  0  0  0  0
  191.2690  176.5240  144.5590 C   0  0  0  0  0  3  0  0  0  0  0  0
  189.6430  177.3640  142.3800 O   0  0  0  0  0  0  0  0  0  0  0  0
  189.1920  177.4710  143.6970 C   0  0  0  0  0  0  0  0  0  0  0  0
  187.4880  178.1470  145.2360 N   0  0  0  0  0  0  0  0  0  0  0  0
  187.0170  178.3740  142.8090 C   0  0  1  0  0  3  0  0  0  0  0  0
  187.7140  178.3800  141.5150 N   0  0  0  0  0  0  0  0  0  0  0  0
  188.2530  177.7760  146.2980 C   0  0  0  0  0  3  0  0  0  0  0  0
  189.4630  177.8780  139.9370 C   0  0  1  0  0  3  0  0  0  0  0  0
  190.9020  177.3930  139.9610 C   0  0  0  0  0  1  0  0  0  0  0  0
  188.6170  176.9840  139.0440 C   0  0  0  0  0  2  0  0  0  0  0  0
  188.2140  177.6990  137.8380 N   0  0  0  0  0  0  0  0  0  0  0  0
  188.8760  178.9970  137.8270 C   0  0  0  0  0  1  0  0  0  0  0  0
  186.7580  177.8890  137.8300 C   0  0  0  0  0  2  0  0  0  0  0  0
  185.9850  176.7530  137.1500 C   0  0  2  0  0  3  0  0  0  0  0  0
  184.2550  176.9660  135.4670 C   0  0  0  0  0  2  0  0  0  0  0  0
  186.4910  176.5300  135.8240 N   0  0  0  0  0  0  0  0  0  0  0  0
  184.5310  177.1680  136.9530 C   0  0  1  0  0  3  0  0  0  0  0  0
  185.5950  176.6360  134.9210 C   0  0  0  0  0  3  0  0  0  0  0  0
  182.4530  176.9060  138.4070 N   0  0  0  0  0  0  0  0  0  0  0  0
  183.6160  176.3270  137.7940 C   0  0  0  0  0  0  0  0  0  0  0  0
  180.0550  176.9360  139.7490 S   0  0  0  0  0  0  0  0  0  0  0  0
  180.7830  178.5350  137.5900 C   0  0  0  0  0  2  0  0  0  0  0  0
  179.7350  177.5200  138.0520 C   0  0  0  0  0  2  0  0  0  0  0  0
  182.1590  178.3270  138.2270 C   0  0  0  0  0  2  0  0  0  0  0  0
  181.5820  176.0650  139.2360 C   0  0  0  0  0  2  0  0  0  0  0  0
  183.8790  175.1050  137.9680 O   0  0  0  0  0  0  0  0  0  0  0  0
  185.8470  177.3960  142.7580 C   0  0  0  0  0  2  0  0  0  0  0  0
  182.8950  179.2810  144.2030 C   0  0  0  0  0  3  0  0  0  0  0  0
  182.0740  179.4290  143.0800 C   0  0  0  0  0  0  0  0  0  0  0  0
  183.7250  178.2530  141.7380 C   0  0  0  0  0  3  0  0  0  0  0  0
  184.1250  178.6240  144.0970 C   0  0  0  0  0  3  0  0  0  0  0  0
  184.5420  178.1120  142.8640 C   0  0  0  0  0  0  0  0  0  0  0  0
  182.4960  178.9110  141.8440 C   0  0  0  0  0  3  0  0  0  0  0  0
  179.9150  180.2060  142.1570 C   0  0  0  0  0  1  0  0  0  0  0  0
  180.8510  180.0910  143.2190 O   0  0  0  0  0  0  0  0  0  0  0  0
  1  8  1  0  0  0  0
  1  6  1  0  0  0  0
  2 12  1  0  0  0  0
  3 14  2  0  0  0  0
  3 10  1  0  0  0  0
  4 15  1  0  0  0  0
  4  8  2  0  0  0  0
  5  1  2  0  0  0  0
  7  4  1  0  0  0  0
  9  7  2  0  0  0  0
  9  5  1  0  0  0  0
 10 11  1  0  0  0  0
 11  2  2  0  0  0  0
 11  7  1  0  0  0  0
 12 15  2  0  0  0  0
 13 35  1  6  0  0  0
 13  2  1  0  0  0  0
 14 13  1  0  0  0  0
 16 17  1  1  0  0  0
 16  3  1  0  0  0  0
 18 16  1  0  0  0  0
 19 18  1  0  0  0  0
 20 19  1  0  0  0  0
 21 19  1  0  0  0  0
 22 21  1  6  0  0  0
 23 25  1  0  0  0  0
 24 22  1  0  0  0  0
 25 22  1  0  0  0  0
 25 28  1  1  0  0  0
 26 23  1  0  0  0  0
 26 24  2  0  0  0  0
 27 33  1  0  0  0  0
 28 34  2  0  0  0  0
 28 27  1  0  0  0  0
 30 31  1  0  0  0  0
 30 32  1  0  0  0  0
 31 29  1  0  0  0  0
 32 27  1  0  0  0  0
 33 29  1  0  0  0  0
 35 40  1  0  0  0  0
 37 43  1  0  0  0  0
 37 36  2  0  0  0  0
 38 41  2  0  0  0  0
 38 40  1  0  0  0  0
 39 36  1  0  0  0  0
 40 39  2  0  0  0  0
 41 37  1  0  0  0  0
 42 43  1  0  0  0  0
M  END
>  <MODEL>
5

>  <REMARK>
 VINA RESULT:      -9.4      2.407      5.552
  Name = 
  9 active torsions:
  status: ('A' for Active; 'I' for Inactive)
    1  A    between atoms: C_1  and  C_34
    2  A    between atoms: C_1  and  C_35
    3  A    between atoms: C_2  and  C_6
    4  A    between atoms: C_2  and  C_13
    5  A    between atoms: C_3  and  C_4
    6  A    between atoms: C_3  and  N_12
    7  A    between atoms: C_6  and  N_12
    8  A    between atoms: C_14  and  C_22
    9  A    between atoms: C_19  and  O_37
                            x       y       z     vdW  Elec       q    Type
                         _______ _______ _______ _____ _____    ______ ____

>  <TORSDO>
F 9

$$$$
=
 OpenBabel10262422073D

 43 48  0  0  1  0  0  0  0  0999 V2000
  187.6270  177.7210  147.1900 C   0  0  0  0  0  0  0  0  0  0  0  0
  185.3340  178.8600  142.8620 C   0  0  0  0  0  0  0  0  0  0  0  0
  187.1910  178.3870  140.7990 C   0  0  0  0  0  0  0  0  0  0  0  0
  186.0380  178.4520  145.5180 C   0  0  0  0  0  0  0  0  0  0  0  0
  188.5390  177.3920  146.1820 C   0  0  0  0  0  3  0  0  0  0  0  0
  187.9880  177.5090  148.6150 C   0  0  0  0  0  1  0  0  0  0  0  0
  186.9540  178.1190  144.4970 C   0  0  0  0  0  0  0  0  0  0  0  0
  186.3760  178.2520  146.8590 C   0  0  0  0  0  3  0  0  0  0  0  0
  188.2060  177.5910  144.8390 C   0  0  0  0  0  3  0  0  0  0  0  0
  187.4910  178.0510  142.1230 O   0  0  0  0  0  0  0  0  0  0  0  0
  186.5990  178.3330  143.1600 C   0  0  0  0  0  0  0  0  0  0  0  0
  184.4700  179.1710  143.8670 N   0  0  0  0  0  0  0  0  0  0  0  0
  184.9090  179.0250  141.4280 C   0  0  1  0  0  3  0  0  0  0  0  0
  186.0240  178.8660  140.4840 N   0  0  0  0  0  0  0  0  0  0  0  0
  184.7940  178.9830  145.1740 C   0  0  0  0  0  3  0  0  0  0  0  0
  188.2130  178.1980  139.7310 C   0  0  1  0  0  3  0  0  0  0  0  0
  189.1620  177.0740  140.1070 C   0  0  0  0  0  1  0  0  0  0  0  0
  187.5210  177.8900  138.4120 C   0  0  0  0  0  2  0  0  0  0  0  0
  188.4870  177.8680  137.3200 N   0  0  0  0  0  0  0  0  0  0  0  0
  189.0710  179.1970  137.1920 C   0  0  0  0  0  1  0  0  0  0  0  0
  187.8190  177.5000  136.0650 C   0  0  0  0  0  2  0  0  0  0  0  0
  188.0640  176.0510  135.6300 C   0  0  2  0  0  3  0  0  0  0  0  0
  188.5980  174.1680  137.0590 C   0  0  0  0  0  2  0  0  0  0  0  0
  186.9100  175.2440  135.9130 N   0  0  0  0  0  0  0  0  0  0  0  0
  189.1840  175.4460  136.4690 C   0  0  1  0  0  3  0  0  0  0  0  0
  187.1680  174.2440  136.6640 C   0  0  0  0  0  3  0  0  0  0  0  0
  191.6730  175.6880  135.9710 N   0  0  0  0  0  0  0  0  0  0  0  0
  190.3870  175.1500  135.6230 C   0  0  0  0  0  0  0  0  0  0  0  0
  194.4010  175.9970  135.8450 S   0  0  0  0  0  0  0  0  0  0  0  0
  192.8260  175.9590  138.1410 C   0  0  0  0  0  2  0  0  0  0  0  0
  194.0110  175.2630  137.4680 C   0  0  0  0  0  2  0  0  0  0  0  0
  191.8170  176.5420  137.1490 C   0  0  0  0  0  2  0  0  0  0  0  0
  192.8310  175.3950  135.1190 C   0  0  0  0  0  2  0  0  0  0  0  0
  190.2620  174.4310  134.5940 O   0  0  0  0  0  0  0  0  0  0  0  0
  183.8140  178.0130  141.1050 C   0  0  0  0  0  2  0  0  0  0  0  0
  181.3150  180.0350  139.1000 C   0  0  0  0  0  3  0  0  0  0  0  0
  180.1940  180.0140  139.9370 C   0  0  0  0  0  0  0  0  0  0  0  0
  181.4370  178.6740  141.5400 C   0  0  0  0  0  3  0  0  0  0  0  0
  182.4910  179.3800  139.4790 C   0  0  0  0  0  3  0  0  0  0  0  0
  182.5520  178.6960  140.6970 C   0  0  0  0  0  0  0  0  0  0  0  0
  180.2610  179.3290  141.1620 C   0  0  0  0  0  3  0  0  0  0  0  0
  179.0560  181.9590  138.9180 C   0  0  0  0  0  1  0  0  0  0  0  0
  179.0340  180.6780  139.5310 O   0  0  0  0  0  0  0  0  0  0  0  0
  1  6  1  0  0  0  0
  2 11  2  0  0  0  0
  2 12  1  0  0  0  0
  3 10  1  0  0  0  0
  4  8  2  0  0  0  0
  5  1  2  0  0  0  0
  7  9  2  0  0  0  0
  7  4  1  0  0  0  0
  8  1  1  0  0  0  0
  9  5  1  0  0  0  0
 10 11  1  0  0  0  0
 11  7  1  0  0  0  0
 12 15  2  0  0  0  0
 13 35  1  6  0  0  0
 13  2  1  0  0  0  0
 14  3  2  0  0  0  0
 14 13  1  0  0  0  0
 15  4  1  0  0  0  0
 16 17  1  1  0  0  0
 16  3  1  0  0  0  0
 18 16  1  0  0  0  0
 19 18  1  0  0  0  0
 20 19  1  0  0  0  0
 21 19  1  0  0  0  0
 22 24  1  0  0  0  0
 22 21  1  1  0  0  0
 22 25  1  0  0  0  0
 24 26  2  0  0  0  0
 25 28  1  6  0  0  0
 25 23  1  0  0  0  0
 26 23  1  0  0  0  0
 27 32  1  0  0  0  0
 28 27  1  0  0  0  0
 29 31  1  0  0  0  0
 31 30  1  0  0  0  0
 32 30  1  0  0  0  0
 33 29  1  0  0  0  0
 33 27  1  0  0  0  0
 34 28  2  0  0  0  0
 36 39  2  0  0  0  0
 36 37  1  0  0  0  0
 37 41  2  0  0  0  0
 39 40  1  0  0  0  0
 40 35  1  0  0  0  0
 40 38  2  0  0  0  0
 41 38  1  0  0  0  0
 42 43  1  0  0  0  0
 43 37  1  0  0  0  0
M  END
>  <MODEL>
6

>  <REMARK>
 VINA RESULT:      -9.4      3.662      8.474
  Name = 
  9 active torsions:
  status: ('A' for Active; 'I' for Inactive)
    1  A    between atoms: C_1  and  C_34
    2  A    between atoms: C_1  and  C_35
    3  A    between atoms: C_2  and  C_6
    4  A    between atoms: C_2  and  C_13
    5  A    between atoms: C_3  and  C_4
    6  A    between atoms: C_3  and  N_12
    7  A    between atoms: C_6  and  N_12
    8  A    between atoms: C_14  and  C_22
    9  A    between atoms: C_19  and  O_37
                            x       y       z     vdW  Elec       q    Type
                         _______ _______ _______ _____ _____    ______ ____

>  <TORSDO>
F 9

$$$$
=
 OpenBabel10262422073D

 43 48  0  0  1  0  0  0  0  0999 V2000
  191.2970  176.4290  146.7020 C   0  0  0  0  0  0  0  0  0  0  0  0
  187.4780  178.1560  143.9220 C   0  0  0  0  0  0  0  0  0  0  0  0
  188.3620  178.2020  141.2500 C   0  0  0  0  0  0  0  0  0  0  0  0
  189.1770  177.3300  145.9590 C   0  0  0  0  0  0  0  0  0  0  0  0
  191.7330  176.3570  145.3740 C   0  0  0  0  0  3  0  0  0  0  0  0
  192.1930  175.9910  147.8020 C   0  0  0  0  0  1  0  0  0  0  0  0
  189.6120  177.2560  144.6170 C   0  0  0  0  0  0  0  0  0  0  0  0
  190.0190  176.9180  146.9940 C   0  0  0  0  0  3  0  0  0  0  0  0
  190.8950  176.7690  144.3340 C   0  0  0  0  0  3  0  0  0  0  0  0
  189.1620  177.6570  142.2590 O   0  0  0  0  0  0  0  0  0  0  0  0
  188.7560  177.6800  143.5940 C   0  0  0  0  0  0  0  0  0  0  0  0
  187.0850  178.2150  145.2240 N   0  0  0  0  0  0  0  0  0  0  0  0
  186.5190  178.5450  142.8290 C   0  0  1  0  0  3  0  0  0  0  0  0
  187.1680  178.6420  141.5140 N   0  0  0  0  0  0  0  0  0  0  0  0
  187.9000  177.8200  146.2380 C   0  0  0  0  0  3  0  0  0  0  0  0
  188.8760  178.2850  139.8530 C   0  0  1  0  0  3  0  0  0  0  0  0
  189.9820  177.2660  139.6400 C   0  0  0  0  0  1  0  0  0  0  0  0
  187.7360  178.0450  138.8750 C   0  0  0  0  0  2  0  0  0  0  0  0
  188.2190  177.3500  137.6880 N   0  0  0  0  0  0  0  0  0  0  0  0
  188.0400  178.2240  136.5350 C   0  0  0  0  0  1  0  0  0  0  0  0
  187.4590  176.1090  137.4870 C   0  0  0  0  0  2  0  0  0  0  0  0
  188.0280  175.2000  136.3920 C   0  0  2  0  0  3  0  0  0  0  0  0
  189.4220  173.2420  136.6970 C   0  0  0  0  0  2  0  0  0  0  0  0
  187.2720  173.9810  136.3130 N   0  0  0  0  0  0  0  0  0  0  0  0
  189.4390  174.7650  136.7680 C   0  0  1  0  0  3  0  0  0  0  0  0
  187.9870  172.9360  136.4700 C   0  0  0  0  0  3  0  0  0  0  0  0
  191.8180  175.5040  136.2200 N   0  0  0  0  0  0  0  0  0  0  0  0
  190.4480  175.3410  135.8180 C   0  0  0  0  0  0  0  0  0  0  0  0
  194.5000  176.0110  135.9040 S   0  0  0  0  0  0  0  0  0  0  0  0
  193.3450  174.0660  137.5270 C   0  0  0  0  0  2  0  0  0  0  0  0
  194.3300  174.2560  136.3710 C   0  0  0  0  0  2  0  0  0  0  0  0
  192.2380  175.1210  137.5670 C   0  0  0  0  0  2  0  0  0  0  0  0
  192.7810  176.0820  135.2760 C   0  0  0  0  0  2  0  0  0  0  0  0
  190.0840  175.6920  134.6620 O   0  0  0  0  0  0  0  0  0  0  0  0
  185.3830  177.5290  142.7680 C   0  0  0  0  0  2  0  0  0  0  0  0
  182.2510  179.2930  143.9660 C   0  0  0  0  0  3  0  0  0  0  0  0
  181.5390  179.4510  142.7720 C   0  0  0  0  0  0  0  0  0  0  0  0
  183.3460  178.3590  141.5680 C   0  0  0  0  0  3  0  0  0  0  0  0
  183.5040  178.6710  143.9640 C   0  0  0  0  0  3  0  0  0  0  0  0
  184.0540  178.2070  142.7640 C   0  0  0  0  0  0  0  0  0  0  0  0
  182.0940  178.9800  141.5700 C   0  0  0  0  0  3  0  0  0  0  0  0
  179.4130  180.1030  141.6900 C   0  0  0  0  0  1  0  0  0  0  0  0
  180.2900  180.0760  142.8070 O   0  0  0  0  0  0  0  0  0  0  0  0
  1  8  1  0  0  0  0
  1  6  1  0  0  0  0
  2 12  1  0  0  0  0
  3 14  2  0  0  0  0
  3 10  1  0  0  0  0
  4 15  1  0  0  0  0
  4  8  2  0  0  0  0
  5  1  2  0  0  0  0
  7  4  1  0  0  0  0
  9  7  2  0  0  0  0
  9  5  1  0  0  0  0
 10 11  1  0  0  0  0
 11  2  2  0  0  0  0
 11  7  1  0  0  0  0
 12 15  2  0  0  0  0
 13 35  1  6  0  0  0
 13  2  1  0  0  0  0
 14 13  1  0  0  0  0
 16 17  1  1  0  0  0
 16  3  1  0  0  0  0
 18 16  1  0  0  0  0
 19 18  1  0  0  0  0
 20 19  1  0  0  0  0
 21 19  1  0  0  0  0
 22 25  1  0  0  0  0
 22 21  1  1  0  0  0
 23 25  1  0  0  0  0
 24 22  1  0  0  0  0
 24 26  2  0  0  0  0
 25 28  1  6  0  0  0
 26 23  1  0  0  0  0
 27 32  1  0  0  0  0
 28 27  1  0  0  0  0
 29 31  1  0  0  0  0
 30 32  1  0  0  0  0
 31 30  1  0  0  0  0
 33 29  1  0  0  0  0
 33 27  1  0  0  0  0
 34 28  2  0  0  0  0
 37 43  1  0  0  0  0
 37 36  2  0  0  0  0
 38 41  2  0  0  0  0
 38 40  1  0  0  0  0
 39 36  1  0  0  0  0
 40 35  1  0  0  0  0
 40 39  2  0  0  0  0
 41 37  1  0  0  0  0
 42 43  1  0  0  0  0
M  END
>  <MODEL>
7

>  <REMARK>
 VINA RESULT:      -9.2      3.774      8.354
  Name = 
  9 active torsions:
  status: ('A' for Active; 'I' for Inactive)
    1  A    between atoms: C_1  and  C_34
    2  A    between atoms: C_1  and  C_35
    3  A    between atoms: C_2  and  C_6
    4  A    between atoms: C_2  and  C_13
    5  A    between atoms: C_3  and  C_4
    6  A    between atoms: C_3  and  N_12
    7  A    between atoms: C_6  and  N_12
    8  A    between atoms: C_14  and  C_22
    9  A    between atoms: C_19  and  O_37
                            x       y       z     vdW  Elec       q    Type
                         _______ _______ _______ _____ _____    ______ ____

>  <TORSDO>
F 9

$$$$
=
 OpenBabel10262422073D

 43 48  0  0  1  0  0  0  0  0999 V2000
  191.2440  176.4400  146.8870 C   0  0  0  0  0  0  0  0  0  0  0  0
  187.4180  178.1230  144.0900 C   0  0  0  0  0  0  0  0  0  0  0  0
  188.3330  178.2370  141.4300 C   0  0  0  0  0  0  0  0  0  0  0  0
  189.1120  177.3020  146.1330 C   0  0  0  0  0  0  0  0  0  0  0  0
  191.6980  176.4020  145.5640 C   0  0  0  0  0  3  0  0  0  0  0  0
  192.1380  176.0050  147.9900 C   0  0  0  0  0  1  0  0  0  0  0  0
  189.5650  177.2620  144.7960 C   0  0  0  0  0  0  0  0  0  0  0  0
  189.9520  176.8920  147.1720 C   0  0  0  0  0  3  0  0  0  0  0  0
  190.8620  176.8120  144.5210 C   0  0  0  0  0  3  0  0  0  0  0  0
  189.1340  177.6940  142.4390 O   0  0  0  0  0  0  0  0  0  0  0  0
  188.7110  177.6840  143.7700 C   0  0  0  0  0  0  0  0  0  0  0  0
  187.0080  178.1500  145.3880 N   0  0  0  0  0  0  0  0  0  0  0  0
  186.4640  178.5080  142.9920 C   0  0  1  0  0  3  0  0  0  0  0  0
  187.1250  178.6440  141.6880 N   0  0  0  0  0  0  0  0  0  0  0  0
  187.8210  177.7560  146.4050 C   0  0  0  0  0  3  0  0  0  0  0  0
  188.8610  178.3580  140.0410 C   0  0  1  0  0  3  0  0  0  0  0  0
  189.9580  177.3330  139.8080 C   0  0  0  0  0  1  0  0  0  0  0  0
  187.7290  178.1600  139.0460 C   0  0  0  0  0  2  0  0  0  0  0  0
  188.2510  177.7240  137.7560 N   0  0  0  0  0  0  0  0  0  0  0  0
  188.3100  178.8780  136.8670 C   0  0  0  0  0  1  0  0  0  0  0  0
  187.3710  176.7010  137.1770 C   0  0  0  0  0  2  0  0  0  0  0  0
  187.9750  175.2910  137.1720 C   0  0  2  0  0  3  0  0  0  0  0  0
  188.5180  173.9420  135.2340 C   0  0  0  0  0  2  0  0  0  0  0  0
  189.3730  175.3480  136.8490 N   0  0  0  0  0  0  0  0  0  0  0  0
  187.3450  174.4680  136.0540 C   0  0  1  0  0  3  0  0  0  0  0  0
  189.6820  174.6430  135.8320 C   0  0  0  0  0  3  0  0  0  0  0  0
  185.0920  173.3790  136.5470 N   0  0  0  0  0  0  0  0  0  0  0  0
  186.5260  173.3420  136.6150 C   0  0  0  0  0  0  0  0  0  0  0  0
  182.5270  172.4120  136.7410 S   0  0  0  0  0  0  0  0  0  0  0  0
  183.5340  174.0960  134.7660 C   0  0  0  0  0  2  0  0  0  0  0  0
  182.8500  172.7430  134.9780 C   0  0  0  0  0  2  0  0  0  0  0  0
  184.4160  174.5260  135.9410 C   0  0  0  0  0  2  0  0  0  0  0  0
  184.3150  172.2720  137.1140 C   0  0  0  0  0  2  0  0  0  0  0  0
  187.1070  172.3610  137.1570 O   0  0  0  0  0  0  0  0  0  0  0  0
  185.3530  177.4660  142.9000 C   0  0  0  0  0  2  0  0  0  0  0  0
  182.0550  179.2870  143.2970 C   0  0  0  0  0  3  0  0  0  0  0  0
  181.5610  179.2700  141.9880 C   0  0  0  0  0  0  0  0  0  0  0  0
  183.5530  178.0790  141.2680 C   0  0  0  0  0  3  0  0  0  0  0  0
  183.2910  178.7040  143.5930 C   0  0  0  0  0  3  0  0  0  0  0  0
  184.0430  178.1020  142.5780 C   0  0  0  0  0  0  0  0  0  0  0  0
  182.3180  178.6620  140.9730 C   0  0  0  0  0  3  0  0  0  0  0  0
  179.5150  180.4380  142.7420 C   0  0  0  0  0  1  0  0  0  0  0  0
  180.3220  179.8620  141.7250 O   0  0  0  0  0  0  0  0  0  0  0  0
  1  8  1  0  0  0  0
  1  6  1  0  0  0  0
  2 12  1  0  0  0  0
  3 14  2  0  0  0  0
  3 10  1  0  0  0  0
  4 15  1  0  0  0  0
  4  8  2  0  0  0  0
  5  1  2  0  0  0  0
  7  4  1  0  0  0  0
  9  7  2  0  0  0  0
  9  5  1  0  0  0  0
 10 11  1  0  0  0  0
 11  2  2  0  0  0  0
 11  7  1  0  0  0  0
 12 15  2  0  0  0  0
 13 35  1  6  0  0  0
 13  2  1  0  0  0  0
 14 13  1  0  0  0  0
 16 17  1  6  0  0  0
 16  3  1  0  0  0  0
 18 16  1  0  0  0  0
 19 18  1  0  0  0  0
 20 19  1  0  0  0  0
 21 19  1  0  0  0  0
 22 21  1  6  0  0  0
 23 26  1  0  0  0  0
 23 25  1  0  0  0  0
 24 22  1  0  0  0  0
 25 28  1  1  0  0  0
 25 22  1  0  0  0  0
 26 24  2  0  0  0  0
 27 28  1  0  0  0  0
 27 33  1  0  0  0  0
 28 34  2  0  0  0  0
 29 33  1  0  0  0  0
 30 31  1  0  0  0  0
 30 32  1  0  0  0  0
 31 29  1  0  0  0  0
 32 27  1  0  0  0  0
 36 39  1  0  0  0  0
 37 36  2  0  0  0  0
 38 40  1  0  0  0  0
 40 35  1  0  0  0  0
 40 39  2  0  0  0  0
 41 38  2  0  0  0  0
 41 37  1  0  0  0  0
 43 37  1  0  0  0  0
 43 42  1  0  0  0  0
M  END
>  <MODEL>
8

>  <REMARK>
 VINA RESULT:      -9.0      3.227      6.982
  Name = 
  9 active torsions:
  status: ('A' for Active; 'I' for Inactive)
    1  A    between atoms: C_1  and  C_34
    2  A    between atoms: C_1  and  C_35
    3  A    between atoms: C_2  and  C_6
    4  A    between atoms: C_2  and  C_13
    5  A    between atoms: C_3  and  C_4
    6  A    between atoms: C_3  and  N_12
    7  A    between atoms: C_6  and  N_12
    8  A    between atoms: C_14  and  C_22
    9  A    between atoms: C_19  and  O_37
                            x       y       z     vdW  Elec       q    Type
                         _______ _______ _______ _____ _____    ______ ____

>  <TORSDO>
F 9

$$$$
=
 OpenBabel10262422073D

 43 48  0  0  1  0  0  0  0  0999 V2000
  187.6750  177.5600  146.5780 C   0  0  0  0  0  0  0  0  0  0  0  0
  185.4100  178.8270  142.2700 C   0  0  0  0  0  0  0  0  0  0  0  0
  187.1700  178.1410  140.1840 C   0  0  0  0  0  0  0  0  0  0  0  0
  186.1270  178.4050  144.9210 C   0  0  0  0  0  0  0  0  0  0  0  0
  188.5310  177.1270  145.5600 C   0  0  0  0  0  3  0  0  0  0  0  0
  188.0440  177.3420  148.0000 C   0  0  0  0  0  1  0  0  0  0  0  0
  186.9870  177.9680  143.8900 C   0  0  0  0  0  0  0  0  0  0  0  0
  186.4730  178.2000  146.2590 C   0  0  0  0  0  3  0  0  0  0  0  0
  188.1900  177.3310  144.2190 C   0  0  0  0  0  3  0  0  0  0  0  0
  187.4650  177.8040  141.5080 O   0  0  0  0  0  0  0  0  0  0  0  0
  186.6250  178.1890  142.5550 C   0  0  0  0  0  0  0  0  0  0  0  0
  184.6000  179.2360  143.2850 N   0  0  0  0  0  0  0  0  0  0  0  0
  184.9720  179.0040  140.8420 C   0  0  1  0  0  3  0  0  0  0  0  0
  186.0470  178.7220  139.8810 N   0  0  0  0  0  0  0  0  0  0  0  0
  184.9310  179.0440  144.5900 C   0  0  0  0  0  3  0  0  0  0  0  0
  188.1480  177.8360  139.1000 C   0  0  1  0  0  3  0  0  0  0  0  0
  187.8050  178.6250  137.8490 C   0  0  0  0  0  1  0  0  0  0  0  0
  189.5530  178.1730  139.5720 C   0  0  0  0  0  2  0  0  0  0  0  0
  190.3550  176.9610  139.6980 N   0  0  0  0  0  0  0  0  0  0  0  0
  190.6540  176.7480  141.1090 C   0  0  0  0  0  1  0  0  0  0  0  0
  191.6080  177.1060  138.9460 C   0  0  0  0  0  2  0  0  0  0  0  0
  191.6110  176.3810  137.5950 C   0  0  2  0  0  3  0  0  0  0  0  0
  191.7790  173.9930  137.2200 C   0  0  0  0  0  2  0  0  0  0  0  0
  190.3300  175.7820  137.3470 N   0  0  0  0  0  0  0  0  0  0  0  0
  192.5900  175.2140  137.6420 C   0  0  1  0  0  3  0  0  0  0  0  0
  190.3940  174.5240  137.1450 C   0  0  0  0  0  3  0  0  0  0  0  0
  195.0460  174.9190  137.0220 N   0  0  0  0  0  0  0  0  0  0  0  0
  193.7460  175.4460  136.7140 C   0  0  0  0  0  0  0  0  0  0  0  0
  197.6720  174.2460  136.5700 S   0  0  0  0  0  0  0  0  0  0  0  0
  195.7780  172.7530  137.9620 C   0  0  0  0  0  2  0  0  0  0  0  0
  196.7400  172.6920  136.7720 C   0  0  0  0  0  2  0  0  0  0  0  0
  195.2570  174.1610  138.2550 C   0  0  0  0  0  2  0  0  0  0  0  0
  196.1620  175.1710  136.1040 C   0  0  0  0  0  2  0  0  0  0  0  0
  193.5710  176.1170  135.6600 O   0  0  0  0  0  0  0  0  0  0  0  0
  183.7800  178.0930  140.5610 C   0  0  0  0  0  2  0  0  0  0  0  0
  181.4160  180.2910  138.5780 C   0  0  0  0  0  3  0  0  0  0  0  0
  180.3310  180.4050  139.4540 C   0  0  0  0  0  0  0  0  0  0  0  0
  181.4970  178.9980  141.0560 C   0  0  0  0  0  3  0  0  0  0  0  0
  182.5370  179.5350  138.9370 C   0  0  0  0  0  3  0  0  0  0  0  0
  182.5770  178.8850  140.1750 C   0  0  0  0  0  0  0  0  0  0  0  0
  180.3770  179.7530  140.6980 C   0  0  0  0  0  3  0  0  0  0  0  0
  179.3090  182.5610  138.8010 C   0  0  0  0  0  1  0  0  0  0  0  0
  179.2260  181.1670  139.0660 O   0  0  0  0  0  0  0  0  0  0  0  0
  1  6  1  0  0  0  0
  2 11  2  0  0  0  0
  2 12  1  0  0  0  0
  3 10  1  0  0  0  0
  4  8  2  0  0  0  0
  5  1  2  0  0  0  0
  7  9  2  0  0  0  0
  7  4  1  0  0  0  0
  8  1  1  0  0  0  0
  9  5  1  0  0  0  0
 10 11  1  0  0  0  0
 11  7  1  0  0  0  0
 12 15  2  0  0  0  0
 13 35  1  6  0  0  0
 13  2  1  0  0  0  0
 14  3  2  0  0  0  0
 14 13  1  0  0  0  0
 15  4  1  0  0  0  0
 16 17  1  6  0  0  0
 16 18  1  0  0  0  0
 16  3  1  0  0  0  0
 18 19  1  0  0  0  0
 19 20  1  0  0  0  0
 21 19  1  0  0  0  0
 22 25  1  0  0  0  0
 22 21  1  1  0  0  0
 23 25  1  0  0  0  0
 24 22  1  0  0  0  0
 25 28  1  6  0  0  0
 26 23  1  0  0  0  0
 26 24  2  0  0  0  0
 27 32  1  0  0  0  0
 28 27  1  0  0  0  0
 29 31  1  0  0  0  0
 30 32  1  0  0  0  0
 31 30  1  0  0  0  0
 33 29  1  0  0  0  0
 33 27  1  0  0  0  0
 34 28  2  0  0  0  0
 36 39  2  0  0  0  0
 36 37  1  0  0  0  0
 37 41  2  0  0  0  0
 39 40  1  0  0  0  0
 40 35  1  0  0  0  0
 40 38  2  0  0  0  0
 41 38  1  0  0  0  0
 42 43  1  0  0  0  0
 43 37  1  0  0  0  0
M  END
>  <MODEL>
9

>  <REMARK>
 VINA RESULT:      -9.0      4.646      9.822
  Name = 
  9 active torsions:
  status: ('A' for Active; 'I' for Inactive)
    1  A    between atoms: C_1  and  C_34
    2  A    between atoms: C_1  and  C_35
    3  A    between atoms: C_2  and  C_6
    4  A    between atoms: C_2  and  C_13
    5  A    between atoms: C_3  and  C_4
    6  A    between atoms: C_3  and  N_12
    7  A    between atoms: C_6  and  N_12
    8  A    between atoms: C_14  and  C_22
    9  A    between atoms: C_19  and  O_37
                            x       y       z     vdW  Elec       q    Type
                         _______ _______ _______ _____ _____    ______ ____

>  <TORSDO>
F 9

$$$$
