=
 OpenBabel10262421423D

 32 37  0  0  1  0  0  0  0  0999 V2000
  184.6420  178.9360  142.3290 C   0  0  2  0  0  3  0  0  0  0  0  0
  184.5490  178.9740  138.0020 C   0  0  1  0  0  3  0  0  0  0  0  0
  181.4030  177.0560  136.9830 C   0  0  0  0  0  2  0  0  0  0  0  0
  183.5570  174.9640  136.6140 C   0  0  0  0  0  1  0  0  0  0  0  0
  186.9670  178.5730  137.2630 C   0  0  0  0  0  0  0  0  0  0  0  0
  187.9820  177.4710  137.2250 C   0  0  0  0  0  0  0  0  0  0  0  0
  185.7590  178.1600  140.1180 C   0  0  0  0  0  2  0  0  0  0  0  0
  182.6320  178.5140  139.2190 O   0  0  0  0  0  0  0  0  0  0  0  0
  190.0120  176.5310  137.2030 C   0  0  0  0  0  0  0  0  0  0  0  0
  183.3800  178.7040  141.4860 C   0  0  0  0  0  2  0  0  0  0  0  0
  182.3340  177.5060  135.8610 C   0  0  0  0  0  2  0  0  0  0  0  0
  183.1180  178.6150  137.9430 N   0  0  2  0  0  0  0  0  0  0  0  0
  182.8650  177.3330  137.2710 C   0  0  0  0  0  0  0  0  0  0  0  0
  185.2400  176.5980  137.4560 C   0  0  0  0  0  0  0  0  0  0  0  0
  191.4940  176.4600  137.1230 C   0  0  0  0  0  1  0  0  0  0  0  0
  185.8670  178.4900  141.5730 C   0  0  0  0  0  0  0  0  0  0  0  0
  183.4820  179.2570  140.0540 C   0  0  1  0  0  3  0  0  0  0  0  0
  189.3190  177.6910  137.1280 N   0  0  0  0  0  0  0  0  0  0  0  0
  186.9540  178.4350  142.1270 O   0  0  0  0  0  0  0  0  0  0  0  0
  183.5730  175.6960  138.8720 O   0  0  0  0  0  1  0  0  0  0  0  0
  183.8060  176.1360  137.5670 C   0  0  2  0  0  0  0  0  0  0  0  0
  186.2420  175.7100  137.5500 C   0  0  0  0  0  3  0  0  0  0  0  0
  184.8760  179.2230  139.4540 C   0  0  2  0  0  3  0  0  0  0  0  0
  187.2090  179.4840  136.2350 O   0  0  0  0  0  1  0  0  0  0  0  0
  189.0030  175.1950  137.4160 S   0  0  0  0  0  0  0  0  0  0  0  0
  185.5040  178.0730  137.1800 C   0  0  0  0  0  0  0  0  0  0  0  0
  187.6230  176.1510  137.4040 C   0  0  0  0  0  0  0  0  0  0  0  0
  184.5190  178.1710  143.6390 C   0  0  0  0  0  2  0  0  0  0  0  0
  184.4560  179.1350  144.8110 C   0  0  0  0  0  2  0  0  0  0  0  0
  185.4510  178.7470  145.8540 C   0  0  0  0  0  0  0  0  0  0  0  0
  185.4510  179.2990  146.9420 O   0  0  0  0  0  0  0  0  0  0  0  0
  186.4310  177.6610  145.5740 C   0  0  0  0  0  1  0  0  0  0  0  0
  1 28  1  1  0  0  0
  2 26  1  1  0  0  0
  2 23  1  0  0  0  0
  3 13  1  0  0  0  0
  6  5  1  0  0  0  0
  6 27  2  0  0  0  0
  7 16  1  0  0  0  0
  8 17  1  0  0  0  0
  9 25  1  0  0  0  0
 10  1  1  0  0  0  0
 11  3  1  0  0  0  0
 11 13  1  0  0  0  0
 12  2  1  0  0  0  0
 12  8  1  1  0  0  0
 13 21  1  0  0  0  0
 13 12  1  0  0  0  0
 14 22  2  0  0  0  0
 14 21  1  0  0  0  0
 15  9  1  0  0  0  0
 16 19  2  0  0  0  0
 16  1  1  0  0  0  0
 17 10  1  1  0  0  0
 18  9  2  0  0  0  0
 18  6  1  0  0  0  0
 21  4  1  6  0  0  0
 21 20  1  0  0  0  0
 23 17  1  0  0  0  0
 23  7  1  1  0  0  0
 24  5  1  0  0  0  0
 26  5  2  0  0  0  0
 26 14  1  0  0  0  0
 27 25  1  0  0  0  0
 27 22  1  0  0  0  0
 28 29  1  0  0  0  0
 29 30  1  0  0  0  0
 30 31  2  0  0  0  0
 32 30  1  0  0  0  0
M  END
>  <MODEL>
1

>  <REMARK>
 VINA RESULT:      -6.0      0.000      0.000
  Name = 
  3 active torsions:
  status: ('A' for Active; 'I' for Inactive)
    1  A    between atoms: C_1  and  C_10
    2  A    between atoms: C_2  and  C_24
    3  A    between atoms: C_10  and  C_24
                            x       y       z     vdW  Elec       q    Type
                         _______ _______ _______ _____ _____    ______ ____

>  <TORSDO>
F 3

$$$$
=
 OpenBabel10262421423D

 32 37  0  0  1  0  0  0  0  0999 V2000
  179.2210  181.3530  138.0270 C   0  0  2  0  0  3  0  0  0  0  0  0
  179.7830  178.2730  141.0150 C   0  0  1  0  0  3  0  0  0  0  0  0
  182.2350  179.7040  143.5760 C   0  0  0  0  0  2  0  0  0  0  0  0
  184.0420  177.9630  141.8850 C   0  0  0  0  0  1  0  0  0  0  0  0
  179.9440  176.0770  139.7110 C   0  0  0  0  0  0  0  0  0  0  0  0
  180.8910  175.3560  138.8000 C   0  0  0  0  0  0  0  0  0  0  0  0
  180.1280  178.9830  138.5690 C   0  0  0  0  0  2  0  0  0  0  0  0
  180.3330  180.4770  141.4740 O   0  0  0  0  0  0  0  0  0  0  0  0
  181.5370  173.9490  137.1850 C   0  0  0  0  0  0  0  0  0  0  0  0
  179.7360  181.6090  139.4500 C   0  0  0  0  0  2  0  0  0  0  0  0
  181.8180  178.2460  143.7540 C   0  0  0  0  0  2  0  0  0  0  0  0
  180.3390  179.2160  142.0060 N   0  0  2  0  0  0  0  0  0  0  0  0
  181.7230  178.9070  142.3930 C   0  0  0  0  0  0  0  0  0  0  0  0
  182.0940  177.4120  140.4320 C   0  0  0  0  0  0  0  0  0  0  0  0
  181.4140  172.8730  136.1680 C   0  0  0  0  0  1  0  0  0  0  0  0
  179.5930  179.9640  137.5760 C   0  0  0  0  0  0  0  0  0  0  0  0
  179.3730  180.4960  140.4490 C   0  0  1  0  0  3  0  0  0  0  0  0
  180.5050  174.3660  137.9540 N   0  0  0  0  0  0  0  0  0  0  0  0
  179.4220  179.6190  136.4160 O   0  0  0  0  0  0  0  0  0  0  0  0
  183.0150  179.5900  140.4930 O   0  0  0  0  0  1  0  0  0  0  0  0
  182.7280  178.4800  141.2910 C   0  0  2  0  0  0  0  0  0  0  0  0
  182.8140  176.7960  139.4820 C   0  0  0  0  0  3  0  0  0  0  0  0
  179.2970  179.1030  139.8520 C   0  0  2  0  0  3  0  0  0  0  0  0
  179.1570  175.1600  140.4070 O   0  0  0  0  0  1  0  0  0  0  0  0
  182.9580  174.8030  137.5030 S   0  0  0  0  0  0  0  0  0  0  0  0
  180.6470  177.0240  140.7150 C   0  0  0  0  0  0  0  0  0  0  0  0
  182.2120  175.7380  138.6810 C   0  0  0  0  0  0  0  0  0  0  0  0
  179.8100  182.3920  137.0840 C   0  0  0  0  0  2  0  0  0  0  0  0
  181.1720  182.8470  137.5820 C   0  0  0  0  0  2  0  0  0  0  0  0
  181.4930  184.2020  137.0430 C   0  0  0  0  0  0  0  0  0  0  0  0
  182.2900  184.9220  137.6200 O   0  0  0  0  0  0  0  0  0  0  0  0
  180.8550  184.6660  135.7800 C   0  0  0  0  0  1  0  0  0  0  0  0
  1 28  1  6  0  0  0
  1 10  1  0  0  0  0
  2 26  1  6  0  0  0
  2 12  1  0  0  0  0
  3 11  1  0  0  0  0
  5 24  1  0  0  0  0
  5 26  1  0  0  0  0
  6  5  2  0  0  0  0
  9 25  1  0  0  0  0
  9 18  2  0  0  0  0
 12  8  1  6  0  0  0
 12 13  1  0  0  0  0
 13  3  1  0  0  0  0
 13 11  1  0  0  0  0
 14 26  2  0  0  0  0
 14 21  1  0  0  0  0
 15  9  1  0  0  0  0
 16  1  1  0  0  0  0
 16  7  1  0  0  0  0
 17 10  1  6  0  0  0
 17  8  1  0  0  0  0
 18  6  1  0  0  0  0
 19 16  2  0  0  0  0
 20 21  1  0  0  0  0
 21  4  1  1  0  0  0
 21 13  1  0  0  0  0
 22 14  1  0  0  0  0
 23  7  1  6  0  0  0
 23 17  1  0  0  0  0
 23  2  1  0  0  0  0
 25 27  1  0  0  0  0
 27  6  1  0  0  0  0
 27 22  2  0  0  0  0
 28 29  1  0  0  0  0
 30 29  1  0  0  0  0
 30 31  2  0  0  0  0
 32 30  1  0  0  0  0
M  END
>  <MODEL>
2

>  <REMARK>
 VINA RESULT:      -6.0      4.499      7.573
  Name = 
  3 active torsions:
  status: ('A' for Active; 'I' for Inactive)
    1  A    between atoms: C_1  and  C_10
    2  A    between atoms: C_2  and  C_24
    3  A    between atoms: C_10  and  C_24
                            x       y       z     vdW  Elec       q    Type
                         _______ _______ _______ _____ _____    ______ ____

>  <TORSDO>
F 3

$$$$
=
 OpenBabel10262421423D

 32 37  0  0  1  0  0  0  0  0999 V2000
  184.9120  179.0010  141.2780 C   0  0  2  0  0  3  0  0  0  0  0  0
  184.3880  178.1860  137.0590 C   0  0  1  0  0  3  0  0  0  0  0  0
  181.3310  175.9070  136.7830 C   0  0  0  0  0  2  0  0  0  0  0  0
  183.6080  173.9270  136.5690 C   0  0  0  0  0  1  0  0  0  0  0  0
  186.7460  177.8050  136.1390 C   0  0  0  0  0  0  0  0  0  0  0  0
  187.8420  176.7860  136.1920 C   0  0  0  0  0  0  0  0  0  0  0  0
  185.8670  177.8820  139.1390 C   0  0  0  0  0  2  0  0  0  0  0  0
  182.6470  177.8500  138.5510 O   0  0  0  0  0  0  0  0  0  0  0  0
  189.9330  175.9920  136.1150 C   0  0  0  0  0  0  0  0  0  0  0  0
  183.5980  178.5280  140.6420 C   0  0  0  0  0  2  0  0  0  0  0  0
  182.1040  176.1890  135.4980 C   0  0  0  0  0  2  0  0  0  0  0  0
  182.9940  177.7320  137.2320 N   0  0  2  0  0  0  0  0  0  0  0  0
  182.7850  176.3290  136.8460 C   0  0  0  0  0  0  0  0  0  0  0  0
  185.2200  175.7990  136.8930 C   0  0  0  0  0  0  0  0  0  0  0  0
  191.4000  176.0030  135.8820 C   0  0  0  0  0  1  0  0  0  0  0  0
  186.0900  178.4960  140.4850 C   0  0  0  0  0  0  0  0  0  0  0  0
  183.5090  178.7960  139.1300 C   0  0  1  0  0  3  0  0  0  0  0  0
  189.1390  177.0680  135.9040 N   0  0  0  0  0  0  0  0  0  0  0  0
  187.2280  178.6200  140.9110 O   0  0  0  0  0  0  0  0  0  0  0  0
  183.7860  175.0860  138.6340 O   0  0  0  0  0  1  0  0  0  0  0  0
  183.8500  175.2760  137.2510 C   0  0  2  0  0  0  0  0  0  0  0  0
  186.2990  175.0130  137.0380 C   0  0  0  0  0  3  0  0  0  0  0  0
  184.8350  178.7350  138.3920 C   0  0  2  0  0  3  0  0  0  0  0  0
  186.8060  178.5110  134.9370 O   0  0  0  0  0  1  0  0  0  0  0  0
  189.0670  174.6610  136.6890 S   0  0  0  0  0  0  0  0  0  0  0  0
  185.3290  177.2060  136.3170 C   0  0  0  0  0  0  0  0  0  0  0  0
  187.6160  175.5050  136.6550 C   0  0  0  0  0  0  0  0  0  0  0  0
  184.9860  178.5010  142.7130 C   0  0  0  0  0  2  0  0  0  0  0  0
  184.5560  179.5930  143.6770 C   0  0  0  0  0  2  0  0  0  0  0  0
  183.5470  179.0630  144.6420 C   0  0  0  0  0  0  0  0  0  0  0  0
  183.8050  179.0030  145.8330 O   0  0  0  0  0  0  0  0  0  0  0  0
  182.2100  178.6280  144.1510 C   0  0  0  0  0  1  0  0  0  0  0  0
  1 28  1  1  0  0  0
  2 26  1  1  0  0  0
  2 12  1  0  0  0  0
  2 23  1  0  0  0  0
  3 13  1  0  0  0  0
  5  6  2  0  0  0  0
  5 26  1  0  0  0  0
  6 27  1  0  0  0  0
  7 16  1  0  0  0  0
  8 17  1  0  0  0  0
  9 25  1  0  0  0  0
 10  1  1  0  0  0  0
 11  3  1  0  0  0  0
 11 13  1  0  0  0  0
 12  8  1  1  0  0  0
 13 12  1  0  0  0  0
 13 21  1  0  0  0  0
 14 22  1  0  0  0  0
 14 21  1  0  0  0  0
 15  9  1  0  0  0  0
 16 19  2  0  0  0  0
 16  1  1  0  0  0  0
 17 10  1  1  0  0  0
 18  9  2  0  0  0  0
 18  6  1  0  0  0  0
 21  4  1  6  0  0  0
 21 20  1  0  0  0  0
 23 17  1  0  0  0  0
 23  7  1  1  0  0  0
 24  5  1  0  0  0  0
 26 14  2  0  0  0  0
 27 25  1  0  0  0  0
 27 22  2  0  0  0  0
 28 29  1  0  0  0  0
 29 30  1  0  0  0  0
 30 31  2  0  0  0  0
 32 30  1  0  0  0  0
M  END
>  <MODEL>
3

>  <REMARK>
 VINA RESULT:      -5.9      1.297      1.458
  Name = 
  3 active torsions:
  status: ('A' for Active; 'I' for Inactive)
    1  A    between atoms: C_1  and  C_10
    2  A    between atoms: C_2  and  C_24
    3  A    between atoms: C_10  and  C_24
                            x       y       z     vdW  Elec       q    Type
                         _______ _______ _______ _____ _____    ______ ____

>  <TORSDO>
F 3

$$$$
=
 OpenBabel10262421423D

 32 37  0  0  1  0  0  0  0  0999 V2000
  188.9500  177.7680  140.8870 C   0  0  2  0  0  3  0  0  0  0  0  0
  188.5090  177.8460  136.5820 C   0  0  1  0  0  3  0  0  0  0  0  0
  184.8260  177.1060  135.8720 C   0  0  0  0  0  2  0  0  0  0  0  0
  186.1100  174.4110  135.3850 C   0  0  0  0  0  1  0  0  0  0  0  0
  190.5790  176.6530  135.6620 C   0  0  0  0  0  0  0  0  0  0  0  0
  191.1560  175.2740  135.5710 C   0  0  0  0  0  0  0  0  0  0  0  0
  189.5490  176.6660  138.6150 C   0  0  0  0  0  2  0  0  0  0  0  0
  186.6590  178.0580  137.9610 O   0  0  0  0  0  0  0  0  0  0  0  0
  192.7410  173.7030  135.4100 C   0  0  0  0  0  0  0  0  0  0  0  0
  187.6170  177.9780  140.1550 C   0  0  0  0  0  2  0  0  0  0  0  0
  185.7560  177.2180  134.6660 C   0  0  0  0  0  2  0  0  0  0  0  0
  187.0420  177.9920  136.6490 N   0  0  2  0  0  0  0  0  0  0  0  0
  186.3150  176.8730  136.0330 C   0  0  0  0  0  0  0  0  0  0  0  0
  188.3100  175.3780  136.0450 C   0  0  0  0  0  0  0  0  0  0  0  0
  194.1000  173.1350  135.2130 C   0  0  0  0  0  1  0  0  0  0  0  0
  189.8850  176.9360  140.0470 C   0  0  0  0  0  0  0  0  0  0  0  0
  187.7780  178.4690  138.7050 C   0  0  1  0  0  3  0  0  0  0  0  0
  192.4750  175.0290  135.3600 N   0  0  0  0  0  0  0  0  0  0  0  0
  190.9320  176.5150  140.5120 O   0  0  0  0  0  0  0  0  0  0  0  0
  186.5630  175.0890  137.6140 O   0  0  0  0  0  1  0  0  0  0  0  0
  186.8190  175.4270  136.2830 C   0  0  2  0  0  0  0  0  0  0  0  0
  188.9580  174.2030  136.0820 C   0  0  0  0  0  3  0  0  0  0  0  0
  189.0230  177.9660  137.9960 C   0  0  2  0  0  3  0  0  0  0  0  0
  191.0250  177.4310  134.5940 O   0  0  0  0  0  1  0  0  0  0  0  0
  191.3630  172.7860  135.7390 S   0  0  0  0  0  0  0  0  0  0  0  0
  189.0310  176.6780  135.7100 C   0  0  0  0  0  0  0  0  0  0  0  0
  190.3900  174.1520  135.8130 C   0  0  0  0  0  0  0  0  0  0  0  0
  188.6880  177.0870  142.2220 C   0  0  0  0  0  2  0  0  0  0  0  0
  189.3730  177.8450  143.3470 C   0  0  0  0  0  2  0  0  0  0  0  0
  188.7660  177.4780  144.6610 C   0  0  0  0  0  0  0  0  0  0  0  0
  189.4770  177.1650  145.6020 O   0  0  0  0  0  0  0  0  0  0  0  0
  187.2870  177.5200  144.8310 C   0  0  0  0  0  1  0  0  0  0  0  0
  1 28  1  1  0  0  0
  2 26  1  1  0  0  0
  2 12  1  0  0  0  0
  2 23  1  0  0  0  0
  3 13  1  0  0  0  0
  5 26  1  0  0  0  0
  6  5  2  0  0  0  0
  6 27  1  0  0  0  0
  7 16  1  0  0  0  0
  8 17  1  0  0  0  0
  9 25  1  0  0  0  0
 10  1  1  0  0  0  0
 11  3  1  0  0  0  0
 11 13  1  0  0  0  0
 12  8  1  1  0  0  0
 13 21  1  0  0  0  0
 13 12  1  0  0  0  0
 14 22  1  0  0  0  0
 14 21  1  0  0  0  0
 15  9  1  0  0  0  0
 16 19  2  0  0  0  0
 16  1  1  0  0  0  0
 17 10  1  1  0  0  0
 18  9  2  0  0  0  0
 18  6  1  0  0  0  0
 21  4  1  6  0  0  0
 21 20  1  0  0  0  0
 23  7  1  1  0  0  0
 23 17  1  0  0  0  0
 24  5  1  0  0  0  0
 25 27  1  0  0  0  0
 26 14  2  0  0  0  0
 27 22  2  0  0  0  0
 28 29  1  0  0  0  0
 29 30  1  0  0  0  0
 30 32  1  0  0  0  0
 30 31  2  0  0  0  0
M  END
>  <MODEL>
4

>  <REMARK>
 VINA RESULT:      -5.8      2.931      4.128
  Name = 
  3 active torsions:
  status: ('A' for Active; 'I' for Inactive)
    1  A    between atoms: C_1  and  C_10
    2  A    between atoms: C_2  and  C_24
    3  A    between atoms: C_10  and  C_24
                            x       y       z     vdW  Elec       q    Type
                         _______ _______ _______ _____ _____    ______ ____

>  <TORSDO>
F 3

$$$$
=
 OpenBabel10262421423D

 32 37  0  0  1  0  0  0  0  0999 V2000
  187.2530  173.0810  135.3710 C   0  0  2  0  0  3  0  0  0  0  0  0
  189.8650  176.5200  135.6710 C   0  0  1  0  0  3  0  0  0  0  0  0
  193.4290  175.1920  135.2840 C   0  0  0  0  0  2  0  0  0  0  0  0
  193.1960  175.4910  138.2850 C   0  0  0  0  0  1  0  0  0  0  0  0
  188.8960  177.9510  137.5600 C   0  0  0  0  0  0  0  0  0  0  0  0
  188.7590  177.9340  139.0510 C   0  0  0  0  0  0  0  0  0  0  0  0
  188.1880  174.9840  136.8690 C   0  0  0  0  0  2  0  0  0  0  0  0
  190.6180  174.5460  134.7210 O   0  0  0  0  0  0  0  0  0  0  0  0
  187.8700  178.3980  141.0510 C   0  0  0  0  0  0  0  0  0  0  0  0
  188.6920  173.1280  134.8380 C   0  0  0  0  0  2  0  0  0  0  0  0
  193.2730  176.6730  135.6170 C   0  0  0  0  0  2  0  0  0  0  0  0
  191.0080  175.8130  135.0610 N   0  0  2  0  0  0  0  0  0  0  0  0
  192.1670  175.6930  135.9570 C   0  0  0  0  0  0  0  0  0  0  0  0
  190.8330  176.2250  137.9940 C   0  0  0  0  0  0  0  0  0  0  0  0
  186.9740  179.0520  142.0400 C   0  0  0  0  0  1  0  0  0  0  0  0
  187.1010  174.0080  136.5510 C   0  0  0  0  0  0  0  0  0  0  0  0
  189.2190  174.5540  134.6010 C   0  0  1  0  0  3  0  0  0  0  0  0
  187.8350  178.6660  139.7250 N   0  0  0  0  0  0  0  0  0  0  0  0
  186.0820  173.9970  137.2230 O   0  0  0  0  0  0  0  0  0  0  0  0
  191.5070  174.0060  137.5260 O   0  0  0  0  0  1  0  0  0  0  0  0
  191.9250  175.3370  137.4470 C   0  0  2  0  0  0  0  0  0  0  0  0
  190.5270  176.1870  139.3010 C   0  0  0  0  0  3  0  0  0  0  0  0
  188.6720  175.6030  135.5530 C   0  0  2  0  0  3  0  0  0  0  0  0
  188.9260  179.2670  137.0960 O   0  0  0  0  0  1  0  0  0  0  0  0
  189.0250  177.2300  141.4380 S   0  0  0  0  0  0  0  0  0  0  0  0
  190.1400  177.1900  137.0400 C   0  0  0  0  0  0  0  0  0  0  0  0
  189.5000  177.0720  139.8350 C   0  0  0  0  0  0  0  0  0  0  0  0
  186.9100  171.6540  135.7710 C   0  0  0  0  0  2  0  0  0  0  0  0
  185.8800  171.0710  134.8180 C   0  0  0  0  0  2  0  0  0  0  0  0
  184.5030  171.2740  135.3590 C   0  0  0  0  0  0  0  0  0  0  0  0
  183.9320  172.3410  135.2070 O   0  0  0  0  0  0  0  0  0  0  0  0
  183.8140  170.1580  136.0650 C   0  0  0  0  0  1  0  0  0  0  0  0
  1 28  1  1  0  0  0
  1 16  1  0  0  0  0
  2 26  1  1  0  0  0
  3 11  1  0  0  0  0
  3 13  1  0  0  0  0
  5  6  1  0  0  0  0
  6 18  1  0  0  0  0
  6 27  2  0  0  0  0
  9 25  1  0  0  0  0
  9 15  1  0  0  0  0
 10  1  1  0  0  0  0
 11 13  1  0  0  0  0
 12  8  1  1  0  0  0
 12  2  1  0  0  0  0
 12 13  1  0  0  0  0
 13 21  1  0  0  0  0
 14 22  2  0  0  0  0
 16  7  1  0  0  0  0
 16 19  2  0  0  0  0
 17  8  1  0  0  0  0
 17 10  1  1  0  0  0
 17 23  1  0  0  0  0
 18  9  2  0  0  0  0
 21 20  1  0  0  0  0
 21 14  1  0  0  0  0
 21  4  1  1  0  0  0
 22 27  1  0  0  0  0
 23  2  1  0  0  0  0
 23  7  1  1  0  0  0
 24  5  1  0  0  0  0
 26  5  2  0  0  0  0
 26 14  1  0  0  0  0
 27 25  1  0  0  0  0
 29 30  1  0  0  0  0
 29 28  1  0  0  0  0
 30 32  1  0  0  0  0
 31 30  2  0  0  0  0
M  END
>  <MODEL>
5

>  <REMARK>
 VINA RESULT:      -5.7      4.138      8.361
  Name = 
  3 active torsions:
  status: ('A' for Active; 'I' for Inactive)
    1  A    between atoms: C_1  and  C_10
    2  A    between atoms: C_2  and  C_24
    3  A    between atoms: C_10  and  C_24
                            x       y       z     vdW  Elec       q    Type
                         _______ _______ _______ _____ _____    ______ ____

>  <TORSDO>
F 3

$$$$
=
 OpenBabel10262421423D

 32 37  0  0  1  0  0  0  0  0999 V2000
  183.4900  179.0230  142.0010 C   0  0  2  0  0  3  0  0  0  0  0  0
  182.5840  178.2280  137.8440 C   0  0  1  0  0  3  0  0  0  0  0  0
  178.9440  177.0620  137.7480 C   0  0  0  0  0  2  0  0  0  0  0  0
  180.4440  174.4390  137.6060 C   0  0  0  0  0  1  0  0  0  0  0  0
  184.6570  177.0540  136.9050 C   0  0  0  0  0  0  0  0  0  0  0  0
  185.3620  175.7360  136.9970 C   0  0  0  0  0  0  0  0  0  0  0  0
  183.9540  177.5550  139.9120 C   0  0  0  0  0  2  0  0  0  0  0  0
  180.8810  178.5490  139.3820 O   0  0  0  0  0  0  0  0  0  0  0  0
  187.0770  174.3000  136.9280 C   0  0  0  0  0  0  0  0  0  0  0  0
  182.0720  178.9770  141.4150 C   0  0  0  0  0  2  0  0  0  0  0  0
  179.7220  177.0150  136.4360 C   0  0  0  0  0  2  0  0  0  0  0  0
  181.1250  178.2620  138.0660 N   0  0  2  0  0  0  0  0  0  0  0  0
  180.4580  176.9880  137.7620 C   0  0  0  0  0  0  0  0  0  0  0  0
  182.5880  175.6940  137.7970 C   0  0  0  0  0  0  0  0  0  0  0  0
  188.4590  173.8190  136.6700 C   0  0  0  0  0  1  0  0  0  0  0  0
  184.4120  178.1240  141.2170 C   0  0  0  0  0  0  0  0  0  0  0  0
  182.0240  179.1880  139.8920 C   0  0  1  0  0  3  0  0  0  0  0  0
  186.6700  175.5650  136.6710 N   0  0  0  0  0  0  0  0  0  0  0  0
  185.5420  177.8900  141.6160 O   0  0  0  0  0  0  0  0  0  0  0  0
  181.0610  175.5720  139.5990 O   0  0  0  0  0  1  0  0  0  0  0  0
  181.1350  175.6660  138.2070 C   0  0  2  0  0  0  0  0  0  0  0  0
  183.3560  174.6070  137.9660 C   0  0  0  0  0  3  0  0  0  0  0  0
  183.2310  178.6620  139.1360 C   0  0  2  0  0  3  0  0  0  0  0  0
  184.9010  177.6440  135.6650 O   0  0  0  0  0  1  0  0  0  0  0  0
  185.8460  173.3530  137.5900 S   0  0  0  0  0  0  0  0  0  0  0  0
  183.1290  176.9600  137.1410 C   0  0  0  0  0  0  0  0  0  0  0  0
  184.7480  174.6220  137.5340 C   0  0  0  0  0  0  0  0  0  0  0  0
  183.4470  178.5950  143.4600 C   0  0  0  0  0  2  0  0  0  0  0  0
  184.3520  179.4800  144.2990 C   0  0  0  0  0  2  0  0  0  0  0  0
  184.9920  178.6820  145.3860 C   0  0  0  0  0  0  0  0  0  0  0  0
  184.5210  178.6830  146.5120 O   0  0  0  0  0  0  0  0  0  0  0  0
  186.1980  177.8600  145.0880 C   0  0  0  0  0  1  0  0  0  0  0  0
  1 28  1  1  0  0  0
  2 26  1  1  0  0  0
  2 12  1  0  0  0  0
  2 23  1  0  0  0  0
  3 13  1  0  0  0  0
  5  6  2  0  0  0  0
  5 26  1  0  0  0  0
  6 27  1  0  0  0  0
  7 16  1  0  0  0  0
  8 17  1  0  0  0  0
  9 25  1  0  0  0  0
 10  1  1  0  0  0  0
 11  3  1  0  0  0  0
 11 13  1  0  0  0  0
 12  8  1  1  0  0  0
 13 12  1  0  0  0  0
 13 21  1  0  0  0  0
 14 22  1  0  0  0  0
 14 21  1  0  0  0  0
 15  9  1  0  0  0  0
 16 19  2  0  0  0  0
 16  1  1  0  0  0  0
 17 10  1  1  0  0  0
 18  9  2  0  0  0  0
 18  6  1  0  0  0  0
 21  4  1  6  0  0  0
 21 20  1  0  0  0  0
 23 17  1  0  0  0  0
 23  7  1  1  0  0  0
 24  5  1  0  0  0  0
 26 14  2  0  0  0  0
 27 25  1  0  0  0  0
 27 22  2  0  0  0  0
 28 29  1  0  0  0  0
 29 30  1  0  0  0  0
 30 31  2  0  0  0  0
 32 30  1  0  0  0  0
M  END
>  <MODEL>
6

>  <REMARK>
 VINA RESULT:      -5.7      2.007      2.472
  Name = 
  3 active torsions:
  status: ('A' for Active; 'I' for Inactive)
    1  A    between atoms: C_1  and  C_10
    2  A    between atoms: C_2  and  C_24
    3  A    between atoms: C_10  and  C_24
                            x       y       z     vdW  Elec       q    Type
                         _______ _______ _______ _____ _____    ______ ____

>  <TORSDO>
F 3

$$$$
=
 OpenBabel10262421423D

 32 37  0  0  1  0  0  0  0  0999 V2000
  185.7670  178.8730  140.6950 C   0  0  2  0  0  3  0  0  0  0  0  0
  185.6720  177.8520  136.4900 C   0  0  1  0  0  3  0  0  0  0  0  0
  182.5140  175.7620  135.9690 C   0  0  0  0  0  2  0  0  0  0  0  0
  184.6550  173.6310  136.1240 C   0  0  0  0  0  1  0  0  0  0  0  0
  188.0870  177.2690  135.8740 C   0  0  0  0  0  0  0  0  0  0  0  0
  189.0950  176.1860  136.1070 C   0  0  0  0  0  0  0  0  0  0  0  0
  186.8780  177.5740  138.7420 C   0  0  0  0  0  2  0  0  0  0  0  0
  183.7520  177.7150  137.7810 O   0  0  0  0  0  0  0  0  0  0  0  0
  191.1200  175.2570  136.3170 C   0  0  0  0  0  0  0  0  0  0  0  0
  184.5030  178.4490  139.9330 C   0  0  0  0  0  2  0  0  0  0  0  0
  183.4470  175.9180  134.7710 C   0  0  0  0  0  2  0  0  0  0  0  0
  184.2390  177.4990  136.5200 N   0  0  2  0  0  0  0  0  0  0  0  0
  183.9770  176.0920  136.1810 C   0  0  0  0  0  0  0  0  0  0  0  0
  186.3480  175.4110  136.5420 C   0  0  0  0  0  0  0  0  0  0  0  0
  192.6010  175.1600  136.2580 C   0  0  0  0  0  1  0  0  0  0  0  0
  186.9890  178.2490  140.0720 C   0  0  0  0  0  0  0  0  0  0  0  0
  184.6070  178.6350  138.4090 C   0  0  1  0  0  3  0  0  0  0  0  0
  190.4330  176.3670  135.9600 N   0  0  0  0  0  0  0  0  0  0  0  0
  188.0760  178.3250  140.6230 O   0  0  0  0  0  0  0  0  0  0  0  0
  184.6770  174.8930  138.1350 O   0  0  0  0  0  1  0  0  0  0  0  0
  184.9120  174.9990  136.7610 C   0  0  2  0  0  0  0  0  0  0  0  0
  187.3450  174.5680  136.8520 C   0  0  0  0  0  3  0  0  0  0  0  0
  186.0010  178.4470  137.8370 C   0  0  2  0  0  3  0  0  0  0  0  0
  188.3330  177.8990  134.6540 O   0  0  0  0  0  1  0  0  0  0  0  0
  190.1030  174.0200  136.8500 S   0  0  0  0  0  0  0  0  0  0  0  0
  186.6200  176.7730  135.9140 C   0  0  0  0  0  0  0  0  0  0  0  0
  188.7290  174.9510  136.6030 C   0  0  0  0  0  0  0  0  0  0  0  0
  185.6410  178.4530  142.1520 C   0  0  0  0  0  2  0  0  0  0  0  0
  184.5000  179.2010  142.8220 C   0  0  0  0  0  2  0  0  0  0  0  0
  184.5350  178.9810  144.2980 C   0  0  0  0  0  0  0  0  0  0  0  0
  183.6210  179.3770  145.0030 O   0  0  0  0  0  0  0  0  0  0  0  0
  185.6810  178.2520  144.9110 C   0  0  0  0  0  1  0  0  0  0  0  0
  1 28  1  1  0  0  0
  2 26  1  1  0  0  0
  2 12  1  0  0  0  0
  2 23  1  0  0  0  0
  3 13  1  0  0  0  0
  5 26  2  0  0  0  0
  5  6  1  0  0  0  0
  6 27  2  0  0  0  0
  7 16  1  0  0  0  0
  8 17  1  0  0  0  0
  9 25  1  0  0  0  0
 10  1  1  0  0  0  0
 11  3  1  0  0  0  0
 11 13  1  0  0  0  0
 12  8  1  1  0  0  0
 13 12  1  0  0  0  0
 13 21  1  0  0  0  0
 14 21  1  0  0  0  0
 14 22  2  0  0  0  0
 15  9  1  0  0  0  0
 16 19  2  0  0  0  0
 16  1  1  0  0  0  0
 17 10  1  1  0  0  0
 18  6  1  0  0  0  0
 18  9  2  0  0  0  0
 21  4  1  6  0  0  0
 21 20  1  0  0  0  0
 23 17  1  0  0  0  0
 23  7  1  1  0  0  0
 24  5  1  0  0  0  0
 26 14  1  0  0  0  0
 27 25  1  0  0  0  0
 27 22  1  0  0  0  0
 28 29  1  0  0  0  0
 29 30  1  0  0  0  0
 30 32  1  0  0  0  0
 30 31  2  0  0  0  0
M  END
>  <MODEL>
7

>  <REMARK>
 VINA RESULT:      -5.4      1.576      1.981
  Name = 
  3 active torsions:
  status: ('A' for Active; 'I' for Inactive)
    1  A    between atoms: C_1  and  C_10
    2  A    between atoms: C_2  and  C_24
    3  A    between atoms: C_10  and  C_24
                            x       y       z     vdW  Elec       q    Type
                         _______ _______ _______ _____ _____    ______ ____

>  <TORSDO>
F 3

$$$$
=
 OpenBabel10262421423D

 32 37  0  0  1  0  0  0  0  0999 V2000
  189.6720  177.9820  140.7240 C   0  0  2  0  0  3  0  0  0  0  0  0
  189.3690  177.2930  136.4620 C   0  0  1  0  0  3  0  0  0  0  0  0
  185.8520  175.9260  135.8480 C   0  0  0  0  0  2  0  0  0  0  0  0
  187.5170  173.4000  135.8280 C   0  0  0  0  0  1  0  0  0  0  0  0
  191.6150  176.2770  135.7720 C   0  0  0  0  0  0  0  0  0  0  0  0
  192.3830  174.9990  135.9170 C   0  0  0  0  0  0  0  0  0  0  0  0
  190.4950  176.6230  138.6720 C   0  0  0  0  0  2  0  0  0  0  0  0
  187.4630  177.4590  137.7680 O   0  0  0  0  0  0  0  0  0  0  0  0
  194.1770  173.6670  136.0340 C   0  0  0  0  0  0  0  0  0  0  0  0
  188.3480  177.8760  139.9540 C   0  0  0  0  0  2  0  0  0  0  0  0
  186.7970  175.9720  134.6500 C   0  0  0  0  0  2  0  0  0  0  0  0
  187.8940  177.2360  136.4890 N   0  0  2  0  0  0  0  0  0  0  0  0
  187.3520  175.9380  136.0610 C   0  0  0  0  0  0  0  0  0  0  0  0
  189.5360  174.7680  136.3400 C   0  0  0  0  0  0  0  0  0  0  0  0
  195.6080  173.2770  135.9480 C   0  0  0  0  0  1  0  0  0  0  0  0
  190.7420  177.1680  140.0430 C   0  0  0  0  0  0  0  0  0  0  0  0
  188.4870  178.1420  138.4450 C   0  0  1  0  0  3  0  0  0  0  0  0
  193.7300  174.9160  135.7630 N   0  0  0  0  0  0  0  0  0  0  0  0
  191.8220  176.9840  140.5820 O   0  0  0  0  0  0  0  0  0  0  0  0
  187.7960  174.4900  137.9180 O   0  0  0  0  0  1  0  0  0  0  0  0
  188.0460  174.6410  136.5520 C   0  0  2  0  0  0  0  0  0  0  0  0
  190.3410  173.7210  136.5770 C   0  0  0  0  0  3  0  0  0  0  0  0
  189.8130  177.7150  137.8410 C   0  0  2  0  0  3  0  0  0  0  0  0
  191.9830  176.9270  134.5940 O   0  0  0  0  0  1  0  0  0  0  0  0
  192.9310  172.6280  136.4980 S   0  0  0  0  0  0  0  0  0  0  0  0
  190.0780  176.0860  135.8000 C   0  0  0  0  0  0  0  0  0  0  0  0
  191.7740  173.8330  136.3340 C   0  0  0  0  0  0  0  0  0  0  0  0
  189.4640  177.4970  142.1510 C   0  0  0  0  0  2  0  0  0  0  0  0
  187.9980  177.5950  142.5360 C   0  0  0  0  0  2  0  0  0  0  0  0
  187.8170  177.2420  143.9750 C   0  0  0  0  0  0  0  0  0  0  0  0
  186.8600  176.5730  144.3300 O   0  0  0  0  0  0  0  0  0  0  0  0
  188.8230  177.6870  144.9780 C   0  0  0  0  0  1  0  0  0  0  0  0
  1 28  1  1  0  0  0
  2 26  1  1  0  0  0
  2 12  1  0  0  0  0
  2 23  1  0  0  0  0
  3 13  1  0  0  0  0
  5 26  2  0  0  0  0
  5  6  1  0  0  0  0
  6 27  2  0  0  0  0
  7 16  1  0  0  0  0
  8 17  1  0  0  0  0
  9 25  1  0  0  0  0
 10  1  1  0  0  0  0
 11  3  1  0  0  0  0
 11 13  1  0  0  0  0
 12  8  1  1  0  0  0
 13 12  1  0  0  0  0
 13 21  1  0  0  0  0
 14 21  1  0  0  0  0
 14 22  2  0  0  0  0
 15  9  1  0  0  0  0
 16 19  2  0  0  0  0
 16  1  1  0  0  0  0
 17 10  1  1  0  0  0
 18  6  1  0  0  0  0
 18  9  2  0  0  0  0
 21  4  1  6  0  0  0
 21 20  1  0  0  0  0
 23 17  1  0  0  0  0
 23  7  1  1  0  0  0
 24  5  1  0  0  0  0
 26 14  1  0  0  0  0
 27 25  1  0  0  0  0
 27 22  1  0  0  0  0
 28 29  1  0  0  0  0
 29 30  1  0  0  0  0
 30 31  2  0  0  0  0
 30 32  1  0  0  0  0
M  END
>  <MODEL>
8

>  <REMARK>
 VINA RESULT:      -5.3      3.385      4.940
  Name = 
  3 active torsions:
  status: ('A' for Active; 'I' for Inactive)
    1  A    between atoms: C_1  and  C_10
    2  A    between atoms: C_2  and  C_24
    3  A    between atoms: C_10  and  C_24
                            x       y       z     vdW  Elec       q    Type
                         _______ _______ _______ _____ _____    ______ ____

>  <TORSDO>
F 3

$$$$
=
 OpenBabel10262421423D

 32 37  0  0  1  0  0  0  0  0999 V2000
  183.6950  178.9170  140.1270 C   0  0  2  0  0  3  0  0  0  0  0  0
  184.4080  177.3380  136.1610 C   0  0  1  0  0  3  0  0  0  0  0  0
  181.9620  174.4350  135.7110 C   0  0  0  0  0  2  0  0  0  0  0  0
  184.5250  172.9890  136.4140 C   0  0  0  0  0  1  0  0  0  0  0  0
  186.9520  177.3360  135.8740 C   0  0  0  0  0  0  0  0  0  0  0  0
  188.1580  176.6020  136.3750 C   0  0  0  0  0  0  0  0  0  0  0  0
  185.3390  177.7020  138.5280 C   0  0  0  0  0  2  0  0  0  0  0  0
  182.4300  176.8770  137.2760 O   0  0  0  0  0  0  0  0  0  0  0  0
  190.3040  176.2800  136.9220 C   0  0  0  0  0  0  0  0  0  0  0  0
  182.6870  178.0730  139.3350 C   0  0  0  0  0  2  0  0  0  0  0  0
  182.9770  174.6660  134.5940 C   0  0  0  0  0  2  0  0  0  0  0  0
  183.1160  176.6250  136.1190 N   0  0  2  0  0  0  0  0  0  0  0  0
  183.2580  175.1670  135.9970 C   0  0  0  0  0  0  0  0  0  0  0  0
  185.6550  175.1940  136.6820 C   0  0  0  0  0  0  0  0  0  0  0  0
  191.7570  176.5720  137.0150 C   0  0  0  0  0  1  0  0  0  0  0  0
  185.1040  178.5590  139.7320 C   0  0  0  0  0  0  0  0  0  0  0  0
  182.9410  178.0680  137.8170 C   0  0  1  0  0  3  0  0  0  0  0  0
  189.4160  177.1090  136.3230 N   0  0  0  0  0  0  0  0  0  0  0  0
  186.0570  178.9950  140.3590 O   0  0  0  0  0  0  0  0  0  0  0  0
  183.9700  174.4770  138.1790 O   0  0  0  0  0  1  0  0  0  0  0  0
  184.3490  174.4510  136.8350 C   0  0  2  0  0  0  0  0  0  0  0  0
  186.7800  174.6960  137.2170 C   0  0  0  0  0  3  0  0  0  0  0  0
  184.4010  178.1790  137.4140 C   0  0  2  0  0  3  0  0  0  0  0  0
  187.1930  177.8350  134.5940 O   0  0  0  0  0  1  0  0  0  0  0  0
  189.5640  174.9040  137.5590 S   0  0  0  0  0  0  0  0  0  0  0  0
  185.6620  176.4800  135.8620 C   0  0  0  0  0  0  0  0  0  0  0  0
  188.0460  175.3940  137.0350 C   0  0  0  0  0  0  0  0  0  0  0  0
  183.4860  178.6830  141.6160 C   0  0  0  0  0  2  0  0  0  0  0  0
  182.0030  178.6140  141.9390 C   0  0  0  0  0  2  0  0  0  0  0  0
  181.7770  178.8860  143.3900 C   0  0  0  0  0  0  0  0  0  0  0  0
  182.6720  179.3510  144.0770 O   0  0  0  0  0  0  0  0  0  0  0  0
  180.4440  178.6120  143.9950 C   0  0  0  0  0  1  0  0  0  0  0  0
  1 28  1  1  0  0  0
  2 26  1  1  0  0  0
  2 23  1  0  0  0  0
  3 13  1  0  0  0  0
  5  6  1  0  0  0  0
  6 27  2  0  0  0  0
  7 16  1  0  0  0  0
  8 17  1  0  0  0  0
  9 15  1  0  0  0  0
  9 25  1  0  0  0  0
 10  1  1  0  0  0  0
 11  3  1  0  0  0  0
 11 13  1  0  0  0  0
 12  2  1  0  0  0  0
 12  8  1  1  0  0  0
 13 12  1  0  0  0  0
 13 21  1  0  0  0  0
 14 21  1  0  0  0  0
 14 22  2  0  0  0  0
 16  1  1  0  0  0  0
 16 19  2  0  0  0  0
 17 10  1  1  0  0  0
 18  6  1  0  0  0  0
 18  9  2  0  0  0  0
 21  4  1  6  0  0  0
 21 20  1  0  0  0  0
 23 17  1  0  0  0  0
 23  7  1  1  0  0  0
 24  5  1  0  0  0  0
 26  5  2  0  0  0  0
 26 14  1  0  0  0  0
 27 22  1  0  0  0  0
 27 25  1  0  0  0  0
 28 29  1  0  0  0  0
 29 30  1  0  0  0  0
 30 32  1  0  0  0  0
 30 31  2  0  0  0  0
M  END
>  <MODEL>
9

>  <REMARK>
 VINA RESULT:      -5.2      2.059      2.541
  Name = 
  3 active torsions:
  status: ('A' for Active; 'I' for Inactive)
    1  A    between atoms: C_1  and  C_10
    2  A    between atoms: C_2  and  C_24
    3  A    between atoms: C_10  and  C_24
                            x       y       z     vdW  Elec       q    Type
                         _______ _______ _______ _____ _____    ______ ____

>  <TORSDO>
F 3

$$$$
