=
 OpenBabel10262421083D

 32 38  0  0  1  0  0  0  0  0999 V2000
  187.3770  177.8900  144.6740 C   0  0  1  0  0  3  0  0  0  0  0  0
  189.7160  177.4940  143.9380 C   0  0  1  0  0  3  0  0  0  0  0  0
  186.3360  177.4190  145.6890 C   0  0  0  0  0  2  0  0  0  0  0  0
  188.7080  177.2260  145.0210 C   0  0  1  0  0  3  0  0  0  0  0  0
  191.0200  176.7850  144.2720 C   0  0  1  0  0  3  0  0  0  0  0  0
  190.7080  177.1900  139.1670 C   0  0  0  0  0  3  0  0  0  0  0  0
  189.1850  176.8630  142.6530 C   0  0  1  0  0  3  0  0  0  0  0  0
  192.4930  177.1950  140.8060 C   0  0  0  0  0  3  0  0  0  0  0  0
  191.5530  177.0750  141.8330 C   0  0  0  0  0  0  0  0  0  0  0  0
  191.0830  176.1110  146.6260 C   0  0  2  0  0  3  0  0  0  0  0  0
  189.1680  177.8050  146.3540 C   0  0  2  0  0  3  0  0  0  0  0  0
  191.9860  177.0250  143.2030 N   0  0  0  0  0  2  0  0  0  0  0  0
  190.6340  177.5480  146.7650 C   0  0  2  0  0  3  0  0  0  0  0  0
  188.1800  177.3870  147.4440 C   0  0  0  0  0  2  0  0  0  0  0  0
  187.8410  177.3510  142.3270 N   0  0  0  0  0  0  0  0  0  0  0  0
  192.1520  175.8240  147.6580 C   0  0  0  0  0  1  0  0  0  0  0  0
  186.9600  177.7100  143.2210 C   0  0  0  0  0  0  0  0  0  0  0  0
  190.1740  177.0420  141.5280 C   0  0  0  0  0  0  0  0  0  0  0  0
  191.6070  177.1480  145.6390 C   0  0  2  0  0  3  0  0  0  0  0  0
  186.7620  177.8650  147.0950 C   0  0  0  0  0  2  0  0  0  0  0  0
  192.0700  177.2530  139.4750 C   0  0  0  0  0  3  0  0  0  0  0  0
  189.7620  177.0790  140.1890 C   0  0  0  0  0  3  0  0  0  0  0  0
  184.1410  179.1390  141.0710 C   0  0  0  0  0  0  0  0  0  0  0  0
  183.8960  179.5810  139.7760 O   0  0  0  0  0  1  0  0  0  0  0  0
  185.6390  178.2100  142.7620 C   0  0  0  0  0  0  0  0  0  0  0  0
  183.1070  179.1730  142.0080 C   0  0  0  0  0  3  0  0  0  0  0  0
  184.5790  178.2520  143.6830 C   0  0  0  0  0  3  0  0  0  0  0  0
  185.4110  178.6580  141.4370 C   0  0  0  0  0  0  0  0  0  0  0  0
  186.4810  178.5920  140.3940 C   0  0  0  0  0  1  0  0  0  0  0  0
  183.3200  178.7280  143.3150 C   0  0  0  0  0  0  0  0  0  0  0  0
  181.0060  178.6360  143.9770 N   0  0  0  0  0  2  0  0  0  0  0  0
  182.2480  178.7510  144.3160 C   0  0  0  0  0  3  0  0  0  0  0  0
  1  4  1  0  0  0  0
  1  3  1  1  0  0  0
  2  5  1  0  0  0  0
  2  4  1  0  0  0  0
  3 20  1  0  0  0  0
  4 11  1  0  0  0  0
  5 19  1  0  0  0  0
  6 21  2  0  0  0  0
  6 22  1  0  0  0  0
  7  2  1  0  0  0  0
  8  9  2  0  0  0  0
  9 12  1  0  0  0  0
 10 13  1  0  0  0  0
 10 16  1  0  0  0  0
 11 13  1  0  0  0  0
 11 14  1  0  0  0  0
 12  5  1  0  0  0  0
 15  7  1  0  0  0  0
 15 17  2  0  0  0  0
 17  1  1  0  0  0  0
 18  9  1  0  0  0  0
 18  7  1  0  0  0  0
 19 10  1  0  0  0  0
 19 13  1  0  0  0  0
 20 14  1  0  0  0  0
 21  8  1  0  0  0  0
 22 18  2  0  0  0  0
 23 28  2  0  0  0  0
 23 26  1  0  0  0  0
 24 23  1  0  0  0  0
 25 17  1  0  0  0  0
 25 27  2  0  0  0  0
 26 30  2  0  0  0  0
 28 25  1  0  0  0  0
 29 28  1  0  0  0  0
 30 27  1  0  0  0  0
 30 32  1  0  0  0  0
 31 32  2  0  0  0  0
M  END
>  <MODEL>
1

>  <REMARK>
 VINA RESULT:     -11.5      0.000      0.000
  Name = 
  2 active torsions:
  status: ('A' for Active; 'I' for Inactive)
    1  A    between atoms: C_15  and  C_26
    2  A    between atoms: C_16  and  C_27
                            x       y       z     vdW  Elec       q    Type
                         _______ _______ _______ _____ _____    ______ ____

>  <TORSDO>
F 2

$$$$
=
 OpenBabel10262421083D

 32 38  0  0  1  0  0  0  0  0999 V2000
  189.4670  177.2000  142.5870 C   0  0  1  0  0  3  0  0  0  0  0  0
  187.4680  177.6460  143.9940 C   0  0  1  0  0  3  0  0  0  0  0  0
  190.9690  177.4630  142.5090 C   0  0  0  0  0  2  0  0  0  0  0  0
  188.9700  177.6950  143.9440 C   0  0  1  0  0  3  0  0  0  0  0  0
  186.9880  178.1900  145.3310 C   0  0  1  0  0  3  0  0  0  0  0  0
  183.3010  179.0400  141.8640 C   0  0  0  0  0  3  0  0  0  0  0  0
  186.9450  178.5930  142.9160 C   0  0  1  0  0  3  0  0  0  0  0  0
  183.3790  178.5540  144.2370 C   0  0  0  0  0  3  0  0  0  0  0  0
  184.7720  178.4690  144.1770 C   0  0  0  0  0  0  0  0  0  0  0  0
  188.8140  178.2750  146.9600 C   0  0  2  0  0  3  0  0  0  0  0  0
  189.5830  176.7920  145.0070 C   0  0  2  0  0  3  0  0  0  0  0  0
  185.5270  178.1680  145.3620 N   0  0  0  0  0  2  0  0  0  0  0  0
  188.9870  176.8700  146.4280 C   0  0  2  0  0  3  0  0  0  0  0  0
  191.1020  176.9820  145.0050 C   0  0  0  0  0  2  0  0  0  0  0  0
  187.4910  178.2640  141.5960 N   0  0  0  0  0  0  0  0  0  0  0  0
  188.9430  178.2530  148.4680 C   0  0  0  0  0  1  0  0  0  0  0  0
  188.6740  177.7430  141.4060 C   0  0  0  0  0  0  0  0  0  0  0  0
  185.4370  178.6420  142.9420 C   0  0  0  0  0  0  0  0  0  0  0  0
  187.5780  177.4810  146.5520 C   0  0  2  0  0  3  0  0  0  0  0  0
  191.6810  176.6720  143.6160 C   0  0  0  0  0  2  0  0  0  0  0  0
  182.6450  178.8380  143.0820 C   0  0  0  0  0  3  0  0  0  0  0  0
  184.6940  178.9480  141.7940 C   0  0  0  0  0  3  0  0  0  0  0  0
  188.7260  177.3080  137.6090 C   0  0  0  0  0  0  0  0  0  0  0  0
  187.9210  177.5060  136.4940 O   0  0  0  0  0  1  0  0  0  0  0  0
  189.1050  177.4340  140.0190 C   0  0  0  0  0  0  0  0  0  0  0  0
  190.0070  176.7770  137.4380 C   0  0  0  0  0  3  0  0  0  0  0  0
  190.3880  176.9010  139.8170 C   0  0  0  0  0  3  0  0  0  0  0  0
  188.2660  177.6420  138.8950 C   0  0  0  0  0  0  0  0  0  0  0  0
  186.9080  178.2530  139.0350 C   0  0  0  0  0  1  0  0  0  0  0  0
  190.8430  176.5740  138.5390 C   0  0  0  0  0  0  0  0  0  0  0  0
  193.2450  176.7530  138.5440 N   0  0  0  0  0  2  0  0  0  0  0  0
  192.1920  176.0210  138.3820 C   0  0  0  0  0  3  0  0  0  0  0  0
  1  3  1  6  0  0  0
  1  4  1  0  0  0  0
  2  5  1  0  0  0  0
  3 20  1  0  0  0  0
  4  2  1  0  0  0  0
  4 11  1  0  0  0  0
  5 12  1  0  0  0  0
  5 19  1  0  0  0  0
  6 21  1  0  0  0  0
  7 18  1  0  0  0  0
  7  2  1  0  0  0  0
  9  8  1  0  0  0  0
  9 12  1  0  0  0  0
 10 16  1  0  0  0  0
 11 13  1  0  0  0  0
 13 19  1  0  0  0  0
 13 10  1  0  0  0  0
 14 11  1  0  0  0  0
 15  7  1  0  0  0  0
 17 15  2  0  0  0  0
 17  1  1  0  0  0  0
 18  9  2  0  0  0  0
 19 10  1  0  0  0  0
 20 14  1  0  0  0  0
 21  8  2  0  0  0  0
 22  6  2  0  0  0  0
 22 18  1  0  0  0  0
 23 28  1  0  0  0  0
 24 23  1  0  0  0  0
 25 17  1  0  0  0  0
 26 23  2  0  0  0  0
 26 30  1  0  0  0  0
 27 25  1  0  0  0  0
 28 29  1  0  0  0  0
 28 25  2  0  0  0  0
 30 27  2  0  0  0  0
 32 30  1  0  0  0  0
 32 31  2  0  0  0  0
M  END
>  <MODEL>
2

>  <REMARK>
 VINA RESULT:     -11.2      1.948      6.251
  Name = 
  2 active torsions:
  status: ('A' for Active; 'I' for Inactive)
    1  A    between atoms: C_15  and  C_26
    2  A    between atoms: C_16  and  C_27
                            x       y       z     vdW  Elec       q    Type
                         _______ _______ _______ _____ _____    ______ ____

>  <TORSDO>
F 2

$$$$
=
 OpenBabel10262421083D

 32 38  0  0  1  0  0  0  0  0999 V2000
  189.3620  177.2010  142.1870 C   0  0  1  0  0  3  0  0  0  0  0  0
  187.0930  177.6570  143.0880 C   0  0  1  0  0  3  0  0  0  0  0  0
  190.8420  177.4650  142.4580 C   0  0  0  0  0  2  0  0  0  0  0  0
  188.5650  177.7080  143.3880 C   0  0  1  0  0  3  0  0  0  0  0  0
  186.3150  178.2120  144.2720 C   0  0  1  0  0  3  0  0  0  0  0  0
  183.5340  179.0240  140.0370 C   0  0  0  0  0  3  0  0  0  0  0  0
  186.8340  178.5930  141.9100 C   0  0  1  0  0  3  0  0  0  0  0  0
  183.0590  178.5610  142.3680 C   0  0  0  0  0  3  0  0  0  0  0  0
  184.4280  178.4770  142.6330 C   0  0  0  0  0  0  0  0  0  0  0  0
  187.7140  178.3150  146.2800 C   0  0  2  0  0  3  0  0  0  0  0  0
  188.9150  176.8150  144.5720 C   0  0  2  0  0  3  0  0  0  0  0  0
  184.8870  178.1880  143.9640 N   0  0  0  0  0  2  0  0  0  0  0  0
  188.0040  176.9060  145.8160 C   0  0  2  0  0  3  0  0  0  0  0  0
  190.3920  177.0080  144.9210 C   0  0  0  0  0  2  0  0  0  0  0  0
  187.6710  178.2530  140.7550 N   0  0  0  0  0  0  0  0  0  0  0  0
  187.4890  178.3070  147.7770 C   0  0  0  0  0  1  0  0  0  0  0  0
  188.8650  177.7320  140.8500 C   0  0  0  0  0  0  0  0  0  0  0  0
  185.3610  178.6390  141.5840 C   0  0  0  0  0  0  0  0  0  0  0  0
  186.6060  177.5160  145.6040 C   0  0  2  0  0  3  0  0  0  0  0  0
  191.2770  176.6850  143.7070 C   0  0  0  0  0  2  0  0  0  0  0  0
  182.6130  178.8330  141.0710 C   0  0  0  0  0  3  0  0  0  0  0  0
  184.9050  178.9340  140.2930 C   0  0  0  0  0  3  0  0  0  0  0  0
  189.7270  177.0020  137.1980 C   0  0  0  0  0  0  0  0  0  0  0  0
  189.1250  176.9210  135.9480 O   0  0  0  0  0  1  0  0  0  0  0  0
  189.6060  177.4100  139.6040 C   0  0  0  0  0  0  0  0  0  0  0  0
  191.0970  176.7550  137.3110 C   0  0  0  0  0  3  0  0  0  0  0  0
  190.9850  177.1600  139.6870 C   0  0  0  0  0  3  0  0  0  0  0  0
  188.9720  177.3310  138.3380 C   0  0  0  0  0  0  0  0  0  0  0  0
  187.5170  177.6360  138.1720 C   0  0  0  0  0  1  0  0  0  0  0  0
  191.7310  176.8350  138.5530 C   0  0  0  0  0  0  0  0  0  0  0  0
  193.8520  177.0940  139.6670 N   0  0  0  0  0  2  0  0  0  0  0  0
  193.1690  176.5830  138.6950 C   0  0  0  0  0  3  0  0  0  0  0  0
  1  3  1  1  0  0  0
  1  4  1  0  0  0  0
  2  4  1  0  0  0  0
  2  5  1  0  0  0  0
  3 20  1  0  0  0  0
  4 11  1  0  0  0  0
  5 19  1  0  0  0  0
  6 22  2  0  0  0  0
  6 21  1  0  0  0  0
  7  2  1  0  0  0  0
  8  9  1  0  0  0  0
  9 12  1  0  0  0  0
 10 16  1  0  0  0  0
 11 14  1  0  0  0  0
 11 13  1  0  0  0  0
 12  5  1  0  0  0  0
 13 10  1  0  0  0  0
 15 17  2  0  0  0  0
 15  7  1  0  0  0  0
 17  1  1  0  0  0  0
 18  7  1  0  0  0  0
 18  9  2  0  0  0  0
 19 13  1  0  0  0  0
 19 10  1  0  0  0  0
 20 14  1  0  0  0  0
 21  8  2  0  0  0  0
 22 18  1  0  0  0  0
 23 26  2  0  0  0  0
 23 28  1  0  0  0  0
 24 23  1  0  0  0  0
 25 27  1  0  0  0  0
 25 17  1  0  0  0  0
 26 30  1  0  0  0  0
 28 25  2  0  0  0  0
 29 28  1  0  0  0  0
 30 32  1  0  0  0  0
 30 27  2  0  0  0  0
 32 31  2  0  0  0  0
M  END
>  <MODEL>
3

>  <REMARK>
 VINA RESULT:     -11.1      2.053      6.547
  Name = 
  2 active torsions:
  status: ('A' for Active; 'I' for Inactive)
    1  A    between atoms: C_15  and  C_26
    2  A    between atoms: C_16  and  C_27
                            x       y       z     vdW  Elec       q    Type
                         _______ _______ _______ _____ _____    ______ ____

>  <TORSDO>
F 2

$$$$
=
 OpenBabel10262421083D

 32 38  0  0  1  0  0  0  0  0999 V2000
  187.6390  178.2090  141.3000 C   0  0  1  0  0  3  0  0  0  0  0  0
  187.3710  178.2730  143.7690 C   0  0  1  0  0  3  0  0  0  0  0  0
  186.8920  177.8570  140.0150 C   0  0  0  0  0  2  0  0  0  0  0  0
  186.6470  178.1350  142.4590 C   0  0  1  0  0  3  0  0  0  0  0  0
  186.3770  178.1470  144.9140 C   0  0  1  0  0  3  0  0  0  0  0  0
  190.9510  176.5610  146.6150 C   0  0  0  0  0  3  0  0  0  0  0  0
  188.3330  177.0930  143.8850 C   0  0  1  0  0  3  0  0  0  0  0  0
  189.0290  177.6800  147.5780 C   0  0  0  0  0  3  0  0  0  0  0  0
  188.3970  177.6730  146.3320 C   0  0  0  0  0  0  0  0  0  0  0  0
  184.0750  178.4220  144.1220 C   0  0  2  0  0  3  0  0  0  0  0  0
  185.6420  179.2650  142.2660 C   0  0  2  0  0  3  0  0  0  0  0  0
  187.0900  178.2520  146.1840 N   0  0  0  0  0  2  0  0  0  0  0  0
  184.7350  179.6140  143.4660 C   0  0  2  0  0  3  0  0  0  0  0  0
  184.8390  179.0030  140.9910 C   0  0  0  0  0  2  0  0  0  0  0  0
  189.2340  177.0150  142.7320 N   0  0  0  0  0  0  0  0  0  0  0  0
  182.7530  178.8540  144.7180 C   0  0  0  0  0  1  0  0  0  0  0  0
  188.9100  177.4010  141.5270 C   0  0  0  0  0  0  0  0  0  0  0  0
  189.0600  177.1320  145.2070 C   0  0  0  0  0  0  0  0  0  0  0  0
  185.2090  179.1350  144.8510 C   0  0  2  0  0  3  0  0  0  0  0  0
  185.7770  178.8870  139.7790 C   0  0  0  0  0  2  0  0  0  0  0  0
  190.3040  177.1250  147.7180 C   0  0  0  0  0  3  0  0  0  0  0  0
  190.3280  176.5580  145.3630 C   0  0  0  0  0  3  0  0  0  0  0  0
  192.2200  177.2800  139.6200 C   0  0  0  0  0  0  0  0  0  0  0  0
  193.5910  177.3520  139.8410 O   0  0  0  0  0  1  0  0  0  0  0  0
  189.9210  177.2920  140.4450 C   0  0  0  0  0  0  0  0  0  0  0  0
  191.7500  177.1110  138.3160 C   0  0  0  0  0  3  0  0  0  0  0  0
  189.4760  177.1190  139.1240 C   0  0  0  0  0  3  0  0  0  0  0  0
  191.3150  177.3700  140.6920 C   0  0  0  0  0  0  0  0  0  0  0  0
  191.8570  177.5020  142.0800 C   0  0  0  0  0  1  0  0  0  0  0  0
  190.3780  177.0280  138.0630 C   0  0  0  0  0  0  0  0  0  0  0  0
  189.1030  177.7340  136.1450 N   0  0  0  0  0  2  0  0  0  0  0  0
  189.8610  176.8480  136.7020 C   0  0  0  0  0  3  0  0  0  0  0  0
  1  3  1  6  0  0  0
  1 17  1  0  0  0  0
  1  4  1  0  0  0  0
  2  7  1  0  0  0  0
  2  5  1  0  0  0  0
  4  2  1  0  0  0  0
  5 12  1  0  0  0  0
  6 21  1  0  0  0  0
  7 18  1  0  0  0  0
  8 21  2  0  0  0  0
  9  8  1  0  0  0  0
 10 16  1  0  0  0  0
 10 19  1  0  0  0  0
 11  4  1  0  0  0  0
 11 13  1  0  0  0  0
 12  9  1  0  0  0  0
 13 10  1  0  0  0  0
 13 19  1  0  0  0  0
 14 11  1  0  0  0  0
 15  7  1  0  0  0  0
 17 15  2  0  0  0  0
 18 22  1  0  0  0  0
 18  9  2  0  0  0  0
 19  5  1  0  0  0  0
 20  3  1  0  0  0  0
 20 14  1  0  0  0  0
 22  6  2  0  0  0  0
 23 24  1  0  0  0  0
 23 28  1  0  0  0  0
 25 28  2  0  0  0  0
 25 17  1  0  0  0  0
 26 23  2  0  0  0  0
 27 25  1  0  0  0  0
 28 29  1  0  0  0  0
 30 26  1  0  0  0  0
 30 27  2  0  0  0  0
 31 32  2  0  0  0  0
 32 30  1  0  0  0  0
M  END
>  <MODEL>
4

>  <REMARK>
 VINA RESULT:     -10.6      2.449      6.902
  Name = 
  2 active torsions:
  status: ('A' for Active; 'I' for Inactive)
    1  A    between atoms: C_15  and  C_26
    2  A    between atoms: C_16  and  C_27
                            x       y       z     vdW  Elec       q    Type
                         _______ _______ _______ _____ _____    ______ ____

>  <TORSDO>
F 2

$$$$
=
 OpenBabel10262421083D

 32 38  0  0  1  0  0  0  0  0999 V2000
  185.9400  178.1810  142.9340 C   0  0  1  0  0  3  0  0  0  0  0  0
  185.9490  178.0980  140.4510 C   0  0  1  0  0  3  0  0  0  0  0  0
  185.3520  178.9560  144.1120 C   0  0  0  0  0  2  0  0  0  0  0  0
  185.2670  178.6810  141.6570 C   0  0  1  0  0  3  0  0  0  0  0  0
  185.3010  178.6440  139.1880 C   0  0  1  0  0  3  0  0  0  0  0  0
  190.1810  177.5030  138.0880 C   0  0  0  0  0  3  0  0  0  0  0  0
  187.3930  178.5950  140.4590 C   0  0  1  0  0  3  0  0  0  0  0  0
  188.0760  177.4820  136.8870 C   0  0  0  0  0  3  0  0  0  0  0  0
  187.4100  177.9010  138.0410 C   0  0  0  0  0  0  0  0  0  0  0  0
  183.1260  179.6590  139.6770 C   0  0  2  0  0  3  0  0  0  0  0  0
  183.8050  178.2530  141.7190 C   0  0  2  0  0  3  0  0  0  0  0  0
  185.9870  178.0980  138.0190 N   0  0  0  0  0  2  0  0  0  0  0  0
  182.9870  178.3460  140.4130 C   0  0  2  0  0  3  0  0  0  0  0  0
  183.1250  178.9800  142.8810 C   0  0  0  0  0  2  0  0  0  0  0  0
  188.0690  178.2710  141.7180 N   0  0  0  0  0  0  0  0  0  0  0  0
  181.8480  179.9380  138.9160 C   0  0  0  0  0  1  0  0  0  0  0  0
  187.4610  178.1930  142.8720 C   0  0  0  0  0  0  0  0  0  0  0  0
  188.1310  178.0950  139.2410 C   0  0  0  0  0  0  0  0  0  0  0  0
  183.7900  178.4140  139.1000 C   0  0  2  0  0  3  0  0  0  0  0  0
  183.8460  178.6740  144.2030 C   0  0  0  0  0  2  0  0  0  0  0  0
  189.4600  177.2830  136.9110 C   0  0  0  0  0  3  0  0  0  0  0  0
  189.5200  177.9140  139.2490 C   0  0  0  0  0  3  0  0  0  0  0  0
  190.3110  177.1170  145.1810 C   0  0  0  0  0  0  0  0  0  0  0  0
  191.6520  176.7550  145.1350 O   0  0  0  0  0  1  0  0  0  0  0  0
  188.2540  177.8340  144.0750 C   0  0  0  0  0  0  0  0  0  0  0  0
  189.6530  177.1360  146.4120 C   0  0  0  0  0  3  0  0  0  0  0  0
  187.6190  177.8470  145.3280 C   0  0  0  0  0  3  0  0  0  0  0  0
  189.6210  177.4660  144.0060 C   0  0  0  0  0  0  0  0  0  0  0  0
  190.3710  177.4810  142.7110 C   0  0  0  0  0  1  0  0  0  0  0  0
  188.3070  177.5030  146.4910 C   0  0  0  0  0  0  0  0  0  0  0  0
  188.1930  177.8780  148.8680 N   0  0  0  0  0  2  0  0  0  0  0  0
  187.5970  177.5320  147.7740 C   0  0  0  0  0  3  0  0  0  0  0  0
  1  3  1  1  0  0  0
  2  7  1  0  0  0  0
  2  4  1  0  0  0  0
  3 20  1  0  0  0  0
  4 11  1  0  0  0  0
  4  1  1  0  0  0  0
  5  2  1  0  0  0  0
  6 22  1  0  0  0  0
  7 15  1  0  0  0  0
  8 21  1  0  0  0  0
  8  9  2  0  0  0  0
  9 18  1  0  0  0  0
 10 13  1  0  0  0  0
 11 14  1  0  0  0  0
 12  9  1  0  0  0  0
 12  5  1  0  0  0  0
 13 11  1  0  0  0  0
 14 20  1  0  0  0  0
 15 17  2  0  0  0  0
 16 10  1  0  0  0  0
 17  1  1  0  0  0  0
 17 25  1  0  0  0  0
 18 22  2  0  0  0  0
 18  7  1  0  0  0  0
 19  5  1  0  0  0  0
 19 10  1  0  0  0  0
 19 13  1  0  0  0  0
 21  6  2  0  0  0  0
 23 26  1  0  0  0  0
 24 23  1  0  0  0  0
 25 27  2  0  0  0  0
 26 30  2  0  0  0  0
 27 30  1  0  0  0  0
 28 25  1  0  0  0  0
 28 23  2  0  0  0  0
 29 28  1  0  0  0  0
 30 32  1  0  0  0  0
 32 31  2  0  0  0  0
M  END
>  <MODEL>
5

>  <REMARK>
 VINA RESULT:     -10.5      2.701      6.583
  Name = 
  2 active torsions:
  status: ('A' for Active; 'I' for Inactive)
    1  A    between atoms: C_15  and  C_26
    2  A    between atoms: C_16  and  C_27
                            x       y       z     vdW  Elec       q    Type
                         _______ _______ _______ _____ _____    ______ ____

>  <TORSDO>
F 2

$$$$
=
 OpenBabel10262421083D

 32 38  0  0  1  0  0  0  0  0999 V2000
  186.2560  178.4680  141.6540 C   0  0  1  0  0  3  0  0  0  0  0  0
  185.6370  178.6060  144.0560 C   0  0  1  0  0  3  0  0  0  0  0  0
  185.7460  177.9630  140.3050 C   0  0  0  0  0  2  0  0  0  0  0  0
  185.1280  178.3150  142.6720 C   0  0  1  0  0  3  0  0  0  0  0  0
  184.5160  178.4000  145.0630 C   0  0  1  0  0  3  0  0  0  0  0  0
  188.9690  177.5130  147.4550 C   0  0  0  0  0  3  0  0  0  0  0  0
  186.7140  177.5700  144.3730 C   0  0  1  0  0  3  0  0  0  0  0  0
  186.8060  178.4090  148.0810 C   0  0  0  0  0  3  0  0  0  0  0  0
  186.3610  178.2630  146.7650 C   0  0  0  0  0  0  0  0  0  0  0  0
  182.3330  178.3320  143.9560 C   0  0  2  0  0  3  0  0  0  0  0  0
  184.0270  179.2910  142.2770 C   0  0  2  0  0  3  0  0  0  0  0  0
  185.0250  178.6560  146.4090 N   0  0  0  0  0  2  0  0  0  0  0  0
  182.9240  179.5710  143.3210 C   0  0  2  0  0  3  0  0  0  0  0  0
  183.4500  178.8690  140.9240 C   0  0  0  0  0  2  0  0  0  0  0  0
  187.7710  177.5610  143.3570 N   0  0  0  0  0  0  0  0  0  0  0  0
  180.8960  178.6110  144.3420 C   0  0  0  0  0  1  0  0  0  0  0  0
  187.5730  177.8470  142.0980 C   0  0  0  0  0  0  0  0  0  0  0  0
  187.2370  177.7640  145.7750 C   0  0  0  0  0  0  0  0  0  0  0  0
  183.2540  179.2210  144.7840 C   0  0  2  0  0  3  0  0  0  0  0  0
  184.5560  178.8240  139.8590 C   0  0  0  0  0  2  0  0  0  0  0  0
  188.1080  178.0350  148.4250 C   0  0  0  0  0  3  0  0  0  0  0  0
  188.5330  177.3710  146.1340 C   0  0  0  0  0  3  0  0  0  0  0  0
  191.1050  177.5320  140.6720 C   0  0  0  0  0  0  0  0  0  0  0  0
  192.4020  177.2310  141.0710 O   0  0  0  0  0  1  0  0  0  0  0  0
  188.7320  177.8250  141.1690 C   0  0  0  0  0  0  0  0  0  0  0  0
  190.8620  177.8480  139.3330 C   0  0  0  0  0  3  0  0  0  0  0  0
  188.5150  178.1350  139.8170 C   0  0  0  0  0  3  0  0  0  0  0  0
  190.0470  177.5160  141.5980 C   0  0  0  0  0  0  0  0  0  0  0  0
  190.3380  177.1270  143.0130 C   0  0  0  0  0  1  0  0  0  0  0  0
  189.5670  178.1480  138.9000 C   0  0  0  0  0  0  0  0  0  0  0  0
  188.4040  179.3670  137.1790 N   0  0  0  0  0  2  0  0  0  0  0  0
  189.2880  178.4790  137.4990 C   0  0  0  0  0  3  0  0  0  0  0  0
  1  3  1  6  0  0  0
  1 17  1  0  0  0  0
  1  4  1  0  0  0  0
  2  7  1  0  0  0  0
  2  5  1  0  0  0  0
  4  2  1  0  0  0  0
  5 12  1  0  0  0  0
  6 21  1  0  0  0  0
  7 18  1  0  0  0  0
  8 21  2  0  0  0  0
  9  8  1  0  0  0  0
 10 16  1  0  0  0  0
 10 19  1  0  0  0  0
 11  4  1  0  0  0  0
 11 13  1  0  0  0  0
 12  9  1  0  0  0  0
 13 10  1  0  0  0  0
 13 19  1  0  0  0  0
 14 11  1  0  0  0  0
 15  7  1  0  0  0  0
 17 15  2  0  0  0  0
 18 22  1  0  0  0  0
 18  9  2  0  0  0  0
 19  5  1  0  0  0  0
 20  3  1  0  0  0  0
 20 14  1  0  0  0  0
 22  6  2  0  0  0  0
 23 24  1  0  0  0  0
 23 28  1  0  0  0  0
 25 28  2  0  0  0  0
 25 17  1  0  0  0  0
 26 23  2  0  0  0  0
 27 25  1  0  0  0  0
 28 29  1  0  0  0  0
 30 26  1  0  0  0  0
 30 27  2  0  0  0  0
 31 32  2  0  0  0  0
 32 30  1  0  0  0  0
M  END
>  <MODEL>
6

>  <REMARK>
 VINA RESULT:     -10.4      2.361      7.223
  Name = 
  2 active torsions:
  status: ('A' for Active; 'I' for Inactive)
    1  A    between atoms: C_15  and  C_26
    2  A    between atoms: C_16  and  C_27
                            x       y       z     vdW  Elec       q    Type
                         _______ _______ _______ _____ _____    ______ ____

>  <TORSDO>
F 2

$$$$
=
 OpenBabel10262421083D

 32 38  0  0  1  0  0  0  0  0999 V2000
  189.3200  177.6150  142.7370 C   0  0  1  0  0  3  0  0  0  0  0  0
  187.3460  178.2730  141.3810 C   0  0  1  0  0  3  0  0  0  0  0  0
  190.5280  176.6800  142.7330 C   0  0  0  0  0  2  0  0  0  0  0  0
  188.6520  177.5290  141.3660 C   0  0  1  0  0  3  0  0  0  0  0  0
  186.6690  178.1360  140.0250 C   0  0  1  0  0  3  0  0  0  0  0  0
  183.0060  178.7880  143.5590 C   0  0  0  0  0  3  0  0  0  0  0  0
  186.4400  177.5860  142.4000 C   0  0  1  0  0  3  0  0  0  0  0  0
  183.3040  179.3910  141.2300 C   0  0  0  0  0  3  0  0  0  0  0  0
  184.5770  178.8150  141.2410 C   0  0  0  0  0  0  0  0  0  0  0  0
  188.2490  177.3590  138.3220 C   0  0  2  0  0  3  0  0  0  0  0  0
  189.6170  178.1360  140.3550 C   0  0  2  0  0  3  0  0  0  0  0  0
  185.3870  178.8360  140.0540 N   0  0  0  0  0  2  0  0  0  0  0  0
  189.0540  178.4700  138.9560 C   0  0  2  0  0  3  0  0  0  0  0  0
  190.8720  177.2640  140.2800 C   0  0  0  0  0  2  0  0  0  0  0  0
  187.0750  177.5050  143.7190 N   0  0  0  0  0  0  0  0  0  0  0  0
  188.3750  177.4520  136.8170 C   0  0  0  0  0  1  0  0  0  0  0  0
  188.3640  177.3990  143.9020 C   0  0  0  0  0  0  0  0  0  0  0  0
  185.0830  178.2450  142.4310 C   0  0  0  0  0  0  0  0  0  0  0  0
  187.5230  178.5960  138.8410 C   0  0  2  0  0  3  0  0  0  0  0  0
  191.5270  177.1460  141.6650 C   0  0  0  0  0  2  0  0  0  0  0  0
  182.5200  179.3790  142.3880 C   0  0  0  0  0  3  0  0  0  0  0  0
  184.2810  178.2170  143.5800 C   0  0  0  0  0  3  0  0  0  0  0  0
  188.7140  177.7800  147.6890 C   0  0  0  0  0  0  0  0  0  0  0  0
  188.0110  178.2530  148.7910 O   0  0  0  0  0  1  0  0  0  0  0  0
  188.8870  177.3490  145.2910 C   0  0  0  0  0  0  0  0  0  0  0  0
  189.9890  177.2400  147.8760 C   0  0  0  0  0  3  0  0  0  0  0  0
  190.1650  176.8090  145.5090 C   0  0  0  0  0  3  0  0  0  0  0  0
  188.1540  177.8380  146.4010 C   0  0  0  0  0  0  0  0  0  0  0  0
  186.7670  178.3790  146.2450 C   0  0  0  0  0  1  0  0  0  0  0  0
  190.7170  176.7510  146.7890 C   0  0  0  0  0  0  0  0  0  0  0  0
  192.5850  176.0370  148.1330 N   0  0  0  0  0  2  0  0  0  0  0  0
  192.0560  176.1770  146.9620 C   0  0  0  0  0  3  0  0  0  0  0  0
  1  3  1  6  0  0  0
  1 17  1  0  0  0  0
  2  7  1  0  0  0  0
  4  2  1  0  0  0  0
  4  1  1  0  0  0  0
  5 12  1  0  0  0  0
  5  2  1  0  0  0  0
  6 22  1  0  0  0  0
  7 18  1  0  0  0  0
  7 15  1  0  0  0  0
  8  9  2  0  0  0  0
  8 21  1  0  0  0  0
  9 18  1  0  0  0  0
 10 19  1  0  0  0  0
 10 13  1  0  0  0  0
 11  4  1  0  0  0  0
 12  9  1  0  0  0  0
 13 11  1  0  0  0  0
 14 11  1  0  0  0  0
 14 20  1  0  0  0  0
 15 17  2  0  0  0  0
 16 10  1  0  0  0  0
 17 25  1  0  0  0  0
 18 22  2  0  0  0  0
 19 13  1  0  0  0  0
 19  5  1  0  0  0  0
 20  3  1  0  0  0  0
 21  6  2  0  0  0  0
 23 26  1  0  0  0  0
 23 24  1  0  0  0  0
 25 27  2  0  0  0  0
 25 28  1  0  0  0  0
 27 30  1  0  0  0  0
 28 23  2  0  0  0  0
 29 28  1  0  0  0  0
 30 32  1  0  0  0  0
 30 26  2  0  0  0  0
 32 31  2  0  0  0  0
M  END
>  <MODEL>
7

>  <REMARK>
 VINA RESULT:     -10.3      2.429      7.436
  Name = 
  2 active torsions:
  status: ('A' for Active; 'I' for Inactive)
    1  A    between atoms: C_15  and  C_26
    2  A    between atoms: C_16  and  C_27
                            x       y       z     vdW  Elec       q    Type
                         _______ _______ _______ _____ _____    ______ ____

>  <TORSDO>
F 2

$$$$
=
 OpenBabel10262421083D

 32 38  0  0  1  0  0  0  0  0999 V2000
  187.4960  177.8060  141.4760 C   0  0  1  0  0  3  0  0  0  0  0  0
  189.6020  177.0720  142.5700 C   0  0  1  0  0  3  0  0  0  0  0  0
  186.9700  178.6670  140.3290 C   0  0  0  0  0  2  0  0  0  0  0  0
  189.0170  177.7360  141.3550 C   0  0  1  0  0  3  0  0  0  0  0  0
  191.1190  177.0550  142.4570 C   0  0  1  0  0  3  0  0  0  0  0  0
  189.9070  177.0970  147.4430 C   0  0  0  0  0  3  0  0  0  0  0  0
  189.2570  177.9420  143.7760 C   0  0  1  0  0  3  0  0  0  0  0  0
  191.6900  176.1610  146.0940 C   0  0  0  0  0  3  0  0  0  0  0  0
  191.0850  176.6640  144.9400 C   0  0  0  0  0  0  0  0  0  0  0  0
  191.8410  177.5030  140.1600 C   0  0  2  0  0  3  0  0  0  0  0  0
  189.3330  176.9440  140.0910 C   0  0  2  0  0  3  0  0  0  0  0  0
  191.6840  176.4360  143.6540 N   0  0  0  0  0  2  0  0  0  0  0  0
  190.7850  176.4490  139.9150 C   0  0  2  0  0  3  0  0  0  0  0  0
  188.8380  177.7290  138.8760 C   0  0  0  0  0  2  0  0  0  0  0  0
  187.8120  178.1710  143.8810 N   0  0  0  0  0  0  0  0  0  0  0  0
  193.0560  177.1940  139.3100 C   0  0  0  0  0  1  0  0  0  0  0  0
  187.0080  178.2330  142.8540 C   0  0  0  0  0  0  0  0  0  0  0  0
  189.8620  177.3670  145.0340 C   0  0  0  0  0  0  0  0  0  0  0  0
  191.6530  176.3910  141.1860 C   0  0  2  0  0  3  0  0  0  0  0  0
  187.3300  178.0040  138.9920 C   0  0  0  0  0  2  0  0  0  0  0  0
  191.1010  176.3760  147.3430 C   0  0  0  0  0  3  0  0  0  0  0  0
  189.2910  177.5970  146.2920 C   0  0  0  0  0  3  0  0  0  0  0  0
  183.6330  178.8140  144.5500 C   0  0  0  0  0  0  0  0  0  0  0  0
  183.0830  179.0030  145.8130 O   0  0  0  0  0  1  0  0  0  0  0  0
  185.5580  178.4480  143.0930 C   0  0  0  0  0  0  0  0  0  0  0  0
  182.7910  178.8080  143.4360 C   0  0  0  0  0  3  0  0  0  0  0  0
  184.6880  178.4490  141.9900 C   0  0  0  0  0  3  0  0  0  0  0  0
  185.0180  178.6370  144.3890 C   0  0  0  0  0  0  0  0  0  0  0  0
  185.8950  178.6970  145.6010 C   0  0  0  0  0  1  0  0  0  0  0  0
  183.3140  178.6280  142.1530 C   0  0  0  0  0  0  0  0  0  0  0  0
  181.1900  178.9020  141.0500 N   0  0  0  0  0  2  0  0  0  0  0  0
  182.4490  178.6210  140.9690 C   0  0  0  0  0  3  0  0  0  0  0  0
  1  3  1  6  0  0  0
  1 17  1  0  0  0  0
  2  7  1  0  0  0  0
  4  1  1  0  0  0  0
  4  2  1  0  0  0  0
  5  2  1  0  0  0  0
  5 12  1  0  0  0  0
  7 15  1  0  0  0  0
  7 18  1  0  0  0  0
  8 21  2  0  0  0  0
  9 18  2  0  0  0  0
  9  8  1  0  0  0  0
 10 19  1  0  0  0  0
 11  4  1  0  0  0  0
 12  9  1  0  0  0  0
 13 11  1  0  0  0  0
 13 10  1  0  0  0  0
 13 19  1  0  0  0  0
 14 20  1  0  0  0  0
 14 11  1  0  0  0  0
 16 10  1  0  0  0  0
 17 25  1  0  0  0  0
 17 15  2  0  0  0  0
 18 22  1  0  0  0  0
 19  5  1  0  0  0  0
 20  3  1  0  0  0  0
 21  6  1  0  0  0  0
 22  6  2  0  0  0  0
 23 24  1  0  0  0  0
 25 28  2  0  0  0  0
 26 23  2  0  0  0  0
 27 30  2  0  0  0  0
 27 25  1  0  0  0  0
 28 23  1  0  0  0  0
 28 29  1  0  0  0  0
 30 26  1  0  0  0  0
 32 31  2  0  0  0  0
 32 30  1  0  0  0  0
M  END
>  <MODEL>
8

>  <REMARK>
 VINA RESULT:     -10.2      1.572      4.898
  Name = 
  2 active torsions:
  status: ('A' for Active; 'I' for Inactive)
    1  A    between atoms: C_15  and  C_26
    2  A    between atoms: C_16  and  C_27
                            x       y       z     vdW  Elec       q    Type
                         _______ _______ _______ _____ _____    ______ ____

>  <TORSDO>
F 2

$$$$
=
 OpenBabel10262421083D

 32 38  0  0  1  0  0  0  0  0999 V2000
  184.8510  178.4030  142.9760 C   0  0  1  0  0  3  0  0  0  0  0  0
  183.6200  178.2140  140.8260 C   0  0  1  0  0  3  0  0  0  0  0  0
  184.9300  179.2420  144.2500 C   0  0  0  0  0  2  0  0  0  0  0  0
  183.6310  178.8650  142.1810 C   0  0  1  0  0  3  0  0  0  0  0  0
  182.4280  178.7220  140.0290 C   0  0  1  0  0  3  0  0  0  0  0  0
  186.1080  177.4100  136.7030 C   0  0  0  0  0  3  0  0  0  0  0  0
  184.8760  178.6740  140.0890 C   0  0  1  0  0  3  0  0  0  0  0  0
  183.6850  177.3920  136.7120 C   0  0  0  0  0  3  0  0  0  0  0  0
  183.6840  177.8770  138.0220 C   0  0  0  0  0  0  0  0  0  0  0  0
  180.7890  179.8120  141.4860 C   0  0  2  0  0  3  0  0  0  0  0  0
  182.3950  178.4780  142.9850 C   0  0  2  0  0  3  0  0  0  0  0  0
  182.4400  178.1090  138.7030 N   0  0  0  0  0  2  0  0  0  0  0  0
  181.0350  178.5350  142.2580 C   0  0  2  0  0  3  0  0  0  0  0  0
  182.3850  179.2710  144.2940 C   0  0  0  0  0  2  0  0  0  0  0  0
  186.0900  178.3870  140.8590 N   0  0  0  0  0  0  0  0  0  0  0  0
  179.3010  180.0910  141.4500 C   0  0  0  0  0  1  0  0  0  0  0  0
  186.1380  178.3740  142.1640 C   0  0  0  0  0  0  0  0  0  0  0  0
  184.9070  178.1030  138.6920 C   0  0  0  0  0  0  0  0  0  0  0  0
  181.0750  178.5270  140.7180 C   0  0  2  0  0  3  0  0  0  0  0  0
  183.6700  179.0030  145.0930 C   0  0  0  0  0  2  0  0  0  0  0  0
  184.8960  177.1590  136.0540 C   0  0  0  0  0  3  0  0  0  0  0  0
  186.1150  177.8870  138.0160 C   0  0  0  0  0  3  0  0  0  0  0  0
  189.8310  177.6220  142.8030 C   0  0  0  0  0  0  0  0  0  0  0  0
  191.0420  177.5300  142.1260 O   0  0  0  0  0  1  0  0  0  0  0  0
  187.4260  178.0460  142.8280 C   0  0  0  0  0  0  0  0  0  0  0  0
  189.8020  177.3830  144.1790 C   0  0  0  0  0  3  0  0  0  0  0  0
  187.4260  177.8040  144.2120 C   0  0  0  0  0  3  0  0  0  0  0  0
  188.6490  177.9560  142.1180 C   0  0  0  0  0  0  0  0  0  0  0  0
  188.7280  178.2530  140.6540 C   0  0  0  0  0  1  0  0  0  0  0  0
  188.6010  177.4750  144.8880 C   0  0  0  0  0  0  0  0  0  0  0  0
  189.5630  176.7580  146.9770 N   0  0  0  0  0  2  0  0  0  0  0  0
  188.5470  177.2300  146.3330 C   0  0  0  0  0  3  0  0  0  0  0  0
  1  3  1  1  0  0  0
  2  4  1  0  0  0  0
  3 20  1  0  0  0  0
  4  1  1  0  0  0  0
  4 11  1  0  0  0  0
  5 19  1  0  0  0  0
  5  2  1  0  0  0  0
  6 22  1  0  0  0  0
  7  2  1  0  0  0  0
  7 15  1  0  0  0  0
  8  9  2  0  0  0  0
  9 18  1  0  0  0  0
  9 12  1  0  0  0  0
 10 13  1  0  0  0  0
 11 14  1  0  0  0  0
 12  5  1  0  0  0  0
 13 11  1  0  0  0  0
 14 20  1  0  0  0  0
 15 17  2  0  0  0  0
 16 10  1  0  0  0  0
 17 25  1  0  0  0  0
 17  1  1  0  0  0  0
 18  7  1  0  0  0  0
 19 10  1  0  0  0  0
 19 13  1  0  0  0  0
 21  6  2  0  0  0  0
 21  8  1  0  0  0  0
 22 18  2  0  0  0  0
 23 26  1  0  0  0  0
 24 23  1  0  0  0  0
 25 27  2  0  0  0  0
 26 30  2  0  0  0  0
 27 30  1  0  0  0  0
 28 23  2  0  0  0  0
 28 25  1  0  0  0  0
 29 28  1  0  0  0  0
 30 32  1  0  0  0  0
 32 31  2  0  0  0  0
M  END
>  <MODEL>
9

>  <REMARK>
 VINA RESULT:      -9.9      2.823      7.384
  Name = 
  2 active torsions:
  status: ('A' for Active; 'I' for Inactive)
    1  A    between atoms: C_15  and  C_26
    2  A    between atoms: C_16  and  C_27
                            x       y       z     vdW  Elec       q    Type
                         _______ _______ _______ _____ _____    ______ ____

>  <TORSDO>
F 2

$$$$
