=
 OpenBabel10262419283D

 31 35  0  0  1  0  0  0  0  0999 V2000
  185.5390  178.7010  143.8970 C   0  0  0  0  0  0  0  0  0  0  0  0
  189.0350  177.3030  143.8330 C   0  0  0  0  0  0  0  0  0  0  0  0
  189.4880  177.2370  145.1850 C   0  0  0  0  0  0  0  0  0  0  0  0
  189.1210  176.8110  138.5920 O   0  0  0  0  0  0  0  0  0  0  0  0
  190.2290  176.4250  139.0530 C   0  0  0  0  0  0  0  0  0  0  0  0
  189.3380  177.8790  147.6340 C   0  0  1  0  0  3  0  0  0  0  0  0
  187.7490  177.7720  143.4290 C   0  0  0  0  0  0  0  0  0  0  0  0
  185.2310  178.6920  142.5380 C   0  0  0  0  0  3  0  0  0  0  0  0
  188.5800  177.5480  146.3550 C   0  0  0  0  0  2  0  0  0  0  0  0
  189.5510  176.9000  141.4730 C   0  0  0  0  0  0  0  0  0  0  0  0
  184.6280  179.1490  144.7950 F   0  0  0  0  0  0  0  0  0  0  0  0
  191.5860  176.3770  144.4150 N   0  0  0  0  0  0  0  0  0  0  0  0
  188.3590  178.0030  148.7810 C   0  0  0  0  0  1  0  0  0  0  0  0
  188.3170  177.3470  141.1300 N   0  0  0  0  0  0  0  0  0  0  0  0
  189.9310  176.8730  142.8210 C   0  0  0  0  0  0  0  0  0  0  0  0
  190.4720  176.4560  140.4660 N   0  0  0  0  0  2  0  0  0  0  0  0
  186.7850  178.2470  144.3360 C   0  0  0  0  0  3  0  0  0  0  0  0
  190.3220  176.7610  147.9210 C   0  0  0  0  0  2  0  0  0  0  0  0
  187.4210  177.7770  142.0490 C   0  0  0  0  0  0  0  0  0  0  0  0
  186.1720  178.2320  141.6170 C   0  0  0  0  0  3  0  0  0  0  0  0
  191.1710  176.4280  143.1530 N   0  0  0  0  0  0  0  0  0  0  0  0
  190.7900  176.7490  145.4440 C   0  0  0  0  0  0  0  0  0  0  0  0
  191.3810  176.7340  146.8290 C   0  0  0  0  0  2  0  0  0  0  0  0
  193.3590  175.0880  136.4340 C   0  0  0  0  0  0  0  0  0  0  0  0
  192.4480  176.7110  137.9740 C   0  0  0  0  0  3  0  0  0  0  0  0
  190.0610  173.9020  137.5590 O   0  0  0  0  0  1  0  0  0  0  0  0
  194.6470  174.5610  135.3720 Cl  0  0  0  0  0  0  0  0  0  0  0  0
  193.4760  176.2930  137.1280 C   0  0  0  0  0  3  0  0  0  0  0  0
  191.1820  174.7150  137.4350 C   0  0  0  0  0  0  0  0  0  0  0  0
  191.2910  175.9340  138.1410 C   0  0  0  0  0  0  0  0  0  0  0  0
  192.2160  174.3030  136.5880 C   0  0  0  0  0  3  0  0  0  0  0  0
  1 17  1  0  0  0  0
  1 11  1  0  0  0  0
  2  3  1  0  0  0  0
  3 22  2  0  0  0  0
  3  9  1  0  0  0  0
  4  5  2  0  0  0  0
  5 16  1  0  0  0  0
  6 18  1  0  0  0  0
  6 13  1  1  0  0  0
  7  2  1  0  0  0  0
  7 17  2  0  0  0  0
  8  1  2  0  0  0  0
  9  6  1  0  0  0  0
 10 15  1  0  0  0  0
 12 22  1  0  0  0  0
 14 10  2  0  0  0  0
 14 19  1  0  0  0  0
 15 21  1  0  0  0  0
 15  2  2  0  0  0  0
 16 10  1  0  0  0  0
 19  7  1  0  0  0  0
 20 19  2  0  0  0  0
 20  8  1  0  0  0  0
 21 12  2  0  0  0  0
 22 23  1  0  0  0  0
 23 18  1  0  0  0  0
 24 31  2  0  0  0  0
 24 28  1  0  0  0  0
 25 30  1  0  0  0  0
 27 24  1  0  0  0  0
 28 25  2  0  0  0  0
 29 26  1  0  0  0  0
 29 30  2  0  0  0  0
 30  5  1  0  0  0  0
 31 29  1  0  0  0  0
M  END
>  <MODEL>
1

>  <REMARK>
 VINA RESULT:     -11.0      0.000      0.000
  Name = 
  1 active torsions:
  status: ('A' for Active; 'I' for Inactive)
    1  A    between atoms: C_9  and  C_22
                            x       y       z     vdW  Elec       q    Type
                         _______ _______ _______ _____ _____    ______ ____

>  <TORSDO>
F 1

$$$$
=
 OpenBabel10262419283D

 31 35  0  0  1  0  0  0  0  0999 V2000
  190.4120  177.2550  142.1450 C   0  0  0  0  0  0  0  0  0  0  0  0
  186.9530  178.2300  143.2720 C   0  0  0  0  0  0  0  0  0  0  0  0
  186.9270  178.1240  144.6950 C   0  0  0  0  0  0  0  0  0  0  0  0
  185.2410  179.1640  138.3820 O   0  0  0  0  0  0  0  0  0  0  0  0
  184.2950  179.3750  139.1880 C   0  0  0  0  0  0  0  0  0  0  0  0
  187.8670  177.2920  146.8980 C   0  0  1  0  0  3  0  0  0  0  0  0
  188.0910  177.9530  142.4570 C   0  0  0  0  0  0  0  0  0  0  0  0
  190.2910  177.4200  140.7660 C   0  0  0  0  0  3  0  0  0  0  0  0
  188.1700  177.8210  145.5030 C   0  0  0  0  0  2  0  0  0  0  0  0
  185.7130  178.7740  141.2310 C   0  0  0  0  0  0  0  0  0  0  0  0
  191.5870  176.8410  142.6780 F   0  0  0  0  0  0  0  0  0  0  0  0
  184.6280  178.7930  144.6790 N   0  0  0  0  0  0  0  0  0  0  0  0
  189.1540  177.1850  147.6860 C   0  0  0  0  0  1  0  0  0  0  0  0
  186.8190  178.5080  140.4920 N   0  0  0  0  0  0  0  0  0  0  0  0
  185.7590  178.6370  142.6250 C   0  0  0  0  0  0  0  0  0  0  0  0
  184.4950  179.1920  140.5970 N   0  0  0  0  0  2  0  0  0  0  0  0
  189.3230  177.5190  142.9790 C   0  0  0  0  0  3  0  0  0  0  0  0
  186.9230  178.2560  147.5920 C   0  0  0  0  0  2  0  0  0  0  0  0
  187.9850  178.1080  141.0510 C   0  0  0  0  0  0  0  0  0  0  0  0
  189.0800  177.8440  140.2220 C   0  0  0  0  0  3  0  0  0  0  0  0
  184.6440  178.9020  143.3540 N   0  0  0  0  0  0  0  0  0  0  0  0
  185.7270  178.4290  145.3790 C   0  0  0  0  0  0  0  0  0  0  0  0
  185.5850  178.2530  146.8670 C   0  0  0  0  0  2  0  0  0  0  0  0
  180.4800  180.7450  137.7720 C   0  0  0  0  0  0  0  0  0  0  0  0
  182.6590  181.1830  138.7190 C   0  0  0  0  0  3  0  0  0  0  0  0
  182.2550  177.5420  138.1410 O   0  0  0  0  0  1  0  0  0  0  0  0
  178.9310  181.3240  137.1990 Cl  0  0  0  0  0  0  0  0  0  0  0  0
  181.4240  181.6470  138.2620 C   0  0  0  0  0  3  0  0  0  0  0  0
  182.0060  178.9080  138.1930 C   0  0  0  0  0  0  0  0  0  0  0  0
  182.9690  179.8140  138.6920 C   0  0  0  0  0  0  0  0  0  0  0  0
  180.7710  179.3810  137.7380 C   0  0  0  0  0  3  0  0  0  0  0  0
  1 11  1  0  0  0  0
  1 17  1  0  0  0  0
  2  3  1  0  0  0  0
  3 22  2  0  0  0  0
  3  9  1  0  0  0  0
  4  5  2  0  0  0  0
  5 16  1  0  0  0  0
  6 18  1  0  0  0  0
  6 13  1  1  0  0  0
  7 17  2  0  0  0  0
  7  2  1  0  0  0  0
  8  1  2  0  0  0  0
  9  6  1  0  0  0  0
 10 15  1  0  0  0  0
 12 22  1  0  0  0  0
 14 19  1  0  0  0  0
 14 10  2  0  0  0  0
 15  2  2  0  0  0  0
 15 21  1  0  0  0  0
 16 10  1  0  0  0  0
 19  7  1  0  0  0  0
 20  8  1  0  0  0  0
 20 19  2  0  0  0  0
 21 12  2  0  0  0  0
 22 23  1  0  0  0  0
 23 18  1  0  0  0  0
 24 28  1  0  0  0  0
 26 29  1  0  0  0  0
 27 24  1  0  0  0  0
 28 25  2  0  0  0  0
 29 30  2  0  0  0  0
 30 25  1  0  0  0  0
 30  5  1  0  0  0  0
 31 24  2  0  0  0  0
 31 29  1  0  0  0  0
M  END
>  <MODEL>
2

>  <REMARK>
 VINA RESULT:     -10.9      4.896      7.401
  Name = 
  1 active torsions:
  status: ('A' for Active; 'I' for Inactive)
    1  A    between atoms: C_9  and  C_22
                            x       y       z     vdW  Elec       q    Type
                         _______ _______ _______ _____ _____    ______ ____

>  <TORSDO>
F 1

$$$$
=
 OpenBabel10262419283D

 31 35  0  0  1  0  0  0  0  0999 V2000
  184.8260  178.8480  144.4140 C   0  0  0  0  0  0  0  0  0  0  0  0
  188.3450  177.6360  143.8390 C   0  0  0  0  0  0  0  0  0  0  0  0
  188.9510  177.4750  145.1210 C   0  0  0  0  0  0  0  0  0  0  0  0
  187.8530  177.6040  138.5970 O   0  0  0  0  0  0  0  0  0  0  0  0
  189.0210  177.2350  138.8960 C   0  0  0  0  0  0  0  0  0  0  0  0
  189.0550  177.8950  147.6200 C   0  0  1  0  0  3  0  0  0  0  0  0
  187.0040  178.0740  143.6230 C   0  0  0  0  0  0  0  0  0  0  0  0
  184.3660  178.9420  143.1020 C   0  0  0  0  0  3  0  0  0  0  0  0
  188.1710  177.6380  146.4070 C   0  0  0  0  0  2  0  0  0  0  0  0
  188.6040  177.4640  141.4090 C   0  0  0  0  0  0  0  0  0  0  0  0
  184.0070  179.1720  145.4440 F   0  0  0  0  0  0  0  0  0  0  0  0
  190.9790  176.7890  144.0490 N   0  0  0  0  0  0  0  0  0  0  0  0
  188.2090  177.8700  148.8740 C   0  0  0  0  0  1  0  0  0  0  0  0
  187.3230  177.8780  141.2460 N   0  0  0  0  0  0  0  0  0  0  0  0
  189.1360  177.3400  142.7000 C   0  0  0  0  0  0  0  0  0  0  0  0
  189.4210  177.1550  140.2710 N   0  0  0  0  0  2  0  0  0  0  0  0
  186.1310  178.4200  144.6700 C   0  0  0  0  0  3  0  0  0  0  0  0
  190.1090  176.8060  147.6940 C   0  0  0  0  0  2  0  0  0  0  0  0
  186.5210  178.1820  142.2940 C   0  0  0  0  0  0  0  0  0  0  0  0
  185.2130  178.6100  142.0450 C   0  0  0  0  0  3  0  0  0  0  0  0
  190.4210  176.9290  142.8510 N   0  0  0  0  0  0  0  0  0  0  0  0
  190.2920  177.0320  145.1900 C   0  0  0  0  0  0  0  0  0  0  0  0
  191.0370  176.9260  146.4940 C   0  0  0  0  0  2  0  0  0  0  0  0
  191.9030  176.2000  135.8850 C   0  0  0  0  0  0  0  0  0  0  0  0
  191.3370  176.6960  138.1820 C   0  0  0  0  0  3  0  0  0  0  0  0
  188.2910  176.8820  136.0740 O   0  0  0  0  0  1  0  0  0  0  0  0
  193.0930  175.7780  134.6740 Cl  0  0  0  0  0  0  0  0  0  0  0  0
  192.2880  176.3580  137.2170 C   0  0  0  0  0  3  0  0  0  0  0  0
  189.6090  176.7140  136.4810 C   0  0  0  0  0  0  0  0  0  0  0  0
  189.9900  176.8780  137.8320 C   0  0  0  0  0  0  0  0  0  0  0  0
  190.5680  176.3780  135.5200 C   0  0  0  0  0  3  0  0  0  0  0  0
  1 17  1  0  0  0  0
  1 11  1  0  0  0  0
  2  3  1  0  0  0  0
  3 22  2  0  0  0  0
  3  9  1  0  0  0  0
  4  5  2  0  0  0  0
  5 16  1  0  0  0  0
  6 18  1  0  0  0  0
  6 13  1  1  0  0  0
  7  2  1  0  0  0  0
  7 17  2  0  0  0  0
  8  1  2  0  0  0  0
  9  6  1  0  0  0  0
 10 15  1  0  0  0  0
 12 22  1  0  0  0  0
 14 10  2  0  0  0  0
 14 19  1  0  0  0  0
 15 21  1  0  0  0  0
 15  2  2  0  0  0  0
 16 10  1  0  0  0  0
 19  7  1  0  0  0  0
 20 19  2  0  0  0  0
 20  8  1  0  0  0  0
 21 12  2  0  0  0  0
 22 23  1  0  0  0  0
 23 18  1  0  0  0  0
 24 28  1  0  0  0  0
 26 29  1  0  0  0  0
 27 24  1  0  0  0  0
 28 25  2  0  0  0  0
 29 30  2  0  0  0  0
 30 25  1  0  0  0  0
 30  5  1  0  0  0  0
 31 24  2  0  0  0  0
 31 29  1  0  0  0  0
M  END
>  <MODEL>
3

>  <REMARK>
 VINA RESULT:     -10.9      1.270      1.419
  Name = 
  1 active torsions:
  status: ('A' for Active; 'I' for Inactive)
    1  A    between atoms: C_9  and  C_22
                            x       y       z     vdW  Elec       q    Type
                         _______ _______ _______ _____ _____    ______ ____

>  <TORSDO>
F 1

$$$$
=
 OpenBabel10262419283D

 31 35  0  0  1  0  0  0  0  0999 V2000
  191.1850  177.2540  141.7020 C   0  0  0  0  0  0  0  0  0  0  0  0
  187.8350  177.9080  143.2930 C   0  0  0  0  0  0  0  0  0  0  0  0
  187.9960  177.7390  144.7010 C   0  0  0  0  0  0  0  0  0  0  0  0
  185.4590  178.9210  138.7060 O   0  0  0  0  0  0  0  0  0  0  0  0
  184.6090  179.0220  139.6320 C   0  0  0  0  0  0  0  0  0  0  0  0
  189.2630  176.8870  146.7260 C   0  0  1  0  0  3  0  0  0  0  0  0
  188.8790  177.7570  142.3310 C   0  0  0  0  0  0  0  0  0  0  0  0
  190.8800  177.4690  140.3590 C   0  0  0  0  0  3  0  0  0  0  0  0
  189.3490  177.4980  145.3340 C   0  0  0  0  0  2  0  0  0  0  0  0
  186.3120  178.4440  141.4510 C   0  0  0  0  0  0  0  0  0  0  0  0
  192.4440  176.9090  142.0640 F   0  0  0  0  0  0  0  0  0  0  0  0
  185.6720  178.2290  145.0020 N   0  0  0  0  0  0  0  0  0  0  0  0
  190.6430  176.8450  147.3430 C   0  0  0  0  0  1  0  0  0  0  0  0
  187.3330  178.2960  140.5690 N   0  0  0  0  0  0  0  0  0  0  0  0
  186.5430  178.2510  142.8190 C   0  0  0  0  0  0  0  0  0  0  0  0
  184.9980  178.7940  140.9940 N   0  0  0  0  0  2  0  0  0  0  0  0
  190.1940  177.3960  142.6760 C   0  0  0  0  0  3  0  0  0  0  0  0
  188.3480  177.7440  147.5790 C   0  0  0  0  0  2  0  0  0  0  0  0
  188.5850  177.9640  140.9590 C   0  0  0  0  0  0  0  0  0  0  0  0
  189.5830  177.8210  139.9890 C   0  0  0  0  0  3  0  0  0  0  0  0
  185.5130  178.3960  143.6930 N   0  0  0  0  0  0  0  0  0  0  0  0
  186.8740  177.9200  145.5420 C   0  0  0  0  0  0  0  0  0  0  0  0
  186.9330  177.6690  147.0250 C   0  0  0  0  0  2  0  0  0  0  0  0
  180.5700  180.1460  138.7050 C   0  0  0  0  0  0  0  0  0  0  0  0
  182.9390  180.6170  138.7190 C   0  0  0  0  0  3  0  0  0  0  0  0
  182.3180  177.2830  140.2190 O   0  0  0  0  0  1  0  0  0  0  0  0
  178.9310  180.6230  138.3180 Cl  0  0  0  0  0  0  0  0  0  0  0  0
  181.6330  180.9990  138.4090 C   0  0  0  0  0  3  0  0  0  0  0  0
  182.1200  178.5210  139.6190 C   0  0  0  0  0  0  0  0  0  0  0  0
  183.2040  179.3790  139.3250 C   0  0  0  0  0  0  0  0  0  0  0  0
  180.8140  178.9110  139.3070 C   0  0  0  0  0  3  0  0  0  0  0  0
  1 11  1  0  0  0  0
  1 17  1  0  0  0  0
  2  3  1  0  0  0  0
  3  9  1  0  0  0  0
  3 22  2  0  0  0  0
  4  5  2  0  0  0  0
  5 16  1  0  0  0  0
  6 13  1  1  0  0  0
  6 18  1  0  0  0  0
  7 17  2  0  0  0  0
  7  2  1  0  0  0  0
  8  1  2  0  0  0  0
  9  6  1  0  0  0  0
 10 15  1  0  0  0  0
 12 22  1  0  0  0  0
 14 19  1  0  0  0  0
 14 10  2  0  0  0  0
 15  2  2  0  0  0  0
 15 21  1  0  0  0  0
 16 10  1  0  0  0  0
 19  7  1  0  0  0  0
 20  8  1  0  0  0  0
 20 19  2  0  0  0  0
 21 12  2  0  0  0  0
 22 23  1  0  0  0  0
 23 18  1  0  0  0  0
 24 31  1  0  0  0  0
 25 30  2  0  0  0  0
 27 24  1  0  0  0  0
 28 24  2  0  0  0  0
 28 25  1  0  0  0  0
 29 26  1  0  0  0  0
 30 29  1  0  0  0  0
 30  5  1  0  0  0  0
 31 29  2  0  0  0  0
M  END
>  <MODEL>
4

>  <REMARK>
 VINA RESULT:     -10.8      4.679      7.216
  Name = 
  1 active torsions:
  status: ('A' for Active; 'I' for Inactive)
    1  A    between atoms: C_9  and  C_22
                            x       y       z     vdW  Elec       q    Type
                         _______ _______ _______ _____ _____    ______ ____

>  <TORSDO>
F 1

$$$$
=
 OpenBabel10262419283D

 31 35  0  0  1  0  0  0  0  0999 V2000
  186.9160  178.1880  147.7480 C   0  0  0  0  0  0  0  0  0  0  0  0
  187.5770  177.6380  144.0820 C   0  0  0  0  0  0  0  0  0  0  0  0
  188.9310  177.2050  143.9570 C   0  0  0  0  0  0  0  0  0  0  0  0
  182.7020  179.0030  142.6370 O   0  0  0  0  0  0  0  0  0  0  0  0
  183.3640  178.7160  141.6030 C   0  0  0  0  0  0  0  0  0  0  0  0
  191.2860  176.9240  144.8550 C   0  0  1  0  0  3  0  0  0  0  0  0
  186.9320  177.9460  145.3170 C   0  0  0  0  0  0  0  0  0  0  0  0
  185.5800  178.5840  147.7140 C   0  0  0  0  0  3  0  0  0  0  0  0
  189.7950  176.9050  145.1630 C   0  0  0  0  0  2  0  0  0  0  0  0
  185.4820  178.1830  142.9350 C   0  0  0  0  0  0  0  0  0  0  0  0
  187.5680  178.1060  148.9330 F   0  0  0  0  0  0  0  0  0  0  0  0
  188.6560  177.1070  141.5810 N   0  0  0  0  0  0  0  0  0  0  0  0
  192.0560  176.4450  146.0660 C   0  0  0  0  0  1  0  0  0  0  0  0
  184.9040  178.4600  144.1300 N   0  0  0  0  0  0  0  0  0  0  0  0
  186.8210  177.7730  142.8890 C   0  0  0  0  0  0  0  0  0  0  0  0
  184.7350  178.3080  141.7160 N   0  0  0  0  0  2  0  0  0  0  0  0
  187.5830  177.8740  146.5620 C   0  0  0  0  0  3  0  0  0  0  0  0
  191.5540  176.0000  143.6820 C   0  0  0  0  0  2  0  0  0  0  0  0
  185.5750  178.3570  145.3010 C   0  0  0  0  0  0  0  0  0  0  0  0
  184.9120  178.6690  146.4930 C   0  0  0  0  0  3  0  0  0  0  0  0
  187.3920  177.5030  141.6870 N   0  0  0  0  0  0  0  0  0  0  0  0
  189.4440  176.9340  142.6670 C   0  0  0  0  0  0  0  0  0  0  0  0
  190.8850  176.5650  142.4380 C   0  0  0  0  0  2  0  0  0  0  0  0
  181.4640  178.8870  137.7560 C   0  0  0  0  0  0  0  0  0  0  0  0
  181.4990  178.1610  140.0600 C   0  0  0  0  0  3  0  0  0  0  0  0
  184.5550  180.1280  139.3210 O   0  0  0  0  0  1  0  0  0  0  0  0
  180.6720  178.9450  136.1960 Cl  0  0  0  0  0  0  0  0  0  0  0  0
  180.8660  178.2060  138.8170 C   0  0  0  0  0  3  0  0  0  0  0  0
  183.3320  179.4820  139.1820 C   0  0  0  0  0  0  0  0  0  0  0  0
  182.7350  178.7940  140.2630 C   0  0  0  0  0  0  0  0  0  0  0  0
  182.6930  179.5220  137.9390 C   0  0  0  0  0  3  0  0  0  0  0  0
  1 11  1  0  0  0  0
  2  7  1  0  0  0  0
  3  2  1  0  0  0  0
  3  9  1  0  0  0  0
  5 16  1  0  0  0  0
  5  4  2  0  0  0  0
  6  9  1  0  0  0  0
  6 13  1  1  0  0  0
  7 17  1  0  0  0  0
  8  1  1  0  0  0  0
 10 14  2  0  0  0  0
 12 21  2  0  0  0  0
 12 22  1  0  0  0  0
 14 19  1  0  0  0  0
 15 10  1  0  0  0  0
 15  2  2  0  0  0  0
 16 10  1  0  0  0  0
 17  1  2  0  0  0  0
 18  6  1  0  0  0  0
 19  7  2  0  0  0  0
 19 20  1  0  0  0  0
 20  8  2  0  0  0  0
 21 15  1  0  0  0  0
 22  3  2  0  0  0  0
 23 22  1  0  0  0  0
 23 18  1  0  0  0  0
 24 31  2  0  0  0  0
 24 28  1  0  0  0  0
 25 30  1  0  0  0  0
 27 24  1  0  0  0  0
 28 25  2  0  0  0  0
 29 26  1  0  0  0  0
 29 30  2  0  0  0  0
 30  5  1  0  0  0  0
 31 29  1  0  0  0  0
M  END
>  <MODEL>
5

>  <REMARK>
 VINA RESULT:     -10.5      4.421      6.932
  Name = 
  1 active torsions:
  status: ('A' for Active; 'I' for Inactive)
    1  A    between atoms: C_9  and  C_22
                            x       y       z     vdW  Elec       q    Type
                         _______ _______ _______ _____ _____    ______ ____

>  <TORSDO>
F 1

$$$$
=
 OpenBabel10262419283D

 31 35  0  0  1  0  0  0  0  0999 V2000
  185.4690  179.0050  142.7980 C   0  0  0  0  0  0  0  0  0  0  0  0
  188.8610  177.4120  143.1750 C   0  0  0  0  0  0  0  0  0  0  0  0
  189.1290  177.3160  144.5740 C   0  0  0  0  0  0  0  0  0  0  0  0
  189.6030  176.9340  137.9850 O   0  0  0  0  0  0  0  0  0  0  0  0
  190.6190  176.4840  138.5820 C   0  0  0  0  0  0  0  0  0  0  0  0
  188.6960  177.9570  146.9890 C   0  0  1  0  0  3  0  0  0  0  0  0
  187.6670  177.9550  142.6120 C   0  0  0  0  0  0  0  0  0  0  0  0
  185.3420  179.0180  141.4100 C   0  0  0  0  0  3  0  0  0  0  0  0
  188.0950  177.6740  145.6190 C   0  0  0  0  0  2  0  0  0  0  0  0
  189.6580  176.9890  140.8980 C   0  0  0  0  0  0  0  0  0  0  0  0
  184.4760  179.5020  143.5750 F   0  0  0  0  0  0  0  0  0  0  0  0
  191.2580  176.3410  144.0740 N   0  0  0  0  0  0  0  0  0  0  0  0
  187.5840  178.1320  148.0000 C   0  0  0  0  0  1  0  0  0  0  0  0
  188.5060  177.5060  140.4020 N   0  0  0  0  0  0  0  0  0  0  0  0
  189.8560  176.9360  142.2840 C   0  0  0  0  0  0  0  0  0  0  0  0
  190.6760  176.4960  140.0160 N   0  0  0  0  0  2  0  0  0  0  0  0
  186.6200  178.4800  143.3900 C   0  0  0  0  0  3  0  0  0  0  0  0
  189.5700  176.7850  147.3900 C   0  0  0  0  0  2  0  0  0  0  0  0
  187.5230  177.9830  141.2010 C   0  0  0  0  0  0  0  0  0  0  0  0
  186.3680  178.5090  140.6150 C   0  0  0  0  0  3  0  0  0  0  0  0
  191.0150  176.4200  142.7700 N   0  0  0  0  0  0  0  0  0  0  0  0
  190.3570  176.7550  144.9950 C   0  0  0  0  0  0  0  0  0  0  0  0
  190.7600  176.7010  146.4450 C   0  0  0  0  0  2  0  0  0  0  0  0
  193.8620  174.8480  136.2910 C   0  0  0  0  0  0  0  0  0  0  0  0
  191.4990  175.0600  136.7480 C   0  0  0  0  0  3  0  0  0  0  0  0
  193.4270  177.1290  139.1470 O   0  0  0  0  0  1  0  0  0  0  0  0
  195.1690  174.1710  135.3450 Cl  0  0  0  0  0  0  0  0  0  0  0  0
  192.5400  174.5190  135.9920 C   0  0  0  0  0  3  0  0  0  0  0  0
  193.1040  176.2660  138.1060 C   0  0  0  0  0  0  0  0  0  0  0  0
  191.7610  175.9380  137.8120 C   0  0  0  0  0  0  0  0  0  0  0  0
  194.1420  175.7190  137.3450 C   0  0  0  0  0  3  0  0  0  0  0  0
  1 17  1  0  0  0  0
  1 11  1  0  0  0  0
  2  3  1  0  0  0  0
  3 22  2  0  0  0  0
  3  9  1  0  0  0  0
  4  5  2  0  0  0  0
  5 16  1  0  0  0  0
  6 18  1  0  0  0  0
  6 13  1  1  0  0  0
  7  2  1  0  0  0  0
  7 17  2  0  0  0  0
  8  1  2  0  0  0  0
  9  6  1  0  0  0  0
 10 15  1  0  0  0  0
 12 22  1  0  0  0  0
 14 10  2  0  0  0  0
 14 19  1  0  0  0  0
 15 21  1  0  0  0  0
 15  2  2  0  0  0  0
 16 10  1  0  0  0  0
 19  7  1  0  0  0  0
 20 19  2  0  0  0  0
 20  8  1  0  0  0  0
 21 12  2  0  0  0  0
 22 23  1  0  0  0  0
 23 18  1  0  0  0  0
 24 31  1  0  0  0  0
 25 30  2  0  0  0  0
 27 24  1  0  0  0  0
 28 24  2  0  0  0  0
 28 25  1  0  0  0  0
 29 26  1  0  0  0  0
 30 29  1  0  0  0  0
 30  5  1  0  0  0  0
 31 29  2  0  0  0  0
M  END
>  <MODEL>
6

>  <REMARK>
 VINA RESULT:     -10.3      1.099      1.448
  Name = 
  1 active torsions:
  status: ('A' for Active; 'I' for Inactive)
    1  A    between atoms: C_9  and  C_22
                            x       y       z     vdW  Elec       q    Type
                         _______ _______ _______ _____ _____    ______ ____

>  <TORSDO>
F 1

$$$$
=
 OpenBabel10262419283D

 31 35  0  0  1  0  0  0  0  0999 V2000
  185.9230  178.1140  146.1840 C   0  0  0  0  0  0  0  0  0  0  0  0
  186.7460  178.2980  142.5140 C   0  0  0  0  0  0  0  0  0  0  0  0
  188.1390  178.0210  142.3790 C   0  0  0  0  0  0  0  0  0  0  0  0
  181.8050  179.4460  141.1040 O   0  0  0  0  0  0  0  0  0  0  0  0
  182.5230  179.4120  140.0680 C   0  0  0  0  0  0  0  0  0  0  0  0
  190.4820  177.8000  143.3230 C   0  0  1  0  0  3  0  0  0  0  0  0
  186.0370  178.3170  143.7520 C   0  0  0  0  0  0  0  0  0  0  0  0
  184.5560  178.3850  146.1570 C   0  0  0  0  0  3  0  0  0  0  0  0
  188.9920  177.5880  143.5520 C   0  0  0  0  0  2  0  0  0  0  0  0
  184.6430  178.8450  141.3830 C   0  0  0  0  0  0  0  0  0  0  0  0
  186.5450  177.8810  147.3660 F   0  0  0  0  0  0  0  0  0  0  0  0
  187.9470  178.3270  140.0120 N   0  0  0  0  0  0  0  0  0  0  0  0
  191.2590  177.1830  144.4660 C   0  0  0  0  0  1  0  0  0  0  0  0
  184.0040  178.8480  142.5800 N   0  0  0  0  0  0  0  0  0  0  0  0
  186.0170  178.5750  141.3290 C   0  0  0  0  0  0  0  0  0  0  0  0
  183.9240  179.1190  140.1720 N   0  0  0  0  0  2  0  0  0  0  0  0
  186.6540  178.0820  144.9940 C   0  0  0  0  0  3  0  0  0  0  0  0
  190.8760  177.1310  142.0200 C   0  0  0  0  0  2  0  0  0  0  0  0
  184.6470  178.5980  143.7450 C   0  0  0  0  0  0  0  0  0  0  0  0
  183.9210  178.6280  144.9400 C   0  0  0  0  0  3  0  0  0  0  0  0
  186.6470  178.5790  140.1270 N   0  0  0  0  0  0  0  0  0  0  0  0
  188.7150  178.0340  141.0870 C   0  0  0  0  0  0  0  0  0  0  0  0
  190.1920  177.8470  140.8640 C   0  0  0  0  0  2  0  0  0  0  0  0
  180.7960  180.2660  136.2300 C   0  0  0  0  0  0  0  0  0  0  0  0
  181.5410  180.9830  138.4140 C   0  0  0  0  0  3  0  0  0  0  0  0
  182.1070  177.3370  138.0330 O   0  0  0  0  0  1  0  0  0  0  0  0
  180.0910  180.6350  134.6720 Cl  0  0  0  0  0  0  0  0  0  0  0  0
  180.9790  181.2790  137.1710 C   0  0  0  0  0  3  0  0  0  0  0  0
  181.7430  178.6530  137.7740 C   0  0  0  0  0  0  0  0  0  0  0  0
  181.9310  179.6730  138.7350 C   0  0  0  0  0  0  0  0  0  0  0  0
  181.1770  178.9580  136.5320 C   0  0  0  0  0  3  0  0  0  0  0  0
  1 11  1  0  0  0  0
  2  7  1  0  0  0  0
  3  2  1  0  0  0  0
  3  9  1  0  0  0  0
  5 16  1  0  0  0  0
  5  4  2  0  0  0  0
  6  9  1  0  0  0  0
  6 13  1  1  0  0  0
  7 17  1  0  0  0  0
  8  1  1  0  0  0  0
 10 14  2  0  0  0  0
 12 21  2  0  0  0  0
 12 22  1  0  0  0  0
 14 19  1  0  0  0  0
 15 10  1  0  0  0  0
 15  2  2  0  0  0  0
 16 10  1  0  0  0  0
 17  1  2  0  0  0  0
 18  6  1  0  0  0  0
 19  7  2  0  0  0  0
 19 20  1  0  0  0  0
 20  8  2  0  0  0  0
 21 15  1  0  0  0  0
 22  3  2  0  0  0  0
 23 22  1  0  0  0  0
 23 18  1  0  0  0  0
 24 31  2  0  0  0  0
 24 28  1  0  0  0  0
 25 30  1  0  0  0  0
 27 24  1  0  0  0  0
 28 25  2  0  0  0  0
 29 26  1  0  0  0  0
 29 30  2  0  0  0  0
 30  5  1  0  0  0  0
 31 29  1  0  0  0  0
M  END
>  <MODEL>
7

>  <REMARK>
 VINA RESULT:     -10.2      4.876      7.494
  Name = 
  1 active torsions:
  status: ('A' for Active; 'I' for Inactive)
    1  A    between atoms: C_9  and  C_22
                            x       y       z     vdW  Elec       q    Type
                         _______ _______ _______ _____ _____    ______ ____

>  <TORSDO>
F 1

$$$$
=
 OpenBabel10262419283D

 31 35  0  0  1  0  0  0  0  0999 V2000
  183.8380  179.2100  139.3060 C   0  0  0  0  0  0  0  0  0  0  0  0
  187.3980  178.0180  139.6020 C   0  0  0  0  0  0  0  0  0  0  0  0
  187.9050  177.8690  138.2760 C   0  0  0  0  0  0  0  0  0  0  0  0
  187.3200  177.9810  144.8660 O   0  0  0  0  0  0  0  0  0  0  0  0
  188.4550  177.5930  144.4760 C   0  0  0  0  0  0  0  0  0  0  0  0
  187.5940  177.6430  135.7690 C   0  0  1  0  0  3  0  0  0  0  0  0
  186.0800  178.4620  139.9230 C   0  0  0  0  0  0  0  0  0  0  0  0
  183.4900  179.3230  140.6510 C   0  0  0  0  0  3  0  0  0  0  0  0
  187.1150  178.2970  137.0580 C   0  0  0  0  0  2  0  0  0  0  0  0
  187.8450  177.8320  142.0030 C   0  0  0  0  0  0  0  0  0  0  0  0
  182.9340  179.5160  138.3440 F   0  0  0  0  0  0  0  0  0  0  0  0
  189.9910  177.1210  139.1830 N   0  0  0  0  0  0  0  0  0  0  0  0
  186.8670  178.2570  134.5940 C   0  0  0  0  0  1  0  0  0  0  0  0
  186.5860  178.2630  142.2670 N   0  0  0  0  0  0  0  0  0  0  0  0
  188.2700  177.7000  140.6750 C   0  0  0  0  0  0  0  0  0  0  0  0
  188.7440  177.5090  143.0730 N   0  0  0  0  0  2  0  0  0  0  0  0
  185.1190  178.7830  138.9480 C   0  0  0  0  0  3  0  0  0  0  0  0
  189.0850  177.8800  135.6270 C   0  0  0  0  0  2  0  0  0  0  0  0
  185.7060  178.5760  141.2870 C   0  0  0  0  0  0  0  0  0  0  0  0
  184.4220  179.0040  141.6380 C   0  0  0  0  0  3  0  0  0  0  0  0
  189.5300  177.2630  140.4220 N   0  0  0  0  0  0  0  0  0  0  0  0
  189.2350  177.4190  138.1010 C   0  0  0  0  0  0  0  0  0  0  0  0
  189.8170  177.1450  136.7410 C   0  0  0  0  0  2  0  0  0  0  0  0
  191.5450  176.4930  147.2460 C   0  0  0  0  0  0  0  0  0  0  0  0
  190.7450  176.7800  144.9850 C   0  0  0  0  0  3  0  0  0  0  0  0
  188.0790  177.7220  147.3850 O   0  0  0  0  0  1  0  0  0  0  0  0
  192.8190  176.0400  148.3590 Cl  0  0  0  0  0  0  0  0  0  0  0  0
  191.7620  176.4180  145.8700 C   0  0  0  0  0  3  0  0  0  0  0  0
  189.2910  177.2940  146.8550 C   0  0  0  0  0  0  0  0  0  0  0  0
  189.5000  177.2210  145.4590 C   0  0  0  0  0  0  0  0  0  0  0  0
  190.3140  176.9290  147.7360 C   0  0  0  0  0  3  0  0  0  0  0  0
  1  8  1  0  0  0  0
  2  7  1  0  0  0  0
  2 15  1  0  0  0  0
  3  2  2  0  0  0  0
  5  4  2  0  0  0  0
  5 30  1  0  0  0  0
  6 13  1  6  0  0  0
  6  9  1  0  0  0  0
  7 19  2  0  0  0  0
  8 20  2  0  0  0  0
  9  3  1  0  0  0  0
 10 14  2  0  0  0  0
 10 16  1  0  0  0  0
 11  1  1  0  0  0  0
 12 21  1  0  0  0  0
 15 10  1  0  0  0  0
 16  5  1  0  0  0  0
 17  1  2  0  0  0  0
 17  7  1  0  0  0  0
 18  6  1  0  0  0  0
 18 23  1  0  0  0  0
 19 20  1  0  0  0  0
 19 14  1  0  0  0  0
 21 15  2  0  0  0  0
 22  3  1  0  0  0  0
 22 12  2  0  0  0  0
 23 22  1  0  0  0  0
 24 31  1  0  0  0  0
 24 27  1  0  0  0  0
 25 30  2  0  0  0  0
 25 28  1  0  0  0  0
 28 24  2  0  0  0  0
 29 26  1  0  0  0  0
 29 31  2  0  0  0  0
 30 29  1  0  0  0  0
M  END
>  <MODEL>
8

>  <REMARK>
 VINA RESULT:      -9.5      4.022      7.905
  Name = 
  1 active torsions:
  status: ('A' for Active; 'I' for Inactive)
    1  A    between atoms: C_9  and  C_22
                            x       y       z     vdW  Elec       q    Type
                         _______ _______ _______ _____ _____    ______ ____

>  <TORSDO>
F 1

$$$$
=
 OpenBabel10262419283D

 31 35  0  0  1  0  0  0  0  0999 V2000
  185.4320  178.2400  146.5210 C   0  0  0  0  0  0  0  0  0  0  0  0
  185.4710  178.2820  142.7550 C   0  0  0  0  0  0  0  0  0  0  0  0
  184.1450  178.5830  142.3220 C   0  0  0  0  0  0  0  0  0  0  0  0
  190.6050  177.1580  142.4450 O   0  0  0  0  0  0  0  0  0  0  0  0
  190.1430  177.2610  141.2770 C   0  0  0  0  0  0  0  0  0  0  0  0
  181.6480  178.7770  142.7170 C   0  0  1  0  0  3  0  0  0  0  0  0
  185.8780  178.1810  144.1190 C   0  0  0  0  0  0  0  0  0  0  0  0
  186.7690  177.9540  146.7900 C   0  0  0  0  0  3  0  0  0  0  0  0
  183.0460  178.9560  143.2930 C   0  0  0  0  0  2  0  0  0  0  0  0
  187.7780  177.7760  142.1040 C   0  0  0  0  0  0  0  0  0  0  0  0
  184.5560  178.4110  147.5400 F   0  0  0  0  0  0  0  0  0  0  0  0
  184.8750  178.4130  140.0480 N   0  0  0  0  0  0  0  0  0  0  0  0
  180.6290  179.3350  143.6870 C   0  0  0  0  0  1  0  0  0  0  0  0
  188.1260  177.6950  143.4130 N   0  0  0  0  0  0  0  0  0  0  0  0
  186.4530  178.0650  141.7540 C   0  0  0  0  0  0  0  0  0  0  0  0
  188.7550  177.5650  141.0750 N   0  0  0  0  0  2  0  0  0  0  0  0
  184.9930  178.3500  145.1990 C   0  0  0  0  0  3  0  0  0  0  0  0
  181.5620  179.5260  141.4010 C   0  0  0  0  0  2  0  0  0  0  0  0
  187.2340  177.8840  144.4130 C   0  0  0  0  0  0  0  0  0  0  0  0
  187.6670  177.7760  145.7380 C   0  0  0  0  0  3  0  0  0  0  0  0
  186.1140  178.1390  140.4410 N   0  0  0  0  0  0  0  0  0  0  0  0
  183.8800  178.6520  140.9340 C   0  0  0  0  0  0  0  0  0  0  0  0
  182.4940  178.8700  140.3920 C   0  0  0  0  0  2  0  0  0  0  0  0
  192.7810  176.7390  137.9290 C   0  0  0  0  0  0  0  0  0  0  0  0
  192.4050  177.2860  140.2520 C   0  0  0  0  0  3  0  0  0  0  0  0
  189.1770  176.4580  138.6230 O   0  0  0  0  0  1  0  0  0  0  0  0
  193.8740  176.5310  136.5770 Cl  0  0  0  0  0  0  0  0  0  0  0  0
  193.2780  177.1210  139.1750 C   0  0  0  0  0  3  0  0  0  0  0  0
  190.5320  176.6840  138.8340 C   0  0  0  0  0  0  0  0  0  0  0  0
  191.0260  177.0720  140.1010 C   0  0  0  0  0  0  0  0  0  0  0  0
  191.4130  176.5220  137.7600 C   0  0  0  0  0  3  0  0  0  0  0  0
  1  8  1  0  0  0  0
  1 11  1  0  0  0  0
  2  7  1  0  0  0  0
  3  2  1  0  0  0  0
  3  9  1  0  0  0  0
  5  4  2  0  0  0  0
  6  9  1  0  0  0  0
  6 13  1  1  0  0  0
  7 19  2  0  0  0  0
  7 17  1  0  0  0  0
 10 14  2  0  0  0  0
 12 21  2  0  0  0  0
 12 22  1  0  0  0  0
 14 19  1  0  0  0  0
 15 10  1  0  0  0  0
 15  2  2  0  0  0  0
 16  5  1  0  0  0  0
 16 10  1  0  0  0  0
 17  1  2  0  0  0  0
 18  6  1  0  0  0  0
 19 20  1  0  0  0  0
 20  8  2  0  0  0  0
 21 15  1  0  0  0  0
 22  3  2  0  0  0  0
 23 22  1  0  0  0  0
 23 18  1  0  0  0  0
 24 28  1  0  0  0  0
 26 29  1  0  0  0  0
 27 24  1  0  0  0  0
 28 25  2  0  0  0  0
 29 30  2  0  0  0  0
 30 25  1  0  0  0  0
 30  5  1  0  0  0  0
 31 24  2  0  0  0  0
 31 29  1  0  0  0  0
M  END
>  <MODEL>
9

>  <REMARK>
 VINA RESULT:      -9.4      2.255      5.280
  Name = 
  1 active torsions:
  status: ('A' for Active; 'I' for Inactive)
    1  A    between atoms: C_9  and  C_22
                            x       y       z     vdW  Elec       q    Type
                         _______ _______ _______ _____ _____    ______ ____

>  <TORSDO>
F 1

$$$$
