=
 OpenBabel10262419483D

 25 28  0  0  1  0  0  0  0  0999 V2000
  188.0060  177.1610  145.0610 C   0  0  0  0  0  0  0  0  0  0  0  0
  186.8960  177.9240  145.2520 N   0  0  0  0  0  0  0  0  0  0  0  0
  187.5990  178.5600  147.4340 C   0  0  0  0  0  3  0  0  0  0  0  0
  185.8210  178.1820  144.4920 C   0  0  0  0  0  0  0  0  0  0  0  0
  190.5570  177.2680  142.2090 N   0  0  0  0  0  2  0  0  0  0  0  0
  183.4400  179.0330  143.3730 C   0  0  0  0  0  3  0  0  0  0  0  0
  188.7340  177.8250  147.2490 N   0  0  0  0  0  0  0  0  0  0  0  0
  184.9870  179.0100  145.1990 C   0  0  0  0  0  0  0  0  0  0  0  0
  183.7800  179.4590  144.6700 C   0  0  0  0  0  3  0  0  0  0  0  0
  190.2640  176.4110  145.8270 C   0  0  2  0  0  3  0  0  0  0  0  0
  191.3230  176.7200  146.8730 C   0  0  0  0  0  1  0  0  0  0  0  0
  189.8890  177.3850  140.9470 C   0  0  0  0  0  0  0  0  0  0  0  0
  188.2980  176.2000  143.5670 S   0  0  0  0  0  0  0  0  0  0  0  0
  184.3010  178.1810  142.6450 C   0  0  0  0  0  3  0  0  0  0  0  0
  186.6710  178.6050  146.3980 C   0  0  0  0  0  0  0  0  0  0  0  0
  185.5010  179.2940  146.4160 N   0  0  0  0  0  0  0  0  0  0  0  0
  190.7650  176.7840  144.5020 N   0  0  0  0  0  0  0  0  0  0  0  0
  185.5140  177.7420  143.2050 C   0  0  0  0  0  3  0  0  0  0  0  0
  190.0130  176.7700  143.4390 C   0  0  0  0  0  0  0  0  0  0  0  0
  188.9640  177.1320  146.0900 C   0  0  0  0  0  0  0  0  0  0  0  0
  188.6870  177.0350  140.8040 O   0  0  0  0  0  0  0  0  0  0  0  0
  190.6410  177.9050  139.7710 C   0  0  0  0  0  2  0  0  0  0  0  0
  190.4580  177.0020  138.6010 C   0  0  0  0  0  0  0  0  0  0  0  0
  189.9480  177.4430  137.5390 O   0  0  0  0  0  0  0  0  0  0  0  0
  190.8930  175.6490  138.6710 N   0  0  0  0  0  1  0  0  0  0  0  0
  1  2  1  0  0  0  0
  1 20  2  0  0  0  0
  2 15  1  0  0  0  0
  4  8  1  0  0  0  0
  4  2  1  0  0  0  0
  5 19  1  0  0  0  0
  6  9  1  0  0  0  0
  7  3  2  0  0  0  0
  8 16  1  0  0  0  0
  9  8  2  0  0  0  0
 10 20  1  0  0  0  0
 10 11  1  1  0  0  0
 12  5  1  0  0  0  0
 13  1  1  0  0  0  0
 14 18  1  0  0  0  0
 14  6  2  0  0  0  0
 15 16  2  0  0  0  0
 15  3  1  0  0  0  0
 17 10  1  0  0  0  0
 18  4  2  0  0  0  0
 19 13  1  0  0  0  0
 19 17  2  0  0  0  0
 20  7  1  0  0  0  0
 21 12  2  0  0  0  0
 22 12  1  0  0  0  0
 23 25  1  0  0  0  0
 23 22  1  0  0  0  0
 24 23  2  0  0  0  0
M  END
>  <MODEL>
1

>  <REMARK>
 VINA RESULT:      -8.5      0.000      0.000
  Name = 
  2 active torsions:
  status: ('A' for Active; 'I' for Inactive)
    1  A    between atoms: C_2  and  C_21
    2  A    between atoms: C_15  and  C_21
                            x       y       z     vdW  Elec       q    Type
                         _______ _______ _______ _____ _____    ______ ____

>  <TORSDO>
F 2

$$$$
=
 OpenBabel10262419483D

 25 28  0  0  1  0  0  0  0  0999 V2000
  187.6610  178.0140  142.4010 C   0  0  0  0  0  0  0  0  0  0  0  0
  188.6690  177.4540  141.6790 N   0  0  0  0  0  0  0  0  0  0  0  0
  189.5760  176.3900  143.6030 C   0  0  0  0  0  3  0  0  0  0  0  0
  189.0090  177.5150  140.3830 C   0  0  0  0  0  0  0  0  0  0  0  0
  183.8800  177.8440  141.8220 N   0  0  0  0  0  2  0  0  0  0  0  0
  190.1420  177.2970  137.8700 C   0  0  0  0  0  3  0  0  0  0  0  0
  188.5550  176.9170  144.3390 N   0  0  0  0  0  0  0  0  0  0  0  0
  190.1430  176.7650  140.2040 C   0  0  0  0  0  0  0  0  0  0  0  0
  190.7440  176.6320  138.9550 C   0  0  0  0  0  3  0  0  0  0  0  0
  186.3980  178.2090  144.5500 C   0  0  2  0  0  3  0  0  0  0  0  0
  186.2840  177.5580  145.9190 C   0  0  0  0  0  1  0  0  0  0  0  0
  183.5800  178.0380  140.4350 C   0  0  0  0  0  0  0  0  0  0  0  0
  186.4240  179.1090  141.6860 S   0  0  0  0  0  0  0  0  0  0  0  0
  188.9730  178.0680  138.0560 C   0  0  0  0  0  3  0  0  0  0  0  0
  189.6150  176.6690  142.2410 C   0  0  0  0  0  0  0  0  0  0  0  0
  190.5530  176.2170  141.3690 N   0  0  0  0  0  0  0  0  0  0  0  0
  185.1800  177.9430  143.7810 N   0  0  0  0  0  0  0  0  0  0  0  0
  188.3880  178.1860  139.3300 C   0  0  0  0  0  3  0  0  0  0  0  0
  185.0650  178.2520  142.5220 C   0  0  0  0  0  0  0  0  0  0  0  0
  187.5950  177.7150  143.7740 C   0  0  0  0  0  0  0  0  0  0  0  0
  184.3850  178.6230  139.6640 O   0  0  0  0  0  0  0  0  0  0  0  0
  182.2740  177.5600  139.9000 C   0  0  0  0  0  2  0  0  0  0  0  0
  181.1530  178.3110  140.5310 C   0  0  0  0  0  0  0  0  0  0  0  0
  181.1120  179.5660  140.4510 O   0  0  0  0  0  0  0  0  0  0  0  0
  180.1090  177.6070  141.1940 N   0  0  0  0  0  1  0  0  0  0  0  0
  1 20  2  0  0  0  0
  2 15  1  0  0  0  0
  2  1  1  0  0  0  0
  3  7  2  0  0  0  0
  4  2  1  0  0  0  0
  5 19  1  0  0  0  0
  6 14  2  0  0  0  0
  6  9  1  0  0  0  0
  8  4  1  0  0  0  0
  8 16  1  0  0  0  0
  9  8  2  0  0  0  0
 10 11  1  1  0  0  0
 12  5  1  0  0  0  0
 13  1  1  0  0  0  0
 13 19  1  0  0  0  0
 14 18  1  0  0  0  0
 15  3  1  0  0  0  0
 16 15  2  0  0  0  0
 17 10  1  0  0  0  0
 18  4  2  0  0  0  0
 19 17  2  0  0  0  0
 20  7  1  0  0  0  0
 20 10  1  0  0  0  0
 21 12  2  0  0  0  0
 22 12  1  0  0  0  0
 22 23  1  0  0  0  0
 23 25  1  0  0  0  0
 24 23  2  0  0  0  0
M  END
>  <MODEL>
2

>  <REMARK>
 VINA RESULT:      -7.5      3.178      6.581
  Name = 
  2 active torsions:
  status: ('A' for Active; 'I' for Inactive)
    1  A    between atoms: C_2  and  C_21
    2  A    between atoms: C_15  and  C_21
                            x       y       z     vdW  Elec       q    Type
                         _______ _______ _______ _____ _____    ______ ____

>  <TORSDO>
F 2

$$$$
=
 OpenBabel10262419483D

 25 28  0  0  1  0  0  0  0  0999 V2000
  186.7300  178.3700  142.8110 C   0  0  0  0  0  0  0  0  0  0  0  0
  187.8810  177.7550  142.4230 N   0  0  0  0  0  0  0  0  0  0  0  0
  188.2850  176.9310  144.6170 C   0  0  0  0  0  3  0  0  0  0  0  0
  188.5260  177.6780  141.2500 C   0  0  0  0  0  0  0  0  0  0  0  0
  183.2040  178.0550  141.3550 N   0  0  0  0  0  2  0  0  0  0  0  0
  190.2360  177.2060  139.1280 C   0  0  0  0  0  3  0  0  0  0  0  0
  187.1190  177.5150  145.0190 N   0  0  0  0  0  0  0  0  0  0  0  0
  189.6650  176.9380  141.4370 C   0  0  0  0  0  0  0  0  0  0  0  0
  190.5510  176.6790  140.3940 C   0  0  0  0  0  3  0  0  0  0  0  0
  184.9840  178.7750  144.5520 C   0  0  2  0  0  3  0  0  0  0  0  0
  184.5350  178.2790  145.9170 C   0  0  0  0  0  1  0  0  0  0  0  0
  183.2520  178.0870  139.9240 C   0  0  0  0  0  0  0  0  0  0  0  0
  185.7120  179.3520  141.6970 S   0  0  0  0  0  0  0  0  0  0  0  0
  189.0620  177.9680  138.9360 C   0  0  0  0  0  3  0  0  0  0  0  0
  188.6570  177.0580  143.2820 C   0  0  0  0  0  0  0  0  0  0  0  0
  189.7750  176.5310  142.7210 N   0  0  0  0  0  0  0  0  0  0  0  0
  183.9880  178.4000  143.5460 N   0  0  0  0  0  0  0  0  0  0  0  0
  188.1850  178.2140  140.0080 C   0  0  0  0  0  3  0  0  0  0  0  0
  184.1850  178.5640  142.2700 C   0  0  0  0  0  0  0  0  0  0  0  0
  186.3300  178.2240  144.1510 C   0  0  0  0  0  0  0  0  0  0  0  0
  184.2230  178.6010  139.3090 O   0  0  0  0  0  0  0  0  0  0  0  0
  182.1120  177.5260  139.1450 C   0  0  0  0  0  2  0  0  0  0  0  0
  182.1240  176.0380  139.2140 C   0  0  0  0  0  0  0  0  0  0  0  0
  183.1050  175.3940  138.7600 O   0  0  0  0  0  0  0  0  0  0  0  0
  181.0420  175.3450  139.8270 N   0  0  0  0  0  1  0  0  0  0  0  0
  1 20  2  0  0  0  0
  2  1  1  0  0  0  0
  2 15  1  0  0  0  0
  3  7  2  0  0  0  0
  4  8  1  0  0  0  0
  4  2  1  0  0  0  0
  5 19  1  0  0  0  0
  6  9  1  0  0  0  0
  8 16  1  0  0  0  0
  9  8  2  0  0  0  0
 10 11  1  1  0  0  0
 12  5  1  0  0  0  0
 13 19  1  0  0  0  0
 13  1  1  0  0  0  0
 14  6  2  0  0  0  0
 14 18  1  0  0  0  0
 15  3  1  0  0  0  0
 16 15  2  0  0  0  0
 17 10  1  0  0  0  0
 18  4  2  0  0  0  0
 19 17  2  0  0  0  0
 20 10  1  0  0  0  0
 20  7  1  0  0  0  0
 21 12  2  0  0  0  0
 22 23  1  0  0  0  0
 22 12  1  0  0  0  0
 23 25  1  0  0  0  0
 24 23  2  0  0  0  0
M  END
>  <MODEL>
3

>  <REMARK>
 VINA RESULT:      -7.4      3.273      6.224
  Name = 
  2 active torsions:
  status: ('A' for Active; 'I' for Inactive)
    1  A    between atoms: C_2  and  C_21
    2  A    between atoms: C_15  and  C_21
                            x       y       z     vdW  Elec       q    Type
                         _______ _______ _______ _____ _____    ______ ____

>  <TORSDO>
F 2

$$$$
=
 OpenBabel10262419483D

 25 28  0  0  1  0  0  0  0  0999 V2000
  186.1520  178.4900  142.8560 C   0  0  0  0  0  0  0  0  0  0  0  0
  187.3280  177.8110  142.9400 N   0  0  0  0  0  0  0  0  0  0  0  0
  186.9830  177.3180  145.2410 C   0  0  0  0  0  3  0  0  0  0  0  0
  188.3010  177.5540  142.0540 C   0  0  0  0  0  0  0  0  0  0  0  0
  183.2410  178.0020  140.4190 N   0  0  0  0  0  2  0  0  0  0  0  0
  190.5560  176.7530  140.6660 C   0  0  0  0  0  3  0  0  0  0  0  0
  185.7850  177.9690  145.1700 N   0  0  0  0  0  0  0  0  0  0  0  0
  189.2810  176.8370  142.6910 C   0  0  0  0  0  0  0  0  0  0  0  0
  190.4300  176.4160  142.0270 C   0  0  0  0  0  3  0  0  0  0  0  0
  183.9770  179.1690  143.8840 C   0  0  2  0  0  3  0  0  0  0  0  0
  183.0990  178.8860  145.0920 C   0  0  0  0  0  1  0  0  0  0  0  0
  183.7330  177.8200  139.0860 C   0  0  0  0  0  0  0  0  0  0  0  0
  185.5880  179.3070  141.3540 S   0  0  0  0  0  0  0  0  0  0  0  0
  189.5450  177.4910  140.0110 C   0  0  0  0  0  3  0  0  0  0  0  0
  187.7580  177.2410  144.0880 C   0  0  0  0  0  0  0  0  0  0  0  0
  188.9630  176.6250  143.9870 N   0  0  0  0  0  0  0  0  0  0  0  0
  183.3230  178.6600  142.6770 N   0  0  0  0  0  0  0  0  0  0  0  0
  188.3940  177.9040  140.7070 C   0  0  0  0  0  3  0  0  0  0  0  0
  183.9160  178.6300  141.5180 C   0  0  0  0  0  0  0  0  0  0  0  0
  185.3470  178.5490  144.0080 C   0  0  0  0  0  0  0  0  0  0  0  0
  184.8750  178.2260  138.7460 O   0  0  0  0  0  0  0  0  0  0  0  0
  182.8620  177.1620  138.0730 C   0  0  0  0  0  2  0  0  0  0  0  0
  182.5730  175.7570  138.4750 C   0  0  0  0  0  0  0  0  0  0  0  0
  183.4570  174.8710  138.3430 O   0  0  0  0  0  0  0  0  0  0  0  0
  181.3110  175.4230  139.0400 N   0  0  0  0  0  1  0  0  0  0  0  0
  1  2  1  0  0  0  0
  1 20  2  0  0  0  0
  2 15  1  0  0  0  0
  4  8  1  0  0  0  0
  4  2  1  0  0  0  0
  5 19  1  0  0  0  0
  6  9  1  0  0  0  0
  7  3  2  0  0  0  0
  8 16  1  0  0  0  0
  9  8  2  0  0  0  0
 10 20  1  0  0  0  0
 10 11  1  1  0  0  0
 12  5  1  0  0  0  0
 13 19  1  0  0  0  0
 13  1  1  0  0  0  0
 14  6  2  0  0  0  0
 14 18  1  0  0  0  0
 15  3  1  0  0  0  0
 16 15  2  0  0  0  0
 17 10  1  0  0  0  0
 18  4  2  0  0  0  0
 19 17  2  0  0  0  0
 20  7  1  0  0  0  0
 21 12  2  0  0  0  0
 22 23  1  0  0  0  0
 22 12  1  0  0  0  0
 23 25  1  0  0  0  0
 24 23  2  0  0  0  0
M  END
>  <MODEL>
4

>  <REMARK>
 VINA RESULT:      -7.4      3.489      6.152
  Name = 
  2 active torsions:
  status: ('A' for Active; 'I' for Inactive)
    1  A    between atoms: C_2  and  C_21
    2  A    between atoms: C_15  and  C_21
                            x       y       z     vdW  Elec       q    Type
                         _______ _______ _______ _____ _____    ______ ____

>  <TORSDO>
F 2

$$$$
=
 OpenBabel10262419483D

 25 28  0  0  1  0  0  0  0  0999 V2000
  187.1960  178.5070  141.7920 C   0  0  0  0  0  0  0  0  0  0  0  0
  187.2660  178.1020  143.0890 N   0  0  0  0  0  0  0  0  0  0  0  0
  184.8990  178.1440  143.3230 C   0  0  0  0  0  3  0  0  0  0  0  0
  188.2920  177.8180  143.9050 C   0  0  0  0  0  0  0  0  0  0  0  0
  188.7010  176.8910  138.6650 N   0  0  0  0  0  2  0  0  0  0  0  0
  189.9960  177.1320  145.9720 C   0  0  0  0  0  3  0  0  0  0  0  0
  184.8070  178.5200  142.0140 N   0  0  0  0  0  0  0  0  0  0  0  0
  187.7810  177.4790  145.1310 C   0  0  0  0  0  0  0  0  0  0  0  0
  188.6060  177.1280  146.1970 C   0  0  0  0  0  3  0  0  0  0  0  0
  185.8280  179.0030  139.7600 C   0  0  2  0  0  3  0  0  0  0  0  0
  184.4110  178.8720  139.2250 C   0  0  0  0  0  1  0  0  0  0  0  0
  190.0490  176.4780  138.9180 C   0  0  0  0  0  0  0  0  0  0  0  0
  188.6480  178.8030  140.7700 S   0  0  0  0  0  0  0  0  0  0  0  0
  190.5200  177.4800  144.7080 C   0  0  0  0  0  3  0  0  0  0  0  0
  186.1660  177.9270  143.8560 C   0  0  0  0  0  0  0  0  0  0  0  0
  186.4320  177.5410  145.1300 N   0  0  0  0  0  0  0  0  0  0  0  0
  186.7120  178.0950  139.0240 N   0  0  0  0  0  0  0  0  0  0  0  0
  189.6630  177.8310  143.6490 C   0  0  0  0  0  3  0  0  0  0  0  0
  187.9490  177.8880  139.3710 C   0  0  0  0  0  0  0  0  0  0  0  0
  185.9190  178.7000  141.2350 C   0  0  0  0  0  0  0  0  0  0  0  0
  190.7320  176.9910  139.8430 O   0  0  0  0  0  0  0  0  0  0  0  0
  190.6660  175.4370  138.0490 C   0  0  0  0  0  2  0  0  0  0  0  0
  191.4730  176.0750  136.9730 C   0  0  0  0  0  0  0  0  0  0  0  0
  190.9340  176.3770  135.8760 O   0  0  0  0  0  0  0  0  0  0  0  0
  192.8460  176.3770  137.1960 N   0  0  0  0  0  1  0  0  0  0  0  0
  1  2  1  0  0  0  0
  2 15  1  0  0  0  0
  2  4  1  0  0  0  0
  3 15  1  0  0  0  0
  4  8  1  0  0  0  0
  5 12  1  0  0  0  0
  5 19  1  0  0  0  0
  6  9  1  0  0  0  0
  7  3  2  0  0  0  0
  8  9  2  0  0  0  0
 10 11  1  6  0  0  0
 10 20  1  0  0  0  0
 12 21  2  0  0  0  0
 13  1  1  0  0  0  0
 14  6  2  0  0  0  0
 15 16  2  0  0  0  0
 16  8  1  0  0  0  0
 17 19  2  0  0  0  0
 17 10  1  0  0  0  0
 18  4  2  0  0  0  0
 18 14  1  0  0  0  0
 19 13  1  0  0  0  0
 20  1  2  0  0  0  0
 20  7  1  0  0  0  0
 22 12  1  0  0  0  0
 23 25  1  0  0  0  0
 23 22  1  0  0  0  0
 24 23  2  0  0  0  0
M  END
>  <MODEL>
5

>  <REMARK>
 VINA RESULT:      -7.2      2.344      4.923
  Name = 
  2 active torsions:
  status: ('A' for Active; 'I' for Inactive)
    1  A    between atoms: C_2  and  C_21
    2  A    between atoms: C_15  and  C_21
                            x       y       z     vdW  Elec       q    Type
                         _______ _______ _______ _____ _____    ______ ____

>  <TORSDO>
F 2

$$$$
=
 OpenBabel10262419483D

 25 28  0  0  1  0  0  0  0  0999 V2000
  185.9180  178.6460  140.3350 C   0  0  0  0  0  0  0  0  0  0  0  0
  184.7290  178.5980  140.9940 N   0  0  0  0  0  0  0  0  0  0  0  0
  183.5380  178.1060  138.9940 C   0  0  0  0  0  3  0  0  0  0  0  0
  184.3860  178.7840  142.2770 C   0  0  0  0  0  0  0  0  0  0  0  0
  189.1640  176.7470  141.0510 N   0  0  0  0  0  2  0  0  0  0  0  0
  183.1480  179.0630  144.7340 C   0  0  0  0  0  3  0  0  0  0  0  0
  184.7250  178.1190  138.3200 N   0  0  0  0  0  0  0  0  0  0  0  0
  183.0270  178.6360  142.3820 C   0  0  0  0  0  0  0  0  0  0  0  0
  182.3670  178.7690  143.6000 C   0  0  0  0  0  3  0  0  0  0  0  0
  187.2410  178.2790  138.2460 C   0  0  2  0  0  3  0  0  0  0  0  0
  187.1180  177.6750  136.8570 C   0  0  0  0  0  1  0  0  0  0  0  0
  189.4460  176.7550  142.4550 C   0  0  0  0  0  0  0  0  0  0  0  0
  187.4800  179.0370  141.1410 S   0  0  0  0  0  0  0  0  0  0  0  0
  184.5480  179.2150  144.6250 C   0  0  0  0  0  3  0  0  0  0  0  0
  183.5590  178.3460  140.3650 C   0  0  0  0  0  0  0  0  0  0  0  0
  182.4740  178.3590  141.1800 N   0  0  0  0  0  0  0  0  0  0  0  0
  188.1610  177.4690  139.0490 N   0  0  0  0  0  0  0  0  0  0  0  0
  185.1890  179.0740  143.3800 C   0  0  0  0  0  3  0  0  0  0  0  0
  188.3370  177.6670  140.3230 C   0  0  0  0  0  0  0  0  0  0  0  0
  185.9130  178.3750  138.9550 C   0  0  0  0  0  0  0  0  0  0  0  0
  188.9600  177.6310  143.2180 O   0  0  0  0  0  0  0  0  0  0  0  0
  190.3580  175.7220  143.0200 C   0  0  0  0  0  2  0  0  0  0  0  0
  191.4730  176.3690  143.7650 C   0  0  0  0  0  0  0  0  0  0  0  0
  192.0960  177.3360  143.2530 O   0  0  0  0  0  0  0  0  0  0  0  0
  191.8130  175.9180  145.0720 N   0  0  0  0  0  1  0  0  0  0  0  0
  1  2  1  0  0  0  0
  1 13  1  0  0  0  0
  2  4  1  0  0  0  0
  3 15  1  0  0  0  0
  4  8  2  0  0  0  0
  4 18  1  0  0  0  0
  5 12  1  0  0  0  0
  7 20  1  0  0  0  0
  7  3  2  0  0  0  0
  8  9  1  0  0  0  0
  9  6  2  0  0  0  0
 10 11  1  6  0  0  0
 10 20  1  0  0  0  0
 10 17  1  0  0  0  0
 12 22  1  0  0  0  0
 12 21  2  0  0  0  0
 14  6  1  0  0  0  0
 15  2  1  0  0  0  0
 15 16  2  0  0  0  0
 16  8  1  0  0  0  0
 17 19  2  0  0  0  0
 18 14  2  0  0  0  0
 19  5  1  0  0  0  0
 19 13  1  0  0  0  0
 20  1  2  0  0  0  0
 22 23  1  0  0  0  0
 23 25  1  0  0  0  0
 24 23  2  0  0  0  0
M  END
>  <MODEL>
6

>  <REMARK>
 VINA RESULT:      -7.1      3.124      5.665
  Name = 
  2 active torsions:
  status: ('A' for Active; 'I' for Inactive)
    1  A    between atoms: C_2  and  C_21
    2  A    between atoms: C_15  and  C_21
                            x       y       z     vdW  Elec       q    Type
                         _______ _______ _______ _____ _____    ______ ____

>  <TORSDO>
F 2

$$$$
=
 OpenBabel10262419483D

 25 28  0  0  1  0  0  0  0  0999 V2000
  189.4640  176.9650  143.7380 C   0  0  0  0  0  0  0  0  0  0  0  0
  189.7400  177.2970  145.0290 N   0  0  0  0  0  0  0  0  0  0  0  0
  192.0570  177.5610  144.5590 C   0  0  0  0  0  3  0  0  0  0  0  0
  188.9800  177.4030  146.1290 C   0  0  0  0  0  0  0  0  0  0  0  0
  186.9170  178.5070  141.3320 N   0  0  0  0  0  2  0  0  0  0  0  0
  187.9070  177.7610  148.6530 C   0  0  0  0  0  3  0  0  0  0  0  0
  191.7950  177.2610  143.2540 N   0  0  0  0  0  0  0  0  0  0  0  0
  189.7930  177.7510  147.1770 C   0  0  0  0  0  0  0  0  0  0  0  0
  189.2900  177.9400  148.4620 C   0  0  0  0  0  3  0  0  0  0  0  0
  190.2070  176.7500  141.3620 C   0  0  2  0  0  3  0  0  0  0  0  0
  191.3740  177.0940  140.4500 C   0  0  0  0  0  1  0  0  0  0  0  0
  185.6690  178.7250  142.0000 C   0  0  0  0  0  0  0  0  0  0  0  0
  187.8160  176.5250  143.1630 S   0  0  0  0  0  0  0  0  0  0  0  0
  187.0710  177.4030  147.5710 C   0  0  0  0  0  3  0  0  0  0  0  0
  190.9910  177.5820  145.4540 C   0  0  0  0  0  0  0  0  0  0  0  0
  191.0770  177.8700  146.7780 N   0  0  0  0  0  0  0  0  0  0  0  0
  189.0460  177.5650  140.9940 N   0  0  0  0  0  0  0  0  0  0  0  0
  187.6060  177.2190  146.2830 C   0  0  0  0  0  3  0  0  0  0  0  0
  187.9550  177.5880  141.7030 C   0  0  0  0  0  0  0  0  0  0  0  0
  190.5290  176.9700  142.8200 C   0  0  0  0  0  0  0  0  0  0  0  0
  185.3580  178.0830  143.0380 O   0  0  0  0  0  0  0  0  0  0  0  0
  184.7060  179.7130  141.4390 C   0  0  0  0  0  2  0  0  0  0  0  0
  184.2970  179.3110  140.0640 C   0  0  0  0  0  0  0  0  0  0  0  0
  184.4300  180.1160  139.1070 O   0  0  0  0  0  0  0  0  0  0  0  0
  183.7880  178.0030  139.8270 N   0  0  0  0  0  1  0  0  0  0  0  0
  1  2  1  0  0  0  0
  2 15  1  0  0  0  0
  2  4  1  0  0  0  0
  3 15  1  0  0  0  0
  4 18  2  0  0  0  0
  4  8  1  0  0  0  0
  5 19  1  0  0  0  0
  5 12  1  0  0  0  0
  7  3  2  0  0  0  0
  8  9  2  0  0  0  0
  9  6  1  0  0  0  0
 10 11  1  6  0  0  0
 10 20  1  0  0  0  0
 12 21  2  0  0  0  0
 13  1  1  0  0  0  0
 14  6  2  0  0  0  0
 15 16  2  0  0  0  0
 16  8  1  0  0  0  0
 17 10  1  0  0  0  0
 17 19  2  0  0  0  0
 18 14  1  0  0  0  0
 19 13  1  0  0  0  0
 20  7  1  0  0  0  0
 20  1  2  0  0  0  0
 22 12  1  0  0  0  0
 23 22  1  0  0  0  0
 24 23  2  0  0  0  0
 25 23  1  0  0  0  0
M  END
>  <MODEL>
7

>  <REMARK>
 VINA RESULT:      -7.0      2.608      5.070
  Name = 
  2 active torsions:
  status: ('A' for Active; 'I' for Inactive)
    1  A    between atoms: C_2  and  C_21
    2  A    between atoms: C_15  and  C_21
                            x       y       z     vdW  Elec       q    Type
                         _______ _______ _______ _____ _____    ______ ____

>  <TORSDO>
F 2

$$$$
=
 OpenBabel10262419483D

 25 28  0  0  1  0  0  0  0  0999 V2000
  187.5890  178.3700  141.2840 C   0  0  0  0  0  0  0  0  0  0  0  0
  188.0810  177.8860  142.4570 N   0  0  0  0  0  0  0  0  0  0  0  0
  185.9350  177.9340  143.4810 C   0  0  0  0  0  3  0  0  0  0  0  0
  189.3140  177.5430  142.8590 C   0  0  0  0  0  0  0  0  0  0  0  0
  187.9010  176.9340  137.7490 N   0  0  0  0  0  2  0  0  0  0  0  0
  191.5950  176.7160  144.1870 C   0  0  0  0  0  3  0  0  0  0  0  0
  185.4170  178.3910  142.3030 N   0  0  0  0  0  0  0  0  0  0  0  0
  189.2370  177.1340  144.1660 C   0  0  0  0  0  0  0  0  0  0  0  0
  190.3630  176.7110  144.8680 C   0  0  0  0  0  3  0  0  0  0  0  0
  185.6300  179.0010  139.8660 C   0  0  2  0  0  3  0  0  0  0  0  0
  184.1130  178.9150  139.8360 C   0  0  0  0  0  1  0  0  0  0  0  0
  189.2430  176.4930  137.5070 C   0  0  0  0  0  0  0  0  0  0  0  0
  188.6190  178.7140  139.8480 S   0  0  0  0  0  0  0  0  0  0  0  0
  191.6710  177.1370  142.8400 C   0  0  0  0  0  3  0  0  0  0  0  0
  187.3000  177.6740  143.5400 C   0  0  0  0  0  0  0  0  0  0  0  0
  187.9690  177.2090  144.6260 N   0  0  0  0  0  0  0  0  0  0  0  0
  186.1870  178.1320  138.8260 N   0  0  0  0  0  0  0  0  0  0  0  0
  190.5170  177.5590  142.1550 C   0  0  0  0  0  3  0  0  0  0  0  0
  187.4620  177.8930  138.7210 C   0  0  0  0  0  0  0  0  0  0  0  0
  186.2050  178.6080  141.2040 C   0  0  0  0  0  0  0  0  0  0  0  0
  190.2130  176.9430  138.1730 O   0  0  0  0  0  0  0  0  0  0  0  0
  189.4990  175.5020  136.4260 C   0  0  0  0  0  2  0  0  0  0  0  0
  189.5750  174.1270  136.9930 C   0  0  0  0  0  0  0  0  0  0  0  0
  190.6170  173.7470  137.5870 O   0  0  0  0  0  0  0  0  0  0  0  0
  188.4550  173.2540  136.8960 N   0  0  0  0  0  1  0  0  0  0  0  0
  1  2  1  0  0  0  0
  2  4  1  0  0  0  0
  2 15  1  0  0  0  0
  3 15  1  0  0  0  0
  4  8  1  0  0  0  0
  5 19  1  0  0  0  0
  6  9  1  0  0  0  0
  7  3  2  0  0  0  0
  8 16  1  0  0  0  0
  8  9  2  0  0  0  0
 10 11  1  1  0  0  0
 10 20  1  0  0  0  0
 12  5  1  0  0  0  0
 12 21  2  0  0  0  0
 13  1  1  0  0  0  0
 14  6  2  0  0  0  0
 15 16  2  0  0  0  0
 17 10  1  0  0  0  0
 18 14  1  0  0  0  0
 18  4  2  0  0  0  0
 19 17  2  0  0  0  0
 19 13  1  0  0  0  0
 20  1  2  0  0  0  0
 20  7  1  0  0  0  0
 22 23  1  0  0  0  0
 22 12  1  0  0  0  0
 23 24  2  0  0  0  0
 25 23  1  0  0  0  0
M  END
>  <MODEL>
8

>  <REMARK>
 VINA RESULT:      -6.9      2.736      5.524
  Name = 
  2 active torsions:
  status: ('A' for Active; 'I' for Inactive)
    1  A    between atoms: C_2  and  C_21
    2  A    between atoms: C_15  and  C_21
                            x       y       z     vdW  Elec       q    Type
                         _______ _______ _______ _____ _____    ______ ____

>  <TORSDO>
F 2

$$$$
=
 OpenBabel10262419483D

 25 28  0  0  1  0  0  0  0  0999 V2000
  188.4420  177.2340  138.1130 C   0  0  0  0  0  0  0  0  0  0  0  0
  187.2690  177.0090  137.4610 N   0  0  0  0  0  0  0  0  0  0  0  0
  188.3320  175.6330  135.8380 C   0  0  0  0  0  3  0  0  0  0  0  0
  186.0130  177.4330  137.6650 C   0  0  0  0  0  0  0  0  0  0  0  0
  189.3000  176.7090  141.8070 N   0  0  0  0  0  2  0  0  0  0  0  0
  183.3060  177.9960  137.6190 C   0  0  0  0  0  3  0  0  0  0  0  0
  189.5130  175.8220  136.4960 N   0  0  0  0  0  0  0  0  0  0  0  0
  185.2200  176.9090  136.6770 C   0  0  0  0  0  0  0  0  0  0  0  0
  183.8540  177.1700  136.6190 C   0  0  0  0  0  3  0  0  0  0  0  0
  190.8690  176.7210  138.4230 C   0  0  2  0  0  3  0  0  0  0  0  0
  191.9400  175.7440  137.9680 C   0  0  0  0  0  1  0  0  0  0  0  0
  188.2410  177.1980  142.6380 C   0  0  0  0  0  0  0  0  0  0  0  0
  188.5800  178.2970  139.5600 S   0  0  0  0  0  0  0  0  0  0  0  0
  184.1250  178.5340  138.6370 C   0  0  0  0  0  3  0  0  0  0  0  0
  187.1910  176.2440  136.3500 C   0  0  0  0  0  0  0  0  0  0  0  0
  185.9430  176.1500  135.8250 N   0  0  0  0  0  0  0  0  0  0  0  0
  190.5720  176.4940  139.8400 N   0  0  0  0  0  0  0  0  0  0  0  0
  185.5030  178.2550  138.6710 C   0  0  0  0  0  3  0  0  0  0  0  0
  189.5890  177.0860  140.4530 C   0  0  0  0  0  0  0  0  0  0  0  0
  189.5960  176.5990  137.6220 C   0  0  0  0  0  0  0  0  0  0  0  0
  187.4210  178.0580  142.2220 O   0  0  0  0  0  0  0  0  0  0  0  0
  188.1240  176.6980  144.0370 C   0  0  0  0  0  2  0  0  0  0  0  0
  188.4680  177.7790  145.0020 C   0  0  0  0  0  0  0  0  0  0  0  0
  187.5820  178.2530  145.7590 O   0  0  0  0  0  0  0  0  0  0  0  0
  189.8070  178.2530  145.0930 N   0  0  0  0  0  1  0  0  0  0  0  0
  1 13  1  0  0  0  0
  2  4  1  0  0  0  0
  2  1  1  0  0  0  0
  3 15  1  0  0  0  0
  3  7  2  0  0  0  0
  4 18  1  0  0  0  0
  5 12  1  0  0  0  0
  6 14  1  0  0  0  0
  7 20  1  0  0  0  0
  8  4  2  0  0  0  0
  9  8  1  0  0  0  0
  9  6  2  0  0  0  0
 10 11  1  6  0  0  0
 10 17  1  0  0  0  0
 12 22  1  0  0  0  0
 13 19  1  0  0  0  0
 14 18  2  0  0  0  0
 15  2  1  0  0  0  0
 16 15  2  0  0  0  0
 16  8  1  0  0  0  0
 17 19  2  0  0  0  0
 19  5  1  0  0  0  0
 20  1  2  0  0  0  0
 20 10  1  0  0  0  0
 21 12  2  0  0  0  0
 22 23  1  0  0  0  0
 23 25  1  0  0  0  0
 23 24  2  0  0  0  0
M  END
>  <MODEL>
9

>  <REMARK>
 VINA RESULT:      -6.8      3.536      7.309
  Name = 
  2 active torsions:
  status: ('A' for Active; 'I' for Inactive)
    1  A    between atoms: C_2  and  C_21
    2  A    between atoms: C_15  and  C_21
                            x       y       z     vdW  Elec       q    Type
                         _______ _______ _______ _____ _____    ______ ____

>  <TORSDO>
F 2

$$$$
