=
 OpenBabel10262420033D

 27 30  0  0  1  0  0  0  0  0999 V2000
  181.6440  178.3190  140.7070 C   0  0  2  0  0  3  0  0  0  0  0  0
  181.4510  180.5580  139.4360 O   0  0  0  0  0  1  0  0  0  0  0  0
  181.2380  174.7950  138.4020 C   0  0  0  0  0  3  0  0  0  0  0  0
  181.5340  177.2460  139.7030 N   0  0  1  0  0  0  0  0  0  0  0  0
  182.7000  176.3520  139.7340 C   0  0  0  0  0  2  0  0  0  0  0  0
  180.3860  179.8960  142.2180 C   0  0  0  0  0  1  0  0  0  0  0  0
  179.0880  177.2010  140.2450 C   0  0  0  0  0  2  0  0  0  0  0  0
  182.6260  175.3670  138.5630 C   0  0  0  0  0  2  0  0  0  0  0  0
  179.1830  178.5600  139.5750 C   0  0  0  0  0  2  0  0  0  0  0  0
  180.1850  175.2990  139.0630 C   0  0  0  0  0  3  0  0  0  0  0  0
  180.3920  179.6650  140.4150 P   0  0  0  0  0  0  0  0  0  0  0  0
  180.3800  176.4040  140.0680 C   0  0  1  0  0  3  0  0  0  0  0  0
  178.9310  181.6120  141.5440 O   0  0  0  0  0  1  0  0  0  0  0  0
  179.5260  181.9900  139.3700 O   0  0  0  0  0  1  0  0  0  0  0  0
  179.1480  181.0160  140.2990 C   0  0  0  0  0  3  0  0  0  0  0  0
  183.0660  178.8940  140.8490 C   0  0  0  0  0  2  0  0  0  0  0  0
  183.6740  178.6500  142.1980 C   0  0  0  0  0  0  0  0  0  0  0  0
  185.6450  178.3050  145.9260 C   0  0  0  0  0  3  0  0  0  0  0  0
  187.5700  177.5310  147.1570 O   0  0  0  0  0  1  0  0  0  0  0  0
  182.8410  178.6920  143.4610 C   0  0  0  0  0  2  0  0  0  0  0  0
  186.8870  177.5530  143.5290 C   0  0  0  0  0  3  0  0  0  0  0  0
  187.5390  177.3540  144.7500 C   0  0  0  0  0  3  0  0  0  0  0  0
  184.9340  178.3280  142.2580 N   0  0  0  0  0  0  0  0  0  0  0  0
  186.9180  177.7270  145.9480 C   0  0  0  0  0  0  0  0  0  0  0  0
  184.9840  178.4900  144.7090 C   0  0  0  0  0  0  0  0  0  0  0  0
  185.6090  178.1180  143.5060 C   0  0  0  0  0  0  0  0  0  0  0  0
  183.6570  179.1830  144.6570 C   0  0  0  0  0  2  0  0  0  0  0  0
  1 16  1  6  0  0  0
  2 11  1  0  0  0  0
  3  8  1  0  0  0  0
  3 10  2  0  0  0  0
  4  5  1  1  0  0  0
  4 12  1  0  0  0  0
  4  1  1  0  0  0  0
  8  5  1  0  0  0  0
  9  7  1  0  0  0  0
  9 11  1  0  0  0  0
 11  1  1  0  0  0  0
 11  6  1  0  0  0  0
 12 10  1  6  0  0  0
 12  7  1  0  0  0  0
 14 15  1  0  0  0  0
 15 11  1  0  0  0  0
 15 13  1  0  0  0  0
 16 17  1  0  0  0  0
 17 23  2  0  0  0  0
 17 20  1  0  0  0  0
 18 24  1  0  0  0  0
 20 27  1  0  0  0  0
 21 22  1  0  0  0  0
 22 24  2  0  0  0  0
 23 26  1  0  0  0  0
 24 19  1  0  0  0  0
 25 18  2  0  0  0  0
 26 21  2  0  0  0  0
 26 25  1  0  0  0  0
 27 25  1  0  0  0  0
M  END
>  <MODEL>
1

>  <REMARK>
 VINA RESULT:      -7.7      0.000      0.000
  Name = 
  3 active torsions:
  status: ('A' for Active; 'I' for Inactive)
    1  A    between atoms: C_1  and  C_15
    2  A    between atoms: C_2  and  C_15
    3  A    between atoms: C_20  and  P_26
                            x       y       z     vdW  Elec       q    Type
                         _______ _______ _______ _____ _____    ______ ____

>  <TORSDO>
F 3

$$$$
=
 OpenBabel10262420033D

 27 30  0  0  1  0  0  0  0  0999 V2000
  189.1420  176.9800  138.1670 C   0  0  2  0  0  3  0  0  0  0  0  0
  188.4280  178.6720  136.3530 O   0  0  0  0  0  1  0  0  0  0  0  0
  192.8650  175.0540  137.5960 C   0  0  0  0  0  3  0  0  0  0  0  0
  190.4810  176.4900  137.7920 N   0  0  1  0  0  0  0  0  0  0  0  0
  191.4600  176.7140  138.8640 C   0  0  0  0  0  2  0  0  0  0  0  0
  186.6570  176.6960  137.8590 C   0  0  0  0  0  1  0  0  0  0  0  0
  189.2990  174.5910  136.6610 C   0  0  0  0  0  2  0  0  0  0  0  0
  192.8630  176.3540  138.3640 C   0  0  0  0  0  2  0  0  0  0  0  0
  188.8720  175.7390  135.7620 C   0  0  0  0  0  2  0  0  0  0  0  0
  191.7260  174.4570  137.2150 C   0  0  0  0  0  3  0  0  0  0  0  0
  188.0050  177.0670  136.6970 P   0  0  0  0  0  0  0  0  0  0  0  0
  190.3960  175.0270  137.6330 C   0  0  1  0  0  3  0  0  0  0  0  0
  185.4560  176.9820  135.8610 O   0  0  0  0  0  1  0  0  0  0  0  0
  186.8430  178.2830  134.5940 O   0  0  0  0  0  1  0  0  0  0  0  0
  186.7500  177.1110  135.3510 C   0  0  0  0  0  3  0  0  0  0  0  0
  189.1620  178.3120  138.9420 C   0  0  0  0  0  2  0  0  0  0  0  0
  188.5660  178.2090  140.3140 C   0  0  0  0  0  0  0  0  0  0  0  0
  186.5760  177.6630  144.0080 C   0  0  0  0  0  3  0  0  0  0  0  0
  184.7620  178.2970  145.4670 O   0  0  0  0  0  1  0  0  0  0  0  0
  189.3490  177.6430  141.4780 C   0  0  0  0  0  2  0  0  0  0  0  0
  185.5270  179.3140  142.0020 C   0  0  0  0  0  3  0  0  0  0  0  0
  184.8820  179.2170  143.2390 C   0  0  0  0  0  3  0  0  0  0  0  0
  187.3690  178.6870  140.5040 N   0  0  0  0  0  0  0  0  0  0  0  0
  185.4080  178.3940  144.2420 C   0  0  0  0  0  0  0  0  0  0  0  0
  187.2310  177.7710  142.7780 C   0  0  0  0  0  0  0  0  0  0  0  0
  186.7030  178.5950  141.7700 C   0  0  0  0  0  0  0  0  0  0  0  0
  188.4360  176.9330  142.4780 C   0  0  0  0  0  2  0  0  0  0  0  0
  1 16  1  6  0  0  0
  2 11  1  0  0  0  0
  3  8  1  0  0  0  0
  4  1  1  0  0  0  0
  4  5  1  1  0  0  0
  8  5  1  0  0  0  0
  9  7  1  0  0  0  0
  9 11  1  0  0  0  0
 10  3  2  0  0  0  0
 10 12  1  0  0  0  0
 11  6  1  0  0  0  0
 11  1  1  0  0  0  0
 12  7  1  6  0  0  0
 12  4  1  0  0  0  0
 14 15  1  0  0  0  0
 15 13  1  0  0  0  0
 15 11  1  0  0  0  0
 16 17  1  0  0  0  0
 17 23  2  0  0  0  0
 17 20  1  0  0  0  0
 18 24  1  0  0  0  0
 20 27  1  0  0  0  0
 21 22  1  0  0  0  0
 22 24  2  0  0  0  0
 23 26  1  0  0  0  0
 24 19  1  0  0  0  0
 25 18  2  0  0  0  0
 26 21  2  0  0  0  0
 26 25  1  0  0  0  0
 27 25  1  0  0  0  0
M  END
>  <MODEL>
2

>  <REMARK>
 VINA RESULT:      -7.6      5.675      7.842
  Name = 
  3 active torsions:
  status: ('A' for Active; 'I' for Inactive)
    1  A    between atoms: C_1  and  C_15
    2  A    between atoms: C_2  and  C_15
    3  A    between atoms: C_20  and  P_26
                            x       y       z     vdW  Elec       q    Type
                         _______ _______ _______ _____ _____    ______ ____

>  <TORSDO>
F 3

$$$$
=
 OpenBabel10262420033D

 27 30  0  0  1  0  0  0  0  0999 V2000
  184.5230  177.6110  138.4340 C   0  0  2  0  0  3  0  0  0  0  0  0
  182.3100  178.6340  137.5850 O   0  0  0  0  0  1  0  0  0  0  0  0
  187.5460  176.9780  135.5430 C   0  0  0  0  0  3  0  0  0  0  0  0
  185.4350  177.5420  137.2780 N   0  0  1  0  0  0  0  0  0  0  0  0
  186.6910  178.2590  137.5340 C   0  0  0  0  0  2  0  0  0  0  0  0
  182.6690  176.4620  139.6980 C   0  0  0  0  0  1  0  0  0  0  0  0
  184.6130  175.1950  136.9660 C   0  0  0  0  0  2  0  0  0  0  0  0
  187.5250  178.3120  136.2500 C   0  0  0  0  0  2  0  0  0  0  0  0
  183.3510  175.9640  136.6150 C   0  0  0  0  0  2  0  0  0  0  0  0
  186.7250  175.9780  135.8970 C   0  0  0  0  0  3  0  0  0  0  0  0
  182.8020  177.0620  137.9870 P   0  0  0  0  0  0  0  0  0  0  0  0
  185.8150  176.1310  137.0880 C   0  0  1  0  0  3  0  0  0  0  0  0
  181.0720  175.0820  137.4460 O   0  0  0  0  0  1  0  0  0  0  0  0
  180.2530  176.7370  138.7930 O   0  0  0  0  0  1  0  0  0  0  0  0
  181.0870  176.4550  137.7070 C   0  0  0  0  0  3  0  0  0  0  0  0
  184.5110  178.9830  139.1360 C   0  0  0  0  0  2  0  0  0  0  0  0
  184.8690  178.9080  140.5900 C   0  0  0  0  0  0  0  0  0  0  0  0
  185.6560  178.3220  144.7060 C   0  0  0  0  0  3  0  0  0  0  0  0
  184.8750  178.4970  146.9820 O   0  0  0  0  0  1  0  0  0  0  0  0
  186.3090  178.8730  141.0510 C   0  0  0  0  0  2  0  0  0  0  0  0
  183.1280  179.1110  143.7890 C   0  0  0  0  0  3  0  0  0  0  0  0
  183.3730  179.0010  145.1610 C   0  0  0  0  0  3  0  0  0  0  0  0
  183.9050  178.9460  141.4650 N   0  0  0  0  0  0  0  0  0  0  0  0
  184.6370  178.6090  145.6200 C   0  0  0  0  0  0  0  0  0  0  0  0
  185.4170  178.4470  143.3350 C   0  0  0  0  0  0  0  0  0  0  0  0
  184.1490  178.8380  142.8740 C   0  0  0  0  0  0  0  0  0  0  0  0
  186.4680  178.0630  142.3390 C   0  0  0  0  0  2  0  0  0  0  0  0
  1 16  1  6  0  0  0
  2 11  1  0  0  0  0
  3 10  2  0  0  0  0
  3  8  1  0  0  0  0
  4  5  1  1  0  0  0
  4  1  1  0  0  0  0
  7 12  1  0  0  0  0
  8  5  1  0  0  0  0
  9  7  1  0  0  0  0
  9 11  1  0  0  0  0
 11  1  1  0  0  0  0
 11  6  1  0  0  0  0
 12 10  1  6  0  0  0
 12  4  1  0  0  0  0
 13 15  1  0  0  0  0
 15 11  1  0  0  0  0
 15 14  1  0  0  0  0
 16 17  1  0  0  0  0
 17 20  1  0  0  0  0
 17 23  2  0  0  0  0
 18 24  1  0  0  0  0
 20 27  1  0  0  0  0
 21 22  1  0  0  0  0
 22 24  2  0  0  0  0
 23 26  1  0  0  0  0
 24 19  1  0  0  0  0
 25 18  2  0  0  0  0
 26 25  1  0  0  0  0
 26 21  2  0  0  0  0
 27 25  1  0  0  0  0
M  END
>  <MODEL>
3

>  <REMARK>
 VINA RESULT:      -7.6      3.251      4.695
  Name = 
  3 active torsions:
  status: ('A' for Active; 'I' for Inactive)
    1  A    between atoms: C_1  and  C_15
    2  A    between atoms: C_2  and  C_15
    3  A    between atoms: C_20  and  P_26
                            x       y       z     vdW  Elec       q    Type
                         _______ _______ _______ _____ _____    ______ ____

>  <TORSDO>
F 3

$$$$
=
 OpenBabel10262420033D

 27 30  0  0  1  0  0  0  0  0999 V2000
  188.8750  177.6300  142.3670 C   0  0  2  0  0  3  0  0  0  0  0  0
  190.7010  179.0370  143.5280 O   0  0  0  0  0  1  0  0  0  0  0  0
  184.8780  178.9080  142.8970 C   0  0  0  0  0  3  0  0  0  0  0  0
  187.5860  178.2920  142.6360 N   0  0  1  0  0  0  0  0  0  0  0  0
  186.8780  178.6280  141.3940 C   0  0  0  0  0  2  0  0  0  0  0  0
  190.6020  176.0030  143.2190 C   0  0  0  0  0  1  0  0  0  0  0  0
  187.3720  176.7350  144.5880 C   0  0  0  0  0  2  0  0  0  0  0  0
  185.6390  179.4680  141.7190 C   0  0  0  0  0  2  0  0  0  0  0  0
  188.5310  177.5930  145.0630 C   0  0  0  0  0  2  0  0  0  0  0  0
  185.3920  177.9470  143.6770 C   0  0  0  0  0  3  0  0  0  0  0  0
  189.9460  177.5620  143.8860 P   0  0  0  0  0  0  0  0  0  0  0  0
  186.7220  177.3260  143.3370 C   0  0  1  0  0  3  0  0  0  0  0  0
  190.3430  177.2680  146.5240 O   0  0  0  0  0  1  0  0  0  0  0  0
  191.8680  176.2050  145.1960 O   0  0  0  0  0  1  0  0  0  0  0  0
  191.0650  177.3420  145.3310 C   0  0  0  0  0  3  0  0  0  0  0  0
  189.6390  178.2220  141.1660 C   0  0  0  0  0  2  0  0  0  0  0  0
  189.7210  177.2880  139.9950 C   0  0  0  0  0  0  0  0  0  0  0  0
  189.9220  175.0070  136.4380 C   0  0  0  0  0  3  0  0  0  0  0  0
  188.7440  173.9600  134.6110 O   0  0  0  0  0  1  0  0  0  0  0  0
  190.9210  176.3910  139.7810 C   0  0  0  0  0  2  0  0  0  0  0  0
  187.5180  176.1430  137.3240 C   0  0  0  0  0  3  0  0  0  0  0  0
  187.5330  175.3310  136.1850 C   0  0  0  0  0  3  0  0  0  0  0  0
  188.6970  177.2110  139.1950 N   0  0  0  0  0  0  0  0  0  0  0  0
  188.7330  174.7610  135.7440 C   0  0  0  0  0  0  0  0  0  0  0  0
  189.9070  175.8040  137.5850 C   0  0  0  0  0  0  0  0  0  0  0  0
  188.7030  176.3780  138.0270 C   0  0  0  0  0  0  0  0  0  0  0  0
  191.1810  176.1470  138.2940 C   0  0  0  0  0  2  0  0  0  0  0  0
  1 16  1  6  0  0  0
  1  4  1  0  0  0  0
  1 11  1  0  0  0  0
  2 11  1  0  0  0  0
  3 10  2  0  0  0  0
  4  5  1  6  0  0  0
  4 12  1  0  0  0  0
  5  8  1  0  0  0  0
  6 11  1  0  0  0  0
  7  9  1  0  0  0  0
  8  3  1  0  0  0  0
 11  9  1  0  0  0  0
 11 15  1  0  0  0  0
 12 10  1  1  0  0  0
 12  7  1  0  0  0  0
 14 15  1  0  0  0  0
 15 13  1  0  0  0  0
 17 16  1  0  0  0  0
 18 25  1  0  0  0  0
 19 24  1  0  0  0  0
 20 17  1  0  0  0  0
 21 26  1  0  0  0  0
 22 21  2  0  0  0  0
 23 17  2  0  0  0  0
 24 22  1  0  0  0  0
 24 18  2  0  0  0  0
 25 26  2  0  0  0  0
 25 27  1  0  0  0  0
 26 23  1  0  0  0  0
 27 20  1  0  0  0  0
M  END
>  <MODEL>
4

>  <REMARK>
 VINA RESULT:      -7.5      5.918      9.402
  Name = 
  3 active torsions:
  status: ('A' for Active; 'I' for Inactive)
    1  A    between atoms: C_1  and  C_15
    2  A    between atoms: C_2  and  C_15
    3  A    between atoms: C_20  and  P_26
                            x       y       z     vdW  Elec       q    Type
                         _______ _______ _______ _____ _____    ______ ____

>  <TORSDO>
F 3

$$$$
=
 OpenBabel10262420033D

 27 30  0  0  1  0  0  0  0  0999 V2000
  184.0660  178.2470  139.1380 C   0  0  2  0  0  3  0  0  0  0  0  0
  182.3790  180.1220  138.5910 O   0  0  0  0  0  1  0  0  0  0  0  0
  186.7520  177.1600  136.0560 C   0  0  0  0  0  3  0  0  0  0  0  0
  184.9280  178.0860  137.9530 N   0  0  1  0  0  0  0  0  0  0  0  0
  186.3480  178.2540  138.2870 C   0  0  0  0  0  2  0  0  0  0  0  0
  181.8930  177.6010  140.2400 C   0  0  0  0  0  1  0  0  0  0  0  0
  183.3420  176.2810  137.2390 C   0  0  0  0  0  2  0  0  0  0  0  0
  187.1830  178.2560  137.0020 C   0  0  0  0  0  2  0  0  0  0  0  0
  182.4410  177.4950  137.0920 C   0  0  0  0  0  2  0  0  0  0  0  0
  185.6230  176.4640  136.2500 C   0  0  0  0  0  3  0  0  0  0  0  0
  182.2760  178.4310  138.6680 P   0  0  0  0  0  0  0  0  0  0  0  0
  184.7930  176.6950  137.4850 C   0  0  1  0  0  3  0  0  0  0  0  0
  179.7330  178.2520  139.5070 O   0  0  0  0  0  1  0  0  0  0  0  0
  180.0940  179.7800  137.8460 O   0  0  0  0  0  1  0  0  0  0  0  0
  180.4650  178.5290  138.3500 C   0  0  0  0  0  3  0  0  0  0  0  0
  184.5190  179.3750  140.0860 C   0  0  0  0  0  2  0  0  0  0  0  0
  184.9620  178.8790  141.4300 C   0  0  0  0  0  0  0  0  0  0  0  0
  186.4460  177.8480  145.2560 C   0  0  0  0  0  3  0  0  0  0  0  0
  188.2550  176.9430  146.5710 O   0  0  0  0  0  1  0  0  0  0  0  0
  183.9690  178.5940  142.5360 C   0  0  0  0  0  2  0  0  0  0  0  0
  188.0580  177.7150  142.9670 C   0  0  0  0  0  3  0  0  0  0  0  0
  188.5590  177.2940  144.2030 C   0  0  0  0  0  3  0  0  0  0  0  0
  186.2270  178.6280  141.6080 N   0  0  0  0  0  0  0  0  0  0  0  0
  187.7530  177.3580  145.3460 C   0  0  0  0  0  0  0  0  0  0  0  0
  185.9390  178.2540  144.0190 C   0  0  0  0  0  0  0  0  0  0  0  0
  186.7480  178.1930  142.8720 C   0  0  0  0  0  0  0  0  0  0  0  0
  184.5730  178.8600  143.9160 C   0  0  0  0  0  2  0  0  0  0  0  0
  1 16  1  6  0  0  0
  2 11  1  0  0  0  0
  3 10  2  0  0  0  0
  3  8  1  0  0  0  0
  4  5  1  1  0  0  0
  4  1  1  0  0  0  0
  7 12  1  0  0  0  0
  8  5  1  0  0  0  0
  9  7  1  0  0  0  0
  9 11  1  0  0  0  0
 11  1  1  0  0  0  0
 11  6  1  0  0  0  0
 12 10  1  6  0  0  0
 12  4  1  0  0  0  0
 14 15  1  0  0  0  0
 15 11  1  0  0  0  0
 15 13  1  0  0  0  0
 16 17  1  0  0  0  0
 17 23  2  0  0  0  0
 17 20  1  0  0  0  0
 18 24  1  0  0  0  0
 20 27  1  0  0  0  0
 21 22  1  0  0  0  0
 22 24  2  0  0  0  0
 23 26  1  0  0  0  0
 24 19  1  0  0  0  0
 25 18  2  0  0  0  0
 26 21  2  0  0  0  0
 26 25  1  0  0  0  0
 27 25  1  0  0  0  0
M  END
>  <MODEL>
5

>  <REMARK>
 VINA RESULT:      -7.2      2.511      3.357
  Name = 
  3 active torsions:
  status: ('A' for Active; 'I' for Inactive)
    1  A    between atoms: C_1  and  C_15
    2  A    between atoms: C_2  and  C_15
    3  A    between atoms: C_20  and  P_26
                            x       y       z     vdW  Elec       q    Type
                         _______ _______ _______ _____ _____    ______ ____

>  <TORSDO>
F 3

$$$$
=
 OpenBabel10262420033D

 27 30  0  0  1  0  0  0  0  0999 V2000
  189.3870  176.9530  138.0060 C   0  0  2  0  0  3  0  0  0  0  0  0
  188.7780  178.5720  136.0890 O   0  0  0  0  0  1  0  0  0  0  0  0
  193.3140  175.3820  137.9800 C   0  0  0  0  0  3  0  0  0  0  0  0
  190.8040  176.5900  137.8270 N   0  0  1  0  0  0  0  0  0  0  0  0
  191.6000  176.9030  139.0210 C   0  0  0  0  0  2  0  0  0  0  0  0
  187.0050  176.4390  137.3610 C   0  0  0  0  0  1  0  0  0  0  0  0
  189.9710  174.5890  136.5670 C   0  0  0  0  0  2  0  0  0  0  0  0
  193.0860  176.6760  138.7240 C   0  0  0  0  0  2  0  0  0  0  0  0
  189.5690  175.6920  135.6040 C   0  0  0  0  0  2  0  0  0  0  0  0
  192.2990  174.6820  137.4540 C   0  0  0  0  0  3  0  0  0  0  0  0
  188.4620  176.9340  136.3920 P   0  0  0  0  0  0  0  0  0  0  0  0
  190.8770  175.1250  137.6760 C   0  0  1  0  0  3  0  0  0  0  0  0
  186.6930  175.6620  134.8240 O   0  0  0  0  0  1  0  0  0  0  0  0
  186.5210  177.9410  134.8200 O   0  0  0  0  0  1  0  0  0  0  0  0
  187.4070  176.8610  134.8850 C   0  0  0  0  0  3  0  0  0  0  0  0
  189.1760  178.2810  138.7600 C   0  0  0  0  0  2  0  0  0  0  0  0
  188.3710  178.1290  140.0160 C   0  0  0  0  0  0  0  0  0  0  0  0
  186.3410  178.0260  143.7270 C   0  0  0  0  0  3  0  0  0  0  0  0
  186.3100  177.2770  146.0200 O   0  0  0  0  0  1  0  0  0  0  0  0
  186.8700  178.3210  140.0220 C   0  0  0  0  0  2  0  0  0  0  0  0
  188.9370  177.0090  143.4400 C   0  0  0  0  0  3  0  0  0  0  0  0
  188.2670  176.8890  144.6620 C   0  0  0  0  0  3  0  0  0  0  0  0
  188.9860  177.7560  141.1010 N   0  0  0  0  0  0  0  0  0  0  0  0
  186.9690  177.3950  144.8050 C   0  0  0  0  0  0  0  0  0  0  0  0
  187.0020  178.1320  142.5000 C   0  0  0  0  0  0  0  0  0  0  0  0
  188.3050  177.6280  142.3570 C   0  0  0  0  0  0  0  0  0  0  0  0
  186.3800  178.8780  141.3590 C   0  0  0  0  0  2  0  0  0  0  0  0
  1 16  1  6  0  0  0
  2 11  1  0  0  0  0
  3  8  1  0  0  0  0
  4  1  1  0  0  0  0
  4  5  1  1  0  0  0
  8  5  1  0  0  0  0
  9 11  1  0  0  0  0
  9  7  1  0  0  0  0
 10 12  1  0  0  0  0
 10  3  2  0  0  0  0
 11  6  1  0  0  0  0
 11  1  1  0  0  0  0
 12  7  1  6  0  0  0
 12  4  1  0  0  0  0
 13 15  1  0  0  0  0
 14 15  1  0  0  0  0
 15 11  1  0  0  0  0
 16 17  1  0  0  0  0
 17 20  1  0  0  0  0
 17 23  2  0  0  0  0
 18 24  1  0  0  0  0
 20 27  1  0  0  0  0
 21 22  1  0  0  0  0
 22 24  2  0  0  0  0
 23 26  1  0  0  0  0
 24 19  1  0  0  0  0
 25 18  2  0  0  0  0
 26 25  1  0  0  0  0
 26 21  2  0  0  0  0
 27 25  1  0  0  0  0
M  END
>  <MODEL>
6

>  <REMARK>
 VINA RESULT:      -7.2      5.964      8.119
  Name = 
  3 active torsions:
  status: ('A' for Active; 'I' for Inactive)
    1  A    between atoms: C_1  and  C_15
    2  A    between atoms: C_2  and  C_15
    3  A    between atoms: C_20  and  P_26
                            x       y       z     vdW  Elec       q    Type
                         _______ _______ _______ _____ _____    ______ ____

>  <TORSDO>
F 3

$$$$
=
 OpenBabel10262420033D

 27 30  0  0  1  0  0  0  0  0999 V2000
  188.9430  177.6070  142.1420 C   0  0  2  0  0  3  0  0  0  0  0  0
  190.8160  178.9640  143.2870 O   0  0  0  0  0  1  0  0  0  0  0  0
  184.9710  178.8490  142.9010 C   0  0  0  0  0  3  0  0  0  0  0  0
  187.6670  178.2530  142.4970 N   0  0  1  0  0  0  0  0  0  0  0  0
  186.9050  178.6430  141.3030 C   0  0  0  0  0  2  0  0  0  0  0  0
  190.7060  175.9470  142.8430 C   0  0  0  0  0  1  0  0  0  0  0  0
  187.5370  176.6070  144.3830 C   0  0  0  0  0  2  0  0  0  0  0  0
  185.6810  179.4640  141.7190 C   0  0  0  0  0  2  0  0  0  0  0  0
  188.7150  177.4450  144.8470 C   0  0  0  0  0  2  0  0  0  0  0  0
  185.5200  177.8540  143.6140 C   0  0  0  0  0  3  0  0  0  0  0  0
  190.0780  177.4720  143.6100 P   0  0  0  0  0  0  0  0  0  0  0  0
  186.8340  177.2530  143.1890 C   0  0  1  0  0  3  0  0  0  0  0  0
  190.6040  177.1970  146.2270 O   0  0  0  0  0  1  0  0  0  0  0  0
  191.9590  175.9880  144.8390 O   0  0  0  0  0  1  0  0  0  0  0  0
  191.2590  177.1890  144.9930 C   0  0  0  0  0  3  0  0  0  0  0  0
  189.6540  178.2550  140.9380 C   0  0  0  0  0  2  0  0  0  0  0  0
  189.5820  177.4270  139.6890 C   0  0  0  0  0  0  0  0  0  0  0  0
  189.3520  174.7420  136.4270 C   0  0  0  0  0  3  0  0  0  0  0  0
  190.4890  173.1880  134.9740 O   0  0  0  0  0  1  0  0  0  0  0  0
  188.4750  177.6170  138.6760 C   0  0  0  0  0  2  0  0  0  0  0  0
  191.6790  174.9900  137.9680 C   0  0  0  0  0  3  0  0  0  0  0  0
  191.6640  174.1490  136.8510 C   0  0  0  0  0  3  0  0  0  0  0  0
  190.5420  176.5790  139.4550 N   0  0  0  0  0  0  0  0  0  0  0  0
  190.5010  174.0270  136.0800 C   0  0  0  0  0  0  0  0  0  0  0  0
  189.3700  175.5950  137.5340 C   0  0  0  0  0  0  0  0  0  0  0  0
  190.5350  175.7160  138.3100 C   0  0  0  0  0  0  0  0  0  0  0  0
  188.1260  176.3050  137.9720 C   0  0  0  0  0  2  0  0  0  0  0  0
  1 16  1  6  0  0  0
  1  4  1  0  0  0  0
  1 11  1  0  0  0  0
  2 11  1  0  0  0  0
  3 10  2  0  0  0  0
  4  5  1  6  0  0  0
  4 12  1  0  0  0  0
  5  8  1  0  0  0  0
  6 11  1  0  0  0  0
  7  9  1  0  0  0  0
  8  3  1  0  0  0  0
 11  9  1  0  0  0  0
 11 15  1  0  0  0  0
 12 10  1  1  0  0  0
 12  7  1  0  0  0  0
 14 15  1  0  0  0  0
 15 13  1  0  0  0  0
 17 16  1  0  0  0  0
 18 25  1  0  0  0  0
 19 24  1  0  0  0  0
 20 17  1  0  0  0  0
 21 26  1  0  0  0  0
 22 21  2  0  0  0  0
 23 17  2  0  0  0  0
 24 18  2  0  0  0  0
 24 22  1  0  0  0  0
 25 27  1  0  0  0  0
 25 26  2  0  0  0  0
 26 23  1  0  0  0  0
 27 20  1  0  0  0  0
M  END
>  <MODEL>
7

>  <REMARK>
 VINA RESULT:      -7.2      6.009      9.446
  Name = 
  3 active torsions:
  status: ('A' for Active; 'I' for Inactive)
    1  A    between atoms: C_1  and  C_15
    2  A    between atoms: C_2  and  C_15
    3  A    between atoms: C_20  and  P_26
                            x       y       z     vdW  Elec       q    Type
                         _______ _______ _______ _____ _____    ______ ____

>  <TORSDO>
F 3

$$$$
=
 OpenBabel10262420033D

 27 30  0  0  1  0  0  0  0  0999 V2000
  181.0860  178.5880  139.6050 C   0  0  2  0  0  3  0  0  0  0  0  0
  178.9560  177.4270  140.4870 O   0  0  0  0  0  1  0  0  0  0  0  0
  180.5210  181.6700  136.7630 C   0  0  0  0  0  3  0  0  0  0  0  0
  180.6450  179.6540  138.6880 N   0  0  1  0  0  0  0  0  0  0  0  0
  181.1590  180.9680  139.0940 C   0  0  0  0  0  2  0  0  0  0  0  0
  181.6490  176.1430  139.8430 C   0  0  0  0  0  1  0  0  0  0  0  0
  180.9450  177.9800  136.8470 C   0  0  0  0  0  2  0  0  0  0  0  0
  180.5330  182.0600  138.2210 C   0  0  0  0  0  2  0  0  0  0  0  0
  179.7600  177.3650  137.5710 C   0  0  0  0  0  2  0  0  0  0  0  0
  180.8050  180.4220  136.3630 C   0  0  0  0  0  3  0  0  0  0  0  0
  180.1340  177.0130  139.3390 P   0  0  0  0  0  0  0  0  0  0  0  0
  181.2420  179.3870  137.3670 C   0  0  1  0  0  3  0  0  0  0  0  0
  180.0220  174.5960  138.1760 O   0  0  0  0  0  1  0  0  0  0  0  0
  179.2490  174.6680  140.3260 O   0  0  0  0  0  1  0  0  0  0  0  0
  179.3370  175.3680  139.1180 C   0  0  0  0  0  3  0  0  0  0  0  0
  181.0830  179.0050  141.0890 C   0  0  0  0  0  2  0  0  0  0  0  0
  182.4200  178.8570  141.7510 C   0  0  0  0  0  0  0  0  0  0  0  0
  186.0510  178.0550  143.7700 C   0  0  0  0  0  3  0  0  0  0  0  0
  187.2830  178.0700  145.8440 O   0  0  0  0  0  1  0  0  0  0  0  0
  183.7030  178.8420  140.9490 C   0  0  0  0  0  2  0  0  0  0  0  0
  183.7340  178.8140  145.1520 C   0  0  0  0  0  3  0  0  0  0  0  0
  184.9360  178.6310  145.8440 C   0  0  0  0  0  3  0  0  0  0  0  0
  182.4630  178.8110  143.0510 N   0  0  0  0  0  0  0  0  0  0  0  0
  186.0940  178.2540  145.1530 C   0  0  0  0  0  0  0  0  0  0  0  0
  184.8550  178.2530  143.0750 C   0  0  0  0  0  0  0  0  0  0  0  0
  183.6920  178.6280  143.7680 C   0  0  0  0  0  0  0  0  0  0  0  0
  184.7680  177.9630  141.6080 C   0  0  0  0  0  2  0  0  0  0  0  0
  1 16  1  1  0  0  0
  3  8  1  0  0  0  0
  4  5  1  1  0  0  0
  4  1  1  0  0  0  0
  7 12  1  0  0  0  0
  7  9  1  0  0  0  0
  8  5  1  0  0  0  0
  9 11  1  0  0  0  0
 10  3  2  0  0  0  0
 11  1  1  0  0  0  0
 11  6  1  0  0  0  0
 11  2  1  0  0  0  0
 12 10  1  6  0  0  0
 12  4  1  0  0  0  0
 13 15  1  0  0  0  0
 15 11  1  0  0  0  0
 15 14  1  0  0  0  0
 16 17  1  0  0  0  0
 17 23  2  0  0  0  0
 18 24  1  0  0  0  0
 20 27  1  0  0  0  0
 20 17  1  0  0  0  0
 21 22  1  0  0  0  0
 23 26  1  0  0  0  0
 24 19  1  0  0  0  0
 24 22  2  0  0  0  0
 25 26  1  0  0  0  0
 25 18  2  0  0  0  0
 26 21  2  0  0  0  0
 27 25  1  0  0  0  0
M  END
>  <MODEL>
8

>  <REMARK>
 VINA RESULT:      -7.1      2.748      4.184
  Name = 
  3 active torsions:
  status: ('A' for Active; 'I' for Inactive)
    1  A    between atoms: C_1  and  C_15
    2  A    between atoms: C_2  and  C_15
    3  A    between atoms: C_20  and  P_26
                            x       y       z     vdW  Elec       q    Type
                         _______ _______ _______ _____ _____    ______ ____

>  <TORSDO>
F 3

$$$$
=
 OpenBabel10262420033D

 27 30  0  0  1  0  0  0  0  0999 V2000
  188.2500  177.9460  142.7970 C   0  0  2  0  0  3  0  0  0  0  0  0
  190.2800  179.2470  143.7170 O   0  0  0  0  0  1  0  0  0  0  0  0
  184.4540  179.0480  144.3050 C   0  0  0  0  0  3  0  0  0  0  0  0
  187.0470  178.5380  143.4100 N   0  0  1  0  0  0  0  0  0  0  0  0
  186.0940  179.0030  142.3950 C   0  0  0  0  0  2  0  0  0  0  0  0
  190.1160  176.2710  143.0610 C   0  0  0  0  0  1  0  0  0  0  0  0
  187.2470  176.7490  145.1550 C   0  0  0  0  0  2  0  0  0  0  0  0
  184.9510  179.7670  143.0730 C   0  0  0  0  0  2  0  0  0  0  0  0
  188.4800  177.5720  145.4810 C   0  0  0  0  0  2  0  0  0  0  0  0
  185.1210  178.0130  144.8350 C   0  0  0  0  0  3  0  0  0  0  0  0
  189.6160  177.7200  144.0390 P   0  0  0  0  0  0  0  0  0  0  0  0
  186.3490  177.4710  144.1500 C   0  0  1  0  0  3  0  0  0  0  0  0
  190.5620  177.1520  146.4860 O   0  0  0  0  0  1  0  0  0  0  0  0
  191.7500  176.2430  144.7580 O   0  0  0  0  0  1  0  0  0  0  0  0
  191.0140  177.3550  145.1800 C   0  0  0  0  0  3  0  0  0  0  0  0
  188.7450  178.6980  141.5460 C   0  0  0  0  0  2  0  0  0  0  0  0
  188.5430  177.9320  140.2730 C   0  0  0  0  0  0  0  0  0  0  0  0
  188.0390  176.1460  136.4710 C   0  0  0  0  0  3  0  0  0  0  0  0
  186.5870  175.7040  134.5960 O   0  0  0  0  0  1  0  0  0  0  0  0
  189.4380  176.7710  139.8980 C   0  0  0  0  0  2  0  0  0  0  0  0
  186.0670  177.7850  137.6000 C   0  0  0  0  0  3  0  0  0  0  0  0
  185.8350  177.1500  136.3760 C   0  0  0  0  0  3  0  0  0  0  0  0
  187.5270  178.2420  139.5210 N   0  0  0  0  0  0  0  0  0  0  0  0
  186.8190  176.3290  135.8130 C   0  0  0  0  0  0  0  0  0  0  0  0
  188.2670  176.7670  137.7020 C   0  0  0  0  0  0  0  0  0  0  0  0
  187.2800  177.5930  138.2660 C   0  0  0  0  0  0  0  0  0  0  0  0
  189.5970  176.6510  138.3810 C   0  0  0  0  0  2  0  0  0  0  0  0
  1 16  1  6  0  0  0
  1  4  1  0  0  0  0
  1 11  1  0  0  0  0
  2 11  1  0  0  0  0
  3 10  2  0  0  0  0
  4  5  1  6  0  0  0
  4 12  1  0  0  0  0
  5  8  1  0  0  0  0
  6 11  1  0  0  0  0
  7  9  1  0  0  0  0
  8  3  1  0  0  0  0
 11 15  1  0  0  0  0
 11  9  1  0  0  0  0
 12 10  1  1  0  0  0
 12  7  1  0  0  0  0
 14 15  1  0  0  0  0
 15 13  1  0  0  0  0
 17 16  1  0  0  0  0
 18 25  1  0  0  0  0
 19 24  1  0  0  0  0
 20 17  1  0  0  0  0
 21 26  1  0  0  0  0
 22 21  2  0  0  0  0
 23 17  2  0  0  0  0
 24 22  1  0  0  0  0
 24 18  2  0  0  0  0
 25 26  2  0  0  0  0
 25 27  1  0  0  0  0
 26 23  1  0  0  0  0
 27 20  1  0  0  0  0
M  END
>  <MODEL>
9

>  <REMARK>
 VINA RESULT:      -7.0      5.548      9.072
  Name = 
  3 active torsions:
  status: ('A' for Active; 'I' for Inactive)
    1  A    between atoms: C_1  and  C_15
    2  A    between atoms: C_2  and  C_15
    3  A    between atoms: C_20  and  P_26
                            x       y       z     vdW  Elec       q    Type
                         _______ _______ _______ _____ _____    ______ ____

>  <TORSDO>
F 3

$$$$
