=
 OpenBabel10262423353D

 34 41  0  0  1  0  0  0  0  0999 V2000
  178.9310  179.3090  140.1390 C   0  0  2  0  0  3  0  0  0  0  0  0
  181.0830  180.8380  137.3880 C   0  0  0  0  0  3  0  0  0  0  0  0
  181.4020  178.8830  138.8590 C   0  0  0  0  0  2  0  0  0  0  0  0
  180.7330  178.9950  141.8670 C   0  0  2  0  0  3  0  0  0  0  0  0
  179.3660  179.5950  141.5870 C   0  0  0  0  0  2  0  0  0  0  0  0
  179.7100  176.9150  140.7400 C   0  0  1  0  0  3  0  0  0  0  0  0
  180.4510  175.5130  139.8970 S   0  0  0  0  0  0  0  0  0  0  0  0
  180.7020  177.4670  141.7760 C   0  0  0  0  0  2  0  0  0  0  0  0
  180.3570  177.8990  138.5740 N   0  0  2  0  0  0  0  0  0  0  0  0
  179.3370  177.8970  139.6380 C   0  0  2  0  0  3  0  0  0  0  0  0
  181.0020  176.5910  138.5310 C   0  0  0  0  0  2  0  0  0  0  0  0
  180.8520  182.1100  137.0400 C   0  0  0  0  0  3  0  0  0  0  0  0
  180.3400  183.1490  138.0000 C   0  0  2  0  0  3  0  0  0  0  0  0
  178.9310  182.7890  138.4640 C   0  0  0  0  0  2  0  0  0  0  0  0
  180.8580  180.3130  138.7730 C   0  0  2  0  0  3  0  0  0  0  0  0
  178.9680  181.7940  139.6160 C   0  0  0  0  0  2  0  0  0  0  0  0
  179.3640  180.3950  139.1430 C   0  0  2  0  0  3  0  0  0  0  0  0
  180.3210  184.4470  137.3380 N   0  0  0  0  0  0  0  0  0  0  0  0
  181.6920  184.9850  137.3860 C   0  0  0  0  0  2  0  0  0  0  0  0
  181.2090  184.3510  136.1690 C   0  0  0  0  0  2  0  0  0  0  0  0
  181.2470  179.4530  143.2220 C   0  0  0  0  0  2  0  0  0  0  0  0
  184.7610  178.2170  142.4580 C   0  0  0  0  0  3  0  0  0  0  0  0
  183.2130  178.9790  144.7040 C   0  0  0  0  0  3  0  0  0  0  0  0
  187.6510  177.3620  143.5100 C   0  0  0  0  0  3  0  0  0  0  0  0
  187.6920  177.7540  146.3060 N   0  0  0  0  0  0  0  0  0  0  0  0
  186.5910  177.7710  144.1950 C   0  0  0  0  0  0  0  0  0  0  0  0
  188.8550  177.3660  145.6550 O   0  0  0  0  0  0  0  0  0  0  0  0
  185.2860  178.1900  143.7470 C   0  0  0  0  0  0  0  0  0  0  0  0
  188.8660  176.9100  144.2860 C   0  0  0  0  0  2  0  0  0  0  0  0
  185.2920  178.4230  146.1440 C   0  0  0  0  0  2  0  0  0  0  0  0
  184.5320  178.5560  144.8540 C   0  0  0  0  0  0  0  0  0  0  0  0
  186.6020  177.9160  145.6270 C   0  0  0  0  0  0  0  0  0  0  0  0
  182.6660  179.0320  143.4090 C   0  0  0  0  0  0  0  0  0  0  0  0
  183.4360  178.6470  142.2960 C   0  0  0  0  0  3  0  0  0  0  0  0
  1  5  1  1  0  0  0
  2 15  1  0  0  0  0
  4 21  1  1  0  0  0
  5  4  1  0  0  0  0
  6  8  1  1  0  0  0
  7  6  1  0  0  0  0
  8  4  1  0  0  0  0
  9 11  1  1  0  0  0
  9  3  1  0  0  0  0
  9 10  1  0  0  0  0
 10  1  1  0  0  0  0
 10  6  1  0  0  0  0
 11  7  1  0  0  0  0
 12  2  2  0  0  0  0
 12 13  1  0  0  0  0
 13 14  1  0  0  0  0
 14 16  1  0  0  0  0
 15  3  1  0  0  0  0
 15 17  1  0  0  0  0
 17 16  1  0  0  0  0
 17  1  1  0  0  0  0
 18 19  1  0  0  0  0
 18 13  1  0  0  0  0
 20 18  1  0  0  0  0
 20 19  1  0  0  0  0
 21 33  1  0  0  0  0
 22 28  1  0  0  0  0
 23 31  1  0  0  0  0
 24 26  2  0  0  0  0
 24 29  1  0  0  0  0
 26 32  1  0  0  0  0
 27 25  1  0  0  0  0
 28 26  1  0  0  0  0
 28 31  2  0  0  0  0
 29 27  1  0  0  0  0
 31 30  1  0  0  0  0
 32 30  1  0  0  0  0
 32 25  2  0  0  0  0
 33 23  2  0  0  0  0
 34 22  2  0  0  0  0
 34 33  1  0  0  0  0
M  END
>  <MODEL>
1

>  <REMARK>
 VINA RESULT:      -9.8      0.000      0.000
  Name = 
  3 active torsions:
  status: ('A' for Active; 'I' for Inactive)
    1  A    between atoms: N_3  and  C_25
    2  A    between atoms: C_8  and  C_18
    3  A    between atoms: C_18  and  C_30
                            x       y       z     vdW  Elec       q    Type
                         _______ _______ _______ _____ _____    ______ ____

>  <TORSDO>
F 3

$$$$
=
 OpenBabel10262423353D

 34 41  0  0  1  0  0  0  0  0999 V2000
  182.0570  178.7000  138.6280 C   0  0  2  0  0  3  0  0  0  0  0  0
  184.6860  176.0190  137.9620 C   0  0  0  0  0  3  0  0  0  0  0  0
  182.5790  176.0040  139.2470 C   0  0  0  0  0  2  0  0  0  0  0  0
  181.8000  178.3380  141.1050 C   0  0  2  0  0  3  0  0  0  0  0  0
  182.0890  179.3590  140.0190 C   0  0  0  0  0  2  0  0  0  0  0  0
  179.8610  177.6780  139.5400 C   0  0  1  0  0  3  0  0  0  0  0  0
  178.9310  176.1530  139.3480 S   0  0  0  0  0  0  0  0  0  0  0  0
  180.3790  177.7790  140.9830 C   0  0  0  0  0  2  0  0  0  0  0  0
  181.4630  176.2450  138.3310 N   0  0  2  0  0  0  0  0  0  0  0  0
  180.9530  177.6190  138.4800 C   0  0  2  0  0  3  0  0  0  0  0  0
  180.4060  175.3050  138.6890 C   0  0  0  0  0  2  0  0  0  0  0  0
  185.9050  176.4130  137.5740 C   0  0  0  0  0  3  0  0  0  0  0  0
  186.5240  177.7170  137.9950 C   0  0  2  0  0  3  0  0  0  0  0  0
  185.7240  178.8880  137.4280 C   0  0  0  0  0  2  0  0  0  0  0  0
  183.8060  176.8360  138.8590 C   0  0  2  0  0  3  0  0  0  0  0  0
  184.5240  179.2130  138.3070 C   0  0  0  0  0  2  0  0  0  0  0  0
  183.4230  178.1610  138.1740 C   0  0  2  0  0  3  0  0  0  0  0  0
  187.8940  177.7800  137.5070 N   0  0  0  0  0  0  0  0  0  0  0  0
  188.7270  178.3140  138.6000 C   0  0  0  0  0  2  0  0  0  0  0  0
  188.6970  176.8810  138.3520 C   0  0  0  0  0  2  0  0  0  0  0  0
  182.0340  178.9420  142.4790 C   0  0  0  0  0  2  0  0  0  0  0  0
  185.7180  178.0010  142.4380 C   0  0  0  0  0  3  0  0  0  0  0  0
  183.7130  178.6780  144.3210 C   0  0  0  0  0  3  0  0  0  0  0  0
  188.4150  177.4280  144.0480 C   0  0  0  0  0  3  0  0  0  0  0  0
  187.8900  177.8890  146.7840 N   0  0  0  0  0  0  0  0  0  0  0  0
  187.2140  177.7600  144.5050 C   0  0  0  0  0  0  0  0  0  0  0  0
  189.1830  177.5890  146.3790 O   0  0  0  0  0  0  0  0  0  0  0  0
  185.9880  178.0510  143.8030 C   0  0  0  0  0  0  0  0  0  0  0  0
  189.4920  177.1030  145.0550 C   0  0  0  0  0  2  0  0  0  0  0  0
  185.5190  178.3400  146.1480 C   0  0  0  0  0  2  0  0  0  0  0  0
  185.0100  178.3760  144.7330 C   0  0  0  0  0  0  0  0  0  0  0  0
  186.9400  177.9380  145.9060 C   0  0  0  0  0  0  0  0  0  0  0  0
  183.4200  178.6530  142.9460 C   0  0  0  0  0  0  0  0  0  0  0  0
  184.4170  178.3100  142.0140 C   0  0  0  0  0  3  0  0  0  0  0  0
  1  5  1  1  0  0  0
  2 15  1  0  0  0  0
  4 21  1  1  0  0  0
  5  4  1  0  0  0  0
  6  8  1  1  0  0  0
  7  6  1  0  0  0  0
  8  4  1  0  0  0  0
  9 10  1  0  0  0  0
  9 11  1  1  0  0  0
  9  3  1  0  0  0  0
 10  1  1  0  0  0  0
 10  6  1  0  0  0  0
 11  7  1  0  0  0  0
 12  2  2  0  0  0  0
 12 13  1  0  0  0  0
 14 13  1  0  0  0  0
 14 16  1  0  0  0  0
 15  3  1  0  0  0  0
 17 16  1  0  0  0  0
 17  1  1  0  0  0  0
 17 15  1  0  0  0  0
 18 13  1  0  0  0  0
 18 20  1  0  0  0  0
 18 19  1  0  0  0  0
 20 19  1  0  0  0  0
 21 33  1  0  0  0  0
 22 28  1  0  0  0  0
 23 31  1  0  0  0  0
 24 26  2  0  0  0  0
 24 29  1  0  0  0  0
 26 32  1  0  0  0  0
 27 25  1  0  0  0  0
 28 26  1  0  0  0  0
 28 31  2  0  0  0  0
 29 27  1  0  0  0  0
 31 30  1  0  0  0  0
 32 30  1  0  0  0  0
 32 25  2  0  0  0  0
 33 23  2  0  0  0  0
 34 22  2  0  0  0  0
 34 33  1  0  0  0  0
M  END
>  <MODEL>
2

>  <REMARK>
 VINA RESULT:      -9.2      2.829      4.476
  Name = 
  3 active torsions:
  status: ('A' for Active; 'I' for Inactive)
    1  A    between atoms: N_3  and  C_25
    2  A    between atoms: C_8  and  C_18
    3  A    between atoms: C_18  and  C_30
                            x       y       z     vdW  Elec       q    Type
                         _______ _______ _______ _____ _____    ______ ____

>  <TORSDO>
F 3

$$$$
=
 OpenBabel10262423353D

 34 41  0  0  1  0  0  0  0  0999 V2000
  190.1740  176.3770  135.4790 C   0  0  2  0  0  3  0  0  0  0  0  0
  192.0640  173.5710  137.2400 C   0  0  0  0  0  3  0  0  0  0  0  0
  189.6710  174.1680  137.1510 C   0  0  0  0  0  2  0  0  0  0  0  0
  188.7220  177.0900  137.4070 C   0  0  2  0  0  3  0  0  0  0  0  0
  189.7200  177.5540  136.3600 C   0  0  0  0  0  2  0  0  0  0  0  0
  187.6300  175.9070  135.3940 C   0  0  1  0  0  3  0  0  0  0  0  0
  186.5520  174.4750  135.2770 S   0  0  0  0  0  0  0  0  0  0  0  0
  187.4300  176.5830  136.7600 C   0  0  0  0  0  2  0  0  0  0  0  0
  189.2020  174.0450  135.7710 N   0  0  2  0  0  0  0  0  0  0  0  0
  189.0360  175.3720  135.1540 C   0  0  2  0  0  3  0  0  0  0  0  0
  187.9050  173.3770  135.8180 C   0  0  0  0  0  2  0  0  0  0  0  0
  193.3790  173.7250  137.4380 C   0  0  0  0  0  3  0  0  0  0  0  0
  194.0320  175.0630  137.6480 C   0  0  2  0  0  3  0  0  0  0  0  0
  193.9000  175.9170  136.3890 C   0  0  0  0  0  2  0  0  0  0  0  0
  191.1010  174.7190  137.2050 C   0  0  2  0  0  3  0  0  0  0  0  0
  192.5510  176.6210  136.3410 C   0  0  0  0  0  2  0  0  0  0  0  0
  191.4150  175.6500  136.0200 C   0  0  2  0  0  3  0  0  0  0  0  0
  195.4410  174.8670  137.9600 N   0  0  0  0  0  0  0  0  0  0  0  0
  195.5700  174.8640  139.4280 C   0  0  0  0  0  2  0  0  0  0  0  0
  195.5500  173.6020  138.7040 C   0  0  0  0  0  2  0  0  0  0  0  0
  188.4350  178.2050  138.3990 C   0  0  0  0  0  2  0  0  0  0  0  0
  190.9620  177.1410  141.0350 C   0  0  0  0  0  3  0  0  0  0  0  0
  188.2570  177.9690  140.8880 C   0  0  0  0  0  3  0  0  0  0  0  0
  191.6370  176.5530  144.0990 C   0  0  0  0  0  3  0  0  0  0  0  0
  189.3300  177.1540  145.6120 N   0  0  0  0  0  0  0  0  0  0  0  0
  190.4960  176.9440  143.5470 C   0  0  0  0  0  0  0  0  0  0  0  0
  190.5000  176.7930  146.2660 O   0  0  0  0  0  0  0  0  0  0  0  0
  190.1690  177.2440  142.1740 C   0  0  0  0  0  0  0  0  0  0  0  0
  191.6390  176.2380  145.5760 C   0  0  0  0  0  2  0  0  0  0  0  0
  188.1720  177.6550  143.4580 C   0  0  0  0  0  2  0  0  0  0  0  0
  188.8400  177.6430  142.1110 C   0  0  0  0  0  0  0  0  0  0  0  0
  189.3070  177.1950  144.3190 C   0  0  0  0  0  0  0  0  0  0  0  0
  189.0420  177.8910  139.7240 C   0  0  0  0  0  0  0  0  0  0  0  0
  190.3840  177.4730  139.8000 C   0  0  0  0  0  3  0  0  0  0  0  0
  1 17  1  0  0  0  0
  1  5  1  1  0  0  0
  2 12  2  0  0  0  0
  3 15  1  0  0  0  0
  4 21  1  1  0  0  0
  5  4  1  0  0  0  0
  6  8  1  1  0  0  0
  7  6  1  0  0  0  0
  7 11  1  0  0  0  0
  8  4  1  0  0  0  0
  9 11  1  1  0  0  0
  9  3  1  0  0  0  0
 10  6  1  0  0  0  0
 10  1  1  0  0  0  0
 10  9  1  0  0  0  0
 12 13  1  0  0  0  0
 13 18  1  0  0  0  0
 14 13  1  0  0  0  0
 15  2  1  0  0  0  0
 16 14  1  0  0  0  0
 17 16  1  0  0  0  0
 17 15  1  0  0  0  0
 18 20  1  0  0  0  0
 18 19  1  0  0  0  0
 20 19  1  0  0  0  0
 21 33  1  0  0  0  0
 22 28  1  0  0  0  0
 23 31  1  0  0  0  0
 24 29  1  0  0  0  0
 25 27  1  0  0  0  0
 26 24  2  0  0  0  0
 26 32  1  0  0  0  0
 28 26  1  0  0  0  0
 29 27  1  0  0  0  0
 30 32  1  0  0  0  0
 31 28  2  0  0  0  0
 31 30  1  0  0  0  0
 32 25  2  0  0  0  0
 33 34  1  0  0  0  0
 33 23  2  0  0  0  0
 34 22  2  0  0  0  0
M  END
>  <MODEL>
3

>  <REMARK>
 VINA RESULT:      -8.9      7.390     10.574
  Name = 
  3 active torsions:
  status: ('A' for Active; 'I' for Inactive)
    1  A    between atoms: N_3  and  C_25
    2  A    between atoms: C_8  and  C_18
    3  A    between atoms: C_18  and  C_30
                            x       y       z     vdW  Elec       q    Type
                         _______ _______ _______ _____ _____    ______ ____

>  <TORSDO>
F 3

$$$$
=
 OpenBabel10262423353D

 34 41  0  0  1  0  0  0  0  0999 V2000
  182.6990  178.7290  138.4590 C   0  0  2  0  0  3  0  0  0  0  0  0
  184.4720  175.4820  137.5340 C   0  0  0  0  0  3  0  0  0  0  0  0
  182.5950  175.9800  139.0570 C   0  0  0  0  0  2  0  0  0  0  0  0
  182.6520  178.4090  140.9550 C   0  0  2  0  0  3  0  0  0  0  0  0
  183.0580  179.3390  139.8260 C   0  0  0  0  0  2  0  0  0  0  0  0
  180.4390  178.2800  139.6390 C   0  0  1  0  0  3  0  0  0  0  0  0
  179.1400  177.0400  139.5820 S   0  0  0  0  0  0  0  0  0  0  0  0
  181.1320  178.2270  141.0100 C   0  0  0  0  0  2  0  0  0  0  0  0
  181.4760  176.5070  138.2750 N   0  0  2  0  0  0  0  0  0  0  0  0
  181.3490  177.9630  138.4600 C   0  0  2  0  0  3  0  0  0  0  0  0
  180.2660  175.8580  138.7690 C   0  0  0  0  0  2  0  0  0  0  0  0
  185.6970  175.5630  137.0000 C   0  0  0  0  0  3  0  0  0  0  0  0
  186.6690  176.6640  137.3250 C   0  0  2  0  0  3  0  0  0  0  0  0
  186.1280  178.0060  136.8360 C   0  0  0  0  0  2  0  0  0  0  0  0
  183.9380  176.4820  138.5150 C   0  0  2  0  0  3  0  0  0  0  0  0
  185.1600  178.6100  137.8440 C   0  0  0  0  0  2  0  0  0  0  0  0
  183.8220  177.8710  137.8580 C   0  0  2  0  0  3  0  0  0  0  0  0
  187.9440  176.3870  136.6780 N   0  0  0  0  0  0  0  0  0  0  0  0
  188.9160  176.0730  137.7410 C   0  0  0  0  0  2  0  0  0  0  0  0
  188.2950  174.9910  136.9920 C   0  0  0  0  0  2  0  0  0  0  0  0
  183.1900  178.9160  142.2830 C   0  0  0  0  0  2  0  0  0  0  0  0
  186.4090  177.7000  143.9010 C   0  0  0  0  0  3  0  0  0  0  0  0
  185.5100  178.6270  141.3790 C   0  0  0  0  0  3  0  0  0  0  0  0
  189.5280  177.0680  143.6520 C   0  0  0  0  0  3  0  0  0  0  0  0
  190.2880  177.5600  140.9780 N   0  0  0  0  0  0  0  0  0  0  0  0
  188.6870  177.5390  142.7400 C   0  0  0  0  0  0  0  0  0  0  0  0
  191.2140  177.0250  141.8620 O   0  0  0  0  0  0  0  0  0  0  0  0
  187.2720  177.8080  142.8140 C   0  0  0  0  0  0  0  0  0  0  0  0
  190.9900  176.9720  143.2870 C   0  0  0  0  0  2  0  0  0  0  0  0
  187.9490  178.3260  140.5620 C   0  0  0  0  0  2  0  0  0  0  0  0
  186.8420  178.2670  141.5770 C   0  0  0  0  0  0  0  0  0  0  0  0
  189.0950  177.8410  141.3930 C   0  0  0  0  0  0  0  0  0  0  0  0
  184.6140  178.5100  142.4570 C   0  0  0  0  0  0  0  0  0  0  0  0
  185.0650  178.0550  143.7100 C   0  0  0  0  0  3  0  0  0  0  0  0
  1 10  1  0  0  0  0
  1  5  1  1  0  0  0
  2 15  1  0  0  0  0
  4  8  1  0  0  0  0
  4 21  1  1  0  0  0
  5  4  1  0  0  0  0
  6  8  1  1  0  0  0
  7  6  1  0  0  0  0
  9 10  1  0  0  0  0
  9 11  1  1  0  0  0
  9  3  1  0  0  0  0
 10  6  1  0  0  0  0
 11  7  1  0  0  0  0
 12 13  1  0  0  0  0
 12  2  2  0  0  0  0
 14 13  1  0  0  0  0
 14 16  1  0  0  0  0
 15  3  1  0  0  0  0
 16 17  1  0  0  0  0
 17  1  1  0  0  0  0
 17 15  1  0  0  0  0
 18 20  1  0  0  0  0
 18 13  1  0  0  0  0
 18 19  1  0  0  0  0
 20 19  1  0  0  0  0
 21 33  1  0  0  0  0
 23 31  2  0  0  0  0
 23 33  1  0  0  0  0
 25 32  2  0  0  0  0
 25 27  1  0  0  0  0
 26 28  1  0  0  0  0
 26 24  2  0  0  0  0
 27 29  1  0  0  0  0
 28 22  2  0  0  0  0
 29 24  1  0  0  0  0
 30 32  1  0  0  0  0
 30 31  1  0  0  0  0
 31 28  1  0  0  0  0
 32 26  1  0  0  0  0
 33 34  2  0  0  0  0
 34 22  1  0  0  0  0
M  END
>  <MODEL>
4

>  <REMARK>
 VINA RESULT:      -8.9      3.393      5.484
  Name = 
  3 active torsions:
  status: ('A' for Active; 'I' for Inactive)
    1  A    between atoms: N_3  and  C_25
    2  A    between atoms: C_8  and  C_18
    3  A    between atoms: C_18  and  C_30
                            x       y       z     vdW  Elec       q    Type
                         _______ _______ _______ _____ _____    ______ ____

>  <TORSDO>
F 3

$$$$
=
 OpenBabel10262423353D

 34 41  0  0  1  0  0  0  0  0999 V2000
  183.1340  176.5120  135.6710 C   0  0  2  0  0  3  0  0  0  0  0  0
  186.0880  174.7190  137.2850 C   0  0  0  0  0  3  0  0  0  0  0  0
  183.6620  174.6770  137.7400 C   0  0  0  0  0  2  0  0  0  0  0  0
  181.9780  177.2590  137.7780 C   0  0  2  0  0  3  0  0  0  0  0  0
  182.5540  177.7080  136.4470 C   0  0  0  0  0  2  0  0  0  0  0  0
  180.8800  175.4270  136.3350 C   0  0  1  0  0  3  0  0  0  0  0  0
  180.2670  173.7860  136.7300 S   0  0  0  0  0  0  0  0  0  0  0  0
  180.7850  176.3200  137.5820 C   0  0  0  0  0  2  0  0  0  0  0  0
  182.9690  174.1380  136.5680 N   0  0  2  0  0  0  0  0  0  0  0  0
  182.2970  175.2140  135.8190 C   0  0  2  0  0  3  0  0  0  0  0  0
  181.9640  173.2010  137.0600 C   0  0  0  0  0  2  0  0  0  0  0  0
  187.3110  175.2290  137.1030 C   0  0  0  0  0  3  0  0  0  0  0  0
  187.5740  176.6990  136.9220 C   0  0  2  0  0  3  0  0  0  0  0  0
  186.9360  177.1930  135.6260 C   0  0  0  0  0  2  0  0  0  0  0  0
  184.8470  175.5580  137.3280 C   0  0  2  0  0  3  0  0  0  0  0  0
  185.4620  177.5170  135.8260 C   0  0  0  0  0  2  0  0  0  0  0  0
  184.6180  176.2510  135.9710 C   0  0  2  0  0  3  0  0  0  0  0  0
  189.0120  176.9280  136.8770 N   0  0  0  0  0  0  0  0  0  0  0  0
  189.3310  177.9230  137.9180 C   0  0  0  0  0  2  0  0  0  0  0  0
  189.5590  176.5100  138.1780 C   0  0  0  0  0  2  0  0  0  0  0  0
  181.5950  178.4610  138.6250 C   0  0  0  0  0  2  0  0  0  0  0  0
  184.5830  178.2750  140.9690 C   0  0  0  0  0  3  0  0  0  0  0  0
  181.7910  178.7300  141.1090 C   0  0  0  0  0  3  0  0  0  0  0  0
  185.7460  178.4210  143.9390 C   0  0  0  0  0  3  0  0  0  0  0  0
  183.6010  179.0490  145.6650 N   0  0  0  0  0  0  0  0  0  0  0  0
  184.4950  178.5520  143.5150 C   0  0  0  0  0  0  0  0  0  0  0  0
  184.8890  178.9730  146.1770 O   0  0  0  0  0  0  0  0  0  0  0  0
  183.9450  178.5190  142.1820 C   0  0  0  0  0  0  0  0  0  0  0  0
  185.9940  178.4240  145.4290 C   0  0  0  0  0  2  0  0  0  0  0  0
  182.1020  178.9500  143.6710 C   0  0  0  0  0  2  0  0  0  0  0  0
  182.5760  178.7370  142.2610 C   0  0  0  0  0  0  0  0  0  0  0  0
  183.3980  178.8170  144.4080 C   0  0  0  0  0  0  0  0  0  0  0  0
  182.4150  178.5040  139.8700 C   0  0  0  0  0  0  0  0  0  0  0  0
  183.8020  178.2720  139.8040 C   0  0  0  0  0  3  0  0  0  0  0  0
  1 10  1  0  0  0  0
  1 17  1  0  0  0  0
  1  5  1  1  0  0  0
  2 15  1  0  0  0  0
  4 21  1  6  0  0  0
  5  4  1  0  0  0  0
  6  7  1  0  0  0  0
  6  8  1  1  0  0  0
  7 11  1  0  0  0  0
  8  4  1  0  0  0  0
  9 11  1  1  0  0  0
  9  3  1  0  0  0  0
 10  6  1  0  0  0  0
 10  9  1  0  0  0  0
 12  2  2  0  0  0  0
 13 12  1  0  0  0  0
 14 16  1  0  0  0  0
 14 13  1  0  0  0  0
 15  3  1  0  0  0  0
 16 17  1  0  0  0  0
 17 15  1  0  0  0  0
 18 13  1  0  0  0  0
 18 19  1  0  0  0  0
 18 20  1  0  0  0  0
 19 20  1  0  0  0  0
 21 33  1  0  0  0  0
 22 28  1  0  0  0  0
 23 31  1  0  0  0  0
 24 29  1  0  0  0  0
 25 27  1  0  0  0  0
 26 24  2  0  0  0  0
 26 32  1  0  0  0  0
 28 31  2  0  0  0  0
 28 26  1  0  0  0  0
 29 27  1  0  0  0  0
 30 32  1  0  0  0  0
 31 30  1  0  0  0  0
 32 25  2  0  0  0  0
 33 23  2  0  0  0  0
 34 33  1  0  0  0  0
 34 22  2  0  0  0  0
M  END
>  <MODEL>
5

>  <REMARK>
 VINA RESULT:      -8.9      3.943      6.219
  Name = 
  3 active torsions:
  status: ('A' for Active; 'I' for Inactive)
    1  A    between atoms: N_3  and  C_25
    2  A    between atoms: C_8  and  C_18
    3  A    between atoms: C_18  and  C_30
                            x       y       z     vdW  Elec       q    Type
                         _______ _______ _______ _____ _____    ______ ____

>  <TORSDO>
F 3

$$$$
=
 OpenBabel10262423353D

 34 41  0  0  1  0  0  0  0  0999 V2000
  181.0900  179.1660  139.5090 C   0  0  2  0  0  3  0  0  0  0  0  0
  179.9800  180.4050  136.0780 C   0  0  0  0  0  3  0  0  0  0  0  0
  181.2680  178.4270  136.7990 C   0  0  0  0  0  2  0  0  0  0  0  0
  183.4810  178.6280  138.9360 C   0  0  2  0  0  3  0  0  0  0  0  0
  182.5680  179.3960  139.8750 C   0  0  0  0  0  2  0  0  0  0  0  0
  181.8510  176.6940  139.4310 C   0  0  1  0  0  3  0  0  0  0  0  0
  181.4290  175.2070  138.5140 S   0  0  0  0  0  0  0  0  0  0  0  0
  183.2870  177.1160  139.0810 C   0  0  0  0  0  2  0  0  0  0  0  0
  180.4140  177.5840  137.6360 N   0  0  2  0  0  0  0  0  0  0  0  0
  180.7840  177.7130  139.0570 C   0  0  2  0  0  3  0  0  0  0  0  0
  180.6280  176.2040  137.2130 C   0  0  0  0  0  2  0  0  0  0  0  0
  179.6480  181.6950  135.9510 C   0  0  0  0  0  3  0  0  0  0  0  0
  180.2640  182.7920  136.7740 C   0  0  2  0  0  3  0  0  0  0  0  0
  179.8980  182.6160  138.2460 C   0  0  0  0  0  2  0  0  0  0  0  0
  181.0050  179.9150  137.0560 C   0  0  2  0  0  3  0  0  0  0  0  0
  180.8300  181.6250  138.9310 C   0  0  0  0  0  2  0  0  0  0  0  0
  180.5430  180.1870  138.5000 C   0  0  2  0  0  3  0  0  0  0  0  0
  179.7780  184.0810  136.3010 N   0  0  0  0  0  0  0  0  0  0  0  0
  180.9510  184.9570  136.1270 C   0  0  0  0  0  2  0  0  0  0  0  0
  180.3620  184.3030  134.9680 C   0  0  0  0  0  2  0  0  0  0  0  0
  184.9310  179.0180  139.1670 C   0  0  0  0  0  2  0  0  0  0  0  0
  186.9590  178.2320  142.2870 C   0  0  0  0  0  3  0  0  0  0  0  0
  184.3220  179.0030  141.5990 C   0  0  0  0  0  3  0  0  0  0  0  0
  187.0900  177.9300  145.4620 C   0  0  0  0  0  3  0  0  0  0  0  0
  184.5560  178.6290  146.4910 N   0  0  0  0  0  0  0  0  0  0  0  0
  186.0630  178.2530  144.6870 C   0  0  0  0  0  0  0  0  0  0  0  0
  185.5930  178.3460  147.3680 O   0  0  0  0  0  0  0  0  0  0  0  0
  185.9800  178.4250  143.2570 C   0  0  0  0  0  0  0  0  0  0  0  0
  186.8350  177.7490  146.9390 C   0  0  0  0  0  2  0  0  0  0  0  0
  183.7910  178.9180  144.1320 C   0  0  0  0  0  2  0  0  0  0  0  0
  184.6830  178.7960  142.9290 C   0  0  0  0  0  0  0  0  0  0  0  0
  184.7580  178.5550  145.2150 C   0  0  0  0  0  0  0  0  0  0  0  0
  185.2980  178.8330  140.6010 C   0  0  0  0  0  0  0  0  0  0  0  0
  186.6060  178.4440  140.9460 C   0  0  0  0  0  3  0  0  0  0  0  0
  1  5  1  6  0  0  0
  2 15  1  0  0  0  0
  3 15  1  0  0  0  0
  4  8  1  0  0  0  0
  4 21  1  1  0  0  0
  4  5  1  0  0  0  0
  6  8  1  6  0  0  0
  7  6  1  0  0  0  0
  9  3  1  6  0  0  0
  9 10  1  0  0  0  0
 10  6  1  0  0  0  0
 10  1  1  0  0  0  0
 11  9  1  0  0  0  0
 11  7  1  0  0  0  0
 12  2  2  0  0  0  0
 12 13  1  0  0  0  0
 13 14  1  0  0  0  0
 14 16  1  0  0  0  0
 15 17  1  0  0  0  0
 17 16  1  0  0  0  0
 17  1  1  0  0  0  0
 18 13  1  0  0  0  0
 19 18  1  0  0  0  0
 20 19  1  0  0  0  0
 20 18  1  0  0  0  0
 21 33  1  0  0  0  0
 22 28  1  0  0  0  0
 23 31  1  0  0  0  0
 24 29  1  0  0  0  0
 25 27  1  0  0  0  0
 26 32  1  0  0  0  0
 26 24  2  0  0  0  0
 28 26  1  0  0  0  0
 29 27  1  0  0  0  0
 30 32  1  0  0  0  0
 31 28  2  0  0  0  0
 31 30  1  0  0  0  0
 32 25  2  0  0  0  0
 33 34  1  0  0  0  0
 33 23  2  0  0  0  0
 34 22  2  0  0  0  0
M  END
>  <MODEL>
6

>  <REMARK>
 VINA RESULT:      -8.7      1.719      2.551
  Name = 
  3 active torsions:
  status: ('A' for Active; 'I' for Inactive)
    1  A    between atoms: N_3  and  C_25
    2  A    between atoms: C_8  and  C_18
    3  A    between atoms: C_18  and  C_30
                            x       y       z     vdW  Elec       q    Type
                         _______ _______ _______ _____ _____    ______ ____

>  <TORSDO>
F 3

$$$$
=
 OpenBabel10262423353D

 34 41  0  0  1  0  0  0  0  0999 V2000
  186.3010  177.5140  136.0890 C   0  0  2  0  0  3  0  0  0  0  0  0
  188.6350  174.5830  136.7960 C   0  0  0  0  0  3  0  0  0  0  0  0
  186.3050  175.0550  137.4600 C   0  0  0  0  0  2  0  0  0  0  0  0
  185.4340  177.8500  138.4270 C   0  0  2  0  0  3  0  0  0  0  0  0
  186.0970  178.5190  137.2370 C   0  0  0  0  0  2  0  0  0  0  0  0
  183.8380  176.9250  136.6260 C   0  0  1  0  0  3  0  0  0  0  0  0
  182.7850  175.4700  136.5800 S   0  0  0  0  0  0  0  0  0  0  0  0
  184.0180  177.3760  138.0840 C   0  0  0  0  0  2  0  0  0  0  0  0
  185.4730  175.1160  136.2580 N   0  0  2  0  0  0  0  0  0  0  0  0
  185.1270  176.5100  135.9300 C   0  0  2  0  0  3  0  0  0  0  0  0
  184.2470  174.3790  136.5500 C   0  0  0  0  0  2  0  0  0  0  0  0
  189.9510  174.7760  136.6510 C   0  0  0  0  0  3  0  0  0  0  0  0
  190.6230  176.1010  136.8860 C   0  0  2  0  0  3  0  0  0  0  0  0
  190.1370  177.1260  135.8640 C   0  0  0  0  0  2  0  0  0  0  0  0
  187.6880  175.6680  137.2100 C   0  0  2  0  0  3  0  0  0  0  0  0
  188.8200  177.7550  136.2980 C   0  0  0  0  0  2  0  0  0  0  0  0
  187.6510  176.7830  136.1470 C   0  0  2  0  0  3  0  0  0  0  0  0
  192.0650  175.9370  136.7660 N   0  0  0  0  0  0  0  0  0  0  0  0
  192.6570  176.2880  138.0700 C   0  0  0  0  0  2  0  0  0  0  0  0
  192.4640  174.8890  137.7200 C   0  0  0  0  0  2  0  0  0  0  0  0
  185.4220  178.7850  139.6250 C   0  0  0  0  0  2  0  0  0  0  0  0
  188.8640  177.8730  140.9580 C   0  0  0  0  0  3  0  0  0  0  0  0
  186.2330  178.2530  141.9360 C   0  0  0  0  0  3  0  0  0  0  0  0
  190.7180  177.0740  143.4310 C   0  0  0  0  0  3  0  0  0  0  0  0
  189.1110  177.1170  145.7510 N   0  0  0  0  0  0  0  0  0  0  0  0
  189.4170  177.3290  143.4000 C   0  0  0  0  0  0  0  0  0  0  0  0
  190.4740  176.8850  145.8700 O   0  0  0  0  0  0  0  0  0  0  0  0
  188.5590  177.7190  142.3070 C   0  0  0  0  0  0  0  0  0  0  0  0
  191.3190  176.6050  144.7350 C   0  0  0  0  0  2  0  0  0  0  0  0
  187.1710  177.6510  144.2740 C   0  0  0  0  0  2  0  0  0  0  0  0
  187.2720  177.8970  142.7940 C   0  0  0  0  0  0  0  0  0  0  0  0
  188.5920  177.2940  144.5800 C   0  0  0  0  0  0  0  0  0  0  0  0
  186.5190  178.4330  140.5710 C   0  0  0  0  0  0  0  0  0  0  0  0
  187.8260  178.2370  140.0870 C   0  0  0  0  0  3  0  0  0  0  0  0
  1 17  1  0  0  0  0
  1  5  1  1  0  0  0
  2 15  1  0  0  0  0
  4 21  1  1  0  0  0
  5  4  1  0  0  0  0
  6  8  1  1  0  0  0
  7  6  1  0  0  0  0
  8  4  1  0  0  0  0
  9 11  1  1  0  0  0
  9  3  1  0  0  0  0
 10  1  1  0  0  0  0
 10  9  1  0  0  0  0
 10  6  1  0  0  0  0
 11  7  1  0  0  0  0
 12  2  2  0  0  0  0
 12 13  1  0  0  0  0
 14 16  1  0  0  0  0
 14 13  1  0  0  0  0
 15  3  1  0  0  0  0
 17 16  1  0  0  0  0
 17 15  1  0  0  0  0
 18 13  1  0  0  0  0
 18 20  1  0  0  0  0
 18 19  1  0  0  0  0
 20 19  1  0  0  0  0
 21 33  1  0  0  0  0
 22 28  1  0  0  0  0
 23 31  1  0  0  0  0
 24 29  1  0  0  0  0
 25 27  1  0  0  0  0
 26 24  2  0  0  0  0
 26 32  1  0  0  0  0
 28 31  2  0  0  0  0
 28 26  1  0  0  0  0
 29 27  1  0  0  0  0
 30 32  1  0  0  0  0
 31 30  1  0  0  0  0
 32 25  2  0  0  0  0
 33 23  2  0  0  0  0
 34 33  1  0  0  0  0
 34 22  2  0  0  0  0
M  END
>  <MODEL>
7

>  <REMARK>
 VINA RESULT:      -8.6      5.122      7.760
  Name = 
  3 active torsions:
  status: ('A' for Active; 'I' for Inactive)
    1  A    between atoms: N_3  and  C_25
    2  A    between atoms: C_8  and  C_18
    3  A    between atoms: C_18  and  C_30
                            x       y       z     vdW  Elec       q    Type
                         _______ _______ _______ _____ _____    ______ ____

>  <TORSDO>
F 3

$$$$
=
 OpenBabel10262423353D

 34 41  0  0  1  0  0  0  0  0999 V2000
  187.3630  176.2840  135.1530 C   0  0  2  0  0  3  0  0  0  0  0  0
  189.7120  173.7540  136.7740 C   0  0  0  0  0  3  0  0  0  0  0  0
  187.3340  174.2970  137.1470 C   0  0  0  0  0  2  0  0  0  0  0  0
  186.3370  177.2120  137.2540 C   0  0  2  0  0  3  0  0  0  0  0  0
  187.0610  177.5550  135.9650 C   0  0  0  0  0  2  0  0  0  0  0  0
  184.8850  175.7660  135.6910 C   0  0  1  0  0  3  0  0  0  0  0  0
  183.8710  174.3130  135.9880 S   0  0  0  0  0  0  0  0  0  0  0  0
  184.9580  176.6060  136.9750 C   0  0  0  0  0  2  0  0  0  0  0  0
  186.5810  173.9920  135.9300 N   0  0  2  0  0  0  0  0  0  0  0  0
  186.2260  175.2280  135.2110 C   0  0  2  0  0  3  0  0  0  0  0  0
  185.3560  173.3150  136.3430 C   0  0  0  0  0  2  0  0  0  0  0  0
  191.0310  173.9530  136.6570 C   0  0  0  0  0  3  0  0  0  0  0  0
  191.6550  175.3170  136.5540 C   0  0  2  0  0  3  0  0  0  0  0  0
  191.2140  176.0030  135.2630 C   0  0  0  0  0  2  0  0  0  0  0  0
  188.7150  174.8730  136.8170 C   0  0  2  0  0  3  0  0  0  0  0  0
  189.8570  176.6740  135.4310 C   0  0  0  0  0  2  0  0  0  0  0  0
  188.7230  175.6510  135.4880 C   0  0  2  0  0  3  0  0  0  0  0  0
  193.1050  175.1850  136.5670 N   0  0  0  0  0  0  0  0  0  0  0  0
  193.5720  175.6010  137.9020 C   0  0  0  0  0  2  0  0  0  0  0  0
  193.4410  174.1850  137.5940 C   0  0  0  0  0  2  0  0  0  0  0  0
  186.2250  178.4390  138.1440 C   0  0  0  0  0  2  0  0  0  0  0  0
  187.2320  178.4910  141.8110 C   0  0  0  0  0  3  0  0  0  0  0  0
  188.3330  177.7460  139.3100 C   0  0  0  0  0  3  0  0  0  0  0  0
  189.4330  177.9270  144.0530 C   0  0  0  0  0  3  0  0  0  0  0  0
  191.6800  176.7900  142.7760 N   0  0  0  0  0  0  0  0  0  0  0  0
  189.5030  177.7520  142.7400 C   0  0  0  0  0  0  0  0  0  0  0  0
  191.6640  176.8990  144.1600 O   0  0  0  0  0  0  0  0  0  0  0  0
  188.5190  177.9710  141.7080 C   0  0  0  0  0  0  0  0  0  0  0  0
  190.6800  177.6800  144.8690 C   0  0  0  0  0  2  0  0  0  0  0  0
  190.4770  177.0990  140.6100 C   0  0  0  0  0  2  0  0  0  0  0  0
  189.0690  177.6090  140.4860 C   0  0  0  0  0  0  0  0  0  0  0  0
  190.6730  177.2240  142.0890 C   0  0  0  0  0  0  0  0  0  0  0  0
  187.0240  178.2530  139.3890 C   0  0  0  0  0  0  0  0  0  0  0  0
  186.4820  178.6280  140.6330 C   0  0  0  0  0  3  0  0  0  0  0  0
  1 10  1  0  0  0  0
  1 17  1  0  0  0  0
  1  5  1  1  0  0  0
  2 15  1  0  0  0  0
  4 21  1  1  0  0  0
  5  4  1  0  0  0  0
  6  7  1  0  0  0  0
  6  8  1  1  0  0  0
  7 11  1  0  0  0  0
  8  4  1  0  0  0  0
  9 11  1  1  0  0  0
  9  3  1  0  0  0  0
 10  6  1  0  0  0  0
 10  9  1  0  0  0  0
 12  2  2  0  0  0  0
 13 18  1  0  0  0  0
 13 12  1  0  0  0  0
 14 16  1  0  0  0  0
 14 13  1  0  0  0  0
 15  3  1  0  0  0  0
 16 17  1  0  0  0  0
 17 15  1  0  0  0  0
 18 20  1  0  0  0  0
 18 19  1  0  0  0  0
 20 19  1  0  0  0  0
 21 33  1  0  0  0  0
 23 33  2  0  0  0  0
 23 31  1  0  0  0  0
 24 29  1  0  0  0  0
 25 27  1  0  0  0  0
 26 24  2  0  0  0  0
 27 29  1  0  0  0  0
 28 22  1  0  0  0  0
 28 26  1  0  0  0  0
 30 32  1  0  0  0  0
 31 30  1  0  0  0  0
 31 28  2  0  0  0  0
 32 26  1  0  0  0  0
 32 25  2  0  0  0  0
 33 34  1  0  0  0  0
 34 22  2  0  0  0  0
M  END
>  <MODEL>
8

>  <REMARK>
 VINA RESULT:      -8.6      6.120      9.047
  Name = 
  3 active torsions:
  status: ('A' for Active; 'I' for Inactive)
    1  A    between atoms: N_3  and  C_25
    2  A    between atoms: C_8  and  C_18
    3  A    between atoms: C_18  and  C_30
                            x       y       z     vdW  Elec       q    Type
                         _______ _______ _______ _____ _____    ______ ____

>  <TORSDO>
F 3

$$$$
=
 OpenBabel10262423353D

 34 41  0  0  1  0  0  0  0  0999 V2000
  187.5070  176.6700  145.3410 C   0  0  2  0  0  3  0  0  0  0  0  0
  190.7200  178.0510  143.8200 C   0  0  0  0  0  3  0  0  0  0  0  0
  189.4290  178.6680  145.8310 C   0  0  0  0  0  2  0  0  0  0  0  0
  186.3530  178.8630  145.7820 C   0  0  2  0  0  3  0  0  0  0  0  0
  186.2320  177.5030  145.1180 C   0  0  0  0  0  2  0  0  0  0  0  0
  187.1880  177.4680  147.7820 C   0  0  1  0  0  3  0  0  0  0  0  0
  188.2290  177.8780  149.1880 S   0  0  0  0  0  0  0  0  0  0  0  0
  186.4580  178.7330  147.3040 C   0  0  0  0  0  2  0  0  0  0  0  0
  189.4310  177.5380  146.7600 N   0  0  2  0  0  0  0  0  0  0  0  0
  188.1260  176.8540  146.7530 C   0  0  2  0  0  3  0  0  0  0  0  0
  189.6740  178.0820  148.0930 C   0  0  0  0  0  2  0  0  0  0  0  0
  190.9680  177.7950  142.5300 C   0  0  0  0  0  3  0  0  0  0  0  0
  189.8860  177.6200  141.5000 C   0  0  2  0  0  3  0  0  0  0  0  0
  189.0550  176.3780  141.8140 C   0  0  0  0  0  2  0  0  0  0  0  0
  189.3360  178.1920  144.3770 C   0  0  2  0  0  3  0  0  0  0  0  0
  187.9770  176.6830  142.8450 C   0  0  0  0  0  2  0  0  0  0  0  0
  188.5650  176.8650  144.2440 C   0  0  2  0  0  3  0  0  0  0  0  0
  190.4930  177.4810  140.1830 N   0  0  0  0  0  0  0  0  0  0  0  0
  189.5100  176.8080  139.3150 C   0  0  0  0  0  2  0  0  0  0  0  0
  189.6660  178.2530  139.2410 C   0  0  0  0  0  2  0  0  0  0  0  0
  185.1860  179.7530  145.3880 C   0  0  0  0  0  2  0  0  0  0  0  0
  182.8290  178.6090  142.6320 C   0  0  0  0  0  3  0  0  0  0  0  0
  185.5490  179.3360  142.9430 C   0  0  0  0  0  3  0  0  0  0  0  0
  182.3700  177.8350  139.5690 C   0  0  0  0  0  3  0  0  0  0  0  0
  184.8140  178.2360  138.2120 N   0  0  0  0  0  0  0  0  0  0  0  0
  183.4810  178.2180  140.1850 C   0  0  0  0  0  0  0  0  0  0  0  0
  183.6840  177.8780  137.4900 O   0  0  0  0  0  0  0  0  0  0  0  0
  183.7130  178.6000  141.5570 C   0  0  0  0  0  0  0  0  0  0  0  0
  182.4700  177.4180  138.1210 C   0  0  0  0  0  2  0  0  0  0  0  0
  185.8200  178.8400  140.4150 C   0  0  0  0  0  2  0  0  0  0  0  0
  185.0490  178.9490  141.7010 C   0  0  0  0  0  0  0  0  0  0  0  0
  184.7370  178.3670  139.4970 C   0  0  0  0  0  0  0  0  0  0  0  0
  184.6720  179.3710  144.0410 C   0  0  0  0  0  0  0  0  0  0  0  0
  183.3220  179.0030  143.8840 C   0  0  0  0  0  3  0  0  0  0  0  0
  1  5  1  6  0  0  0
  1 10  1  0  0  0  0
  2 15  1  0  0  0  0
  4 21  1  1  0  0  0
  4  8  1  0  0  0  0
  5  4  1  0  0  0  0
  6  8  1  6  0  0  0
  6  7  1  0  0  0  0
  9  3  1  6  0  0  0
  9 11  1  0  0  0  0
 10  9  1  0  0  0  0
 10  6  1  0  0  0  0
 11  7  1  0  0  0  0
 12  2  2  0  0  0  0
 13 14  1  0  0  0  0
 13 12  1  0  0  0  0
 14 16  1  0  0  0  0
 15  3  1  0  0  0  0
 16 17  1  0  0  0  0
 17 15  1  0  0  0  0
 17  1  1  0  0  0  0
 18 13  1  0  0  0  0
 19 18  1  0  0  0  0
 20 19  1  0  0  0  0
 20 18  1  0  0  0  0
 22 34  1  0  0  0  0
 23 33  1  0  0  0  0
 24 26  2  0  0  0  0
 25 32  2  0  0  0  0
 26 28  1  0  0  0  0
 27 29  1  0  0  0  0
 27 25  1  0  0  0  0
 28 31  1  0  0  0  0
 28 22  2  0  0  0  0
 29 24  1  0  0  0  0
 30 31  1  0  0  0  0
 31 23  2  0  0  0  0
 32 26  1  0  0  0  0
 32 30  1  0  0  0  0
 33 21  1  0  0  0  0
 34 33  2  0  0  0  0
M  END
>  <MODEL>
9

>  <REMARK>
 VINA RESULT:      -8.5      4.477      9.222
  Name = 
  3 active torsions:
  status: ('A' for Active; 'I' for Inactive)
    1  A    between atoms: N_3  and  C_25
    2  A    between atoms: C_8  and  C_18
    3  A    between atoms: C_18  and  C_30
                            x       y       z     vdW  Elec       q    Type
                         _______ _______ _______ _____ _____    ______ ____

>  <TORSDO>
F 3

$$$$
