=
 OpenBabel10262421423D

 30 35  0  0  1  0  0  0  0  0999 V2000
  183.6890  177.8850  140.2810 C   0  0  1  0  0  3  0  0  0  0  0  0
  182.9250  178.8000  142.4990 C   0  0  0  0  0  0  0  0  0  0  0  0
  179.8310  177.7420  139.2180 O   0  0  0  0  0  0  0  0  0  0  0  0
  183.0960  176.9020  139.2500 C   0  0  1  0  0  3  0  0  0  0  0  0
  184.5700  178.9550  139.6080 C   0  0  0  0  0  2  0  0  0  0  0  0
  185.8530  177.3820  136.5630 C   0  0  0  0  0  2  0  0  0  0  0  0
  183.5480  173.9820  137.5190 C   0  0  0  0  0  2  0  0  0  0  0  0
  184.7790  177.5390  137.5920 C   0  0  2  0  0  3  0  0  0  0  0  0
  186.5260  178.9600  138.0470 O   0  0  0  0  0  0  0  0  0  0  0  0
  181.6760  175.6780  137.3770 C   0  0  1  0  0  3  0  0  0  0  0  0
  179.9620  176.3440  139.1660 C   0  0  0  0  0  0  0  0  0  0  0  0
  185.5370  178.2080  138.7160 C   0  0  1  0  0  3  0  0  0  0  0  0
  184.0390  176.3280  138.1700 C   0  0  2  0  0  3  0  0  0  0  0  0
  182.0020  179.4130  143.2830 N   0  0  0  0  0  0  0  0  0  0  0  0
  180.8290  174.7160  136.5360 C   0  0  0  0  0  2  0  0  0  0  0  0
  182.5600  172.9720  136.9930 C   0  0  0  0  0  3  0  0  0  0  0  0
  187.9070  178.5550  136.0390 N   0  0  0  0  0  1  0  0  0  0  0  0
  184.2390  178.4280  143.1000 C   0  0  0  0  0  1  0  0  0  0  0  0
  180.9130  178.6700  139.2460 C   0  0  0  0  0  2  0  0  0  0  0  0
  180.8090  179.7740  142.8120 N   0  0  0  0  0  0  0  0  0  0  0  0
  186.7660  178.3020  136.8490 C   0  0  1  0  0  3  0  0  0  0  0  0
  182.6270  178.5300  141.1500 C   0  0  0  0  0  0  0  0  0  0  0  0
  182.2750  175.9170  139.8130 O   0  0  0  0  0  0  0  0  0  0  0  0
  178.9310  175.6440  139.3270 O   0  0  0  0  0  0  0  0  0  0  0  0
  181.2560  175.6280  138.8730 C   0  0  2  0  0  3  0  0  0  0  0  0
  181.3230  173.2950  136.5960 C   0  0  0  0  0  3  0  0  0  0  0  0
  183.5630  175.6900  135.7200 C   0  0  0  0  0  1  0  0  0  0  0  0
  180.4600  179.5440  141.5220 C   0  0  0  0  0  3  0  0  0  0  0  0
  181.3570  178.9160  140.6580 C   0  0  0  0  0  0  0  0  0  0  0  0
  183.2060  175.4410  137.1850 C   0  0  1  0  0  0  0  0  0  0  0  0
  1  5  1  6  0  0  0
  1 22  1  0  0  0  0
  2 18  1  0  0  0  0
  2 14  1  0  0  0  0
  3 19  1  0  0  0  0
  4 23  1  1  0  0  0
  4  1  1  0  0  0  0
  6 21  1  0  0  0  0
  8  6  1  6  0  0  0
  8 13  1  0  0  0  0
  8 12  1  0  0  0  0
  9 12  1  0  0  0  0
 10 15  1  6  0  0  0
 10 25  1  0  0  0  0
 11  3  1  0  0  0  0
 11 24  2  0  0  0  0
 12  5  1  6  0  0  0
 13  4  1  0  0  0  0
 15 26  1  0  0  0  0
 16  7  1  0  0  0  0
 17 21  1  0  0  0  0
 19 29  1  0  0  0  0
 20 14  2  0  0  0  0
 21  9  1  0  0  0  0
 22  2  2  0  0  0  0
 25 11  1  0  0  0  0
 25 23  1  0  0  0  0
 26 16  2  0  0  0  0
 27 30  1  0  0  0  0
 28 20  1  0  0  0  0
 29 22  1  0  0  0  0
 29 28  2  0  0  0  0
 30 10  1  0  0  0  0
 30  7  1  0  0  0  0
 30 13  1  0  0  0  0
M  END
>  <MODEL>
1

>  <REMARK>
 VINA RESULT:      -6.7      0.000      0.000
  Name = 
  0 active torsions:
  status: ('A' for Active; 'I' for Inactive)
                            x       y       z     vdW  Elec       q    Type
                         _______ _______ _______ _____ _____    ______ ____

>  <TORSDO>
F 0

$$$$
=
 OpenBabel10262421423D

 30 35  0  0  1  0  0  0  0  0999 V2000
  183.4140  177.6190  139.4470 C   0  0  1  0  0  3  0  0  0  0  0  0
  182.0660  178.7260  141.2630 C   0  0  0  0  0  0  0  0  0  0  0  0
  179.9390  176.6940  137.6860 O   0  0  0  0  0  0  0  0  0  0  0  0
  183.1930  176.4080  138.5180 C   0  0  1  0  0  3  0  0  0  0  0  0
  184.2810  178.7020  138.7780 C   0  0  0  0  0  2  0  0  0  0  0  0
  186.3970  176.9100  136.3890 C   0  0  0  0  0  2  0  0  0  0  0  0
  184.3820  173.3690  137.4780 C   0  0  0  0  0  2  0  0  0  0  0  0
  185.1100  177.0470  137.1380 C   0  0  2  0  0  3  0  0  0  0  0  0
  186.5200  178.7840  137.6620 O   0  0  0  0  0  0  0  0  0  0  0  0
  182.3920  174.6980  136.6580 C   0  0  1  0  0  3  0  0  0  0  0  0
  180.2530  175.3440  137.9180 C   0  0  0  0  0  0  0  0  0  0  0  0
  185.5090  177.9930  138.2470 C   0  0  1  0  0  3  0  0  0  0  0  0
  184.4180  175.8350  137.7710 C   0  0  2  0  0  3  0  0  0  0  0  0
  180.9220  179.2950  141.7230 N   0  0  0  0  0  0  0  0  0  0  0  0
  181.8810  173.4950  135.8580 C   0  0  0  0  0  2  0  0  0  0  0  0
  183.6710  172.1440  136.9600 C   0  0  0  0  0  3  0  0  0  0  0  0
  188.3530  178.3060  136.0760 N   0  0  0  0  0  1  0  0  0  0  0  0
  183.2490  178.6680  142.1710 C   0  0  0  0  0  1  0  0  0  0  0  0
  180.8620  177.7770  137.7560 C   0  0  0  0  0  2  0  0  0  0  0  0
  179.8280  179.3820  140.9660 N   0  0  0  0  0  0  0  0  0  0  0  0
  187.1010  177.9980  136.6770 C   0  0  1  0  0  3  0  0  0  0  0  0
  182.1130  178.2090  139.9550 C   0  0  0  0  0  0  0  0  0  0  0  0
  182.3970  175.4010  139.0780 O   0  0  0  0  0  0  0  0  0  0  0  0
  179.3070  174.5190  137.9970 O   0  0  0  0  0  0  0  0  0  0  0  0
  181.6590  174.8110  138.0240 C   0  0  2  0  0  3  0  0  0  0  0  0
  182.5230  172.1980  136.2740 C   0  0  0  0  0  3  0  0  0  0  0  0
  184.5840  174.7620  135.4340 C   0  0  0  0  0  1  0  0  0  0  0  0
  179.8070  178.9050  139.6970 C   0  0  0  0  0  3  0  0  0  0  0  0
  180.9460  178.3060  139.1590 C   0  0  0  0  0  0  0  0  0  0  0  0
  183.9430  174.6860  136.8190 C   0  0  1  0  0  0  0  0  0  0  0  0
  1  5  1  6  0  0  0
  1 22  1  0  0  0  0
  2 14  1  0  0  0  0
  2 18  1  0  0  0  0
  3 19  1  0  0  0  0
  3 11  1  0  0  0  0
  4 23  1  1  0  0  0
  4  1  1  0  0  0  0
  6 21  1  0  0  0  0
  8  6  1  1  0  0  0
  8 13  1  0  0  0  0
  8 12  1  0  0  0  0
  9 12  1  0  0  0  0
 10 15  1  1  0  0  0
 10 30  1  0  0  0  0
 10 25  1  0  0  0  0
 11 24  2  0  0  0  0
 11 25  1  0  0  0  0
 12  5  1  6  0  0  0
 13  4  1  0  0  0  0
 15 26  1  0  0  0  0
 16  7  1  0  0  0  0
 17 21  1  0  0  0  0
 19 29  1  0  0  0  0
 20 14  2  0  0  0  0
 21  9  1  0  0  0  0
 22  2  2  0  0  0  0
 25 23  1  0  0  0  0
 26 16  2  0  0  0  0
 27 30  1  0  0  0  0
 28 20  1  0  0  0  0
 29 28  2  0  0  0  0
 29 22  1  0  0  0  0
 30  7  1  0  0  0  0
 30 13  1  0  0  0  0
M  END
>  <MODEL>
2

>  <REMARK>
 VINA RESULT:      -6.2      1.132      1.352
  Name = 
  0 active torsions:
  status: ('A' for Active; 'I' for Inactive)
                            x       y       z     vdW  Elec       q    Type
                         _______ _______ _______ _____ _____    ______ ____

>  <TORSDO>
F 0

$$$$
=
 OpenBabel10262421423D

 30 35  0  0  1  0  0  0  0  0999 V2000
  187.6800  178.2700  139.2380 C   0  0  1  0  0  3  0  0  0  0  0  0
  187.7020  178.7090  136.7580 C   0  0  0  0  0  0  0  0  0  0  0  0
  183.8290  177.2500  138.8370 O   0  0  0  0  0  0  0  0  0  0  0  0
  186.6180  178.3880  140.3510 C   0  0  1  0  0  3  0  0  0  0  0  0
  188.6860  177.1400  139.5260 C   0  0  0  0  0  2  0  0  0  0  0  0
  188.7760  176.8260  143.1710 C   0  0  0  0  0  2  0  0  0  0  0  0
  185.7960  179.8040  143.3580 C   0  0  0  0  0  2  0  0  0  0  0  0
  188.0360  177.1470  141.9120 C   0  0  2  0  0  3  0  0  0  0  0  0
  190.1870  176.5020  141.4240 O   0  0  0  0  0  0  0  0  0  0  0  0
  184.5410  178.1020  141.9720 C   0  0  1  0  0  3  0  0  0  0  0  0
  183.5160  178.3640  139.6340 C   0  0  0  0  0  0  0  0  0  0  0  0
  189.1760  177.3590  140.9410 C   0  0  1  0  0  3  0  0  0  0  0  0
  187.0990  178.3560  141.8180 C   0  0  2  0  0  3  0  0  0  0  0  0
  187.1910  178.5420  135.5120 N   0  0  0  0  0  0  0  0  0  0  0  0
  183.2870  178.2780  142.8370 C   0  0  0  0  0  2  0  0  0  0  0  0
  184.4620  180.1810  143.9520 C   0  0  0  0  0  3  0  0  0  0  0  0
  190.9360  175.8570  143.6890 N   0  0  0  0  0  1  0  0  0  0  0  0
  188.9360  179.5330  136.9200 C   0  0  0  0  0  1  0  0  0  0  0  0
  185.1220  176.6650  138.7120 C   0  0  0  0  0  2  0  0  0  0  0  0
  186.0940  177.8170  135.2940 N   0  0  0  0  0  0  0  0  0  0  0  0
  189.9640  176.3740  142.7880 C   0  0  1  0  0  3  0  0  0  0  0  0
  187.0670  178.1080  137.8610 C   0  0  0  0  0  0  0  0  0  0  0  0
  185.6710  179.3950  140.1270 O   0  0  0  0  0  0  0  0  0  0  0  0
  182.3760  178.8820  139.5120 O   0  0  0  0  0  0  0  0  0  0  0  0
  184.4420  178.9470  140.6710 C   0  0  2  0  0  3  0  0  0  0  0  0
  183.3280  179.5250  143.6800 C   0  0  0  0  0  3  0  0  0  0  0  0
  185.9590  177.3930  143.9190 C   0  0  0  0  0  1  0  0  0  0  0  0
  185.4340  177.2110  136.3130 C   0  0  0  0  0  3  0  0  0  0  0  0
  185.9000  177.3410  137.6210 C   0  0  0  0  0  0  0  0  0  0  0  0
  185.8520  178.3890  142.7650 C   0  0  1  0  0  0  0  0  0  0  0  0
  1  5  1  1  0  0  0
  1  4  1  0  0  0  0
  2 18  1  0  0  0  0
  2 22  1  0  0  0  0
  3 11  1  0  0  0  0
  4 23  1  6  0  0  0
  4 13  1  0  0  0  0
  7 16  1  0  0  0  0
  8  6  1  1  0  0  0
  9 21  1  0  0  0  0
 10 30  1  0  0  0  0
 10 15  1  1  0  0  0
 11 25  1  0  0  0  0
 12  5  1  6  0  0  0
 12  9  1  0  0  0  0
 12  8  1  0  0  0  0
 13  8  1  0  0  0  0
 13 30  1  0  0  0  0
 14  2  2  0  0  0  0
 15 26  1  0  0  0  0
 19  3  1  0  0  0  0
 20 14  1  0  0  0  0
 20 28  2  0  0  0  0
 21  6  1  0  0  0  0
 21 17  1  0  0  0  0
 22  1  1  0  0  0  0
 23 25  1  0  0  0  0
 24 11  2  0  0  0  0
 25 10  1  0  0  0  0
 26 16  2  0  0  0  0
 28 29  1  0  0  0  0
 29 22  2  0  0  0  0
 29 19  1  0  0  0  0
 30  7  1  0  0  0  0
 30 27  1  0  0  0  0
M  END
>  <MODEL>
3

>  <REMARK>
 VINA RESULT:      -6.1      3.662      6.738
  Name = 
  0 active torsions:
  status: ('A' for Active; 'I' for Inactive)
                            x       y       z     vdW  Elec       q    Type
                         _______ _______ _______ _____ _____    ______ ____

>  <TORSDO>
F 0

$$$$
=
 OpenBabel10262421423D

 30 35  0  0  1  0  0  0  0  0999 V2000
  181.7810  175.9910  137.6440 C   0  0  1  0  0  3  0  0  0  0  0  0
  179.6470  177.0690  138.4370 C   0  0  0  0  0  0  0  0  0  0  0  0
  183.7150  178.3220  140.2620 O   0  0  0  0  0  0  0  0  0  0  0  0
  183.2420  176.4610  137.4910 C   0  0  1  0  0  3  0  0  0  0  0  0
  181.6950  174.4860  137.9630 C   0  0  0  0  0  2  0  0  0  0  0  0
  184.7020  173.0090  136.4890 C   0  0  0  0  0  2  0  0  0  0  0  0
  185.8800  176.8950  135.3510 C   0  0  0  0  0  2  0  0  0  0  0  0
  184.0030  174.1630  137.1340 C   0  0  2  0  0  3  0  0  0  0  0  0
  182.5730  172.3740  136.9470 O   0  0  0  0  0  0  0  0  0  0  0  0
  185.7430  177.2600  137.8510 C   0  0  1  0  0  3  0  0  0  0  0  0
  184.3230  178.9480  139.1610 C   0  0  0  0  0  0  0  0  0  0  0  0
  182.5530  173.7850  136.9320 C   0  0  1  0  0  3  0  0  0  0  0  0
  184.1950  175.5990  136.6350 C   0  0  2  0  0  3  0  0  0  0  0  0
  178.9310  177.7600  139.3590 N   0  0  0  0  0  0  0  0  0  0  0  0
  187.0930  177.9870  137.8480 C   0  0  0  0  0  2  0  0  0  0  0  0
  187.0110  177.8930  135.3520 C   0  0  0  0  0  3  0  0  0  0  0  0
  184.1550  170.6830  136.0860 N   0  0  0  0  0  1  0  0  0  0  0  0
  178.9590  176.6080  137.1950 C   0  0  0  0  0  1  0  0  0  0  0  0
  183.0310  177.0730  140.2250 C   0  0  0  0  0  2  0  0  0  0  0  0
  179.4800  178.2000  140.4900 N   0  0  0  0  0  0  0  0  0  0  0  0
  183.8370  172.0030  136.5130 C   0  0  1  0  0  3  0  0  0  0  0  0
  181.0100  176.8030  138.6660 C   0  0  0  0  0  0  0  0  0  0  0  0
  183.3720  177.8280  137.2140 O   0  0  0  0  0  0  0  0  0  0  0  0
  184.7340  180.1280  139.2990 O   0  0  0  0  0  0  0  0  0  0  0  0
  184.5650  178.2730  137.8340 C   0  0  2  0  0  3  0  0  0  0  0  0
  187.5230  178.4190  136.4710 C   0  0  0  0  0  3  0  0  0  0  0  0
  186.7180  175.1490  136.9020 C   0  0  0  0  0  1  0  0  0  0  0  0
  180.7880  177.9770  140.7730 C   0  0  0  0  0  3  0  0  0  0  0  0
  181.5870  177.2750  139.8710 C   0  0  0  0  0  0  0  0  0  0  0  0
  185.6350  176.2090  136.7040 C   0  0  1  0  0  0  0  0  0  0  0  0
  1  5  1  1  0  0  0
  1 22  1  0  0  0  0
  2 22  2  0  0  0  0
  2 14  1  0  0  0  0
  4 23  1  6  0  0  0
  4  1  1  0  0  0  0
  6 21  1  0  0  0  0
  7 16  1  0  0  0  0
  7 30  1  0  0  0  0
  8  6  1  6  0  0  0
 10 15  1  6  0  0  0
 11 24  2  0  0  0  0
 11  3  1  0  0  0  0
 12  9  1  0  0  0  0
 12  8  1  0  0  0  0
 12  5  1  1  0  0  0
 13 30  1  0  0  0  0
 13  8  1  0  0  0  0
 13  4  1  0  0  0  0
 14 20  2  0  0  0  0
 16 26  2  0  0  0  0
 17 21  1  0  0  0  0
 18  2  1  0  0  0  0
 19  3  1  0  0  0  0
 20 28  1  0  0  0  0
 21  9  1  0  0  0  0
 22 29  1  0  0  0  0
 23 25  1  0  0  0  0
 25 10  1  0  0  0  0
 25 11  1  0  0  0  0
 26 15  1  0  0  0  0
 29 19  1  0  0  0  0
 29 28  2  0  0  0  0
 30 27  1  0  0  0  0
 30 10  1  0  0  0  0
M  END
>  <MODEL>
4

>  <REMARK>
 VINA RESULT:      -6.0      2.645      5.184
  Name = 
  0 active torsions:
  status: ('A' for Active; 'I' for Inactive)
                            x       y       z     vdW  Elec       q    Type
                         _______ _______ _______ _____ _____    ______ ____

>  <TORSDO>
F 0

$$$$
=
 OpenBabel10262421423D

 30 35  0  0  1  0  0  0  0  0999 V2000
  182.7740  178.0040  138.1090 C   0  0  1  0  0  3  0  0  0  0  0  0
  180.8680  179.3160  139.1020 C   0  0  0  0  0  0  0  0  0  0  0  0
  184.6170  178.3570  141.6460 O   0  0  0  0  0  0  0  0  0  0  0  0
  184.3030  177.9920  138.3090 C   0  0  1  0  0  3  0  0  0  0  0  0
  182.2380  176.6120  137.7250 C   0  0  0  0  0  2  0  0  0  0  0  0
  185.0130  174.9370  136.0250 C   0  0  0  0  0  2  0  0  0  0  0  0
  187.3680  178.3440  136.8220 C   0  0  0  0  0  2  0  0  0  0  0  0
  184.5090  175.9060  137.0470 C   0  0  2  0  0  3  0  0  0  0  0  0
  182.7450  174.9050  135.9660 O   0  0  0  0  0  0  0  0  0  0  0  0
  186.7840  177.7240  139.2040 C   0  0  1  0  0  3  0  0  0  0  0  0
  185.5920  179.1280  140.9900 C   0  0  0  0  0  0  0  0  0  0  0  0
  183.0910  176.1320  136.5710 C   0  0  1  0  0  3  0  0  0  0  0  0
  185.1680  177.2740  137.2500 C   0  0  2  0  0  3  0  0  0  0  0  0
  180.1680  179.7840  140.1660 N   0  0  0  0  0  0  0  0  0  0  0  0
  188.2410  177.9120  139.6410 C   0  0  0  0  0  2  0  0  0  0  0  0
  188.6880  178.8340  137.3620 C   0  0  0  0  0  3  0  0  0  0  0  0
  183.9900  173.2710  134.5940 N   0  0  0  0  0  1  0  0  0  0  0  0
  180.3740  179.6290  137.7280 C   0  0  0  0  0  1  0  0  0  0  0  0
  183.6610  177.5180  141.0030 C   0  0  0  0  0  2  0  0  0  0  0  0
  180.5490  179.5410  141.4200 N   0  0  0  0  0  0  0  0  0  0  0  0
  183.9360  174.3430  135.5270 C   0  0  1  0  0  3  0  0  0  0  0  0
  182.0320  178.5540  139.3110 C   0  0  0  0  0  0  0  0  0  0  0  0
  184.8370  179.2350  138.6740 O   0  0  0  0  0  0  0  0  0  0  0  0
  186.2510  179.9560  141.6690 O   0  0  0  0  0  0  0  0  0  0  0  0
  185.9380  178.9870  139.5300 C   0  0  2  0  0  3  0  0  0  0  0  0
  189.0590  178.6820  138.6390 C   0  0  0  0  0  3  0  0  0  0  0  0
  187.3690  175.9610  137.5140 C   0  0  0  0  0  1  0  0  0  0  0  0
  181.6610  178.8130  141.6910 C   0  0  0  0  0  3  0  0  0  0  0  0
  182.4310  178.3020  140.6470 C   0  0  0  0  0  0  0  0  0  0  0  0
  186.6650  177.3040  137.7070 C   0  0  1  0  0  0  0  0  0  0  0  0
  1  5  1  1  0  0  0
  1  4  1  0  0  0  0
  1 22  1  0  0  0  0
  2 22  2  0  0  0  0
  2 14  1  0  0  0  0
  4 23  1  6  0  0  0
  7 16  1  0  0  0  0
  7 30  1  0  0  0  0
  8  6  1  6  0  0  0
  8 13  1  0  0  0  0
  9 12  1  0  0  0  0
 10 25  1  0  0  0  0
 10 15  1  6  0  0  0
 11  3  1  0  0  0  0
 11 24  2  0  0  0  0
 12  8  1  0  0  0  0
 12  5  1  1  0  0  0
 13 30  1  0  0  0  0
 13  4  1  0  0  0  0
 14 20  2  0  0  0  0
 16 26  2  0  0  0  0
 17 21  1  0  0  0  0
 18  2  1  0  0  0  0
 19  3  1  0  0  0  0
 20 28  1  0  0  0  0
 21  9  1  0  0  0  0
 21  6  1  0  0  0  0
 22 29  1  0  0  0  0
 23 25  1  0  0  0  0
 25 11  1  0  0  0  0
 26 15  1  0  0  0  0
 27 30  1  0  0  0  0
 29 19  1  0  0  0  0
 29 28  2  0  0  0  0
 30 10  1  0  0  0  0
M  END
>  <MODEL>
5

>  <REMARK>
 VINA RESULT:      -5.7      2.493      5.152
  Name = 
  0 active torsions:
  status: ('A' for Active; 'I' for Inactive)
                            x       y       z     vdW  Elec       q    Type
                         _______ _______ _______ _____ _____    ______ ____

>  <TORSDO>
F 0

$$$$
=
 OpenBabel10262421423D

 30 35  0  0  1  0  0  0  0  0999 V2000
  182.0570  177.2120  136.7140 C   0  0  1  0  0  3  0  0  0  0  0  0
  181.2130  179.5820  136.8350 C   0  0  0  0  0  0  0  0  0  0  0  0
  185.2470  178.4380  138.8010 O   0  0  0  0  0  0  0  0  0  0  0  0
  183.4540  176.5610  136.6500 C   0  0  1  0  0  3  0  0  0  0  0  0
  181.0390  176.3120  137.4390 C   0  0  0  0  0  2  0  0  0  0  0  0
  182.2270  172.8900  136.9200 C   0  0  0  0  0  2  0  0  0  0  0  0
  185.5540  174.5050  134.8930 C   0  0  0  0  0  2  0  0  0  0  0  0
  182.5030  174.3490  137.0920 C   0  0  2  0  0  3  0  0  0  0  0  0
  180.2440  173.9490  137.2210 O   0  0  0  0  0  0  0  0  0  0  0  0
  185.8910  175.6360  137.1300 C   0  0  1  0  0  3  0  0  0  0  0  0
  186.0230  178.1410  137.6680 C   0  0  0  0  0  0  0  0  0  0  0  0
  181.1460  174.9470  136.7950 C   0  0  1  0  0  3  0  0  0  0  0  0
  183.5430  175.0760  136.2320 C   0  0  2  0  0  3  0  0  0  0  0  0
  181.1960  180.8150  137.4000 N   0  0  0  0  0  0  0  0  0  0  0  0
  187.3830  175.2830  137.1170 C   0  0  0  0  0  2  0  0  0  0  0  0
  187.0570  174.4820  134.7720 C   0  0  0  0  0  3  0  0  0  0  0  0
  180.2680  171.4800  137.1310 N   0  0  0  0  0  1  0  0  0  0  0  0
  180.2920  179.3060  135.6920 C   0  0  0  0  0  1  0  0  0  0  0  0
  183.9140  177.9860  139.0260 C   0  0  0  0  0  2  0  0  0  0  0  0
  181.9890  181.1300  138.4240 N   0  0  0  0  0  0  0  0  0  0  0  0
  180.9220  172.7430  137.1050 C   0  0  1  0  0  3  0  0  0  0  0  0
  182.0870  178.5960  137.3310 C   0  0  0  0  0  0  0  0  0  0  0  0
  184.4190  177.3490  136.0110 O   0  0  0  0  0  0  0  0  0  0  0  0
  187.1130  178.7500  137.5180 O   0  0  0  0  0  0  0  0  0  0  0  0
  185.6590  177.0950  136.6460 C   0  0  2  0  0  3  0  0  0  0  0  0
  187.8770  174.8770  135.7540 C   0  0  0  0  0  3  0  0  0  0  0  0
  185.1760  173.2330  136.9890 C   0  0  0  0  0  1  0  0  0  0  0  0
  182.8540  180.2270  138.9500 C   0  0  0  0  0  3  0  0  0  0  0  0
  182.9270  178.9400  138.4190 C   0  0  0  0  0  0  0  0  0  0  0  0
  185.0330  174.6060  136.3340 C   0  0  1  0  0  0  0  0  0  0  0  0
  1 22  1  0  0  0  0
  1  5  1  1  0  0  0
  2 22  2  0  0  0  0
  2 14  1  0  0  0  0
  3 19  1  0  0  0  0
  4 23  1  6  0  0  0
  4  1  1  0  0  0  0
  6 21  1  0  0  0  0
  7 30  1  0  0  0  0
  8  6  1  6  0  0  0
 10 15  1  6  0  0  0
 11  3  1  0  0  0  0
 12  8  1  0  0  0  0
 12  9  1  0  0  0  0
 12  5  1  1  0  0  0
 13 30  1  0  0  0  0
 13  4  1  0  0  0  0
 13  8  1  0  0  0  0
 14 20  2  0  0  0  0
 16  7  1  0  0  0  0
 16 26  2  0  0  0  0
 18  2  1  0  0  0  0
 20 28  1  0  0  0  0
 21 17  1  0  0  0  0
 21  9  1  0  0  0  0
 22 29  1  0  0  0  0
 23 25  1  0  0  0  0
 24 11  2  0  0  0  0
 25 10  1  0  0  0  0
 25 11  1  0  0  0  0
 26 15  1  0  0  0  0
 29 28  2  0  0  0  0
 29 19  1  0  0  0  0
 30 27  1  0  0  0  0
 30 10  1  0  0  0  0
M  END
>  <MODEL>
6

>  <REMARK>
 VINA RESULT:      -5.7      3.007      5.620
  Name = 
  0 active torsions:
  status: ('A' for Active; 'I' for Inactive)
                            x       y       z     vdW  Elec       q    Type
                         _______ _______ _______ _____ _____    ______ ____

>  <TORSDO>
F 0

$$$$
=
 OpenBabel10262421423D

 30 35  0  0  1  0  0  0  0  0999 V2000
  189.2860  175.8400  136.2720 C   0  0  1  0  0  3  0  0  0  0  0  0
  188.1100  177.9840  136.8750 C   0  0  0  0  0  0  0  0  0  0  0  0
  191.8050  176.5870  139.2940 O   0  0  0  0  0  0  0  0  0  0  0  0
  190.7450  175.3460  136.3440 C   0  0  1  0  0  3  0  0  0  0  0  0
  188.2830  174.6850  136.4550 C   0  0  0  0  0  2  0  0  0  0  0  0
  190.0180  171.6940  135.2570 C   0  0  0  0  0  2  0  0  0  0  0  0
  193.4150  174.1030  134.5960 C   0  0  0  0  0  2  0  0  0  0  0  0
  190.0470  173.0430  135.9000 C   0  0  2  0  0  3  0  0  0  0  0  0
  187.8850  172.4560  135.3890 O   0  0  0  0  0  0  0  0  0  0  0  0
  193.1480  174.5020  137.0790 C   0  0  1  0  0  3  0  0  0  0  0  0
  192.8200  176.7170  138.3320 C   0  0  0  0  0  0  0  0  0  0  0  0
  188.7040  173.6000  135.4870 C   0  0  1  0  0  3  0  0  0  0  0  0
  191.1220  174.0770  135.5470 C   0  0  2  0  0  3  0  0  0  0  0  0
  187.8110  178.9750  137.7520 N   0  0  0  0  0  0  0  0  0  0  0  0
  194.6480  174.2830  137.3060 C   0  0  0  0  0  2  0  0  0  0  0  0
  194.9010  174.2310  134.8200 C   0  0  0  0  0  3  0  0  0  0  0  0
  188.2720  170.1470  134.6000 N   0  0  0  0  0  1  0  0  0  0  0  0
  187.4770  178.0110  135.5230 C   0  0  0  0  0  1  0  0  0  0  0  0
  190.5300  175.9900  139.0700 C   0  0  0  0  0  2  0  0  0  0  0  0
  188.3370  179.0120  138.9760 N   0  0  0  0  0  0  0  0  0  0  0  0
  188.7340  171.4000  135.0890 C   0  0  1  0  0  3  0  0  0  0  0  0
  189.0010  176.9610  137.2520 C   0  0  0  0  0  0  0  0  0  0  0  0
  191.6960  176.3640  136.1970 O   0  0  0  0  0  0  0  0  0  0  0  0
  193.8220  177.4220  138.6170 O   0  0  0  0  0  0  0  0  0  0  0  0
  192.8130  176.0180  136.9970 C   0  0  2  0  0  3  0  0  0  0  0  0
  195.4500  174.3600  136.0340 C   0  0  0  0  0  3  0  0  0  0  0  0
  192.8190  172.2170  136.0920 C   0  0  0  0  0  1  0  0  0  0  0  0
  189.2010  178.0580  139.4020 C   0  0  0  0  0  3  0  0  0  0  0  0
  189.5560  177.0090  138.5540 C   0  0  0  0  0  0  0  0  0  0  0  0
  192.6140  173.7110  135.8460 C   0  0  1  0  0  0  0  0  0  0  0  0
  1  4  1  0  0  0  0
  1  5  1  1  0  0  0
  1 22  1  0  0  0  0
  2 22  2  0  0  0  0
  2 14  1  0  0  0  0
  4 23  1  6  0  0  0
  7 16  1  0  0  0  0
  7 30  1  0  0  0  0
  8  6  1  6  0  0  0
  9 12  1  0  0  0  0
 10 15  1  6  0  0  0
 11 24  2  0  0  0  0
 11  3  1  0  0  0  0
 12  8  1  0  0  0  0
 12  5  1  1  0  0  0
 13 30  1  0  0  0  0
 13  8  1  0  0  0  0
 13  4  1  0  0  0  0
 14 20  2  0  0  0  0
 16 26  2  0  0  0  0
 17 21  1  0  0  0  0
 18  2  1  0  0  0  0
 19  3  1  0  0  0  0
 20 28  1  0  0  0  0
 21  6  1  0  0  0  0
 21  9  1  0  0  0  0
 22 29  1  0  0  0  0
 23 25  1  0  0  0  0
 25 10  1  0  0  0  0
 25 11  1  0  0  0  0
 26 15  1  0  0  0  0
 29 19  1  0  0  0  0
 29 28  2  0  0  0  0
 30 27  1  0  0  0  0
 30 10  1  0  0  0  0
M  END
>  <MODEL>
7

>  <REMARK>
 VINA RESULT:      -5.6      6.577      9.806
  Name = 
  0 active torsions:
  status: ('A' for Active; 'I' for Inactive)
                            x       y       z     vdW  Elec       q    Type
                         _______ _______ _______ _____ _____    ______ ____

>  <TORSDO>
F 0

$$$$
=
 OpenBabel10262421423D

 30 35  0  0  1  0  0  0  0  0999 V2000
  186.6030  178.1250  138.1990 C   0  0  1  0  0  3  0  0  0  0  0  0
  188.7500  177.8700  136.9090 C   0  0  0  0  0  0  0  0  0  0  0  0
  185.2940  174.8450  136.3120 O   0  0  0  0  0  0  0  0  0  0  0  0
  185.1210  177.8080  137.9120 C   0  0  1  0  0  3  0  0  0  0  0  0
  186.9350  177.9960  139.6980 C   0  0  0  0  0  2  0  0  0  0  0  0
  183.7990  178.6920  141.4510 C   0  0  0  0  0  2  0  0  0  0  0  0
  181.9390  179.0530  137.6840 C   0  0  0  0  0  2  0  0  0  0  0  0
  184.5330  178.1610  140.2610 C   0  0  2  0  0  3  0  0  0  0  0  0
  186.0230  178.9260  141.8350 O   0  0  0  0  0  0  0  0  0  0  0  0
  182.7680  176.6720  137.4680 C   0  0  1  0  0  3  0  0  0  0  0  0
  184.3270  175.6600  135.7000 C   0  0  0  0  0  0  0  0  0  0  0  0
  185.8900  178.8040  140.4350 C   0  0  1  0  0  3  0  0  0  0  0  0
  184.0530  178.4380  138.8330 C   0  0  2  0  0  3  0  0  0  0  0  0
  189.6310  177.1260  136.1930 N   0  0  0  0  0  0  0  0  0  0  0  0
  181.4090  176.2180  136.9220 C   0  0  0  0  0  2  0  0  0  0  0  0
  180.7610  178.6300  136.8420 C   0  0  0  0  0  3  0  0  0  0  0  0
  184.4430  179.4640  143.6560 N   0  0  0  0  0  1  0  0  0  0  0  0
  189.0870  179.2950  137.1960 C   0  0  0  0  0  1  0  0  0  0  0  0
  186.0630  175.2000  137.4580 C   0  0  0  0  0  2  0  0  0  0  0  0
  189.3970  175.8460  135.9020 N   0  0  0  0  0  0  0  0  0  0  0  0
  184.7320  179.0160  142.3370 C   0  0  1  0  0  3  0  0  0  0  0  0
  187.5510  177.2890  137.3630 C   0  0  0  0  0  0  0  0  0  0  0  0
  184.7730  177.8990  136.5590 O   0  0  0  0  0  0  0  0  0  0  0  0
  183.8540  175.2930  134.5940 O   0  0  0  0  0  0  0  0  0  0  0  0
  183.7770  176.9230  136.3120 C   0  0  2  0  0  3  0  0  0  0  0  0
  180.5500  177.3650  136.4610 C   0  0  0  0  0  3  0  0  0  0  0  0
  181.7820  177.5100  139.6200 C   0  0  0  0  0  1  0  0  0  0  0  0
  188.2610  175.2260  136.3100 C   0  0  0  0  0  3  0  0  0  0  0  0
  187.3100  175.9290  137.0480 C   0  0  0  0  0  0  0  0  0  0  0  0
  182.6410  177.9020  138.4190 C   0  0  1  0  0  0  0  0  0  0  0  0
  1  5  1  1  0  0  0
  2 18  1  0  0  0  0
  2 22  1  0  0  0  0
  3 19  1  0  0  0  0
  4 23  1  6  0  0  0
  4  1  1  0  0  0  0
  4 13  1  0  0  0  0
  6 21  1  0  0  0  0
  7 30  1  0  0  0  0
  8 12  1  0  0  0  0
  8  6  1  1  0  0  0
  9 21  1  0  0  0  0
 10 15  1  6  0  0  0
 10 30  1  0  0  0  0
 11  3  1  0  0  0  0
 11 25  1  0  0  0  0
 12  5  1  1  0  0  0
 12  9  1  0  0  0  0
 13  8  1  0  0  0  0
 14  2  2  0  0  0  0
 16  7  1  0  0  0  0
 20 14  1  0  0  0  0
 20 28  2  0  0  0  0
 21 17  1  0  0  0  0
 22  1  1  0  0  0  0
 24 11  2  0  0  0  0
 25 23  1  0  0  0  0
 25 10  1  0  0  0  0
 26 16  2  0  0  0  0
 26 15  1  0  0  0  0
 28 29  1  0  0  0  0
 29 22  2  0  0  0  0
 29 19  1  0  0  0  0
 30 13  1  0  0  0  0
 30 27  1  0  0  0  0
M  END
>  <MODEL>
8

>  <REMARK>
 VINA RESULT:      -5.5      2.606      6.026
  Name = 
  0 active torsions:
  status: ('A' for Active; 'I' for Inactive)
                            x       y       z     vdW  Elec       q    Type
                         _______ _______ _______ _____ _____    ______ ____

>  <TORSDO>
F 0

$$$$
=
 OpenBabel10262421423D

 30 35  0  0  1  0  0  0  0  0999 V2000
  185.2640  178.4270  138.5120 C   0  0  1  0  0  3  0  0  0  0  0  0
  186.8510  178.0280  136.5980 C   0  0  0  0  0  0  0  0  0  0  0  0
  182.9130  175.6110  136.9070 O   0  0  0  0  0  0  0  0  0  0  0  0
  183.7330  178.3560  138.6840 C   0  0  1  0  0  3  0  0  0  0  0  0
  186.0030  178.0740  139.8170 C   0  0  0  0  0  2  0  0  0  0  0  0
  183.7010  178.9890  142.5110 C   0  0  0  0  0  2  0  0  0  0  0  0
  180.8890  180.0540  139.5540 C   0  0  0  0  0  2  0  0  0  0  0  0
  183.9440  178.5060  141.1170 C   0  0  2  0  0  3  0  0  0  0  0  0
  185.9430  178.8620  142.1920 O   0  0  0  0  0  0  0  0  0  0  0  0
  181.1970  177.6230  138.9230 C   0  0  1  0  0  3  0  0  0  0  0  0
  181.9600  176.6200  136.6890 C   0  0  0  0  0  0  0  0  0  0  0  0
  185.3790  178.9280  140.9010 C   0  0  1  0  0  3  0  0  0  0  0  0
  183.1130  179.0170  139.9350 C   0  0  2  0  0  3  0  0  0  0  0  0
  187.3380  177.2590  135.5910 N   0  0  0  0  0  0  0  0  0  0  0  0
  179.6810  177.4320  138.8010 C   0  0  0  0  0  2  0  0  0  0  0  0
  179.4590  179.9040  139.0980 C   0  0  0  0  0  3  0  0  0  0  0  0
  185.0960  179.3960  144.4500 N   0  0  0  0  0  1  0  0  0  0  0  0
  187.4960  179.3490  136.8630 C   0  0  0  0  0  1  0  0  0  0  0  0
  184.0380  175.7160  137.7750 C   0  0  0  0  0  2  0  0  0  0  0  0
  186.8130  176.0690  135.3000 N   0  0  0  0  0  0  0  0  0  0  0  0
  184.8970  179.0720  143.0800 C   0  0  1  0  0  3  0  0  0  0  0  0
  185.7620  177.5720  137.3640 C   0  0  0  0  0  0  0  0  0  0  0  0
  183.0170  178.6560  137.5180 O   0  0  0  0  0  0  0  0  0  0  0  0
  181.1230  176.4580  135.7640 O   0  0  0  0  0  0  0  0  0  0  0  0
  181.8420  177.8660  137.5290 C   0  0  2  0  0  3  0  0  0  0  0  0
  178.9310  178.7350  138.7150 C   0  0  0  0  0  3  0  0  0  0  0  0
  181.0580  178.3290  141.3290 C   0  0  0  0  0  1  0  0  0  0  0  0
  185.7630  175.5700  135.9990 C   0  0  0  0  0  3  0  0  0  0  0  0
  185.2100  176.3060  137.0460 C   0  0  0  0  0  0  0  0  0  0  0  0
  181.5720  178.7360  139.9490 C   0  0  1  0  0  0  0  0  0  0  0  0
  1  4  1  0  0  0  0
  1  5  1  1  0  0  0
  2 18  1  0  0  0  0
  2 22  1  0  0  0  0
  3 19  1  0  0  0  0
  4 23  1  6  0  0  0
  4 13  1  0  0  0  0
  6 21  1  0  0  0  0
  7 30  1  0  0  0  0
  8  6  1  1  0  0  0
  9 21  1  0  0  0  0
 10 15  1  6  0  0  0
 10 30  1  0  0  0  0
 11  3  1  0  0  0  0
 11 25  1  0  0  0  0
 12  5  1  6  0  0  0
 12  8  1  0  0  0  0
 12  9  1  0  0  0  0
 13 30  1  0  0  0  0
 13  8  1  0  0  0  0
 14  2  2  0  0  0  0
 16  7  1  0  0  0  0
 20 14  1  0  0  0  0
 20 28  2  0  0  0  0
 21 17  1  0  0  0  0
 22  1  1  0  0  0  0
 23 25  1  0  0  0  0
 24 11  2  0  0  0  0
 25 10  1  0  0  0  0
 26 15  1  0  0  0  0
 26 16  2  0  0  0  0
 28 29  1  0  0  0  0
 29 22  2  0  0  0  0
 29 19  1  0  0  0  0
 30 27  1  0  0  0  0
M  END
>  <MODEL>
9

>  <REMARK>
 VINA RESULT:      -5.5      2.202      5.725
  Name = 
  0 active torsions:
  status: ('A' for Active; 'I' for Inactive)
                            x       y       z     vdW  Elec       q    Type
                         _______ _______ _______ _____ _____    ______ ____

>  <TORSDO>
F 0

$$$$
