=
 OpenBabel10262419503D

 25 28  0  0  0  0  0  0  0  0999 V2000
  187.2340  177.9830  145.9080 C   0  0  0  0  0  0  0  0  0  0  0  0
  188.5500  177.5790  145.6710 C   0  0  0  0  0  0  0  0  0  0  0  0
  187.5950  178.1390  148.2980 C   0  0  0  0  0  3  0  0  0  0  0  0
  186.1440  178.2090  145.0990 C   0  0  0  0  0  0  0  0  0  0  0  0
  183.6830  178.7990  144.0080 C   0  0  0  0  0  3  0  0  0  0  0  0
  188.9270  177.7340  148.0940 C   0  0  0  0  0  3  0  0  0  0  0  0
  185.1140  178.5900  145.8830 N   0  0  0  0  0  0  0  0  0  0  0  0
  183.8860  178.8910  145.3930 C   0  0  0  0  0  3  0  0  0  0  0  0
  190.7430  177.0480  146.5970 C   0  0  0  0  0  0  0  0  0  0  0  0
  191.6130  176.9140  147.6730 O   0  0  0  0  0  1  0  0  0  0  0  0
  189.0250  177.3020  144.3850 C   0  0  0  0  0  3  0  0  0  0  0  0
  184.7460  178.4020  143.1750 C   0  0  0  0  0  3  0  0  0  0  0  0
  186.7740  178.2540  147.1800 C   0  0  0  0  0  0  0  0  0  0  0  0
  185.4750  178.6260  147.1590 N   0  0  0  0  0  0  0  0  0  0  0  0
  191.2050  176.7750  145.3050 C   0  0  0  0  0  3  0  0  0  0  0  0
  186.0040  178.0990  143.7170 C   0  0  0  0  0  3  0  0  0  0  0  0
  190.3520  176.9040  144.2030 C   0  0  0  0  0  0  0  0  0  0  0  0
  189.4140  177.4530  146.7940 C   0  0  0  0  0  0  0  0  0  0  0  0
  190.9570  176.5450  142.5610 S   0  0  0  0  0  0  0  0  0  0  0  0
  189.2990  176.7010  141.8290 C   0  0  0  0  0  2  0  0  0  0  0  0
  189.3050  177.7400  140.7200 C   0  0  0  0  0  2  0  0  0  0  0  0
  187.9150  178.3180  140.5010 C   0  0  0  0  0  2  0  0  0  0  0  0
  187.6870  178.5670  139.0860 N   0  0  0  0  0  2  0  0  0  0  0  0
  188.9860  178.5790  138.4390 C   0  0  0  0  0  2  0  0  0  0  0  0
  189.0330  179.6180  137.5100 O   0  0  0  0  0  1  0  0  0  0  0  0
  1 13  1  0  0  0  0
  2  1  1  0  0  0  0
  2 18  1  0  0  0  0
  4  7  1  0  0  0  0
  4  1  2  0  0  0  0
  5  8  2  0  0  0  0
  6  3  2  0  0  0  0
  7 14  1  0  0  0  0
  8  7  1  0  0  0  0
  9 18  2  0  0  0  0
  9 10  1  0  0  0  0
 11  2  2  0  0  0  0
 12 16  2  0  0  0  0
 12  5  1  0  0  0  0
 13  3  1  0  0  0  0
 14 13  2  0  0  0  0
 15  9  1  0  0  0  0
 16  4  1  0  0  0  0
 17 11  1  0  0  0  0
 17 15  2  0  0  0  0
 18  6  1  0  0  0  0
 19 17  1  0  0  0  0
 20 19  1  0  0  0  0
 21 20  1  0  0  0  0
 22 21  1  0  0  0  0
 23 22  1  0  0  0  0
 24 23  1  0  0  0  0
 25 24  1  0  0  0  0
M  END
>  <MODEL>
1

>  <REMARK>
 VINA RESULT:      -9.9      0.000      0.000
  Name = 
  6 active torsions:
  status: ('A' for Active; 'I' for Inactive)
    1  A    between atoms: C_2  and  N_12
    2  A    between atoms: S_6  and  C_15
    3  A    between atoms: S_6  and  C_23
    4  A    between atoms: N_12  and  C_25
    5  A    between atoms: C_15  and  C_21
    6  A    between atoms: C_21  and  C_25
                            x       y       z     vdW  Elec       q    Type
                         _______ _______ _______ _____ _____    ______ ____

>  <TORSDO>
F 6

$$$$
=
 OpenBabel10262419503D

 25 28  0  0  0  0  0  0  0  0999 V2000
  187.0500  178.0180  145.6680 C   0  0  0  0  0  0  0  0  0  0  0  0
  188.3480  177.6040  145.3630 C   0  0  0  0  0  0  0  0  0  0  0  0
  187.5400  178.1900  148.0330 C   0  0  0  0  0  3  0  0  0  0  0  0
  185.9200  178.2450  144.9170 C   0  0  0  0  0  0  0  0  0  0  0  0
  183.4070  178.8430  143.9550 C   0  0  0  0  0  3  0  0  0  0  0  0
  188.8560  177.7750  147.7610 C   0  0  0  0  0  3  0  0  0  0  0  0
  184.9350  178.6400  145.7510 N   0  0  0  0  0  0  0  0  0  0  0  0
  183.6850  178.9450  145.3260 C   0  0  0  0  0  3  0  0  0  0  0  0
  190.5850  177.0660  146.1740 C   0  0  0  0  0  0  0  0  0  0  0  0
  191.5100  176.9330  147.2030 O   0  0  0  0  0  1  0  0  0  0  0  0
  188.7520  177.3140  144.0560 C   0  0  0  0  0  3  0  0  0  0  0  0
  184.4210  178.4330  143.0680 C   0  0  0  0  0  3  0  0  0  0  0  0
  186.6600  178.3020  146.9600 C   0  0  0  0  0  0  0  0  0  0  0  0
  185.3650  178.6820  147.0060 N   0  0  0  0  0  0  0  0  0  0  0  0
  190.9750  176.7790  144.8620 C   0  0  0  0  0  3  0  0  0  0  0  0
  185.7050  178.1250  143.5450 C   0  0  0  0  0  3  0  0  0  0  0  0
  190.0650  176.9060  143.8060 C   0  0  0  0  0  0  0  0  0  0  0  0
  189.2700  177.4800  146.4390 C   0  0  0  0  0  0  0  0  0  0  0  0
  190.5780  176.5300  142.1370 S   0  0  0  0  0  0  0  0  0  0  0  0
  189.0450  177.2040  141.4270 C   0  0  0  0  0  2  0  0  0  0  0  0
  189.2810  177.6630  139.9980 C   0  0  0  0  0  2  0  0  0  0  0  0
  190.6700  177.2690  139.5160 C   0  0  0  0  0  2  0  0  0  0  0  0
  190.6530  176.9990  138.0870 N   0  0  0  0  0  2  0  0  0  0  0  0
  190.1360  175.6540  137.9110 C   0  0  0  0  0  2  0  0  0  0  0  0
  191.1530  174.7310  138.1470 O   0  0  0  0  0  1  0  0  0  0  0  0
  1 13  1  0  0  0  0
  2  1  1  0  0  0  0
  2 18  1  0  0  0  0
  4  1  2  0  0  0  0
  4  7  1  0  0  0  0
  5  8  2  0  0  0  0
  6  3  2  0  0  0  0
  7 14  1  0  0  0  0
  8  7  1  0  0  0  0
  9 18  2  0  0  0  0
  9 10  1  0  0  0  0
 11  2  2  0  0  0  0
 12 16  2  0  0  0  0
 12  5  1  0  0  0  0
 13 14  2  0  0  0  0
 13  3  1  0  0  0  0
 15  9  1  0  0  0  0
 16  4  1  0  0  0  0
 17 11  1  0  0  0  0
 17 15  2  0  0  0  0
 18  6  1  0  0  0  0
 19 17  1  0  0  0  0
 20 19  1  0  0  0  0
 21 20  1  0  0  0  0
 22 21  1  0  0  0  0
 23 22  1  0  0  0  0
 24 23  1  0  0  0  0
 24 25  1  0  0  0  0
M  END
>  <MODEL>
2

>  <REMARK>
 VINA RESULT:      -9.3      1.528      1.606
  Name = 
  6 active torsions:
  status: ('A' for Active; 'I' for Inactive)
    1  A    between atoms: C_2  and  N_12
    2  A    between atoms: S_6  and  C_15
    3  A    between atoms: S_6  and  C_23
    4  A    between atoms: N_12  and  C_25
    5  A    between atoms: C_15  and  C_21
    6  A    between atoms: C_21  and  C_25
                            x       y       z     vdW  Elec       q    Type
                         _______ _______ _______ _____ _____    ______ ____

>  <TORSDO>
F 6

$$$$
=
 OpenBabel10262419503D

 25 28  0  0  0  0  0  0  0  0999 V2000
  185.8110  178.2040  144.8650 C   0  0  0  0  0  0  0  0  0  0  0  0
  187.1390  177.7790  144.9330 C   0  0  0  0  0  0  0  0  0  0  0  0
  185.7020  178.6110  147.2500 C   0  0  0  0  0  3  0  0  0  0  0  0
  184.9040  178.3420  143.8400 C   0  0  0  0  0  0  0  0  0  0  0  0
  182.7150  178.8120  142.2330 C   0  0  0  0  0  3  0  0  0  0  0  0
  187.0400  178.1880  147.3540 C   0  0  0  0  0  3  0  0  0  0  0  0
  183.7490  178.8030  144.3620 N   0  0  0  0  0  0  0  0  0  0  0  0
  182.6460  179.0490  143.6130 C   0  0  0  0  0  3  0  0  0  0  0  0
  189.1000  177.3510  146.3200 C   0  0  0  0  0  0  0  0  0  0  0  0
  189.7400  177.3310  147.5540 O   0  0  0  0  0  1  0  0  0  0  0  0
  187.8510  177.3690  143.8010 C   0  0  0  0  0  3  0  0  0  0  0  0
  183.9120  178.3310  141.6690 C   0  0  0  0  0  3  0  0  0  0  0  0
  185.1170  178.6070  145.9870 C   0  0  0  0  0  0  0  0  0  0  0  0
  183.8550  178.9730  145.6740 N   0  0  0  0  0  0  0  0  0  0  0  0
  189.7980  176.9450  145.1790 C   0  0  0  0  0  3  0  0  0  0  0  0
  185.0340  178.0880  142.4760 C   0  0  0  0  0  3  0  0  0  0  0  0
  189.1800  176.9560  143.9250 C   0  0  0  0  0  0  0  0  0  0  0  0
  187.7650  177.7720  146.2110 C   0  0  0  0  0  0  0  0  0  0  0  0
  190.0860  176.4270  142.4790 S   0  0  0  0  0  0  0  0  0  0  0  0
  189.0330  177.4030  141.3620 C   0  0  0  0  0  2  0  0  0  0  0  0
  189.5170  177.2710  139.9280 C   0  0  0  0  0  2  0  0  0  0  0  0
  189.0010  178.4140  139.0650 C   0  0  0  0  0  2  0  0  0  0  0  0
  187.5470  178.3950  139.0170 N   0  0  0  0  0  2  0  0  0  0  0  0
  187.1680  178.1820  137.6320 C   0  0  0  0  0  2  0  0  0  0  0  0
  187.5300  179.2950  136.8750 O   0  0  0  0  0  1  0  0  0  0  0  0
  1  2  1  0  0  0  0
  1 13  1  0  0  0  0
  2 18  1  0  0  0  0
  3  6  2  0  0  0  0
  4  7  1  0  0  0  0
  4  1  2  0  0  0  0
  5  8  2  0  0  0  0
  7 14  1  0  0  0  0
  8  7  1  0  0  0  0
  9 10  1  0  0  0  0
 11 17  1  0  0  0  0
 11  2  2  0  0  0  0
 12  5  1  0  0  0  0
 12 16  2  0  0  0  0
 13  3  1  0  0  0  0
 14 13  2  0  0  0  0
 15  9  1  0  0  0  0
 16  4  1  0  0  0  0
 17 15  2  0  0  0  0
 18  9  2  0  0  0  0
 18  6  1  0  0  0  0
 19 17  1  0  0  0  0
 20 19  1  0  0  0  0
 21 20  1  0  0  0  0
 22 21  1  0  0  0  0
 23 22  1  0  0  0  0
 24 23  1  0  0  0  0
 25 24  1  0  0  0  0
M  END
>  <MODEL>
3

>  <REMARK>
 VINA RESULT:      -9.2      1.223      1.714
  Name = 
  6 active torsions:
  status: ('A' for Active; 'I' for Inactive)
    1  A    between atoms: C_2  and  N_12
    2  A    between atoms: S_6  and  C_15
    3  A    between atoms: S_6  and  C_23
    4  A    between atoms: N_12  and  C_25
    5  A    between atoms: C_15  and  C_21
    6  A    between atoms: C_21  and  C_25
                            x       y       z     vdW  Elec       q    Type
                         _______ _______ _______ _____ _____    ______ ____

>  <TORSDO>
F 6

$$$$
=
 OpenBabel10262419503D

 25 28  0  0  0  0  0  0  0  0999 V2000
  189.4500  177.4330  144.0840 C   0  0  0  0  0  0  0  0  0  0  0  0
  188.5260  177.6940  145.0980 C   0  0  0  0  0  0  0  0  0  0  0  0
  191.2030  176.8960  145.6670 C   0  0  0  0  0  3  0  0  0  0  0  0
  189.3950  177.4670  142.7100 C   0  0  0  0  0  0  0  0  0  0  0  0
  189.8700  177.3580  139.9970 C   0  0  0  0  0  3  0  0  0  0  0  0
  190.2970  177.1510  146.7130 C   0  0  0  0  0  3  0  0  0  0  0  0
  190.6070  177.1140  142.2330 N   0  0  0  0  0  0  0  0  0  0  0  0
  190.8890  177.0460  140.9090 C   0  0  0  0  0  3  0  0  0  0  0  0
  188.0650  177.8010  147.4910 C   0  0  0  0  0  0  0  0  0  0  0  0
  188.4620  177.6700  148.8170 O   0  0  0  0  0  1  0  0  0  0  0  0
  187.2120  178.0860  144.8260 C   0  0  0  0  0  3  0  0  0  0  0  0
  188.5990  177.7290  140.4750 C   0  0  0  0  0  3  0  0  0  0  0  0
  190.7460  177.0470  144.3610 C   0  0  0  0  0  0  0  0  0  0  0  0
  191.4500  176.8530  143.2240 N   0  0  0  0  0  0  0  0  0  0  0  0
  186.7530  178.1920  147.2040 C   0  0  0  0  0  3  0  0  0  0  0  0
  188.3430  177.7880  141.8530 C   0  0  0  0  0  3  0  0  0  0  0  0
  186.3260  178.3310  145.8790 C   0  0  0  0  0  0  0  0  0  0  0  0
  188.9640  177.5480  146.4430 C   0  0  0  0  0  0  0  0  0  0  0  0
  184.6490  178.8380  145.5310 S   0  0  0  0  0  0  0  0  0  0  0  0
  184.7280  178.2160  143.8240 C   0  0  0  0  0  2  0  0  0  0  0  0
  183.6810  178.9010  142.9620 C   0  0  0  0  0  2  0  0  0  0  0  0
  183.8700  178.5570  141.4910 C   0  0  0  0  0  2  0  0  0  0  0  0
  185.0190  179.2650  140.9480 N   0  0  0  0  0  2  0  0  0  0  0  0
  184.9160  179.2020  139.5010 C   0  0  0  0  0  2  0  0  0  0  0  0
  184.1880  180.2970  139.0390 O   0  0  0  0  0  1  0  0  0  0  0  0
  1 13  1  0  0  0  0
  1  2  1  0  0  0  0
  2 18  1  0  0  0  0
  3  6  2  0  0  0  0
  4  1  2  0  0  0  0
  5 12  1  0  0  0  0
  5  8  2  0  0  0  0
  7  4  1  0  0  0  0
  7 14  1  0  0  0  0
  8  7  1  0  0  0  0
  9 10  1  0  0  0  0
 11  2  2  0  0  0  0
 11 17  1  0  0  0  0
 12 16  2  0  0  0  0
 13  3  1  0  0  0  0
 14 13  2  0  0  0  0
 15  9  1  0  0  0  0
 16  4  1  0  0  0  0
 17 15  2  0  0  0  0
 18  6  1  0  0  0  0
 18  9  2  0  0  0  0
 19 17  1  0  0  0  0
 20 19  1  0  0  0  0
 21 20  1  0  0  0  0
 22 21  1  0  0  0  0
 23 22  1  0  0  0  0
 24 23  1  0  0  0  0
 25 24  1  0  0  0  0
M  END
>  <MODEL>
4

>  <REMARK>
 VINA RESULT:      -8.7      2.732      4.900
  Name = 
  6 active torsions:
  status: ('A' for Active; 'I' for Inactive)
    1  A    between atoms: C_2  and  N_12
    2  A    between atoms: S_6  and  C_15
    3  A    between atoms: S_6  and  C_23
    4  A    between atoms: N_12  and  C_25
    5  A    between atoms: C_15  and  C_21
    6  A    between atoms: C_21  and  C_25
                            x       y       z     vdW  Elec       q    Type
                         _______ _______ _______ _____ _____    ______ ____

>  <TORSDO>
F 6

$$$$
=
 OpenBabel10262419503D

 25 28  0  0  0  0  0  0  0  0999 V2000
  187.8310  177.7760  145.8760 C   0  0  0  0  0  0  0  0  0  0  0  0
  186.8660  178.1060  144.9220 C   0  0  0  0  0  0  0  0  0  0  0  0
  186.3450  178.2830  147.7190 C   0  0  0  0  0  3  0  0  0  0  0  0
  189.1310  177.3330  145.8030 C   0  0  0  0  0  0  0  0  0  0  0  0
  191.7020  176.4540  146.2710 C   0  0  0  0  0  3  0  0  0  0  0  0
  185.3490  178.6230  146.7850 C   0  0  0  0  0  3  0  0  0  0  0  0
  189.5900  177.1750  147.0630 N   0  0  0  0  0  0  0  0  0  0  0  0
  190.8450  176.7450  147.3430 C   0  0  0  0  0  3  0  0  0  0  0  0
  184.5980  178.8810  144.4660 C   0  0  0  0  0  0  0  0  0  0  0  0
  183.3460  179.3100  144.8920 O   0  0  0  0  0  1  0  0  0  0  0  0
  187.1140  178.0230  143.5490 C   0  0  0  0  0  3  0  0  0  0  0  0
  191.2410  176.6130  144.9500 C   0  0  0  0  0  3  0  0  0  0  0  0
  187.5770  177.8620  147.2290 C   0  0  0  0  0  0  0  0  0  0  0  0
  188.6570  177.4920  147.9510 N   0  0  0  0  0  0  0  0  0  0  0  0
  184.8610  178.7920  143.0950 C   0  0  0  0  0  3  0  0  0  0  0  0
  189.9350  177.0590  144.6980 C   0  0  0  0  0  3  0  0  0  0  0  0
  186.1110  178.3620  142.6370 C   0  0  0  0  0  0  0  0  0  0  0  0
  185.5950  178.5400  145.3930 C   0  0  0  0  0  0  0  0  0  0  0  0
  186.4310  178.2610  140.8820 S   0  0  0  0  0  0  0  0  0  0  0  0
  188.2150  178.5340  141.1100 C   0  0  0  0  0  2  0  0  0  0  0  0
  189.0060  177.3730  140.5320 C   0  0  0  0  0  2  0  0  0  0  0  0
  189.5540  177.7130  139.1530 C   0  0  0  0  0  2  0  0  0  0  0  0
  189.0560  179.0070  138.7150 N   0  0  0  0  0  2  0  0  0  0  0  0
  189.0010  178.9760  137.2640 C   0  0  0  0  0  2  0  0  0  0  0  0
  187.7830  179.5010  136.8350 O   0  0  0  0  0  1  0  0  0  0  0  0
  1 13  1  0  0  0  0
  2 18  1  0  0  0  0
  2  1  1  0  0  0  0
  4  1  2  0  0  0  0
  4  7  1  0  0  0  0
  5  8  2  0  0  0  0
  6  3  2  0  0  0  0
  7  8  1  0  0  0  0
  7 14  1  0  0  0  0
  9 10  1  0  0  0  0
  9 18  2  0  0  0  0
 11  2  2  0  0  0  0
 12  5  1  0  0  0  0
 13  3  1  0  0  0  0
 13 14  2  0  0  0  0
 15  9  1  0  0  0  0
 16 12  2  0  0  0  0
 16  4  1  0  0  0  0
 17 15  2  0  0  0  0
 17 11  1  0  0  0  0
 18  6  1  0  0  0  0
 19 20  1  0  0  0  0
 19 17  1  0  0  0  0
 21 20  1  0  0  0  0
 22 21  1  0  0  0  0
 23 22  1  0  0  0  0
 24 23  1  0  0  0  0
 25 24  1  0  0  0  0
M  END
>  <MODEL>
5

>  <REMARK>
 VINA RESULT:      -8.6      2.527      4.603
  Name = 
  6 active torsions:
  status: ('A' for Active; 'I' for Inactive)
    1  A    between atoms: C_2  and  N_12
    2  A    between atoms: S_6  and  C_15
    3  A    between atoms: S_6  and  C_23
    4  A    between atoms: N_12  and  C_25
    5  A    between atoms: C_15  and  C_21
    6  A    between atoms: C_21  and  C_25
                            x       y       z     vdW  Elec       q    Type
                         _______ _______ _______ _____ _____    ______ ____

>  <TORSDO>
F 6

$$$$
=
 OpenBabel10262419503D

 25 28  0  0  0  0  0  0  0  0999 V2000
  187.8230  177.7390  145.7410 C   0  0  0  0  0  0  0  0  0  0  0  0
  186.8570  178.0810  144.7930 C   0  0  0  0  0  0  0  0  0  0  0  0
  186.3000  178.1010  147.5880 C   0  0  0  0  0  3  0  0  0  0  0  0
  189.1390  177.3450  145.6630 C   0  0  0  0  0  0  0  0  0  0  0  0
  191.7340  176.5360  146.1200 C   0  0  0  0  0  3  0  0  0  0  0  0
  185.3020  178.4510  146.6600 C   0  0  0  0  0  3  0  0  0  0  0  0
  189.5900  177.1420  146.9190 N   0  0  0  0  0  0  0  0  0  0  0  0
  190.8560  176.7440  147.1940 C   0  0  0  0  0  3  0  0  0  0  0  0
  184.5670  178.7960  144.3470 C   0  0  0  0  0  0  0  0  0  0  0  0
  183.2960  179.1590  144.7780 O   0  0  0  0  0  1  0  0  0  0  0  0
  187.1220  178.0740  143.4200 C   0  0  0  0  0  3  0  0  0  0  0  0
  191.2820  176.7440  144.8030 C   0  0  0  0  0  3  0  0  0  0  0  0
  187.5520  177.7490  147.0940 C   0  0  0  0  0  0  0  0  0  0  0  0
  188.6370  177.3830  147.8110 N   0  0  0  0  0  0  0  0  0  0  0  0
  184.8480  178.7840  142.9760 C   0  0  0  0  0  3  0  0  0  0  0  0
  189.9640  177.1550  144.5560 C   0  0  0  0  0  3  0  0  0  0  0  0
  186.1170  178.4210  142.5140 C   0  0  0  0  0  0  0  0  0  0  0  0
  185.5660  178.4450  145.2680 C   0  0  0  0  0  0  0  0  0  0  0  0
  186.4600  178.4180  140.7600 S   0  0  0  0  0  0  0  0  0  0  0  0
  188.2400  178.1550  141.0260 C   0  0  0  0  0  2  0  0  0  0  0  0
  188.8920  177.6280  139.7590 C   0  0  0  0  0  2  0  0  0  0  0  0
  190.1000  176.7600  140.0820 C   0  0  0  0  0  2  0  0  0  0  0  0
  191.2510  177.1810  139.2980 N   0  0  0  0  0  2  0  0  0  0  0  0
  192.3470  177.3920  140.2270 C   0  0  0  0  0  2  0  0  0  0  0  0
  193.5590  177.1850  139.5700 O   0  0  0  0  0  1  0  0  0  0  0  0
  1 13  1  0  0  0  0
  2 18  1  0  0  0  0
  2  1  1  0  0  0  0
  4  1  2  0  0  0  0
  4  7  1  0  0  0  0
  5  8  2  0  0  0  0
  6  3  2  0  0  0  0
  7  8  1  0  0  0  0
  7 14  1  0  0  0  0
  9 10  1  0  0  0  0
  9 18  2  0  0  0  0
 11  2  2  0  0  0  0
 12  5  1  0  0  0  0
 13  3  1  0  0  0  0
 13 14  2  0  0  0  0
 15  9  1  0  0  0  0
 16 12  2  0  0  0  0
 16  4  1  0  0  0  0
 17 15  2  0  0  0  0
 17 11  1  0  0  0  0
 18  6  1  0  0  0  0
 19 20  1  0  0  0  0
 19 17  1  0  0  0  0
 21 22  1  0  0  0  0
 21 20  1  0  0  0  0
 23 22  1  0  0  0  0
 23 24  1  0  0  0  0
 25 24  1  0  0  0  0
M  END
>  <MODEL>
6

>  <REMARK>
 VINA RESULT:      -8.4      2.904      4.858
  Name = 
  6 active torsions:
  status: ('A' for Active; 'I' for Inactive)
    1  A    between atoms: C_2  and  N_12
    2  A    between atoms: S_6  and  C_15
    3  A    between atoms: S_6  and  C_23
    4  A    between atoms: N_12  and  C_25
    5  A    between atoms: C_15  and  C_21
    6  A    between atoms: C_21  and  C_25
                            x       y       z     vdW  Elec       q    Type
                         _______ _______ _______ _____ _____    ______ ____

>  <TORSDO>
F 6

$$$$
=
 OpenBabel10262419503D

 25 28  0  0  0  0  0  0  0  0999 V2000
  186.8550  178.2610  142.4710 C   0  0  0  0  0  0  0  0  0  0  0  0
  186.3520  178.2520  143.7730 C   0  0  0  0  0  0  0  0  0  0  0  0
  184.7460  179.0040  141.5410 C   0  0  0  0  0  3  0  0  0  0  0  0
  188.0790  177.9640  141.9180 C   0  0  0  0  0  0  0  0  0  0  0  0
  190.2540  177.5160  140.2850 C   0  0  0  0  0  3  0  0  0  0  0  0
  184.2070  179.0060  142.8410 C   0  0  0  0  0  3  0  0  0  0  0  0
  187.9940  178.1530  140.5850 N   0  0  0  0  0  0  0  0  0  0  0  0
  189.0350  177.9470  139.7410 C   0  0  0  0  0  3  0  0  0  0  0  0
  184.4510  178.6380  145.2520 C   0  0  0  0  0  0  0  0  0  0  0  0
  183.1270  179.0040  145.4680 O   0  0  0  0  0  1  0  0  0  0  0  0
  187.1330  177.8840  144.8720 C   0  0  0  0  0  3  0  0  0  0  0  0
  190.3630  177.3130  141.6740 C   0  0  0  0  0  3  0  0  0  0  0  0
  186.0760  178.6260  141.3910 C   0  0  0  0  0  0  0  0  0  0  0  0
  186.7780  178.5580  140.2390 N   0  0  0  0  0  0  0  0  0  0  0  0
  185.2450  178.2670  146.3430 C   0  0  0  0  0  3  0  0  0  0  0  0
  189.2630  177.5380  142.5170 C   0  0  0  0  0  3  0  0  0  0  0  0
  186.5810  177.8960  146.1560 C   0  0  0  0  0  0  0  0  0  0  0  0
  184.9940  178.6340  143.9580 C   0  0  0  0  0  0  0  0  0  0  0  0
  187.5780  177.4200  147.5590 S   0  0  0  0  0  0  0  0  0  0  0  0
  189.1300  177.6520  146.6380 C   0  0  0  0  0  2  0  0  0  0  0  0
  190.1200  176.5520  146.9830 C   0  0  0  0  0  2  0  0  0  0  0  0
  191.4420  176.7550  146.2570 C   0  0  0  0  0  2  0  0  0  0  0  0
  192.3530  175.6580  146.5460 N   0  0  0  0  0  2  0  0  0  0  0  0
  192.4250  175.5320  147.9910 C   0  0  0  0  0  2  0  0  0  0  0  0
  192.8050  176.7520  148.5460 O   0  0  0  0  0  1  0  0  0  0  0  0
  1  2  1  0  0  0  0
  2 18  2  0  0  0  0
  2 11  1  0  0  0  0
  3  6  2  0  0  0  0
  4  1  2  0  0  0  0
  4 16  1  0  0  0  0
  5 12  1  0  0  0  0
  6 18  1  0  0  0  0
  7  4  1  0  0  0  0
  8  5  2  0  0  0  0
  8  7  1  0  0  0  0
  9 10  1  0  0  0  0
  9 15  2  0  0  0  0
 11 17  2  0  0  0  0
 12 16  2  0  0  0  0
 13  3  1  0  0  0  0
 13  1  1  0  0  0  0
 14  7  1  0  0  0  0
 14 13  2  0  0  0  0
 17 15  1  0  0  0  0
 17 19  1  0  0  0  0
 18  9  1  0  0  0  0
 20 21  1  0  0  0  0
 20 19  1  0  0  0  0
 22 23  1  0  0  0  0
 22 21  1  0  0  0  0
 23 24  1  0  0  0  0
 24 25  1  0  0  0  0
M  END
>  <MODEL>
7

>  <REMARK>
 VINA RESULT:      -8.2      3.194      6.740
  Name = 
  6 active torsions:
  status: ('A' for Active; 'I' for Inactive)
    1  A    between atoms: C_2  and  N_12
    2  A    between atoms: S_6  and  C_15
    3  A    between atoms: S_6  and  C_23
    4  A    between atoms: N_12  and  C_25
    5  A    between atoms: C_15  and  C_21
    6  A    between atoms: C_21  and  C_25
                            x       y       z     vdW  Elec       q    Type
                         _______ _______ _______ _____ _____    ______ ____

>  <TORSDO>
F 6

$$$$
=
 OpenBabel10262419503D

 25 28  0  0  0  0  0  0  0  0999 V2000
  185.7680  178.4190  144.8170 C   0  0  0  0  0  0  0  0  0  0  0  0
  185.6130  178.4790  143.4310 C   0  0  0  0  0  0  0  0  0  0  0  0
  183.4380  178.9430  145.2140 C   0  0  0  0  0  3  0  0  0  0  0  0
  186.8340  178.1600  145.6480 C   0  0  0  0  0  0  0  0  0  0  0  0
  188.5560  177.7280  147.7570 C   0  0  0  0  0  3  0  0  0  0  0  0
  183.2460  179.0120  143.8210 C   0  0  0  0  0  3  0  0  0  0  0  0
  186.3990  178.2360  146.9230 N   0  0  0  0  0  0  0  0  0  0  0  0
  187.2070  178.0310  147.9920 C   0  0  0  0  0  3  0  0  0  0  0  0
  184.1220  178.8540  141.5370 C   0  0  0  0  0  0  0  0  0  0  0  0
  182.8700  179.1510  141.0100 O   0  0  0  0  0  1  0  0  0  0  0  0
  186.6750  178.2530  142.5500 C   0  0  0  0  0  3  0  0  0  0  0  0
  189.0290  177.6450  146.4330 C   0  0  0  0  0  3  0  0  0  0  0  0
  184.7150  178.6430  145.6790 C   0  0  0  0  0  0  0  0  0  0  0  0
  185.1060  178.5300  146.9670 N   0  0  0  0  0  0  0  0  0  0  0  0
  185.1940  178.6260  140.6680 C   0  0  0  0  0  3  0  0  0  0  0  0
  188.1630  177.8620  145.3500 C   0  0  0  0  0  3  0  0  0  0  0  0
  186.4640  178.3230  141.1710 C   0  0  0  0  0  0  0  0  0  0  0  0
  184.3190  178.7840  142.9250 C   0  0  0  0  0  0  0  0  0  0  0  0
  187.8230  178.0400  140.0460 S   0  0  0  0  0  0  0  0  0  0  0  0
  189.0640  178.3780  141.3330 C   0  0  0  0  0  2  0  0  0  0  0  0
  190.0710  177.2430  141.4090 C   0  0  0  0  0  2  0  0  0  0  0  0
  189.6620  176.2150  142.4550 C   0  0  0  0  0  2  0  0  0  0  0  0
  190.7630  175.9600  143.3710 N   0  0  0  0  0  2  0  0  0  0  0  0
  191.6800  177.0800  143.2610 C   0  0  0  0  0  2  0  0  0  0  0  0
  191.6840  177.7950  144.4580 O   0  0  0  0  0  1  0  0  0  0  0  0
  1  4  2  0  0  0  0
  1 13  1  0  0  0  0
  2  1  1  0  0  0  0
  3 13  1  0  0  0  0
  4  7  1  0  0  0  0
  5  8  2  0  0  0  0
  6  3  2  0  0  0  0
  7 14  1  0  0  0  0
  7  8  1  0  0  0  0
  9 18  2  0  0  0  0
 10  9  1  0  0  0  0
 11  2  2  0  0  0  0
 12  5  1  0  0  0  0
 13 14  2  0  0  0  0
 15 17  2  0  0  0  0
 15  9  1  0  0  0  0
 16  4  1  0  0  0  0
 16 12  2  0  0  0  0
 17 11  1  0  0  0  0
 18  2  1  0  0  0  0
 18  6  1  0  0  0  0
 19 17  1  0  0  0  0
 19 20  1  0  0  0  0
 20 21  1  0  0  0  0
 21 22  1  0  0  0  0
 22 23  1  0  0  0  0
 24 23  1  0  0  0  0
 24 25  1  0  0  0  0
M  END
>  <MODEL>
8

>  <REMARK>
 VINA RESULT:      -8.2      2.403      5.295
  Name = 
  6 active torsions:
  status: ('A' for Active; 'I' for Inactive)
    1  A    between atoms: C_2  and  N_12
    2  A    between atoms: S_6  and  C_15
    3  A    between atoms: S_6  and  C_23
    4  A    between atoms: N_12  and  C_25
    5  A    between atoms: C_15  and  C_21
    6  A    between atoms: C_21  and  C_25
                            x       y       z     vdW  Elec       q    Type
                         _______ _______ _______ _____ _____    ______ ____

>  <TORSDO>
F 6

$$$$
=
 OpenBabel10262419503D

 25 28  0  0  0  0  0  0  0  0999 V2000
  189.5050  177.4450  144.1120 C   0  0  0  0  0  0  0  0  0  0  0  0
  188.5610  177.6900  145.1120 C   0  0  0  0  0  0  0  0  0  0  0  0
  191.2250  176.8770  145.7190 C   0  0  0  0  0  3  0  0  0  0  0  0
  189.4760  177.5020  142.7380 C   0  0  0  0  0  0  0  0  0  0  0  0
  190.0040  177.4390  140.0330 C   0  0  0  0  0  3  0  0  0  0  0  0
  190.2990  177.1150  146.7520 C   0  0  0  0  0  3  0  0  0  0  0  0
  190.6970  177.1550  142.2790 N   0  0  0  0  0  0  0  0  0  0  0  0
  191.0040  177.1090  140.9600 C   0  0  0  0  0  3  0  0  0  0  0  0
  188.0530  177.7570  147.4970 C   0  0  0  0  0  0  0  0  0  0  0  0
  188.4240  177.6010  148.8280 O   0  0  0  0  0  1  0  0  0  0  0  0
  187.2530  178.0890  144.8220 C   0  0  0  0  0  3  0  0  0  0  0  0
  188.7240  177.8040  140.4930 C   0  0  0  0  0  3  0  0  0  0  0  0
  190.7940  177.0510  144.4080 C   0  0  0  0  0  0  0  0  0  0  0  0
  191.5190  176.8750  143.2820 N   0  0  0  0  0  0  0  0  0  0  0  0
  186.7480  178.1550  147.1910 C   0  0  0  0  0  3  0  0  0  0  0  0
  188.4420  177.8400  141.8670 C   0  0  0  0  0  3  0  0  0  0  0  0
  186.3470  178.3180  145.8610 C   0  0  0  0  0  0  0  0  0  0  0  0
  188.9730  177.5200  146.4630 C   0  0  0  0  0  0  0  0  0  0  0  0
  184.6780  178.8340  145.4890 S   0  0  0  0  0  0  0  0  0  0  0  0
  184.7980  178.2620  143.7660 C   0  0  0  0  0  2  0  0  0  0  0  0
  184.0700  179.2210  142.8390 C   0  0  0  0  0  2  0  0  0  0  0  0
  182.7030  178.6760  142.4490 C   0  0  0  0  0  2  0  0  0  0  0  0
  181.7330  178.9410  143.5010 N   0  0  0  0  0  2  0  0  0  0  0  0
  180.4180  178.6730  142.9470 C   0  0  0  0  0  2  0  0  0  0  0  0
  179.6900  177.8880  143.8400 O   0  0  0  0  0  1  0  0  0  0  0  0
  1 13  1  0  0  0  0
  1  2  1  0  0  0  0
  2 18  1  0  0  0  0
  3  6  2  0  0  0  0
  4  1  2  0  0  0  0
  5 12  1  0  0  0  0
  5  8  2  0  0  0  0
  7  4  1  0  0  0  0
  7 14  1  0  0  0  0
  8  7  1  0  0  0  0
  9 10  1  0  0  0  0
 11  2  2  0  0  0  0
 11 17  1  0  0  0  0
 12 16  2  0  0  0  0
 13  3  1  0  0  0  0
 14 13  2  0  0  0  0
 15  9  1  0  0  0  0
 16  4  1  0  0  0  0
 17 15  2  0  0  0  0
 18  6  1  0  0  0  0
 18  9  2  0  0  0  0
 19 17  1  0  0  0  0
 20 19  1  0  0  0  0
 21 20  1  0  0  0  0
 22 21  1  0  0  0  0
 22 23  1  0  0  0  0
 24 23  1  0  0  0  0
 24 25  1  0  0  0  0
M  END
>  <MODEL>
9

>  <REMARK>
 VINA RESULT:      -8.2      3.457      5.785
  Name = 
  6 active torsions:
  status: ('A' for Active; 'I' for Inactive)
    1  A    between atoms: C_2  and  N_12
    2  A    between atoms: S_6  and  C_15
    3  A    between atoms: S_6  and  C_23
    4  A    between atoms: N_12  and  C_25
    5  A    between atoms: C_15  and  C_21
    6  A    between atoms: C_21  and  C_25
                            x       y       z     vdW  Elec       q    Type
                         _______ _______ _______ _____ _____    ______ ____

>  <TORSDO>
F 6

$$$$
