=
 OpenBabel10262422153D

 43 47  0  0  1  0  0  0  0  0999 V2000
  189.3670  177.2640  139.7300 C   0  0  1  0  0  3  0  0  0  0  0  0
  186.0880  175.6480  135.3260 C   0  0  0  0  0  0  0  0  0  0  0  0
  189.8160  177.5450  138.2860 C   0  0  1  0  0  3  0  0  0  0  0  0
  187.5390  177.1430  136.5670 C   0  0  0  0  0  0  0  0  0  0  0  0
  187.0190  174.6210  135.4660 C   0  0  0  0  0  3  0  0  0  0  0  0
  184.8180  175.4060  134.5940 C   0  0  0  0  0  1  0  0  0  0  0  0
  188.4870  176.1050  136.7240 C   0  0  0  0  0  0  0  0  0  0  0  0
  186.3450  176.9030  135.8820 C   0  0  0  0  0  3  0  0  0  0  0  0
  188.2090  174.8480  136.1600 C   0  0  0  0  0  3  0  0  0  0  0  0
  189.7230  176.3480  137.4440 N   0  0  0  0  0  0  0  0  0  0  0  0
  189.1770  178.7600  137.6050 C   0  0  0  0  0  2  0  0  0  0  0  0
  187.7280  178.4890  137.2050 C   0  0  0  0  0  2  0  0  0  0  0  0
  191.0560  174.5160  138.0920 O   0  0  0  0  0  1  0  0  0  0  0  0
  190.9800  175.0570  135.9020 O   0  0  0  0  0  1  0  0  0  0  0  0
  190.9670  175.5850  137.1960 C   0  0  0  0  0  0  0  0  0  0  0  0
  192.1970  176.4710  137.4180 C   0  0  0  0  0  2  0  0  0  0  0  0
  193.3420  175.7480  138.1070 C   0  0  0  0  0  1  0  0  0  0  0  0
  190.5220  176.7550  140.5800 C   0  0  0  0  0  2  0  0  0  0  0  0
  189.8470  176.3460  144.2060 C   0  0  0  0  0  2  0  0  0  0  0  0
  191.0970  177.0260  144.7640 C   0  0  0  0  0  0  0  0  0  0  0  0
  190.8190  177.5190  146.0230 F   0  0  0  0  0  0  0  0  0  0  0  0
  191.6370  177.7090  142.4110 C   0  0  0  0  0  2  0  0  0  0  0  0
  190.0550  175.9760  142.7360 C   0  0  0  0  0  2  0  0  0  0  0  0
  190.3510  177.1780  141.9610 N   0  0  0  0  0  0  0  0  0  0  0  0
  192.1250  176.1040  144.8600 F   0  0  0  0  0  0  0  0  0  0  0  0
  191.5260  178.1820  143.8600 C   0  0  0  0  0  2  0  0  0  0  0  0
  188.6980  178.4530  140.4060 C   0  0  0  0  0  2  0  0  0  0  0  0
  187.1880  178.3960  140.2340 C   0  0  0  0  0  2  0  0  0  0  0  0
  185.2320  179.1550  141.7430 C   0  0  0  0  0  0  0  0  0  0  0  0
  187.0660  177.8060  142.6080 C   0  0  0  0  0  3  0  0  0  0  0  0
  184.7940  179.4040  142.9460 N   0  0  0  0  0  0  0  0  0  0  0  0
  185.5690  179.0630  144.1430 C   0  0  2  0  0  3  0  0  0  0  0  0
  186.3680  177.7710  143.9380 C   0  0  0  0  0  2  0  0  0  0  0  0
  186.5040  178.4200  141.5620 C   0  0  0  0  0  0  0  0  0  0  0  0
  184.5020  179.5560  140.6190 O   0  0  0  0  0  0  0  0  0  0  0  0
  183.4470  178.7800  140.0660 C   0  0  0  0  0  2  0  0  0  0  0  0
  183.8610  178.2100  138.7220 C   0  0  0  0  0  1  0  0  0  0  0  0
  184.6720  178.9910  145.3720 C   0  0  0  0  0  2  0  0  0  0  0  0
  185.2370  178.0600  146.4340 C   0  0  0  0  0  2  0  0  0  0  0  0
  186.0590  178.8590  147.4210 C   0  0  0  0  0  2  0  0  0  0  0  0
  188.1630  178.2360  148.5480 C   0  0  0  0  0  2  0  0  0  0  0  0
  187.5290  178.5630  147.2120 C   0  0  0  0  0  3  0  0  0  0  0  0
  187.8030  177.1230  147.5890 C   0  0  0  0  0  2  0  0  0  0  0  0
  1 27  1  1  0  0  0
  1 18  1  0  0  0  0
  2  5  2  0  0  0  0
  2  8  1  0  0  0  0
  3  1  1  1  0  0  0
  4  7  1  0  0  0  0
  4 12  1  0  0  0  0
  5  9  1  0  0  0  0
  6  2  1  0  0  0  0
  7 10  1  0  0  0  0
  8  4  2  0  0  0  0
  9  7  2  0  0  0  0
 10  3  1  0  0  0  0
 11  3  1  0  0  0  0
 12 11  1  0  0  0  0
 14 15  1  0  0  0  0
 15 16  1  0  0  0  0
 15 10  1  0  0  0  0
 15 13  1  0  0  0  0
 16 17  1  0  0  0  0
 18 24  1  0  0  0  0
 19 20  1  0  0  0  0
 20 25  1  0  0  0  0
 20 21  1  0  0  0  0
 22 26  1  0  0  0  0
 23 19  1  0  0  0  0
 24 22  1  0  0  0  0
 24 23  1  0  0  0  0
 26 20  1  0  0  0  0
 28 27  1  0  0  0  0
 28 34  1  0  0  0  0
 29 31  2  0  0  0  0
 30 33  1  0  0  0  0
 31 32  1  0  0  0  0
 32 38  1  1  0  0  0
 33 32  1  0  0  0  0
 34 29  1  0  0  0  0
 34 30  2  0  0  0  0
 35 29  1  0  0  0  0
 36 35  1  0  0  0  0
 37 36  1  0  0  0  0
 38 39  1  0  0  0  0
 39 40  1  0  0  0  0
 42 40  1  0  0  0  0
 42 43  1  0  0  0  0
 42 41  1  0  0  0  0
 43 41  1  0  0  0  0
M  END
>  <MODEL>
1

>  <REMARK>
 VINA RESULT:      -8.4      0.000      0.000
  Name = 
  14 active torsions:
  status: ('A' for Active; 'I' for Inactive)
    1  A    between atoms: C_1  and  C_34
    2  A    between atoms: C_1  and  N_35
    3  A    between atoms: C_2  and  C_27
    4  A    between atoms: O_3  and  C_4
    5  A    between atoms: O_3  and  C_12
    6  A    between atoms: C_8  and  C_34
    7  A    between atoms: C_11  and  C_22
    8  A    between atoms: C_11  and  C_36
    9  A    between atoms: C_15  and  C_38
   10  A    between atoms: C_15  and  C_42
   11  A    between atoms: C_27  and  N_30
   12  A    between atoms: C_29  and  C_31
   13  A    between atoms: C_29  and  C_36
   14  A    between atoms: C_34  and  C_38
                            x       y       z     vdW  Elec       q    Type
                         _______ _______ _______ _____ _____    ______ ____

>  <TORSDO>
F 14

$$$$
=
 OpenBabel10262422153D

 43 47  0  0  1  0  0  0  0  0999 V2000
  186.1840  178.2830  139.8860 C   0  0  1  0  0  3  0  0  0  0  0  0
  184.4400  173.6380  137.0330 C   0  0  0  0  0  0  0  0  0  0  0  0
  185.5800  178.4200  138.4780 C   0  0  1  0  0  3  0  0  0  0  0  0
  184.2960  175.9240  137.8290 C   0  0  0  0  0  0  0  0  0  0  0  0
  185.7270  173.8800  136.5570 C   0  0  0  0  0  3  0  0  0  0  0  0
  183.8260  172.2940  136.8680 C   0  0  0  0  0  1  0  0  0  0  0  0
  185.6060  176.1780  137.3580 C   0  0  0  0  0  0  0  0  0  0  0  0
  183.7300  174.6560  137.6740 C   0  0  0  0  0  3  0  0  0  0  0  0
  186.3040  175.1400  136.7190 C   0  0  0  0  0  3  0  0  0  0  0  0
  186.2000  177.4900  137.5280 N   0  0  0  0  0  0  0  0  0  0  0  0
  184.0520  178.3730  138.3920 C   0  0  0  0  0  2  0  0  0  0  0  0
  183.5150  176.9570  138.5890 C   0  0  0  0  0  2  0  0  0  0  0  0
  186.8690  177.8530  135.2980 O   0  0  0  0  0  1  0  0  0  0  0  0
  187.4420  179.3920  136.8450 O   0  0  0  0  0  1  0  0  0  0  0  0
  187.2500  178.0250  136.6310 C   0  0  0  0  0  0  0  0  0  0  0  0
  188.5670  177.2680  136.8320 C   0  0  0  0  0  2  0  0  0  0  0  0
  189.3500  177.0720  135.5440 C   0  0  0  0  0  1  0  0  0  0  0  0
  187.6690  178.6140  139.8870 C   0  0  0  0  0  2  0  0  0  0  0  0
  190.3620  176.4230  141.1980 C   0  0  0  0  0  2  0  0  0  0  0  0
  190.7220  177.2080  142.4590 C   0  0  0  0  0  0  0  0  0  0  0  0
  191.2530  176.3420  143.3940 F   0  0  0  0  0  0  0  0  0  0  0  0
  188.7470  178.6770  141.9710 C   0  0  0  0  0  2  0  0  0  0  0  0
  189.5810  177.3090  140.2260 C   0  0  0  0  0  2  0  0  0  0  0  0
  188.3630  177.7950  140.8680 N   0  0  0  0  0  0  0  0  0  0  0  0
  191.6670  178.1720  142.1540 F   0  0  0  0  0  0  0  0  0  0  0  0
  189.4780  177.8750  143.0470 C   0  0  0  0  0  2  0  0  0  0  0  0
  185.4590  179.1020  140.9460 C   0  0  0  0  0  2  0  0  0  0  0  0
  184.4600  178.2440  141.7060 C   0  0  0  0  0  2  0  0  0  0  0  0
  183.8970  178.9590  144.1240 C   0  0  0  0  0  0  0  0  0  0  0  0
  185.8660  177.6200  143.6120 C   0  0  0  0  0  3  0  0  0  0  0  0
  184.3180  179.1870  145.3370 N   0  0  0  0  0  0  0  0  0  0  0  0
  185.6750  178.8390  145.7690 C   0  0  2  0  0  3  0  0  0  0  0  0
  186.1650  177.5590  145.0820 C   0  0  0  0  0  2  0  0  0  0  0  0
  184.7680  178.2420  143.1670 C   0  0  0  0  0  0  0  0  0  0  0  0
  182.6210  179.3680  143.7220 O   0  0  0  0  0  0  0  0  0  0  0  0
  181.4480  178.6070  143.9830 C   0  0  0  0  0  2  0  0  0  0  0  0
  180.4300  178.8120  142.8780 C   0  0  0  0  0  1  0  0  0  0  0  0
  185.7570  178.7400  147.2870 C   0  0  0  0  0  2  0  0  0  0  0  0
  187.1590  179.0240  147.8010 C   0  0  0  0  0  2  0  0  0  0  0  0
  187.8290  177.7230  148.1860 C   0  0  0  0  0  2  0  0  0  0  0  0
  189.8400  176.5290  147.4010 C   0  0  0  0  0  2  0  0  0  0  0  0
  189.3230  177.8370  147.9610 C   0  0  0  0  0  3  0  0  0  0  0  0
  189.6120  177.7070  146.4810 C   0  0  0  0  0  2  0  0  0  0  0  0
  1 18  1  6  0  0  0
  1 27  1  0  0  0  0
  2  8  1  0  0  0  0
  3  1  1  1  0  0  0
  4 12  1  0  0  0  0
  5  9  1  0  0  0  0
  5  2  2  0  0  0  0
  6  2  1  0  0  0  0
  7 10  1  0  0  0  0
  7  4  1  0  0  0  0
  8  4  2  0  0  0  0
  9  7  2  0  0  0  0
 10  3  1  0  0  0  0
 11  3  1  0  0  0  0
 11 12  1  0  0  0  0
 13 15  1  0  0  0  0
 15 16  1  0  0  0  0
 15 14  1  0  0  0  0
 15 10  1  0  0  0  0
 17 16  1  0  0  0  0
 18 24  1  0  0  0  0
 19 20  1  0  0  0  0
 20 26  1  0  0  0  0
 20 21  1  0  0  0  0
 22 26  1  0  0  0  0
 23 24  1  0  0  0  0
 23 19  1  0  0  0  0
 24 22  1  0  0  0  0
 25 20  1  0  0  0  0
 27 28  1  0  0  0  0
 28 34  1  0  0  0  0
 29 31  2  0  0  0  0
 30 33  1  0  0  0  0
 31 32  1  0  0  0  0
 32 38  1  1  0  0  0
 33 32  1  0  0  0  0
 34 30  2  0  0  0  0
 34 29  1  0  0  0  0
 35 36  1  0  0  0  0
 35 29  1  0  0  0  0
 37 36  1  0  0  0  0
 38 39  1  0  0  0  0
 39 40  1  0  0  0  0
 41 42  1  0  0  0  0
 42 40  1  0  0  0  0
 43 41  1  0  0  0  0
 43 42  1  0  0  0  0
M  END
>  <MODEL>
2

>  <REMARK>
 VINA RESULT:      -7.7      2.282      3.433
  Name = 
  14 active torsions:
  status: ('A' for Active; 'I' for Inactive)
    1  A    between atoms: C_1  and  C_34
    2  A    between atoms: C_1  and  N_35
    3  A    between atoms: C_2  and  C_27
    4  A    between atoms: O_3  and  C_4
    5  A    between atoms: O_3  and  C_12
    6  A    between atoms: C_8  and  C_34
    7  A    between atoms: C_11  and  C_22
    8  A    between atoms: C_11  and  C_36
    9  A    between atoms: C_15  and  C_38
   10  A    between atoms: C_15  and  C_42
   11  A    between atoms: C_27  and  N_30
   12  A    between atoms: C_29  and  C_31
   13  A    between atoms: C_29  and  C_36
   14  A    between atoms: C_34  and  C_38
                            x       y       z     vdW  Elec       q    Type
                         _______ _______ _______ _____ _____    ______ ____

>  <TORSDO>
F 14

$$$$
=
 OpenBabel10262422153D

 43 47  0  0  1  0  0  0  0  0999 V2000
  186.1440  178.3740  140.1010 C   0  0  1  0  0  3  0  0  0  0  0  0
  181.1660  175.7590  139.0320 C   0  0  0  0  0  0  0  0  0  0  0  0
  185.3300  178.7400  138.8480 C   0  0  1  0  0  3  0  0  0  0  0  0
  182.6850  177.6440  139.1710 C   0  0  0  0  0  0  0  0  0  0  0  0
  182.1020  175.0550  138.2770 C   0  0  0  0  0  3  0  0  0  0  0  0
  179.8580  175.1370  139.3650 C   0  0  0  0  0  1  0  0  0  0  0  0
  183.6460  176.9350  138.4130 C   0  0  0  0  0  0  0  0  0  0  0  0
  181.4610  177.0480  139.4840 C   0  0  0  0  0  3  0  0  0  0  0  0
  183.3320  175.6390  137.9710 C   0  0  0  0  0  3  0  0  0  0  0  0
  184.9220  177.5480  138.0970 N   0  0  0  0  0  0  0  0  0  0  0  0
  184.1530  179.6950  139.0640 C   0  0  0  0  0  2  0  0  0  0  0  0
  182.9750  179.0020  139.7450 C   0  0  0  0  0  2  0  0  0  0  0  0
  186.7190  178.1340  136.6900 O   0  0  0  0  0  1  0  0  0  0  0  0
  186.3520  175.9440  137.0920 O   0  0  0  0  0  1  0  0  0  0  0  0
  185.7240  177.1790  136.9080 C   0  0  0  0  0  0  0  0  0  0  0  0
  184.8440  177.1410  135.6540 C   0  0  0  0  0  2  0  0  0  0  0  0
  184.9320  175.8270  134.8970 C   0  0  0  0  0  1  0  0  0  0  0  0
  187.6290  178.6300  139.8910 C   0  0  0  0  0  2  0  0  0  0  0  0
  190.4470  176.4260  140.8790 C   0  0  0  0  0  2  0  0  0  0  0  0
  190.9030  177.1640  142.1380 C   0  0  0  0  0  0  0  0  0  0  0  0
  191.5200  176.2680  142.9880 F   0  0  0  0  0  0  0  0  0  0  0  0
  188.8780  178.6230  141.8790 C   0  0  0  0  0  2  0  0  0  0  0  0
  189.5770  177.3390  140.0140 C   0  0  0  0  0  2  0  0  0  0  0  0
  188.4120  177.7820  140.7760 N   0  0  0  0  0  0  0  0  0  0  0  0
  191.8080  178.1540  141.7960 F   0  0  0  0  0  0  0  0  0  0  0  0
  189.7050  177.7880  142.8550 C   0  0  0  0  0  2  0  0  0  0  0  0
  185.6620  179.0660  141.3690 C   0  0  0  0  0  2  0  0  0  0  0  0
  184.8120  178.1270  142.2100 C   0  0  0  0  0  2  0  0  0  0  0  0
  184.7790  178.9180  144.6700 C   0  0  0  0  0  0  0  0  0  0  0  0
  186.3420  177.2200  143.8930 C   0  0  0  0  0  3  0  0  0  0  0  0
  185.4180  179.0470  145.8000 N   0  0  0  0  0  0  0  0  0  0  0  0
  186.7300  178.4330  146.0270 C   0  0  2  0  0  3  0  0  0  0  0  0
  186.8460  177.0870  145.3020 C   0  0  0  0  0  2  0  0  0  0  0  0
  185.3340  178.0510  143.6080 C   0  0  0  0  0  0  0  0  0  0  0  0
  183.5620  179.5750  144.4580 O   0  0  0  0  0  0  0  0  0  0  0  0
  182.3100  178.9020  144.4630 C   0  0  0  0  0  2  0  0  0  0  0  0
  181.5090  179.2700  143.2280 C   0  0  0  0  0  1  0  0  0  0  0  0
  187.0220  178.3050  147.5170 C   0  0  0  0  0  2  0  0  0  0  0  0
  188.2030  177.3860  147.7880 C   0  0  0  0  0  2  0  0  0  0  0  0
  189.4040  177.8620  147.0020 C   0  0  0  0  0  2  0  0  0  0  0  0
  191.5650  177.0870  146.0970 C   0  0  0  0  0  2  0  0  0  0  0  0
  190.1520  176.6680  146.4460 C   0  0  0  0  0  3  0  0  0  0  0  0
  191.2960  176.3250  147.3750 C   0  0  0  0  0  2  0  0  0  0  0  0
  1 18  1  6  0  0  0
  1 27  1  0  0  0  0
  2  6  1  0  0  0  0
  2  8  1  0  0  0  0
  3 11  1  0  0  0  0
  3  1  1  1  0  0  0
  4  8  2  0  0  0  0
  4 12  1  0  0  0  0
  5  2  2  0  0  0  0
  7  4  1  0  0  0  0
  9  5  1  0  0  0  0
  9  7  2  0  0  0  0
 10  7  1  0  0  0  0
 10  3  1  0  0  0  0
 11 12  1  0  0  0  0
 13 15  1  0  0  0  0
 15 14  1  0  0  0  0
 15 10  1  0  0  0  0
 16 15  1  0  0  0  0
 17 16  1  0  0  0  0
 18 24  1  0  0  0  0
 19 20  1  0  0  0  0
 20 26  1  0  0  0  0
 20 21  1  0  0  0  0
 22 26  1  0  0  0  0
 23 24  1  0  0  0  0
 23 19  1  0  0  0  0
 24 22  1  0  0  0  0
 25 20  1  0  0  0  0
 27 28  1  0  0  0  0
 28 34  1  0  0  0  0
 29 31  2  0  0  0  0
 30 33  1  0  0  0  0
 31 32  1  0  0  0  0
 32 38  1  1  0  0  0
 33 32  1  0  0  0  0
 34 30  2  0  0  0  0
 34 29  1  0  0  0  0
 35 36  1  0  0  0  0
 35 29  1  0  0  0  0
 37 36  1  0  0  0  0
 38 39  1  0  0  0  0
 40 39  1  0  0  0  0
 41 42  1  0  0  0  0
 41 43  1  0  0  0  0
 42 40  1  0  0  0  0
 42 43  1  0  0  0  0
M  END
>  <MODEL>
3

>  <REMARK>
 VINA RESULT:      -7.6      2.426      4.472
  Name = 
  14 active torsions:
  status: ('A' for Active; 'I' for Inactive)
    1  A    between atoms: C_1  and  C_34
    2  A    between atoms: C_1  and  N_35
    3  A    between atoms: C_2  and  C_27
    4  A    between atoms: O_3  and  C_4
    5  A    between atoms: O_3  and  C_12
    6  A    between atoms: C_8  and  C_34
    7  A    between atoms: C_11  and  C_22
    8  A    between atoms: C_11  and  C_36
    9  A    between atoms: C_15  and  C_38
   10  A    between atoms: C_15  and  C_42
   11  A    between atoms: C_27  and  N_30
   12  A    between atoms: C_29  and  C_31
   13  A    between atoms: C_29  and  C_36
   14  A    between atoms: C_34  and  C_38
                            x       y       z     vdW  Elec       q    Type
                         _______ _______ _______ _____ _____    ______ ____

>  <TORSDO>
F 14

$$$$
=
 OpenBabel10262422153D

 43 47  0  0  1  0  0  0  0  0999 V2000
  190.2560  176.6190  138.0820 C   0  0  1  0  0  3  0  0  0  0  0  0
  184.5660  177.0200  137.6160 C   0  0  0  0  0  0  0  0  0  0  0  0
  189.6020  176.7800  136.6990 C   0  0  1  0  0  3  0  0  0  0  0  0
  186.8680  177.5910  137.1130 C   0  0  0  0  0  0  0  0  0  0  0  0
  184.8440  175.6750  137.3820 C   0  0  0  0  0  3  0  0  0  0  0  0
  183.1960  177.4390  138.0100 C   0  0  0  0  0  1  0  0  0  0  0  0
  187.1640  176.2270  136.8820 C   0  0  0  0  0  0  0  0  0  0  0  0
  185.5780  177.9740  137.4890 C   0  0  0  0  0  3  0  0  0  0  0  0
  186.1330  175.2830  137.0180 C   0  0  0  0  0  3  0  0  0  0  0  0
  188.5050  175.8260  136.5020 N   0  0  0  0  0  0  0  0  0  0  0  0
  189.1830  178.2010  136.3120 C   0  0  0  0  0  2  0  0  0  0  0  0
  187.9320  178.6500  137.0630 C   0  0  0  0  0  2  0  0  0  0  0  0
  187.7340  174.3410  134.8440 O   0  0  0  0  0  1  0  0  0  0  0  0
  189.9480  174.7620  134.9490 O   0  0  0  0  0  1  0  0  0  0  0  0
  188.7920  174.6040  135.7170 C   0  0  0  0  0  0  0  0  0  0  0  0
  188.9340  173.3900  136.6410 C   0  0  0  0  0  2  0  0  0  0  0  0
  188.1420  172.1810  136.1720 C   0  0  0  0  0  1  0  0  0  0  0  0
  191.7750  176.6300  137.9810 C   0  0  0  0  0  2  0  0  0  0  0  0
  194.0610  175.2500  135.4050 C   0  0  0  0  0  2  0  0  0  0  0  0
  194.1330  173.8030  135.8930 C   0  0  0  0  0  0  0  0  0  0  0  0
  194.4210  172.9790  134.8230 F   0  0  0  0  0  0  0  0  0  0  0  0
  192.3450  174.3940  137.5510 C   0  0  0  0  0  2  0  0  0  0  0  0
  193.5380  176.1600  136.5170 C   0  0  0  0  0  2  0  0  0  0  0  0
  192.2120  175.7160  136.9380 N   0  0  0  0  0  0  0  0  0  0  0  0
  195.1360  173.6790  136.8380 F   0  0  0  0  0  0  0  0  0  0  0  0
  192.7970  173.3780  136.5030 C   0  0  0  0  0  2  0  0  0  0  0  0
  189.7870  177.6460  139.1050 C   0  0  0  0  0  2  0  0  0  0  0  0
  190.2460  177.2670  140.5040 C   0  0  0  0  0  2  0  0  0  0  0  0
  189.5290  177.6290  142.9600 C   0  0  0  0  0  0  0  0  0  0  0  0
  187.9640  177.9110  141.1160 C   0  0  0  0  0  3  0  0  0  0  0  0
  188.5660  177.6670  143.8380 N   0  0  0  0  0  0  0  0  0  0  0  0
  187.1540  177.6130  143.4460 C   0  0  2  0  0  3  0  0  0  0  0  0
  186.9190  178.3290  142.1120 C   0  0  0  0  0  2  0  0  0  0  0  0
  189.2080  177.6270  141.5160 C   0  0  0  0  0  0  0  0  0  0  0  0
  190.8680  177.6100  143.3690 O   0  0  0  0  0  0  0  0  0  0  0  0
  191.4800  176.4690  143.9570 C   0  0  0  0  0  2  0  0  0  0  0  0
  191.5140  176.6100  145.4670 C   0  0  0  0  0  1  0  0  0  0  0  0
  186.2590  178.1590  144.5520 C   0  0  0  0  0  2  0  0  0  0  0  0
  186.3460  177.3230  145.8190 C   0  0  0  0  0  2  0  0  0  0  0  0
  186.5920  178.2280  147.0060 C   0  0  0  0  0  2  0  0  0  0  0  0
  188.3010  178.0140  148.7730 C   0  0  0  0  0  2  0  0  0  0  0  0
  188.0770  178.2870  147.3000 C   0  0  0  0  0  3  0  0  0  0  0  0
  188.5450  176.9210  147.7560 C   0  0  0  0  0  2  0  0  0  0  0  0
  1 18  1  6  0  0  0
  1 27  1  0  0  0  0
  2  6  1  0  0  0  0
  3  1  1  1  0  0  0
  4  8  2  0  0  0  0
  5  2  2  0  0  0  0
  7  9  2  0  0  0  0
  7  4  1  0  0  0  0
  8  2  1  0  0  0  0
  9  5  1  0  0  0  0
 10  3  1  0  0  0  0
 10  7  1  0  0  0  0
 11  3  1  0  0  0  0
 11 12  1  0  0  0  0
 12  4  1  0  0  0  0
 13 15  1  0  0  0  0
 14 15  1  0  0  0  0
 15 10  1  0  0  0  0
 15 16  1  0  0  0  0
 17 16  1  0  0  0  0
 19 20  1  0  0  0  0
 19 23  1  0  0  0  0
 20 26  1  0  0  0  0
 20 25  1  0  0  0  0
 21 20  1  0  0  0  0
 23 24  1  0  0  0  0
 24 22  1  0  0  0  0
 24 18  1  0  0  0  0
 26 22  1  0  0  0  0
 27 28  1  0  0  0  0
 28 34  1  0  0  0  0
 29 35  1  0  0  0  0
 29 31  2  0  0  0  0
 30 34  2  0  0  0  0
 30 33  1  0  0  0  0
 32 31  1  0  0  0  0
 32 38  1  1  0  0  0
 33 32  1  0  0  0  0
 34 29  1  0  0  0  0
 35 36  1  0  0  0  0
 36 37  1  0  0  0  0
 38 39  1  0  0  0  0
 39 40  1  0  0  0  0
 40 42  1  0  0  0  0
 42 43  1  0  0  0  0
 42 41  1  0  0  0  0
 43 41  1  0  0  0  0
M  END
>  <MODEL>
4

>  <REMARK>
 VINA RESULT:      -7.2      2.882      5.104
  Name = 
  14 active torsions:
  status: ('A' for Active; 'I' for Inactive)
    1  A    between atoms: C_1  and  C_34
    2  A    between atoms: C_1  and  N_35
    3  A    between atoms: C_2  and  C_27
    4  A    between atoms: O_3  and  C_4
    5  A    between atoms: O_3  and  C_12
    6  A    between atoms: C_8  and  C_34
    7  A    between atoms: C_11  and  C_22
    8  A    between atoms: C_11  and  C_36
    9  A    between atoms: C_15  and  C_38
   10  A    between atoms: C_15  and  C_42
   11  A    between atoms: C_27  and  N_30
   12  A    between atoms: C_29  and  C_31
   13  A    between atoms: C_29  and  C_36
   14  A    between atoms: C_34  and  C_38
                            x       y       z     vdW  Elec       q    Type
                         _______ _______ _______ _____ _____    ______ ____

>  <TORSDO>
F 14

$$$$
=
 OpenBabel10262422153D

 43 47  0  0  1  0  0  0  0  0999 V2000
  188.1540  178.2910  142.0400 C   0  0  1  0  0  3  0  0  0  0  0  0
  188.0880  178.0100  147.7560 C   0  0  0  0  0  0  0  0  0  0  0  0
  188.6320  177.0180  142.7580 C   0  0  1  0  0  3  0  0  0  0  0  0
  187.7630  177.1810  145.5000 C   0  0  0  0  0  0  0  0  0  0  0  0
  189.3930  178.3780  147.4370 C   0  0  0  0  0  3  0  0  0  0  0  0
  187.5580  178.2530  149.1230 C   0  0  0  0  0  1  0  0  0  0  0  0
  189.0840  177.5590  145.1630 C   0  0  0  0  0  0  0  0  0  0  0  0
  187.2730  177.4190  146.7870 C   0  0  0  0  0  3  0  0  0  0  0  0
  189.8860  178.1550  146.1510 C   0  0  0  0  0  3  0  0  0  0  0  0
  189.5910  177.3230  143.8250 N   0  0  0  0  0  0  0  0  0  0  0  0
  187.5350  176.0670  143.2460 C   0  0  0  0  0  2  0  0  0  0  0  0
  186.8190  176.6100  144.4800 C   0  0  0  0  0  2  0  0  0  0  0  0
  191.1830  176.3680  142.3740 O   0  0  0  0  0  1  0  0  0  0  0  0
  191.6500  178.3740  143.2950 O   0  0  0  0  0  1  0  0  0  0  0  0
  191.0300  177.1440  143.5260 C   0  0  0  0  0  0  0  0  0  0  0  0
  191.7310  176.4060  144.6700 C   0  0  0  0  0  2  0  0  0  0  0  0
  192.0550  174.9570  144.3430 C   0  0  0  0  0  1  0  0  0  0  0  0
  189.0220  178.6040  140.8290 C   0  0  0  0  0  2  0  0  0  0  0  0
  187.8930  177.0680  137.6450 C   0  0  0  0  0  2  0  0  0  0  0  0
  189.2430  176.5850  137.1160 C   0  0  0  0  0  0  0  0  0  0  0  0
  189.0400  175.5070  136.2780 F   0  0  0  0  0  0  0  0  0  0  0  0
  190.2220  177.2590  139.3260 C   0  0  0  0  0  2  0  0  0  0  0  0
  188.0960  178.1220  138.7350 C   0  0  0  0  0  2  0  0  0  0  0  0
  188.8810  177.5570  139.8300 N   0  0  0  0  0  0  0  0  0  0  0  0
  189.8530  177.6000  136.4000 F   0  0  0  0  0  0  0  0  0  0  0  0
  190.1480  176.1550  138.2720 C   0  0  0  0  0  2  0  0  0  0  0  0
  186.6840  178.2540  141.6410 C   0  0  0  0  0  2  0  0  0  0  0  0
  185.9420  179.4640  142.1890 C   0  0  0  0  0  2  0  0  0  0  0  0
  183.5200  178.6720  141.7650 C   0  0  0  0  0  0  0  0  0  0  0  0
  184.3450  179.1170  144.0120 C   0  0  0  0  0  3  0  0  0  0  0  0
  182.2880  178.6030  142.1860 N   0  0  0  0  0  0  0  0  0  0  0  0
  181.9070  179.0020  143.5450 C   0  0  2  0  0  3  0  0  0  0  0  0
  183.0150  178.6730  144.5520 C   0  0  0  0  0  2  0  0  0  0  0  0
  184.5950  179.0700  142.7000 C   0  0  0  0  0  0  0  0  0  0  0  0
  183.8400  178.3520  140.4410 O   0  0  0  0  0  0  0  0  0  0  0  0
  183.6960  179.2730  139.3670 C   0  0  0  0  0  2  0  0  0  0  0  0
  182.4370  178.9670  138.5770 C   0  0  0  0  0  1  0  0  0  0  0  0
  180.5730  178.3820  143.9420 C   0  0  0  0  0  2  0  0  0  0  0  0
  179.3980  179.2680  143.5590 C   0  0  0  0  0  2  0  0  0  0  0  0
  179.9070  180.5020  142.8460 C   0  0  0  0  0  2  0  0  0  0  0  0
  179.8860  180.8740  140.4070 C   0  0  0  0  0  2  0  0  0  0  0  0
  179.0250  180.7960  141.6510 C   0  0  0  0  0  3  0  0  0  0  0  0
  179.0820  179.6250  140.6940 C   0  0  0  0  0  2  0  0  0  0  0  0
  1 18  1  6  0  0  0
  2  6  1  0  0  0  0
  3  1  1  1  0  0  0
  3 11  1  0  0  0  0
  3 10  1  0  0  0  0
  4  8  1  0  0  0  0
  5  2  1  0  0  0  0
  7  4  2  0  0  0  0
  7  9  1  0  0  0  0
  8  2  2  0  0  0  0
  9  5  2  0  0  0  0
 10  7  1  0  0  0  0
 11 12  1  0  0  0  0
 12  4  1  0  0  0  0
 13 15  1  0  0  0  0
 14 15  1  0  0  0  0
 15 10  1  0  0  0  0
 15 16  1  0  0  0  0
 17 16  1  0  0  0  0
 19 23  1  0  0  0  0
 20 19  1  0  0  0  0
 20 26  1  0  0  0  0
 21 20  1  0  0  0  0
 22 24  1  0  0  0  0
 23 24  1  0  0  0  0
 24 18  1  0  0  0  0
 25 20  1  0  0  0  0
 26 22  1  0  0  0  0
 27  1  1  0  0  0  0
 27 28  1  0  0  0  0
 28 34  1  0  0  0  0
 29 31  2  0  0  0  0
 29 34  1  0  0  0  0
 30 33  1  0  0  0  0
 31 32  1  0  0  0  0
 32 38  1  1  0  0  0
 32 33  1  0  0  0  0
 34 30  2  0  0  0  0
 35 29  1  0  0  0  0
 36 35  1  0  0  0  0
 37 36  1  0  0  0  0
 39 38  1  0  0  0  0
 40 39  1  0  0  0  0
 41 43  1  0  0  0  0
 41 42  1  0  0  0  0
 42 40  1  0  0  0  0
 43 42  1  0  0  0  0
M  END
>  <MODEL>
5

>  <REMARK>
 VINA RESULT:      -7.2      3.233      7.293
  Name = 
  14 active torsions:
  status: ('A' for Active; 'I' for Inactive)
    1  A    between atoms: C_1  and  C_34
    2  A    between atoms: C_1  and  N_35
    3  A    between atoms: C_2  and  C_27
    4  A    between atoms: O_3  and  C_4
    5  A    between atoms: O_3  and  C_12
    6  A    between atoms: C_8  and  C_34
    7  A    between atoms: C_11  and  C_22
    8  A    between atoms: C_11  and  C_36
    9  A    between atoms: C_15  and  C_38
   10  A    between atoms: C_15  and  C_42
   11  A    between atoms: C_27  and  N_30
   12  A    between atoms: C_29  and  C_31
   13  A    between atoms: C_29  and  C_36
   14  A    between atoms: C_34  and  C_38
                            x       y       z     vdW  Elec       q    Type
                         _______ _______ _______ _____ _____    ______ ____

>  <TORSDO>
F 14

$$$$
=
 OpenBabel10262422153D

 43 47  0  0  1  0  0  0  0  0999 V2000
  183.1860  177.5440  138.7010 C   0  0  1  0  0  3  0  0  0  0  0  0
  180.4520  182.2530  136.9370 C   0  0  0  0  0  0  0  0  0  0  0  0
  181.6630  177.5210  138.4850 C   0  0  1  0  0  3  0  0  0  0  0  0
  180.9540  179.8820  136.9930 C   0  0  0  0  0  0  0  0  0  0  0  0
  180.3040  182.2590  138.3220 C   0  0  0  0  0  3  0  0  0  0  0  0
  180.2670  183.5090  136.1630 C   0  0  0  0  0  1  0  0  0  0  0  0
  180.8150  179.8780  138.4010 C   0  0  0  0  0  0  0  0  0  0  0  0
  180.7830  181.0680  136.2760 C   0  0  0  0  0  3  0  0  0  0  0  0
  180.4840  181.0800  139.0480 C   0  0  0  0  0  3  0  0  0  0  0  0
  181.0020  178.6490  139.1490 N   0  0  0  0  0  0  0  0  0  0  0  0
  181.1900  177.3680  137.0360 C   0  0  0  0  0  2  0  0  0  0  0  0
  181.3800  178.6560  136.2370 C   0  0  0  0  0  2  0  0  0  0  0  0
  179.0600  178.9070  140.4580 O   0  0  0  0  0  1  0  0  0  0  0  0
  180.2740  177.0230  140.7140 O   0  0  0  0  0  1  0  0  0  0  0  0
  180.3590  178.3940  140.4580 C   0  0  0  0  0  0  0  0  0  0  0  0
  181.1280  179.0940  141.5820 C   0  0  0  0  0  2  0  0  0  0  0  0
  180.2260  179.8410  142.5520 C   0  0  0  0  0  1  0  0  0  0  0  0
  183.9300  177.1010  137.4500 C   0  0  0  0  0  2  0  0  0  0  0  0
  184.7480  173.4910  137.7180 C   0  0  0  0  0  2  0  0  0  0  0  0
  186.0420  173.4740  136.9040 C   0  0  0  0  0  0  0  0  0  0  0  0
  186.8300  172.4230  137.3300 F   0  0  0  0  0  0  0  0  0  0  0  0
  185.8960  175.9780  136.8330 C   0  0  0  0  0  2  0  0  0  0  0  0
  183.9500  174.7610  137.4200 C   0  0  0  0  0  2  0  0  0  0  0  0
  184.7520  175.9380  137.7440 N   0  0  0  0  0  0  0  0  0  0  0  0
  185.7470  173.2990  135.5630 F   0  0  0  0  0  0  0  0  0  0  0  0
  186.8110  174.7820  137.0940 C   0  0  0  0  0  2  0  0  0  0  0  0
  183.7150  178.8890  139.1820 C   0  0  0  0  0  2  0  0  0  0  0  0
  185.2310  178.8640  139.3000 C   0  0  0  0  0  2  0  0  0  0  0  0
  187.0700  178.5100  141.0800 C   0  0  0  0  0  0  0  0  0  0  0  0
  184.7210  178.7080  141.6900 C   0  0  0  0  0  3  0  0  0  0  0  0
  187.3880  178.1010  142.2770 N   0  0  0  0  0  0  0  0  0  0  0  0
  186.3740  177.7340  143.2700 C   0  0  2  0  0  3  0  0  0  0  0  0
  185.1220  178.6090  143.1350 C   0  0  0  0  0  2  0  0  0  0  0  0
  185.6480  178.7090  140.7270 C   0  0  0  0  0  0  0  0  0  0  0  0
  188.0620  178.7850  140.1320 O   0  0  0  0  0  0  0  0  0  0  0  0
  188.6980  177.7710  139.3640 C   0  0  0  0  0  2  0  0  0  0  0  0
  190.0460  177.4220  139.9660 C   0  0  0  0  0  1  0  0  0  0  0  0
  186.9490  177.7760  144.6800 C   0  0  0  0  0  2  0  0  0  0  0  0
  185.9460  178.3140  145.6880 C   0  0  0  0  0  2  0  0  0  0  0  0
  186.5670  178.3130  147.0680 C   0  0  0  0  0  2  0  0  0  0  0  0
  188.7280  178.2880  148.2590 C   0  0  0  0  0  2  0  0  0  0  0  0
  188.0280  177.9280  146.9650 C   0  0  0  0  0  3  0  0  0  0  0  0
  188.3300  176.8540  147.9880 C   0  0  0  0  0  2  0  0  0  0  0  0
  1 18  1  6  0  0  0
  1 27  1  0  0  0  0
  2  5  1  0  0  0  0
  3  1  1  6  0  0  0
  3 10  1  0  0  0  0
  4  7  2  0  0  0  0
  5  9  2  0  0  0  0
  6  2  1  0  0  0  0
  7  9  1  0  0  0  0
  7 10  1  0  0  0  0
  8  2  2  0  0  0  0
  8  4  1  0  0  0  0
 10 15  1  0  0  0  0
 11  3  1  0  0  0  0
 12  4  1  0  0  0  0
 12 11  1  0  0  0  0
 15 13  1  0  0  0  0
 15 14  1  0  0  0  0
 15 16  1  0  0  0  0
 16 17  1  0  0  0  0
 18 24  1  0  0  0  0
 20 26  1  0  0  0  0
 20 21  1  0  0  0  0
 20 19  1  0  0  0  0
 22 26  1  0  0  0  0
 22 24  1  0  0  0  0
 23 19  1  0  0  0  0
 23 24  1  0  0  0  0
 25 20  1  0  0  0  0
 27 28  1  0  0  0  0
 28 34  1  0  0  0  0
 29 31  2  0  0  0  0
 30 33  1  0  0  0  0
 31 32  1  0  0  0  0
 32 38  1  1  0  0  0
 33 32  1  0  0  0  0
 34 29  1  0  0  0  0
 34 30  2  0  0  0  0
 35 29  1  0  0  0  0
 36 37  1  0  0  0  0
 36 35  1  0  0  0  0
 38 39  1  0  0  0  0
 39 40  1  0  0  0  0
 42 40  1  0  0  0  0
 42 43  1  0  0  0  0
 42 41  1  0  0  0  0
 43 41  1  0  0  0  0
M  END
>  <MODEL>
6

>  <REMARK>
 VINA RESULT:      -7.1      3.865      7.707
  Name = 
  14 active torsions:
  status: ('A' for Active; 'I' for Inactive)
    1  A    between atoms: C_1  and  C_34
    2  A    between atoms: C_1  and  N_35
    3  A    between atoms: C_2  and  C_27
    4  A    between atoms: O_3  and  C_4
    5  A    between atoms: O_3  and  C_12
    6  A    between atoms: C_8  and  C_34
    7  A    between atoms: C_11  and  C_22
    8  A    between atoms: C_11  and  C_36
    9  A    between atoms: C_15  and  C_38
   10  A    between atoms: C_15  and  C_42
   11  A    between atoms: C_27  and  N_30
   12  A    between atoms: C_29  and  C_31
   13  A    between atoms: C_29  and  C_36
   14  A    between atoms: C_34  and  C_38
                            x       y       z     vdW  Elec       q    Type
                         _______ _______ _______ _____ _____    ______ ____

>  <TORSDO>
F 14

$$$$
=
 OpenBabel10262422153D

 43 47  0  0  1  0  0  0  0  0999 V2000
  188.9750  176.1660  137.8500 C   0  0  1  0  0  3  0  0  0  0  0  0
  183.2970  176.7190  138.3080 C   0  0  0  0  0  0  0  0  0  0  0  0
  188.1190  176.4230  136.5990 C   0  0  1  0  0  3  0  0  0  0  0  0
  185.5100  177.2680  137.4810 C   0  0  0  0  0  0  0  0  0  0  0  0
  183.4930  175.3850  137.9590 C   0  0  0  0  0  3  0  0  0  0  0  0
  182.0180  177.1450  138.9350 C   0  0  0  0  0  1  0  0  0  0  0  0
  185.7230  175.9140  137.1320 C   0  0  0  0  0  0  0  0  0  0  0  0
  184.3060  177.6570  138.0750 C   0  0  0  0  0  3  0  0  0  0  0  0
  184.6970  174.9860  137.3760 C   0  0  0  0  0  3  0  0  0  0  0  0
  186.9760  175.5060  136.5250 N   0  0  0  0  0  0  0  0  0  0  0  0
  187.6890  177.8740  136.3610 C   0  0  0  0  0  2  0  0  0  0  0  0
  186.5850  178.3050  137.3230 C   0  0  0  0  0  2  0  0  0  0  0  0
  185.9240  174.1630  134.8990 O   0  0  0  0  0  1  0  0  0  0  0  0
  188.1510  174.4890  134.7330 O   0  0  0  0  0  1  0  0  0  0  0  0
  187.0980  174.3270  135.6380 C   0  0  0  0  0  0  0  0  0  0  0  0
  187.3020  173.0520  136.4620 C   0  0  0  0  0  2  0  0  0  0  0  0
  187.7300  171.8570  135.6250 C   0  0  0  0  0  1  0  0  0  0  0  0
  190.1430  175.2410  137.5420 C   0  0  0  0  0  2  0  0  0  0  0  0
  193.5480  176.4880  136.7510 C   0  0  0  0  0  2  0  0  0  0  0  0
  193.6640  175.9830  135.3130 C   0  0  0  0  0  0  0  0  0  0  0  0
  194.5450  176.7900  134.6210 F   0  0  0  0  0  0  0  0  0  0  0  0
  191.2510  175.3140  135.4740 C   0  0  0  0  0  2  0  0  0  0  0  0
  192.4260  175.7510  137.4850 C   0  0  0  0  0  2  0  0  0  0  0  0
  191.1600  175.9550  136.7860 N   0  0  0  0  0  0  0  0  0  0  0  0
  194.1480  174.6870  135.3120 F   0  0  0  0  0  0  0  0  0  0  0  0
  192.3010  176.0240  134.6210 C   0  0  0  0  0  2  0  0  0  0  0  0
  189.4720  177.4390  138.5240 C   0  0  0  0  0  2  0  0  0  0  0  0
  190.0640  177.1330  139.8910 C   0  0  0  0  0  2  0  0  0  0  0  0
  189.2700  176.9510  142.3430 C   0  0  0  0  0  0  0  0  0  0  0  0
  188.0530  178.2740  140.7000 C   0  0  0  0  0  3  0  0  0  0  0  0
  188.2900  177.0370  143.1980 N   0  0  0  0  0  0  0  0  0  0  0  0
  186.9760  177.5700  142.8250 C   0  0  2  0  0  3  0  0  0  0  0  0
  187.1050  178.6900  141.7880 C   0  0  0  0  0  2  0  0  0  0  0  0
  189.1020  177.4910  140.9760 C   0  0  0  0  0  0  0  0  0  0  0  0
  190.4900  176.3720  142.7110 O   0  0  0  0  0  0  0  0  0  0  0  0
  191.6750  177.1320  142.9150 C   0  0  0  0  0  2  0  0  0  0  0  0
  191.3710  178.3740  143.7310 C   0  0  0  0  0  1  0  0  0  0  0  0
  186.1990  178.0190  144.0570 C   0  0  0  0  0  2  0  0  0  0  0  0
  186.5090  177.1570  145.2700 C   0  0  0  0  0  2  0  0  0  0  0  0
  186.9390  178.0410  146.4210 C   0  0  0  0  0  2  0  0  0  0  0  0
  188.7190  178.2060  148.1220 C   0  0  0  0  0  2  0  0  0  0  0  0
  188.4190  177.8490  146.6800 C   0  0  0  0  0  3  0  0  0  0  0  0
  188.6030  176.7550  147.7100 C   0  0  0  0  0  2  0  0  0  0  0  0
  1 18  1  6  0  0  0
  1 27  1  0  0  0  0
  2  6  1  0  0  0  0
  3  1  1  1  0  0  0
  4  8  2  0  0  0  0
  5  2  2  0  0  0  0
  7  9  2  0  0  0  0
  7  4  1  0  0  0  0
  8  2  1  0  0  0  0
  9  5  1  0  0  0  0
 10  3  1  0  0  0  0
 10  7  1  0  0  0  0
 11  3  1  0  0  0  0
 11 12  1  0  0  0  0
 12  4  1  0  0  0  0
 13 15  1  0  0  0  0
 14 15  1  0  0  0  0
 15 16  1  0  0  0  0
 15 10  1  0  0  0  0
 17 16  1  0  0  0  0
 19 23  1  0  0  0  0
 20 19  1  0  0  0  0
 21 20  1  0  0  0  0
 22 24  1  0  0  0  0
 24 23  1  0  0  0  0
 24 18  1  0  0  0  0
 25 20  1  0  0  0  0
 26 20  1  0  0  0  0
 26 22  1  0  0  0  0
 27 28  1  0  0  0  0
 28 34  1  0  0  0  0
 29 35  1  0  0  0  0
 29 31  2  0  0  0  0
 30 34  2  0  0  0  0
 30 33  1  0  0  0  0
 32 31  1  0  0  0  0
 32 38  1  1  0  0  0
 33 32  1  0  0  0  0
 34 29  1  0  0  0  0
 35 36  1  0  0  0  0
 36 37  1  0  0  0  0
 38 39  1  0  0  0  0
 39 40  1  0  0  0  0
 40 42  1  0  0  0  0
 42 43  1  0  0  0  0
 42 41  1  0  0  0  0
 43 41  1  0  0  0  0
M  END
>  <MODEL>
7

>  <REMARK>
 VINA RESULT:      -7.1      3.042      5.315
  Name = 
  14 active torsions:
  status: ('A' for Active; 'I' for Inactive)
    1  A    between atoms: C_1  and  C_34
    2  A    between atoms: C_1  and  N_35
    3  A    between atoms: C_2  and  C_27
    4  A    between atoms: O_3  and  C_4
    5  A    between atoms: O_3  and  C_12
    6  A    between atoms: C_8  and  C_34
    7  A    between atoms: C_11  and  C_22
    8  A    between atoms: C_11  and  C_36
    9  A    between atoms: C_15  and  C_38
   10  A    between atoms: C_15  and  C_42
   11  A    between atoms: C_27  and  N_30
   12  A    between atoms: C_29  and  C_31
   13  A    between atoms: C_29  and  C_36
   14  A    between atoms: C_34  and  C_38
                            x       y       z     vdW  Elec       q    Type
                         _______ _______ _______ _____ _____    ______ ____

>  <TORSDO>
F 14

$$$$
=
 OpenBabel10262422153D

 43 47  0  0  1  0  0  0  0  0999 V2000
  188.9620  177.4530  139.9250 C   0  0  1  0  0  3  0  0  0  0  0  0
  185.6850  174.5490  136.2390 C   0  0  0  0  0  0  0  0  0  0  0  0
  189.1940  177.5870  138.4100 C   0  0  1  0  0  3  0  0  0  0  0  0
  186.8970  176.4770  137.0710 C   0  0  0  0  0  0  0  0  0  0  0  0
  186.8240  173.7610  136.3920 C   0  0  0  0  0  3  0  0  0  0  0  0
  184.4290  173.9480  135.7170 C   0  0  0  0  0  1  0  0  0  0  0  0
  188.0570  175.6850  137.2390 C   0  0  0  0  0  0  0  0  0  0  0  0
  185.7200  175.9020  136.5850 C   0  0  0  0  0  3  0  0  0  0  0  0
  188.0000  174.3260  136.8880 C   0  0  0  0  0  3  0  0  0  0  0  0
  189.2760  176.2780  137.7540 N   0  0  0  0  0  0  0  0  0  0  0  0
  188.2440  178.5290  137.6630 C   0  0  0  0  0  2  0  0  0  0  0  0
  186.8540  177.9180  137.4950 C   0  0  0  0  0  2  0  0  0  0  0  0
  191.5770  176.7590  137.5920 O   0  0  0  0  0  1  0  0  0  0  0  0
  190.9660  174.7150  138.3270 O   0  0  0  0  0  1  0  0  0  0  0  0
  190.6250  175.7470  137.4490 C   0  0  0  0  0  0  0  0  0  0  0  0
  190.6950  175.2540  136.0010 C   0  0  0  0  0  2  0  0  0  0  0  0
  190.5960  176.3740  134.9780 C   0  0  0  0  0  1  0  0  0  0  0  0
  190.2520  177.1040  140.6530 C   0  0  0  0  0  2  0  0  0  0  0  0
  189.6880  176.4050  144.2540 C   0  0  0  0  0  2  0  0  0  0  0  0
  190.9580  177.0350  144.8260 C   0  0  0  0  0  0  0  0  0  0  0  0
  190.7210  177.4250  146.1290 F   0  0  0  0  0  0  0  0  0  0  0  0
  191.4280  177.9060  142.5200 C   0  0  0  0  0  2  0  0  0  0  0  0
  189.8480  176.1550  142.7530 C   0  0  0  0  0  2  0  0  0  0  0  0
  190.1260  177.4150  142.0690 N   0  0  0  0  0  0  0  0  0  0  0  0
  191.9840  176.1070  144.8150 F   0  0  0  0  0  0  0  0  0  0  0  0
  191.3640  178.2600  144.0050 C   0  0  0  0  0  2  0  0  0  0  0  0
  188.3120  178.6770  140.5560 C   0  0  0  0  0  2  0  0  0  0  0  0
  187.4810  178.2860  141.7680 C   0  0  0  0  0  2  0  0  0  0  0  0
  185.0360  178.3570  142.5990 C   0  0  0  0  0  0  0  0  0  0  0  0
  185.6240  178.9190  140.3030 C   0  0  0  0  0  3  0  0  0  0  0  0
  183.7660  178.3150  142.3060 N   0  0  0  0  0  0  0  0  0  0  0  0
  183.2840  178.3540  140.9220 C   0  0  2  0  0  3  0  0  0  0  0  0
  184.1790  179.2400  140.0480 C   0  0  0  0  0  2  0  0  0  0  0  0
  186.0310  178.5480  141.5210 C   0  0  0  0  0  0  0  0  0  0  0  0
  185.4670  178.2450  143.9250 O   0  0  0  0  0  0  0  0  0  0  0  0
  184.6890  178.6870  145.0300 C   0  0  0  0  0  2  0  0  0  0  0  0
  185.4940  178.5910  146.3130 C   0  0  0  0  0  1  0  0  0  0  0  0
  181.8240  178.7850  140.8640 C   0  0  0  0  0  2  0  0  0  0  0  0
  180.9070  177.6360  140.4710 C   0  0  0  0  0  2  0  0  0  0  0  0
  181.7260  176.5310  139.8410 C   0  0  0  0  0  2  0  0  0  0  0  0
  181.7350  174.9180  137.9730 C   0  0  0  0  0  2  0  0  0  0  0  0
  181.2230  176.2660  138.4370 C   0  0  0  0  0  3  0  0  0  0  0  0
  180.3090  175.0600  138.4570 C   0  0  0  0  0  2  0  0  0  0  0  0
  1 27  1  1  0  0  0
  1 18  1  0  0  0  0
  2  5  2  0  0  0  0
  2  8  1  0  0  0  0
  3  1  1  1  0  0  0
  4  7  1  0  0  0  0
  4 12  1  0  0  0  0
  5  9  1  0  0  0  0
  6  2  1  0  0  0  0
  7 10  1  0  0  0  0
  8  4  2  0  0  0  0
  9  7  2  0  0  0  0
 10  3  1  0  0  0  0
 11  3  1  0  0  0  0
 12 11  1  0  0  0  0
 15 13  1  0  0  0  0
 15 10  1  0  0  0  0
 15 14  1  0  0  0  0
 16 15  1  0  0  0  0
 17 16  1  0  0  0  0
 18 24  1  0  0  0  0
 19 20  1  0  0  0  0
 20 21  1  0  0  0  0
 22 26  1  0  0  0  0
 23 19  1  0  0  0  0
 24 22  1  0  0  0  0
 24 23  1  0  0  0  0
 25 20  1  0  0  0  0
 26 20  1  0  0  0  0
 27 28  1  0  0  0  0
 29 35  1  0  0  0  0
 30 34  2  0  0  0  0
 31 29  2  0  0  0  0
 32 38  1  1  0  0  0
 32 31  1  0  0  0  0
 33 30  1  0  0  0  0
 33 32  1  0  0  0  0
 34 28  1  0  0  0  0
 34 29  1  0  0  0  0
 35 36  1  0  0  0  0
 36 37  1  0  0  0  0
 39 38  1  0  0  0  0
 40 39  1  0  0  0  0
 41 42  1  0  0  0  0
 41 43  1  0  0  0  0
 42 43  1  0  0  0  0
 42 40  1  0  0  0  0
M  END
>  <MODEL>
8

>  <REMARK>
 VINA RESULT:      -7.0      1.673      4.312
  Name = 
  14 active torsions:
  status: ('A' for Active; 'I' for Inactive)
    1  A    between atoms: C_1  and  C_34
    2  A    between atoms: C_1  and  N_35
    3  A    between atoms: C_2  and  C_27
    4  A    between atoms: O_3  and  C_4
    5  A    between atoms: O_3  and  C_12
    6  A    between atoms: C_8  and  C_34
    7  A    between atoms: C_11  and  C_22
    8  A    between atoms: C_11  and  C_36
    9  A    between atoms: C_15  and  C_38
   10  A    between atoms: C_15  and  C_42
   11  A    between atoms: C_27  and  N_30
   12  A    between atoms: C_29  and  C_31
   13  A    between atoms: C_29  and  C_36
   14  A    between atoms: C_34  and  C_38
                            x       y       z     vdW  Elec       q    Type
                         _______ _______ _______ _____ _____    ______ ____

>  <TORSDO>
F 14

$$$$
=
 OpenBabel10262422153D

 43 47  0  0  1  0  0  0  0  0999 V2000
  190.1940  177.6140  142.4050 C   0  0  1  0  0  3  0  0  0  0  0  0
  186.4430  178.2780  146.6770 C   0  0  0  0  0  0  0  0  0  0  0  0
  189.9530  176.4730  143.4090 C   0  0  1  0  0  3  0  0  0  0  0  0
  187.5520  177.0910  144.8770 C   0  0  0  0  0  0  0  0  0  0  0  0
  187.6790  178.5810  147.2440 C   0  0  0  0  0  3  0  0  0  0  0  0
  185.1910  178.7470  147.3270 C   0  0  0  0  0  1  0  0  0  0  0  0
  188.8130  177.4010  145.4390 C   0  0  0  0  0  0  0  0  0  0  0  0
  186.3810  177.5410  145.4920 C   0  0  0  0  0  3  0  0  0  0  0  0
  188.8540  178.1460  146.6290 C   0  0  0  0  0  3  0  0  0  0  0  0
  190.0300  176.9440  144.7960 N   0  0  0  0  0  0  0  0  0  0  0  0
  188.7010  175.6220  143.1750 C   0  0  0  0  0  2  0  0  0  0  0  0
  187.4270  176.3660  143.5670 C   0  0  0  0  0  2  0  0  0  0  0  0
  192.0500  175.7330  144.8770 O   0  0  0  0  0  1  0  0  0  0  0  0
  192.0620  177.8740  145.5900 O   0  0  0  0  0  1  0  0  0  0  0  0
  191.2940  176.7090  145.5310 C   0  0  0  0  0  0  0  0  0  0  0  0
  191.0070  176.1940  146.9450 C   0  0  0  0  0  2  0  0  0  0  0  0
  192.2450  175.6730  147.6580 C   0  0  0  0  0  1  0  0  0  0  0  0
  191.5830  177.5260  141.7900 C   0  0  0  0  0  2  0  0  0  0  0  0
  192.8160  177.1350  138.3120 C   0  0  0  0  0  2  0  0  0  0  0  0
  191.9200  175.9800  137.8650 C   0  0  0  0  0  0  0  0  0  0  0  0
  191.7630  176.0350  136.4940 F   0  0  0  0  0  0  0  0  0  0  0  0
  190.6970  176.2370  140.0400 C   0  0  0  0  0  2  0  0  0  0  0  0
  192.8390  177.2290  139.8380 C   0  0  0  0  0  2  0  0  0  0  0  0
  191.4830  177.4330  140.3420 N   0  0  0  0  0  0  0  0  0  0  0  0
  192.5100  174.7750  138.2010 F   0  0  0  0  0  0  0  0  0  0  0  0
  190.5460  176.0820  138.5280 C   0  0  0  0  0  2  0  0  0  0  0  0
  189.1370  177.7020  141.3130 C   0  0  0  0  0  2  0  0  0  0  0  0
  188.3520  179.0000  141.4200 C   0  0  0  0  0  2  0  0  0  0  0  0
  186.6140  178.5350  139.5660 C   0  0  0  0  0  0  0  0  0  0  0  0
  185.9490  178.9020  141.8790 C   0  0  0  0  0  3  0  0  0  0  0  0
  185.3820  178.6400  139.1520 N   0  0  0  0  0  0  0  0  0  0  0  0
  184.3040  179.1090  140.0280 C   0  0  2  0  0  3  0  0  0  0  0  0
  184.5240  178.6510  141.4740 C   0  0  0  0  0  2  0  0  0  0  0  0
  186.9370  178.8000  140.9850 C   0  0  0  0  0  0  0  0  0  0  0  0
  187.6330  178.1530  138.6860 O   0  0  0  0  0  0  0  0  0  0  0  0
  187.6310  178.4970  137.3060 C   0  0  0  0  0  2  0  0  0  0  0  0
  189.0050  178.9820  136.8820 C   0  0  0  0  0  1  0  0  0  0  0  0
  182.9420  178.6810  139.4950 C   0  0  0  0  0  2  0  0  0  0  0  0
  181.8410  178.8790  140.5240 C   0  0  0  0  0  2  0  0  0  0  0  0
  180.9800  177.6360  140.5890 C   0  0  0  0  0  2  0  0  0  0  0  0
  180.7770  175.2930  139.8440 C   0  0  0  0  0  2  0  0  0  0  0  0
  181.5250  176.5930  139.6350 C   0  0  0  0  0  3  0  0  0  0  0  0
  180.4320  176.1850  138.6710 C   0  0  0  0  0  2  0  0  0  0  0  0
  1 27  1  6  0  0  0
  2  5  1  0  0  0  0
  2  6  1  0  0  0  0
  3  1  1  6  0  0  0
  3 10  1  0  0  0  0
  4  7  2  0  0  0  0
  4  8  1  0  0  0  0
  7  9  1  0  0  0  0
  8  2  2  0  0  0  0
  9  5  2  0  0  0  0
 10  7  1  0  0  0  0
 10 15  1  0  0  0  0
 11  3  1  0  0  0  0
 11 12  1  0  0  0  0
 12  4  1  0  0  0  0
 13 15  1  0  0  0  0
 15 14  1  0  0  0  0
 15 16  1  0  0  0  0
 16 17  1  0  0  0  0
 18  1  1  0  0  0  0
 19 23  1  0  0  0  0
 20 25  1  0  0  0  0
 20 19  1  0  0  0  0
 20 26  1  0  0  0  0
 21 20  1  0  0  0  0
 22 24  1  0  0  0  0
 23 24  1  0  0  0  0
 24 18  1  0  0  0  0
 26 22  1  0  0  0  0
 27 28  1  0  0  0  0
 29 34  1  0  0  0  0
 31 29  2  0  0  0  0
 31 32  1  0  0  0  0
 32 38  1  6  0  0  0
 32 33  1  0  0  0  0
 33 30  1  0  0  0  0
 34 28  1  0  0  0  0
 34 30  2  0  0  0  0
 35 29  1  0  0  0  0
 36 35  1  0  0  0  0
 37 36  1  0  0  0  0
 38 39  1  0  0  0  0
 39 40  1  0  0  0  0
 42 41  1  0  0  0  0
 42 40  1  0  0  0  0
 43 42  1  0  0  0  0
 43 41  1  0  0  0  0
M  END
>  <MODEL>
9

>  <REMARK>
 VINA RESULT:      -6.9      3.005      7.423
  Name = 
  14 active torsions:
  status: ('A' for Active; 'I' for Inactive)
    1  A    between atoms: C_1  and  C_34
    2  A    between atoms: C_1  and  N_35
    3  A    between atoms: C_2  and  C_27
    4  A    between atoms: O_3  and  C_4
    5  A    between atoms: O_3  and  C_12
    6  A    between atoms: C_8  and  C_34
    7  A    between atoms: C_11  and  C_22
    8  A    between atoms: C_11  and  C_36
    9  A    between atoms: C_15  and  C_38
   10  A    between atoms: C_15  and  C_42
   11  A    between atoms: C_27  and  N_30
   12  A    between atoms: C_29  and  C_31
   13  A    between atoms: C_29  and  C_36
   14  A    between atoms: C_34  and  C_38
                            x       y       z     vdW  Elec       q    Type
                         _______ _______ _______ _____ _____    ______ ____

>  <TORSDO>
F 14

$$$$
