=
 OpenBabel10262420103D

 27 31  0  0  0  0  0  0  0  0999 V2000
  188.1380  177.3400  143.3890 C   0  0  0  0  0  3  0  0  0  0  0  0
  185.9770  178.3810  144.1130 C   0  0  0  0  0  0  0  0  0  0  0  0
  186.2060  178.7880  141.6110 C   0  0  0  0  0  3  0  0  0  0  0  0
  181.7930  178.9260  143.5940 C   0  0  0  0  0  3  0  0  0  0  0  0
  179.8320  178.9130  142.1910 O   0  0  0  0  0  1  0  0  0  0  0  0
  185.0800  178.7320  145.2440 C   0  0  0  0  0  3  0  0  0  0  0  0
  182.0070  178.5480  141.2140 C   0  0  0  0  0  3  0  0  0  0  0  0
  189.3000  178.5260  138.2990 O   0  0  0  0  0  0  0  0  0  0  0  0
  183.3920  178.4320  141.3560 C   0  0  0  0  0  3  0  0  0  0  0  0
  188.9770  178.2020  139.4710 C   0  0  0  0  0  0  0  0  0  0  0  0
  183.9960  178.5640  142.6200 C   0  0  0  0  0  0  0  0  0  0  0  0
  187.2030  177.8830  144.3890 C   0  0  0  0  0  0  0  0  0  0  0  0
  181.2080  178.7970  142.3330 C   0  0  0  0  0  0  0  0  0  0  0  0
  183.1780  178.8070  143.7400 C   0  0  0  0  0  0  0  0  0  0  0  0
  188.2580  177.5530  142.0810 C   0  0  0  0  0  0  0  0  0  0  0  0
  185.4320  178.4630  142.7760 N   0  0  0  0  0  0  0  0  0  0  0  0
  187.8400  178.6980  140.0240 N   0  0  0  0  0  2  0  0  0  0  0  0
  183.7790  178.9370  145.0680 C   0  0  0  0  0  3  0  0  0  0  0  0
  189.7700  177.3190  140.1930 C   0  0  0  0  0  3  0  0  0  0  0  0
  189.4060  177.0050  141.5000 C   0  0  0  0  0  3  0  0  0  0  0  0
  187.4320  178.3820  141.2870 C   0  0  0  0  0  0  0  0  0  0  0  0
  188.6690  177.6180  148.4140 C   0  0  0  0  0  3  0  0  0  0  0  0
  187.6960  177.7710  145.7860 C   0  0  0  0  0  0  0  0  0  0  0  0
  186.9410  178.2800  146.8550 C   0  0  0  0  0  3  0  0  0  0  0  0
  187.4230  178.1990  148.1630 C   0  0  0  0  0  3  0  0  0  0  0  0
  189.4340  177.1220  147.3560 C   0  0  0  0  0  3  0  0  0  0  0  0
  188.9520  177.2010  146.0470 C   0  0  0  0  0  3  0  0  0  0  0  0
  1 12  1  0  0  0  0
  2 12  2  0  0  0  0
  2  6  1  0  0  0  0
  3 16  1  0  0  0  0
  4 14  1  0  0  0  0
  5 13  1  0  0  0  0
  7  9  2  0  0  0  0
  7 13  1  0  0  0  0
  8 10  2  0  0  0  0
  9 11  1  0  0  0  0
 10 17  1  0  0  0  0
 10 19  1  0  0  0  0
 11 16  1  0  0  0  0
 11 14  2  0  0  0  0
 12 23  1  0  0  0  0
 13  4  2  0  0  0  0
 14 18  1  0  0  0  0
 15  1  2  0  0  0  0
 16  2  1  0  0  0  0
 17 21  1  0  0  0  0
 18  6  2  0  0  0  0
 19 20  2  0  0  0  0
 20 15  1  0  0  0  0
 21  3  2  0  0  0  0
 21 15  1  0  0  0  0
 23 27  2  0  0  0  0
 23 24  1  0  0  0  0
 24 25  2  0  0  0  0
 25 22  1  0  0  0  0
 26 22  2  0  0  0  0
 27 26  1  0  0  0  0
M  END
>  <MODEL>
1

>  <REMARK>
 VINA RESULT:     -12.4      0.000      0.000
  Name = 
  1 active torsions:
  status: ('A' for Active; 'I' for Inactive)
    1  A    between atoms: C_9  and  C_15
                            x       y       z     vdW  Elec       q    Type
                         _______ _______ _______ _____ _____    ______ ____

>  <TORSDO>
F 1

$$$$
=
 OpenBabel10262420103D

 27 31  0  0  0  0  0  0  0  0999 V2000
  189.3230  176.9340  142.5930 C   0  0  0  0  0  3  0  0  0  0  0  0
  187.4790  177.9720  143.9340 C   0  0  0  0  0  0  0  0  0  0  0  0
  187.1270  178.6650  141.5100 C   0  0  0  0  0  3  0  0  0  0  0  0
  183.3420  178.7520  144.5250 C   0  0  0  0  0  3  0  0  0  0  0  0
  181.1050  178.9900  143.6560 O   0  0  0  0  0  1  0  0  0  0  0  0
  186.9070  178.2240  145.2820 C   0  0  0  0  0  3  0  0  0  0  0  0
  182.9500  178.6510  142.1400 C   0  0  0  0  0  3  0  0  0  0  0  0
  189.3070  178.6690  137.5280 O   0  0  0  0  0  0  0  0  0  0  0  0
  184.3170  178.4610  141.9230 C   0  0  0  0  0  3  0  0  0  0  0  0
  189.2540  178.2210  138.7030 C   0  0  0  0  0  0  0  0  0  0  0  0
  185.2150  178.4160  143.0050 C   0  0  0  0  0  0  0  0  0  0  0  0
  188.6980  177.3930  143.8440 C   0  0  0  0  0  0  0  0  0  0  0  0
  182.4630  178.7990  143.4410 C   0  0  0  0  0  0  0  0  0  0  0  0
  184.7090  178.5580  144.3110 C   0  0  0  0  0  0  0  0  0  0  0  0
  189.1400  177.2970  141.3260 C   0  0  0  0  0  0  0  0  0  0  0  0
  186.6360  178.2370  142.7890 N   0  0  0  0  0  0  0  0  0  0  0  0
  188.3210  178.6950  139.5680 N   0  0  0  0  0  2  0  0  0  0  0  0
  185.6200  178.5030  145.4550 C   0  0  0  0  0  3  0  0  0  0  0  0
  190.1330  177.2250  139.1090 C   0  0  0  0  0  3  0  0  0  0  0  0
  190.0730  176.7740  140.4250 C   0  0  0  0  0  3  0  0  0  0  0  0
  188.2080  178.2490  140.8520 C   0  0  0  0  0  0  0  0  0  0  0  0
  191.0480  176.6010  147.3470 C   0  0  0  0  0  3  0  0  0  0  0  0
  189.5030  177.0950  145.0570 C   0  0  0  0  0  0  0  0  0  0  0  0
  188.9070  177.0860  146.3290 C   0  0  0  0  0  3  0  0  0  0  0  0
  189.6760  176.8360  147.4670 C   0  0  0  0  0  3  0  0  0  0  0  0
  191.6520  176.6210  146.0880 C   0  0  0  0  0  3  0  0  0  0  0  0
  190.8840  176.8720  144.9480 C   0  0  0  0  0  3  0  0  0  0  0  0
  1 12  1  0  0  0  0
  2  6  1  0  0  0  0
  3 16  1  0  0  0  0
  6 18  2  0  0  0  0
  7 13  1  0  0  0  0
  8 10  2  0  0  0  0
  9  7  2  0  0  0  0
  9 11  1  0  0  0  0
 10 19  1  0  0  0  0
 10 17  1  0  0  0  0
 11 14  2  0  0  0  0
 12  2  2  0  0  0  0
 12 23  1  0  0  0  0
 13  5  1  0  0  0  0
 13  4  2  0  0  0  0
 14  4  1  0  0  0  0
 14 18  1  0  0  0  0
 15  1  2  0  0  0  0
 16 11  1  0  0  0  0
 16  2  1  0  0  0  0
 17 21  1  0  0  0  0
 19 20  2  0  0  0  0
 20 15  1  0  0  0  0
 21 15  1  0  0  0  0
 21  3  2  0  0  0  0
 22 25  1  0  0  0  0
 23 24  1  0  0  0  0
 24 25  2  0  0  0  0
 26 22  2  0  0  0  0
 27 23  2  0  0  0  0
 27 26  1  0  0  0  0
M  END
>  <MODEL>
2

>  <REMARK>
 VINA RESULT:     -12.3      1.135      1.701
  Name = 
  1 active torsions:
  status: ('A' for Active; 'I' for Inactive)
    1  A    between atoms: C_9  and  C_15
                            x       y       z     vdW  Elec       q    Type
                         _______ _______ _______ _____ _____    ______ ____

>  <TORSDO>
F 1

$$$$
=
 OpenBabel10262420103D

 27 31  0  0  0  0  0  0  0  0999 V2000
  187.1840  178.5210  141.3080 C   0  0  0  0  0  3  0  0  0  0  0  0
  187.4250  177.6070  143.6280 C   0  0  0  0  0  0  0  0  0  0  0  0
  189.4270  176.7880  142.2850 C   0  0  0  0  0  3  0  0  0  0  0  0
  189.7790  176.9650  147.1090 C   0  0  0  0  0  3  0  0  0  0  0  0
  191.9300  176.7350  148.1770 O   0  0  0  0  0  1  0  0  0  0  0  0
  186.8180  177.4460  144.9740 C   0  0  0  0  0  3  0  0  0  0  0  0
  191.7990  176.9410  145.7780 C   0  0  0  0  0  3  0  0  0  0  0  0
  190.8710  176.5050  137.9910 O   0  0  0  0  0  0  0  0  0  0  0  0
  191.0360  177.0850  144.6160 C   0  0  0  0  0  3  0  0  0  0  0  0
  190.0560  177.0200  138.7990 C   0  0  0  0  0  0  0  0  0  0  0  0
  189.6330  177.1680  144.6860 C   0  0  0  0  0  0  0  0  0  0  0  0
  186.6790  178.1490  142.6390 C   0  0  0  0  0  0  0  0  0  0  0  0
  191.1710  176.8790  147.0230 C   0  0  0  0  0  0  0  0  0  0  0  0
  189.0140  177.1120  145.9490 C   0  0  0  0  0  0  0  0  0  0  0  0
  188.2300  178.0930  140.6060 C   0  0  0  0  0  0  0  0  0  0  0  0
  188.8320  177.2990  143.4870 N   0  0  0  0  0  0  0  0  0  0  0  0
  190.0410  176.6190  140.0960 N   0  0  0  0  0  2  0  0  0  0  0  0
  187.5570  177.2090  146.0520 C   0  0  0  0  0  3  0  0  0  0  0  0
  189.1860  178.0140  138.3720 C   0  0  0  0  0  3  0  0  0  0  0  0
  188.2710  178.5410  139.2810 C   0  0  0  0  0  3  0  0  0  0  0  0
  189.1870  177.1390  141.0230 C   0  0  0  0  0  0  0  0  0  0  0  0
  182.5360  179.0770  143.2720 C   0  0  0  0  0  3  0  0  0  0  0  0
  185.2500  178.4950  142.8520 C   0  0  0  0  0  0  0  0  0  0  0  0
  184.8280  179.0970  144.0480 C   0  0  0  0  0  3  0  0  0  0  0  0
  183.4780  179.3920  144.2540 C   0  0  0  0  0  3  0  0  0  0  0  0
  182.9430  178.4650  142.0840 C   0  0  0  0  0  3  0  0  0  0  0  0
  184.2940  178.1710  141.8770 C   0  0  0  0  0  3  0  0  0  0  0  0
  1 12  1  0  0  0  0
  2  6  1  0  0  0  0
  3 16  1  0  0  0  0
  6 18  2  0  0  0  0
  7 13  2  0  0  0  0
  8 10  2  0  0  0  0
  9 11  2  0  0  0  0
  9  7  1  0  0  0  0
 10 17  1  0  0  0  0
 11 14  1  0  0  0  0
 12 23  1  0  0  0  0
 12  2  2  0  0  0  0
 13  4  1  0  0  0  0
 13  5  1  0  0  0  0
 14 18  1  0  0  0  0
 14  4  2  0  0  0  0
 15 21  1  0  0  0  0
 15  1  2  0  0  0  0
 16  2  1  0  0  0  0
 16 11  1  0  0  0  0
 17 21  1  0  0  0  0
 19 10  1  0  0  0  0
 19 20  2  0  0  0  0
 20 15  1  0  0  0  0
 21  3  2  0  0  0  0
 22 25  1  0  0  0  0
 23 24  1  0  0  0  0
 24 25  2  0  0  0  0
 26 22  2  0  0  0  0
 27 26  1  0  0  0  0
 27 23  2  0  0  0  0
M  END
>  <MODEL>
3

>  <REMARK>
 VINA RESULT:     -12.0      2.751      6.095
  Name = 
  1 active torsions:
  status: ('A' for Active; 'I' for Inactive)
    1  A    between atoms: C_9  and  C_15
                            x       y       z     vdW  Elec       q    Type
                         _______ _______ _______ _____ _____    ______ ____

>  <TORSDO>
F 1

$$$$
=
 OpenBabel10262420103D

 27 31  0  0  0  0  0  0  0  0999 V2000
  187.2760  177.3010  144.8970 C   0  0  0  0  0  3  0  0  0  0  0  0
  187.4570  178.1080  142.5320 C   0  0  0  0  0  0  0  0  0  0  0  0
  189.8290  177.7960  143.4040 C   0  0  0  0  0  3  0  0  0  0  0  0
  189.0820  177.7240  138.6220 C   0  0  0  0  0  3  0  0  0  0  0  0
  190.8170  176.9510  137.1360 O   0  0  0  0  0  1  0  0  0  0  0  0
  186.7470  178.6100  141.3280 C   0  0  0  0  0  3  0  0  0  0  0  0
  191.0860  176.7080  139.5200 C   0  0  0  0  0  3  0  0  0  0  0  0
  192.0560  177.1280  147.3030 O   0  0  0  0  0  0  0  0  0  0  0  0
  190.5960  176.8870  140.8170 C   0  0  0  0  0  3  0  0  0  0  0  0
  190.9510  177.1100  146.7010 C   0  0  0  0  0  0  0  0  0  0  0  0
  189.3430  177.4900  141.0330 C   0  0  0  0  0  0  0  0  0  0  0  0
  186.7570  177.9390  143.6760 C   0  0  0  0  0  0  0  0  0  0  0  0
  190.3300  177.1280  138.4240 C   0  0  0  0  0  0  0  0  0  0  0  0
  188.5890  177.9010  139.9180 C   0  0  0  0  0  0  0  0  0  0  0  0
  188.5150  177.1390  145.3530 C   0  0  0  0  0  0  0  0  0  0  0  0
  188.8350  177.6960  142.3730 N   0  0  0  0  0  0  0  0  0  0  0  0
  190.8720  177.5360  145.4140 N   0  0  0  0  0  2  0  0  0  0  0  0
  187.2770  178.5200  140.1130 C   0  0  0  0  0  3  0  0  0  0  0  0
  189.8150  176.6330  147.3430 C   0  0  0  0  0  3  0  0  0  0  0  0
  188.6000  176.6580  146.6640 C   0  0  0  0  0  3  0  0  0  0  0  0
  189.7070  177.5380  144.7040 C   0  0  0  0  0  0  0  0  0  0  0  0
  182.6080  179.0030  143.9510 C   0  0  0  0  0  3  0  0  0  0  0  0
  185.3270  178.3320  143.7710 C   0  0  0  0  0  0  0  0  0  0  0  0
  184.7640  178.6970  145.0050 C   0  0  0  0  0  3  0  0  0  0  0  0
  183.4120  179.0350  145.0930 C   0  0  0  0  0  3  0  0  0  0  0  0
  183.1540  178.6280  142.7220 C   0  0  0  0  0  3  0  0  0  0  0  0
  184.5080  178.2890  142.6320 C   0  0  0  0  0  3  0  0  0  0  0  0
  1 15  2  0  0  0  0
  2 12  2  0  0  0  0
  3 21  2  0  0  0  0
  4 14  1  0  0  0  0
  5 13  1  0  0  0  0
  6  2  1  0  0  0  0
  7  9  2  0  0  0  0
  9 11  1  0  0  0  0
 10  8  2  0  0  0  0
 10 19  1  0  0  0  0
 11 16  1  0  0  0  0
 12 23  1  0  0  0  0
 12  1  1  0  0  0  0
 13  4  2  0  0  0  0
 13  7  1  0  0  0  0
 14 18  1  0  0  0  0
 14 11  2  0  0  0  0
 15 20  1  0  0  0  0
 16  2  1  0  0  0  0
 16  3  1  0  0  0  0
 17 10  1  0  0  0  0
 18  6  2  0  0  0  0
 20 19  2  0  0  0  0
 21 15  1  0  0  0  0
 21 17  1  0  0  0  0
 22 25  1  0  0  0  0
 23 24  1  0  0  0  0
 24 25  2  0  0  0  0
 26 22  2  0  0  0  0
 27 26  1  0  0  0  0
 27 23  2  0  0  0  0
M  END
>  <MODEL>
4

>  <REMARK>
 VINA RESULT:     -11.4      2.795      6.493
  Name = 
  1 active torsions:
  status: ('A' for Active; 'I' for Inactive)
    1  A    between atoms: C_9  and  C_15
                            x       y       z     vdW  Elec       q    Type
                         _______ _______ _______ _____ _____    ______ ____

>  <TORSDO>
F 1

$$$$
=
 OpenBabel10262420103D

 27 31  0  0  0  0  0  0  0  0999 V2000
  186.7230  178.5640  141.2690 C   0  0  0  0  0  3  0  0  0  0  0  0
  186.4560  177.9310  143.6780 C   0  0  0  0  0  0  0  0  0  0  0  0
  188.7650  177.1470  142.9470 C   0  0  0  0  0  3  0  0  0  0  0  0
  187.9420  177.8760  147.6610 C   0  0  0  0  0  3  0  0  0  0  0  0
  189.7840  177.9510  149.2160 O   0  0  0  0  0  1  0  0  0  0  0  0
  185.5550  177.8650  144.8570 C   0  0  0  0  0  3  0  0  0  0  0  0
  190.2200  177.8830  146.8450 C   0  0  0  0  0  3  0  0  0  0  0  0
  191.2090  176.5270  139.1720 O   0  0  0  0  0  0  0  0  0  0  0  0
  189.7490  177.8330  145.5300 C   0  0  0  0  0  3  0  0  0  0  0  0
  190.1950  177.0530  139.7000 C   0  0  0  0  0  0  0  0  0  0  0  0
  188.3680  177.8020  145.2640 C   0  0  0  0  0  0  0  0  0  0  0  0
  185.9370  178.2960  142.4840 C   0  0  0  0  0  0  0  0  0  0  0  0
  189.3160  177.9030  147.9100 C   0  0  0  0  0  0  0  0  0  0  0  0
  187.4690  177.8300  146.3460 C   0  0  0  0  0  0  0  0  0  0  0  0
  187.9300  178.1540  140.8860 C   0  0  0  0  0  0  0  0  0  0  0  0
  187.8710  177.7330  143.9050 N   0  0  0  0  0  0  0  0  0  0  0  0
  189.8940  176.7950  140.9980 N   0  0  0  0  0  2  0  0  0  0  0  0
  186.0270  177.8110  146.0980 C   0  0  0  0  0  3  0  0  0  0  0  0
  189.3950  177.9170  138.9620 C   0  0  0  0  0  3  0  0  0  0  0  0
  188.2610  178.4570  139.5610 C   0  0  0  0  0  3  0  0  0  0  0  0
  188.8130  177.3370  141.6300 C   0  0  0  0  0  0  0  0  0  0  0  0
  181.7180  178.9220  142.0070 C   0  0  0  0  0  3  0  0  0  0  0  0
  184.4810  178.5380  142.3160 C   0  0  0  0  0  0  0  0  0  0  0  0
  183.7030  179.0030  143.3890 C   0  0  0  0  0  3  0  0  0  0  0  0
  182.3290  179.1990  143.2330 C   0  0  0  0  0  3  0  0  0  0  0  0
  182.4800  178.4460  140.9390 C   0  0  0  0  0  3  0  0  0  0  0  0
  183.8550  178.2500  141.0930 C   0  0  0  0  0  3  0  0  0  0  0  0
  1 12  1  0  0  0  0
  2 16  1  0  0  0  0
  2  6  1  0  0  0  0
  3 16  1  0  0  0  0
  4 13  1  0  0  0  0
  6 18  2  0  0  0  0
  7 13  2  0  0  0  0
  8 10  2  0  0  0  0
  9  7  1  0  0  0  0
 10 17  1  0  0  0  0
 11  9  2  0  0  0  0
 11 14  1  0  0  0  0
 12  2  2  0  0  0  0
 13  5  1  0  0  0  0
 14  4  2  0  0  0  0
 15  1  2  0  0  0  0
 15 21  1  0  0  0  0
 16 11  1  0  0  0  0
 17 21  1  0  0  0  0
 18 14  1  0  0  0  0
 19 20  2  0  0  0  0
 19 10  1  0  0  0  0
 20 15  1  0  0  0  0
 21  3  2  0  0  0  0
 22 25  1  0  0  0  0
 23 12  1  0  0  0  0
 23 24  1  0  0  0  0
 25 24  2  0  0  0  0
 26 27  1  0  0  0  0
 26 22  2  0  0  0  0
 27 23  2  0  0  0  0
M  END
>  <MODEL>
5

>  <REMARK>
 VINA RESULT:     -10.6      2.620      5.837
  Name = 
  1 active torsions:
  status: ('A' for Active; 'I' for Inactive)
    1  A    between atoms: C_9  and  C_15
                            x       y       z     vdW  Elec       q    Type
                         _______ _______ _______ _____ _____    ______ ____

>  <TORSDO>
F 1

$$$$
=
 OpenBabel10262420103D

 27 31  0  0  0  0  0  0  0  0999 V2000
  187.0560  177.5900  142.0320 C   0  0  0  0  0  3  0  0  0  0  0  0
  189.3510  177.6310  143.0350 C   0  0  0  0  0  0  0  0  0  0  0  0
  187.7090  178.2100  144.8920 C   0  0  0  0  0  3  0  0  0  0  0  0
  192.0560  176.4560  146.0970 C   0  0  0  0  0  3  0  0  0  0  0  0
  192.4810  175.7130  148.3520 O   0  0  0  0  0  1  0  0  0  0  0  0
  190.8150  177.5350  142.8020 C   0  0  0  0  0  3  0  0  0  0  0  0
  190.2390  176.3060  147.6880 C   0  0  0  0  0  3  0  0  0  0  0  0
  183.3600  179.3780  145.4690 O   0  0  0  0  0  0  0  0  0  0  0  0
  189.3460  176.7560  146.7120 C   0  0  0  0  0  3  0  0  0  0  0  0
  184.2320  178.8970  144.6990 C   0  0  0  0  0  0  0  0  0  0  0  0
  189.7980  177.0630  145.4150 C   0  0  0  0  0  0  0  0  0  0  0  0
  188.5240  177.6600  141.9650 C   0  0  0  0  0  0  0  0  0  0  0  0
  191.5940  176.1580  147.3810 C   0  0  0  0  0  0  0  0  0  0  0  0
  191.1640  176.9020  145.1180 C   0  0  0  0  0  0  0  0  0  0  0  0
  186.1970  177.8930  143.0020 C   0  0  0  0  0  0  0  0  0  0  0  0
  188.8830  177.5470  144.4010 N   0  0  0  0  0  0  0  0  0  0  0  0
  185.5330  178.8630  145.0840 N   0  0  0  0  0  2  0  0  0  0  0  0
  191.6580  177.2030  143.7740 C   0  0  0  0  0  3  0  0  0  0  0  0
  183.8610  178.3790  143.4640 C   0  0  0  0  0  3  0  0  0  0  0  0
  184.8510  177.8850  142.6190 C   0  0  0  0  0  3  0  0  0  0  0  0
  186.5250  178.3520  144.2990 C   0  0  0  0  0  0  0  0  0  0  0  0
  190.0180  177.7010  137.9420 C   0  0  0  0  0  3  0  0  0  0  0  0
  189.0560  177.6940  140.5790 C   0  0  0  0  0  0  0  0  0  0  0  0
  188.5730  178.6280  139.6470 C   0  0  0  0  0  3  0  0  0  0  0  0
  189.0560  178.6340  138.3370 C   0  0  0  0  0  3  0  0  0  0  0  0
  190.4950  176.7600  138.8560 C   0  0  0  0  0  3  0  0  0  0  0  0
  190.0130  176.7530  140.1680 C   0  0  0  0  0  3  0  0  0  0  0  0
  1 15  2  0  0  0  0
  2 16  1  0  0  0  0
  4 13  1  0  0  0  0
  6  2  1  0  0  0  0
  6 18  2  0  0  0  0
  9  7  1  0  0  0  0
 10 17  1  0  0  0  0
 10  8  2  0  0  0  0
 11  9  2  0  0  0  0
 12  1  1  0  0  0  0
 12  2  2  0  0  0  0
 13  7  2  0  0  0  0
 13  5  1  0  0  0  0
 14 11  1  0  0  0  0
 14  4  2  0  0  0  0
 15 21  1  0  0  0  0
 16  3  1  0  0  0  0
 16 11  1  0  0  0  0
 18 14  1  0  0  0  0
 19 10  1  0  0  0  0
 20 15  1  0  0  0  0
 20 19  2  0  0  0  0
 21  3  2  0  0  0  0
 21 17  1  0  0  0  0
 22 25  2  0  0  0  0
 22 26  1  0  0  0  0
 23 12  1  0  0  0  0
 24 23  2  0  0  0  0
 25 24  1  0  0  0  0
 26 27  2  0  0  0  0
 27 23  1  0  0  0  0
M  END
>  <MODEL>
6

>  <REMARK>
 VINA RESULT:     -10.4      2.843      7.645
  Name = 
  1 active torsions:
  status: ('A' for Active; 'I' for Inactive)
    1  A    between atoms: C_9  and  C_15
                            x       y       z     vdW  Elec       q    Type
                         _______ _______ _______ _____ _____    ______ ____

>  <TORSDO>
F 1

$$$$
=
 OpenBabel10262420103D

 27 31  0  0  0  0  0  0  0  0999 V2000
  187.7630  178.1990  145.4280 C   0  0  0  0  0  3  0  0  0  0  0  0
  189.0320  177.1840  143.5210 C   0  0  0  0  0  0  0  0  0  0  0  0
  186.6540  177.5920  142.7090 C   0  0  0  0  0  3  0  0  0  0  0  0
  190.1980  177.2270  139.4330 C   0  0  0  0  0  3  0  0  0  0  0  0
  189.8060  177.8770  137.1440 O   0  0  0  0  0  1  0  0  0  0  0  0
  190.3020  176.5690  143.0550 C   0  0  0  0  0  3  0  0  0  0  0  0
  188.1370  178.3370  138.8240 C   0  0  0  0  0  3  0  0  0  0  0  0
  182.5410  178.6280  144.3280 O   0  0  0  0  0  0  0  0  0  0  0  0
  187.7080  178.2710  140.1520 C   0  0  0  0  0  3  0  0  0  0  0  0
  183.7810  178.5820  144.5420 C   0  0  0  0  0  0  0  0  0  0  0  0
  188.5190  177.6800  141.1380 C   0  0  0  0  0  0  0  0  0  0  0  0
  188.8850  177.4500  144.8390 C   0  0  0  0  0  0  0  0  0  0  0  0
  189.3810  177.8130  138.4640 C   0  0  0  0  0  0  0  0  0  0  0  0
  189.7740  177.1630  140.7630 C   0  0  0  0  0  0  0  0  0  0  0  0
  186.5200  178.4120  145.0040 C   0  0  0  0  0  0  0  0  0  0  0  0
  188.0760  177.5910  142.5140 N   0  0  0  0  0  0  0  0  0  0  0  0
  184.6110  178.0410  143.6140 N   0  0  0  0  0  2  0  0  0  0  0  0
  190.6420  176.5540  141.7710 C   0  0  0  0  0  3  0  0  0  0  0  0
  184.3030  179.1060  145.7180 C   0  0  0  0  0  3  0  0  0  0  0  0
  185.6740  179.0100  145.9440 C   0  0  0  0  0  3  0  0  0  0  0  0
  185.9620  177.9660  143.7840 C   0  0  0  0  0  0  0  0  0  0  0  0
  191.9230  176.3660  147.6700 C   0  0  0  0  0  3  0  0  0  0  0  0
  189.9220  177.0550  145.8260 C   0  0  0  0  0  0  0  0  0  0  0  0
  189.8060  177.4270  147.1760 C   0  0  0  0  0  3  0  0  0  0  0  0
  190.7990  177.0790  148.0940 C   0  0  0  0  0  3  0  0  0  0  0  0
  192.0550  176.0030  146.3280 C   0  0  0  0  0  3  0  0  0  0  0  0
  191.0610  176.3500  145.4080 C   0  0  0  0  0  3  0  0  0  0  0  0
  2 12  2  0  0  0  0
  3 21  2  0  0  0  0
  4 14  1  0  0  0  0
  5 13  1  0  0  0  0
  6  2  1  0  0  0  0
  7  9  2  0  0  0  0
  8 10  2  0  0  0  0
  9 11  1  0  0  0  0
 10 19  1  0  0  0  0
 11 16  1  0  0  0  0
 12  1  1  0  0  0  0
 12 23  1  0  0  0  0
 13  7  1  0  0  0  0
 13  4  2  0  0  0  0
 14 11  2  0  0  0  0
 14 18  1  0  0  0  0
 15  1  2  0  0  0  0
 15 20  1  0  0  0  0
 16  3  1  0  0  0  0
 16  2  1  0  0  0  0
 17 21  1  0  0  0  0
 17 10  1  0  0  0  0
 18  6  2  0  0  0  0
 19 20  2  0  0  0  0
 21 15  1  0  0  0  0
 22 25  1  0  0  0  0
 23 24  1  0  0  0  0
 24 25  2  0  0  0  0
 26 22  2  0  0  0  0
 27 23  2  0  0  0  0
 27 26  1  0  0  0  0
M  END
>  <MODEL>
7

>  <REMARK>
 VINA RESULT:     -10.3      1.869      5.797
  Name = 
  1 active torsions:
  status: ('A' for Active; 'I' for Inactive)
    1  A    between atoms: C_9  and  C_15
                            x       y       z     vdW  Elec       q    Type
                         _______ _______ _______ _____ _____    ______ ____

>  <TORSDO>
F 1

$$$$
=
 OpenBabel10262420103D

 27 31  0  0  0  0  0  0  0  0999 V2000
  188.3920  177.1970  141.7310 C   0  0  0  0  0  3  0  0  0  0  0  0
  186.6030  178.2560  143.1290 C   0  0  0  0  0  0  0  0  0  0  0  0
  186.0530  178.7590  140.6950 C   0  0  0  0  0  3  0  0  0  0  0  0
  182.4870  178.9160  143.9640 C   0  0  0  0  0  3  0  0  0  0  0  0
  180.1860  179.0050  143.2460 O   0  0  0  0  0  1  0  0  0  0  0  0
  186.1160  178.5810  144.4940 C   0  0  0  0  0  3  0  0  0  0  0  0
  181.9340  178.6300  141.6270 C   0  0  0  0  0  3  0  0  0  0  0  0
  187.9470  178.5620  136.5740 O   0  0  0  0  0  0  0  0  0  0  0  0
  183.2900  178.4770  141.3240 C   0  0  0  0  0  3  0  0  0  0  0  0
  187.9950  178.1980  137.7770 C   0  0  0  0  0  0  0  0  0  0  0  0
  184.2630  178.5450  142.3380 C   0  0  0  0  0  0  0  0  0  0  0  0
  187.8360  177.7190  142.9900 C   0  0  0  0  0  0  0  0  0  0  0  0
  181.5330  178.8510  142.9460 C   0  0  0  0  0  0  0  0  0  0  0  0
  183.8430  178.7600  143.6650 C   0  0  0  0  0  0  0  0  0  0  0  0
  188.1050  177.4600  140.4590 C   0  0  0  0  0  0  0  0  0  0  0  0
  185.6710  178.4050  142.0320 N   0  0  0  0  0  0  0  0  0  0  0  0
  187.1060  178.6960  138.6740 N   0  0  0  0  0  2  0  0  0  0  0  0
  184.8330  178.8220  144.7410 C   0  0  0  0  0  3  0  0  0  0  0  0
  188.9430  177.2680  138.1860 C   0  0  0  0  0  3  0  0  0  0  0  0
  188.9950  176.9100  139.5300 C   0  0  0  0  0  3  0  0  0  0  0  0
  187.1020  178.3390  139.9900 C   0  0  0  0  0  0  0  0  0  0  0  0
  190.4340  177.2740  146.3770 C   0  0  0  0  0  3  0  0  0  0  0  0
  188.7360  177.5400  144.1580 C   0  0  0  0  0  0  0  0  0  0  0  0
  188.2280  177.1150  145.3970 C   0  0  0  0  0  3  0  0  0  0  0  0
  189.0740  176.9780  146.4990 C   0  0  0  0  0  3  0  0  0  0  0  0
  190.9470  177.7100  145.1540 C   0  0  0  0  0  3  0  0  0  0  0  0
  190.1010  177.8470  144.0500 C   0  0  0  0  0  3  0  0  0  0  0  0
  1 12  1  0  0  0  0
  2  6  1  0  0  0  0
  3 16  1  0  0  0  0
  6 18  2  0  0  0  0
  7 13  1  0  0  0  0
  8 10  2  0  0  0  0
  9  7  2  0  0  0  0
  9 11  1  0  0  0  0
 10 19  1  0  0  0  0
 10 17  1  0  0  0  0
 11 14  2  0  0  0  0
 12  2  2  0  0  0  0
 12 23  1  0  0  0  0
 13  5  1  0  0  0  0
 13  4  2  0  0  0  0
 14  4  1  0  0  0  0
 14 18  1  0  0  0  0
 15  1  2  0  0  0  0
 16 11  1  0  0  0  0
 16  2  1  0  0  0  0
 17 21  1  0  0  0  0
 19 20  2  0  0  0  0
 20 15  1  0  0  0  0
 21 15  1  0  0  0  0
 21  3  2  0  0  0  0
 22 25  1  0  0  0  0
 23 24  1  0  0  0  0
 24 25  2  0  0  0  0
 26 22  2  0  0  0  0
 27 23  2  0  0  0  0
 27 26  1  0  0  0  0
M  END
>  <MODEL>
8

>  <REMARK>
 VINA RESULT:     -10.1      1.216      1.665
  Name = 
  1 active torsions:
  status: ('A' for Active; 'I' for Inactive)
    1  A    between atoms: C_9  and  C_15
                            x       y       z     vdW  Elec       q    Type
                         _______ _______ _______ _____ _____    ______ ____

>  <TORSDO>
F 1

$$$$
=
 OpenBabel10262420103D

 27 31  0  0  0  0  0  0  0  0999 V2000
  185.9510  178.7870  144.9030 C   0  0  0  0  0  3  0  0  0  0  0  0
  187.7910  177.6460  143.6420 C   0  0  0  0  0  0  0  0  0  0  0  0
  185.7900  177.8040  142.0750 C   0  0  0  0  0  3  0  0  0  0  0  0
  190.2070  177.2980  140.1620 C   0  0  0  0  0  3  0  0  0  0  0  0
  190.5560  177.6550  137.8020 O   0  0  0  0  0  1  0  0  0  0  0  0
  189.1570  177.0660  143.6840 C   0  0  0  0  0  3  0  0  0  0  0  0
  188.4240  178.1940  138.7950 C   0  0  0  0  0  3  0  0  0  0  0  0
  181.3510  178.7480  142.1640 O   0  0  0  0  0  0  0  0  0  0  0  0
  187.5930  178.2530  139.9170 C   0  0  0  0  0  3  0  0  0  0  0  0
  182.4560  178.8080  142.7630 C   0  0  0  0  0  0  0  0  0  0  0  0
  188.0580  177.8320  141.1760 C   0  0  0  0  0  0  0  0  0  0  0  0
  187.2210  178.0500  144.8000 C   0  0  0  0  0  0  0  0  0  0  0  0
  189.7310  177.7150  138.9170 C   0  0  0  0  0  0  0  0  0  0  0  0
  189.3800  177.3590  141.2860 C   0  0  0  0  0  0  0  0  0  0  0  0
  184.9050  178.8700  144.0840 C   0  0  0  0  0  0  0  0  0  0  0  0
  187.1990  177.8730  142.3410 N   0  0  0  0  0  0  0  0  0  0  0  0
  183.5540  178.2190  142.2230 N   0  0  0  0  0  2  0  0  0  0  0  0
  189.8930  176.9270  142.5860 C   0  0  0  0  0  3  0  0  0  0  0  0
  182.5600  179.4950  143.9650 C   0  0  0  0  0  3  0  0  0  0  0  0
  183.7870  179.5150  144.6230 C   0  0  0  0  0  3  0  0  0  0  0  0
  184.7810  178.2520  142.8180 C   0  0  0  0  0  0  0  0  0  0  0  0
  189.2070  177.5030  148.5650 C   0  0  0  0  0  3  0  0  0  0  0  0
  187.8950  177.8400  146.1070 C   0  0  0  0  0  0  0  0  0  0  0  0
  187.2660  178.2120  147.3060 C   0  0  0  0  0  3  0  0  0  0  0  0
  187.9170  178.0390  148.5290 C   0  0  0  0  0  3  0  0  0  0  0  0
  189.8470  177.1420  147.3770 C   0  0  0  0  0  3  0  0  0  0  0  0
  189.1960  177.3140  146.1520 C   0  0  0  0  0  3  0  0  0  0  0  0
  2  6  1  0  0  0  0
  2 12  2  0  0  0  0
  3 16  1  0  0  0  0
  3 21  2  0  0  0  0
  4 14  1  0  0  0  0
  5 13  1  0  0  0  0
  7 13  1  0  0  0  0
  7  9  2  0  0  0  0
  8 10  2  0  0  0  0
  9 11  1  0  0  0  0
 10 19  1  0  0  0  0
 11 14  2  0  0  0  0
 11 16  1  0  0  0  0
 12  1  1  0  0  0  0
 12 23  1  0  0  0  0
 13  4  2  0  0  0  0
 14 18  1  0  0  0  0
 15 20  1  0  0  0  0
 15  1  2  0  0  0  0
 16  2  1  0  0  0  0
 17 10  1  0  0  0  0
 17 21  1  0  0  0  0
 18  6  2  0  0  0  0
 19 20  2  0  0  0  0
 21 15  1  0  0  0  0
 23 27  2  0  0  0  0
 23 24  1  0  0  0  0
 24 25  2  0  0  0  0
 25 22  1  0  0  0  0
 26 22  2  0  0  0  0
 27 26  1  0  0  0  0
M  END
>  <MODEL>
9

>  <REMARK>
 VINA RESULT:     -10.1      1.112      5.540
  Name = 
  1 active torsions:
  status: ('A' for Active; 'I' for Inactive)
    1  A    between atoms: C_9  and  C_15
                            x       y       z     vdW  Elec       q    Type
                         _______ _______ _______ _____ _____    ______ ____

>  <TORSDO>
F 1

$$$$
