=
 OpenBabel10262421023D

 32 37  0  0  1  0  0  0  0  0999 V2000
  187.4540  176.9290  142.4870 C   0  0  1  0  0  3  0  0  0  0  0  0
  187.2700  178.9030  141.0890 C   0  0  2  0  0  3  0  0  0  0  0  0
  191.6200  178.2230  144.1180 C   0  0  1  0  0  3  0  0  0  0  0  0
  187.7040  176.6940  143.9670 C   0  0  0  0  0  2  0  0  0  0  0  0
  186.6370  178.1840  142.2820 C   0  0  1  0  0  3  0  0  0  0  0  0
  186.4930  178.7090  139.7670 C   0  0  2  0  0  3  0  0  0  0  0  0
  192.1840  179.4440  144.4910 O   0  0  0  0  0  1  0  0  0  0  0  0
  189.8220  175.9430  138.6460 N   0  0  0  0  0  0  0  0  0  0  0  0
  188.6820  178.3100  140.9870 C   0  0  1  0  0  3  0  0  0  0  0  0
  187.8990  175.4400  137.3070 C   0  0  0  0  0  2  0  0  0  0  0  0
  188.0150  177.5410  138.6010 C   0  0  1  0  0  3  0  0  0  0  0  0
  184.9830  178.9610  139.8620 C   0  0  2  0  0  3  0  0  0  0  0  0
  191.1900  177.4330  145.3690 C   0  0  1  0  0  3  0  0  0  0  0  0
  189.1890  176.4780  144.1010 C   0  0  2  0  0  3  0  0  0  0  0  0
  186.7650  177.4370  139.2450 O   0  0  0  0  0  0  0  0  0  0  0  0
  185.1640  177.8120  142.1100 C   0  0  0  0  0  2  0  0  0  0  0  0
  189.6900  177.1170  145.4040 C   0  0  0  0  0  2  0  0  0  0  0  0
  190.5030  178.4350  143.0900 C   0  0  2  0  0  3  0  0  0  0  0  0
  189.6000  179.4030  143.5430 O   0  0  0  0  0  1  0  0  0  0  0  0
  188.7350  177.0830  141.7980 N   0  0  1  0  0  0  0  0  0  0  0  0
  184.6860  180.2140  139.3270 O   0  0  0  0  0  1  0  0  0  0  0  0
  189.7880  177.0870  142.8340 C   0  0  2  0  0  3  0  0  0  0  0  0
  189.1430  178.0590  139.5310 C   0  0  2  0  0  3  0  0  0  0  0  0
  184.4350  178.8710  141.2920 C   0  0  2  0  0  3  0  0  0  0  0  0
  188.5050  176.2050  138.2040 C   0  0  0  0  0  0  0  0  0  0  0  0
  190.3050  177.0610  139.4360 C   0  0  0  0  0  3  0  0  0  0  0  0
  182.9830  178.6770  141.3140 N   0  0  0  0  0  2  0  0  0  0  0  0
  182.4500  178.9070  142.6530 C   0  0  0  0  0  2  0  0  0  0  0  0
  180.9380  178.9480  142.5940 C   0  0  0  0  0  1  0  0  0  0  0  0
  192.0030  176.1550  145.5000 C   0  0  0  0  0  2  0  0  0  0  0  0
  192.4390  175.9170  147.6490 C   0  0  0  0  0  1  0  0  0  0  0  0
  191.6040  175.4490  146.6350 O   0  0  0  0  0  0  0  0  0  0  0  0
  1  4  1  1  0  0  0
  2  5  1  0  0  0  0
  3  7  1  0  0  0  0
  3 13  1  0  0  0  0
  4 14  1  0  0  0  0
  5  1  1  0  0  0  0
  6 12  1  0  0  0  0
  6  2  1  0  0  0  0
  8 26  2  0  0  0  0
  9  2  1  0  0  0  0
  9 20  1  0  0  0  0
 10 25  2  0  0  0  0
 11 15  1  0  0  0  0
 11 23  1  0  0  0  0
 12 24  1  0  0  0  0
 13 17  1  0  0  0  0
 13 30  1  0  0  0  0
 14 17  1  0  0  0  0
 15  6  1  0  0  0  0
 16  5  1  0  0  0  0
 18 19  1  0  0  0  0
 18  3  1  0  0  0  0
 20  1  1  0  0  0  0
 20 22  1  0  0  0  0
 21 12  1  0  0  0  0
 22 18  1  0  0  0  0
 22 14  1  0  0  0  0
 23  9  1  0  0  0  0
 24 27  1  0  0  0  0
 24 16  1  0  0  0  0
 25 11  1  0  0  0  0
 25  8  1  0  0  0  0
 26 23  1  0  0  0  0
 27 28  1  0  0  0  0
 29 28  1  0  0  0  0
 30 32  1  0  0  0  0
 32 31  1  0  0  0  0
M  END
>  <MODEL>
1

>  <REMARK>
 VINA RESULT:      -6.8      0.000      0.000
  Name = 
  4 active torsions:
  status: ('A' for Active; 'I' for Inactive)
    1  A    between atoms: N_14  and  C_21
    2  A    between atoms: N_14  and  C_29
    3  A    between atoms: C_15  and  C_19
    4  A    between atoms: C_19  and  O_26
                            x       y       z     vdW  Elec       q    Type
                         _______ _______ _______ _____ _____    ______ ____

>  <TORSDO>
F 4

$$$$
=
 OpenBabel10262421023D

 32 37  0  0  1  0  0  0  0  0999 V2000
  189.2590  174.6940  137.3630 C   0  0  1  0  0  3  0  0  0  0  0  0
  190.7250  176.5920  136.9880 C   0  0  2  0  0  3  0  0  0  0  0  0
  185.5610  176.9530  135.6560 C   0  0  1  0  0  3  0  0  0  0  0  0
  188.3190  173.8870  136.4850 C   0  0  0  0  0  2  0  0  0  0  0  0
  190.4680  175.1410  136.5740 C   0  0  1  0  0  3  0  0  0  0  0  0
  191.8780  176.7500  138.0050 C   0  0  2  0  0  3  0  0  0  0  0  0
  185.3650  177.8370  134.5940 O   0  0  0  0  0  1  0  0  0  0  0  0
  188.6420  177.4660  141.0050 N   0  0  0  0  0  0  0  0  0  0  0  0
  189.3930  177.0590  137.5920 C   0  0  1  0  0  3  0  0  0  0  0  0
  190.6390  176.7990  142.1500 C   0  0  0  0  0  1  0  0  0  0  0  0
  190.7200  177.4900  139.7800 C   0  0  1  0  0  3  0  0  0  0  0  0
  193.1720  176.0150  137.6330 C   0  0  2  0  0  3  0  0  0  0  0  0
  185.0870  175.5400  135.2660 C   0  0  1  0  0  3  0  0  0  0  0  0
  186.9580  174.5070  136.6640 C   0  0  2  0  0  3  0  0  0  0  0  0
  191.4320  176.3800  139.2820 O   0  0  0  0  0  0  0  0  0  0  0  0
  191.6280  174.1780  136.8270 C   0  0  0  0  0  2  0  0  0  0  0  0
  186.1980  174.4850  135.3310 C   0  0  0  0  0  2  0  0  0  0  0  0
  187.0100  177.0190  136.1520 C   0  0  2  0  0  3  0  0  0  0  0  0
  187.9000  176.8810  135.0810 O   0  0  0  0  0  1  0  0  0  0  0  0
  188.5580  175.8780  137.8620 N   0  0  1  0  0  0  0  0  0  0  0  0
  194.0960  176.9280  137.1260 O   0  0  0  0  0  1  0  0  0  0  0  0
  187.2360  175.9090  137.2050 C   0  0  2  0  0  3  0  0  0  0  0  0
  189.5630  177.9440  138.8510 C   0  0  2  0  0  3  0  0  0  0  0  0
  192.9640  174.8810  136.6210 C   0  0  2  0  0  3  0  0  0  0  0  0
  190.0160  177.1350  141.0290 C   0  0  0  0  0  0  0  0  0  0  0  0
  188.2910  178.0140  139.7080 C   0  0  0  0  0  2  0  0  0  0  0  0
  194.0850  173.9360  136.6150 N   0  0  0  0  0  2  0  0  0  0  0  0
  194.4320  173.5380  137.9760 C   0  0  0  0  0  2  0  0  0  0  0  0
  195.9330  173.6200  138.1570 C   0  0  0  0  0  1  0  0  0  0  0  0
  183.9060  175.1170  136.1240 C   0  0  0  0  0  2  0  0  0  0  0  0
  183.2420  175.2280  138.2250 C   0  0  0  0  0  1  0  0  0  0  0  0
  183.7400  176.0100  137.1830 O   0  0  0  0  0  0  0  0  0  0  0  0
  1  4  1  6  0  0  0
  1 20  1  0  0  0  0
  2  9  1  0  0  0  0
  2  6  1  0  0  0  0
  3 18  1  0  0  0  0
  4 14  1  0  0  0  0
  5 16  1  0  0  0  0
  5  2  1  0  0  0  0
  5  1  1  0  0  0  0
  6 15  1  0  0  0  0
  7  3  1  0  0  0  0
  8 25  2  0  0  0  0
  9 20  1  0  0  0  0
  9 23  1  0  0  0  0
 11 25  1  0  0  0  0
 12  6  1  0  0  0  0
 13 17  1  0  0  0  0
 13  3  1  0  0  0  0
 13 30  1  0  0  0  0
 14 22  1  0  0  0  0
 15 11  1  0  0  0  0
 17 14  1  0  0  0  0
 18 22  1  0  0  0  0
 19 18  1  0  0  0  0
 21 12  1  0  0  0  0
 22 20  1  0  0  0  0
 23 26  1  0  0  0  0
 23 11  1  0  0  0  0
 24 16  1  0  0  0  0
 24 12  1  0  0  0  0
 25 10  1  0  0  0  0
 26  8  1  0  0  0  0
 27 24  1  0  0  0  0
 27 28  1  0  0  0  0
 28 29  1  0  0  0  0
 30 32  1  0  0  0  0
 32 31  1  0  0  0  0
M  END
>  <MODEL>
2

>  <REMARK>
 VINA RESULT:      -6.2      3.743      9.026
  Name = 
  4 active torsions:
  status: ('A' for Active; 'I' for Inactive)
    1  A    between atoms: N_14  and  C_21
    2  A    between atoms: N_14  and  C_29
    3  A    between atoms: C_15  and  C_19
    4  A    between atoms: C_19  and  O_26
                            x       y       z     vdW  Elec       q    Type
                         _______ _______ _______ _____ _____    ______ ____

>  <TORSDO>
F 4

$$$$
=
 OpenBabel10262421023D

 32 37  0  0  1  0  0  0  0  0999 V2000
  187.8800  176.9320  141.9080 C   0  0  1  0  0  3  0  0  0  0  0  0
  188.0530  178.6750  140.2280 C   0  0  2  0  0  3  0  0  0  0  0  0
  191.6900  178.4160  144.1360 C   0  0  1  0  0  3  0  0  0  0  0  0
  187.8240  176.9190  143.4250 C   0  0  0  0  0  2  0  0  0  0  0  0
  187.1690  178.1500  141.3620 C   0  0  1  0  0  3  0  0  0  0  0  0
  187.5450  178.2920  138.8200 C   0  0  2  0  0  3  0  0  0  0  0  0
  192.2180  179.6740  144.4320 O   0  0  0  0  0  1  0  0  0  0  0  0
  190.9170  175.3570  138.8050 N   0  0  0  0  0  0  0  0  0  0  0  0
  189.4320  178.0590  140.5000 C   0  0  1  0  0  3  0  0  0  0  0  0
  189.2780  174.6760  137.1950 C   0  0  0  0  0  2  0  0  0  0  0  0
  189.2190  176.9470  138.1660 C   0  0  1  0  0  3  0  0  0  0  0  0
  186.0570  178.5700  138.5720 C   0  0  2  0  0  3  0  0  0  0  0  0
  190.9910  177.8270  145.3760 C   0  0  1  0  0  3  0  0  0  0  0  0
  189.2430  176.7120  143.8840 C   0  0  2  0  0  3  0  0  0  0  0  0
  187.8630  176.9530  138.5540 O   0  0  0  0  0  0  0  0  0  0  0  0
  185.7460  177.7710  140.9540 C   0  0  0  0  0  2  0  0  0  0  0  0
  189.5030  177.5340  145.1550 C   0  0  0  0  0  2  0  0  0  0  0  0
  190.8070  178.4820  142.8840 C   0  0  2  0  0  3  0  0  0  0  0  0
  189.8710  179.5160  143.0010 O   0  0  0  0  0  1  0  0  0  0  0  0
  189.2770  176.9680  141.4740 N   0  0  1  0  0  0  0  0  0  0  0  0
  185.9210  179.7310  137.8130 O   0  0  0  0  0  1  0  0  0  0  0  0
  190.1040  177.1180  142.6880 C   0  0  2  0  0  3  0  0  0  0  0  0
  190.1610  177.5880  139.2180 C   0  0  2  0  0  3  0  0  0  0  0  0
  185.2350  178.7010  139.8610 C   0  0  2  0  0  3  0  0  0  0  0  0
  189.7240  175.5620  138.0740 C   0  0  0  0  0  0  0  0  0  0  0  0
  191.2790  176.5760  139.5040 C   0  0  0  0  0  3  0  0  0  0  0  0
  183.8000  178.5260  139.6190 N   0  0  0  0  0  2  0  0  0  0  0  0
  183.2550  177.4780  140.4760 C   0  0  0  0  0  2  0  0  0  0  0  0
  182.5090  176.4710  139.6280 C   0  0  0  0  0  1  0  0  0  0  0  0
  191.7110  176.5750  145.8520 C   0  0  0  0  0  2  0  0  0  0  0  0
  192.5130  175.4490  147.5710 C   0  0  0  0  0  1  0  0  0  0  0  0
  192.0980  176.7230  147.1840 O   0  0  0  0  0  0  0  0  0  0  0  0
  1  4  1  1  0  0  0
  2  9  1  0  0  0  0
  2  5  1  0  0  0  0
  3  7  1  0  0  0  0
  3 13  1  0  0  0  0
  4 14  1  0  0  0  0
  5  1  1  0  0  0  0
  6  2  1  0  0  0  0
  8 26  2  0  0  0  0
  9 20  1  0  0  0  0
 10 25  2  0  0  0  0
 11 15  1  0  0  0  0
 11 23  1  0  0  0  0
 12  6  1  0  0  0  0
 12 24  1  0  0  0  0
 13 30  1  0  0  0  0
 14 17  1  0  0  0  0
 15  6  1  0  0  0  0
 16  5  1  0  0  0  0
 17 13  1  0  0  0  0
 18 19  1  0  0  0  0
 18  3  1  0  0  0  0
 20  1  1  0  0  0  0
 20 22  1  0  0  0  0
 21 12  1  0  0  0  0
 22 18  1  0  0  0  0
 22 14  1  0  0  0  0
 23 26  1  0  0  0  0
 23  9  1  0  0  0  0
 24 16  1  0  0  0  0
 25 11  1  0  0  0  0
 25  8  1  0  0  0  0
 27 24  1  0  0  0  0
 27 28  1  0  0  0  0
 29 28  1  0  0  0  0
 30 32  1  0  0  0  0
 32 31  1  0  0  0  0
M  END
>  <MODEL>
3

>  <REMARK>
 VINA RESULT:      -5.4      1.256      1.405
  Name = 
  4 active torsions:
  status: ('A' for Active; 'I' for Inactive)
    1  A    between atoms: N_14  and  C_21
    2  A    between atoms: N_14  and  C_29
    3  A    between atoms: C_15  and  C_19
    4  A    between atoms: C_19  and  O_26
                            x       y       z     vdW  Elec       q    Type
                         _______ _______ _______ _____ _____    ______ ____

>  <TORSDO>
F 4

$$$$
=
 OpenBabel10262421023D

 32 37  0  0  1  0  0  0  0  0999 V2000
  188.2580  176.9480  141.2390 C   0  0  1  0  0  3  0  0  0  0  0  0
  188.7770  178.6400  139.5790 C   0  0  2  0  0  3  0  0  0  0  0  0
  191.7730  178.2770  143.9900 C   0  0  1  0  0  3  0  0  0  0  0  0
  187.9770  176.9740  142.7310 C   0  0  0  0  0  2  0  0  0  0  0  0
  187.7070  178.1900  140.5750 C   0  0  1  0  0  3  0  0  0  0  0  0
  188.4630  178.2520  138.1160 C   0  0  2  0  0  3  0  0  0  0  0  0
  192.3210  179.5110  144.3430 O   0  0  0  0  0  1  0  0  0  0  0  0
  191.6280  175.1400  138.6500 N   0  0  0  0  0  0  0  0  0  0  0  0
  190.0640  177.9570  140.0630 C   0  0  1  0  0  3  0  0  0  0  0  0
  190.2100  174.5110  136.8230 C   0  0  0  0  0  2  0  0  0  0  0  0
  190.1360  176.8040  137.7400 C   0  0  1  0  0  3  0  0  0  0  0  0
  187.0470  178.6040  137.6450 C   0  0  2  0  0  3  0  0  0  0  0  0
  190.8650  177.7550  145.1210 C   0  0  1  0  0  3  0  0  0  0  0  0
  189.2980  176.7020  143.4010 C   0  0  2  0  0  3  0  0  0  0  0  0
  188.7410  176.8920  137.9210 O   0  0  0  0  0  0  0  0  0  0  0  0
  186.3400  177.8780  139.9640 C   0  0  0  0  0  2  0  0  0  0  0  0
  189.4120  177.5380  144.6830 C   0  0  0  0  0  2  0  0  0  0  0  0
  191.0910  178.3610  142.6190 C   0  0  2  0  0  3  0  0  0  0  0  0
  190.2080  179.4460  142.5790 O   0  0  0  0  0  1  0  0  0  0  0  0
  189.7030  176.8990  141.0190 N   0  0  1  0  0  0  0  0  0  0  0  0
  187.0910  179.7530  136.8560 O   0  0  0  0  0  1  0  0  0  0  0  0
  190.3480  177.0330  142.3410 C   0  0  2  0  0  3  0  0  0  0  0  0
  190.9470  177.4170  138.9120 C   0  0  2  0  0  3  0  0  0  0  0  0
  186.0510  178.8090  138.7940 C   0  0  2  0  0  3  0  0  0  0  0  0
  190.5700  175.3910  137.7460 C   0  0  0  0  0  0  0  0  0  0  0  0
  191.9510  176.3530  139.3780 C   0  0  0  0  0  3  0  0  0  0  0  0
  184.6600  178.7060  138.3420 N   0  0  0  0  0  2  0  0  0  0  0  0
  183.8050  179.6250  139.0870 C   0  0  0  0  0  2  0  0  0  0  0  0
  182.7130  178.8430  139.7850 C   0  0  0  0  0  1  0  0  0  0  0  0
  191.4340  176.4780  145.7170 C   0  0  0  0  0  2  0  0  0  0  0  0
  192.0560  175.5350  147.6120 C   0  0  0  0  0  1  0  0  0  0  0  0
  192.0530  176.7550  146.9370 O   0  0  0  0  0  0  0  0  0  0  0  0
  1  4  1  1  0  0  0
  2  9  1  0  0  0  0
  2  5  1  0  0  0  0
  3  7  1  0  0  0  0
  3 13  1  0  0  0  0
  4 14  1  0  0  0  0
  5  1  1  0  0  0  0
  6  2  1  0  0  0  0
  8 26  2  0  0  0  0
  9 20  1  0  0  0  0
 10 25  2  0  0  0  0
 11 25  1  0  0  0  0
 11 15  1  0  0  0  0
 11 23  1  0  0  0  0
 12  6  1  0  0  0  0
 12 24  1  0  0  0  0
 13 30  1  0  0  0  0
 14 17  1  0  0  0  0
 15  6  1  0  0  0  0
 16  5  1  0  0  0  0
 17 13  1  0  0  0  0
 18  3  1  0  0  0  0
 19 18  1  0  0  0  0
 20  1  1  0  0  0  0
 20 22  1  0  0  0  0
 21 12  1  0  0  0  0
 22 18  1  0  0  0  0
 22 14  1  0  0  0  0
 23 26  1  0  0  0  0
 23  9  1  0  0  0  0
 24 16  1  0  0  0  0
 25  8  1  0  0  0  0
 27 24  1  0  0  0  0
 27 28  1  0  0  0  0
 28 29  1  0  0  0  0
 30 32  1  0  0  0  0
 32 31  1  0  0  0  0
M  END
>  <MODEL>
4

>  <REMARK>
 VINA RESULT:      -5.3      1.725      2.086
  Name = 
  4 active torsions:
  status: ('A' for Active; 'I' for Inactive)
    1  A    between atoms: N_14  and  C_21
    2  A    between atoms: N_14  and  C_29
    3  A    between atoms: C_15  and  C_19
    4  A    between atoms: C_19  and  O_26
                            x       y       z     vdW  Elec       q    Type
                         _______ _______ _______ _____ _____    ______ ____

>  <TORSDO>
F 4

$$$$
=
 OpenBabel10262421023D

 32 37  0  0  1  0  0  0  0  0999 V2000
  183.8050  176.9900  139.4210 C   0  0  1  0  0  3  0  0  0  0  0  0
  185.2370  178.8690  138.8650 C   0  0  2  0  0  3  0  0  0  0  0  0
  180.4490  179.7700  141.0630 C   0  0  1  0  0  3  0  0  0  0  0  0
  182.3770  176.6030  139.0770 C   0  0  0  0  0  2  0  0  0  0  0  0
  184.4560  177.7020  138.2560 C   0  0  1  0  0  3  0  0  0  0  0  0
  186.7550  178.6030  138.9810 C   0  0  2  0  0  3  0  0  0  0  0  0
  179.9260  181.0030  140.6700 O   0  0  0  0  0  1  0  0  0  0  0  0
  185.9590  178.1030  143.3510 N   0  0  0  0  0  0  0  0  0  0  0  0
  184.6080  179.0710  140.2500 C   0  0  1  0  0  3  0  0  0  0  0  0
  188.0260  177.0220  142.8020 C   0  0  0  0  0  2  0  0  0  0  0  0
  186.9680  178.5920  141.2160 C   0  0  1  0  0  3  0  0  0  0  0  0
  187.4150  178.0650  137.7060 C   0  0  2  0  0  3  0  0  0  0  0  0
  179.5150  178.6300  140.6140 C   0  0  1  0  0  3  0  0  0  0  0  0
  181.5310  177.1130  140.2130 C   0  0  2  0  0  3  0  0  0  0  0  0
  187.0020  177.7630  140.0760 O   0  0  0  0  0  0  0  0  0  0  0  0
  185.2940  176.7080  137.4530 C   0  0  0  0  0  2  0  0  0  0  0  0
  180.1890  177.6260  139.6710 C   0  0  0  0  0  2  0  0  0  0  0  0
  181.9000  179.6230  140.5890 C   0  0  2  0  0  3  0  0  0  0  0  0
  181.9990  179.9120  139.2230 O   0  0  0  0  0  1  0  0  0  0  0  0
  183.7990  177.8870  140.5770 N   0  0  1  0  0  0  0  0  0  0  0  0
  188.1020  179.0950  137.0660 O   0  0  0  0  0  1  0  0  0  0  0  0
  182.3860  178.1850  140.8870 C   0  0  2  0  0  3  0  0  0  0  0  0
  185.6420  179.3850  141.3580 C   0  0  2  0  0  3  0  0  0  0  0  0
  186.4250  177.4230  136.7250 C   0  0  2  0  0  3  0  0  0  0  0  0
  186.9970  177.7780  142.4480 C   0  0  0  0  0  0  0  0  0  0  0  0
  185.1040  179.1220  142.7710 C   0  0  0  0  0  3  0  0  0  0  0  0
  187.0940  176.5490  135.7590 N   0  0  0  0  0  2  0  0  0  0  0  0
  188.1160  175.7390  136.4160 C   0  0  0  0  0  2  0  0  0  0  0  0
  189.3900  175.7750  135.6000 C   0  0  0  0  0  1  0  0  0  0  0  0
  178.9310  177.9120  141.8200 C   0  0  0  0  0  2  0  0  0  0  0  0
  179.7590  178.0320  143.8620 C   0  0  0  0  0  1  0  0  0  0  0  0
  178.9850  178.7390  142.9420 O   0  0  0  0  0  0  0  0  0  0  0  0
  1  4  1  6  0  0  0
  1 20  1  0  0  0  0
  2  6  1  0  0  0  0
  2  9  1  0  0  0  0
  4 14  1  0  0  0  0
  5  2  1  0  0  0  0
  5  1  1  0  0  0  0
  6 15  1  0  0  0  0
  7  3  1  0  0  0  0
  9 20  1  0  0  0  0
  9 23  1  0  0  0  0
 11 23  1  0  0  0  0
 11 25  1  0  0  0  0
 12  6  1  0  0  0  0
 13  3  1  0  0  0  0
 13 30  1  0  0  0  0
 14 22  1  0  0  0  0
 15 11  1  0  0  0  0
 16  5  1  0  0  0  0
 17 14  1  0  0  0  0
 17 13  1  0  0  0  0
 18 22  1  0  0  0  0
 18  3  1  0  0  0  0
 19 18  1  0  0  0  0
 20 22  1  0  0  0  0
 21 12  1  0  0  0  0
 23 26  1  0  0  0  0
 24 16  1  0  0  0  0
 24 12  1  0  0  0  0
 25 10  2  0  0  0  0
 25  8  1  0  0  0  0
 26  8  2  0  0  0  0
 27 28  1  0  0  0  0
 27 24  1  0  0  0  0
 29 28  1  0  0  0  0
 30 32  1  0  0  0  0
 32 31  1  0  0  0  0
M  END
>  <MODEL>
5

>  <REMARK>
 VINA RESULT:      -5.3      3.279      8.083
  Name = 
  4 active torsions:
  status: ('A' for Active; 'I' for Inactive)
    1  A    between atoms: N_14  and  C_21
    2  A    between atoms: N_14  and  C_29
    3  A    between atoms: C_15  and  C_19
    4  A    between atoms: C_19  and  O_26
                            x       y       z     vdW  Elec       q    Type
                         _______ _______ _______ _____ _____    ______ ____

>  <TORSDO>
F 4

$$$$
=
 OpenBabel10262421023D

 32 37  0  0  1  0  0  0  0  0999 V2000
  181.8080  178.9100  140.3880 C   0  0  1  0  0  3  0  0  0  0  0  0
  182.4510  179.4300  138.1060 C   0  0  2  0  0  3  0  0  0  0  0  0
  186.2240  178.2000  141.6860 C   0  0  1  0  0  3  0  0  0  0  0  0
  182.2060  179.4440  141.7520 C   0  0  0  0  0  2  0  0  0  0  0  0
  181.8090  180.0210  139.3630 C   0  0  1  0  0  3  0  0  0  0  0  0
  181.4270  179.0260  137.0200 C   0  0  2  0  0  3  0  0  0  0  0  0
  187.4380  178.8180  141.3860 O   0  0  0  0  0  1  0  0  0  0  0  0
  182.2970  174.8270  138.2840 N   0  0  0  0  0  0  0  0  0  0  0  0
  183.2260  178.2050  138.6110 C   0  0  1  0  0  3  0  0  0  0  0  0
  180.1810  174.8860  137.1610 C   0  0  0  0  0  2  0  0  0  0  0  0
  181.7330  176.8020  137.0190 C   0  0  1  0  0  3  0  0  0  0  0  0
  180.3820  180.0980  136.6890 C   0  0  2  0  0  3  0  0  0  0  0  0
  185.7170  178.6640  143.0660 C   0  0  1  0  0  3  0  0  0  0  0  0
  183.3030  178.5360  142.2420 C   0  0  2  0  0  3  0  0  0  0  0  0
  180.8180  177.8150  137.3760 O   0  0  0  0  0  0  0  0  0  0  0  0
  180.3850  180.5480  139.1790 C   0  0  0  0  0  2  0  0  0  0  0  0
  184.3490  179.3550  143.0110 C   0  0  0  0  0  2  0  0  0  0  0  0
  185.2200  178.4000  140.5440 C   0  0  2  0  0  3  0  0  0  0  0  0
  185.1380  179.7530  140.1970 O   0  0  0  0  0  1  0  0  0  0  0  0
  182.7650  177.8840  139.9710 N   0  0  1  0  0  0  0  0  0  0  0  0
  180.7240  180.7280  135.4930 O   0  0  0  0  0  1  0  0  0  0  0  0
  183.8390  177.8560  140.9830 C   0  0  2  0  0  3  0  0  0  0  0  0
  183.1310  176.9820  137.6670 C   0  0  2  0  0  3  0  0  0  0  0  0
  180.2110  181.1510  137.7920 C   0  0  2  0  0  3  0  0  0  0  0  0
  181.2910  175.4960  137.5490 C   0  0  0  0  0  0  0  0  0  0  0  0
  183.4830  175.6600  138.3640 C   0  0  0  0  0  3  0  0  0  0  0  0
  178.9460  181.8800  137.6660 N   0  0  0  0  0  2  0  0  0  0  0  0
  179.1250  183.2890  138.0060 C   0  0  0  0  0  2  0  0  0  0  0  0
  180.3520  183.8250  137.3000 C   0  0  0  0  0  1  0  0  0  0  0  0
  185.6840  177.5000  144.0420 C   0  0  0  0  0  2  0  0  0  0  0  0
  187.2360  177.8140  145.5780 C   0  0  0  0  0  1  0  0  0  0  0  0
  186.9830  177.1290  144.3890 O   0  0  0  0  0  0  0  0  0  0  0  0
  1  4  1  1  0  0  0
  2  9  1  0  0  0  0
  2  5  1  0  0  0  0
  3 13  1  0  0  0  0
  4 14  1  0  0  0  0
  5  1  1  0  0  0  0
  6 15  1  0  0  0  0
  6  2  1  0  0  0  0
  7  3  1  0  0  0  0
  8 26  2  0  0  0  0
  9 20  1  0  0  0  0
 10 25  2  0  0  0  0
 11 15  1  0  0  0  0
 11 25  1  0  0  0  0
 11 23  1  0  0  0  0
 12  6  1  0  0  0  0
 12 24  1  0  0  0  0
 13 30  1  0  0  0  0
 14 17  1  0  0  0  0
 16  5  1  0  0  0  0
 17 13  1  0  0  0  0
 18 22  1  0  0  0  0
 18  3  1  0  0  0  0
 19 18  1  0  0  0  0
 20  1  1  0  0  0  0
 20 22  1  0  0  0  0
 21 12  1  0  0  0  0
 22 14  1  0  0  0  0
 23 26  1  0  0  0  0
 23  9  1  0  0  0  0
 24 16  1  0  0  0  0
 25  8  1  0  0  0  0
 27 24  1  0  0  0  0
 27 28  1  0  0  0  0
 29 28  1  0  0  0  0
 30 32  1  0  0  0  0
 32 31  1  0  0  0  0
M  END
>  <MODEL>
6

>  <REMARK>
 VINA RESULT:      -5.3      4.002      6.330
  Name = 
  4 active torsions:
  status: ('A' for Active; 'I' for Inactive)
    1  A    between atoms: N_14  and  C_21
    2  A    between atoms: N_14  and  C_29
    3  A    between atoms: C_15  and  C_19
    4  A    between atoms: C_19  and  O_26
                            x       y       z     vdW  Elec       q    Type
                         _______ _______ _______ _____ _____    ______ ____

>  <TORSDO>
F 4

$$$$
=
 OpenBabel10262421023D

 32 37  0  0  1  0  0  0  0  0999 V2000
  189.8280  175.6070  137.6330 C   0  0  1  0  0  3  0  0  0  0  0  0
  188.8430  176.2700  135.5160 C   0  0  2  0  0  3  0  0  0  0  0  0
  193.8670  174.4510  135.6230 C   0  0  1  0  0  3  0  0  0  0  0  0
  191.0910  175.9900  138.3840 C   0  0  0  0  0  2  0  0  0  0  0  0
  189.2740  176.7990  136.8860 C   0  0  1  0  0  3  0  0  0  0  0  0
  187.3190  176.0410  135.3940 C   0  0  2  0  0  3  0  0  0  0  0  0
  194.6340  174.9970  134.5940 O   0  0  0  0  0  1  0  0  0  0  0  0
  188.3200  171.6940  135.6960 N   0  0  0  0  0  0  0  0  0  0  0  0
  189.6100  174.9500  135.3560 C   0  0  1  0  0  3  0  0  0  0  0  0
  186.0190  172.0120  136.2840 C   0  0  0  0  0  1  0  0  0  0  0  0
  187.2880  173.8080  135.1610 C   0  0  1  0  0  3  0  0  0  0  0  0
  186.4500  177.2150  135.8620 C   0  0  2  0  0  3  0  0  0  0  0  0
  194.4650  174.8320  136.9910 C   0  0  1  0  0  3  0  0  0  0  0  0
  192.1220  174.9610  138.0000 C   0  0  2  0  0  3  0  0  0  0  0  0
  186.9680  174.8540  136.0510 O   0  0  0  0  0  0  0  0  0  0  0  0
  188.1630  177.4470  137.7110 C   0  0  0  0  0  2  0  0  0  0  0  0
  193.5000  175.6280  137.8770 C   0  0  0  0  0  2  0  0  0  0  0  0
  192.3900  174.8240  135.4530 C   0  0  2  0  0  3  0  0  0  0  0  0
  192.2540  176.2040  135.2670 O   0  0  0  0  0  1  0  0  0  0  0  0
  190.1390  174.5500  136.6690 N   0  0  1  0  0  0  0  0  0  0  0  0
  185.9780  177.9160  134.7540 O   0  0  0  0  0  1  0  0  0  0  0  0
  191.6020  174.3530  136.6980 C   0  0  2  0  0  3  0  0  0  0  0  0
  188.7710  173.8230  134.7050 C   0  0  2  0  0  3  0  0  0  0  0  0
  187.1790  178.1790  136.8070 C   0  0  2  0  0  3  0  0  0  0  0  0
  187.1660  172.4990  135.8350 C   0  0  0  0  0  0  0  0  0  0  0  0
  189.3430  172.4240  134.9700 C   0  0  0  0  0  2  0  0  0  0  0  0
  186.2460  179.0110  137.5710 N   0  0  0  0  0  2  0  0  0  0  0  0
  185.1800  178.1970  138.1470 C   0  0  0  0  0  2  0  0  0  0  0  0
  184.5810  178.9190  139.3350 C   0  0  0  0  0  1  0  0  0  0  0  0
  194.9570  173.5940  137.7240 C   0  0  0  0  0  2  0  0  0  0  0  0
  196.8150  174.1370  138.7820 C   0  0  0  0  0  1  0  0  0  0  0  0
  195.4480  173.9470  138.9810 O   0  0  0  0  0  0  0  0  0  0  0  0
  1  4  1  6  0  0  0
  2  5  1  0  0  0  0
  3 13  1  0  0  0  0
  5  1  1  0  0  0  0
  5 16  1  0  0  0  0
  6  2  1  0  0  0  0
  6 12  1  0  0  0  0
  6 15  1  0  0  0  0
  7  3  1  0  0  0  0
  8 25  2  0  0  0  0
  9  2  1  0  0  0  0
  9 20  1  0  0  0  0
 11 25  1  0  0  0  0
 11 15  1  0  0  0  0
 12 24  1  0  0  0  0
 13 30  1  0  0  0  0
 13 17  1  0  0  0  0
 14  4  1  0  0  0  0
 17 14  1  0  0  0  0
 18  3  1  0  0  0  0
 18 22  1  0  0  0  0
 19 18  1  0  0  0  0
 20 22  1  0  0  0  0
 20  1  1  0  0  0  0
 21 12  1  0  0  0  0
 22 14  1  0  0  0  0
 23 26  1  0  0  0  0
 23 11  1  0  0  0  0
 23  9  1  0  0  0  0
 24 27  1  0  0  0  0
 24 16  1  0  0  0  0
 25 10  1  0  0  0  0
 26  8  1  0  0  0  0
 27 28  1  0  0  0  0
 28 29  1  0  0  0  0
 30 32  1  0  0  0  0
 31 32  1  0  0  0  0
M  END
>  <MODEL>
7

>  <REMARK>
 VINA RESULT:      -5.2      5.206      6.892
  Name = 
  4 active torsions:
  status: ('A' for Active; 'I' for Inactive)
    1  A    between atoms: N_14  and  C_21
    2  A    between atoms: N_14  and  C_29
    3  A    between atoms: C_15  and  C_19
    4  A    between atoms: C_19  and  O_26
                            x       y       z     vdW  Elec       q    Type
                         _______ _______ _______ _____ _____    ______ ____

>  <TORSDO>
F 4

$$$$
=
 OpenBabel10262421023D

 32 37  0  0  1  0  0  0  0  0999 V2000
  188.7070  176.3210  138.5650 C   0  0  1  0  0  3  0  0  0  0  0  0
  187.2590  177.0160  136.7450 C   0  0  2  0  0  3  0  0  0  0  0  0
  192.3290  175.6790  135.7090 C   0  0  1  0  0  3  0  0  0  0  0  0
  190.0610  176.7760  139.0780 C   0  0  0  0  0  2  0  0  0  0  0  0
  187.9170  177.4990  138.0390 C   0  0  1  0  0  3  0  0  0  0  0  0
  185.7660  176.6510  136.9100 C   0  0  2  0  0  3  0  0  0  0  0  0
  192.8220  176.3580  134.5940 O   0  0  0  0  0  1  0  0  0  0  0  0
  187.1550  172.4090  136.6630 N   0  0  0  0  0  0  0  0  0  0  0  0
  188.0800  175.7870  136.3320 C   0  0  1  0  0  3  0  0  0  0  0  0
  185.0050  172.4700  137.7200 C   0  0  0  0  0  1  0  0  0  0  0  0
  185.8680  174.4440  136.5120 C   0  0  1  0  0  3  0  0  0  0  0  0
  184.9190  177.7060  137.6330 C   0  0  2  0  0  3  0  0  0  0  0  0
  193.1610  176.0320  136.9570 C   0  0  1  0  0  3  0  0  0  0  0  0
  191.0720  175.8760  138.4170 C   0  0  2  0  0  3  0  0  0  0  0  0
  185.6540  175.3980  137.5280 O   0  0  0  0  0  0  0  0  0  0  0  0
  186.9500  177.9870  139.1180 C   0  0  0  0  0  2  0  0  0  0  0  0
  192.3370  176.6770  138.0770 C   0  0  0  0  0  2  0  0  0  0  0  0
  190.8230  175.9200  135.8650 C   0  0  2  0  0  3  0  0  0  0  0  0
  190.5400  177.2900  135.8190 O   0  0  0  0  0  1  0  0  0  0  0  0
  188.8980  175.3600  137.4780 N   0  0  1  0  0  0  0  0  0  0  0  0
  184.1750  178.4250  136.6990 O   0  0  0  0  0  1  0  0  0  0  0  0
  190.3470  175.3010  137.2010 C   0  0  2  0  0  3  0  0  0  0  0  0
  187.2200  174.6280  135.7740 C   0  0  2  0  0  3  0  0  0  0  0  0
  185.7460  178.6760  138.4870 C   0  0  2  0  0  3  0  0  0  0  0  0
  185.9930  173.0900  137.0910 C   0  0  0  0  0  0  0  0  0  0  0  0
  187.9460  173.2750  135.8080 C   0  0  0  0  0  2  0  0  0  0  0  0
  184.9250  179.3680  139.4840 N   0  0  0  0  0  2  0  0  0  0  0  0
  185.3310  178.9940  140.8360 C   0  0  0  0  0  2  0  0  0  0  0  0
  184.1450  178.4120  141.5750 C   0  0  0  0  0  1  0  0  0  0  0  0
  193.8910  174.8040  137.4770 C   0  0  0  0  0  2  0  0  0  0  0  0
  195.5130  174.0010  138.7380 C   0  0  0  0  0  1  0  0  0  0  0  0
  195.0190  175.1900  138.2010 O   0  0  0  0  0  0  0  0  0  0  0  0
  1  4  1  6  0  0  0
  2  6  1  0  0  0  0
  2  5  1  0  0  0  0
  3 18  1  0  0  0  0
  3 13  1  0  0  0  0
  5  1  1  0  0  0  0
  5 16  1  0  0  0  0
  6 15  1  0  0  0  0
  6 12  1  0  0  0  0
  7  3  1  0  0  0  0
  8 25  2  0  0  0  0
  9  2  1  0  0  0  0
  9 20  1  0  0  0  0
 11 25  1  0  0  0  0
 11 15  1  0  0  0  0
 12 24  1  0  0  0  0
 13 30  1  0  0  0  0
 13 17  1  0  0  0  0
 14  4  1  0  0  0  0
 17 14  1  0  0  0  0
 18 22  1  0  0  0  0
 19 18  1  0  0  0  0
 20  1  1  0  0  0  0
 21 12  1  0  0  0  0
 22 20  1  0  0  0  0
 22 14  1  0  0  0  0
 23 26  1  0  0  0  0
 23  9  1  0  0  0  0
 23 11  1  0  0  0  0
 24 16  1  0  0  0  0
 24 27  1  0  0  0  0
 25 10  1  0  0  0  0
 26  8  1  0  0  0  0
 27 28  1  0  0  0  0
 28 29  1  0  0  0  0
 30 32  1  0  0  0  0
 32 31  1  0  0  0  0
M  END
>  <MODEL>
8

>  <REMARK>
 VINA RESULT:      -5.2      4.444      5.950
  Name = 
  4 active torsions:
  status: ('A' for Active; 'I' for Inactive)
    1  A    between atoms: N_14  and  C_21
    2  A    between atoms: N_14  and  C_29
    3  A    between atoms: C_15  and  C_19
    4  A    between atoms: C_19  and  O_26
                            x       y       z     vdW  Elec       q    Type
                         _______ _______ _______ _____ _____    ______ ____

>  <TORSDO>
F 4

$$$$
=
 OpenBabel10262421023D

 32 37  0  0  1  0  0  0  0  0999 V2000
  184.5380  175.3880  137.7830 C   0  0  1  0  0  3  0  0  0  0  0  0
  185.0630  177.6240  136.9970 C   0  0  2  0  0  3  0  0  0  0  0  0
  180.2460  175.5410  135.9820 C   0  0  1  0  0  3  0  0  0  0  0  0
  184.0380  174.1180  137.1190 C   0  0  0  0  0  2  0  0  0  0  0  0
  185.4500  176.1510  136.8490 C   0  0  1  0  0  3  0  0  0  0  0  0
  186.0310  178.4310  137.8910 C   0  0  2  0  0  3  0  0  0  0  0  0
  179.7020  176.0530  134.8040 O   0  0  0  0  0  1  0  0  0  0  0  0
  182.7720  178.2530  140.9460 N   0  0  0  0  0  0  0  0  0  0  0  0
  183.6540  177.5910  137.6050 C   0  0  1  0  0  3  0  0  0  0  0  0
  184.8530  178.7030  142.0450 C   0  0  0  0  0  1  0  0  0  0  0  0
  184.6530  178.9250  139.5930 C   0  0  1  0  0  3  0  0  0  0  0  0
  187.5180  178.2520  137.5580 C   0  0  2  0  0  3  0  0  0  0  0  0
  180.4200  174.0140  135.8670 C   0  0  1  0  0  3  0  0  0  0  0  0
  182.5410  174.1310  137.2860 C   0  0  2  0  0  3  0  0  0  0  0  0
  185.7740  178.1450  139.2390 O   0  0  0  0  0  0  0  0  0  0  0  0
  186.9070  175.8250  137.1790 C   0  0  0  0  0  2  0  0  0  0  0  0
  181.8730  173.5530  136.0300 C   0  0  0  0  0  2  0  0  0  0  0  0
  181.5260  176.2970  136.3590 C   0  0  2  0  0  3  0  0  0  0  0  0
  182.3990  176.3540  135.2670 O   0  0  0  0  0  1  0  0  0  0  0  0
  183.3970  176.2380  138.1240 N   0  0  1  0  0  0  0  0  0  0  0  0
  187.9710  179.3600  136.8440 O   0  0  0  0  0  1  0  0  0  0  0  0
  182.1930  175.5930  137.5650 C   0  0  2  0  0  3  0  0  0  0  0  0
  183.4210  178.6760  138.6830 C   0  0  2  0  0  3  0  0  0  0  0  0
  187.8200  176.9730  136.7660 C   0  0  2  0  0  3  0  0  0  0  0  0
  184.1560  178.5390  140.9300 C   0  0  0  0  0  0  0  0  0  0  0  0
  182.2330  178.3600  139.6030 C   0  0  0  0  0  2  0  0  0  0  0  0
  189.2350  176.6020  136.8410 N   0  0  0  0  0  2  0  0  0  0  0  0
  189.7000  176.6100  138.2250 C   0  0  0  0  0  2  0  0  0  0  0  0
  191.1660  176.2370  138.2660 C   0  0  0  0  0  1  0  0  0  0  0  0
  179.5230  173.2980  136.8640 C   0  0  0  0  0  2  0  0  0  0  0  0
  179.2330  173.7520  139.0030 C   0  0  0  0  0  1  0  0  0  0  0  0
  178.9310  174.2210  137.7250 O   0  0  0  0  0  0  0  0  0  0  0  0
  1  4  1  6  0  0  0
  1 20  1  0  0  0  0
  2  9  1  0  0  0  0
  2  6  1  0  0  0  0
  3 18  1  0  0  0  0
  4 14  1  0  0  0  0
  5  2  1  0  0  0  0
  5 16  1  0  0  0  0
  5  1  1  0  0  0  0
  6 15  1  0  0  0  0
  7  3  1  0  0  0  0
  9 20  1  0  0  0  0
  9 23  1  0  0  0  0
 11 25  1  0  0  0  0
 12  6  1  0  0  0  0
 13  3  1  0  0  0  0
 13 17  1  0  0  0  0
 13 30  1  0  0  0  0
 14 22  1  0  0  0  0
 15 11  1  0  0  0  0
 17 14  1  0  0  0  0
 18 22  1  0  0  0  0
 19 18  1  0  0  0  0
 21 12  1  0  0  0  0
 22 20  1  0  0  0  0
 23 11  1  0  0  0  0
 23 26  1  0  0  0  0
 24 27  1  0  0  0  0
 24 16  1  0  0  0  0
 24 12  1  0  0  0  0
 25  8  2  0  0  0  0
 25 10  1  0  0  0  0
 26  8  1  0  0  0  0
 27 28  1  0  0  0  0
 28 29  1  0  0  0  0
 30 32  1  0  0  0  0
 32 31  1  0  0  0  0
M  END
>  <MODEL>
9

>  <REMARK>
 VINA RESULT:      -5.1      4.559      9.491
  Name = 
  4 active torsions:
  status: ('A' for Active; 'I' for Inactive)
    1  A    between atoms: N_14  and  C_21
    2  A    between atoms: N_14  and  C_29
    3  A    between atoms: C_15  and  C_19
    4  A    between atoms: C_19  and  O_26
                            x       y       z     vdW  Elec       q    Type
                         _______ _______ _______ _____ _____    ______ ____

>  <TORSDO>
F 4

$$$$
