=
 OpenBabel10262420533D

 28 30  0  0  1  0  0  0  0  0999 V2000
  189.7840  177.2780  138.5800 N   0  0  0  0  0  0  0  0  0  0  0  0
  189.3630  177.3670  141.0430 C   0  0  1  0  0  3  0  0  0  0  0  0
  191.1990  176.0970  140.0800 O   0  0  0  0  0  1  0  0  0  0  0  0
  187.8670  178.4050  139.7050 C   0  0  0  0  0  2  0  0  0  0  0  0
  188.6220  178.5510  140.8820 O   0  0  0  0  0  0  0  0  0  0  0  0
  188.7870  178.3610  138.4790 C   0  0  0  0  0  2  0  0  0  0  0  0
  190.4090  177.2420  139.9210 C   0  0  1  0  0  3  0  0  0  0  0  0
  185.0120  179.1940  143.9740 C   0  0  0  0  0  1  0  0  0  0  0  0
  191.2630  177.3810  142.4820 O   0  0  0  0  0  0  0  0  0  0  0  0
  187.6190  177.4650  145.8890 C   0  0  2  0  0  3  0  0  0  0  0  0
  187.7330  177.2150  143.4670 C   0  0  0  0  0  2  0  0  0  0  0  0
  185.5140  178.2230  146.2060 C   0  0  0  0  0  0  0  0  0  0  0  0
  187.1240  178.0370  144.5820 C   0  0  1  0  0  3  0  0  0  0  0  0
  189.8480  177.1070  144.8950 C   0  0  0  0  0  2  0  0  0  0  0  0
  186.7370  178.0080  146.8980 N   0  0  0  0  0  2  0  0  0  0  0  0
  189.0850  177.8100  146.0370 C   0  0  0  0  0  2  0  0  0  0  0  0
  190.0040  177.3540  142.3970 C   0  0  0  0  0  0  0  0  0  0  0  0
  184.4440  178.5190  146.8040 O   0  0  0  0  0  0  0  0  0  0  0  0
  185.6150  178.0270  144.7290 C   0  0  2  0  0  3  0  0  0  0  0  0
  189.1980  177.3060  143.5860 N   0  0  0  0  0  0  0  0  0  0  0  0
  189.2600  175.9670  138.1320 C   0  0  1  0  0  3  0  0  0  0  0  0
  187.9180  176.0480  137.4160 C   0  0  0  0  0  1  0  0  0  0  0  0
  190.2730  175.2280  137.2690 C   0  0  0  0  0  2  0  0  0  0  0  0
  190.8950  176.1610  135.0690 C   0  0  0  0  0  1  0  0  0  0  0  0
  191.1960  176.2020  136.5530 C   0  0  2  0  0  3  0  0  0  0  0  0
  192.6260  175.8250  136.7870 C   0  0  0  0  0  0  0  0  0  0  0  0
  193.0550  174.7080  136.3900 O   0  0  0  0  0  0  0  0  0  0  0  0
  193.5080  176.7230  137.4630 N   0  0  0  0  0  1  0  0  0  0  0  0
  1  7  1  0  0  0  0
  2 17  1  1  0  0  0
  4  5  1  0  0  0  0
  5  2  1  0  0  0  0
  6  1  1  0  0  0  0
  6  4  1  0  0  0  0
  7  3  1  1  0  0  0
  7  2  1  0  0  0  0
 10 16  1  1  0  0  0
 10 15  1  0  0  0  0
 11 20  1  0  0  0  0
 12 18  2  0  0  0  0
 12 15  1  0  0  0  0
 13 11  1  6  0  0  0
 13 19  1  0  0  0  0
 13 10  1  0  0  0  0
 14 16  1  0  0  0  0
 17  9  2  0  0  0  0
 17 20  1  0  0  0  0
 19  8  1  6  0  0  0
 19 12  1  0  0  0  0
 20 14  1  0  0  0  0
 21 22  1  6  0  0  0
 21  1  1  0  0  0  0
 23 21  1  0  0  0  0
 25 24  1  6  0  0  0
 25 26  1  0  0  0  0
 25 23  1  0  0  0  0
 26 28  1  0  0  0  0
 27 26  2  0  0  0  0
M  END
>  <MODEL>
1

>  <REMARK>
 VINA RESULT:      -7.9      0.000      0.000
  Name = 
  5 active torsions:
  status: ('A' for Active; 'I' for Inactive)
    1  A    between atoms: N_1  and  C_2
    2  A    between atoms: C_2  and  C_3
    3  A    between atoms: C_3  and  C_11
    4  A    between atoms: C_6  and  C_11
    5  A    between atoms: C_16  and  C_20
                            x       y       z     vdW  Elec       q    Type
                         _______ _______ _______ _____ _____    ______ ____

>  <TORSDO>
F 5

$$$$
=
 OpenBabel10262420533D

 28 30  0  0  1  0  0  0  0  0999 V2000
  189.6340  176.6370  137.1570 N   0  0  0  0  0  0  0  0  0  0  0  0
  189.8430  177.3290  139.5500 C   0  0  1  0  0  3  0  0  0  0  0  0
  190.9450  175.3510  138.6650 O   0  0  0  0  0  1  0  0  0  0  0  0
  188.4530  178.5430  138.2450 C   0  0  0  0  0  2  0  0  0  0  0  0
  189.4700  178.6420  139.2120 O   0  0  0  0  0  0  0  0  0  0  0  0
  189.0080  177.9560  136.9410 C   0  0  0  0  0  2  0  0  0  0  0  0
  190.5140  176.6440  138.3460 C   0  0  1  0  0  3  0  0  0  0  0  0
  185.9910  178.3720  143.4140 C   0  0  0  0  0  1  0  0  0  0  0  0
  191.9810  177.5630  140.5780 O   0  0  0  0  0  0  0  0  0  0  0  0
  189.1490  176.9680  144.6420 C   0  0  2  0  0  3  0  0  0  0  0  0
  188.7900  176.8380  142.2340 C   0  0  0  0  0  2  0  0  0  0  0  0
  187.0720  177.3940  145.4260 C   0  0  0  0  0  0  0  0  0  0  0  0
  188.3200  177.5150  143.5040 C   0  0  1  0  0  3  0  0  0  0  0  0
  191.1490  176.9840  143.1990 C   0  0  0  0  0  2  0  0  0  0  0  0
  188.4310  177.3330  145.8430 N   0  0  0  0  0  2  0  0  0  0  0  0
  190.5530  177.5180  144.5180 C   0  0  0  0  0  2  0  0  0  0  0  0
  190.7480  177.3540  140.7450 C   0  0  0  0  0  0  0  0  0  0  0  0
  186.1210  177.5040  146.2450 O   0  0  0  0  0  0  0  0  0  0  0  0
  186.8900  177.2770  143.9480 C   0  0  2  0  0  3  0  0  0  0  0  0
  190.2200  177.1380  142.0650 N   0  0  0  0  0  0  0  0  0  0  0  0
  188.6570  175.5250  137.1460 C   0  0  1  0  0  3  0  0  0  0  0  0
  187.2040  175.9760  137.2090 C   0  0  0  0  0  1  0  0  0  0  0  0
  188.8710  174.6070  135.9500 C   0  0  0  0  0  2  0  0  0  0  0  0
  190.4270  172.7570  135.4490 C   0  0  0  0  0  1  0  0  0  0  0  0
  189.3430  173.2310  136.3940 C   0  0  2  0  0  3  0  0  0  0  0  0
  188.2010  172.2620  136.3750 C   0  0  0  0  0  0  0  0  0  0  0  0
  187.3110  172.3210  137.2660 O   0  0  0  0  0  0  0  0  0  0  0  0
  188.1170  171.2650  135.3560 N   0  0  0  0  0  1  0  0  0  0  0  0
  1  7  1  0  0  0  0
  2 17  1  1  0  0  0
  4  5  1  0  0  0  0
  5  2  1  0  0  0  0
  6  1  1  0  0  0  0
  6  4  1  0  0  0  0
  7  3  1  1  0  0  0
  7  2  1  0  0  0  0
  9 17  2  0  0  0  0
 10 16  1  1  0  0  0
 10 15  1  0  0  0  0
 12 15  1  0  0  0  0
 12 18  2  0  0  0  0
 13 11  1  6  0  0  0
 13 19  1  0  0  0  0
 13 10  1  0  0  0  0
 14 16  1  0  0  0  0
 17 20  1  0  0  0  0
 19  8  1  6  0  0  0
 19 12  1  0  0  0  0
 20 11  1  0  0  0  0
 20 14  1  0  0  0  0
 21  1  1  0  0  0  0
 21 22  1  6  0  0  0
 23 25  1  0  0  0  0
 23 21  1  0  0  0  0
 25 24  1  6  0  0  0
 26 25  1  0  0  0  0
 26 27  2  0  0  0  0
 28 26  1  0  0  0  0
M  END
>  <MODEL>
2

>  <REMARK>
 VINA RESULT:      -7.6      2.390      2.875
  Name = 
  5 active torsions:
  status: ('A' for Active; 'I' for Inactive)
    1  A    between atoms: N_1  and  C_2
    2  A    between atoms: C_2  and  C_3
    3  A    between atoms: C_3  and  C_11
    4  A    between atoms: C_6  and  C_11
    5  A    between atoms: C_16  and  C_20
                            x       y       z     vdW  Elec       q    Type
                         _______ _______ _______ _____ _____    ______ ____

>  <TORSDO>
F 5

$$$$
=
 OpenBabel10262420533D

 28 30  0  0  1  0  0  0  0  0999 V2000
  190.5220  176.2860  141.5800 N   0  0  0  0  0  0  0  0  0  0  0  0
  190.2770  177.5550  143.7200 C   0  0  1  0  0  3  0  0  0  0  0  0
  188.8970  175.6270  143.1840 O   0  0  0  0  0  1  0  0  0  0  0  0
  191.7500  178.3620  142.2080 C   0  0  0  0  0  2  0  0  0  0  0  0
  191.5770  178.0710  143.5720 O   0  0  0  0  0  0  0  0  0  0  0  0
  191.7560  177.0700  141.3810 C   0  0  0  0  0  2  0  0  0  0  0  0
  190.1660  176.1920  143.0130 C   0  0  1  0  0  3  0  0  0  0  0  0
  185.2360  179.8790  143.5100 C   0  0  0  0  0  1  0  0  0  0  0  0
  190.8710  177.3200  146.0170 O   0  0  0  0  0  0  0  0  0  0  0  0
  185.9280  177.8230  146.4670 C   0  0  2  0  0  3  0  0  0  0  0  0
  187.4920  177.5830  144.6130 C   0  0  0  0  0  2  0  0  0  0  0  0
  184.1580  178.8320  145.4890 C   0  0  0  0  0  0  0  0  0  0  0  0
  186.4020  178.4640  145.1850 C   0  0  1  0  0  3  0  0  0  0  0  0
  188.2490  177.2010  147.0220 C   0  0  0  0  0  2  0  0  0  0  0  0
  184.6650  178.4610  146.7650 N   0  0  0  0  0  2  0  0  0  0  0  0
  187.0120  177.9820  147.5110 C   0  0  0  0  0  2  0  0  0  0  0  0
  189.9390  177.4490  145.1760 C   0  0  0  0  0  0  0  0  0  0  0  0
  182.9810  179.2530  145.3290 O   0  0  0  0  0  0  0  0  0  0  0  0
  185.1330  178.6400  144.3750 C   0  0  2  0  0  3  0  0  0  0  0  0
  188.5690  177.4910  145.6120 N   0  0  0  0  0  0  0  0  0  0  0  0
  189.4060  176.7370  140.7180 C   0  0  1  0  0  3  0  0  0  0  0  0
  188.7440  178.0260  141.1850 C   0  0  0  0  0  1  0  0  0  0  0  0
  189.8410  176.8650  139.2640 C   0  0  0  0  0  2  0  0  0  0  0  0
  188.3890  175.8700  137.5330 C   0  0  0  0  0  1  0  0  0  0  0  0
  188.6470  177.1150  138.3560 C   0  0  2  0  0  3  0  0  0  0  0  0
  188.9250  178.2710  137.4440 C   0  0  0  0  0  0  0  0  0  0  0  0
  188.9990  179.4390  137.9140 O   0  0  0  0  0  0  0  0  0  0  0  0
  189.1000  178.0590  136.0430 N   0  0  0  0  0  1  0  0  0  0  0  0
  1  7  1  0  0  0  0
  2 17  1  1  0  0  0
  4  5  1  0  0  0  0
  5  2  1  0  0  0  0
  6  1  1  0  0  0  0
  6  4  1  0  0  0  0
  7  3  1  6  0  0  0
  7  2  1  0  0  0  0
 10 15  1  0  0  0  0
 10 16  1  1  0  0  0
 11 20  1  0  0  0  0
 12 15  1  0  0  0  0
 13 11  1  6  0  0  0
 13 10  1  0  0  0  0
 14 16  1  0  0  0  0
 17 20  1  0  0  0  0
 17  9  2  0  0  0  0
 18 12  2  0  0  0  0
 19  8  1  6  0  0  0
 19 13  1  0  0  0  0
 19 12  1  0  0  0  0
 20 14  1  0  0  0  0
 21 22  1  1  0  0  0
 21  1  1  0  0  0  0
 23 21  1  0  0  0  0
 25 24  1  6  0  0  0
 25 23  1  0  0  0  0
 26 27  2  0  0  0  0
 26 25  1  0  0  0  0
 28 26  1  0  0  0  0
M  END
>  <MODEL>
3

>  <REMARK>
 VINA RESULT:      -7.5      2.453      3.270
  Name = 
  5 active torsions:
  status: ('A' for Active; 'I' for Inactive)
    1  A    between atoms: N_1  and  C_2
    2  A    between atoms: C_2  and  C_3
    3  A    between atoms: C_3  and  C_11
    4  A    between atoms: C_6  and  C_11
    5  A    between atoms: C_16  and  C_20
                            x       y       z     vdW  Elec       q    Type
                         _______ _______ _______ _____ _____    ______ ____

>  <TORSDO>
F 5

$$$$
=
 OpenBabel10262420533D

 28 30  0  0  1  0  0  0  0  0999 V2000
  188.3150  177.0100  138.2800 N   0  0  0  0  0  0  0  0  0  0  0  0
  190.6110  177.0080  139.2680 C   0  0  1  0  0  3  0  0  0  0  0  0
  188.9770  178.7350  139.7730 O   0  0  0  0  0  1  0  0  0  0  0  0
  190.1440  175.4020  137.7480 C   0  0  0  0  0  2  0  0  0  0  0  0
  190.7330  175.6320  139.0040 O   0  0  0  0  0  0  0  0  0  0  0  0
  188.6310  175.6460  137.8130 C   0  0  0  0  0  2  0  0  0  0  0  0
  189.1300  177.3800  139.4580 C   0  0  1  0  0  3  0  0  0  0  0  0
  186.4210  177.8130  142.8260 C   0  0  0  0  0  1  0  0  0  0  0  0
  192.6080  177.7790  140.3160 O   0  0  0  0  0  0  0  0  0  0  0  0
  189.7090  177.2110  144.3360 C   0  0  2  0  0  3  0  0  0  0  0  0
  189.5160  176.6920  141.9620 C   0  0  0  0  0  2  0  0  0  0  0  0
  187.5490  177.3370  144.9890 C   0  0  0  0  0  0  0  0  0  0  0  0
  188.8590  177.4320  143.1080 C   0  0  1  0  0  3  0  0  0  0  0  0
  191.7510  177.4110  142.9670 C   0  0  0  0  0  2  0  0  0  0  0  0
  188.8700  177.5910  145.4510 N   0  0  0  0  0  2  0  0  0  0  0  0
  190.9930  177.9950  144.1770 C   0  0  0  0  0  2  0  0  0  0  0  0
  191.4270  177.3640  140.4740 C   0  0  0  0  0  0  0  0  0  0  0  0
  186.5490  177.3740  145.7550 O   0  0  0  0  0  0  0  0  0  0  0  0
  187.4750  176.9900  143.5380 C   0  0  2  0  0  3  0  0  0  0  0  0
  190.8750  177.2320  141.7940 N   0  0  0  0  0  0  0  0  0  0  0  0
  188.3480  178.0150  137.1930 C   0  0  1  0  0  3  0  0  0  0  0  0
  188.9870  177.5130  135.9040 C   0  0  0  0  0  1  0  0  0  0  0  0
  186.9600  178.5740  136.9080 C   0  0  0  0  0  2  0  0  0  0  0  0
  184.9770  177.1880  136.4190 C   0  0  0  0  0  1  0  0  0  0  0  0
  185.8810  177.6960  137.5230 C   0  0  2  0  0  3  0  0  0  0  0  0
  185.0750  178.4830  138.5100 C   0  0  0  0  0  0  0  0  0  0  0  0
  185.6420  179.0160  139.5020 O   0  0  0  0  0  0  0  0  0  0  0  0
  183.6650  178.6290  138.3390 N   0  0  0  0  0  1  0  0  0  0  0  0
  1  7  1  0  0  0  0
  2  7  1  0  0  0  0
  2 17  1  1  0  0  0
  4  6  1  0  0  0  0
  4  5  1  0  0  0  0
  5  2  1  0  0  0  0
  6  1  1  0  0  0  0
  7  3  1  6  0  0  0
  9 17  2  0  0  0  0
 10 16  1  6  0  0  0
 10 15  1  0  0  0  0
 12 15  1  0  0  0  0
 12 18  2  0  0  0  0
 13 11  1  6  0  0  0
 13 19  1  0  0  0  0
 13 10  1  0  0  0  0
 14 16  1  0  0  0  0
 17 20  1  0  0  0  0
 19  8  1  6  0  0  0
 19 12  1  0  0  0  0
 20 11  1  0  0  0  0
 20 14  1  0  0  0  0
 21 22  1  6  0  0  0
 21  1  1  0  0  0  0
 23 21  1  0  0  0  0
 23 25  1  0  0  0  0
 25 24  1  6  0  0  0
 25 26  1  0  0  0  0
 26 27  2  0  0  0  0
 28 26  1  0  0  0  0
M  END
>  <MODEL>
4

>  <REMARK>
 VINA RESULT:      -7.3      2.189      4.227
  Name = 
  5 active torsions:
  status: ('A' for Active; 'I' for Inactive)
    1  A    between atoms: N_1  and  C_2
    2  A    between atoms: C_2  and  C_3
    3  A    between atoms: C_3  and  C_11
    4  A    between atoms: C_6  and  C_11
    5  A    between atoms: C_16  and  C_20
                            x       y       z     vdW  Elec       q    Type
                         _______ _______ _______ _____ _____    ______ ____

>  <TORSDO>
F 5

$$$$
=
 OpenBabel10262420533D

 28 30  0  0  1  0  0  0  0  0999 V2000
  184.7830  178.2060  138.3280 N   0  0  0  0  0  0  0  0  0  0  0  0
  186.4180  178.2750  140.2190 C   0  0  1  0  0  3  0  0  0  0  0  0
  186.9290  177.2140  138.0930 O   0  0  0  0  0  1  0  0  0  0  0  0
  184.3570  179.1190  140.6080 C   0  0  0  0  0  2  0  0  0  0  0  0
  185.7300  179.3640  140.7840 O   0  0  0  0  0  0  0  0  0  0  0  0
  183.9900  179.1670  139.1190 C   0  0  0  0  0  2  0  0  0  0  0  0
  186.2160  178.2580  138.6930 C   0  0  1  0  0  3  0  0  0  0  0  0
  185.8240  178.4290  145.7400 C   0  0  0  0  0  1  0  0  0  0  0  0
  188.6980  178.7580  139.7220 O   0  0  0  0  0  0  0  0  0  0  0  0
  189.1360  177.4400  144.5140 C   0  0  2  0  0  3  0  0  0  0  0  0
  187.3430  177.4330  142.8630 C   0  0  0  0  0  2  0  0  0  0  0  0
  188.0030  177.4840  146.4690 C   0  0  0  0  0  0  0  0  0  0  0  0
  187.7370  177.9350  144.2350 C   0  0  1  0  0  3  0  0  0  0  0  0
  189.7610  177.8680  142.1670 C   0  0  0  0  0  2  0  0  0  0  0  0
  189.3180  177.6010  145.9390 N   0  0  0  0  0  2  0  0  0  0  0  0
  190.0990  178.2070  143.6330 C   0  0  0  0  0  2  0  0  0  0  0  0
  187.8690  178.3510  140.5820 C   0  0  0  0  0  0  0  0  0  0  0  0
  187.7820  177.3860  147.7060 O   0  0  0  0  0  0  0  0  0  0  0  0
  186.9350  177.4480  145.4260 C   0  0  2  0  0  3  0  0  0  0  0  0
  188.3150  177.9610  141.8920 N   0  0  0  0  0  0  0  0  0  0  0  0
  184.2140  176.8390  138.3400 C   0  0  1  0  0  3  0  0  0  0  0  0
  182.9780  176.6900  139.2170 C   0  0  0  0  0  1  0  0  0  0  0  0
  183.9210  176.3450  136.9300 C   0  0  0  0  0  2  0  0  0  0  0  0
  184.7250  174.8930  135.1030 C   0  0  0  0  0  1  0  0  0  0  0  0
  184.7460  175.1100  136.6010 C   0  0  2  0  0  3  0  0  0  0  0  0
  184.1760  173.9090  137.2910 C   0  0  0  0  0  0  0  0  0  0  0  0
  184.9300  173.1520  137.9600 O   0  0  0  0  0  0  0  0  0  0  0  0
  182.7830  173.6130  137.1910 N   0  0  0  0  0  1  0  0  0  0  0  0
  1 21  1  0  0  0  0
  1  7  1  0  0  0  0
  1  6  1  0  0  0  0
  2 17  1  6  0  0  0
  2  5  1  0  0  0  0
  4  5  1  0  0  0  0
  6  4  1  0  0  0  0
  7  3  1  1  0  0  0
  7  2  1  0  0  0  0
  9 17  2  0  0  0  0
 10 16  1  6  0  0  0
 10 15  1  0  0  0  0
 12 18  2  0  0  0  0
 13 11  1  6  0  0  0
 13 10  1  0  0  0  0
 13 19  1  0  0  0  0
 14 16  1  0  0  0  0
 15 12  1  0  0  0  0
 17 20  1  0  0  0  0
 19  8  1  1  0  0  0
 19 12  1  0  0  0  0
 20 14  1  0  0  0  0
 20 11  1  0  0  0  0
 21 22  1  1  0  0  0
 23 21  1  0  0  0  0
 25 24  1  6  0  0  0
 25 23  1  0  0  0  0
 25 26  1  0  0  0  0
 26 27  2  0  0  0  0
 28 26  1  0  0  0  0
M  END
>  <MODEL>
5

>  <REMARK>
 VINA RESULT:      -7.2      3.536      4.855
  Name = 
  5 active torsions:
  status: ('A' for Active; 'I' for Inactive)
    1  A    between atoms: N_1  and  C_2
    2  A    between atoms: C_2  and  C_3
    3  A    between atoms: C_3  and  C_11
    4  A    between atoms: C_6  and  C_11
    5  A    between atoms: C_16  and  C_20
                            x       y       z     vdW  Elec       q    Type
                         _______ _______ _______ _____ _____    ______ ____

>  <TORSDO>
F 5

$$$$
=
 OpenBabel10262420533D

 28 30  0  0  1  0  0  0  0  0999 V2000
  189.0600  178.3160  142.6840 N   0  0  0  0  0  0  0  0  0  0  0  0
  189.3360  177.6310  140.2950 C   0  0  1  0  0  3  0  0  0  0  0  0
  187.2900  178.6420  141.1330 O   0  0  0  0  0  1  0  0  0  0  0  0
  191.0270  177.1360  141.7100 C   0  0  0  0  0  2  0  0  0  0  0  0
  190.7340  177.6620  140.4400 O   0  0  0  0  0  0  0  0  0  0  0  0
  190.5090  178.0710  142.8100 C   0  0  0  0  0  2  0  0  0  0  0  0
  188.6810  178.6110  141.2850 C   0  0  1  0  0  3  0  0  0  0  0  0
  193.1750  174.5030  137.7780 C   0  0  0  0  0  1  0  0  0  0  0  0
  188.3160  179.0030  138.6340 O   0  0  0  0  0  0  0  0  0  0  0  0
  190.3000  175.4740  135.7180 C   0  0  2  0  0  3  0  0  0  0  0  0
  190.0530  175.8130  138.1190 C   0  0  0  0  0  2  0  0  0  0  0  0
  192.0620  174.0640  135.6000 C   0  0  0  0  0  0  0  0  0  0  0  0
  191.0620  175.5640  137.0180 C   0  0  1  0  0  3  0  0  0  0  0  0
  188.8160  177.3020  136.4530 C   0  0  0  0  0  2  0  0  0  0  0  0
  191.2190  174.8660  134.7820 N   0  0  0  0  0  2  0  0  0  0  0  0
  189.8050  176.8580  135.3560 C   0  0  0  0  0  2  0  0  0  0  0  0
  188.9670  177.9490  138.8780 C   0  0  0  0  0  0  0  0  0  0  0  0
  192.8780  173.2340  135.1160 O   0  0  0  0  0  0  0  0  0  0  0  0
  191.8580  174.2750  137.0640 C   0  0  2  0  0  3  0  0  0  0  0  0
  189.3450  177.0660  137.8090 N   0  0  0  0  0  0  0  0  0  0  0  0
  188.2380  177.2550  143.3120 C   0  0  1  0  0  3  0  0  0  0  0  0
  188.8470  175.8630  143.2190 C   0  0  0  0  0  1  0  0  0  0  0  0
  187.9100  177.5900  144.7610 C   0  0  0  0  0  2  0  0  0  0  0  0
  185.6850  178.2530  143.9200 C   0  0  0  0  0  1  0  0  0  0  0  0
  186.4130  177.5030  145.0160 C   0  0  2  0  0  3  0  0  0  0  0  0
  186.0800  178.1070  146.3460 C   0  0  0  0  0  0  0  0  0  0  0  0
  186.9540  178.1520  147.2530 O   0  0  0  0  0  0  0  0  0  0  0  0
  184.7740  178.6280  146.5950 N   0  0  0  0  0  1  0  0  0  0  0  0
  1  6  1  0  0  0  0
  1 21  1  0  0  0  0
  2 17  1  6  0  0  0
  2  5  1  0  0  0  0
  2  7  1  0  0  0  0
  4  6  1  0  0  0  0
  5  4  1  0  0  0  0
  7  3  1  1  0  0  0
  7  1  1  0  0  0  0
  9 17  2  0  0  0  0
 10 16  1  6  0  0  0
 10 13  1  0  0  0  0
 12 19  1  0  0  0  0
 13 19  1  0  0  0  0
 13 11  1  1  0  0  0
 14 20  1  0  0  0  0
 15 12  1  0  0  0  0
 15 10  1  0  0  0  0
 16 14  1  0  0  0  0
 18 12  2  0  0  0  0
 19  8  1  1  0  0  0
 20 11  1  0  0  0  0
 20 17  1  0  0  0  0
 21 22  1  1  0  0  0
 21 23  1  0  0  0  0
 23 25  1  0  0  0  0
 25 24  1  6  0  0  0
 25 26  1  0  0  0  0
 26 28  1  0  0  0  0
 26 27  2  0  0  0  0
M  END
>  <MODEL>
6

>  <REMARK>
 VINA RESULT:      -7.1      1.623      8.891
  Name = 
  5 active torsions:
  status: ('A' for Active; 'I' for Inactive)
    1  A    between atoms: N_1  and  C_2
    2  A    between atoms: C_2  and  C_3
    3  A    between atoms: C_3  and  C_11
    4  A    between atoms: C_6  and  C_11
    5  A    between atoms: C_16  and  C_20
                            x       y       z     vdW  Elec       q    Type
                         _______ _______ _______ _____ _____    ______ ____

>  <TORSDO>
F 5

$$$$
=
 OpenBabel10262420533D

 28 30  0  0  1  0  0  0  0  0999 V2000
  184.1780  178.1200  138.3010 N   0  0  0  0  0  0  0  0  0  0  0  0
  183.3300  177.7210  140.6190 C   0  0  1  0  0  3  0  0  0  0  0  0
  184.9150  179.4880  140.0980 O   0  0  0  0  0  1  0  0  0  0  0  0
  182.6750  176.2650  139.0190 C   0  0  0  0  0  2  0  0  0  0  0  0
  182.2160  177.0350  140.1020 O   0  0  0  0  0  0  0  0  0  0  0  0
  183.1300  177.1750  137.8700 C   0  0  0  0  0  2  0  0  0  0  0  0
  183.8370  178.7520  139.5950 C   0  0  1  0  0  3  0  0  0  0  0  0
  187.6950  176.0030  143.5940 C   0  0  0  0  0  1  0  0  0  0  0  0
  181.7620  178.6920  142.1290 O   0  0  0  0  0  0  0  0  0  0  0  0
  185.8790  178.8910  144.9390 C   0  0  2  0  0  3  0  0  0  0  0  0
  185.3740  178.2970  142.6300 C   0  0  0  0  0  2  0  0  0  0  0  0
  187.8150  177.7880  145.3190 C   0  0  0  0  0  0  0  0  0  0  0  0
  186.0030  177.7920  143.9110 C   0  0  1  0  0  3  0  0  0  0  0  0
  183.6220  179.4280  144.1030 C   0  0  0  0  0  2  0  0  0  0  0  0
  186.8070  178.5330  145.9900 N   0  0  0  0  0  2  0  0  0  0  0  0
  184.4270  179.0030  145.3490 C   0  0  0  0  0  2  0  0  0  0  0  0
  182.9640  178.3700  141.9190 C   0  0  0  0  0  0  0  0  0  0  0  0
  188.8960  177.4610  145.8790 O   0  0  0  0  0  0  0  0  0  0  0  0
  187.4840  177.4720  143.8970 C   0  0  2  0  0  3  0  0  0  0  0  0
  183.9680  178.6260  142.9150 N   0  0  0  0  0  0  0  0  0  0  0  0
  185.5360  177.5320  138.2660 C   0  0  1  0  0  3  0  0  0  0  0  0
  185.7890  176.6280  137.0660 C   0  0  0  0  0  1  0  0  0  0  0  0
  186.6110  178.6070  138.3500 C   0  0  0  0  0  2  0  0  0  0  0  0
  188.2600  178.3870  140.1740 C   0  0  0  0  0  1  0  0  0  0  0  0
  187.9540  178.0090  138.7400 C   0  0  2  0  0  3  0  0  0  0  0  0
  189.0330  178.5310  137.8420 C   0  0  0  0  0  0  0  0  0  0  0  0
  189.0560  179.7530  137.5300 O   0  0  0  0  0  0  0  0  0  0  0  0
  190.0340  177.6510  137.3290 N   0  0  0  0  0  1  0  0  0  0  0  0
  1  7  1  0  0  0  0
  2 17  1  1  0  0  0
  4  5  1  0  0  0  0
  5  2  1  0  0  0  0
  6  1  1  0  0  0  0
  6  4  1  0  0  0  0
  7  3  1  1  0  0  0
  7  2  1  0  0  0  0
 10 16  1  1  0  0  0
 10 15  1  0  0  0  0
 11 20  1  0  0  0  0
 12 18  2  0  0  0  0
 12 15  1  0  0  0  0
 13 11  1  6  0  0  0
 13 10  1  0  0  0  0
 14 16  1  0  0  0  0
 17  9  2  0  0  0  0
 17 20  1  0  0  0  0
 19  8  1  1  0  0  0
 19 13  1  0  0  0  0
 19 12  1  0  0  0  0
 20 14  1  0  0  0  0
 21 22  1  6  0  0  0
 21  1  1  0  0  0  0
 21 23  1  0  0  0  0
 23 25  1  0  0  0  0
 25 24  1  1  0  0  0
 26 25  1  0  0  0  0
 27 26  2  0  0  0  0
 28 26  1  0  0  0  0
M  END
>  <MODEL>
7

>  <REMARK>
 VINA RESULT:      -7.1      3.289      5.221
  Name = 
  5 active torsions:
  status: ('A' for Active; 'I' for Inactive)
    1  A    between atoms: N_1  and  C_2
    2  A    between atoms: C_2  and  C_3
    3  A    between atoms: C_3  and  C_11
    4  A    between atoms: C_6  and  C_11
    5  A    between atoms: C_16  and  C_20
                            x       y       z     vdW  Elec       q    Type
                         _______ _______ _______ _____ _____    ______ ____

>  <TORSDO>
F 5

$$$$
=
 OpenBabel10262420533D

 28 30  0  0  1  0  0  0  0  0999 V2000
  189.4590  177.9320  144.6820 N   0  0  0  0  0  0  0  0  0  0  0  0
  190.4790  177.2990  142.4890 C   0  0  1  0  0  3  0  0  0  0  0  0
  188.3700  176.3700  143.2620 O   0  0  0  0  0  1  0  0  0  0  0  0
  191.6760  178.6780  143.8210 C   0  0  0  0  0  2  0  0  0  0  0  0
  191.2480  178.4770  142.4970 O   0  0  0  0  0  0  0  0  0  0  0  0
  190.4810  178.9960  144.7290 C   0  0  0  0  0  2  0  0  0  0  0  0
  189.1830  177.5090  143.2920 C   0  0  1  0  0  3  0  0  0  0  0  0
  185.1300  178.7870  142.3290 C   0  0  0  0  0  1  0  0  0  0  0  0
  190.9420  176.0460  140.5150 O   0  0  0  0  0  0  0  0  0  0  0  0
  186.7770  178.3860  139.0770 C   0  0  2  0  0  3  0  0  0  0  0  0
  188.2540  178.4920  141.0130 C   0  0  0  0  0  2  0  0  0  0  0  0
  184.8340  179.1980  139.8960 C   0  0  0  0  0  0  0  0  0  0  0  0
  186.8190  178.2760  140.5820 C   0  0  1  0  0  3  0  0  0  0  0  0
  188.9280  177.1900  138.9220 C   0  0  0  0  0  2  0  0  0  0  0  0
  185.3790  178.5590  138.7490 N   0  0  0  0  0  2  0  0  0  0  0  0
  187.4490  177.1650  138.4880 C   0  0  0  0  0  2  0  0  0  0  0  0
  190.1930  176.8930  141.0760 C   0  0  0  0  0  0  0  0  0  0  0  0
  183.6690  179.6790  139.9090 O   0  0  0  0  0  0  0  0  0  0  0  0
  185.7790  179.2740  141.0500 C   0  0  2  0  0  3  0  0  0  0  0  0
  189.0820  177.4630  140.3630 N   0  0  0  0  0  0  0  0  0  0  0  0
  189.7530  176.8080  145.6000 C   0  0  1  0  0  3  0  0  0  0  0  0
  191.1480  176.8540  146.2100 C   0  0  0  0  0  1  0  0  0  0  0  0
  188.7030  176.6950  146.6970 C   0  0  0  0  0  2  0  0  0  0  0  0
  188.1860  178.2870  148.5120 C   0  0  0  0  0  1  0  0  0  0  0  0
  188.1000  178.0540  147.0180 C   0  0  2  0  0  3  0  0  0  0  0  0
  186.6670  178.0990  146.5840 C   0  0  0  0  0  0  0  0  0  0  0  0
  186.2400  177.2680  145.7370 O   0  0  0  0  0  0  0  0  0  0  0  0
  185.7820  179.0840  147.1180 N   0  0  0  0  0  1  0  0  0  0  0  0
  1  6  1  0  0  0  0
  1 21  1  0  0  0  0
  2 17  1  6  0  0  0
  2  5  1  0  0  0  0
  2  7  1  0  0  0  0
  4  6  1  0  0  0  0
  5  4  1  0  0  0  0
  7  3  1  1  0  0  0
  7  1  1  0  0  0  0
  9 17  2  0  0  0  0
 10 16  1  6  0  0  0
 10 13  1  0  0  0  0
 12 18  2  0  0  0  0
 12 19  1  0  0  0  0
 13 11  1  1  0  0  0
 13 19  1  0  0  0  0
 14 20  1  0  0  0  0
 15 10  1  0  0  0  0
 15 12  1  0  0  0  0
 16 14  1  0  0  0  0
 19  8  1  1  0  0  0
 20 11  1  0  0  0  0
 20 17  1  0  0  0  0
 21 22  1  1  0  0  0
 21 23  1  0  0  0  0
 23 25  1  0  0  0  0
 25 24  1  1  0  0  0
 26 25  1  0  0  0  0
 26 28  1  0  0  0  0
 27 26  2  0  0  0  0
M  END
>  <MODEL>
8

>  <REMARK>
 VINA RESULT:      -7.0      2.437      7.341
  Name = 
  5 active torsions:
  status: ('A' for Active; 'I' for Inactive)
    1  A    between atoms: N_1  and  C_2
    2  A    between atoms: C_2  and  C_3
    3  A    between atoms: C_3  and  C_11
    4  A    between atoms: C_6  and  C_11
    5  A    between atoms: C_16  and  C_20
                            x       y       z     vdW  Elec       q    Type
                         _______ _______ _______ _____ _____    ______ ____

>  <TORSDO>
F 5

$$$$
=
 OpenBabel10262420533D

 28 30  0  0  1  0  0  0  0  0999 V2000
  186.9080  178.5740  142.4460 N   0  0  0  0  0  0  0  0  0  0  0  0
  185.7690  178.5160  140.2210 C   0  0  1  0  0  3  0  0  0  0  0  0
  184.5480  178.8050  142.3030 O   0  0  0  0  0  1  0  0  0  0  0  0
  187.9980  178.1380  140.2480 C   0  0  0  0  0  2  0  0  0  0  0  0
  186.9790  178.8450  139.5840 O   0  0  0  0  0  0  0  0  0  0  0  0
  188.1670  178.6590  141.6810 C   0  0  0  0  0  2  0  0  0  0  0  0
  185.7600  179.0720  141.6570 C   0  0  1  0  0  3  0  0  0  0  0  0
  184.6590  173.8950  137.3460 C   0  0  0  0  0  1  0  0  0  0  0  0
  184.4940  180.2880  139.2650 O   0  0  0  0  0  0  0  0  0  0  0  0
  181.9570  176.3710  137.5010 C   0  0  2  0  0  3  0  0  0  0  0  0
  183.7900  176.6930  139.0760 C   0  0  0  0  0  2  0  0  0  0  0  0
  182.2490  174.2300  136.8400 C   0  0  0  0  0  0  0  0  0  0  0  0
  183.3810  175.9740  137.8080 C   0  0  1  0  0  3  0  0  0  0  0  0
  182.4420  178.6820  138.2110 C   0  0  0  0  0  2  0  0  0  0  0  0
  181.4910  175.3950  136.5400 N   0  0  0  0  0  2  0  0  0  0  0  0
  181.9520  177.8110  137.0360 C   0  0  0  0  0  2  0  0  0  0  0  0
  184.6180  179.0420  139.4200 C   0  0  0  0  0  0  0  0  0  0  0  0
  181.9880  173.1070  136.3280 O   0  0  0  0  0  0  0  0  0  0  0  0
  183.3400  174.4590  137.8330 C   0  0  2  0  0  3  0  0  0  0  0  0
  183.6620  178.1400  138.8360 N   0  0  0  0  0  0  0  0  0  0  0  0
  186.6850  177.2390  143.0450 C   0  0  1  0  0  3  0  0  0  0  0  0
  187.9520  176.4090  143.1990 C   0  0  0  0  0  1  0  0  0  0  0  0
  185.9580  177.3410  144.3800 C   0  0  0  0  0  2  0  0  0  0  0  0
  187.6290  177.8500  146.1240 C   0  0  0  0  0  1  0  0  0  0  0  0
  186.5510  178.4440  145.2420 C   0  0  2  0  0  3  0  0  0  0  0  0
  185.4870  179.0610  146.0960 C   0  0  0  0  0  0  0  0  0  0  0  0
  185.7920  179.5850  147.2020 O   0  0  0  0  0  0  0  0  0  0  0  0
  184.1240  179.0540  145.6690 N   0  0  0  0  0  1  0  0  0  0  0  0
  1 21  1  0  0  0  0
  2 17  1  6  0  0  0
  2  7  1  0  0  0  0
  4  6  1  0  0  0  0
  5  2  1  0  0  0  0
  5  4  1  0  0  0  0
  6  1  1  0  0  0  0
  7  3  1  1  0  0  0
  7  1  1  0  0  0  0
  9 17  2  0  0  0  0
 10 16  1  6  0  0  0
 10 13  1  0  0  0  0
 12 19  1  0  0  0  0
 13 19  1  0  0  0  0
 13 11  1  1  0  0  0
 14 20  1  0  0  0  0
 15 12  1  0  0  0  0
 15 10  1  0  0  0  0
 16 14  1  0  0  0  0
 18 12  2  0  0  0  0
 19  8  1  6  0  0  0
 20 11  1  0  0  0  0
 20 17  1  0  0  0  0
 21 22  1  1  0  0  0
 21 23  1  0  0  0  0
 23 25  1  0  0  0  0
 25 26  1  0  0  0  0
 25 24  1  1  0  0  0
 26 27  2  0  0  0  0
 28 26  1  0  0  0  0
M  END
>  <MODEL>
9

>  <REMARK>
 VINA RESULT:      -7.0      4.340      8.772
  Name = 
  5 active torsions:
  status: ('A' for Active; 'I' for Inactive)
    1  A    between atoms: N_1  and  C_2
    2  A    between atoms: C_2  and  C_3
    3  A    between atoms: C_3  and  C_11
    4  A    between atoms: C_6  and  C_11
    5  A    between atoms: C_16  and  C_20
                            x       y       z     vdW  Elec       q    Type
                         _______ _______ _______ _____ _____    ______ ____

>  <TORSDO>
F 5

$$$$
