=
 OpenBabel10262422513D

 37 43  0  0  1  0  0  0  0  0999 V2000
  181.7410  179.0820  140.2270 C   0  0  2  0  0  3  0  0  0  0  0  0
  180.0560  181.1050  138.2060 C   0  0  1  0  0  0  0  0  0  0  0  0
  181.8080  177.8670  136.6770 C   0  0  2  0  0  3  0  0  0  0  0  0
  180.4340  179.2670  141.0340 C   0  0  1  0  0  3  0  0  0  0  0  0
  183.1300  175.3940  138.7260 C   0  0  0  0  0  2  0  0  0  0  0  0
  178.9310  179.4500  136.6300 C   0  0  0  0  0  2  0  0  0  0  0  0
  184.0010  177.1770  140.1560 O   0  0  0  0  0  1  0  0  0  0  0  0
  179.3380  178.4280  140.6930 O   0  0  0  0  0  0  0  0  0  0  0  0
  181.4650  179.1970  137.2870 C   0  0  1  0  0  3  0  0  0  0  0  0
  181.6160  174.8540  136.8330 C   0  0  0  0  0  2  0  0  0  0  0  0
  178.9500  178.7860  135.2700 C   0  0  0  0  0  2  0  0  0  0  0  0
  179.2820  176.0030  140.7380 C   0  0  0  0  0  2  0  0  0  0  0  0
  182.2870  180.3890  139.6170 C   0  0  0  0  0  2  0  0  0  0  0  0
  179.0340  180.6530  139.0400 O   0  0  0  0  0  1  0  0  0  0  0  0
  181.8280  176.4810  134.5940 C   0  0  0  0  0  2  0  0  0  0  0  0
  179.5980  177.4230  135.3720 C   0  0  0  0  0  2  0  0  0  0  0  0
  181.2900  181.4590  139.0890 C   0  0  0  0  0  2  0  0  0  0  0  0
  180.4790  175.7930  139.7990 C   0  0  0  0  0  2  0  0  0  0  0  0
  182.9260  176.7820  139.3610 C   0  0  1  0  0  0  0  0  0  0  0  0
  181.1070  177.5980  135.3460 C   0  0  1  0  0  3  0  0  0  0  0  0
  181.7880  177.8420  139.2890 C   0  0  1  0  0  0  0  0  0  0  0  0
  180.2690  180.1180  137.0150 C   0  0  2  0  0  3  0  0  0  0  0  0
  183.0290  175.3020  137.2060 C   0  0  2  0  0  3  0  0  0  0  0  0
  179.5910  182.4140  137.6020 C   0  0  0  0  0  1  0  0  0  0  0  0
  181.6740  176.6480  140.2250 C   0  0  1  0  0  3  0  0  0  0  0  0
  179.3130  177.3100  141.5430 C   0  0  0  0  0  2  0  0  0  0  0  0
  180.9800  177.9210  137.9710 C   0  0  2  0  0  3  0  0  0  0  0  0
  181.3120  174.7750  135.0310 S   0  0  0  0  0  0  0  0  0  0  0  0
  185.0850  175.1220  135.7480 C   0  0  0  0  0  2  0  0  0  0  0  0
  184.0910  174.3600  136.6270 C   0  0  1  0  0  3  0  0  0  0  0  0
  184.7930  173.5370  137.6810 C   0  0  0  0  0  2  0  0  0  0  0  0
  186.6290  172.3310  138.4410 F   0  0  0  0  0  0  0  0  0  0  0  0
  186.7430  173.4050  136.2840 N   0  0  0  0  0  0  0  0  0  0  0  0
  186.0230  173.0630  137.4760 C   0  0  0  0  0  0  0  0  0  0  0  0
  186.1100  174.1370  135.1910 C   0  0  0  0  0  2  0  0  0  0  0  0
  181.9560  179.3710  143.0510 C   0  0  0  0  0  1  0  0  0  0  0  0
  180.5770  179.6950  142.5010 C   0  0  0  0  0  2  0  0  0  0  0  0
  1 13  1  6  0  0  0
  1  4  1  0  0  0  0
  2 24  1  6  0  0  0
  2 14  1  0  0  0  0
  2 17  1  0  0  0  0
  3  9  1  0  0  0  0
  3 27  1  0  0  0  0
  4 37  1  0  0  0  0
  5 19  1  0  0  0  0
  6 22  1  0  0  0  0
  8  4  1  0  0  0  0
  8 26  1  0  0  0  0
  9 27  1  0  0  0  0
 10 23  1  0  0  0  0
 11 16  1  0  0  0  0
 11  6  1  0  0  0  0
 12 26  1  0  0  0  0
 15 28  1  0  0  0  0
 15 20  1  0  0  0  0
 17 13  1  0  0  0  0
 18 25  1  0  0  0  0
 18 12  1  0  0  0  0
 19  7  1  0  0  0  0
 19 25  1  0  0  0  0
 20 16  1  0  0  0  0
 20  3  1  0  0  0  0
 21 19  1  0  0  0  0
 21 25  1  0  0  0  0
 21  1  1  0  0  0  0
 22  9  1  0  0  0  0
 22  2  1  0  0  0  0
 23  5  1  0  0  0  0
 27 21  1  0  0  0  0
 28 10  1  0  0  0  0
 29 30  1  0  0  0  0
 30 23  1  0  0  0  0
 30 31  1  0  0  0  0
 33 34  2  0  0  0  0
 34 31  1  0  0  0  0
 34 32  1  0  0  0  0
 35 29  1  0  0  0  0
 35 33  1  0  0  0  0
 37 36  1  0  0  0  0
M  END
>  <MODEL>
1

>  <REMARK>
 VINA RESULT:      -4.4      0.000      0.000
  Name = 
  2 active torsions:
  status: ('A' for Active; 'I' for Inactive)
    1  A    between atoms: C_5  and  C_23
    2  A    between atoms: C_6  and  C_31
                            x       y       z     vdW  Elec       q    Type
                         _______ _______ _______ _____ _____    ______ ____

>  <TORSDO>
F 2

$$$$
=
 OpenBabel10262422513D

 37 43  0  0  1  0  0  0  0  0999 V2000
  186.6950  176.0330  135.6580 C   0  0  2  0  0  3  0  0  0  0  0  0
  189.0980  177.2750  137.5810 C   0  0  1  0  0  0  0  0  0  0  0  0
  185.3400  178.4650  138.1740 C   0  0  2  0  0  3  0  0  0  0  0  0
  187.4440  174.7370  136.0500 C   0  0  1  0  0  3  0  0  0  0  0  0
  182.6750  176.8660  136.6240 C   0  0  0  0  0  2  0  0  0  0  0  0
  187.9480  177.3820  139.8510 C   0  0  0  0  0  2  0  0  0  0  0  0
  184.0370  176.7700  134.5940 O   0  0  0  0  0  1  0  0  0  0  0  0
  187.1020  174.1450  137.2960 O   0  0  0  0  0  0  0  0  0  0  0  0
  186.7300  178.1990  137.6680 C   0  0  1  0  0  3  0  0  0  0  0  0
  182.6800  177.3370  139.0620 C   0  0  0  0  0  2  0  0  0  0  0  0
  187.2510  178.2510  140.8750 C   0  0  0  0  0  2  0  0  0  0  0  0
  184.9150  173.3530  137.9900 C   0  0  0  0  0  2  0  0  0  0  0  0
  187.6280  177.2000  135.2760 C   0  0  0  0  0  2  0  0  0  0  0  0
  189.1520  175.9250  137.9290 O   0  0  0  0  0  1  0  0  0  0  0  0
  183.9400  179.6810  139.8540 C   0  0  0  0  0  2  0  0  0  0  0  0
  185.7510  178.1230  140.7230 C   0  0  0  0  0  2  0  0  0  0  0  0
  188.9750  177.3780  136.0310 C   0  0  0  0  0  2  0  0  0  0  0  0
  184.1810  174.6830  137.7670 C   0  0  0  0  0  2  0  0  0  0  0  0
  184.0630  176.6740  135.9840 C   0  0  1  0  0  0  0  0  0  0  0  0
  185.2980  179.0310  139.5930 C   0  0  1  0  0  3  0  0  0  0  0  0
  185.4870  176.4170  136.5590 C   0  0  1  0  0  0  0  0  0  0  0  0
  188.0380  178.0230  138.4490 C   0  0  2  0  0  3  0  0  0  0  0  0
  182.5390  177.9640  137.6750 C   0  0  2  0  0  3  0  0  0  0  0  0
  190.4440  177.8780  137.9290 C   0  0  0  0  0  1  0  0  0  0  0  0
  184.5020  175.2700  136.3910 C   0  0  1  0  0  3  0  0  0  0  0  0
  186.1450  173.1360  137.0970 C   0  0  0  0  0  2  0  0  0  0  0  0
  185.8050  177.0170  137.9500 C   0  0  2  0  0  3  0  0  0  0  0  0
  182.6200  178.5460  140.4340 S   0  0  0  0  0  0  0  0  0  0  0  0
  181.4240  180.2320  137.6490 C   0  0  0  0  0  2  0  0  0  0  0  0
  181.2130  178.7210  137.5310 C   0  0  1  0  0  3  0  0  0  0  0  0
  180.4570  178.3590  136.2740 C   0  0  0  0  0  2  0  0  0  0  0  0
  178.9310  178.8610  134.5950 F   0  0  0  0  0  0  0  0  0  0  0  0
  179.4330  180.5320  136.2600 N   0  0  0  0  0  0  0  0  0  0  0  0
  179.5920  179.2120  135.7230 C   0  0  0  0  0  0  0  0  0  0  0  0
  180.0760  180.9330  137.5090 C   0  0  0  0  0  2  0  0  0  0  0  0
  189.3780  173.7180  134.7800 C   0  0  0  0  0  1  0  0  0  0  0  0
  187.8660  173.8040  134.9080 C   0  0  0  0  0  2  0  0  0  0  0  0
  1 13  1  1  0  0  0
  1  4  1  0  0  0  0
  1 21  1  0  0  0  0
  2 24  1  1  0  0  0
  2 14  1  0  0  0  0
  2 22  1  0  0  0  0
  3 20  1  0  0  0  0
  4  8  1  0  0  0  0
  5 23  1  0  0  0  0
  6 11  1  0  0  0  0
  7 19  1  0  0  0  0
  9 27  1  0  0  0  0
  9  3  1  0  0  0  0
  9 22  1  0  0  0  0
 10 28  1  0  0  0  0
 13 17  1  0  0  0  0
 15 28  1  0  0  0  0
 16 11  1  0  0  0  0
 17  2  1  0  0  0  0
 18 12  1  0  0  0  0
 19 25  1  0  0  0  0
 19 21  1  0  0  0  0
 19  5  1  0  0  0  0
 20 15  1  0  0  0  0
 20 16  1  0  0  0  0
 21 27  1  0  0  0  0
 22  6  1  0  0  0  0
 23 10  1  0  0  0  0
 25 21  1  0  0  0  0
 25 18  1  0  0  0  0
 26  8  1  0  0  0  0
 26 12  1  0  0  0  0
 27  3  1  0  0  0  0
 30 29  1  0  0  0  0
 30 23  1  0  0  0  0
 31 30  1  0  0  0  0
 32 34  1  0  0  0  0
 33 35  1  0  0  0  0
 34 33  2  0  0  0  0
 34 31  1  0  0  0  0
 35 29  1  0  0  0  0
 36 37  1  0  0  0  0
 37  4  1  0  0  0  0
M  END
>  <MODEL>
2

>  <REMARK>
 VINA RESULT:      -4.3      4.105      7.955
  Name = 
  2 active torsions:
  status: ('A' for Active; 'I' for Inactive)
    1  A    between atoms: C_5  and  C_23
    2  A    between atoms: C_6  and  C_31
                            x       y       z     vdW  Elec       q    Type
                         _______ _______ _______ _____ _____    ______ ____

>  <TORSDO>
F 2

$$$$
=
 OpenBabel10262422513D

 37 43  0  0  1  0  0  0  0  0999 V2000
  189.1760  175.4380  137.1610 C   0  0  2  0  0  3  0  0  0  0  0  0
  188.0780  172.6730  135.6900 C   0  0  1  0  0  0  0  0  0  0  0  0
  185.4530  175.0860  137.4740 C   0  0  2  0  0  3  0  0  0  0  0  0
  189.9070  175.5300  135.8010 C   0  0  1  0  0  3  0  0  0  0  0  0
  186.3680  178.2520  138.5690 C   0  0  0  0  0  2  0  0  0  0  0  0
  185.8930  173.4680  134.6490 C   0  0  0  0  0  2  0  0  0  0  0  0
  188.4590  177.2660  139.3720 O   0  0  0  0  0  1  0  0  0  0  0  0
  189.1840  176.0920  134.7140 O   0  0  0  0  0  0  0  0  0  0  0  0
  186.5380  174.1080  137.1170 C   0  0  1  0  0  3  0  0  0  0  0  0
  184.3340  177.8800  137.1940 C   0  0  0  0  0  2  0  0  0  0  0  0
  184.3840  173.5130  134.7570 C   0  0  0  0  0  2  0  0  0  0  0  0
  188.2160  178.3140  134.5940 C   0  0  0  0  0  2  0  0  0  0  0  0
  189.1970  174.0280  137.7860 C   0  0  0  0  0  2  0  0  0  0  0  0
  188.5860  173.3710  134.5950 O   0  0  0  0  0  1  0  0  0  0  0  0
  182.9880  175.4900  137.6200 C   0  0  0  0  0  2  0  0  0  0  0  0
  183.9510  174.8300  135.3610 C   0  0  0  0  0  2  0  0  0  0  0  0
  189.1010  172.7820  136.8600 C   0  0  0  0  0  2  0  0  0  0  0  0
  187.3490  178.1840  135.8540 C   0  0  0  0  0  2  0  0  0  0  0  0
  187.5080  177.2390  138.3520 C   0  0  1  0  0  0  0  0  0  0  0  0
  184.0910  174.7430  136.8710 C   0  0  1  0  0  3  0  0  0  0  0  0
  187.8140  176.1820  137.2510 C   0  0  1  0  0  0  0  0  0  0  0  0
  186.6000  173.0920  135.9690 C   0  0  2  0  0  3  0  0  0  0  0  0
  184.9440  177.7040  138.5850 C   0  0  2  0  0  3  0  0  0  0  0  0
  188.0440  171.2070  135.3060 C   0  0  0  0  0  1  0  0  0  0  0  0
  188.1610  177.6470  137.0340 C   0  0  1  0  0  3  0  0  0  0  0  0
  189.4900  177.4580  134.5950 C   0  0  0  0  0  2  0  0  0  0  0  0
  186.6010  175.5240  136.5490 C   0  0  2  0  0  3  0  0  0  0  0  0
  182.6470  177.1940  137.0290 S   0  0  0  0  0  0  0  0  0  0  0  0
  183.0360  177.4210  140.2170 C   0  0  0  0  0  2  0  0  0  0  0  0
  184.0910  178.3810  139.6640 C   0  0  1  0  0  3  0  0  0  0  0  0
  184.9140  179.0020  140.7680 C   0  0  0  0  0  3  0  0  0  0  0  0
  185.1680  179.7370  142.9580 F   0  0  0  0  0  0  0  0  0  0  0  0
  183.0930  178.6960  142.3040 N   0  0  0  0  0  2  0  0  0  0  0  0
  184.4050  179.1790  141.9880 C   0  0  0  0  0  0  0  0  0  0  0  0
  182.2110  178.1470  141.2760 C   0  0  0  0  0  2  0  0  0  0  0  0
  191.8790  176.3050  137.1810 C   0  0  0  0  0  1  0  0  0  0  0  0
  191.4250  175.7520  135.8400 C   0  0  0  0  0  2  0  0  0  0  0  0
  1 21  1  0  0  0  0
  1 13  1  6  0  0  0
  2 24  1  6  0  0  0
  2 22  1  0  0  0  0
  2 17  1  0  0  0  0
  4 37  1  0  0  0  0
  4  1  1  0  0  0  0
  5 23  1  0  0  0  0
  6 11  1  0  0  0  0
  6 22  1  0  0  0  0
  8  4  1  0  0  0  0
  9  3  1  0  0  0  0
 10 23  1  0  0  0  0
 11 16  1  0  0  0  0
 12 26  1  0  0  0  0
 12 18  1  0  0  0  0
 14  2  1  0  0  0  0
 16 20  1  0  0  0  0
 17 13  1  0  0  0  0
 18 25  1  0  0  0  0
 19  5  1  0  0  0  0
 19  7  1  0  0  0  0
 20  3  1  0  0  0  0
 20 15  1  0  0  0  0
 21 19  1  0  0  0  0
 22  9  1  0  0  0  0
 23 30  1  0  0  0  0
 25 21  1  0  0  0  0
 25 19  1  0  0  0  0
 26  8  1  0  0  0  0
 27  9  1  0  0  0  0
 27 21  1  0  0  0  0
 27  3  1  0  0  0  0
 28 10  1  0  0  0  0
 28 15  1  0  0  0  0
 29 35  1  0  0  0  0
 30 29  1  0  0  0  0
 30 31  1  0  0  0  0
 31 34  2  0  0  0  0
 34 33  1  0  0  0  0
 34 32  1  0  0  0  0
 35 33  1  0  0  0  0
 37 36  1  0  0  0  0
M  END
>  <MODEL>
3

>  <REMARK>
 VINA RESULT:      -4.1      4.287      8.593
  Name = 
  2 active torsions:
  status: ('A' for Active; 'I' for Inactive)
    1  A    between atoms: C_5  and  C_23
    2  A    between atoms: C_6  and  C_31
                            x       y       z     vdW  Elec       q    Type
                         _______ _______ _______ _____ _____    ______ ____

>  <TORSDO>
F 2

$$$$
=
 OpenBabel10262422513D

 37 43  0  0  1  0  0  0  0  0999 V2000
  186.5410  175.8370  135.4260 C   0  0  2  0  0  3  0  0  0  0  0  0
  189.1560  177.0020  137.1050 C   0  0  1  0  0  0  0  0  0  0  0  0
  185.5170  178.3530  138.0150 C   0  0  2  0  0  3  0  0  0  0  0  0
  187.2700  174.5160  135.7690 C   0  0  1  0  0  3  0  0  0  0  0  0
  182.6620  176.8460  136.7370 C   0  0  0  0  0  2  0  0  0  0  0  0
  188.2210  177.1820  139.4680 C   0  0  0  0  0  2  0  0  0  0  0  0
  183.8290  176.6710  134.5940 O   0  0  0  0  0  1  0  0  0  0  0  0
  187.0190  173.9540  137.0500 O   0  0  0  0  0  0  0  0  0  0  0  0
  186.8440  178.0230  137.3910 C   0  0  1  0  0  3  0  0  0  0  0  0
  182.9060  177.3460  139.1570 C   0  0  0  0  0  2  0  0  0  0  0  0
  187.6550  178.0920  140.5370 C   0  0  0  0  0  2  0  0  0  0  0  0
  184.8740  173.2610  137.9500 C   0  0  0  0  0  2  0  0  0  0  0  0
  187.4810  176.9600  134.9430 C   0  0  0  0  0  2  0  0  0  0  0  0
  189.1870  175.6550  137.4680 O   0  0  0  0  0  1  0  0  0  0  0  0
  184.3250  179.6450  139.7950 C   0  0  0  0  0  2  0  0  0  0  0  0
  186.1440  178.0240  140.5220 C   0  0  0  0  0  2  0  0  0  0  0  0
  188.8980  177.0920  135.5710 C   0  0  0  0  0  2  0  0  0  0  0  0
  184.1770  174.6170  137.7730 C   0  0  0  0  0  2  0  0  0  0  0  0
  183.9770  176.5900  135.9770 C   0  0  1  0  0  0  0  0  0  0  0  0
  185.6260  178.9370  139.4240 C   0  0  1  0  0  3  0  0  0  0  0  0
  185.4360  176.2820  136.4250 C   0  0  1  0  0  0  0  0  0  0  0  0
  188.2100  177.8030  138.0540 C   0  0  2  0  0  3  0  0  0  0  0  0
  182.6650  177.9610  137.7780 C   0  0  2  0  0  3  0  0  0  0  0  0
  190.5510  177.5530  137.3220 C   0  0  0  0  0  1  0  0  0  0  0  0
  184.3950  175.1740  136.3650 C   0  0  1  0  0  3  0  0  0  0  0  0
  186.0080  172.9820  136.9530 C   0  0  0  0  0  2  0  0  0  0  0  0
  185.9020  176.8840  137.7730 C   0  0  2  0  0  3  0  0  0  0  0  0
  183.0180  178.5720  140.5100 S   0  0  0  0  0  0  0  0  0  0  0  0
  180.3840  178.2900  138.8170 C   0  0  0  0  0  2  0  0  0  0  0  0
  181.3630  178.7700  137.7420 C   0  0  1  0  0  3  0  0  0  0  0  0
  181.5880  180.2620  137.8190 C   0  0  0  0  0  3  0  0  0  0  0  0
  180.8760  182.4090  138.3520 F   0  0  0  0  0  0  0  0  0  0  0  0
  179.4270  180.5410  138.8290 N   0  0  0  0  0  2  0  0  0  0  0  0
  180.6440  181.0760  138.2930 C   0  0  0  0  0  0  0  0  0  0  0  0
  179.1060  179.1190  138.7300 C   0  0  0  0  0  2  0  0  0  0  0  0
  188.9970  173.0920  134.5950 C   0  0  0  0  0  1  0  0  0  0  0  0
  187.5500  173.5540  134.6080 C   0  0  0  0  0  2  0  0  0  0  0  0
  1 13  1  1  0  0  0
  1  4  1  0  0  0  0
  1 21  1  0  0  0  0
  2 24  1  1  0  0  0
  2 14  1  0  0  0  0
  2 22  1  0  0  0  0
  3 20  1  0  0  0  0
  4  8  1  0  0  0  0
  5 23  1  0  0  0  0
  6 11  1  0  0  0  0
  7 19  1  0  0  0  0
  9 27  1  0  0  0  0
  9  3  1  0  0  0  0
  9 22  1  0  0  0  0
 10 28  1  0  0  0  0
 13 17  1  0  0  0  0
 15 28  1  0  0  0  0
 16 11  1  0  0  0  0
 17  2  1  0  0  0  0
 18 12  1  0  0  0  0
 19 25  1  0  0  0  0
 19 21  1  0  0  0  0
 19  5  1  0  0  0  0
 20 15  1  0  0  0  0
 20 16  1  0  0  0  0
 21 27  1  0  0  0  0
 22  6  1  0  0  0  0
 23 10  1  0  0  0  0
 25 21  1  0  0  0  0
 25 18  1  0  0  0  0
 26  8  1  0  0  0  0
 26 12  1  0  0  0  0
 27  3  1  0  0  0  0
 30 23  1  0  0  0  0
 30 31  1  0  0  0  0
 30 29  1  0  0  0  0
 31 34  2  0  0  0  0
 34 32  1  0  0  0  0
 34 33  1  0  0  0  0
 35 29  1  0  0  0  0
 35 33  1  0  0  0  0
 36 37  1  0  0  0  0
 37  4  1  0  0  0  0
M  END
>  <MODEL>
4

>  <REMARK>
 VINA RESULT:      -4.0      4.181      8.128
  Name = 
  2 active torsions:
  status: ('A' for Active; 'I' for Inactive)
    1  A    between atoms: C_5  and  C_23
    2  A    between atoms: C_6  and  C_31
                            x       y       z     vdW  Elec       q    Type
                         _______ _______ _______ _____ _____    ______ ____

>  <TORSDO>
F 2

$$$$
=
 OpenBabel10262422513D

 37 43  0  0  1  0  0  0  0  0999 V2000
  181.0970  176.1410  135.9350 C   0  0  2  0  0  3  0  0  0  0  0  0
  179.8850  173.0910  135.4420 C   0  0  1  0  0  0  0  0  0  0  0  0
  183.8290  173.6480  135.2990 C   0  0  2  0  0  3  0  0  0  0  0  0
  180.1100  176.0320  137.1220 C   0  0  1  0  0  3  0  0  0  0  0  0
  185.2670  176.6390  136.3230 C   0  0  0  0  0  2  0  0  0  0  0  0
  181.6020  171.6450  136.6470 C   0  0  0  0  0  2  0  0  0  0  0  0
  183.4310  177.7980  135.1940 O   0  0  0  0  0  1  0  0  0  0  0  0
  180.5790  175.3810  138.2950 O   0  0  0  0  0  0  0  0  0  0  0  0
  182.3460  173.6090  135.0630 C   0  0  1  0  0  3  0  0  0  0  0  0
  186.1100  174.4430  137.1170 C   0  0  0  0  0  2  0  0  0  0  0  0
  182.8050  170.7370  136.5140 C   0  0  0  0  0  2  0  0  0  0  0  0
  182.4880  176.0100  139.6550 C   0  0  0  0  0  2  0  0  0  0  0  0
  180.5300  175.6130  134.6020 C   0  0  0  0  0  2  0  0  0  0  0  0
  179.4930  173.3210  136.7610 O   0  0  0  0  0  1  0  0  0  0  0  0
  185.9660  172.3470  135.3020 C   0  0  0  0  0  2  0  0  0  0  0  0
  184.0720  171.5210  136.7820 C   0  0  0  0  0  2  0  0  0  0  0  0
  179.5880  174.3750  134.6110 C   0  0  0  0  0  2  0  0  0  0  0  0
  183.5210  175.9600  138.5200 C   0  0  0  0  0  2  0  0  0  0  0  0
  183.7710  176.6810  135.9560 C   0  0  1  0  0  0  0  0  0  0  0  0
  184.4560  172.2720  135.5190 C   0  0  1  0  0  3  0  0  0  0  0  0
  182.5670  175.7350  136.2370 C   0  0  1  0  0  0  0  0  0  0  0  0
  181.3310  172.5060  135.3940 C   0  0  2  0  0  3  0  0  0  0  0  0
  186.0480  175.3920  135.9200 C   0  0  2  0  0  3  0  0  0  0  0  0
  178.9680  172.0190  134.8870 C   0  0  0  0  0  1  0  0  0  0  0  0
  183.0320  176.7290  137.2910 C   0  0  1  0  0  3  0  0  0  0  0  0
  181.0550  176.3350  139.2100 C   0  0  0  0  0  2  0  0  0  0  0  0
  182.8730  174.2220  136.3570 C   0  0  2  0  0  3  0  0  0  0  0  0
  186.9500  172.8570  136.7660 S   0  0  0  0  0  0  0  0  0  0  0  0
  187.6060  177.2560  135.2230 C   0  0  0  0  0  2  0  0  0  0  0  0
  187.4490  175.7450  135.4070 C   0  0  1  0  0  3  0  0  0  0  0  0
  188.5550  175.1690  136.2590 C   0  0  0  0  0  2  0  0  0  0  0  0
  190.7320  175.2010  137.0730 F   0  0  0  0  0  0  0  0  0  0  0  0
  190.0050  176.9680  135.6010 N   0  0  0  0  0  0  0  0  0  0  0  0
  189.7610  175.7380  136.2980 C   0  0  0  0  0  0  0  0  0  0  0  0
  189.0100  177.5500  134.7040 C   0  0  0  0  0  2  0  0  0  0  0  0
  179.5940  178.4640  136.6620 C   0  0  0  0  0  1  0  0  0  0  0  0
  179.0990  177.1730  137.2930 C   0  0  0  0  0  2  0  0  0  0  0  0
  1 13  1  6  0  0  0
  1 21  1  0  0  0  0
  1  4  1  0  0  0  0
  2 24  1  6  0  0  0
  2 14  1  0  0  0  0
  3 20  1  0  0  0  0
  3 27  1  0  0  0  0
  4 37  1  0  0  0  0
  4  8  1  0  0  0  0
  7 19  1  0  0  0  0
  8 26  1  0  0  0  0
  9  3  1  0  0  0  0
  9 22  1  0  0  0  0
  9 27  1  0  0  0  0
 11  6  1  0  0  0  0
 11 16  1  0  0  0  0
 13 17  1  0  0  0  0
 15 20  1  0  0  0  0
 15 28  1  0  0  0  0
 17  2  1  0  0  0  0
 18 12  1  0  0  0  0
 19 21  1  0  0  0  0
 19  5  1  0  0  0  0
 19 25  1  0  0  0  0
 20 16  1  0  0  0  0
 21 27  1  0  0  0  0
 21 25  1  0  0  0  0
 22  2  1  0  0  0  0
 22  6  1  0  0  0  0
 23  5  1  0  0  0  0
 23 10  1  0  0  0  0
 25 18  1  0  0  0  0
 26 12  1  0  0  0  0
 28 10  1  0  0  0  0
 29 30  1  0  0  0  0
 30 23  1  0  0  0  0
 30 31  1  0  0  0  0
 31 34  1  0  0  0  0
 33 34  2  0  0  0  0
 34 32  1  0  0  0  0
 35 29  1  0  0  0  0
 35 33  1  0  0  0  0
 36 37  1  0  0  0  0
M  END
>  <MODEL>
5

>  <REMARK>
 VINA RESULT:      -3.8      3.094      5.837
  Name = 
  2 active torsions:
  status: ('A' for Active; 'I' for Inactive)
    1  A    between atoms: C_5  and  C_23
    2  A    between atoms: C_6  and  C_31
                            x       y       z     vdW  Elec       q    Type
                         _______ _______ _______ _____ _____    ______ ____

>  <TORSDO>
F 2

$$$$
=
 OpenBabel10262422513D

 37 43  0  0  1  0  0  0  0  0999 V2000
  184.7750  176.2330  137.0160 C   0  0  2  0  0  3  0  0  0  0  0  0
  183.6920  173.1380  136.5050 C   0  0  1  0  0  0  0  0  0  0  0  0
  181.9330  175.3620  139.3070 C   0  0  2  0  0  3  0  0  0  0  0  0
  184.6530  176.2250  135.4730 C   0  0  1  0  0  3  0  0  0  0  0  0
  182.5830  178.7620  139.5820 C   0  0  0  0  0  2  0  0  0  0  0  0
  181.1740  173.4140  136.7730 C   0  0  0  0  0  2  0  0  0  0  0  0
  184.9400  178.2480  139.1730 O   0  0  0  0  0  1  0  0  0  0  0  0
  183.3690  176.4940  134.9250 O   0  0  0  0  0  0  0  0  0  0  0  0
  182.8530  174.5210  138.4680 C   0  0  1  0  0  3  0  0  0  0  0  0
  180.2650  177.8730  139.5430 C   0  0  0  0  0  2  0  0  0  0  0  0
  179.9720  173.2420  137.6770 C   0  0  0  0  0  2  0  0  0  0  0  0
  182.0320  178.4940  135.2410 C   0  0  0  0  0  2  0  0  0  0  0  0
  185.4180  174.9570  137.5960 C   0  0  0  0  0  2  0  0  0  0  0  0
  183.3940  173.7280  135.2770 O   0  0  0  0  0  1  0  0  0  0  0  0
  179.8840  175.3980  140.7420 C   0  0  0  0  0  2  0  0  0  0  0  0
  179.6470  174.5540  138.3560 C   0  0  0  0  0  2  0  0  0  0  0  0
  185.1230  173.5830  136.9300 C   0  0  0  0  0  2  0  0  0  0  0  0
  181.9970  178.4280  136.7740 C   0  0  0  0  0  2  0  0  0  0  0  0
  183.6300  177.9170  138.8310 C   0  0  1  0  0  0  0  0  0  0  0  0
  180.5660  174.7240  139.5530 C   0  0  1  0  0  3  0  0  0  0  0  0
  183.5350  176.7630  137.7910 C   0  0  1  0  0  0  0  0  0  0  0  0
  182.5250  173.3620  137.5180 C   0  0  2  0  0  3  0  0  0  0  0  0
  181.5310  178.0100  140.3900 C   0  0  2  0  0  3  0  0  0  0  0  0
  183.7770  171.6430  136.2700 C   0  0  0  0  0  1  0  0  0  0  0  0
  183.3970  178.2130  137.3520 C   0  0  1  0  0  3  0  0  0  0  0  0
  183.2690  177.8560  134.5940 C   0  0  0  0  0  2  0  0  0  0  0  0
  182.3080  175.8240  137.8890 C   0  0  2  0  0  3  0  0  0  0  0  0
  178.9310  176.9170  140.3490 S   0  0  0  0  0  0  0  0  0  0  0  0
  180.2290  179.8400  141.5500 C   0  0  0  0  0  2  0  0  0  0  0  0
  181.2420  178.7060  141.7260 C   0  0  1  0  0  3  0  0  0  0  0  0
  180.8230  177.7480  142.8160 C   0  0  0  0  0  3  0  0  0  0  0  0
  179.7130  177.2760  144.8020 F   0  0  0  0  0  0  0  0  0  0  0  0
  179.5720  179.5010  143.8810 N   0  0  0  0  0  2  0  0  0  0  0  0
  180.0750  178.1580  143.8410 C   0  0  0  0  0  0  0  0  0  0  0  0
  179.9870  180.5030  142.9030 C   0  0  0  0  0  2  0  0  0  0  0  0
  186.8380  177.4960  135.5320 C   0  0  0  0  0  1  0  0  0  0  0  0
  185.8810  176.6830  134.6760 C   0  0  0  0  0  2  0  0  0  0  0  0
  1 13  1  1  0  0  0
  1 21  1  0  0  0  0
  2 24  1  6  0  0  0
  2 17  1  0  0  0  0
  2 22  1  0  0  0  0
  3 20  1  0  0  0  0
  4  1  1  0  0  0  0
  5 23  1  0  0  0  0
  6 22  1  0  0  0  0
  6 11  1  0  0  0  0
  8  4  1  0  0  0  0
  9  3  1  0  0  0  0
 10 28  1  0  0  0  0
 10 23  1  0  0  0  0
 11 16  1  0  0  0  0
 12 18  1  0  0  0  0
 14  2  1  0  0  0  0
 16 20  1  0  0  0  0
 17 13  1  0  0  0  0
 18 25  1  0  0  0  0
 19  7  1  0  0  0  0
 19  5  1  0  0  0  0
 20 15  1  0  0  0  0
 21 27  1  0  0  0  0
 21 19  1  0  0  0  0
 22  9  1  0  0  0  0
 23 30  1  0  0  0  0
 25 21  1  0  0  0  0
 25 19  1  0  0  0  0
 26  8  1  0  0  0  0
 26 12  1  0  0  0  0
 27  9  1  0  0  0  0
 27  3  1  0  0  0  0
 28 15  1  0  0  0  0
 29 30  1  0  0  0  0
 29 35  1  0  0  0  0
 30 31  1  0  0  0  0
 31 34  2  0  0  0  0
 34 33  1  0  0  0  0
 34 32  1  0  0  0  0
 35 33  1  0  0  0  0
 37  4  1  0  0  0  0
 37 36  1  0  0  0  0
M  END
>  <MODEL>
6

>  <REMARK>
 VINA RESULT:      -3.6      3.659      7.230
  Name = 
  2 active torsions:
  status: ('A' for Active; 'I' for Inactive)
    1  A    between atoms: C_5  and  C_23
    2  A    between atoms: C_6  and  C_31
                            x       y       z     vdW  Elec       q    Type
                         _______ _______ _______ _____ _____    ______ ____

>  <TORSDO>
F 2

$$$$
=
 OpenBabel10262422513D

 37 43  0  0  1  0  0  0  0  0999 V2000
  185.2580  174.7480  137.3100 C   0  0  2  0  0  3  0  0  0  0  0  0
  184.0230  172.0390  135.8450 C   0  0  1  0  0  0  0  0  0  0  0  0
  181.5060  174.7360  137.3560 C   0  0  2  0  0  3  0  0  0  0  0  0
  186.0900  174.7260  136.0060 C   0  0  1  0  0  3  0  0  0  0  0  0
  182.6220  177.8470  138.4210 C   0  0  0  0  0  2  0  0  0  0  0  0
  181.9990  172.9840  134.6210 C   0  0  0  0  0  2  0  0  0  0  0  0
  184.5530  176.7110  139.4060 O   0  0  0  0  0  1  0  0  0  0  0  0
  185.4990  175.3090  134.8520 O   0  0  0  0  0  0  0  0  0  0  0  0
  182.5200  173.6540  137.1100 C   0  0  1  0  0  3  0  0  0  0  0  0
  180.6670  177.6050  136.9100 C   0  0  0  0  0  2  0  0  0  0  0  0
  180.4960  173.1650  134.6150 C   0  0  0  0  0  2  0  0  0  0  0  0
  184.7470  177.6020  134.5940 C   0  0  0  0  0  2  0  0  0  0  0  0
  185.1070  173.3650  137.9770 C   0  0  0  0  0  2  0  0  0  0  0  0
  184.6690  172.6490  134.7700 O   0  0  0  0  0  1  0  0  0  0  0  0
  179.0830  175.3600  137.3060 C   0  0  0  0  0  2  0  0  0  0  0  0
  180.1410  174.5360  135.1460 C   0  0  0  0  0  2  0  0  0  0  0  0
  184.9660  172.1000  137.0840 C   0  0  0  0  0  2  0  0  0  0  0  0
  183.7840  177.5940  135.7890 C   0  0  0  0  0  2  0  0  0  0  0  0
  183.6790  176.7310  138.3190 C   0  0  1  0  0  0  0  0  0  0  0  0
  180.1650  174.4930  136.6640 C   0  0  1  0  0  3  0  0  0  0  0  0
  183.9660  175.6120  137.2760 C   0  0  1  0  0  0  0  0  0  0  0  0
  182.5730  172.5960  136.0010 C   0  0  2  0  0  3  0  0  0  0  0  0
  181.1570  177.4270  138.3470 C   0  0  2  0  0  3  0  0  0  0  0  0
  183.8840  170.5680  135.5040 C   0  0  0  0  0  1  0  0  0  0  0  0
  184.4590  177.0320  137.0420 C   0  0  1  0  0  3  0  0  0  0  0  0
  185.9350  176.6380  134.7150 C   0  0  0  0  0  2  0  0  0  0  0  0
  182.7510  175.0380  136.5070 C   0  0  2  0  0  3  0  0  0  0  0  0
  178.9400  177.0640  136.6410 S   0  0  0  0  0  0  0  0  0  0  0  0
  180.7050  177.9210  140.7840 C   0  0  0  0  0  2  0  0  0  0  0  0
  180.2940  178.2150  139.3390 C   0  0  1  0  0  3  0  0  0  0  0  0
  180.2700  179.6990  139.0570 C   0  0  0  0  0  3  0  0  0  0  0  0
  180.0100  181.9040  139.7450 F   0  0  0  0  0  0  0  0  0  0  0  0
  179.8670  180.1400  141.3830 N   0  0  0  0  0  2  0  0  0  0  0  0
  180.0230  180.5800  140.0270 C   0  0  0  0  0  0  0  0  0  0  0  0
  179.8100  178.7210  141.7260 C   0  0  0  0  0  2  0  0  0  0  0  0
  188.0180  175.4860  137.4540 C   0  0  0  0  0  1  0  0  0  0  0  0
  187.6150  174.8150  136.1510 C   0  0  0  0  0  2  0  0  0  0  0  0
  1 13  1  6  0  0  0
  2 24  1  6  0  0  0
  2 22  1  0  0  0  0
  2 17  1  0  0  0  0
  4 37  1  0  0  0  0
  4  1  1  0  0  0  0
  6 22  1  0  0  0  0
  8  4  1  0  0  0  0
  9  3  1  0  0  0  0
 10 23  1  0  0  0  0
 11  6  1  0  0  0  0
 11 16  1  0  0  0  0
 12 26  1  0  0  0  0
 12 18  1  0  0  0  0
 14  2  1  0  0  0  0
 16 20  1  0  0  0  0
 17 13  1  0  0  0  0
 18 25  1  0  0  0  0
 19  5  1  0  0  0  0
 19  7  1  0  0  0  0
 20 15  1  0  0  0  0
 20  3  1  0  0  0  0
 21  1  1  0  0  0  0
 21 19  1  0  0  0  0
 22  9  1  0  0  0  0
 23  5  1  0  0  0  0
 23 30  1  0  0  0  0
 25 21  1  0  0  0  0
 25 19  1  0  0  0  0
 26  8  1  0  0  0  0
 27  9  1  0  0  0  0
 27 21  1  0  0  0  0
 27  3  1  0  0  0  0
 28 10  1  0  0  0  0
 28 15  1  0  0  0  0
 29 35  1  0  0  0  0
 30 29  1  0  0  0  0
 31 30  1  0  0  0  0
 31 34  2  0  0  0  0
 32 34  1  0  0  0  0
 33 35  1  0  0  0  0
 34 33  1  0  0  0  0
 37 36  1  0  0  0  0
M  END
>  <MODEL>
7

>  <REMARK>
 VINA RESULT:      -3.4      3.574      7.459
  Name = 
  2 active torsions:
  status: ('A' for Active; 'I' for Inactive)
    1  A    between atoms: C_5  and  C_23
    2  A    between atoms: C_6  and  C_31
                            x       y       z     vdW  Elec       q    Type
                         _______ _______ _______ _____ _____    ______ ____

>  <TORSDO>
F 2

$$$$
=
 OpenBabel10262422513D

 37 43  0  0  1  0  0  0  0  0999 V2000
  188.4330  175.7280  137.1910 C   0  0  2  0  0  3  0  0  0  0  0  0
  187.6440  172.8700  135.7000 C   0  0  1  0  0  0  0  0  0  0  0  0
  184.7550  175.0180  137.4110 C   0  0  2  0  0  3  0  0  0  0  0  0
  189.1860  175.8900  135.8490 C   0  0  1  0  0  3  0  0  0  0  0  0
  185.3320  178.2580  138.5220 C   0  0  0  0  0  2  0  0  0  0  0  0
  185.4200  173.4500  134.6030 C   0  0  0  0  0  2  0  0  0  0  0  0
  187.4870  177.4790  139.3790 O   0  0  0  0  0  1  0  0  0  0  0  0
  188.4390  176.3800  134.7440 O   0  0  0  0  0  0  0  0  0  0  0  0
  185.9370  174.1500  137.0850 C   0  0  1  0  0  3  0  0  0  0  0  0
  183.3790  177.6910  137.0970 C   0  0  0  0  0  2  0  0  0  0  0  0
  183.9120  173.3490  134.6730 C   0  0  0  0  0  2  0  0  0  0  0  0
  187.2650  178.4980  134.5940 C   0  0  0  0  0  2  0  0  0  0  0  0
  188.5740  174.3270  137.8200 C   0  0  0  0  0  2  0  0  0  0  0  0
  188.1100  173.6140  134.6160 O   0  0  0  0  0  1  0  0  0  0  0  0
  182.2600  175.1820  137.4950 C   0  0  0  0  0  2  0  0  0  0  0  0
  183.3380  174.6190  135.2630 C   0  0  0  0  0  2  0  0  0  0  0  0
  188.6220  173.0780  136.8950 C   0  0  0  0  0  2  0  0  0  0  0  0
  186.3830  178.2850  135.8320 C   0  0  0  0  0  2  0  0  0  0  0  0
  186.5700  177.3600  138.3360 C   0  0  1  0  0  0  0  0  0  0  0  0
  183.4480  174.5460  136.7760 C   0  0  1  0  0  3  0  0  0  0  0  0
  187.0040  176.3380  137.2450 C   0  0  1  0  0  0  0  0  0  0  0  0
  186.1270  173.1450  135.9410 C   0  0  2  0  0  3  0  0  0  0  0  0
  183.9680  177.5750  138.5030 C   0  0  2  0  0  3  0  0  0  0  0  0
  187.7620  171.4080  135.3190 C   0  0  0  0  0  1  0  0  0  0  0  0
  187.2130  177.8300  137.0330 C   0  0  1  0  0  3  0  0  0  0  0  0
  188.6150  177.7690  134.6280 C   0  0  0  0  0  2  0  0  0  0  0  0
  185.8780  175.5650  136.5150 C   0  0  2  0  0  3  0  0  0  0  0  0
  181.7700  176.8450  136.8920 S   0  0  0  0  0  0  0  0  0  0  0  0
  182.3070  179.4070  139.0250 C   0  0  0  0  0  2  0  0  0  0  0  0
  183.0260  178.1670  139.5590 C   0  0  1  0  0  3  0  0  0  0  0  0
  182.0550  177.1560  140.1210 C   0  0  0  0  0  3  0  0  0  0  0  0
  180.0330  176.6100  141.1300 F   0  0  0  0  0  0  0  0  0  0  0  0
  180.4850  178.9150  140.5800 N   0  0  0  0  0  2  0  0  0  0  0  0
  180.8850  177.5390  140.6350 C   0  0  0  0  0  0  0  0  0  0  0  0
  181.3940  179.9590  140.1160 C   0  0  0  0  0  2  0  0  0  0  0  0
  191.0810  176.6700  137.3310 C   0  0  0  0  0  1  0  0  0  0  0  0
  190.6740  176.2580  135.9260 C   0  0  0  0  0  2  0  0  0  0  0  0
  1 21  1  0  0  0  0
  1 13  1  6  0  0  0
  2 24  1  6  0  0  0
  2 22  1  0  0  0  0
  2 17  1  0  0  0  0
  4 37  1  0  0  0  0
  4  1  1  0  0  0  0
  6 11  1  0  0  0  0
  6 22  1  0  0  0  0
  8  4  1  0  0  0  0
  9  3  1  0  0  0  0
 10 23  1  0  0  0  0
 11 16  1  0  0  0  0
 12 26  1  0  0  0  0
 12 18  1  0  0  0  0
 14  2  1  0  0  0  0
 16 20  1  0  0  0  0
 17 13  1  0  0  0  0
 18 25  1  0  0  0  0
 19  5  1  0  0  0  0
 19  7  1  0  0  0  0
 20  3  1  0  0  0  0
 20 15  1  0  0  0  0
 21 19  1  0  0  0  0
 22  9  1  0  0  0  0
 23  5  1  0  0  0  0
 23 30  1  0  0  0  0
 25 21  1  0  0  0  0
 25 19  1  0  0  0  0
 26  8  1  0  0  0  0
 27  9  1  0  0  0  0
 27 21  1  0  0  0  0
 27  3  1  0  0  0  0
 28 10  1  0  0  0  0
 28 15  1  0  0  0  0
 29 30  1  0  0  0  0
 29 35  1  0  0  0  0
 30 31  1  0  0  0  0
 31 34  2  0  0  0  0
 33 34  1  0  0  0  0
 34 32  1  0  0  0  0
 35 33  1  0  0  0  0
 37 36  1  0  0  0  0
M  END
>  <MODEL>
8

>  <REMARK>
 VINA RESULT:      -3.3      3.760      8.147
  Name = 
  2 active torsions:
  status: ('A' for Active; 'I' for Inactive)
    1  A    between atoms: C_5  and  C_23
    2  A    between atoms: C_6  and  C_31
                            x       y       z     vdW  Elec       q    Type
                         _______ _______ _______ _____ _____    ______ ____

>  <TORSDO>
F 2

$$$$
=
 OpenBabel10262422513D

 37 43  0  0  1  0  0  0  0  0999 V2000
  181.0100  178.4390  139.6330 C   0  0  2  0  0  3  0  0  0  0  0  0
  180.6320  178.5920  142.9270 C   0  0  1  0  0  0  0  0  0  0  0  0
  184.2510  177.8480  141.4300 C   0  0  2  0  0  3  0  0  0  0  0  0
  180.1940  179.7470  139.7650 C   0  0  1  0  0  3  0  0  0  0  0  0
  184.9060  178.1940  138.0370 C   0  0  0  0  0  2  0  0  0  0  0  0
  182.7730  179.7720  143.6440 C   0  0  0  0  0  2  0  0  0  0  0  0
  182.7360  177.1490  137.6080 O   0  0  0  0  0  1  0  0  0  0  0  0
  180.9200  180.9360  140.0480 O   0  0  0  0  0  0  0  0  0  0  0  0
  182.8190  177.8170  141.8850 C   0  0  1  0  0  3  0  0  0  0  0  0
  186.3770  179.2040  139.7640 C   0  0  0  0  0  2  0  0  0  0  0  0
  184.1610  179.6270  144.2270 C   0  0  0  0  0  2  0  0  0  0  0  0
  182.6960  181.9190  138.7170 C   0  0  0  0  0  2  0  0  0  0  0  0
  180.4960  177.2910  140.5250 C   0  0  0  0  0  2  0  0  0  0  0  0
  180.3070  179.8990  142.5620 O   0  0  0  0  0  1  0  0  0  0  0  0
  186.6530  177.7740  142.1270 C   0  0  0  0  0  2  0  0  0  0  0  0
  185.1860  179.6000  143.1150 C   0  0  0  0  0  2  0  0  0  0  0  0
  179.9290  177.6170  141.9360 C   0  0  0  0  0  2  0  0  0  0  0  0
  183.6030  180.6800  138.7150 C   0  0  0  0  0  2  0  0  0  0  0  0
  183.4300  178.0240  138.4420 C   0  0  1  0  0  0  0  0  0  0  0  0
  185.2440  178.1960  142.5390 C   0  0  1  0  0  3  0  0  0  0  0  0
  182.5560  178.6050  139.5920 C   0  0  1  0  0  0  0  0  0  0  0  0
  182.1730  178.4470  143.1260 C   0  0  2  0  0  3  0  0  0  0  0  0
  185.9590  177.8920  139.1000 C   0  0  2  0  0  3  0  0  0  0  0  0
  179.9970  178.3370  144.2790 C   0  0  0  0  0  1  0  0  0  0  0  0
  182.8220  179.4200  138.3360 C   0  0  1  0  0  3  0  0  0  0  0  0
  181.1960  181.6210  138.8520 C   0  0  0  0  0  2  0  0  0  0  0  0
  183.2690  178.9200  140.9300 C   0  0  2  0  0  3  0  0  0  0  0  0
  187.5830  178.9980  141.1240 S   0  0  0  0  0  0  0  0  0  0  0  0
  186.7140  176.0090  137.5930 C   0  0  0  0  0  2  0  0  0  0  0  0
  187.1630  177.1510  138.5060 C   0  0  1  0  0  3  0  0  0  0  0  0
  188.1410  178.0690  137.8120 C   0  0  0  0  0  2  0  0  0  0  0  0
  189.8050  178.4640  136.2380 F   0  0  0  0  0  0  0  0  0  0  0  0
  188.8200  176.2670  136.3760 N   0  0  0  0  0  0  0  0  0  0  0  0
  188.9400  177.6170  136.8440 C   0  0  0  0  0  0  0  0  0  0  0  0
  187.9480  175.3010  137.0400 C   0  0  0  0  0  2  0  0  0  0  0  0
  179.0260  179.0300  137.6400 C   0  0  0  0  0  1  0  0  0  0  0  0
  178.9310  179.8690  138.9040 C   0  0  0  0  0  2  0  0  0  0  0  0
  1  4  1  0  0  0  0
  1 13  1  1  0  0  0
  2 22  1  0  0  0  0
  2 24  1  1  0  0  0
  3  9  1  0  0  0  0
  3 20  1  0  0  0  0
  4  8  1  0  0  0  0
  5 19  1  0  0  0  0
  5 23  1  0  0  0  0
  6 11  1  0  0  0  0
  7 19  1  0  0  0  0
  9 22  1  0  0  0  0
 10 28  1  0  0  0  0
 12 26  1  0  0  0  0
 13 17  1  0  0  0  0
 14  2  1  0  0  0  0
 15 20  1  0  0  0  0
 16 11  1  0  0  0  0
 17  2  1  0  0  0  0
 18 12  1  0  0  0  0
 19 21  1  0  0  0  0
 20 16  1  0  0  0  0
 21  1  1  0  0  0  0
 21 27  1  0  0  0  0
 22  6  1  0  0  0  0
 23 10  1  0  0  0  0
 25 19  1  0  0  0  0
 25 18  1  0  0  0  0
 25 21  1  0  0  0  0
 26  8  1  0  0  0  0
 27  3  1  0  0  0  0
 27  9  1  0  0  0  0
 28 15  1  0  0  0  0
 29 30  1  0  0  0  0
 30 23  1  0  0  0  0
 31 30  1  0  0  0  0
 32 34  1  0  0  0  0
 33 34  2  0  0  0  0
 33 35  1  0  0  0  0
 34 31  1  0  0  0  0
 35 29  1  0  0  0  0
 36 37  1  0  0  0  0
 37  4  1  0  0  0  0
M  END
>  <MODEL>
9

>  <REMARK>
 VINA RESULT:      -3.3      3.236      5.735
  Name = 
  2 active torsions:
  status: ('A' for Active; 'I' for Inactive)
    1  A    between atoms: C_5  and  C_23
    2  A    between atoms: C_6  and  C_31
                            x       y       z     vdW  Elec       q    Type
                         _______ _______ _______ _____ _____    ______ ____

>  <TORSDO>
F 2

$$$$
