=
 OpenBabel10262423253D

 34 38  0  0  1  0  0  0  0  0999 V2000
  188.9580  176.7850  144.2650 C   0  0  2  0  0  3  0  0  0  0  0  0
  192.2580  176.8500  142.4410 C   0  0  0  0  0  3  0  0  0  0  0  0
  191.6680  175.4590  144.6720 S   0  0  0  0  0  0  0  0  0  0  0  0
  186.7350  177.4350  145.2820 C   0  0  1  0  0  3  0  0  0  0  0  0
  187.6790  177.5970  144.0860 C   0  0  0  0  0  2  0  0  0  0  0  0
  188.8540  177.1680  146.7900 C   0  0  1  0  0  3  0  0  0  0  0  0
  189.0480  178.3540  147.7140 C   0  0  0  0  0  1  0  0  0  0  0  0
  187.3570  176.8790  146.5800 C   0  0  0  0  0  2  0  0  0  0  0  0
  191.0810  176.8160  145.6870 C   0  0  0  0  0  0  0  0  0  0  0  0
  189.6790  177.3470  145.5080 C   0  0  1  0  0  3  0  0  0  0  0  0
  191.8520  177.3740  146.4500 O   0  0  0  0  0  0  0  0  0  0  0  0
  192.0400  177.7550  141.2770 C   0  0  0  0  0  2  0  0  0  0  0  0
  191.1910  177.1000  140.2340 C   0  0  0  0  0  0  0  0  0  0  0  0
  189.9240  176.7550  140.4930 C   0  0  0  0  0  3  0  0  0  0  0  0
  191.2630  176.4060  143.2110 C   0  0  0  0  0  0  0  0  0  0  0  0
  189.2570  176.8440  141.8090 C   0  0  0  0  0  3  0  0  0  0  0  0
  189.8350  176.7750  143.0220 C   0  0  0  0  0  0  0  0  0  0  0  0
  191.7340  176.9190  138.8750 C   0  0  0  0  0  0  0  0  0  0  0  0
  193.1310  176.7220  138.6810 N   0  0  0  0  0  1  0  0  0  0  0  0
  190.9710  176.9330  137.8720 O   0  0  0  0  0  0  0  0  0  0  0  0
  185.8400  178.6560  145.4960 C   0  0  0  0  0  2  0  0  0  0  0  0
  182.3340  179.0250  144.1720 N   0  0  0  0  0  0  0  0  0  0  0  0
  184.8770  178.5240  143.1900 C   0  0  0  0  0  3  0  0  0  0  0  0
  181.5760  178.6840  140.5950 C   0  0  0  0  0  0  0  0  0  0  0  0
  181.4030  178.8830  141.9740 C   0  0  0  0  0  3  0  0  0  0  0  0
  182.5020  178.8310  142.8360 C   0  0  0  0  0  0  0  0  0  0  0  0
  183.9650  178.3790  140.9470 C   0  0  0  0  0  3  0  0  0  0  0  0
  183.7890  178.5770  142.3190 C   0  0  0  0  0  0  0  0  0  0  0  0
  182.8620  178.4330  140.0900 C   0  0  0  0  0  3  0  0  0  0  0  0
  184.6770  178.7160  144.5590 C   0  0  0  0  0  0  0  0  0  0  0  0
  183.3850  178.9740  145.0340 C   0  0  0  0  0  3  0  0  0  0  0  0
  180.4180  178.7390  139.6860 C   0  0  0  0  0  0  0  0  0  0  0  0
  180.5540  179.2830  138.3760 N   0  0  0  0  0  1  0  0  0  0  0  0
  179.2950  178.3040  140.0590 O   0  0  0  0  0  0  0  0  0  0  0  0
  1  5  1  6  0  0  0
  1 10  1  0  0  0  0
  2 15  2  0  0  0  0
  3  9  1  0  0  0  0
  4 21  1  1  0  0  0
  4  8  1  0  0  0  0
  5  4  1  0  0  0  0
  6  7  1  1  0  0  0
  8  6  1  0  0  0  0
  9 11  2  0  0  0  0
 10  9  1  1  0  0  0
 10  6  1  0  0  0  0
 12  2  1  0  0  0  0
 13 14  2  0  0  0  0
 13 12  1  0  0  0  0
 14 16  1  0  0  0  0
 15  3  1  0  0  0  0
 16 17  2  0  0  0  0
 17 15  1  0  0  0  0
 17  1  1  0  0  0  0
 18 13  1  0  0  0  0
 19 18  1  0  0  0  0
 20 18  2  0  0  0  0
 22 31  1  0  0  0  0
 23 30  1  0  0  0  0
 24 25  2  0  0  0  0
 25 26  1  0  0  0  0
 26 22  2  0  0  0  0
 27 28  1  0  0  0  0
 28 26  1  0  0  0  0
 28 23  2  0  0  0  0
 29 24  1  0  0  0  0
 29 27  2  0  0  0  0
 30 31  2  0  0  0  0
 30 21  1  0  0  0  0
 32 34  2  0  0  0  0
 32 24  1  0  0  0  0
 33 32  1  0  0  0  0
M  END
>  <MODEL>
1

>  <REMARK>
 VINA RESULT:     -10.2      0.000      0.000
  Name = 
  4 active torsions:
  status: ('A' for Active; 'I' for Inactive)
    1  A    between atoms: C_3  and  C_25
    2  A    between atoms: C_7  and  C_11
    3  A    between atoms: C_8  and  C_18
    4  A    between atoms: C_18  and  C_30
                            x       y       z     vdW  Elec       q    Type
                         _______ _______ _______ _____ _____    ______ ____

>  <TORSDO>
F 4

$$$$
=
 OpenBabel10262423253D

 34 38  0  0  1  0  0  0  0  0999 V2000
  187.5660  178.3560  139.8220 C   0  0  2  0  0  3  0  0  0  0  0  0
  189.3240  176.7110  136.9200 C   0  0  0  0  0  3  0  0  0  0  0  0
  187.5520  178.7360  136.8010 S   0  0  0  0  0  0  0  0  0  0  0  0
  186.3970  178.7830  142.0240 C   0  0  1  0  0  3  0  0  0  0  0  0
  187.5100  178.0110  141.3060 C   0  0  0  0  0  2  0  0  0  0  0  0
  185.0320  178.6850  139.7960 C   0  0  1  0  0  3  0  0  0  0  0  0
  183.8220  177.7780  139.9100 C   0  0  0  0  0  1  0  0  0  0  0  0
  185.3030  179.4030  141.1300 C   0  0  0  0  0  2  0  0  0  0  0  0
  186.2030  177.9640  137.6960 C   0  0  0  0  0  0  0  0  0  0  0  0
  186.2220  177.9160  139.2050 C   0  0  1  0  0  3  0  0  0  0  0  0
  185.3210  177.3900  137.0780 O   0  0  0  0  0  0  0  0  0  0  0  0
  190.1980  175.6700  137.5340 C   0  0  0  0  0  2  0  0  0  0  0  0
  191.3740  176.2880  138.2210 C   0  0  0  0  0  0  0  0  0  0  0  0
  191.2100  177.0980  139.2740 C   0  0  0  0  0  3  0  0  0  0  0  0
  188.6980  177.6460  137.6340 C   0  0  0  0  0  0  0  0  0  0  0  0
  189.9160  177.5780  139.8010 C   0  0  0  0  0  3  0  0  0  0  0  0
  188.7710  177.7510  139.1160 C   0  0  0  0  0  0  0  0  0  0  0  0
  192.7340  175.9220  137.7850 C   0  0  0  0  0  0  0  0  0  0  0  0
  193.0700  174.5580  137.5530 N   0  0  0  0  0  1  0  0  0  0  0  0
  193.6130  176.8100  137.6090 O   0  0  0  0  0  0  0  0  0  0  0  0
  185.8540  178.0360  143.2420 C   0  0  0  0  0  2  0  0  0  0  0  0
  187.5070  177.4830  146.5810 N   0  0  0  0  0  0  0  0  0  0  0  0
  188.2090  177.5030  143.8990 C   0  0  0  0  0  3  0  0  0  0  0  0
  191.0920  176.7410  146.8590 C   0  0  0  0  0  0  0  0  0  0  0  0
  189.7580  176.9910  147.2170 C   0  0  0  0  0  3  0  0  0  0  0  0
  188.7990  177.2420  146.2320 C   0  0  0  0  0  0  0  0  0  0  0  0
  190.5000  176.9980  144.5120 C   0  0  0  0  0  3  0  0  0  0  0  0
  189.1740  177.2460  144.8730 C   0  0  0  0  0  0  0  0  0  0  0  0
  191.4550  176.7460  145.5020 C   0  0  0  0  0  3  0  0  0  0  0  0
  186.8900  177.7580  144.2830 C   0  0  0  0  0  0  0  0  0  0  0  0
  186.5550  177.7360  145.6430 C   0  0  0  0  0  3  0  0  0  0  0  0
  192.1030  176.4750  147.8970 C   0  0  0  0  0  0  0  0  0  0  0  0
  192.8050  175.2350  147.9200 N   0  0  0  0  0  1  0  0  0  0  0  0
  192.3560  177.3430  148.7750 O   0  0  0  0  0  0  0  0  0  0  0  0
  1  5  1  1  0  0  0
  2 12  1  0  0  0  0
  2 15  2  0  0  0  0
  3 15  1  0  0  0  0
  3  9  1  0  0  0  0
  4 21  1  1  0  0  0
  5  4  1  0  0  0  0
  6  7  1  1  0  0  0
  6  8  1  0  0  0  0
  8  4  1  0  0  0  0
 10  9  1  6  0  0  0
 10  6  1  0  0  0  0
 10  1  1  0  0  0  0
 11  9  2  0  0  0  0
 12 13  1  0  0  0  0
 13 14  2  0  0  0  0
 14 16  1  0  0  0  0
 15 17  1  0  0  0  0
 17 16  2  0  0  0  0
 17  1  1  0  0  0  0
 18 13  1  0  0  0  0
 19 18  1  0  0  0  0
 20 18  2  0  0  0  0
 21 30  1  0  0  0  0
 23 30  2  0  0  0  0
 23 28  1  0  0  0  0
 24 25  1  0  0  0  0
 24 32  1  0  0  0  0
 26 22  1  0  0  0  0
 26 25  2  0  0  0  0
 27 28  2  0  0  0  0
 27 29  1  0  0  0  0
 28 26  1  0  0  0  0
 29 24  2  0  0  0  0
 30 31  1  0  0  0  0
 31 22  2  0  0  0  0
 32 33  1  0  0  0  0
 32 34  2  0  0  0  0
M  END
>  <MODEL>
2

>  <REMARK>
 VINA RESULT:     -10.0      3.453      7.709
  Name = 
  4 active torsions:
  status: ('A' for Active; 'I' for Inactive)
    1  A    between atoms: C_3  and  C_25
    2  A    between atoms: C_7  and  C_11
    3  A    between atoms: C_8  and  C_18
    4  A    between atoms: C_18  and  C_30
                            x       y       z     vdW  Elec       q    Type
                         _______ _______ _______ _____ _____    ______ ____

>  <TORSDO>
F 4

$$$$
=
 OpenBabel10262423253D

 34 38  0  0  1  0  0  0  0  0999 V2000
  186.2650  178.4290  138.7930 C   0  0  2  0  0  3  0  0  0  0  0  0
  188.9840  176.6170  136.9110 C   0  0  0  0  0  3  0  0  0  0  0  0
  187.0750  178.2050  135.8660 S   0  0  0  0  0  0  0  0  0  0  0  0
  184.4640  179.0460  140.4580 C   0  0  1  0  0  3  0  0  0  0  0  0
  185.8260  178.3760  140.2520 C   0  0  0  0  0  2  0  0  0  0  0  0
  183.8260  178.2570  138.0480 C   0  0  1  0  0  3  0  0  0  0  0  0
  182.7620  177.1770  138.0670 C   0  0  0  0  0  1  0  0  0  0  0  0
  183.6040  179.2600  139.1950 C   0  0  0  0  0  2  0  0  0  0  0  0
  185.6370  177.3790  136.5490 C   0  0  0  0  0  0  0  0  0  0  0  0
  185.2250  177.6300  137.9800 C   0  0  1  0  0  3  0  0  0  0  0  0
  185.0540  176.5380  135.8840 O   0  0  0  0  0  0  0  0  0  0  0  0
  189.7700  175.9020  137.9580 C   0  0  0  0  0  2  0  0  0  0  0  0
  190.6070  176.8550  138.7510 C   0  0  0  0  0  0  0  0  0  0  0  0
  190.0430  177.8070  139.5020 C   0  0  0  0  0  3  0  0  0  0  0  0
  188.0620  177.5370  137.1990 C   0  0  0  0  0  0  0  0  0  0  0  0
  188.6000  178.1260  139.5540 C   0  0  0  0  0  3  0  0  0  0  0  0
  187.6900  177.9390  138.5810 C   0  0  0  0  0  0  0  0  0  0  0  0
  192.0710  176.6770  138.7740 C   0  0  0  0  0  0  0  0  0  0  0  0
  192.7310  176.0220  137.6950 N   0  0  0  0  0  1  0  0  0  0  0  0
  192.7540  177.1040  139.7440 O   0  0  0  0  0  0  0  0  0  0  0  0
  183.6930  178.4610  141.6420 C   0  0  0  0  0  2  0  0  0  0  0  0
  184.7090  178.7760  145.2550 N   0  0  0  0  0  0  0  0  0  0  0  0
  185.7850  177.8530  142.8730 C   0  0  0  0  0  3  0  0  0  0  0  0
  188.0120  177.6870  146.4320 C   0  0  0  0  0  0  0  0  0  0  0  0
  186.7110  178.2130  146.4350 C   0  0  0  0  0  3  0  0  0  0  0  0
  185.9700  178.2660  145.2510 C   0  0  0  0  0  0  0  0  0  0  0  0
  187.8270  177.2660  144.0420 C   0  0  0  0  0  3  0  0  0  0  0  0
  186.5330  177.7900  144.0490 C   0  0  0  0  0  0  0  0  0  0  0  0
  188.5630  177.2140  145.2300 C   0  0  0  0  0  3  0  0  0  0  0  0
  184.4960  178.3900  142.9010 C   0  0  0  0  0  0  0  0  0  0  0  0
  183.9680  178.8440  144.1160 C   0  0  0  0  0  3  0  0  0  0  0  0
  188.7930  177.6300  147.6800 C   0  0  0  0  0  0  0  0  0  0  0  0
  188.2370  178.1100  148.9010 N   0  0  0  0  0  1  0  0  0  0  0  0
  189.9610  177.1560  147.6790 O   0  0  0  0  0  0  0  0  0  0  0  0
  1  5  1  1  0  0  0
  2 15  2  0  0  0  0
  2 12  1  0  0  0  0
  3  9  1  0  0  0  0
  3 15  1  0  0  0  0
  4 21  1  1  0  0  0
  5  4  1  0  0  0  0
  6  7  1  1  0  0  0
  6  8  1  0  0  0  0
  8  4  1  0  0  0  0
 10  9  1  6  0  0  0
 10  6  1  0  0  0  0
 10  1  1  0  0  0  0
 11  9  2  0  0  0  0
 12 13  1  0  0  0  0
 13 18  1  0  0  0  0
 13 14  2  0  0  0  0
 14 16  1  0  0  0  0
 15 17  1  0  0  0  0
 17  1  1  0  0  0  0
 17 16  2  0  0  0  0
 18 20  2  0  0  0  0
 19 18  1  0  0  0  0
 21 30  1  0  0  0  0
 23 30  2  0  0  0  0
 23 28  1  0  0  0  0
 24 25  1  0  0  0  0
 24 32  1  0  0  0  0
 26 22  1  0  0  0  0
 26 25  2  0  0  0  0
 27 28  2  0  0  0  0
 27 29  1  0  0  0  0
 28 26  1  0  0  0  0
 29 24  2  0  0  0  0
 30 31  1  0  0  0  0
 31 22  2  0  0  0  0
 32 33  1  0  0  0  0
 34 32  2  0  0  0  0
M  END
>  <MODEL>
3

>  <REMARK>
 VINA RESULT:      -9.9      3.176      7.199
  Name = 
  4 active torsions:
  status: ('A' for Active; 'I' for Inactive)
    1  A    between atoms: C_3  and  C_25
    2  A    between atoms: C_7  and  C_11
    3  A    between atoms: C_8  and  C_18
    4  A    between atoms: C_18  and  C_30
                            x       y       z     vdW  Elec       q    Type
                         _______ _______ _______ _____ _____    ______ ____

>  <TORSDO>
F 4

$$$$
=
 OpenBabel10262423253D

 34 38  0  0  1  0  0  0  0  0999 V2000
  183.1120  179.1570  141.4190 C   0  0  2  0  0  3  0  0  0  0  0  0
  182.8180  177.8110  137.9090 C   0  0  0  0  0  3  0  0  0  0  0  0
  181.2470  179.6670  139.0680 S   0  0  0  0  0  0  0  0  0  0  0  0
  183.5040  179.3760  143.9090 C   0  0  1  0  0  3  0  0  0  0  0  0
  183.9860  178.7430  142.5990 C   0  0  0  0  0  2  0  0  0  0  0  0
  181.0720  179.2510  142.9560 C   0  0  1  0  0  3  0  0  0  0  0  0
  180.2250  178.2320  143.6940 C   0  0  0  0  0  1  0  0  0  0  0  0
  182.0650  179.9310  143.9160 C   0  0  0  0  0  2  0  0  0  0  0  0
  180.7570  178.7350  140.5200 C   0  0  0  0  0  0  0  0  0  0  0  0
  181.6920  178.6220  141.7000 C   0  0  1  0  0  3  0  0  0  0  0  0
  179.7100  178.1100  140.5090 O   0  0  0  0  0  0  0  0  0  0  0  0
  183.9320  176.8290  137.7750 C   0  0  0  0  0  2  0  0  0  0  0  0
  185.2530  177.5230  137.6660 C   0  0  0  0  0  0  0  0  0  0  0  0
  185.7260  178.2670  138.6740 C   0  0  0  0  0  3  0  0  0  0  0  0
  182.7120  178.6520  138.9380 C   0  0  0  0  0  0  0  0  0  0  0  0
  184.9980  178.6020  139.9160 C   0  0  0  0  0  3  0  0  0  0  0  0
  183.6660  178.6970  140.0780 C   0  0  0  0  0  0  0  0  0  0  0  0
  186.0830  177.3040  136.4670 C   0  0  0  0  0  0  0  0  0  0  0  0
  187.5030  177.2690  136.5740 N   0  0  0  0  0  1  0  0  0  0  0  0
  185.5480  177.1410  135.3370 O   0  0  0  0  0  0  0  0  0  0  0  0
  183.8490  178.5290  145.1340 C   0  0  0  0  0  2  0  0  0  0  0  0
  187.3550  177.5500  144.1660 N   0  0  0  0  0  0  0  0  0  0  0  0
  185.9300  178.1410  146.4690 C   0  0  0  0  0  3  0  0  0  0  0  0
  189.9990  177.1150  146.6770 C   0  0  0  0  0  0  0  0  0  0  0  0
  189.3420  177.1610  145.4360 C   0  0  0  0  0  3  0  0  0  0  0  0
  187.9890  177.5040  145.3680 C   0  0  0  0  0  0  0  0  0  0  0  0
  187.9300  177.7590  147.7860 C   0  0  0  0  0  3  0  0  0  0  0  0
  187.2810  177.8040  146.5500 C   0  0  0  0  0  0  0  0  0  0  0  0
  189.2850  177.4160  147.8470 C   0  0  0  0  0  3  0  0  0  0  0  0
  185.2980  178.1710  145.2240 C   0  0  0  0  0  0  0  0  0  0  0  0
  186.0380  177.8760  144.0710 C   0  0  0  0  0  3  0  0  0  0  0  0
  191.4260  176.7530  146.7490 C   0  0  0  0  0  0  0  0  0  0  0  0
  192.1080  176.7550  148.0000 N   0  0  0  0  0  1  0  0  0  0  0  0
  192.0560  176.4370  145.7040 O   0  0  0  0  0  0  0  0  0  0  0  0
  1 10  1  0  0  0  0
  1  5  1  1  0  0  0
  2 15  2  0  0  0  0
  3  9  1  0  0  0  0
  4  8  1  0  0  0  0
  4 21  1  1  0  0  0
  5  4  1  0  0  0  0
  6  7  1  1  0  0  0
  6  8  1  0  0  0  0
 10  9  1  6  0  0  0
 10  6  1  0  0  0  0
 11  9  2  0  0  0  0
 12  2  1  0  0  0  0
 13 12  1  0  0  0  0
 13 14  2  0  0  0  0
 14 16  1  0  0  0  0
 15  3  1  0  0  0  0
 15 17  1  0  0  0  0
 16 17  2  0  0  0  0
 17  1  1  0  0  0  0
 18 19  1  0  0  0  0
 18 13  1  0  0  0  0
 20 18  2  0  0  0  0
 21 30  1  0  0  0  0
 22 26  1  0  0  0  0
 23 28  1  0  0  0  0
 24 32  1  0  0  0  0
 24 29  1  0  0  0  0
 25 24  2  0  0  0  0
 26 25  1  0  0  0  0
 26 28  2  0  0  0  0
 27 29  2  0  0  0  0
 28 27  1  0  0  0  0
 30 23  2  0  0  0  0
 31 22  2  0  0  0  0
 31 30  1  0  0  0  0
 32 33  1  0  0  0  0
 34 32  2  0  0  0  0
M  END
>  <MODEL>
4

>  <REMARK>
 VINA RESULT:      -9.5      3.819      8.533
  Name = 
  4 active torsions:
  status: ('A' for Active; 'I' for Inactive)
    1  A    between atoms: C_3  and  C_25
    2  A    between atoms: C_7  and  C_11
    3  A    between atoms: C_8  and  C_18
    4  A    between atoms: C_18  and  C_30
                            x       y       z     vdW  Elec       q    Type
                         _______ _______ _______ _____ _____    ______ ____

>  <TORSDO>
F 4

$$$$
=
 OpenBabel10262423253D

 34 38  0  0  1  0  0  0  0  0999 V2000
  187.2080  177.4890  144.7190 C   0  0  2  0  0  3  0  0  0  0  0  0
  188.8390  177.7820  148.1060 C   0  0  0  0  0  3  0  0  0  0  0  0
  186.2730  177.1390  147.5960 S   0  0  0  0  0  0  0  0  0  0  0  0
  186.5560  177.8460  142.3010 C   0  0  1  0  0  3  0  0  0  0  0  0
  187.7030  177.8270  143.3170 C   0  0  0  0  0  2  0  0  0  0  0  0
  184.9970  178.6750  144.2290 C   0  0  1  0  0  3  0  0  0  0  0  0
  184.5610  180.1130  144.0290 C   0  0  0  0  0  1  0  0  0  0  0  0
  185.1290  177.9520  142.8760 C   0  0  0  0  0  2  0  0  0  0  0  0
  185.8360  178.5590  146.5920 C   0  0  0  0  0  0  0  0  0  0  0  0
  186.2340  178.6110  145.1360 C   0  0  1  0  0  3  0  0  0  0  0  0
  185.3050  179.5250  147.1150 O   0  0  0  0  0  0  0  0  0  0  0  0
  190.2580  178.1420  147.8230 C   0  0  0  0  0  2  0  0  0  0  0  0
  191.0160  176.9710  147.2820 C   0  0  0  0  0  0  0  0  0  0  0  0
  190.6840  176.4190  146.1090 C   0  0  0  0  0  3  0  0  0  0  0  0
  187.9890  177.3870  147.1580 C   0  0  0  0  0  0  0  0  0  0  0  0
  189.5090  176.7770  145.2870 C   0  0  0  0  0  3  0  0  0  0  0  0
  188.3380  177.2830  145.7160 C   0  0  0  0  0  0  0  0  0  0  0  0
  192.2010  176.4840  148.0100 C   0  0  0  0  0  0  0  0  0  0  0  0
  192.8140  175.2530  147.6400 N   0  0  0  0  0  1  0  0  0  0  0  0
  192.6880  177.1510  148.9630 O   0  0  0  0  0  0  0  0  0  0  0  0
  186.8240  178.7880  141.1270 C   0  0  0  0  0  2  0  0  0  0  0  0
  188.3640  177.5130  137.9360 N   0  0  0  0  0  0  0  0  0  0  0  0
  189.1320  178.0100  140.5520 C   0  0  0  0  0  3  0  0  0  0  0  0
  191.8870  176.4920  137.7670 C   0  0  0  0  0  0  0  0  0  0  0  0
  190.5620  176.7520  137.3830 C   0  0  0  0  0  3  0  0  0  0  0  0
  189.6470  177.2590  138.3090 C   0  0  0  0  0  0  0  0  0  0  0  0
  191.3730  177.2510  140.0210 C   0  0  0  0  0  3  0  0  0  0  0  0
  190.0560  177.5090  139.6350 C   0  0  0  0  0  0  0  0  0  0  0  0
  192.2850  176.7440  139.0890 C   0  0  0  0  0  3  0  0  0  0  0  0
  187.8180  178.2530  140.1470 C   0  0  0  0  0  0  0  0  0  0  0  0
  187.4520  178.0010  138.8180 C   0  0  0  0  0  3  0  0  0  0  0  0
  192.8520  175.9570  136.7900 C   0  0  0  0  0  0  0  0  0  0  0  0
  194.2140  176.3770  136.8170 N   0  0  0  0  0  1  0  0  0  0  0  0
  192.4820  175.1230  135.9200 O   0  0  0  0  0  0  0  0  0  0  0  0
  1  5  1  6  0  0  0
  1 10  1  0  0  0  0
  1 17  1  0  0  0  0
  4 21  1  6  0  0  0
  4  8  1  0  0  0  0
  4  5  1  0  0  0  0
  6  7  1  6  0  0  0
  6 10  1  0  0  0  0
  8  6  1  0  0  0  0
  9 11  2  0  0  0  0
  9  3  1  0  0  0  0
 10  9  1  1  0  0  0
 12  2  1  0  0  0  0
 13 12  1  0  0  0  0
 13 18  1  0  0  0  0
 14 13  2  0  0  0  0
 15  3  1  0  0  0  0
 15  2  2  0  0  0  0
 16 17  2  0  0  0  0
 16 14  1  0  0  0  0
 17 15  1  0  0  0  0
 18 20  2  0  0  0  0
 19 18  1  0  0  0  0
 22 26  2  0  0  0  0
 22 31  1  0  0  0  0
 24 29  1  0  0  0  0
 25 24  2  0  0  0  0
 25 26  1  0  0  0  0
 26 28  1  0  0  0  0
 28 27  1  0  0  0  0
 28 23  2  0  0  0  0
 29 27  2  0  0  0  0
 30 23  1  0  0  0  0
 30 21  1  0  0  0  0
 31 30  2  0  0  0  0
 32 33  1  0  0  0  0
 32 24  1  0  0  0  0
 34 32  2  0  0  0  0
M  END
>  <MODEL>
5

>  <REMARK>
 VINA RESULT:      -9.3      3.526      7.707
  Name = 
  4 active torsions:
  status: ('A' for Active; 'I' for Inactive)
    1  A    between atoms: C_3  and  C_25
    2  A    between atoms: C_7  and  C_11
    3  A    between atoms: C_8  and  C_18
    4  A    between atoms: C_18  and  C_30
                            x       y       z     vdW  Elec       q    Type
                         _______ _______ _______ _____ _____    ______ ____

>  <TORSDO>
F 4

$$$$
=
 OpenBabel10262423253D

 34 38  0  0  1  0  0  0  0  0999 V2000
  181.8880  179.5090  138.4810 C   0  0  2  0  0  3  0  0  0  0  0  0
  180.0660  180.9500  135.5110 C   0  0  0  0  0  3  0  0  0  0  0  0
  179.5510  178.6130  136.7470 S   0  0  0  0  0  0  0  0  0  0  0  0
  183.6770  178.8500  140.1450 C   0  0  1  0  0  3  0  0  0  0  0  0
  183.1540  179.9460  139.2100 C   0  0  0  0  0  2  0  0  0  0  0  0
  182.7350  177.0970  138.4480 C   0  0  1  0  0  3  0  0  0  0  0  0
  183.8420  176.3480  137.7320 C   0  0  0  0  0  1  0  0  0  0  0  0
  183.1460  177.4230  139.8950 C   0  0  0  0  0  2  0  0  0  0  0  0
  181.1870  177.8850  136.6360 C   0  0  0  0  0  0  0  0  0  0  0  0
  182.2680  178.2940  137.6080 C   0  0  1  0  0  3  0  0  0  0  0  0
  181.4500  177.1350  135.7100 O   0  0  0  0  0  0  0  0  0  0  0  0
  180.7350  182.2550  135.2410 C   0  0  0  0  0  2  0  0  0  0  0  0
  180.3710  183.2730  136.2760 C   0  0  0  0  0  0  0  0  0  0  0  0
  180.7130  183.1040  137.5590 C   0  0  0  0  0  3  0  0  0  0  0  0
  180.2890  180.2350  136.6150 C   0  0  0  0  0  0  0  0  0  0  0  0
  181.3450  181.8980  138.1330 C   0  0  0  0  0  3  0  0  0  0  0  0
  181.2400  180.6330  137.6870 C   0  0  0  0  0  0  0  0  0  0  0  0
  179.7100  184.5220  135.8530 C   0  0  0  0  0  0  0  0  0  0  0  0
  179.5770  185.6070  136.7660 N   0  0  0  0  0  1  0  0  0  0  0  0
  179.2600  184.6450  134.6820 O   0  0  0  0  0  0  0  0  0  0  0  0
  185.1900  178.9220  140.3500 C   0  0  0  0  0  2  0  0  0  0  0  0
  185.1220  178.5400  144.0960 N   0  0  0  0  0  0  0  0  0  0  0  0
  186.9180  178.2050  142.0110 C   0  0  0  0  0  3  0  0  0  0  0  0
  188.0790  177.4420  145.9760 C   0  0  0  0  0  0  0  0  0  0  0  0
  186.7740  177.8720  145.6910 C   0  0  0  0  0  3  0  0  0  0  0  0
  186.3880  178.1240  144.3710 C   0  0  0  0  0  0  0  0  0  0  0  0
  188.6140  177.5180  143.6030 C   0  0  0  0  0  3  0  0  0  0  0  0
  187.3150  177.9460  143.3230 C   0  0  0  0  0  0  0  0  0  0  0  0
  188.9940  177.2670  144.9250 C   0  0  0  0  0  3  0  0  0  0  0  0
  185.6160  178.6410  141.7550 C   0  0  0  0  0  0  0  0  0  0  0  0
  184.7220  178.7970  142.8220 C   0  0  0  0  0  3  0  0  0  0  0  0
  188.4860  177.1760  147.3670 C   0  0  0  0  0  0  0  0  0  0  0  0
  187.7810  177.7730  148.4520 N   0  0  0  0  0  1  0  0  0  0  0  0
  189.4630  176.4170  147.6100 O   0  0  0  0  0  0  0  0  0  0  0  0
  1  5  1  6  0  0  0
  2 15  2  0  0  0  0
  4 21  1  6  0  0  0
  5  4  1  0  0  0  0
  6  7  1  6  0  0  0
  6  8  1  0  0  0  0
  8  4  1  0  0  0  0
  9  3  1  0  0  0  0
 10  9  1  1  0  0  0
 10  6  1  0  0  0  0
 10  1  1  0  0  0  0
 11  9  2  0  0  0  0
 12  2  1  0  0  0  0
 12 13  1  0  0  0  0
 13 14  2  0  0  0  0
 14 16  1  0  0  0  0
 15  3  1  0  0  0  0
 15 17  1  0  0  0  0
 17 16  2  0  0  0  0
 17  1  1  0  0  0  0
 18 13  1  0  0  0  0
 18 19  1  0  0  0  0
 20 18  2  0  0  0  0
 21 30  1  0  0  0  0
 22 26  1  0  0  0  0
 23 28  1  0  0  0  0
 24 32  1  0  0  0  0
 25 24  1  0  0  0  0
 26 25  2  0  0  0  0
 27 29  1  0  0  0  0
 28 27  2  0  0  0  0
 28 26  1  0  0  0  0
 29 24  2  0  0  0  0
 30 23  2  0  0  0  0
 30 31  1  0  0  0  0
 31 22  2  0  0  0  0
 32 34  2  0  0  0  0
 32 33  1  0  0  0  0
M  END
>  <MODEL>
6

>  <REMARK>
 VINA RESULT:      -9.3      4.450     10.500
  Name = 
  4 active torsions:
  status: ('A' for Active; 'I' for Inactive)
    1  A    between atoms: C_3  and  C_25
    2  A    between atoms: C_7  and  C_11
    3  A    between atoms: C_8  and  C_18
    4  A    between atoms: C_18  and  C_30
                            x       y       z     vdW  Elec       q    Type
                         _______ _______ _______ _____ _____    ______ ____

>  <TORSDO>
F 4

$$$$
=
 OpenBabel10262423253D

 34 38  0  0  1  0  0  0  0  0999 V2000
  188.6280  177.8410  139.2670 C   0  0  2  0  0  3  0  0  0  0  0  0
  190.0690  176.4090  142.4430 C   0  0  0  0  0  3  0  0  0  0  0  0
  191.4390  177.4330  140.3610 S   0  0  0  0  0  0  0  0  0  0  0  0
  187.1780  178.2740  137.2390 C   0  0  1  0  0  3  0  0  0  0  0  0
  187.2040  177.8780  138.7190 C   0  0  0  0  0  2  0  0  0  0  0  0
  189.4920  177.0840  136.9830 C   0  0  1  0  0  3  0  0  0  0  0  0
  189.3910  175.8190  136.1530 C   0  0  0  0  0  1  0  0  0  0  0  0
  188.5090  178.1510  136.4700 C   0  0  0  0  0  2  0  0  0  0  0  0
  190.7410  176.4190  139.0570 C   0  0  0  0  0  0  0  0  0  0  0  0
  189.3860  176.7530  138.4790 C   0  0  1  0  0  3  0  0  0  0  0  0
  191.3190  175.4020  138.7100 O   0  0  0  0  0  0  0  0  0  0  0  0
  188.8880  176.0030  143.2570 C   0  0  0  0  0  2  0  0  0  0  0  0
  188.1830  177.1970  143.8190 C   0  0  0  0  0  0  0  0  0  0  0  0
  187.6050  178.0980  143.0150 C   0  0  0  0  0  3  0  0  0  0  0  0
  189.9690  177.1480  141.3380 C   0  0  0  0  0  0  0  0  0  0  0  0
  187.6880  178.1170  141.5390 C   0  0  0  0  0  3  0  0  0  0  0  0
  188.6810  177.6320  140.7730 C   0  0  0  0  0  0  0  0  0  0  0  0
  188.0440  177.3270  145.2810 C   0  0  0  0  0  0  0  0  0  0  0  0
  189.1710  177.1310  146.1290 N   0  0  0  0  0  1  0  0  0  0  0  0
  186.9300  177.6150  145.7970 O   0  0  0  0  0  0  0  0  0  0  0  0
  185.9750  177.6930  136.4960 C   0  0  0  0  0  2  0  0  0  0  0  0
  183.2430  175.8490  138.3180 N   0  0  0  0  0  0  0  0  0  0  0  0
  184.2100  178.4380  138.1050 C   0  0  0  0  0  3  0  0  0  0  0  0
  180.9200  177.5810  140.5730 C   0  0  0  0  0  0  0  0  0  0  0  0
  181.5430  176.5570  139.8430 C   0  0  0  0  0  3  0  0  0  0  0  0
  182.6390  176.8430  139.0240 C   0  0  0  0  0  0  0  0  0  0  0  0
  182.5010  179.1870  139.6540 C   0  0  0  0  0  3  0  0  0  0  0  0
  183.1190  178.1650  138.9300 C   0  0  0  0  0  0  0  0  0  0  0  0
  181.4060  178.8940  140.4730 C   0  0  0  0  0  3  0  0  0  0  0  0
  184.8070  177.4030  137.3830 C   0  0  0  0  0  0  0  0  0  0  0  0
  184.3080  176.1000  137.5100 C   0  0  0  0  0  3  0  0  0  0  0  0
  179.7640  177.2800  141.4370 C   0  0  0  0  0  0  0  0  0  0  0  0
  179.3050  178.2380  142.3870 N   0  0  0  0  0  1  0  0  0  0  0  0
  179.1710  176.1720  141.3440 O   0  0  0  0  0  0  0  0  0  0  0  0
  1  5  1  6  0  0  0
  1 17  1  0  0  0  0
  2 12  1  0  0  0  0
  3 15  1  0  0  0  0
  4 21  1  6  0  0  0
  4  5  1  0  0  0  0
  6  7  1  6  0  0  0
  6 10  1  0  0  0  0
  8  6  1  0  0  0  0
  8  4  1  0  0  0  0
  9  3  1  0  0  0  0
 10  9  1  1  0  0  0
 10  1  1  0  0  0  0
 11  9  2  0  0  0  0
 12 13  1  0  0  0  0
 13 18  1  0  0  0  0
 14 13  2  0  0  0  0
 15  2  2  0  0  0  0
 16 14  1  0  0  0  0
 17 15  1  0  0  0  0
 17 16  2  0  0  0  0
 18 20  2  0  0  0  0
 18 19  1  0  0  0  0
 21 30  1  0  0  0  0
 22 26  1  0  0  0  0
 23 28  1  0  0  0  0
 24 32  1  0  0  0  0
 25 24  2  0  0  0  0
 26 25  1  0  0  0  0
 27 29  2  0  0  0  0
 28 26  2  0  0  0  0
 28 27  1  0  0  0  0
 29 24  1  0  0  0  0
 30 31  1  0  0  0  0
 30 23  2  0  0  0  0
 31 22  2  0  0  0  0
 32 33  1  0  0  0  0
 34 32  2  0  0  0  0
M  END
>  <MODEL>
7

>  <REMARK>
 VINA RESULT:      -9.1      3.028      6.126
  Name = 
  4 active torsions:
  status: ('A' for Active; 'I' for Inactive)
    1  A    between atoms: C_3  and  C_25
    2  A    between atoms: C_7  and  C_11
    3  A    between atoms: C_8  and  C_18
    4  A    between atoms: C_18  and  C_30
                            x       y       z     vdW  Elec       q    Type
                         _______ _______ _______ _____ _____    ______ ____

>  <TORSDO>
F 4

$$$$
=
 OpenBabel10262423253D

 34 38  0  0  1  0  0  0  0  0999 V2000
  186.4620  178.2600  138.3230 C   0  0  2  0  0  3  0  0  0  0  0  0
  188.8910  176.2810  136.2250 C   0  0  0  0  0  3  0  0  0  0  0  0
  186.9070  177.8730  135.3360 S   0  0  0  0  0  0  0  0  0  0  0  0
  184.8900  179.0080  140.1590 C   0  0  1  0  0  3  0  0  0  0  0  0
  186.2020  178.2890  139.8250 C   0  0  0  0  0  2  0  0  0  0  0  0
  183.9470  178.1250  137.8860 C   0  0  1  0  0  3  0  0  0  0  0  0
  182.8690  177.0780  138.0860 C   0  0  0  0  0  1  0  0  0  0  0  0
  183.8900  179.1860  138.9980 C   0  0  0  0  0  2  0  0  0  0  0  0
  185.5430  177.1230  136.2270 C   0  0  0  0  0  0  0  0  0  0  0  0
  185.3130  177.4540  137.6820 C   0  0  1  0  0  3  0  0  0  0  0  0
  184.8640  176.2690  135.6800 O   0  0  0  0  0  0  0  0  0  0  0  0
  189.7800  175.5930  137.2040 C   0  0  0  0  0  2  0  0  0  0  0  0
  190.7290  176.5580  137.8420 C   0  0  0  0  0  0  0  0  0  0  0  0
  190.2820  177.5620  138.6060 C   0  0  0  0  0  3  0  0  0  0  0  0
  188.0320  177.2400  136.5730 C   0  0  0  0  0  0  0  0  0  0  0  0
  188.8640  177.9240  138.8140 C   0  0  0  0  0  3  0  0  0  0  0  0
  187.8390  177.7190  137.9670 C   0  0  0  0  0  0  0  0  0  0  0  0
  192.1800  176.3380  137.6990 C   0  0  0  0  0  0  0  0  0  0  0  0
  193.0770  176.7880  138.7100 N   0  0  0  0  0  1  0  0  0  0  0  0
  192.6430  175.7480  136.6850 O   0  0  0  0  0  0  0  0  0  0  0  0
  184.2550  178.5030  141.4540 C   0  0  0  0  0  2  0  0  0  0  0  0
  187.4170  177.6020  143.2910 N   0  0  0  0  0  0  0  0  0  0  0  0
  184.8820  178.5600  143.8760 C   0  0  0  0  0  3  0  0  0  0  0  0
  187.6790  177.9010  146.9420 C   0  0  0  0  0  0  0  0  0  0  0  0
  188.0170  177.6370  145.6050 C   0  0  0  0  0  3  0  0  0  0  0  0
  187.0870  177.8580  144.5860 C   0  0  0  0  0  0  0  0  0  0  0  0
  185.4620  178.6120  146.2300 C   0  0  0  0  0  3  0  0  0  0  0  0
  185.8030  178.3470  144.9020 C   0  0  0  0  0  0  0  0  0  0  0  0
  186.3980  178.3900  147.2460 C   0  0  0  0  0  3  0  0  0  0  0  0
  185.2410  178.2800  142.5560 C   0  0  0  0  0  0  0  0  0  0  0  0
  186.5290  177.8030  142.2810 C   0  0  0  0  0  3  0  0  0  0  0  0
  188.6600  177.6690  148.0170 C   0  0  0  0  0  0  0  0  0  0  0  0
  189.9330  177.1020  147.7210 N   0  0  0  0  0  1  0  0  0  0  0  0
  188.3810  177.9710  149.2080 O   0  0  0  0  0  0  0  0  0  0  0  0
  1  5  1  1  0  0  0
  2 15  2  0  0  0  0
  2 12  1  0  0  0  0
  3  9  1  0  0  0  0
  3 15  1  0  0  0  0
  4 21  1  1  0  0  0
  5  4  1  0  0  0  0
  6  7  1  1  0  0  0
  6  8  1  0  0  0  0
  8  4  1  0  0  0  0
 10  9  1  6  0  0  0
 10  6  1  0  0  0  0
 10  1  1  0  0  0  0
 11  9  2  0  0  0  0
 12 13  1  0  0  0  0
 13 14  2  0  0  0  0
 14 16  1  0  0  0  0
 15 17  1  0  0  0  0
 17  1  1  0  0  0  0
 17 16  2  0  0  0  0
 18 13  1  0  0  0  0
 18 19  1  0  0  0  0
 20 18  2  0  0  0  0
 21 30  1  0  0  0  0
 22 26  1  0  0  0  0
 23 28  1  0  0  0  0
 24 29  1  0  0  0  0
 24 32  1  0  0  0  0
 25 24  2  0  0  0  0
 26 28  2  0  0  0  0
 26 25  1  0  0  0  0
 27 29  2  0  0  0  0
 28 27  1  0  0  0  0
 30 23  2  0  0  0  0
 31 30  1  0  0  0  0
 31 22  2  0  0  0  0
 32 34  2  0  0  0  0
 33 32  1  0  0  0  0
M  END
>  <MODEL>
8

>  <REMARK>
 VINA RESULT:      -8.9      3.599      7.483
  Name = 
  4 active torsions:
  status: ('A' for Active; 'I' for Inactive)
    1  A    between atoms: C_3  and  C_25
    2  A    between atoms: C_7  and  C_11
    3  A    between atoms: C_8  and  C_18
    4  A    between atoms: C_18  and  C_30
                            x       y       z     vdW  Elec       q    Type
                         _______ _______ _______ _____ _____    ______ ____

>  <TORSDO>
F 4

$$$$
=
 OpenBabel10262423253D

 34 38  0  0  1  0  0  0  0  0999 V2000
  187.9890  178.3640  140.5470 C   0  0  2  0  0  3  0  0  0  0  0  0
  187.8190  177.4670  144.2050 C   0  0  0  0  0  3  0  0  0  0  0  0
  189.9990  178.2530  142.8310 S   0  0  0  0  0  0  0  0  0  0  0  0
  187.6150  178.4340  138.0450 C   0  0  1  0  0  3  0  0  0  0  0  0
  186.9660  178.2530  139.4210 C   0  0  0  0  0  2  0  0  0  0  0  0
  189.7730  177.3360  139.0320 C   0  0  1  0  0  3  0  0  0  0  0  0
  190.0320  175.9630  138.4420 C   0  0  0  0  0  1  0  0  0  0  0  0
  189.1480  178.2700  137.9810 C   0  0  0  0  0  2  0  0  0  0  0  0
  189.9430  177.0320  141.5180 C   0  0  0  0  0  0  0  0  0  0  0  0
  189.0000  177.2140  140.3520 C   0  0  1  0  0  3  0  0  0  0  0  0
  190.5950  176.0060  141.6220 O   0  0  0  0  0  0  0  0  0  0  0  0
  186.3900  177.1220  144.4540 C   0  0  0  0  0  2  0  0  0  0  0  0
  185.5310  178.3470  144.4570 C   0  0  0  0  0  0  0  0  0  0  0  0
  185.3950  179.0960  143.3570 C   0  0  0  0  0  3  0  0  0  0  0  0
  188.2420  178.0370  143.0760 C   0  0  0  0  0  0  0  0  0  0  0  0
  186.1330  178.9120  142.0890 C   0  0  0  0  0  3  0  0  0  0  0  0
  187.3550  178.3720  141.9300 C   0  0  0  0  0  0  0  0  0  0  0  0
  184.7520  178.6750  145.6650 C   0  0  0  0  0  0  0  0  0  0  0  0
  185.3660  178.6290  146.9490 N   0  0  0  0  0  1  0  0  0  0  0  0
  183.5380  179.0030  145.5760 O   0  0  0  0  0  0  0  0  0  0  0  0
  186.8650  177.6950  136.9380 C   0  0  0  0  0  2  0  0  0  0  0  0
  184.1800  175.1400  137.6060 N   0  0  0  0  0  0  0  0  0  0  0  0
  184.6320  177.8380  138.0580 C   0  0  0  0  0  3  0  0  0  0  0  0
  181.0560  176.0280  139.3190 C   0  0  0  0  0  0  0  0  0  0  0  0
  182.0390  175.2720  138.6610 C   0  0  0  0  0  3  0  0  0  0  0  0
  183.2280  175.8740  138.2430 C   0  0  0  0  0  0  0  0  0  0  0  0
  182.4670  178.0030  139.1390 C   0  0  0  0  0  3  0  0  0  0  0  0
  183.4420  177.2470  138.4840 C   0  0  0  0  0  0  0  0  0  0  0  0
  181.2790  177.3940  139.5550 C   0  0  0  0  0  3  0  0  0  0  0  0
  185.5900  177.0650  137.3970 C   0  0  0  0  0  0  0  0  0  0  0  0
  185.3450  175.7020  137.1850 C   0  0  0  0  0  3  0  0  0  0  0  0
  179.8010  175.3930  139.7600 C   0  0  0  0  0  0  0  0  0  0  0  0
  179.1710  175.8030  140.9700 N   0  0  0  0  0  1  0  0  0  0  0  0
  179.2730  174.4810  139.0690 O   0  0  0  0  0  0  0  0  0  0  0  0
  1  5  1  6  0  0  0
  1 17  1  0  0  0  0
  2 12  1  0  0  0  0
  3 15  1  0  0  0  0
  4 21  1  6  0  0  0
  4  5  1  0  0  0  0
  6  7  1  6  0  0  0
  6 10  1  0  0  0  0
  8  4  1  0  0  0  0
  8  6  1  0  0  0  0
  9 11  2  0  0  0  0
  9  3  1  0  0  0  0
 10  1  1  0  0  0  0
 10  9  1  1  0  0  0
 12 13  1  0  0  0  0
 13 18  1  0  0  0  0
 14 13  2  0  0  0  0
 15  2  2  0  0  0  0
 16 14  1  0  0  0  0
 17 16  2  0  0  0  0
 17 15  1  0  0  0  0
 18 19  1  0  0  0  0
 20 18  2  0  0  0  0
 21 30  1  0  0  0  0
 22 26  1  0  0  0  0
 23 28  1  0  0  0  0
 24 29  1  0  0  0  0
 24 32  1  0  0  0  0
 25 24  2  0  0  0  0
 26 28  2  0  0  0  0
 26 25  1  0  0  0  0
 27 29  2  0  0  0  0
 28 27  1  0  0  0  0
 30 23  2  0  0  0  0
 31 30  1  0  0  0  0
 31 22  2  0  0  0  0
 32 33  1  0  0  0  0
 34 32  2  0  0  0  0
M  END
>  <MODEL>
9

>  <REMARK>
 VINA RESULT:      -8.9      3.180      6.376
  Name = 
  4 active torsions:
  status: ('A' for Active; 'I' for Inactive)
    1  A    between atoms: C_3  and  C_25
    2  A    between atoms: C_7  and  C_11
    3  A    between atoms: C_8  and  C_18
    4  A    between atoms: C_18  and  C_30
                            x       y       z     vdW  Elec       q    Type
                         _______ _______ _______ _____ _____    ______ ____

>  <TORSDO>
F 4

$$$$
