=
 OpenBabel10262421353D

 32 37  0  0  1  0  0  0  0  0999 V2000
  182.2430  178.8360  142.4550 C   0  0  0  0  0  0  0  0  0  0  0  0
  187.0800  178.1260  143.6930 C   0  0  0  0  0  0  0  0  0  0  0  0
  189.4370  177.6220  139.4690 C   0  0  0  0  0  3  0  0  0  0  0  0
  190.6320  177.4590  140.1700 C   0  0  0  0  0  3  0  0  0  0  0  0
  184.6880  178.4990  143.7770 C   0  0  0  0  0  0  0  0  0  0  0  0
  185.8020  178.2600  141.6270 C   0  0  0  0  0  3  0  0  0  0  0  0
  183.4110  178.6370  141.7120 C   0  0  0  0  0  3  0  0  0  0  0  0
  188.2420  177.8300  140.1620 C   0  0  0  0  0  3  0  0  0  0  0  0
  187.0340  178.0870  142.2810 C   0  0  0  0  0  0  0  0  0  0  0  0
  188.2280  177.8780  141.5660 C   0  0  0  0  0  0  0  0  0  0  0  0
  189.4320  177.7600  143.6830 C   0  0  0  0  0  0  0  0  0  0  0  0
  182.2980  178.8750  143.8530 C   0  0  0  0  0  3  0  0  0  0  0  0
  184.6340  178.4640  142.3650 C   0  0  0  0  0  0  0  0  0  0  0  0
  183.5190  178.7040  144.5130 C   0  0  0  0  0  3  0  0  0  0  0  0
  190.6370  177.5040  141.5650 C   0  0  0  0  0  3  0  0  0  0  0  0
  189.4440  177.7120  142.2760 C   0  0  0  0  0  0  0  0  0  0  0  0
  185.9110  178.3290  144.4300 C   0  0  0  0  0  3  0  0  0  0  0  0
  188.2610  177.9610  144.3420 N   0  0  0  0  0  0  0  0  0  0  0  0
  180.9450  179.0440  141.7560 C   0  0  0  0  0  2  0  0  0  0  0  0
  181.1840  179.3250  140.3510 N   0  0  0  0  0  2  0  0  0  0  0  0
  180.3360  180.4480  139.9970 C   0  0  1  0  0  3  0  0  0  0  0  0
  181.0020  181.2470  139.0510 O   0  0  0  0  0  0  0  0  0  0  0  0
  180.0050  180.3870  138.5580 C   0  0  0  0  0  2  0  0  0  0  0  0
  190.6800  177.5610  144.4850 C   0  0  0  0  0  2  0  0  0  0  0  0
  190.3710  176.8690  145.8130 C   0  0  1  0  0  3  0  0  0  0  0  0
  191.5690  176.0800  146.3350 C   0  0  0  0  0  2  0  0  0  0  0  0
  192.1800  176.7380  147.4040 O   0  0  0  0  0  0  0  0  0  0  0  0
  192.7470  175.7160  148.1650 C   0  0  0  0  0  1  0  0  0  0  0  0
  189.7770  177.8100  146.8670 C   0  0  0  0  0  2  0  0  0  0  0  0
  188.3860  178.0440  148.8970 C   0  0  0  0  0  2  0  0  0  0  0  0
  187.4610  177.9950  147.7040 C   0  0  0  0  0  2  0  0  0  0  0  0
  188.7130  177.1430  147.7240 C   0  0  0  0  0  3  0  0  0  0  0  0
  1 12  1  0  0  0  0
  2 18  1  0  0  0  0
  2 17  2  0  0  0  0
  3  8  2  0  0  0  0
  3  4  1  0  0  0  0
  4 15  2  0  0  0  0
  5 17  1  0  0  0  0
  5 14  1  0  0  0  0
  6  9  2  0  0  0  0
  6 13  1  0  0  0  0
  7 13  1  0  0  0  0
  7  1  2  0  0  0  0
  8 10  1  0  0  0  0
  9  2  1  0  0  0  0
 10 16  2  0  0  0  0
 10  9  1  0  0  0  0
 11 18  2  0  0  0  0
 11 24  1  0  0  0  0
 12 14  2  0  0  0  0
 13  5  2  0  0  0  0
 15 16  1  0  0  0  0
 16 11  1  0  0  0  0
 19  1  1  0  0  0  0
 20 19  1  0  0  0  0
 21 20  1  6  0  0  0
 22 21  1  0  0  0  0
 23 22  1  0  0  0  0
 23 21  1  0  0  0  0
 25 24  1  6  0  0  0
 25 26  1  0  0  0  0
 25 29  1  0  0  0  0
 26 27  1  0  0  0  0
 27 28  1  0  0  0  0
 29 32  1  0  0  0  0
 31 32  1  0  0  0  0
 31 30  1  0  0  0  0
 32 30  1  0  0  0  0
M  END
>  <MODEL>
1

>  <REMARK>
 VINA RESULT:      -8.9      0.000      0.000
  Name = 
  9 active torsions:
  status: ('A' for Active; 'I' for Inactive)
    1  A    between atoms: C_1  and  N_10
    2  A    between atoms: C_2  and  C_24
    3  A    between atoms: O_6  and  C_7
    4  A    between atoms: C_7  and  C_32
    5  A    between atoms: N_10  and  C_24
    6  A    between atoms: C_16  and  C_27
    7  A    between atoms: C_22  and  C_30
    8  A    between atoms: C_22  and  C_32
    9  A    between atoms: C_27  and  C_32
                            x       y       z     vdW  Elec       q    Type
                         _______ _______ _______ _____ _____    ______ ____

>  <TORSDO>
F 9

$$$$
=
 OpenBabel10262421353D

 32 37  0  0  1  0  0  0  0  0999 V2000
  189.2320  177.3100  146.0250 C   0  0  0  0  0  0  0  0  0  0  0  0
  186.1810  178.3920  142.1580 C   0  0  0  0  0  0  0  0  0  0  0  0
  181.7340  178.7820  144.0880 C   0  0  0  0  0  3  0  0  0  0  0  0
  181.2230  179.0610  142.8200 C   0  0  0  0  0  3  0  0  0  0  0  0
  188.1160  177.8760  143.5200 C   0  0  0  0  0  0  0  0  0  0  0  0
  185.9230  178.0600  144.5540 C   0  0  0  0  0  3  0  0  0  0  0  0
  187.8580  177.5480  145.9160 C   0  0  0  0  0  3  0  0  0  0  0  0
  183.1000  178.5440  144.2530 C   0  0  0  0  0  3  0  0  0  0  0  0
  185.3510  178.3430  143.3010 C   0  0  0  0  0  0  0  0  0  0  0  0
  183.9720  178.5810  143.1530 C   0  0  0  0  0  0  0  0  0  0  0  0
  184.3230  178.9010  140.7610 C   0  0  0  0  0  0  0  0  0  0  0  0
  190.0460  177.3630  144.8880 C   0  0  0  0  0  3  0  0  0  0  0  0
  187.2940  177.8270  144.6680 C   0  0  0  0  0  0  0  0  0  0  0  0
  189.4890  177.6440  143.6360 C   0  0  0  0  0  3  0  0  0  0  0  0
  182.0740  179.1020  141.7150 C   0  0  0  0  0  3  0  0  0  0  0  0
  183.4500  178.8630  141.8650 C   0  0  0  0  0  0  0  0  0  0  0  0
  187.5540  178.1580  142.2730 C   0  0  0  0  0  3  0  0  0  0  0  0
  185.6480  178.6630  140.9390 N   0  0  0  0  0  0  0  0  0  0  0  0
  189.8350  177.0370  147.3590 C   0  0  0  0  0  2  0  0  0  0  0  0
  191.2820  176.9780  147.2410 N   0  0  0  0  0  2  0  0  0  0  0  0
  191.6820  175.6450  147.6520 C   0  0  1  0  0  3  0  0  0  0  0  0
  192.9000  175.3190  147.0290 O   0  0  0  0  0  0  0  0  0  0  0  0
  192.9690  175.7140  148.3760 C   0  0  0  0  0  2  0  0  0  0  0  0
  183.8220  179.1640  139.3750 C   0  0  0  0  0  2  0  0  0  0  0  0
  183.7530  177.8690  138.5650 C   0  0  1  0  0  3  0  0  0  0  0  0
  185.0800  177.5600  137.8750 C   0  0  0  0  0  2  0  0  0  0  0  0
  185.8630  178.7090  137.7470 O   0  0  0  0  0  0  0  0  0  0  0  0
  187.0790  178.2480  137.2460 C   0  0  0  0  0  1  0  0  0  0  0  0
  183.2110  176.6790  139.3630 C   0  0  0  0  0  2  0  0  0  0  0  0
  180.9110  175.9130  139.8500 C   0  0  0  0  0  2  0  0  0  0  0  0
  180.8190  177.0860  138.9020 C   0  0  0  0  0  2  0  0  0  0  0  0
  181.9470  176.0870  138.7590 C   0  0  0  0  0  3  0  0  0  0  0  0
  1 19  1  0  0  0  0
  2 17  2  0  0  0  0
  2  9  1  0  0  0  0
  3  8  1  0  0  0  0
  4  3  2  0  0  0  0
  5 14  2  0  0  0  0
  5 13  1  0  0  0  0
  6 13  1  0  0  0  0
  7  1  1  0  0  0  0
  9  6  2  0  0  0  0
 10  9  1  0  0  0  0
 10  8  2  0  0  0  0
 11 18  2  0  0  0  0
 11 16  1  0  0  0  0
 12  1  2  0  0  0  0
 13  7  2  0  0  0  0
 14 12  1  0  0  0  0
 15 16  2  0  0  0  0
 15  4  1  0  0  0  0
 16 10  1  0  0  0  0
 17  5  1  0  0  0  0
 18  2  1  0  0  0  0
 20 19  1  0  0  0  0
 21 20  1  6  0  0  0
 21 23  1  0  0  0  0
 22 21  1  0  0  0  0
 22 23  1  0  0  0  0
 24 11  1  0  0  0  0
 25 26  1  1  0  0  0
 25 29  1  0  0  0  0
 25 24  1  0  0  0  0
 27 26  1  0  0  0  0
 28 27  1  0  0  0  0
 31 30  1  0  0  0  0
 32 31  1  0  0  0  0
 32 29  1  0  0  0  0
 32 30  1  0  0  0  0
M  END
>  <MODEL>
2

>  <REMARK>
 VINA RESULT:      -8.7      2.386      9.266
  Name = 
  9 active torsions:
  status: ('A' for Active; 'I' for Inactive)
    1  A    between atoms: C_1  and  N_10
    2  A    between atoms: C_2  and  C_24
    3  A    between atoms: O_6  and  C_7
    4  A    between atoms: C_7  and  C_32
    5  A    between atoms: N_10  and  C_24
    6  A    between atoms: C_16  and  C_27
    7  A    between atoms: C_22  and  C_30
    8  A    between atoms: C_22  and  C_32
    9  A    between atoms: C_27  and  C_32
                            x       y       z     vdW  Elec       q    Type
                         _______ _______ _______ _____ _____    ______ ____

>  <TORSDO>
F 9

$$$$
=
 OpenBabel10262421353D

 32 37  0  0  1  0  0  0  0  0999 V2000
  188.0660  177.8910  146.9100 C   0  0  0  0  0  0  0  0  0  0  0  0
  184.4970  178.5640  143.4110 C   0  0  0  0  0  0  0  0  0  0  0  0
  186.8000  178.2660  139.1380 C   0  0  0  0  0  3  0  0  0  0  0  0
  185.5860  178.4840  138.4840 C   0  0  0  0  0  3  0  0  0  0  0  0
  185.6790  178.3230  145.5110 C   0  0  0  0  0  0  0  0  0  0  0  0
  186.8950  178.1570  143.4110 C   0  0  0  0  0  3  0  0  0  0  0  0
  188.0760  177.9120  145.5110 C   0  0  0  0  0  3  0  0  0  0  0  0
  186.8450  178.2290  140.5340 C   0  0  0  0  0  3  0  0  0  0  0  0
  185.7030  178.3750  142.6990 C   0  0  0  0  0  0  0  0  0  0  0  0
  185.6760  178.4100  141.2920 C   0  0  0  0  0  0  0  0  0  0  0  0
  183.2740  178.8120  141.3850 C   0  0  0  0  0  0  0  0  0  0  0  0
  186.8670  178.0770  147.6060 C   0  0  0  0  0  3  0  0  0  0  0  0
  186.8890  178.1300  144.8070 C   0  0  0  0  0  0  0  0  0  0  0  0
  185.6750  178.2940  146.9080 C   0  0  0  0  0  3  0  0  0  0  0  0
  184.4160  178.6650  139.2220 C   0  0  0  0  0  3  0  0  0  0  0  0
  184.4450  178.6310  140.6260 C   0  0  0  0  0  0  0  0  0  0  0  0
  184.4920  178.5380  144.8080 C   0  0  0  0  0  3  0  0  0  0  0  0
  183.3350  178.7770  142.7410 N   0  0  0  0  0  0  0  0  0  0  0  0
  189.3280  177.6340  147.6570 C   0  0  0  0  0  2  0  0  0  0  0  0
  189.9470  176.4130  147.1690 N   0  0  0  0  0  2  0  0  0  0  0  0
  191.3080  176.7530  146.7960 C   0  0  1  0  0  3  0  0  0  0  0  0
  192.0880  176.8690  147.9610 O   0  0  0  0  0  0  0  0  0  0  0  0
  192.2250  175.6770  147.2290 C   0  0  0  0  0  2  0  0  0  0  0  0
  181.9510  179.0800  140.7340 C   0  0  0  0  0  2  0  0  0  0  0  0
  180.9820  177.9220  140.9720 C   0  0  1  0  0  3  0  0  0  0  0  0
  179.7210  178.3780  141.7020 C   0  0  0  0  0  2  0  0  0  0  0  0
  179.5040  177.6230  142.8560 O   0  0  0  0  0  0  0  0  0  0  0  0
  179.9660  178.4310  143.8940 C   0  0  0  0  0  1  0  0  0  0  0  0
  180.6740  177.1160  139.7060 C   0  0  0  0  0  2  0  0  0  0  0  0
  181.3590  175.1760  138.3340 C   0  0  0  0  0  2  0  0  0  0  0  0
  182.5840  175.6950  139.0490 C   0  0  0  0  0  2  0  0  0  0  0  0
  181.2410  175.7060  139.7480 C   0  0  0  0  0  3  0  0  0  0  0  0
  1 12  1  0  0  0  0
  1 19  1  0  0  0  0
  2 17  1  0  0  0  0
  3  8  1  0  0  0  0
  4  3  2  0  0  0  0
  4 15  1  0  0  0  0
  5 14  1  0  0  0  0
  6 13  2  0  0  0  0
  7  1  2  0  0  0  0
  8 10  2  0  0  0  0
  9  2  2  0  0  0  0
  9  6  1  0  0  0  0
 10  9  1  0  0  0  0
 11 18  2  0  0  0  0
 13  7  1  0  0  0  0
 13  5  1  0  0  0  0
 14 12  2  0  0  0  0
 15 16  2  0  0  0  0
 16 10  1  0  0  0  0
 16 11  1  0  0  0  0
 17  5  2  0  0  0  0
 18  2  1  0  0  0  0
 20 19  1  0  0  0  0
 21 20  1  1  0  0  0
 21 23  1  0  0  0  0
 21 22  1  0  0  0  0
 23 22  1  0  0  0  0
 24 25  1  0  0  0  0
 24 11  1  0  0  0  0
 25 29  1  6  0  0  0
 25 26  1  0  0  0  0
 26 27  1  0  0  0  0
 27 28  1  0  0  0  0
 29 32  1  0  0  0  0
 30 31  1  0  0  0  0
 30 32  1  0  0  0  0
 31 32  1  0  0  0  0
M  END
>  <MODEL>
3

>  <REMARK>
 VINA RESULT:      -8.7      2.335      8.874
  Name = 
  9 active torsions:
  status: ('A' for Active; 'I' for Inactive)
    1  A    between atoms: C_1  and  N_10
    2  A    between atoms: C_2  and  C_24
    3  A    between atoms: O_6  and  C_7
    4  A    between atoms: C_7  and  C_32
    5  A    between atoms: N_10  and  C_24
    6  A    between atoms: C_16  and  C_27
    7  A    between atoms: C_22  and  C_30
    8  A    between atoms: C_22  and  C_32
    9  A    between atoms: C_27  and  C_32
                            x       y       z     vdW  Elec       q    Type
                         _______ _______ _______ _____ _____    ______ ____

>  <TORSDO>
F 9

$$$$
=
 OpenBabel10262421353D

 32 37  0  0  1  0  0  0  0  0999 V2000
  189.1510  177.4800  146.2740 C   0  0  0  0  0  0  0  0  0  0  0  0
  186.1720  178.2670  142.2810 C   0  0  0  0  0  0  0  0  0  0  0  0
  181.7020  178.8680  144.1000 C   0  0  0  0  0  3  0  0  0  0  0  0
  181.2130  179.0450  142.8050 C   0  0  0  0  0  3  0  0  0  0  0  0
  188.0800  177.8450  143.7130 C   0  0  0  0  0  0  0  0  0  0  0  0
  185.8730  178.1400  144.6930 C   0  0  0  0  0  3  0  0  0  0  0  0
  187.7820  177.7230  146.1240 C   0  0  0  0  0  3  0  0  0  0  0  0
  183.0620  178.6290  144.3070 C   0  0  0  0  0  3  0  0  0  0  0  0
  185.3250  178.3230  143.4120 C   0  0  0  0  0  0  0  0  0  0  0  0
  183.9510  178.5630  143.2210 C   0  0  0  0  0  0  0  0  0  0  0  0
  184.3410  178.6770  140.8180 C   0  0  0  0  0  0  0  0  0  0  0  0
  189.9820  177.4280  145.1500 C   0  0  0  0  0  3  0  0  0  0  0  0
  187.2400  177.9030  144.8480 C   0  0  0  0  0  0  0  0  0  0  0  0
  189.4470  177.6080  143.8710 C   0  0  0  0  0  3  0  0  0  0  0  0
  182.0820  178.9830  141.7140 C   0  0  0  0  0  3  0  0  0  0  0  0
  183.4520  178.7420  141.9070 C   0  0  0  0  0  0  0  0  0  0  0  0
  187.5400  178.0270  142.4380 C   0  0  0  0  0  3  0  0  0  0  0  0
  185.6610  178.4400  141.0360 N   0  0  0  0  0  0  0  0  0  0  0  0
  189.7300  177.3130  147.6360 C   0  0  0  0  0  2  0  0  0  0  0  0
  191.1740  177.1870  147.5430 N   0  0  0  0  0  2  0  0  0  0  0  0
  191.4850  175.7810  147.7160 C   0  0  1  0  0  3  0  0  0  0  0  0
  192.4500  175.4030  146.7660 O   0  0  0  0  0  0  0  0  0  0  0  0
  192.9110  175.6270  148.0740 C   0  0  0  0  0  2  0  0  0  0  0  0
  183.8640  178.8280  139.4060 C   0  0  0  0  0  2  0  0  0  0  0  0
  184.1730  177.5730  138.5890 C   0  0  1  0  0  3  0  0  0  0  0  0
  182.9180  176.7430  138.3290 C   0  0  0  0  0  2  0  0  0  0  0  0
  182.5670  175.9910  139.4520 O   0  0  0  0  0  0  0  0  0  0  0  0
  181.1970  175.7760  139.3140 C   0  0  0  0  0  1  0  0  0  0  0  0
  184.9690  177.8570  137.3110 C   0  0  0  0  0  2  0  0  0  0  0  0
  187.1270  177.0100  136.4530 C   0  0  0  0  0  2  0  0  0  0  0  0
  187.1510  178.5180  136.3610 C   0  0  0  0  0  2  0  0  0  0  0  0
  186.4730  177.8440  137.5350 C   0  0  0  0  0  3  0  0  0  0  0  0
  1 19  1  0  0  0  0
  2 17  2  0  0  0  0
  2  9  1  0  0  0  0
  3  8  1  0  0  0  0
  4  3  2  0  0  0  0
  5 14  2  0  0  0  0
  5 13  1  0  0  0  0
  6 13  1  0  0  0  0
  7  1  1  0  0  0  0
  9  6  2  0  0  0  0
 10  9  1  0  0  0  0
 10  8  2  0  0  0  0
 11 18  2  0  0  0  0
 11 16  1  0  0  0  0
 12  1  2  0  0  0  0
 13  7  2  0  0  0  0
 14 12  1  0  0  0  0
 15 16  2  0  0  0  0
 15  4  1  0  0  0  0
 16 10  1  0  0  0  0
 17  5  1  0  0  0  0
 18  2  1  0  0  0  0
 20 19  1  0  0  0  0
 21 20  1  6  0  0  0
 21 23  1  0  0  0  0
 22 21  1  0  0  0  0
 22 23  1  0  0  0  0
 24 11  1  0  0  0  0
 25 29  1  6  0  0  0
 25 24  1  0  0  0  0
 26 25  1  0  0  0  0
 26 27  1  0  0  0  0
 28 27  1  0  0  0  0
 29 32  1  0  0  0  0
 30 32  1  0  0  0  0
 31 30  1  0  0  0  0
 31 32  1  0  0  0  0
M  END
>  <MODEL>
4

>  <REMARK>
 VINA RESULT:      -8.7      2.464      9.400
  Name = 
  9 active torsions:
  status: ('A' for Active; 'I' for Inactive)
    1  A    between atoms: C_1  and  N_10
    2  A    between atoms: C_2  and  C_24
    3  A    between atoms: O_6  and  C_7
    4  A    between atoms: C_7  and  C_32
    5  A    between atoms: N_10  and  C_24
    6  A    between atoms: C_16  and  C_27
    7  A    between atoms: C_22  and  C_30
    8  A    between atoms: C_22  and  C_32
    9  A    between atoms: C_27  and  C_32
                            x       y       z     vdW  Elec       q    Type
                         _______ _______ _______ _____ _____    ______ ____

>  <TORSDO>
F 9

$$$$
=
 OpenBabel10262421353D

 32 37  0  0  1  0  0  0  0  0999 V2000
  187.7000  177.8040  146.7750 C   0  0  0  0  0  0  0  0  0  0  0  0
  185.2520  178.7120  142.4600 C   0  0  0  0  0  0  0  0  0  0  0  0
  188.4760  177.8180  138.9310 C   0  0  0  0  0  3  0  0  0  0  0  0
  187.5100  178.1510  137.9810 C   0  0  0  0  0  3  0  0  0  0  0  0
  185.8260  178.4570  144.7990 C   0  0  0  0  0  0  0  0  0  0  0  0
  187.4890  177.9880  143.0870 C   0  0  0  0  0  3  0  0  0  0  0  0
  188.0600  177.7290  145.4260 C   0  0  0  0  0  3  0  0  0  0  0  0
  188.1670  177.8700  140.2910 C   0  0  0  0  0  3  0  0  0  0  0  0
  186.5570  178.3150  142.0870 C   0  0  0  0  0  0  0  0  0  0  0  0
  186.8860  178.2570  140.7200 C   0  0  0  0  0  0  0  0  0  0  0  0
  184.6220  178.9840  140.1810 C   0  0  0  0  0  0  0  0  0  0  0  0
  186.4050  178.1960  147.1350 C   0  0  0  0  0  3  0  0  0  0  0  0
  187.1310  178.0560  144.4350 C   0  0  0  0  0  0  0  0  0  0  0  0
  185.4700  178.5240  146.1480 C   0  0  0  0  0  3  0  0  0  0  0  0
  186.2320  178.5380  138.3890 C   0  0  0  0  0  3  0  0  0  0  0  0
  185.9060  178.5960  139.7530 C   0  0  0  0  0  0  0  0  0  0  0  0
  184.8960  178.7820  143.8090 C   0  0  0  0  0  3  0  0  0  0  0  0
  184.3380  179.0320  141.5090 N   0  0  0  0  0  0  0  0  0  0  0  0
  188.6830  177.4310  147.8280 C   0  0  0  0  0  2  0  0  0  0  0  0
  189.5490  176.3720  147.3380 N   0  0  0  0  0  2  0  0  0  0  0  0
  190.9120  176.8540  147.4610 C   0  0  1  0  0  3  0  0  0  0  0  0
  191.7930  175.7590  147.4110 O   0  0  0  0  0  0  0  0  0  0  0  0
  191.6690  176.5200  146.2360 C   0  0  0  0  0  2  0  0  0  0  0  0
  183.5580  179.3820  139.2060 C   0  0  0  0  0  2  0  0  0  0  0  0
  182.3390  178.4680  139.3250 C   0  0  1  0  0  3  0  0  0  0  0  0
  181.0410  179.2640  139.4320 C   0  0  0  0  0  2  0  0  0  0  0  0
  180.7630  179.6040  140.7580 O   0  0  0  0  0  0  0  0  0  0  0  0
  180.5390  178.3830  141.3920 C   0  0  0  0  0  1  0  0  0  0  0  0
  182.2800  177.3850  138.2430 C   0  0  0  0  0  2  0  0  0  0  0  0
  182.0670  174.9490  137.8750 C   0  0  0  0  0  2  0  0  0  0  0  0
  183.5210  175.3200  137.6960 C   0  0  0  0  0  2  0  0  0  0  0  0
  182.6900  176.0130  138.7560 C   0  0  0  0  0  3  0  0  0  0  0  0
  1 12  1  0  0  0  0
  1 19  1  0  0  0  0
  2 17  1  0  0  0  0
  3  8  1  0  0  0  0
  4 15  1  0  0  0  0
  4  3  2  0  0  0  0
  5 14  1  0  0  0  0
  6 13  2  0  0  0  0
  7  1  2  0  0  0  0
  8 10  2  0  0  0  0
  9  2  2  0  0  0  0
  9  6  1  0  0  0  0
 10  9  1  0  0  0  0
 11 18  2  0  0  0  0
 13  5  1  0  0  0  0
 13  7  1  0  0  0  0
 14 12  2  0  0  0  0
 15 16  2  0  0  0  0
 16 11  1  0  0  0  0
 16 10  1  0  0  0  0
 17  5  2  0  0  0  0
 18  2  1  0  0  0  0
 20 19  1  0  0  0  0
 21 20  1  6  0  0  0
 22 21  1  0  0  0  0
 23 22  1  0  0  0  0
 23 21  1  0  0  0  0
 24 25  1  0  0  0  0
 24 11  1  0  0  0  0
 25 29  1  6  0  0  0
 25 26  1  0  0  0  0
 26 27  1  0  0  0  0
 27 28  1  0  0  0  0
 29 32  1  0  0  0  0
 30 32  1  0  0  0  0
 31 30  1  0  0  0  0
 31 32  1  0  0  0  0
M  END
>  <MODEL>
5

>  <REMARK>
 VINA RESULT:      -8.2      2.333      8.655
  Name = 
  9 active torsions:
  status: ('A' for Active; 'I' for Inactive)
    1  A    between atoms: C_1  and  N_10
    2  A    between atoms: C_2  and  C_24
    3  A    between atoms: O_6  and  C_7
    4  A    between atoms: C_7  and  C_32
    5  A    between atoms: N_10  and  C_24
    6  A    between atoms: C_16  and  C_27
    7  A    between atoms: C_22  and  C_30
    8  A    between atoms: C_22  and  C_32
    9  A    between atoms: C_27  and  C_32
                            x       y       z     vdW  Elec       q    Type
                         _______ _______ _______ _____ _____    ______ ____

>  <TORSDO>
F 9

$$$$
=
 OpenBabel10262421353D

 32 37  0  0  1  0  0  0  0  0999 V2000
  190.2880  177.5050  139.7350 C   0  0  0  0  0  0  0  0  0  0  0  0
  185.7720  178.6210  141.6830 C   0  0  0  0  0  0  0  0  0  0  0  0
  186.2070  177.8760  146.4690 C   0  0  0  0  0  3  0  0  0  0  0  0
  184.8750  178.2580  146.6360 C   0  0  0  0  0  3  0  0  0  0  0  0
  187.6250  178.2540  140.1670 C   0  0  0  0  0  0  0  0  0  0  0  0
  187.9160  177.8650  142.5500 C   0  0  0  0  0  3  0  0  0  0  0  0
  189.7690  177.5030  141.0340 C   0  0  0  0  0  3  0  0  0  0  0  0
  186.7770  177.8670  145.1940 C   0  0  0  0  0  3  0  0  0  0  0  0
  186.5800  178.2370  142.7780 C   0  0  0  0  0  0  0  0  0  0  0  0
  186.0210  178.2400  144.0700 C   0  0  0  0  0  0  0  0  0  0  0  0
  183.9100  179.0000  143.1160 C   0  0  0  0  0  0  0  0  0  0  0  0
  189.4820  177.8890  138.6580 C   0  0  0  0  0  3  0  0  0  0  0  0
  188.4390  177.8720  141.2560 C   0  0  0  0  0  0  0  0  0  0  0  0
  188.1510  178.2610  138.8730 C   0  0  0  0  0  3  0  0  0  0  0  0
  184.1090  178.6310  145.5300 C   0  0  0  0  0  3  0  0  0  0  0  0
  184.6680  178.6260  144.2420 C   0  0  0  0  0  0  0  0  0  0  0  0
  186.2970  178.6260  140.3880 C   0  0  0  0  0  3  0  0  0  0  0  0
  184.4790  178.9830  141.8830 N   0  0  0  0  0  0  0  0  0  0  0  0
  191.7110  177.1360  139.5040 C   0  0  0  0  0  2  0  0  0  0  0  0
  191.7880  176.0650  138.5250 N   0  0  0  0  0  2  0  0  0  0  0  0
  192.8860  176.3880  137.6340 C   0  0  1  0  0  3  0  0  0  0  0  0
  194.0960  176.0020  138.2360 O   0  0  0  0  0  0  0  0  0  0  0  0
  193.5890  175.1490  137.2410 C   0  0  0  0  0  2  0  0  0  0  0  0
  182.4680  179.3870  143.2350 C   0  0  0  0  0  2  0  0  0  0  0  0
  181.6170  178.6410  142.2080 C   0  0  1  0  0  3  0  0  0  0  0  0
  180.2550  178.2500  142.7760 C   0  0  0  0  0  2  0  0  0  0  0  0
  180.1940  178.4840  144.1510 O   0  0  0  0  0  0  0  0  0  0  0  0
  178.9670  179.1150  144.3450 C   0  0  0  0  0  1  0  0  0  0  0  0
  181.5100  179.3670  140.8630 C   0  0  0  0  0  2  0  0  0  0  0  0
  181.3610  179.1140  138.4070 C   0  0  0  0  0  2  0  0  0  0  0  0
  182.8210  179.2490  138.7720 C   0  0  0  0  0  2  0  0  0  0  0  0
  181.8840  178.4840  139.6820 C   0  0  0  0  0  3  0  0  0  0  0  0
  1  7  1  0  0  0  0
  2 18  1  0  0  0  0
  2  9  1  0  0  0  0
  3  4  1  0  0  0  0
  5 17  1  0  0  0  0
  5 13  1  0  0  0  0
  6  9  2  0  0  0  0
  7 13  2  0  0  0  0
  8  3  2  0  0  0  0
  9 10  1  0  0  0  0
 10 16  2  0  0  0  0
 10  8  1  0  0  0  0
 11 24  1  0  0  0  0
 11 16  1  0  0  0  0
 12 14  1  0  0  0  0
 12  1  2  0  0  0  0
 13  6  1  0  0  0  0
 14  5  2  0  0  0  0
 15  4  2  0  0  0  0
 16 15  1  0  0  0  0
 17  2  2  0  0  0  0
 18 11  2  0  0  0  0
 19  1  1  0  0  0  0
 20 19  1  0  0  0  0
 21 22  1  0  0  0  0
 21 20  1  1  0  0  0
 23 21  1  0  0  0  0
 23 22  1  0  0  0  0
 25 29  1  6  0  0  0
 25 26  1  0  0  0  0
 25 24  1  0  0  0  0
 26 27  1  0  0  0  0
 27 28  1  0  0  0  0
 30 31  1  0  0  0  0
 30 32  1  0  0  0  0
 31 32  1  0  0  0  0
 32 29  1  0  0  0  0
M  END
>  <MODEL>
6

>  <REMARK>
 VINA RESULT:      -8.0      3.151      9.085
  Name = 
  9 active torsions:
  status: ('A' for Active; 'I' for Inactive)
    1  A    between atoms: C_1  and  N_10
    2  A    between atoms: C_2  and  C_24
    3  A    between atoms: O_6  and  C_7
    4  A    between atoms: C_7  and  C_32
    5  A    between atoms: N_10  and  C_24
    6  A    between atoms: C_16  and  C_27
    7  A    between atoms: C_22  and  C_30
    8  A    between atoms: C_22  and  C_32
    9  A    between atoms: C_27  and  C_32
                            x       y       z     vdW  Elec       q    Type
                         _______ _______ _______ _____ _____    ______ ____

>  <TORSDO>
F 9

$$$$
=
 OpenBabel10262421353D

 32 37  0  0  1  0  0  0  0  0999 V2000
  188.0750  177.5280  146.7570 C   0  0  0  0  0  0  0  0  0  0  0  0
  185.4940  178.6260  142.5650 C   0  0  0  0  0  0  0  0  0  0  0  0
  188.6010  177.8780  138.8990 C   0  0  0  0  0  3  0  0  0  0  0  0
  187.6050  178.2540  137.9960 C   0  0  0  0  0  3  0  0  0  0  0  0
  186.1420  178.2690  144.8710 C   0  0  0  0  0  0  0  0  0  0  0  0
  187.7470  177.8700  143.0880 C   0  0  0  0  0  3  0  0  0  0  0  0
  188.3920  177.5090  145.3940 C   0  0  0  0  0  3  0  0  0  0  0  0
  188.3350  177.8720  140.2700 C   0  0  0  0  0  3  0  0  0  0  0  0
  186.7850  178.2420  142.1340 C   0  0  0  0  0  0  0  0  0  0  0  0
  187.0700  178.2430  140.7560 C   0  0  0  0  0  0  0  0  0  0  0  0
  184.7930  178.9970  140.3220 C   0  0  0  0  0  0  0  0  0  0  0  0
  186.7950  177.9060  147.1740 C   0  0  0  0  0  3  0  0  0  0  0  0
  187.4330  177.8820  144.4490 C   0  0  0  0  0  0  0  0  0  0  0  0
  185.8290  178.2790  146.2330 C   0  0  0  0  0  3  0  0  0  0  0  0
  186.3430  178.6250  138.4610 C   0  0  0  0  0  3  0  0  0  0  0  0
  186.0610  178.6250  139.8370 C   0  0  0  0  0  0  0  0  0  0  0  0
  185.1820  178.6380  143.9270 C   0  0  0  0  0  3  0  0  0  0  0  0
  184.5520  178.9890  141.6580 N   0  0  0  0  0  0  0  0  0  0  0  0
  189.0910  177.1070  147.7610 C   0  0  0  0  0  2  0  0  0  0  0  0
  190.4200  177.1930  147.1800 N   0  0  0  0  0  2  0  0  0  0  0  0
  191.0130  175.8730  147.2920 C   0  0  1  0  0  3  0  0  0  0  0  0
  192.0730  175.7670  146.3750 O   0  0  0  0  0  0  0  0  0  0  0  0
  192.4230  175.9970  147.7160 C   0  0  0  0  0  2  0  0  0  0  0  0
  183.6990  179.4390  139.3990 C   0  0  0  0  0  2  0  0  0  0  0  0
  182.5230  178.4640  139.4410 C   0  0  1  0  0  3  0  0  0  0  0  0
  182.9550  177.0720  139.8930 C   0  0  0  0  0  2  0  0  0  0  0  0
  182.9390  176.1670  138.8290 O   0  0  0  0  0  0  0  0  0  0  0  0
  181.6840  175.5640  138.9030 C   0  0  0  0  0  1  0  0  0  0  0  0
  181.3200  178.9940  140.2290 C   0  0  0  0  0  2  0  0  0  0  0  0
  180.8220  179.2700  142.6350 C   0  0  0  0  0  2  0  0  0  0  0  0
  179.6820  178.5010  142.0110 C   0  0  0  0  0  2  0  0  0  0  0  0
  181.1010  178.2590  141.5420 C   0  0  0  0  0  3  0  0  0  0  0  0
  1 12  1  0  0  0  0
  1 19  1  0  0  0  0
  2 17  1  0  0  0  0
  3  8  1  0  0  0  0
  4 15  1  0  0  0  0
  4  3  2  0  0  0  0
  5 14  1  0  0  0  0
  6 13  2  0  0  0  0
  7  1  2  0  0  0  0
  8 10  2  0  0  0  0
  9  2  2  0  0  0  0
  9  6  1  0  0  0  0
 10  9  1  0  0  0  0
 11 18  2  0  0  0  0
 13  5  1  0  0  0  0
 13  7  1  0  0  0  0
 14 12  2  0  0  0  0
 15 16  2  0  0  0  0
 16 11  1  0  0  0  0
 16 10  1  0  0  0  0
 17  5  2  0  0  0  0
 18  2  1  0  0  0  0
 20 19  1  0  0  0  0
 21 20  1  6  0  0  0
 21 23  1  0  0  0  0
 22 21  1  0  0  0  0
 22 23  1  0  0  0  0
 24 11  1  0  0  0  0
 25 24  1  1  0  0  0
 25 26  1  0  0  0  0
 25 29  1  0  0  0  0
 27 28  1  0  0  0  0
 27 26  1  0  0  0  0
 29 32  1  0  0  0  0
 31 30  1  0  0  0  0
 32 31  1  0  0  0  0
 32 30  1  0  0  0  0
M  END
>  <MODEL>
7

>  <REMARK>
 VINA RESULT:      -7.8      2.083      8.385
  Name = 
  9 active torsions:
  status: ('A' for Active; 'I' for Inactive)
    1  A    between atoms: C_1  and  N_10
    2  A    between atoms: C_2  and  C_24
    3  A    between atoms: O_6  and  C_7
    4  A    between atoms: C_7  and  C_32
    5  A    between atoms: N_10  and  C_24
    6  A    between atoms: C_16  and  C_27
    7  A    between atoms: C_22  and  C_30
    8  A    between atoms: C_22  and  C_32
    9  A    between atoms: C_27  and  C_32
                            x       y       z     vdW  Elec       q    Type
                         _______ _______ _______ _____ _____    ______ ____

>  <TORSDO>
F 9

$$$$
=
 OpenBabel10262421353D

 32 37  0  0  1  0  0  0  0  0999 V2000
  192.1070  176.0800  137.4210 C   0  0  0  0  0  0  0  0  0  0  0  0
  188.1980  177.9970  139.9660 C   0  0  0  0  0  0  0  0  0  0  0  0
  189.0090  176.8690  144.6270 C   0  0  0  0  0  3  0  0  0  0  0  0
  187.8210  177.5120  144.9750 C   0  0  0  0  0  3  0  0  0  0  0  0
  189.7390  177.3460  138.2150 C   0  0  0  0  0  0  0  0  0  0  0  0
  190.2110  176.7500  140.5250 C   0  0  0  0  0  3  0  0  0  0  0  0
  191.7530  176.1030  138.7740 C   0  0  0  0  0  3  0  0  0  0  0  0
  189.4130  176.8220  143.2910 C   0  0  0  0  0  3  0  0  0  0  0  0
  189.0240  177.3810  140.9350 C   0  0  0  0  0  0  0  0  0  0  0  0
  188.6320  177.4180  142.2860 C   0  0  0  0  0  0  0  0  0  0  0  0
  186.6420  178.6680  141.6370 C   0  0  0  0  0  0  0  0  0  0  0  0
  191.2850  176.6940  136.4700 C   0  0  0  0  0  3  0  0  0  0  0  0
  190.5710  176.7300  139.1770 C   0  0  0  0  0  0  0  0  0  0  0  0
  190.1010  177.3250  136.8660 C   0  0  0  0  0  3  0  0  0  0  0  0
  187.0330  178.1100  143.9910 C   0  0  0  0  0  3  0  0  0  0  0  0
  187.4250  178.0700  142.6430 C   0  0  0  0  0  0  0  0  0  0  0  0
  188.5590  177.9750  138.6170 C   0  0  0  0  0  3  0  0  0  0  0  0
  187.0470  178.6110  140.3420 N   0  0  0  0  0  0  0  0  0  0  0  0
  193.3790  175.4330  136.9980 C   0  0  0  0  0  2  0  0  0  0  0  0
  194.3200  175.4290  138.1040 N   0  0  0  0  0  2  0  0  0  0  0  0
  195.0360  174.1690  138.0420 C   0  0  1  0  0  3  0  0  0  0  0  0
  196.3770  174.4190  137.7000 O   0  0  0  0  0  0  0  0  0  0  0  0
  196.1130  174.1590  139.0550 C   0  0  0  0  0  2  0  0  0  0  0  0
  185.3430  179.3430  141.9530 C   0  0  0  0  0  2  0  0  0  0  0  0
  184.2170  178.3190  142.0970 C   0  0  1  0  0  3  0  0  0  0  0  0
  183.1500  178.7830  143.0850 C   0  0  0  0  0  2  0  0  0  0  0  0
  183.6770  179.6850  144.0120 O   0  0  0  0  0  0  0  0  0  0  0  0
  183.5730  179.0280  145.2370 C   0  0  0  0  0  1  0  0  0  0  0  0
  183.6260  177.8700  140.7560 C   0  0  0  0  0  2  0  0  0  0  0  0
  182.9800  178.5150  138.4590 C   0  0  0  0  0  2  0  0  0  0  0  0
  181.8240  178.8410  139.3750 C   0  0  0  0  0  2  0  0  0  0  0  0
  183.2460  179.0350  139.8560 C   0  0  0  0  0  3  0  0  0  0  0  0
  1  7  1  0  0  0  0
  2 18  1  0  0  0  0
  2  9  1  0  0  0  0
  3  4  1  0  0  0  0
  5 17  1  0  0  0  0
  5 13  1  0  0  0  0
  6  9  2  0  0  0  0
  7 13  2  0  0  0  0
  8  3  2  0  0  0  0
  9 10  1  0  0  0  0
 10 16  2  0  0  0  0
 10  8  1  0  0  0  0
 11 24  1  0  0  0  0
 11 16  1  0  0  0  0
 12 14  1  0  0  0  0
 12  1  2  0  0  0  0
 13  6  1  0  0  0  0
 14  5  2  0  0  0  0
 15  4  2  0  0  0  0
 16 15  1  0  0  0  0
 17  2  2  0  0  0  0
 18 11  2  0  0  0  0
 19  1  1  0  0  0  0
 19 20  1  0  0  0  0
 21 20  1  1  0  0  0
 21 23  1  0  0  0  0
 22 21  1  0  0  0  0
 22 23  1  0  0  0  0
 24 25  1  0  0  0  0
 25 29  1  6  0  0  0
 25 26  1  0  0  0  0
 26 27  1  0  0  0  0
 27 28  1  0  0  0  0
 30 31  1  0  0  0  0
 30 32  1  0  0  0  0
 31 32  1  0  0  0  0
 32 29  1  0  0  0  0
M  END
>  <MODEL>
8

>  <REMARK>
 VINA RESULT:      -7.7      3.650      9.336
  Name = 
  9 active torsions:
  status: ('A' for Active; 'I' for Inactive)
    1  A    between atoms: C_1  and  N_10
    2  A    between atoms: C_2  and  C_24
    3  A    between atoms: O_6  and  C_7
    4  A    between atoms: C_7  and  C_32
    5  A    between atoms: N_10  and  C_24
    6  A    between atoms: C_16  and  C_27
    7  A    between atoms: C_22  and  C_30
    8  A    between atoms: C_22  and  C_32
    9  A    between atoms: C_27  and  C_32
                            x       y       z     vdW  Elec       q    Type
                         _______ _______ _______ _____ _____    ______ ____

>  <TORSDO>
F 9

$$$$
=
 OpenBabel10262421353D

 32 37  0  0  1  0  0  0  0  0999 V2000
  190.7500  176.8130  143.9140 C   0  0  0  0  0  0  0  0  0  0  0  0
  186.7990  178.4300  141.2300 C   0  0  0  0  0  0  0  0  0  0  0  0
  183.0940  178.6360  144.3740 C   0  0  0  0  0  3  0  0  0  0  0  0
  182.2640  179.0830  143.3460 C   0  0  0  0  0  3  0  0  0  0  0  0
  189.0080  177.7140  141.9150 C   0  0  0  0  0  0  0  0  0  0  0  0
  187.2040  177.7960  143.5440 C   0  0  0  0  0  3  0  0  0  0  0  0
  189.4140  177.0840  144.2290 C   0  0  0  0  0  3  0  0  0  0  0  0
  184.4380  178.3570  144.1160 C   0  0  0  0  0  3  0  0  0  0  0  0
  186.3200  178.2470  142.5470 C   0  0  0  0  0  0  0  0  0  0  0  0
  184.9680  178.5220  142.8260 C   0  0  0  0  0  0  0  0  0  0  0  0
  184.6520  179.1420  140.4890 C   0  0  0  0  0  0  0  0  0  0  0  0
  191.2150  177.0000  142.6080 C   0  0  0  0  0  3  0  0  0  0  0  0
  188.5390  177.5300  143.2350 C   0  0  0  0  0  0  0  0  0  0  0  0
  190.3450  177.4480  141.6090 C   0  0  0  0  0  3  0  0  0  0  0  0
  182.7730  179.2530  142.0580 C   0  0  0  0  0  3  0  0  0  0  0  0
  184.1220  178.9760  141.7830 C   0  0  0  0  0  0  0  0  0  0  0  0
  188.1350  178.1620  140.9220 C   0  0  0  0  0  3  0  0  0  0  0  0
  185.9610  178.8640  140.2540 N   0  0  0  0  0  0  0  0  0  0  0  0
  191.6860  176.3620  144.9800 C   0  0  0  0  0  2  0  0  0  0  0  0
  191.2550  176.8820  146.2660 N   0  0  0  0  0  2  0  0  0  0  0  0
  191.3880  175.8000  147.2230 C   0  0  1  0  0  3  0  0  0  0  0  0
  192.6830  175.2610  147.1290 O   0  0  0  0  0  0  0  0  0  0  0  0
  192.4420  176.1320  148.2050 C   0  0  0  0  0  2  0  0  0  0  0  0
  183.7970  179.5890  139.3430 C   0  0  0  0  0  2  0  0  0  0  0  0
  182.8930  178.4540  138.8630 C   0  0  1  0  0  3  0  0  0  0  0  0
  181.8100  178.9550  137.9110 C   0  0  0  0  0  2  0  0  0  0  0  0
  181.6720  180.3430  137.9860 O   0  0  0  0  0  0  0  0  0  0  0  0
  180.3200  180.5450  138.2560 C   0  0  0  0  0  1  0  0  0  0  0  0
  183.6650  177.2550  138.3020 C   0  0  0  0  0  2  0  0  0  0  0  0
  182.2430  175.3400  137.6510 C   0  0  0  0  0  2  0  0  0  0  0  0
  183.6460  174.8230  137.8700 C   0  0  0  0  0  2  0  0  0  0  0  0
  183.0980  175.9200  138.7590 C   0  0  0  0  0  3  0  0  0  0  0  0
  1  7  1  0  0  0  0
  1 19  1  0  0  0  0
  2  9  1  0  0  0  0
  4  3  2  0  0  0  0
  5 13  1  0  0  0  0
  8  3  1  0  0  0  0
  9 10  1  0  0  0  0
  9  6  2  0  0  0  0
 10  8  2  0  0  0  0
 11 16  1  0  0  0  0
 12  1  2  0  0  0  0
 13  6  1  0  0  0  0
 13  7  2  0  0  0  0
 14  5  2  0  0  0  0
 14 12  1  0  0  0  0
 15  4  1  0  0  0  0
 16 15  2  0  0  0  0
 16 10  1  0  0  0  0
 17  2  2  0  0  0  0
 17  5  1  0  0  0  0
 18 11  2  0  0  0  0
 18  2  1  0  0  0  0
 19 20  1  0  0  0  0
 21 20  1  6  0  0  0
 21 23  1  0  0  0  0
 22 21  1  0  0  0  0
 22 23  1  0  0  0  0
 24 11  1  0  0  0  0
 25 26  1  6  0  0  0
 25 24  1  0  0  0  0
 26 27  1  0  0  0  0
 27 28  1  0  0  0  0
 29 32  1  0  0  0  0
 29 25  1  0  0  0  0
 30 31  1  0  0  0  0
 30 32  1  0  0  0  0
 31 32  1  0  0  0  0
M  END
>  <MODEL>
9

>  <REMARK>
 VINA RESULT:      -7.6      2.280      9.711
  Name = 
  9 active torsions:
  status: ('A' for Active; 'I' for Inactive)
    1  A    between atoms: C_1  and  N_10
    2  A    between atoms: C_2  and  C_24
    3  A    between atoms: O_6  and  C_7
    4  A    between atoms: C_7  and  C_32
    5  A    between atoms: N_10  and  C_24
    6  A    between atoms: C_16  and  C_27
    7  A    between atoms: C_22  and  C_30
    8  A    between atoms: C_22  and  C_32
    9  A    between atoms: C_27  and  C_32
                            x       y       z     vdW  Elec       q    Type
                         _______ _______ _______ _____ _____    ______ ____

>  <TORSDO>
F 9

$$$$
