=
 OpenBabel10262421523D

 30 32  0  0  1  0  0  0  0  0999 V2000
  185.5240  178.6080  142.1950 C   0  0  2  0  0  3  0  0  0  0  0  0
  184.5120  179.0590  143.2550 C   0  0  2  0  0  3  0  0  0  0  0  0
  187.0610  177.5090  145.4400 C   0  0  0  0  0  3  0  0  0  0  0  0
  186.3170  177.9790  144.3530 C   0  0  0  0  0  0  0  0  0  0  0  0
  184.6930  178.9880  145.8240 C   0  0  0  0  0  3  0  0  0  0  0  0
  185.1510  178.6790  144.5410 C   0  0  0  0  0  0  0  0  0  0  0  0
  186.6050  177.7600  142.9160 C   0  0  2  0  0  3  0  0  0  0  0  0
  185.4340  178.5410  146.9290 C   0  0  0  0  0  3  0  0  0  0  0  0
  186.6120  177.8000  146.7370 C   0  0  0  0  0  3  0  0  0  0  0  0
  186.0670  179.7420  141.5820 O   0  0  0  0  0  1  0  0  0  0  0  0
  183.2010  178.3090  143.0430 C   0  0  0  0  0  2  0  0  0  0  0  0
  180.8660  179.2550  142.9680 C   0  0  0  0  0  3  0  0  0  0  0  0
  182.0380  179.0770  143.5900 C   0  0  0  0  0  3  0  0  0  0  0  0
  180.5110  178.6970  141.6930 N   0  0  0  0  0  0  0  0  0  0  0  0
  179.7260  177.4780  141.5590 C   0  0  0  0  0  1  0  0  0  0  0  0
  180.7050  179.5050  140.4990 C   0  0  0  0  0  2  0  0  0  0  0  0
  181.8570  178.9700  139.6540 C   0  0  0  0  0  2  0  0  0  0  0  0
  182.6370  180.0750  139.0260 C   0  0  0  0  0  0  0  0  0  0  0  0
  181.8440  181.3650  138.3950 S   0  0  0  0  0  0  0  0  0  0  0  0
  184.0640  179.9760  138.9730 N   0  0  0  0  0  2  0  0  0  0  0  0
  184.7680  178.7750  138.5520 C   0  0  0  0  0  1  0  0  0  0  0  0
  188.0410  178.1500  142.5680 C   0  0  0  0  0  2  0  0  0  0  0  0
  188.7880  176.9720  141.9610 C   0  0  1  0  0  3  0  0  0  0  0  0
  190.1590  177.3760  141.4960 C   0  0  1  0  0  3  0  0  0  0  0  0
  191.0890  176.4690  142.2750 C   0  0  0  0  0  2  0  0  0  0  0  0
  189.0610  175.9420  143.0300 C   0  0  0  0  0  2  0  0  0  0  0  0
  190.3400  175.4120  142.8130 O   0  0  0  0  0  0  0  0  0  0  0  0
  190.2820  177.1050  140.0040 C   0  0  0  0  0  2  0  0  0  0  0  0
  188.9660  177.3600  139.2860 C   0  0  0  0  0  2  0  0  0  0  0  0
  189.0540  178.6230  138.4510 C   0  0  0  0  0  1  0  0  0  0  0  0
  1 10  1  1  0  0  0
  1  7  1  0  0  0  0
  1  2  1  0  0  0  0
  2 11  1  6  0  0  0
  2  6  1  0  0  0  0
  3  9  1  0  0  0  0
  4  6  1  0  0  0  0
  4  3  2  0  0  0  0
  5  8  1  0  0  0  0
  6  5  2  0  0  0  0
  7 22  1  1  0  0  0
  7  4  1  0  0  0  0
  9  8  2  0  0  0  0
 11 13  1  0  0  0  0
 12 13  2  0  0  0  0
 14 12  1  0  0  0  0
 15 14  1  0  0  0  0
 16 14  1  0  0  0  0
 17 16  1  0  0  0  0
 18 17  1  0  0  0  0
 19 18  2  0  0  0  0
 20 18  1  0  0  0  0
 21 20  1  0  0  0  0
 23 22  1  1  0  0  0
 23 26  1  0  0  0  0
 24 28  1  6  0  0  0
 24 23  1  0  0  0  0
 24 25  1  0  0  0  0
 25 27  1  0  0  0  0
 27 26  1  0  0  0  0
 29 28  1  0  0  0  0
 30 29  1  0  0  0  0
M  END
>  <MODEL>
1

>  <REMARK>
 VINA RESULT:      -7.7      0.000      0.000
  Name = 
  11 active torsions:
  status: ('A' for Active; 'I' for Inactive)
    1  A    between atoms: C_1  and  C_5
    2  A    between atoms: C_1  and  C_22
    3  A    between atoms: C_2  and  N_18
    4  A    between atoms: N_3  and  C_28
    5  A    between atoms: C_7  and  C_30
    6  A    between atoms: C_10  and  C_25
    7  A    between atoms: C_11  and  C_25
    8  A    between atoms: C_13  and  C_30
    9  A    between atoms: C_14  and  N_18
   10  A    between atoms: C_14  and  C_20
   11  A    between atoms: C_20  and  C_28
                            x       y       z     vdW  Elec       q    Type
                         _______ _______ _______ _____ _____    ______ ____

>  <TORSDO>
F 11

$$$$
=
 OpenBabel10262421523D

 30 32  0  0  1  0  0  0  0  0999 V2000
  188.6320  177.6230  143.2550 C   0  0  2  0  0  3  0  0  0  0  0  0
  190.0380  177.0230  143.1410 C   0  0  2  0  0  3  0  0  0  0  0  0
  189.7920  177.3480  146.8160 C   0  0  0  0  0  3  0  0  0  0  0  0
  189.5610  177.3820  145.4370 C   0  0  0  0  0  0  0  0  0  0  0  0
  191.6330  176.2280  145.0010 C   0  0  0  0  0  3  0  0  0  0  0  0
  190.4690  176.8580  144.5520 C   0  0  0  0  0  0  0  0  0  0  0  0
  188.4100  178.0050  144.7420 C   0  0  2  0  0  3  0  0  0  0  0  0
  191.8760  176.1670  146.3820 C   0  0  0  0  0  3  0  0  0  0  0  0
  190.9600  176.7300  147.2860 C   0  0  0  0  0  3  0  0  0  0  0  0
  187.7030  176.6770  142.8110 O   0  0  0  0  0  1  0  0  0  0  0  0
  190.9390  178.0030  142.3950 C   0  0  0  0  0  2  0  0  0  0  0  0
  191.1730  177.0450  140.0760 C   0  0  0  0  0  3  0  0  0  0  0  0
  191.6780  177.3260  141.2830 C   0  0  0  0  0  3  0  0  0  0  0  0
  189.8520  177.3890  139.6300 N   0  0  0  0  0  0  0  0  0  0  0  0
  189.2580  178.6970  139.8660 C   0  0  0  0  0  1  0  0  0  0  0  0
  189.1830  176.5100  138.6830 C   0  0  0  0  0  2  0  0  0  0  0  0
  189.2250  177.0890  137.2720 C   0  0  0  0  0  2  0  0  0  0  0  0
  187.8660  177.1470  136.6620 C   0  0  0  0  0  0  0  0  0  0  0  0
  187.3940  175.9640  135.6270 S   0  0  0  0  0  0  0  0  0  0  0  0
  187.0070  178.2470  136.9800 N   0  0  0  0  0  2  0  0  0  0  0  0
  185.9180  178.1610  137.9400 C   0  0  0  0  0  1  0  0  0  0  0  0
  187.0800  177.5230  145.3210 C   0  0  0  0  0  2  0  0  0  0  0  0
  186.0480  178.6390  145.3080 C   0  0  1  0  0  3  0  0  0  0  0  0
  185.0180  178.4190  144.2360 C   0  0  1  0  0  3  0  0  0  0  0  0
  183.7080  178.3730  144.9950 C   0  0  0  0  0  2  0  0  0  0  0  0
  185.2480  178.6040  146.5870 C   0  0  0  0  0  2  0  0  0  0  0  0
  183.9130  178.8990  146.2790 O   0  0  0  0  0  0  0  0  0  0  0  0
  185.0320  179.5990  143.2760 C   0  0  0  0  0  2  0  0  0  0  0  0
  185.3730  179.1560  141.8620 C   0  0  0  0  0  2  0  0  0  0  0  0
  184.1880  178.4520  141.2280 C   0  0  0  0  0  1  0  0  0  0  0  0
  1 10  1  1  0  0  0
  1  7  1  0  0  0  0
  2 11  1  6  0  0  0
  2  1  1  0  0  0  0
  2  6  1  0  0  0  0
  3  9  1  0  0  0  0
  4  3  2  0  0  0  0
  5  8  1  0  0  0  0
  6  5  2  0  0  0  0
  6  4  1  0  0  0  0
  7 22  1  1  0  0  0
  7  4  1  0  0  0  0
  8  9  2  0  0  0  0
 12 13  2  0  0  0  0
 13 11  1  0  0  0  0
 14 15  1  0  0  0  0
 14 12  1  0  0  0  0
 16 14  1  0  0  0  0
 17 16  1  0  0  0  0
 18 20  1  0  0  0  0
 18 17  1  0  0  0  0
 19 18  2  0  0  0  0
 20 21  1  0  0  0  0
 23 22  1  1  0  0  0
 23 26  1  0  0  0  0
 24 28  1  6  0  0  0
 24 25  1  0  0  0  0
 24 23  1  0  0  0  0
 25 27  1  0  0  0  0
 27 26  1  0  0  0  0
 29 28  1  0  0  0  0
 30 29  1  0  0  0  0
M  END
>  <MODEL>
2

>  <REMARK>
 VINA RESULT:      -7.6      3.004      6.627
  Name = 
  11 active torsions:
  status: ('A' for Active; 'I' for Inactive)
    1  A    between atoms: C_1  and  C_5
    2  A    between atoms: C_1  and  C_22
    3  A    between atoms: C_2  and  N_18
    4  A    between atoms: N_3  and  C_28
    5  A    between atoms: C_7  and  C_30
    6  A    between atoms: C_10  and  C_25
    7  A    between atoms: C_11  and  C_25
    8  A    between atoms: C_13  and  C_30
    9  A    between atoms: C_14  and  N_18
   10  A    between atoms: C_14  and  C_20
   11  A    between atoms: C_20  and  C_28
                            x       y       z     vdW  Elec       q    Type
                         _______ _______ _______ _____ _____    ______ ____

>  <TORSDO>
F 11

$$$$
=
 OpenBabel10262421523D

 30 32  0  0  1  0  0  0  0  0999 V2000
  187.8660  177.5520  143.8780 C   0  0  2  0  0  3  0  0  0  0  0  0
  189.0200  177.1440  144.8010 C   0  0  2  0  0  3  0  0  0  0  0  0
  186.7340  178.6540  147.2850 C   0  0  0  0  0  3  0  0  0  0  0  0
  187.3430  178.1890  146.1150 C   0  0  0  0  0  0  0  0  0  0  0  0
  189.1740  177.2460  147.3710 C   0  0  0  0  0  3  0  0  0  0  0  0
  188.5430  177.5240  146.1550 C   0  0  0  0  0  0  0  0  0  0  0  0
  186.8640  178.3790  144.7250 C   0  0  2  0  0  3  0  0  0  0  0  0
  188.5720  177.6880  148.5580 C   0  0  0  0  0  3  0  0  0  0  0  0
  187.3570  178.3930  148.5140 C   0  0  0  0  0  3  0  0  0  0  0  0
  187.2800  176.3940  143.3540 O   0  0  0  0  0  1  0  0  0  0  0  0
  190.2700  177.9270  144.4110 C   0  0  0  0  0  2  0  0  0  0  0  0
  192.0000  176.6440  143.1020 C   0  0  0  0  0  3  0  0  0  0  0  0
  191.4550  177.0240  144.2640 C   0  0  0  0  0  3  0  0  0  0  0  0
  191.5670  177.0770  141.8030 N   0  0  0  0  0  0  0  0  0  0  0  0
  192.4500  177.7570  140.8660 C   0  0  0  0  0  1  0  0  0  0  0  0
  190.2940  176.5910  141.2930 C   0  0  0  0  0  2  0  0  0  0  0  0
  190.2900  176.5580  139.7680 C   0  0  0  0  0  2  0  0  0  0  0  0
  189.1090  177.2760  139.2070 C   0  0  0  0  0  0  0  0  0  0  0  0
  188.2780  178.3260  140.1550 S   0  0  0  0  0  0  0  0  0  0  0  0
  188.7160  177.0180  137.8550 N   0  0  0  0  0  2  0  0  0  0  0  0
  188.9320  177.9570  136.7650 C   0  0  0  0  0  1  0  0  0  0  0  0
  185.4060  177.9450  144.5730 C   0  0  0  0  0  2  0  0  0  0  0  0
  184.6310  178.9430  143.7270 C   0  0  1  0  0  3  0  0  0  0  0  0
  184.2310  178.3460  142.4070 C   0  0  1  0  0  3  0  0  0  0  0  0
  182.7210  178.4600  142.4000 C   0  0  0  0  0  2  0  0  0  0  0  0
  183.3140  179.2560  144.3930 C   0  0  0  0  0  2  0  0  0  0  0  0
  182.3330  179.3650  143.3990 O   0  0  0  0  0  0  0  0  0  0  0  0
  184.8290  179.1740  141.2800 C   0  0  0  0  0  2  0  0  0  0  0  0
  184.4240  178.6270  139.9200 C   0  0  0  0  0  2  0  0  0  0  0  0
  183.7350  179.7030  139.1020 C   0  0  0  0  0  1  0  0  0  0  0  0
  1 10  1  1  0  0  0
  1  7  1  0  0  0  0
  1  2  1  0  0  0  0
  2 11  1  6  0  0  0
  2  6  1  0  0  0  0
  3  9  1  0  0  0  0
  4  6  1  0  0  0  0
  4  3  2  0  0  0  0
  5  8  1  0  0  0  0
  6  5  2  0  0  0  0
  7 22  1  1  0  0  0
  7  4  1  0  0  0  0
  9  8  2  0  0  0  0
 12 13  2  0  0  0  0
 13 11  1  0  0  0  0
 14 12  1  0  0  0  0
 15 14  1  0  0  0  0
 16 14  1  0  0  0  0
 17 16  1  0  0  0  0
 18 17  1  0  0  0  0
 18 19  2  0  0  0  0
 20 18  1  0  0  0  0
 21 20  1  0  0  0  0
 23 26  1  0  0  0  0
 23 22  1  1  0  0  0
 24 28  1  6  0  0  0
 24 23  1  0  0  0  0
 25 24  1  0  0  0  0
 25 27  1  0  0  0  0
 27 26  1  0  0  0  0
 29 28  1  0  0  0  0
 30 29  1  0  0  0  0
M  END
>  <MODEL>
3

>  <REMARK>
 VINA RESULT:      -7.5      2.935      6.784
  Name = 
  11 active torsions:
  status: ('A' for Active; 'I' for Inactive)
    1  A    between atoms: C_1  and  C_5
    2  A    between atoms: C_1  and  C_22
    3  A    between atoms: C_2  and  N_18
    4  A    between atoms: N_3  and  C_28
    5  A    between atoms: C_7  and  C_30
    6  A    between atoms: C_10  and  C_25
    7  A    between atoms: C_11  and  C_25
    8  A    between atoms: C_13  and  C_30
    9  A    between atoms: C_14  and  N_18
   10  A    between atoms: C_14  and  C_20
   11  A    between atoms: C_20  and  C_28
                            x       y       z     vdW  Elec       q    Type
                         _______ _______ _______ _____ _____    ______ ____

>  <TORSDO>
F 11

$$$$
=
 OpenBabel10262421523D

 30 32  0  0  1  0  0  0  0  0999 V2000
  186.3720  178.3100  141.7760 C   0  0  2  0  0  3  0  0  0  0  0  0
  185.0540  178.7850  142.3990 C   0  0  2  0  0  3  0  0  0  0  0  0
  186.8110  177.6460  145.4470 C   0  0  0  0  0  3  0  0  0  0  0  0
  186.4440  177.9530  144.1330 C   0  0  0  0  0  0  0  0  0  0  0  0
  184.3920  178.9750  144.8810 C   0  0  0  0  0  3  0  0  0  0  0  0
  185.2540  178.5790  143.8560 C   0  0  0  0  0  0  0  0  0  0  0  0
  187.1920  177.6190  142.8970 C   0  0  2  0  0  3  0  0  0  0  0  0
  184.7490  178.6940  146.2090 C   0  0  0  0  0  3  0  0  0  0  0  0
  185.9540  178.0270  146.4890 C   0  0  0  0  0  3  0  0  0  0  0  0
  187.0400  179.4170  141.2430 O   0  0  0  0  0  1  0  0  0  0  0  0
  183.9130  177.9230  141.8670 C   0  0  0  0  0  2  0  0  0  0  0  0
  182.6990  178.5360  139.7450 C   0  0  0  0  0  3  0  0  0  0  0  0
  182.9570  178.7300  141.0440 C   0  0  0  0  0  3  0  0  0  0  0  0
  183.2610  177.4920  138.9350 N   0  0  0  0  0  0  0  0  0  0  0  0
  182.8000  176.1120  139.0010 C   0  0  0  0  0  1  0  0  0  0  0  0
  184.1270  177.8580  137.8250 C   0  0  0  0  0  2  0  0  0  0  0  0
  185.5030  178.2910  138.3210 C   0  0  0  0  0  2  0  0  0  0  0  0
  186.5710  177.9560  137.3350 C   0  0  0  0  0  0  0  0  0  0  0  0
  186.7330  176.4080  136.8150 S   0  0  0  0  0  0  0  0  0  0  0  0
  187.4460  178.9930  136.8790 N   0  0  0  0  0  2  0  0  0  0  0  0
  188.8670  179.0350  137.1850 C   0  0  0  0  0  1  0  0  0  0  0  0
  188.6470  178.0780  142.9840 C   0  0  0  0  0  2  0  0  0  0  0  0
  189.5780  177.0430  142.3720 C   0  0  1  0  0  3  0  0  0  0  0  0
  191.0160  177.4600  142.4970 C   0  0  1  0  0  3  0  0  0  0  0  0
  191.6560  176.3290  143.2750 C   0  0  0  0  0  2  0  0  0  0  0  0
  189.5050  175.7630  143.1690 C   0  0  0  0  0  2  0  0  0  0  0  0
  190.7950  175.2230  143.2510 O   0  0  0  0  0  0  0  0  0  0  0  0
  191.6310  177.5620  141.1090 C   0  0  0  0  0  2  0  0  0  0  0  0
  190.5790  177.3890  140.0250 C   0  0  0  0  0  2  0  0  0  0  0  0
  191.0450  176.3810  138.9920 C   0  0  0  0  0  1  0  0  0  0  0  0
  1 10  1  1  0  0  0
  1  2  1  0  0  0  0
  1  7  1  0  0  0  0
  2 11  1  6  0  0  0
  2  6  1  0  0  0  0
  3  9  1  0  0  0  0
  4  3  2  0  0  0  0
  5  8  1  0  0  0  0
  6  4  1  0  0  0  0
  6  5  2  0  0  0  0
  7 22  1  1  0  0  0
  7  4  1  0  0  0  0
  8  9  2  0  0  0  0
 12 13  2  0  0  0  0
 13 11  1  0  0  0  0
 14 15  1  0  0  0  0
 14 12  1  0  0  0  0
 16 17  1  0  0  0  0
 16 14  1  0  0  0  0
 18 17  1  0  0  0  0
 19 18  2  0  0  0  0
 20 21  1  0  0  0  0
 20 18  1  0  0  0  0
 23 24  1  0  0  0  0
 23 22  1  1  0  0  0
 23 26  1  0  0  0  0
 24 28  1  6  0  0  0
 24 25  1  0  0  0  0
 26 27  1  0  0  0  0
 27 25  1  0  0  0  0
 29 28  1  0  0  0  0
 30 29  1  0  0  0  0
M  END
>  <MODEL>
4

>  <REMARK>
 VINA RESULT:      -7.4      2.073      2.782
  Name = 
  11 active torsions:
  status: ('A' for Active; 'I' for Inactive)
    1  A    between atoms: C_1  and  C_5
    2  A    between atoms: C_1  and  C_22
    3  A    between atoms: C_2  and  N_18
    4  A    between atoms: N_3  and  C_28
    5  A    between atoms: C_7  and  C_30
    6  A    between atoms: C_10  and  C_25
    7  A    between atoms: C_11  and  C_25
    8  A    between atoms: C_13  and  C_30
    9  A    between atoms: C_14  and  N_18
   10  A    between atoms: C_14  and  C_20
   11  A    between atoms: C_20  and  C_28
                            x       y       z     vdW  Elec       q    Type
                         _______ _______ _______ _____ _____    ______ ____

>  <TORSDO>
F 11

$$$$
=
 OpenBabel10262421523D

 30 32  0  0  1  0  0  0  0  0999 V2000
  185.3810  178.6130  142.1270 C   0  0  2  0  0  3  0  0  0  0  0  0
  184.3740  179.0500  143.1980 C   0  0  2  0  0  3  0  0  0  0  0  0
  186.9630  177.5280  145.3560 C   0  0  0  0  0  3  0  0  0  0  0  0
  186.2030  177.9910  144.2770 C   0  0  0  0  0  0  0  0  0  0  0  0
  184.5810  178.9780  145.7650 C   0  0  0  0  0  3  0  0  0  0  0  0
  185.0310  178.6770  144.4760 C   0  0  0  0  0  0  0  0  0  0  0  0
  186.4790  177.7770  142.8360 C   0  0  2  0  0  3  0  0  0  0  0  0
  185.3380  178.5400  146.8620 C   0  0  0  0  0  3  0  0  0  0  0  0
  186.5230  177.8130  146.6570 C   0  0  0  0  0  3  0  0  0  0  0  0
  185.9050  179.7540  141.5110 O   0  0  0  0  0  1  0  0  0  0  0  0
  183.0700  178.2850  142.9970 C   0  0  0  0  0  2  0  0  0  0  0  0
  180.8160  179.3290  142.5740 C   0  0  0  0  0  3  0  0  0  0  0  0
  181.8840  179.1250  143.3550 C   0  0  0  0  0  3  0  0  0  0  0  0
  180.6080  178.7370  141.2820 N   0  0  0  0  0  0  0  0  0  0  0  0
  179.8870  177.4860  141.0980 C   0  0  0  0  0  1  0  0  0  0  0  0
  180.8860  179.5330  140.0970 C   0  0  0  0  0  2  0  0  0  0  0  0
  182.3350  179.3670  139.6500 C   0  0  0  0  0  2  0  0  0  0  0  0
  182.5110  178.1550  138.7980 C   0  0  0  0  0  0  0  0  0  0  0  0
  182.0370  178.1980  137.2280 S   0  0  0  0  0  0  0  0  0  0  0  0
  183.0750  176.9740  139.3770 N   0  0  0  0  0  2  0  0  0  0  0  0
  182.8100  175.6340  138.8790 C   0  0  0  0  0  1  0  0  0  0  0  0
  187.9070  178.1840  142.4750 C   0  0  0  0  0  2  0  0  0  0  0  0
  188.6510  177.0270  141.8260 C   0  0  1  0  0  3  0  0  0  0  0  0
  189.9200  177.4920  141.1710 C   0  0  1  0  0  3  0  0  0  0  0  0
  191.0010  176.6850  141.8600 C   0  0  0  0  0  2  0  0  0  0  0  0
  189.1260  176.0700  142.8920 C   0  0  0  0  0  2  0  0  0  0  0  0
  190.4010  175.6110  142.5340 O   0  0  0  0  0  0  0  0  0  0  0  0
  189.8730  177.1560  139.6880 C   0  0  0  0  0  2  0  0  0  0  0  0
  189.3180  178.3160  138.8770 C   0  0  0  0  0  2  0  0  0  0  0  0
  188.5400  177.8010  137.6810 C   0  0  0  0  0  1  0  0  0  0  0  0
  1 10  1  1  0  0  0
  1  7  1  0  0  0  0
  1  2  1  0  0  0  0
  2 11  1  6  0  0  0
  2  6  1  0  0  0  0
  3  9  1  0  0  0  0
  4  6  1  0  0  0  0
  4  3  2  0  0  0  0
  5  8  1  0  0  0  0
  6  5  2  0  0  0  0
  7 22  1  6  0  0  0
  7  4  1  0  0  0  0
  9  8  2  0  0  0  0
 11 13  1  0  0  0  0
 12 13  2  0  0  0  0
 14 12  1  0  0  0  0
 15 14  1  0  0  0  0
 16 14  1  0  0  0  0
 17 16  1  0  0  0  0
 18 20  1  0  0  0  0
 18 17  1  0  0  0  0
 19 18  2  0  0  0  0
 21 20  1  0  0  0  0
 23 22  1  1  0  0  0
 23 26  1  0  0  0  0
 24 28  1  6  0  0  0
 24 23  1  0  0  0  0
 24 25  1  0  0  0  0
 25 27  1  0  0  0  0
 27 26  1  0  0  0  0
 29 28  1  0  0  0  0
 30 29  1  0  0  0  0
M  END
>  <MODEL>
5

>  <REMARK>
 VINA RESULT:      -7.3      1.159      1.214
  Name = 
  11 active torsions:
  status: ('A' for Active; 'I' for Inactive)
    1  A    between atoms: C_1  and  C_5
    2  A    between atoms: C_1  and  C_22
    3  A    between atoms: C_2  and  N_18
    4  A    between atoms: N_3  and  C_28
    5  A    between atoms: C_7  and  C_30
    6  A    between atoms: C_10  and  C_25
    7  A    between atoms: C_11  and  C_25
    8  A    between atoms: C_13  and  C_30
    9  A    between atoms: C_14  and  N_18
   10  A    between atoms: C_14  and  C_20
   11  A    between atoms: C_20  and  C_28
                            x       y       z     vdW  Elec       q    Type
                         _______ _______ _______ _____ _____    ______ ____

>  <TORSDO>
F 11

$$$$
=
 OpenBabel10262421523D

 30 32  0  0  1  0  0  0  0  0999 V2000
  185.6000  178.4830  141.9130 C   0  0  2  0  0  3  0  0  0  0  0  0
  184.4590  178.9010  142.8470 C   0  0  2  0  0  3  0  0  0  0  0  0
  186.8400  177.5530  145.3340 C   0  0  0  0  0  3  0  0  0  0  0  0
  186.1920  177.9530  144.1610 C   0  0  0  0  0  0  0  0  0  0  0  0
  184.3680  178.9040  145.4210 C   0  0  0  0  0  3  0  0  0  0  0  0
  184.9770  178.5900  144.2030 C   0  0  0  0  0  0  0  0  0  0  0  0
  186.6430  177.7160  142.7690 C   0  0  2  0  0  3  0  0  0  0  0  0
  185.0090  178.5270  146.6110 C   0  0  0  0  0  3  0  0  0  0  0  0
  186.2400  177.8500  146.5660 C   0  0  0  0  0  3  0  0  0  0  0  0
  186.1440  179.6310  141.3270 O   0  0  0  0  0  1  0  0  0  0  0  0
  183.2200  178.0740  142.5210 C   0  0  0  0  0  2  0  0  0  0  0  0
  181.5730  179.1270  140.9300 C   0  0  0  0  0  3  0  0  0  0  0  0
  182.0570  178.9470  142.1650 C   0  0  0  0  0  3  0  0  0  0  0  0
  182.0580  178.4730  139.7460 N   0  0  0  0  0  0  0  0  0  0  0  0
  183.2380  178.9280  139.0250 C   0  0  0  0  0  1  0  0  0  0  0  0
  181.5260  177.1630  139.4040 C   0  0  0  0  0  2  0  0  0  0  0  0
  182.6010  176.0870  139.5150 C   0  0  0  0  0  2  0  0  0  0  0  0
  182.7310  175.3090  138.2490 C   0  0  0  0  0  0  0  0  0  0  0  0
  181.4030  174.6010  137.5960 S   0  0  0  0  0  0  0  0  0  0  0  0
  184.0210  175.1820  137.6400 N   0  0  0  0  0  2  0  0  0  0  0  0
  184.6000  176.1960  136.7740 C   0  0  0  0  0  1  0  0  0  0  0  0
  188.0850  178.1780  142.5630 C   0  0  0  0  0  2  0  0  0  0  0  0
  188.9830  177.0030  142.2090 C   0  0  1  0  0  3  0  0  0  0  0  0
  190.1600  177.4440  141.3850 C   0  0  1  0  0  3  0  0  0  0  0  0
  191.3580  177.0150  142.2050 C   0  0  0  0  0  2  0  0  0  0  0  0
  189.6110  176.4500  143.4640 C   0  0  0  0  0  2  0  0  0  0  0  0
  190.9340  176.0930  143.1740 O   0  0  0  0  0  0  0  0  0  0  0  0
  190.1420  176.7120  140.0510 C   0  0  0  0  0  2  0  0  0  0  0  0
  190.1410  177.6890  138.8860 C   0  0  0  0  0  2  0  0  0  0  0  0
  188.8610  178.5030  138.8790 C   0  0  0  0  0  1  0  0  0  0  0  0
  1 10  1  1  0  0  0
  1  7  1  0  0  0  0
  1  2  1  0  0  0  0
  2 11  1  6  0  0  0
  2  6  1  0  0  0  0
  3  9  1  0  0  0  0
  4  6  1  0  0  0  0
  4  3  2  0  0  0  0
  5  8  1  0  0  0  0
  6  5  2  0  0  0  0
  7 22  1  1  0  0  0
  7  4  1  0  0  0  0
  9  8  2  0  0  0  0
 12 13  2  0  0  0  0
 13 11  1  0  0  0  0
 14 12  1  0  0  0  0
 15 14  1  0  0  0  0
 16 17  1  0  0  0  0
 16 14  1  0  0  0  0
 18 17  1  0  0  0  0
 19 18  2  0  0  0  0
 20 18  1  0  0  0  0
 21 20  1  0  0  0  0
 23 22  1  1  0  0  0
 23 26  1  0  0  0  0
 24 28  1  6  0  0  0
 24 25  1  0  0  0  0
 24 23  1  0  0  0  0
 25 27  1  0  0  0  0
 27 26  1  0  0  0  0
 29 28  1  0  0  0  0
 30 29  1  0  0  0  0
M  END
>  <MODEL>
6

>  <REMARK>
 VINA RESULT:      -7.0      2.054      2.313
  Name = 
  11 active torsions:
  status: ('A' for Active; 'I' for Inactive)
    1  A    between atoms: C_1  and  C_5
    2  A    between atoms: C_1  and  C_22
    3  A    between atoms: C_2  and  N_18
    4  A    between atoms: N_3  and  C_28
    5  A    between atoms: C_7  and  C_30
    6  A    between atoms: C_10  and  C_25
    7  A    between atoms: C_11  and  C_25
    8  A    between atoms: C_13  and  C_30
    9  A    between atoms: C_14  and  N_18
   10  A    between atoms: C_14  and  C_20
   11  A    between atoms: C_20  and  C_28
                            x       y       z     vdW  Elec       q    Type
                         _______ _______ _______ _____ _____    ______ ____

>  <TORSDO>
F 11

$$$$
=
 OpenBabel10262421523D

 30 32  0  0  1  0  0  0  0  0999 V2000
  187.8840  177.4560  143.2570 C   0  0  2  0  0  3  0  0  0  0  0  0
  186.5320  177.6060  143.9660 C   0  0  2  0  0  3  0  0  0  0  0  0
  185.6100  178.8210  140.5980 C   0  0  0  0  0  3  0  0  0  0  0  0
  186.2860  178.3380  141.7230 C   0  0  0  0  0  0  0  0  0  0  0  0
  184.2380  178.2580  142.9940 C   0  0  0  0  0  3  0  0  0  0  0  0
  185.6210  178.0860  142.8970 C   0  0  0  0  0  0  0  0  0  0  0  0
  187.7430  178.0960  141.8510 C   0  0  2  0  0  3  0  0  0  0  0  0
  183.5370  178.7250  141.8720 C   0  0  0  0  0  3  0  0  0  0  0  0
  184.2230  179.0100  140.6790 C   0  0  0  0  0  3  0  0  0  0  0  0
  188.2050  176.0960  143.1860 O   0  0  0  0  0  1  0  0  0  0  0  0
  186.6690  178.6330  145.0850 C   0  0  0  0  0  2  0  0  0  0  0  0
  186.6350  177.7240  147.4360 C   0  0  0  0  0  3  0  0  0  0  0  0
  186.0020  178.1640  146.3410 C   0  0  0  0  0  3  0  0  0  0  0  0
  188.0600  177.6740  147.6050 N   0  0  0  0  0  0  0  0  0  0  0  0
  188.7380  178.2750  148.7450 C   0  0  0  0  0  1  0  0  0  0  0  0
  188.8320  176.7710  146.7650 C   0  0  0  0  0  2  0  0  0  0  0  0
  190.0720  177.4630  146.2090 C   0  0  0  0  0  2  0  0  0  0  0  0
  191.2930  176.6220  146.3820 C   0  0  0  0  0  0  0  0  0  0  0  0
  191.7120  175.5580  145.2050 S   0  0  0  0  0  0  0  0  0  0  0  0
  192.0620  176.7510  147.5820 N   0  0  0  0  0  2  0  0  0  0  0  0
  192.6910  175.6260  148.2540 C   0  0  0  0  0  1  0  0  0  0  0  0
  188.2660  177.2230  140.7100 C   0  0  0  0  0  2  0  0  0  0  0  0
  189.4360  177.8950  140.0090 C   0  0  1  0  0  3  0  0  0  0  0  0
  190.5870  176.9450  139.8330 C   0  0  1  0  0  3  0  0  0  0  0  0
  190.8080  176.9160  138.3350 C   0  0  0  0  0  2  0  0  0  0  0  0
  189.0430  178.2500  138.5960 C   0  0  0  0  0  2  0  0  0  0  0  0
  190.1430  178.0100  137.7610 O   0  0  0  0  0  0  0  0  0  0  0  0
  191.8130  177.5050  140.5390 C   0  0  0  0  0  2  0  0  0  0  0  0
  191.8210  177.1280  142.0120 C   0  0  0  0  0  2  0  0  0  0  0  0
  191.3410  178.2920  142.8580 C   0  0  0  0  0  1  0  0  0  0  0  0
  1 10  1  6  0  0  0
  1  2  1  0  0  0  0
  2 11  1  1  0  0  0
  3  9  2  0  0  0  0
  3  4  1  0  0  0  0
  4  7  1  0  0  0  0
  4  6  2  0  0  0  0
  6  5  1  0  0  0  0
  6  2  1  0  0  0  0
  7 22  1  6  0  0  0
  7  1  1  0  0  0  0
  8  5  2  0  0  0  0
  9  8  1  0  0  0  0
 11 13  1  0  0  0  0
 12 14  1  0  0  0  0
 13 12  2  0  0  0  0
 14 15  1  0  0  0  0
 16 14  1  0  0  0  0
 17 18  1  0  0  0  0
 17 16  1  0  0  0  0
 18 20  1  0  0  0  0
 19 18  2  0  0  0  0
 20 21  1  0  0  0  0
 23 22  1  6  0  0  0
 24 23  1  0  0  0  0
 24 28  1  1  0  0  0
 25 24  1  0  0  0  0
 26 23  1  0  0  0  0
 27 25  1  0  0  0  0
 27 26  1  0  0  0  0
 28 29  1  0  0  0  0
 29 30  1  0  0  0  0
M  END
>  <MODEL>
7

>  <REMARK>
 VINA RESULT:      -7.0      4.339      6.995
  Name = 
  11 active torsions:
  status: ('A' for Active; 'I' for Inactive)
    1  A    between atoms: C_1  and  C_5
    2  A    between atoms: C_1  and  C_22
    3  A    between atoms: C_2  and  N_18
    4  A    between atoms: N_3  and  C_28
    5  A    between atoms: C_7  and  C_30
    6  A    between atoms: C_10  and  C_25
    7  A    between atoms: C_11  and  C_25
    8  A    between atoms: C_13  and  C_30
    9  A    between atoms: C_14  and  N_18
   10  A    between atoms: C_14  and  C_20
   11  A    between atoms: C_20  and  C_28
                            x       y       z     vdW  Elec       q    Type
                         _______ _______ _______ _____ _____    ______ ____

>  <TORSDO>
F 11

$$$$
=
 OpenBabel10262421523D

 30 32  0  0  1  0  0  0  0  0999 V2000
  185.3150  178.6050  141.9490 C   0  0  2  0  0  3  0  0  0  0  0  0
  184.2350  179.0260  142.9530 C   0  0  2  0  0  3  0  0  0  0  0  0
  186.7410  177.6250  145.2830 C   0  0  0  0  0  3  0  0  0  0  0  0
  186.0300  178.0450  144.1540 C   0  0  0  0  0  0  0  0  0  0  0  0
  184.2940  179.0020  145.5280 C   0  0  0  0  0  3  0  0  0  0  0  0
  184.8270  178.6940  144.2730 C   0  0  0  0  0  0  0  0  0  0  0  0
  186.3960  177.8170  142.7350 C   0  0  2  0  0  3  0  0  0  0  0  0
  185.0000  178.6060  146.6740 C   0  0  0  0  0  3  0  0  0  0  0  0
  186.2170  177.9150  146.5510 C   0  0  0  0  0  3  0  0  0  0  0  0
  185.8370  179.7530  141.3440 O   0  0  0  0  0  1  0  0  0  0  0  0
  182.9690  178.2150  142.6910 C   0  0  0  0  0  2  0  0  0  0  0  0
  180.8070  179.3680  142.1040 C   0  0  0  0  0  3  0  0  0  0  0  0
  181.7380  179.0110  142.9960 C   0  0  0  0  0  3  0  0  0  0  0  0
  180.8090  179.0080  140.7140 N   0  0  0  0  0  0  0  0  0  0  0  0
  181.9140  179.3270  139.8210 C   0  0  0  0  0  1  0  0  0  0  0  0
  179.8110  178.0640  140.2350 C   0  0  0  0  0  2  0  0  0  0  0  0
  179.8640  176.7600  141.0250 C   0  0  0  0  0  2  0  0  0  0  0  0
  180.1310  175.5920  140.1370 C   0  0  0  0  0  0  0  0  0  0  0  0
  181.1750  175.7530  138.8820 S   0  0  0  0  0  0  0  0  0  0  0  0
  179.4520  174.3570  140.3910 N   0  0  0  0  0  2  0  0  0  0  0  0
  179.3050  173.7830  141.7190 C   0  0  0  0  0  1  0  0  0  0  0  0
  187.8290  178.2660  142.4500 C   0  0  0  0  0  2  0  0  0  0  0  0
  188.6170  177.1560  141.7710 C   0  0  1  0  0  3  0  0  0  0  0  0
  189.7700  177.7090  140.9810 C   0  0  1  0  0  3  0  0  0  0  0  0
  190.9830  177.0350  141.5890 C   0  0  0  0  0  2  0  0  0  0  0  0
  189.2790  176.2930  142.8160 C   0  0  0  0  0  2  0  0  0  0  0  0
  190.5530  175.9400  142.3520 O   0  0  0  0  0  0  0  0  0  0  0  0
  189.6170  177.3070  139.5220 C   0  0  0  0  0  2  0  0  0  0  0  0
  188.5510  178.1420  138.8290 C   0  0  0  0  0  2  0  0  0  0  0  0
  189.0540  178.6330  137.4850 C   0  0  0  0  0  1  0  0  0  0  0  0
  1 10  1  1  0  0  0
  1  7  1  0  0  0  0
  1  2  1  0  0  0  0
  2 11  1  6  0  0  0
  2  6  1  0  0  0  0
  3  9  1  0  0  0  0
  4  6  1  0  0  0  0
  4  3  2  0  0  0  0
  5  8  1  0  0  0  0
  6  5  2  0  0  0  0
  7 22  1  1  0  0  0
  7  4  1  0  0  0  0
  9  8  2  0  0  0  0
 11 13  1  0  0  0  0
 12 13  2  0  0  0  0
 14 12  1  0  0  0  0
 15 14  1  0  0  0  0
 16 14  1  0  0  0  0
 16 17  1  0  0  0  0
 18 20  1  0  0  0  0
 18 17  1  0  0  0  0
 19 18  2  0  0  0  0
 20 21  1  0  0  0  0
 23 22  1  1  0  0  0
 23 26  1  0  0  0  0
 24 28  1  6  0  0  0
 24 25  1  0  0  0  0
 24 23  1  0  0  0  0
 25 27  1  0  0  0  0
 27 26  1  0  0  0  0
 29 28  1  0  0  0  0
 30 29  1  0  0  0  0
M  END
>  <MODEL>
8

>  <REMARK>
 VINA RESULT:      -7.0      1.683      2.667
  Name = 
  11 active torsions:
  status: ('A' for Active; 'I' for Inactive)
    1  A    between atoms: C_1  and  C_5
    2  A    between atoms: C_1  and  C_22
    3  A    between atoms: C_2  and  N_18
    4  A    between atoms: N_3  and  C_28
    5  A    between atoms: C_7  and  C_30
    6  A    between atoms: C_10  and  C_25
    7  A    between atoms: C_11  and  C_25
    8  A    between atoms: C_13  and  C_30
    9  A    between atoms: C_14  and  N_18
   10  A    between atoms: C_14  and  C_20
   11  A    between atoms: C_20  and  C_28
                            x       y       z     vdW  Elec       q    Type
                         _______ _______ _______ _____ _____    ______ ____

>  <TORSDO>
F 11

$$$$
=
 OpenBabel10262421523D

 30 32  0  0  1  0  0  0  0  0999 V2000
  187.4170  177.6500  143.3530 C   0  0  2  0  0  3  0  0  0  0  0  0
  187.6710  177.4030  141.8610 C   0  0  2  0  0  3  0  0  0  0  0  0
  191.1480  177.9090  143.0120 C   0  0  0  0  0  3  0  0  0  0  0  0
  189.7580  177.7920  142.9210 C   0  0  0  0  0  0  0  0  0  0  0  0
  189.9030  177.1480  140.6010 C   0  0  0  0  0  3  0  0  0  0  0  0
  189.1500  177.4440  141.7410 C   0  0  0  0  0  0  0  0  0  0  0  0
  188.7690  178.0670  143.9900 C   0  0  2  0  0  3  0  0  0  0  0  0
  191.3010  177.2420  140.6750 C   0  0  0  0  0  3  0  0  0  0  0  0
  191.9210  177.6260  141.8760 C   0  0  0  0  0  3  0  0  0  0  0  0
  186.9080  176.4780  143.9220 O   0  0  0  0  0  1  0  0  0  0  0  0
  187.0150  178.5190  141.0540 C   0  0  0  0  0  2  0  0  0  0  0  0
  184.6240  179.2250  141.4240 C   0  0  0  0  0  3  0  0  0  0  0  0
  185.9020  179.1650  141.8190 C   0  0  0  0  0  3  0  0  0  0  0  0
  184.1000  178.6390  140.2220 N   0  0  0  0  0  0  0  0  0  0  0  0
  183.5060  177.3100  140.1910 C   0  0  0  0  0  1  0  0  0  0  0  0
  183.9050  179.4880  139.0570 C   0  0  0  0  0  2  0  0  0  0  0  0
  182.5070  179.3080  138.4740 C   0  0  0  0  0  2  0  0  0  0  0  0
  181.5360  180.2720  139.0670 C   0  0  0  0  0  0  0  0  0  0  0  0
  180.5410  179.7760  140.2740 S   0  0  0  0  0  0  0  0  0  0  0  0
  181.4820  181.6080  138.5560 N   0  0  0  0  0  2  0  0  0  0  0  0
  180.8800  181.9520  137.2780 C   0  0  0  0  0  1  0  0  0  0  0  0
  189.1130  177.3170  145.2770 C   0  0  0  0  0  2  0  0  0  0  0  0
  188.7190  178.1310  146.4990 C   0  0  1  0  0  3  0  0  0  0  0  0
  187.4210  177.6480  147.0820 C   0  0  1  0  0  3  0  0  0  0  0  0
  187.7800  177.2710  148.5050 C   0  0  0  0  0  2  0  0  0  0  0  0
  189.7190  177.8990  147.6060 C   0  0  0  0  0  2  0  0  0  0  0  0
  189.0230  177.8390  148.8210 O   0  0  0  0  0  0  0  0  0  0  0  0
  186.4120  178.7870  147.0750 C   0  0  0  0  0  2  0  0  0  0  0  0
  185.0390  178.3040  146.6370 C   0  0  0  0  0  2  0  0  0  0  0  0
  184.6320  178.9740  145.3380 C   0  0  0  0  0  1  0  0  0  0  0  0
  1 10  1  1  0  0  0
  1  7  1  0  0  0  0
  2 11  1  6  0  0  0
  2  1  1  0  0  0  0
  4  3  1  0  0  0  0
  4  7  1  0  0  0  0
  5  8  2  0  0  0  0
  5  6  1  0  0  0  0
  6  2  1  0  0  0  0
  6  4  2  0  0  0  0
  7 22  1  1  0  0  0
  8  9  1  0  0  0  0
  9  3  2  0  0  0  0
 11 13  1  0  0  0  0
 12 13  2  0  0  0  0
 14 12  1  0  0  0  0
 15 14  1  0  0  0  0
 16 14  1  0  0  0  0
 17 16  1  0  0  0  0
 17 18  1  0  0  0  0
 18 19  2  0  0  0  0
 20 18  1  0  0  0  0
 21 20  1  0  0  0  0
 23 22  1  6  0  0  0
 23 24  1  0  0  0  0
 23 26  1  0  0  0  0
 24 28  1  1  0  0  0
 24 25  1  0  0  0  0
 25 27  1  0  0  0  0
 26 27  1  0  0  0  0
 29 28  1  0  0  0  0
 30 29  1  0  0  0  0
M  END
>  <MODEL>
9

>  <REMARK>
 VINA RESULT:      -6.9      2.194      5.255
  Name = 
  11 active torsions:
  status: ('A' for Active; 'I' for Inactive)
    1  A    between atoms: C_1  and  C_5
    2  A    between atoms: C_1  and  C_22
    3  A    between atoms: C_2  and  N_18
    4  A    between atoms: N_3  and  C_28
    5  A    between atoms: C_7  and  C_30
    6  A    between atoms: C_10  and  C_25
    7  A    between atoms: C_11  and  C_25
    8  A    between atoms: C_13  and  C_30
    9  A    between atoms: C_14  and  N_18
   10  A    between atoms: C_14  and  C_20
   11  A    between atoms: C_20  and  C_28
                            x       y       z     vdW  Elec       q    Type
                         _______ _______ _______ _____ _____    ______ ____

>  <TORSDO>
F 11

$$$$
