=
 OpenBabel10252415093D

 34 37  0  0  1  0  0  0  0  0999 V2000
  190.4830  177.2910  139.9530 C   0  0  1  0  0  3  0  0  0  0  0  0
  188.5590  178.5500  141.1790 C   0  0  2  0  0  3  0  0  0  0  0  0
  186.4320  177.9480  142.4770 N   0  0  0  0  0  0  0  0  0  0  0  0
  186.3410  179.0200  140.3980 O   0  0  0  0  0  0  0  0  0  0  0  0
  189.0230  177.7950  139.9140 C   0  0  1  0  0  3  0  0  0  0  0  0
  189.2980  178.1130  142.4720 C   0  0  1  0  0  3  0  0  0  0  0  0
  191.0020  176.9800  141.3610 C   0  0  0  0  0  2  0  0  0  0  0  0
  187.2100  177.3150  143.4650 N   0  0  0  0  0  2  0  0  0  0  0  0
  188.3840  178.1450  143.7050 C   0  0  1  0  0  3  0  0  0  0  0  0
  187.0520  178.5050  141.3030 C   0  0  0  0  0  0  0  0  0  0  0  0
  189.9050  176.7990  142.2990 N   0  0  0  0  0  2  0  0  0  0  0  0
  189.1590  177.5270  147.3840 C   0  0  0  0  0  0  0  0  0  0  0  0
  190.4330  176.9590  147.2950 C   0  0  0  0  0  3  0  0  0  0  0  0
  189.0900  177.7540  144.9680 C   0  0  0  0  0  0  0  0  0  0  0  0
  191.0350  176.7850  146.0460 C   0  0  0  0  0  3  0  0  0  0  0  0
  188.4870  177.9210  146.2230 C   0  0  0  0  0  3  0  0  0  0  0  0
  190.3640  177.1790  144.8850 C   0  0  0  0  0  3  0  0  0  0  0  0
  188.4020  177.7410  148.9470 Cl  0  0  0  0  0  0  0  0  0  0  0  0
  191.5720  176.2750  138.0840 O   0  0  0  0  0  1  0  0  0  0  0  0
  190.6220  176.0530  139.0820 C   0  0  0  0  0  2  0  0  0  0  0  0
  188.8120  178.6860  138.6900 C   0  0  0  0  0  2  0  0  0  0  0  0
  188.8910  177.8940  136.3250 C   0  0  0  0  0  1  0  0  0  0  0  0
  188.0530  177.9660  137.5870 C   0  0  0  0  0  2  0  0  0  0  0  0
  185.0050  178.1310  142.7110 C   0  0  0  0  0  2  0  0  0  0  0  0
  184.7530  178.6360  144.1240 C   0  0  0  0  0  2  0  0  0  0  0  0
  183.2710  178.6110  144.4700 C   0  0  0  0  0  2  0  0  0  0  0  0
  182.4720  179.4680  143.4990 C   0  0  0  0  0  2  0  0  0  0  0  0
  180.8950  179.2110  141.6430 N   0  0  0  0  0  0  0  0  0  0  0  0
  181.2460  178.7250  142.9840 C   0  0  2  0  0  3  0  0  0  0  0  0
  181.7320  178.8480  140.5130 C   0  0  0  0  0  1  0  0  0  0  0  0
  178.9310  180.3590  142.4000 C   0  0  0  0  0  3  0  0  0  0  0  0
  179.0550  179.6700  143.6930 C   0  0  0  0  0  3  0  0  0  0  0  0
  180.1060  178.8910  143.9590 C   0  0  0  0  0  3  0  0  0  0  0  0
  179.8110  180.1240  141.4300 C   0  0  0  0  0  3  0  0  0  0  0  0
  1 20  1  6  0  0  0
  1  7  1  0  0  0  0
  2 10  1  1  0  0  0
  2  6  1  0  0  0  0
  3 24  1  0  0  0  0
  3  8  1  0  0  0  0
  4 10  2  0  0  0  0
  5 21  1  6  0  0  0
  5  1  1  0  0  0  0
  5  2  1  0  0  0  0
  6 11  1  6  0  0  0
  6  9  1  0  0  0  0
  7 11  1  0  0  0  0
  8  9  1  0  0  0  0
  9 14  1  1  0  0  0
 10  3  1  0  0  0  0
 12 18  1  0  0  0  0
 13 12  1  0  0  0  0
 14 16  1  0  0  0  0
 15 13  2  0  0  0  0
 16 12  2  0  0  0  0
 17 14  2  0  0  0  0
 17 15  1  0  0  0  0
 19 20  1  0  0  0  0
 22 23  1  0  0  0  0
 23 21  1  0  0  0  0
 24 25  1  0  0  0  0
 25 26  1  0  0  0  0
 27 26  1  0  0  0  0
 28 29  1  0  0  0  0
 29 27  1  1  0  0  0
 29 33  1  0  0  0  0
 30 28  1  0  0  0  0
 31 32  1  0  0  0  0
 32 33  2  0  0  0  0
 34 28  1  0  0  0  0
 34 31  2  0  0  0  0
M  END
>  <MODEL>
1

>  <REMARK>
 VINA RESULT:      -8.8      0.000      0.000
  Name = 
  9 active torsions:
  status: ('A' for Active; 'I' for Inactive)
    1  A    between atoms: C_1  and  C_19
    2  A    between atoms: C_2  and  C_15
    3  A    between atoms: C_2  and  C_25
    4  A    between atoms: C_3  and  C_13
    5  A    between atoms: C_3  and  C_17
    6  A    between atoms: N_5  and  C_18
    7  A    between atoms: C_12  and  C_28
    8  A    between atoms: C_17  and  C_29
    9  A    between atoms: C_18  and  C_29
                            x       y       z     vdW  Elec       q    Type
                         _______ _______ _______ _____ _____    ______ ____

>  <TORSDO>
F 9

$$$$
=
 OpenBabel10252415093D

 34 37  0  0  1  0  0  0  0  0999 V2000
  190.8700  177.2540  143.5970 C   0  0  1  0  0  3  0  0  0  0  0  0
  188.3860  177.0950  142.8280 C   0  0  2  0  0  3  0  0  0  0  0  0
  186.6110  178.6570  141.8370 N   0  0  0  0  0  0  0  0  0  0  0  0
  186.4090  177.7830  143.9980 O   0  0  0  0  0  0  0  0  0  0  0  0
  189.3850  177.5330  143.9210 C   0  0  1  0  0  3  0  0  0  0  0  0
  188.9840  177.1040  141.3960 C   0  0  1  0  0  3  0  0  0  0  0  0
  191.1980  177.2600  142.1000 C   0  0  0  0  0  2  0  0  0  0  0  0
  187.3950  178.8200  140.6790 N   0  0  0  0  0  2  0  0  0  0  0  0
  187.9540  177.5180  140.3360 C   0  0  1  0  0  3  0  0  0  0  0  0
  187.0950  177.8750  142.9440 C   0  0  0  0  0  0  0  0  0  0  0  0
  190.1700  177.9510  141.3380 N   0  0  0  0  0  2  0  0  0  0  0  0
  189.4170  176.3180  137.0280 C   0  0  0  0  0  0  0  0  0  0  0  0
  189.4890  177.5200  136.3180 C   0  0  0  0  0  3  0  0  0  0  0  0
  188.5080  177.5020  138.9430 C   0  0  0  0  0  0  0  0  0  0  0  0
  189.0680  178.7110  136.9150 C   0  0  0  0  0  3  0  0  0  0  0  0
  188.9260  176.3080  138.3370 C   0  0  0  0  0  3  0  0  0  0  0  0
  188.5770  178.7010  138.2240 C   0  0  0  0  0  3  0  0  0  0  0  0
  189.9390  174.8260  136.2790 Cl  0  0  0  0  0  0  0  0  0  0  0  0
  191.2700  179.5600  144.0810 O   0  0  0  0  0  1  0  0  0  0  0  0
  191.7500  178.2690  144.3080 C   0  0  0  0  0  2  0  0  0  0  0  0
  189.0070  176.8690  145.2440 C   0  0  0  0  0  2  0  0  0  0  0  0
  188.6980  177.1710  147.7020 C   0  0  0  0  0  1  0  0  0  0  0  0
  188.8930  177.8790  146.3740 C   0  0  0  0  0  2  0  0  0  0  0  0
  185.2580  179.1980  141.8550 C   0  0  0  0  0  2  0  0  0  0  0  0
  184.2390  178.1080  141.5550 C   0  0  0  0  0  2  0  0  0  0  0  0
  183.6250  178.2830  140.1730 C   0  0  0  0  0  2  0  0  0  0  0  0
  183.1040  176.9570  139.6390 C   0  0  0  0  0  2  0  0  0  0  0  0
  183.1940  175.5150  137.6610 N   0  0  0  0  0  0  0  0  0  0  0  0
  183.1610  176.9110  138.1180 C   0  0  2  0  0  3  0  0  0  0  0  0
  181.9910  174.7070  137.7540 C   0  0  0  0  0  1  0  0  0  0  0  0
  185.4900  175.6280  136.9780 C   0  0  0  0  0  3  0  0  0  0  0  0
  185.4410  177.0880  137.1350 C   0  0  0  0  0  3  0  0  0  0  0  0
  184.3580  177.6910  137.6330 C   0  0  0  0  0  3  0  0  0  0  0  0
  184.4090  174.8910  137.2260 C   0  0  0  0  0  3  0  0  0  0  0  0
  1  5  1  0  0  0  0
  1 20  1  1  0  0  0
  2 10  1  6  0  0  0
  2  5  1  0  0  0  0
  3 24  1  0  0  0  0
  3 10  1  0  0  0  0
  5 21  1  1  0  0  0
  6 11  1  1  0  0  0
  6  2  1  0  0  0  0
  7  1  1  0  0  0  0
  8  3  1  0  0  0  0
  9 14  1  6  0  0  0
  9  8  1  0  0  0  0
  9  6  1  0  0  0  0
 10  4  2  0  0  0  0
 11  7  1  0  0  0  0
 12 16  1  0  0  0  0
 13 15  1  0  0  0  0
 13 12  2  0  0  0  0
 15 17  2  0  0  0  0
 16 14  2  0  0  0  0
 17 14  1  0  0  0  0
 18 12  1  0  0  0  0
 19 20  1  0  0  0  0
 21 23  1  0  0  0  0
 23 22  1  0  0  0  0
 25 24  1  0  0  0  0
 26 25  1  0  0  0  0
 27 26  1  0  0  0  0
 28 30  1  0  0  0  0
 28 29  1  0  0  0  0
 29 27  1  1  0  0  0
 31 32  1  0  0  0  0
 31 34  2  0  0  0  0
 32 33  2  0  0  0  0
 33 29  1  0  0  0  0
 34 28  1  0  0  0  0
M  END
>  <MODEL>
2

>  <REMARK>
 VINA RESULT:      -8.5      3.658      6.664
  Name = 
  9 active torsions:
  status: ('A' for Active; 'I' for Inactive)
    1  A    between atoms: C_1  and  C_19
    2  A    between atoms: C_2  and  C_15
    3  A    between atoms: C_2  and  C_25
    4  A    between atoms: C_3  and  C_13
    5  A    between atoms: C_3  and  C_17
    6  A    between atoms: N_5  and  C_18
    7  A    between atoms: C_12  and  C_28
    8  A    between atoms: C_17  and  C_29
    9  A    between atoms: C_18  and  C_29
                            x       y       z     vdW  Elec       q    Type
                         _______ _______ _______ _____ _____    ______ ____

>  <TORSDO>
F 9

$$$$
=
 OpenBabel10252415093D

 34 37  0  0  1  0  0  0  0  0999 V2000
  180.9590  176.6550  138.8950 C   0  0  1  0  0  3  0  0  0  0  0  0
  181.6530  178.5410  140.5520 C   0  0  2  0  0  3  0  0  0  0  0  0
  182.8140  178.7230  142.8300 N   0  0  0  0  0  0  0  0  0  0  0  0
  180.5500  179.2510  142.5610 O   0  0  0  0  0  0  0  0  0  0  0  0
  180.6490  177.4220  140.2000 C   0  0  1  0  0  3  0  0  0  0  0  0
  183.0840  178.2910  140.0060 C   0  0  1  0  0  3  0  0  0  0  0  0
  182.4490  176.5970  138.5400 C   0  0  0  0  0  2  0  0  0  0  0  0
  183.9980  178.2040  142.2730 N   0  0  0  0  0  2  0  0  0  0  0  0
  184.1710  178.8090  140.9580 C   0  0  1  0  0  3  0  0  0  0  0  0
  181.6200  178.8380  142.0350 C   0  0  0  0  0  0  0  0  0  0  0  0
  183.2790  176.8790  139.7010 N   0  0  0  0  0  2  0  0  0  0  0  0
  187.1020  178.2290  138.5930 C   0  0  0  0  0  0  0  0  0  0  0  0
  188.1760  178.2720  139.4860 C   0  0  0  0  0  3  0  0  0  0  0  0
  185.5580  178.6020  140.4300 C   0  0  0  0  0  0  0  0  0  0  0  0
  187.9450  178.4830  140.8480 C   0  0  0  0  0  3  0  0  0  0  0  0
  185.7960  178.3960  139.0620 C   0  0  0  0  0  3  0  0  0  0  0  0
  186.6390  178.6500  141.3180 C   0  0  0  0  0  3  0  0  0  0  0  0
  187.3910  177.9700  136.8870 Cl  0  0  0  0  0  0  0  0  0  0  0  0
  181.1770  174.3770  138.2040 O   0  0  0  0  0  1  0  0  0  0  0  0
  180.4100  175.2400  138.9890 C   0  0  0  0  0  2  0  0  0  0  0  0
  179.2400  178.0110  140.1350 C   0  0  0  0  0  2  0  0  0  0  0  0
  178.9310  180.3810  139.4180 C   0  0  0  0  0  1  0  0  0  0  0  0
  179.0690  178.9460  138.9480 C   0  0  0  0  0  2  0  0  0  0  0  0
  182.8450  179.2460  144.1900 C   0  0  0  0  0  2  0  0  0  0  0  0
  184.2770  179.5040  144.6350 C   0  0  0  0  0  2  0  0  0  0  0  0
  184.6360  178.6860  145.8670 C   0  0  0  0  0  2  0  0  0  0  0  0
  186.1050  178.8590  146.2260 C   0  0  0  0  0  2  0  0  0  0  0  0
  188.0590  177.6350  147.0500 N   0  0  0  0  0  0  0  0  0  0  0  0
  186.8310  177.5210  146.2520 C   0  0  2  0  0  3  0  0  0  0  0  0
  187.9600  177.7380  148.4950 C   0  0  0  0  0  1  0  0  0  0  0  0
  189.5020  177.5100  145.1390 C   0  0  0  0  0  3  0  0  0  0  0  0
  188.3500  177.0990  144.3250 C   0  0  0  0  0  3  0  0  0  0  0  0
  187.1180  177.0730  144.8390 C   0  0  0  0  0  3  0  0  0  0  0  0
  189.3500  177.7550  146.4390 C   0  0  0  0  0  3  0  0  0  0  0  0
  1 20  1  1  0  0  0
  1  5  1  0  0  0  0
  2 10  1  1  0  0  0
  3 24  1  0  0  0  0
  5 21  1  6  0  0  0
  5  2  1  0  0  0  0
  6 11  1  1  0  0  0
  6  2  1  0  0  0  0
  6  9  1  0  0  0  0
  7  1  1  0  0  0  0
  7 11  1  0  0  0  0
  8  3  1  0  0  0  0
  9 14  1  6  0  0  0
  9  8  1  0  0  0  0
 10  4  2  0  0  0  0
 10  3  1  0  0  0  0
 12 16  2  0  0  0  0
 12 13  1  0  0  0  0
 13 15  2  0  0  0  0
 14 17  2  0  0  0  0
 15 17  1  0  0  0  0
 16 14  1  0  0  0  0
 18 12  1  0  0  0  0
 19 20  1  0  0  0  0
 23 22  1  0  0  0  0
 23 21  1  0  0  0  0
 24 25  1  0  0  0  0
 25 26  1  0  0  0  0
 26 27  1  0  0  0  0
 28 30  1  0  0  0  0
 29 27  1  6  0  0  0
 29 28  1  0  0  0  0
 31 34  2  0  0  0  0
 32 33  2  0  0  0  0
 32 31  1  0  0  0  0
 33 29  1  0  0  0  0
 34 28  1  0  0  0  0
M  END
>  <MODEL>
3

>  <REMARK>
 VINA RESULT:      -8.3      3.609      7.923
  Name = 
  9 active torsions:
  status: ('A' for Active; 'I' for Inactive)
    1  A    between atoms: C_1  and  C_19
    2  A    between atoms: C_2  and  C_15
    3  A    between atoms: C_2  and  C_25
    4  A    between atoms: C_3  and  C_13
    5  A    between atoms: C_3  and  C_17
    6  A    between atoms: N_5  and  C_18
    7  A    between atoms: C_12  and  C_28
    8  A    between atoms: C_17  and  C_29
    9  A    between atoms: C_18  and  C_29
                            x       y       z     vdW  Elec       q    Type
                         _______ _______ _______ _____ _____    ______ ____

>  <TORSDO>
F 9

$$$$
=
 OpenBabel10252415093D

 34 37  0  0  1  0  0  0  0  0999 V2000
  180.8900  177.3680  139.6600 C   0  0  1  0  0  3  0  0  0  0  0  0
  182.2930  178.8190  141.3070 C   0  0  2  0  0  3  0  0  0  0  0  0
  184.0560  178.4390  143.1290 N   0  0  0  0  0  0  0  0  0  0  0  0
  181.9130  179.2280  143.6400 O   0  0  0  0  0  0  0  0  0  0  0  0
  181.0740  177.8930  141.1010 C   0  0  1  0  0  3  0  0  0  0  0  0
  183.4610  178.5410  140.3230 C   0  0  1  0  0  3  0  0  0  0  0  0
  182.1960  177.2350  138.8680 C   0  0  0  0  0  2  0  0  0  0  0  0
  184.9460  177.9260  142.1670 N   0  0  0  0  0  2  0  0  0  0  0  0
  184.8350  178.7550  140.9730 C   0  0  1  0  0  3  0  0  0  0  0  0
  182.7190  178.8220  142.7590 C   0  0  0  0  0  0  0  0  0  0  0  0
  183.3490  177.2030  139.7550 N   0  0  0  0  0  2  0  0  0  0  0  0
  188.3150  178.0460  139.5910 C   0  0  0  0  0  0  0  0  0  0  0  0
  188.0570  178.0340  138.2170 C   0  0  0  0  0  3  0  0  0  0  0  0
  185.9740  178.5200  140.0260 C   0  0  0  0  0  0  0  0  0  0  0  0
  186.7600  178.2600  137.7470 C   0  0  0  0  0  3  0  0  0  0  0  0
  187.2760  178.2860  140.4940 C   0  0  0  0  0  3  0  0  0  0  0  0
  185.7210  178.5000  138.6500 C   0  0  0  0  0  3  0  0  0  0  0  0
  189.9360  177.7590  140.1800 Cl  0  0  0  0  0  0  0  0  0  0  0  0
  179.1110  176.0260  138.7950 O   0  0  0  0  0  1  0  0  0  0  0  0
  180.1830  176.0230  139.6900 C   0  0  0  0  0  2  0  0  0  0  0  0
  179.8080  178.6190  141.5560 C   0  0  0  0  0  2  0  0  0  0  0  0
  178.9310  180.9250  141.9240 C   0  0  0  0  0  1  0  0  0  0  0  0
  179.7300  180.0300  140.9970 C   0  0  0  0  0  2  0  0  0  0  0  0
  184.5420  178.6810  144.4810 C   0  0  0  0  0  2  0  0  0  0  0  0
  186.0640  178.6880  144.5130 C   0  0  0  0  0  2  0  0  0  0  0  0
  186.6190  177.3430  144.9620 C   0  0  0  0  0  2  0  0  0  0  0  0
  188.0730  177.1880  144.5420 C   0  0  0  0  0  2  0  0  0  0  0  0
  190.3670  177.9670  144.8950 N   0  0  0  0  0  0  0  0  0  0  0  0
  188.9960  178.0240  145.4170 C   0  0  2  0  0  3  0  0  0  0  0  0
  190.6930  178.6810  143.6720 C   0  0  0  0  0  1  0  0  0  0  0  0
  191.1650  176.5970  146.6930 C   0  0  0  0  0  3  0  0  0  0  0  0
  189.9120  176.8550  147.4150 C   0  0  0  0  0  3  0  0  0  0  0  0
  188.9170  177.5390  146.8440 C   0  0  0  0  0  3  0  0  0  0  0  0
  191.3720  177.1400  145.4950 C   0  0  0  0  0  3  0  0  0  0  0  0
  1 20  1  1  0  0  0
  1  5  1  0  0  0  0
  2 10  1  1  0  0  0
  3 24  1  0  0  0  0
  5  2  1  0  0  0  0
  5 21  1  6  0  0  0
  6 11  1  1  0  0  0
  6  9  1  0  0  0  0
  6  2  1  0  0  0  0
  7  1  1  0  0  0  0
  7 11  1  0  0  0  0
  8  3  1  0  0  0  0
  9 14  1  6  0  0  0
  9  8  1  0  0  0  0
 10  3  1  0  0  0  0
 10  4  2  0  0  0  0
 12 18  1  0  0  0  0
 12 16  1  0  0  0  0
 13 12  2  0  0  0  0
 14 16  2  0  0  0  0
 15 13  1  0  0  0  0
 15 17  2  0  0  0  0
 17 14  1  0  0  0  0
 19 20  1  0  0  0  0
 23 21  1  0  0  0  0
 23 22  1  0  0  0  0
 24 25  1  0  0  0  0
 25 26  1  0  0  0  0
 27 26  1  0  0  0  0
 28 29  1  0  0  0  0
 28 34  1  0  0  0  0
 29 27  1  6  0  0  0
 29 33  1  0  0  0  0
 30 28  1  0  0  0  0
 31 32  1  0  0  0  0
 33 32  2  0  0  0  0
 34 31  2  0  0  0  0
M  END
>  <MODEL>
4

>  <REMARK>
 VINA RESULT:      -8.1      3.141      8.344
  Name = 
  9 active torsions:
  status: ('A' for Active; 'I' for Inactive)
    1  A    between atoms: C_1  and  C_19
    2  A    between atoms: C_2  and  C_15
    3  A    between atoms: C_2  and  C_25
    4  A    between atoms: C_3  and  C_13
    5  A    between atoms: C_3  and  C_17
    6  A    between atoms: N_5  and  C_18
    7  A    between atoms: C_12  and  C_28
    8  A    between atoms: C_17  and  C_29
    9  A    between atoms: C_18  and  C_29
                            x       y       z     vdW  Elec       q    Type
                         _______ _______ _______ _____ _____    ______ ____

>  <TORSDO>
F 9

$$$$
=
 OpenBabel10252415093D

 34 37  0  0  1  0  0  0  0  0999 V2000
  190.6060  176.9070  144.3390 C   0  0  1  0  0  3  0  0  0  0  0  0
  188.2840  176.9870  143.1610 C   0  0  2  0  0  3  0  0  0  0  0  0
  186.8750  178.7010  141.8760 N   0  0  0  0  0  0  0  0  0  0  0  0
  186.2210  177.9000  143.9760 O   0  0  0  0  0  0  0  0  0  0  0  0
  189.1260  177.3450  144.4050 C   0  0  1  0  0  3  0  0  0  0  0  0
  189.1120  176.9020  141.8510 C   0  0  1  0  0  3  0  0  0  0  0  0
  191.1800  176.8460  142.9190 C   0  0  0  0  0  2  0  0  0  0  0  0
  187.8540  178.7560  140.8670 N   0  0  0  0  0  2  0  0  0  0  0  0
  188.3230  177.3960  140.6290 C   0  0  1  0  0  3  0  0  0  0  0  0
  187.0810  177.8980  143.0530 C   0  0  0  0  0  0  0  0  0  0  0  0
  190.3720  177.6220  141.9900 N   0  0  0  0  0  2  0  0  0  0  0  0
  190.8460  176.2850  137.9980 C   0  0  0  0  0  0  0  0  0  0  0  0
  190.4840  177.1010  136.9220 C   0  0  0  0  0  3  0  0  0  0  0  0
  189.0990  177.2920  139.3510 C   0  0  0  0  0  0  0  0  0  0  0  0
  189.4290  178.0080  137.0570 C   0  0  0  0  0  3  0  0  0  0  0  0
  190.1540  176.3780  139.2090 C   0  0  0  0  0  3  0  0  0  0  0  0
  188.7370  178.1010  138.2680 C   0  0  0  0  0  3  0  0  0  0  0  0
  192.1630  175.1470  137.8290 Cl  0  0  0  0  0  0  0  0  0  0  0  0
  191.9290  177.1700  146.3120 O   0  0  0  0  0  1  0  0  0  0  0  0
  191.4560  177.8420  145.1840 C   0  0  0  0  0  2  0  0  0  0  0  0
  188.4630  176.7530  145.6490 C   0  0  0  0  0  2  0  0  0  0  0  0
  188.3190  177.2380  148.0920 C   0  0  0  0  0  1  0  0  0  0  0  0
  188.1720  177.8140  146.6970 C   0  0  0  0  0  2  0  0  0  0  0  0
  185.6020  179.3780  141.6630 C   0  0  0  0  0  2  0  0  0  0  0  0
  184.8120  178.6990  140.5530 C   0  0  0  0  0  2  0  0  0  0  0  0
  183.4940  178.1370  141.0680 C   0  0  0  0  0  2  0  0  0  0  0  0
  182.9590  177.0630  140.1330 C   0  0  0  0  0  2  0  0  0  0  0  0
  181.9670  178.3860  138.3260 N   0  0  0  0  0  0  0  0  0  0  0  0
  181.6650  177.5060  139.4630 C   0  0  2  0  0  3  0  0  0  0  0  0
  182.5330  177.8150  137.1160 C   0  0  0  0  0  1  0  0  0  0  0  0
  181.1670  180.3560  139.4340 C   0  0  0  0  0  3  0  0  0  0  0  0
  180.5750  179.5030  140.4730 C   0  0  0  0  0  3  0  0  0  0  0  0
  180.7750  178.1830  140.4770 C   0  0  0  0  0  3  0  0  0  0  0  0
  181.8220  179.8090  138.4120 C   0  0  0  0  0  3  0  0  0  0  0  0
  1  5  1  0  0  0  0
  1 20  1  1  0  0  0
  2 10  1  6  0  0  0
  2  5  1  0  0  0  0
  3 10  1  0  0  0  0
  5 21  1  1  0  0  0
  6 11  1  1  0  0  0
  6  2  1  0  0  0  0
  7  1  1  0  0  0  0
  8  3  1  0  0  0  0
  9 14  1  6  0  0  0
  9  8  1  0  0  0  0
  9  6  1  0  0  0  0
 10  4  2  0  0  0  0
 11  7  1  0  0  0  0
 12 16  1  0  0  0  0
 13 15  1  0  0  0  0
 13 12  2  0  0  0  0
 15 17  2  0  0  0  0
 16 14  2  0  0  0  0
 17 14  1  0  0  0  0
 18 12  1  0  0  0  0
 20 19  1  0  0  0  0
 21 23  1  0  0  0  0
 23 22  1  0  0  0  0
 24  3  1  0  0  0  0
 25 26  1  0  0  0  0
 25 24  1  0  0  0  0
 27 26  1  0  0  0  0
 28 34  1  0  0  0  0
 28 29  1  0  0  0  0
 29 27  1  1  0  0  0
 29 33  1  0  0  0  0
 30 28  1  0  0  0  0
 31 32  1  0  0  0  0
 32 33  2  0  0  0  0
 34 31  2  0  0  0  0
M  END
>  <MODEL>
5

>  <REMARK>
 VINA RESULT:      -8.0      3.174      5.878
  Name = 
  9 active torsions:
  status: ('A' for Active; 'I' for Inactive)
    1  A    between atoms: C_1  and  C_19
    2  A    between atoms: C_2  and  C_15
    3  A    between atoms: C_2  and  C_25
    4  A    between atoms: C_3  and  C_13
    5  A    between atoms: C_3  and  C_17
    6  A    between atoms: N_5  and  C_18
    7  A    between atoms: C_12  and  C_28
    8  A    between atoms: C_17  and  C_29
    9  A    between atoms: C_18  and  C_29
                            x       y       z     vdW  Elec       q    Type
                         _______ _______ _______ _____ _____    ______ ____

>  <TORSDO>
F 9

$$$$
=
 OpenBabel10252415093D

 34 37  0  0  1  0  0  0  0  0999 V2000
  182.0080  178.6290  141.2020 C   0  0  1  0  0  3  0  0  0  0  0  0
  183.7930  179.1740  143.0200 C   0  0  2  0  0  3  0  0  0  0  0  0
  185.4430  177.8820  144.4960 N   0  0  0  0  0  0  0  0  0  0  0  0
  183.6030  179.0070  145.4040 O   0  0  0  0  0  0  0  0  0  0  0  0
  182.3660  178.6740  142.7040 C   0  0  1  0  0  3  0  0  0  0  0  0
  184.8160  178.8970  141.8860 C   0  0  1  0  0  3  0  0  0  0  0  0
  183.2080  178.3980  140.2770 C   0  0  0  0  0  2  0  0  0  0  0  0
  186.1360  177.4490  143.3500 N   0  0  0  0  0  2  0  0  0  0  0  0
  186.2160  178.5750  142.4280 C   0  0  1  0  0  3  0  0  0  0  0  0
  184.2460  178.6720  144.3730 C   0  0  0  0  0  0  0  0  0  0  0  0
  184.3360  177.8380  141.0060 N   0  0  0  0  0  2  0  0  0  0  0  0
  187.8450  178.2520  138.9980 C   0  0  0  0  0  0  0  0  0  0  0  0
  189.1560  177.9250  139.3570 C   0  0  0  0  0  3  0  0  0  0  0  0
  187.2230  178.3340  141.3440 C   0  0  0  0  0  0  0  0  0  0  0  0
  189.5030  177.8060  140.7060 C   0  0  0  0  0  3  0  0  0  0  0  0
  186.8800  178.4590  139.9890 C   0  0  0  0  0  3  0  0  0  0  0  0
  188.5380  178.0130  141.6970 C   0  0  0  0  0  3  0  0  0  0  0  0
  187.4110  178.4050  137.3110 Cl  0  0  0  0  0  0  0  0  0  0  0  0
  181.1140  177.0300  139.6660 O   0  0  0  0  0  1  0  0  0  0  0  0
  180.9690  177.5470  140.9550 C   0  0  0  0  0  2  0  0  0  0  0  0
  181.3530  179.5370  143.4560 C   0  0  0  0  0  2  0  0  0  0  0  0
  178.9310  179.3050  144.0080 C   0  0  0  0  0  1  0  0  0  0  0  0
  180.3090  178.6940  144.1710 C   0  0  0  0  0  2  0  0  0  0  0  0
  186.0140  177.6140  145.8100 C   0  0  0  0  0  2  0  0  0  0  0  0
  187.1940  178.5360  146.0810 C   0  0  0  0  0  2  0  0  0  0  0  0
  188.4210  177.7560  146.5340 C   0  0  0  0  0  2  0  0  0  0  0  0
  189.2760  177.3480  145.3430 C   0  0  0  0  0  2  0  0  0  0  0  0
  191.5340  176.6690  144.6850 N   0  0  0  0  0  0  0  0  0  0  0  0
  190.7600  177.4320  145.6720 C   0  0  2  0  0  3  0  0  0  0  0  0
  191.6860  177.1940  143.3390 C   0  0  0  0  0  1  0  0  0  0  0  0
  192.0760  174.9160  146.2290 C   0  0  0  0  0  3  0  0  0  0  0  0
  191.5780  175.7600  147.3250 C   0  0  0  0  0  3  0  0  0  0  0  0
  190.9960  176.9360  147.0780 C   0  0  0  0  0  3  0  0  0  0  0  0
  192.0560  175.3660  144.9760 C   0  0  0  0  0  3  0  0  0  0  0  0
  1 20  1  1  0  0  0
  1  5  1  0  0  0  0
  2 10  1  1  0  0  0
  3 24  1  0  0  0  0
  5  2  1  0  0  0  0
  5 21  1  1  0  0  0
  6 11  1  1  0  0  0
  6  9  1  0  0  0  0
  6  2  1  0  0  0  0
  7 11  1  0  0  0  0
  7  1  1  0  0  0  0
  8  3  1  0  0  0  0
  9 14  1  6  0  0  0
  9  8  1  0  0  0  0
 10  3  1  0  0  0  0
 10  4  2  0  0  0  0
 12 13  2  0  0  0  0
 12 16  1  0  0  0  0
 13 15  1  0  0  0  0
 14 17  1  0  0  0  0
 15 17  2  0  0  0  0
 16 14  2  0  0  0  0
 18 12  1  0  0  0  0
 19 20  1  0  0  0  0
 21 23  1  0  0  0  0
 22 23  1  0  0  0  0
 24 25  1  0  0  0  0
 25 26  1  0  0  0  0
 27 26  1  0  0  0  0
 28 34  1  0  0  0  0
 28 29  1  0  0  0  0
 29 27  1  6  0  0  0
 29 33  1  0  0  0  0
 30 28  1  0  0  0  0
 31 32  1  0  0  0  0
 33 32  2  0  0  0  0
 34 31  2  0  0  0  0
M  END
>  <MODEL>
6

>  <REMARK>
 VINA RESULT:      -7.9      3.229      8.462
  Name = 
  9 active torsions:
  status: ('A' for Active; 'I' for Inactive)
    1  A    between atoms: C_1  and  C_19
    2  A    between atoms: C_2  and  C_15
    3  A    between atoms: C_2  and  C_25
    4  A    between atoms: C_3  and  C_13
    5  A    between atoms: C_3  and  C_17
    6  A    between atoms: N_5  and  C_18
    7  A    between atoms: C_12  and  C_28
    8  A    between atoms: C_17  and  C_29
    9  A    between atoms: C_18  and  C_29
                            x       y       z     vdW  Elec       q    Type
                         _______ _______ _______ _____ _____    ______ ____

>  <TORSDO>
F 9

$$$$
=
 OpenBabel10252415093D

 34 37  0  0  1  0  0  0  0  0999 V2000
  190.9560  177.3630  143.6290 C   0  0  1  0  0  3  0  0  0  0  0  0
  188.5080  177.1120  142.7740 C   0  0  2  0  0  3  0  0  0  0  0  0
  186.7200  178.6000  141.6970 N   0  0  0  0  0  0  0  0  0  0  0  0
  186.4690  177.7500  143.8630 O   0  0  0  0  0  0  0  0  0  0  0  0
  189.4530  177.5980  143.8950 C   0  0  1  0  0  3  0  0  0  0  0  0
  189.1570  177.1200  141.3640 C   0  0  1  0  0  3  0  0  0  0  0  0
  191.3380  177.3590  142.1440 C   0  0  0  0  0  2  0  0  0  0  0  0
  187.5390  178.7720  140.5650 N   0  0  0  0  0  2  0  0  0  0  0  0
  188.1520  177.4850  140.2620 C   0  0  1  0  0  3  0  0  0  0  0  0
  187.1890  177.8500  142.8330 C   0  0  0  0  0  0  0  0  0  0  0  0
  190.3150  178.0050  141.3350 N   0  0  0  0  0  2  0  0  0  0  0  0
  190.1140  176.4110  137.1770 C   0  0  0  0  0  0  0  0  0  0  0  0
  189.8190  177.4570  136.2970 C   0  0  0  0  0  3  0  0  0  0  0  0
  188.7560  177.4670  138.8900 C   0  0  0  0  0  0  0  0  0  0  0  0
  188.9910  178.5040  136.7100 C   0  0  0  0  0  3  0  0  0  0  0  0
  189.5830  176.4140  138.4700 C   0  0  0  0  0  3  0  0  0  0  0  0
  188.4590  178.5080  138.0030 C   0  0  0  0  0  3  0  0  0  0  0  0
  191.1460  175.0970  136.6600 Cl  0  0  0  0  0  0  0  0  0  0  0  0
  191.2410  179.6840  144.1210 O   0  0  0  0  0  1  0  0  0  0  0  0
  191.7770  178.4170  144.3540 C   0  0  0  0  0  2  0  0  0  0  0  0
  189.0490  176.9400  145.2140 C   0  0  0  0  0  2  0  0  0  0  0  0
  187.7500  177.6060  147.2380 C   0  0  0  0  0  1  0  0  0  0  0  0
  188.9200  177.9550  146.3390 C   0  0  0  0  0  2  0  0  0  0  0  0
  185.3500  179.0960  141.6600 C   0  0  0  0  0  2  0  0  0  0  0  0
  184.7840  179.0050  140.2500 C   0  0  0  0  0  2  0  0  0  0  0  0
  183.3770  178.4230  140.2490 C   0  0  0  0  0  2  0  0  0  0  0  0
  182.3890  179.3910  139.6160 C   0  0  0  0  0  2  0  0  0  0  0  0
  180.1020  180.1490  140.0520 N   0  0  0  0  0  0  0  0  0  0  0  0
  180.9510  178.9640  139.8760 C   0  0  2  0  0  3  0  0  0  0  0  0
  179.7710  180.9660  138.8980 C   0  0  0  0  0  1  0  0  0  0  0  0
  179.8220  179.7930  142.4070 C   0  0  0  0  0  3  0  0  0  0  0  0
  180.4050  178.4530  142.2500 C   0  0  0  0  0  3  0  0  0  0  0  0
  180.9020  178.0520  141.0770 C   0  0  0  0  0  3  0  0  0  0  0  0
  179.6760  180.5880  141.3490 C   0  0  0  0  0  3  0  0  0  0  0  0
  1  5  1  0  0  0  0
  1 20  1  1  0  0  0
  2 10  1  6  0  0  0
  2  5  1  0  0  0  0
  3 10  1  0  0  0  0
  5 21  1  1  0  0  0
  6 11  1  1  0  0  0
  6  2  1  0  0  0  0
  7  1  1  0  0  0  0
  8  3  1  0  0  0  0
  9 14  1  6  0  0  0
  9  8  1  0  0  0  0
  9  6  1  0  0  0  0
 10  4  2  0  0  0  0
 11  7  1  0  0  0  0
 12 16  1  0  0  0  0
 13 15  1  0  0  0  0
 13 12  2  0  0  0  0
 15 17  2  0  0  0  0
 16 14  2  0  0  0  0
 17 14  1  0  0  0  0
 18 12  1  0  0  0  0
 19 20  1  0  0  0  0
 21 23  1  0  0  0  0
 23 22  1  0  0  0  0
 24  3  1  0  0  0  0
 25 24  1  0  0  0  0
 26 25  1  0  0  0  0
 27 26  1  0  0  0  0
 28 34  1  0  0  0  0
 29 27  1  1  0  0  0
 29 28  1  0  0  0  0
 29 33  1  0  0  0  0
 30 28  1  0  0  0  0
 32 31  1  0  0  0  0
 33 32  2  0  0  0  0
 34 31  2  0  0  0  0
M  END
>  <MODEL>
7

>  <REMARK>
 VINA RESULT:      -7.9      3.007      5.789
  Name = 
  9 active torsions:
  status: ('A' for Active; 'I' for Inactive)
    1  A    between atoms: C_1  and  C_19
    2  A    between atoms: C_2  and  C_15
    3  A    between atoms: C_2  and  C_25
    4  A    between atoms: C_3  and  C_13
    5  A    between atoms: C_3  and  C_17
    6  A    between atoms: N_5  and  C_18
    7  A    between atoms: C_12  and  C_28
    8  A    between atoms: C_17  and  C_29
    9  A    between atoms: C_18  and  C_29
                            x       y       z     vdW  Elec       q    Type
                         _______ _______ _______ _____ _____    ______ ____

>  <TORSDO>
F 9

$$$$
=
 OpenBabel10252415093D

 34 37  0  0  1  0  0  0  0  0999 V2000
  187.5800  176.3140  135.6850 C   0  0  1  0  0  3  0  0  0  0  0  0
  189.0410  177.5750  137.4360 C   0  0  2  0  0  3  0  0  0  0  0  0
  190.1130  177.0790  139.7110 N   0  0  0  0  0  0  0  0  0  0  0  0
  188.3580  178.6120  139.4880 O   0  0  0  0  0  0  0  0  0  0  0  0
  187.6380  177.0700  137.0310 C   0  0  1  0  0  3  0  0  0  0  0  0
  190.2020  176.7170  136.8650 C   0  0  1  0  0  3  0  0  0  0  0  0
  188.8790  175.5880  135.3160 C   0  0  0  0  0  2  0  0  0  0  0  0
  190.9310  176.0990  139.1170 N   0  0  0  0  0  2  0  0  0  0  0  0
  191.3880  176.6210  137.8350 C   0  0  1  0  0  3  0  0  0  0  0  0
  189.1230  177.7760  138.9330 C   0  0  0  0  0  0  0  0  0  0  0  0
  189.7240  175.3930  136.4840 N   0  0  0  0  0  2  0  0  0  0  0  0
  194.5880  175.6480  136.0080 C   0  0  0  0  0  0  0  0  0  0  0  0
  194.6720  174.2900  136.3270 C   0  0  0  0  0  3  0  0  0  0  0  0
  192.5300  175.8200  137.2860 C   0  0  0  0  0  0  0  0  0  0  0  0
  193.6920  173.6970  137.1260 C   0  0  0  0  0  3  0  0  0  0  0  0
  193.5200  176.4130  136.4880 C   0  0  0  0  0  3  0  0  0  0  0  0
  192.6240  174.4610  137.6060 C   0  0  0  0  0  3  0  0  0  0  0  0
  195.8170  176.3930  135.0120 Cl  0  0  0  0  0  0  0  0  0  0  0  0
  186.3570  174.7050  136.9620 O   0  0  0  0  0  1  0  0  0  0  0  0
  186.4360  175.3130  135.7070 C   0  0  0  0  0  2  0  0  0  0  0  0
  186.6660  178.2480  137.0090 C   0  0  0  0  0  2  0  0  0  0  0  0
  185.1620  178.7480  138.9360 C   0  0  0  0  0  1  0  0  0  0  0  0
  185.3480  177.9100  137.6860 C   0  0  0  0  0  2  0  0  0  0  0  0
  190.3580  177.4580  141.0970 C   0  0  0  0  0  2  0  0  0  0  0  0
  189.8260  176.3950  142.0470 C   0  0  0  0  0  2  0  0  0  0  0  0
  188.4630  176.7780  142.6070 C   0  0  0  0  0  2  0  0  0  0  0  0
  188.3530  176.3980  144.0760 C   0  0  0  0  0  2  0  0  0  0  0  0
  189.8170  177.2420  145.8480 N   0  0  0  0  0  0  0  0  0  0  0  0
  188.6810  177.5780  144.9800 C   0  0  2  0  0  3  0  0  0  0  0  0
  191.1500  177.1610  145.2770 C   0  0  0  0  0  1  0  0  0  0  0  0
  188.4660  177.0920  147.8240 C   0  0  0  0  0  3  0  0  0  0  0  0
  187.3560  177.7070  147.0830 C   0  0  0  0  0  3  0  0  0  0  0  0
  187.4580  177.9620  145.7760 C   0  0  0  0  0  3  0  0  0  0  0  0
  189.6360  176.8830  147.2240 C   0  0  0  0  0  3  0  0  0  0  0  0
  1 20  1  1  0  0  0
  1  5  1  0  0  0  0
  2 10  1  1  0  0  0
  3 24  1  0  0  0  0
  5 21  1  6  0  0  0
  5  2  1  0  0  0  0
  6 11  1  1  0  0  0
  6  2  1  0  0  0  0
  6  9  1  0  0  0  0
  7  1  1  0  0  0  0
  7 11  1  0  0  0  0
  8  3  1  0  0  0  0
  9 14  1  6  0  0  0
  9  8  1  0  0  0  0
 10  4  2  0  0  0  0
 10  3  1  0  0  0  0
 12 13  2  0  0  0  0
 12 16  1  0  0  0  0
 13 15  1  0  0  0  0
 14 17  1  0  0  0  0
 15 17  2  0  0  0  0
 16 14  2  0  0  0  0
 18 12  1  0  0  0  0
 20 19  1  0  0  0  0
 21 23  1  0  0  0  0
 23 22  1  0  0  0  0
 24 25  1  0  0  0  0
 25 26  1  0  0  0  0
 26 27  1  0  0  0  0
 28 34  1  0  0  0  0
 29 27  1  1  0  0  0
 29 33  1  0  0  0  0
 29 28  1  0  0  0  0
 30 28  1  0  0  0  0
 32 31  1  0  0  0  0
 33 32  2  0  0  0  0
 34 31  2  0  0  0  0
M  END
>  <MODEL>
8

>  <REMARK>
 VINA RESULT:      -7.9      4.720      7.921
  Name = 
  9 active torsions:
  status: ('A' for Active; 'I' for Inactive)
    1  A    between atoms: C_1  and  C_19
    2  A    between atoms: C_2  and  C_15
    3  A    between atoms: C_2  and  C_25
    4  A    between atoms: C_3  and  C_13
    5  A    between atoms: C_3  and  C_17
    6  A    between atoms: N_5  and  C_18
    7  A    between atoms: C_12  and  C_28
    8  A    between atoms: C_17  and  C_29
    9  A    between atoms: C_18  and  C_29
                            x       y       z     vdW  Elec       q    Type
                         _______ _______ _______ _____ _____    ______ ____

>  <TORSDO>
F 9

$$$$
=
 OpenBabel10252415093D

 34 37  0  0  1  0  0  0  0  0999 V2000
  190.8320  177.1390  143.8350 C   0  0  1  0  0  3  0  0  0  0  0  0
  188.3780  177.0900  142.9630 C   0  0  2  0  0  3  0  0  0  0  0  0
  186.7140  178.7300  141.9060 N   0  0  0  0  0  0  0  0  0  0  0  0
  186.3850  177.8590  144.0530 O   0  0  0  0  0  0  0  0  0  0  0  0
  189.3490  177.4820  144.0980 C   0  0  1  0  0  3  0  0  0  0  0  0
  189.0350  177.0770  141.5570 C   0  0  1  0  0  3  0  0  0  0  0  0
  191.2220  177.1350  142.3520 C   0  0  0  0  0  2  0  0  0  0  0  0
  187.5520  178.8620  140.7820 N   0  0  0  0  0  2  0  0  0  0  0  0
  188.0680  177.5380  140.4570 C   0  0  1  0  0  3  0  0  0  0  0  0
  187.1180  177.9250  143.0290 C   0  0  0  0  0  0  0  0  0  0  0  0
  190.2570  177.8720  141.5510 N   0  0  0  0  0  2  0  0  0  0  0  0
  190.3470  176.6860  137.5230 C   0  0  0  0  0  0  0  0  0  0  0  0
  189.7500  177.4280  136.5000 C   0  0  0  0  0  3  0  0  0  0  0  0
  188.6780  177.5020  139.0880 C   0  0  0  0  0  0  0  0  0  0  0  0
  188.6180  178.2030  136.7670 C   0  0  0  0  0  3  0  0  0  0  0  0
  189.8110  176.7200  138.8140 C   0  0  0  0  0  3  0  0  0  0  0  0
  188.0820  178.2370  138.0570 C   0  0  0  0  0  3  0  0  0  0  0  0
  191.7610  175.7130  137.1890 Cl  0  0  0  0  0  0  0  0  0  0  0  0
  191.5640  179.4020  144.0730 O   0  0  0  0  0  1  0  0  0  0  0  0
  191.7250  178.1140  144.5860 C   0  0  0  0  0  2  0  0  0  0  0  0
  188.8880  176.8310  145.4020 C   0  0  0  0  0  2  0  0  0  0  0  0
  187.6140  177.6150  147.3990 C   0  0  0  0  0  1  0  0  0  0  0  0
  188.8540  177.8250  146.5520 C   0  0  0  0  0  2  0  0  0  0  0  0
  185.3860  179.3290  141.8710 C   0  0  0  0  0  2  0  0  0  0  0  0
  184.6770  178.9880  140.5680 C   0  0  0  0  0  2  0  0  0  0  0  0
  183.6170  177.9140  140.7730 C   0  0  0  0  0  2  0  0  0  0  0  0
  182.5290  178.0170  139.7140 C   0  0  0  0  0  2  0  0  0  0  0  0
  182.0830  179.6420  137.9370 N   0  0  0  0  0  0  0  0  0  0  0  0
  183.0550  178.6610  138.4390 C   0  0  2  0  0  3  0  0  0  0  0  0
  181.9160  180.9010  138.6400 C   0  0  0  0  0  1  0  0  0  0  0  0
  181.4370  178.2820  136.0700 C   0  0  0  0  0  3  0  0  0  0  0  0
  182.5840  177.4050  136.3420 C   0  0  0  0  0  3  0  0  0  0  0  0
  183.3540  177.5920  137.4170 C   0  0  0  0  0  3  0  0  0  0  0  0
  181.2150  179.3500  136.8350 C   0  0  0  0  0  3  0  0  0  0  0  0
  1  5  1  0  0  0  0
  1 20  1  1  0  0  0
  2 10  1  6  0  0  0
  2  5  1  0  0  0  0
  3 10  1  0  0  0  0
  5 21  1  1  0  0  0
  6 11  1  1  0  0  0
  6  2  1  0  0  0  0
  7  1  1  0  0  0  0
  8  3  1  0  0  0  0
  9 14  1  6  0  0  0
  9  8  1  0  0  0  0
  9  6  1  0  0  0  0
 10  4  2  0  0  0  0
 11  7  1  0  0  0  0
 12 16  1  0  0  0  0
 13 15  1  0  0  0  0
 13 12  2  0  0  0  0
 15 17  2  0  0  0  0
 16 14  2  0  0  0  0
 17 14  1  0  0  0  0
 18 12  1  0  0  0  0
 19 20  1  0  0  0  0
 21 23  1  0  0  0  0
 23 22  1  0  0  0  0
 24  3  1  0  0  0  0
 25 26  1  0  0  0  0
 25 24  1  0  0  0  0
 27 26  1  0  0  0  0
 28 29  1  0  0  0  0
 28 30  1  0  0  0  0
 29 27  1  1  0  0  0
 31 32  1  0  0  0  0
 31 34  2  0  0  0  0
 32 33  2  0  0  0  0
 33 29  1  0  0  0  0
 34 28  1  0  0  0  0
M  END
>  <MODEL>
9

>  <REMARK>
 VINA RESULT:      -7.7      3.421      6.236
  Name = 
  9 active torsions:
  status: ('A' for Active; 'I' for Inactive)
    1  A    between atoms: C_1  and  C_19
    2  A    between atoms: C_2  and  C_15
    3  A    between atoms: C_2  and  C_25
    4  A    between atoms: C_3  and  C_13
    5  A    between atoms: C_3  and  C_17
    6  A    between atoms: N_5  and  C_18
    7  A    between atoms: C_12  and  C_28
    8  A    between atoms: C_17  and  C_29
    9  A    between atoms: C_18  and  C_29
                            x       y       z     vdW  Elec       q    Type
                         _______ _______ _______ _____ _____    ______ ____

>  <TORSDO>
F 9

$$$$
