=
 OpenBabel10262419573D

 25 27  0  0  1  0  0  0  0  0999 V2000
  188.0790  177.2060  144.6300 C   0  0  0  0  0  0  0  0  0  0  0  0
  186.9160  177.8240  144.1290 C   0  0  0  0  0  0  0  0  0  0  0  0
  187.4570  177.8280  146.8860 C   0  0  0  0  0  3  0  0  0  0  0  0
  189.0650  176.6090  143.6700 C   0  0  0  0  0  2  0  0  0  0  0  0
  185.8720  178.7170  142.0280 C   0  0  2  0  0  3  0  0  0  0  0  0
  190.9650  179.8790  143.8900 N   0  0  0  0  0  1  0  0  0  0  0  0
  186.2890  178.4120  146.4050 C   0  0  0  0  0  3  0  0  0  0  0  0
  190.8860  176.7140  145.8570 C   0  0  0  0  0  2  0  0  0  0  0  0
  191.0820  178.0810  145.3870 N   0  0  0  0  0  0  0  0  0  0  0  0
  184.6880  179.0320  144.5660 C   0  0  2  0  0  3  0  0  0  0  0  0
  183.7970  179.3400  145.6760 N   0  0  0  0  0  1  0  0  0  0  0  0
  186.7240  177.8200  142.7350 O   0  0  0  0  0  0  0  0  0  0  0  0
  190.7020  178.5220  144.2230 C   0  0  0  0  0  0  0  0  0  0  0  0
  188.3630  177.2280  146.0150 C   0  0  0  0  0  0  0  0  0  0  0  0
  189.5730  176.5720  146.6360 C   0  0  0  0  0  2  0  0  0  0  0  0
  183.9730  178.0950  143.6050 C   0  0  0  0  0  2  0  0  0  0  0  0
  190.0750  177.6450  143.1630 C   0  0  0  0  0  2  0  0  0  0  0  0
  184.3960  178.3450  142.1620 C   0  0  0  0  0  2  0  0  0  0  0  0
  185.9880  178.4100  145.0350 C   0  0  0  0  0  0  0  0  0  0  0  0
  186.2800  178.8420  140.5560 C   0  0  0  0  0  2  0  0  0  0  0  0
  184.1820  179.6380  139.3660 C   0  0  0  0  0  1  0  0  0  0  0  0
  185.2000  178.5190  139.5120 C   0  0  1  0  0  3  0  0  0  0  0  0
  185.7430  178.0710  138.1920 C   0  0  0  0  0  0  0  0  0  0  0  0
  185.0630  177.1300  137.4260 O   0  0  0  0  0  0  0  0  0  0  0  0
  186.8100  178.5750  137.7550 O   0  0  0  0  0  1  0  0  0  0  0  0
  1 14  1  0  0  0  0
  2  1  2  0  0  0  0
  2 19  1  0  0  0  0
  4  1  1  0  0  0  0
  5 20  1  6  0  0  0
  5 18  1  0  0  0  0
  5 12  1  0  0  0  0
  6 13  1  0  0  0  0
  7  3  1  0  0  0  0
  8 15  1  0  0  0  0
  9  8  1  0  0  0  0
 10 19  1  0  0  0  0
 10 11  1  1  0  0  0
 12  2  1  0  0  0  0
 13  9  2  0  0  0  0
 14 15  1  0  0  0  0
 14  3  2  0  0  0  0
 16 10  1  0  0  0  0
 17  4  1  0  0  0  0
 17 13  1  0  0  0  0
 18 16  1  0  0  0  0
 19  7  2  0  0  0  0
 22 21  1  6  0  0  0
 22 20  1  0  0  0  0
 23 22  1  0  0  0  0
 24 23  2  0  0  0  0
 25 23  1  0  0  0  0
M  END
>  <MODEL>
1

>  <REMARK>
 VINA RESULT:      -8.6      0.000      0.000
  Name = 
  3 active torsions:
  status: ('A' for Active; 'I' for Inactive)
    1  A    between atoms: C_2  and  C_25
    2  A    between atoms: C_6  and  C_15
    3  A    between atoms: C_15  and  C_25
                            x       y       z     vdW  Elec       q    Type
                         _______ _______ _______ _____ _____    ______ ____

>  <TORSDO>
F 3

$$$$
=
 OpenBabel10262419573D

 25 27  0  0  1  0  0  0  0  0999 V2000
  188.5360  177.1830  144.6210 C   0  0  0  0  0  0  0  0  0  0  0  0
  187.3330  177.8280  144.2730 C   0  0  0  0  0  0  0  0  0  0  0  0
  188.0280  177.4680  146.9710 C   0  0  0  0  0  3  0  0  0  0  0  0
  189.4800  176.7540  143.5360 C   0  0  0  0  0  2  0  0  0  0  0  0
  186.1520  178.9700  142.3750 C   0  0  2  0  0  3  0  0  0  0  0  0
  191.3140  180.0190  144.1110 N   0  0  0  0  0  1  0  0  0  0  0  0
  186.8220  178.0770  146.6380 C   0  0  0  0  0  3  0  0  0  0  0  0
  191.4180  176.6120  145.6180 C   0  0  0  0  0  2  0  0  0  0  0  0
  191.5570  178.0350  145.3340 N   0  0  0  0  0  0  0  0  0  0  0  0
  185.1060  178.8950  144.9910 C   0  0  2  0  0  3  0  0  0  0  0  0
  184.2730  179.0200  146.1790 N   0  0  0  0  0  1  0  0  0  0  0  0
  187.0630  178.0110  142.9050 O   0  0  0  0  0  0  0  0  0  0  0  0
  191.1020  178.6210  144.2650 C   0  0  0  0  0  0  0  0  0  0  0  0
  188.8970  177.0210  145.9780 C   0  0  0  0  0  0  0  0  0  0  0  0
  190.1550  176.3230  146.4370 C   0  0  0  0  0  2  0  0  0  0  0  0
  184.3590  178.0790  143.9470 C   0  0  0  0  0  2  0  0  0  0  0  0
  190.4360  177.8800  143.1270 C   0  0  0  0  0  2  0  0  0  0  0  0
  184.6950  178.5380  142.5330 C   0  0  0  0  0  2  0  0  0  0  0  0
  186.4440  178.2550  145.3000 C   0  0  0  0  0  0  0  0  0  0  0  0
  186.4740  179.3100  140.9150 C   0  0  0  0  0  2  0  0  0  0  0  0
  185.9260  178.0630  138.7720 C   0  0  0  0  0  1  0  0  0  0  0  0
  186.8250  178.1310  139.9950 C   0  0  1  0  0  3  0  0  0  0  0  0
  188.2750  178.0480  139.6380 C   0  0  0  0  0  0  0  0  0  0  0  0
  188.8740  179.0360  138.8640 O   0  0  0  0  0  0  0  0  0  0  0  0
  188.9690  177.0920  140.0720 O   0  0  0  0  0  1  0  0  0  0  0  0
  1 14  1  0  0  0  0
  2  1  2  0  0  0  0
  2 19  1  0  0  0  0
  4  1  1  0  0  0  0
  5 20  1  6  0  0  0
  5 18  1  0  0  0  0
  5 12  1  0  0  0  0
  6 13  1  0  0  0  0
  7  3  1  0  0  0  0
  8 15  1  0  0  0  0
  9  8  1  0  0  0  0
 10 19  1  0  0  0  0
 10 11  1  1  0  0  0
 12  2  1  0  0  0  0
 13  9  2  0  0  0  0
 14 15  1  0  0  0  0
 14  3  2  0  0  0  0
 16 10  1  0  0  0  0
 17  4  1  0  0  0  0
 17 13  1  0  0  0  0
 18 16  1  0  0  0  0
 19  7  2  0  0  0  0
 22 21  1  6  0  0  0
 22 20  1  0  0  0  0
 23 22  1  0  0  0  0
 23 25  1  0  0  0  0
 24 23  2  0  0  0  0
M  END
>  <MODEL>
2

>  <REMARK>
 VINA RESULT:      -8.6      1.257      1.495
  Name = 
  3 active torsions:
  status: ('A' for Active; 'I' for Inactive)
    1  A    between atoms: C_2  and  C_25
    2  A    between atoms: C_6  and  C_15
    3  A    between atoms: C_15  and  C_25
                            x       y       z     vdW  Elec       q    Type
                         _______ _______ _______ _____ _____    ______ ____

>  <TORSDO>
F 3

$$$$
=
 OpenBabel10262419573D

 25 27  0  0  1  0  0  0  0  0999 V2000
  188.9970  176.8310  142.3400 C   0  0  0  0  0  0  0  0  0  0  0  0
  189.0830  177.0830  140.9560 C   0  0  0  0  0  0  0  0  0  0  0  0
  186.9790  178.1640  142.4720 C   0  0  0  0  0  3  0  0  0  0  0  0
  190.0790  176.0390  143.0110 C   0  0  0  0  0  2  0  0  0  0  0  0
  190.6620  177.0140  139.0060 C   0  0  2  0  0  3  0  0  0  0  0  0
  191.6630  179.3550  143.9320 N   0  0  0  0  0  1  0  0  0  0  0  0
  187.0380  178.3920  141.1010 C   0  0  0  0  0  3  0  0  0  0  0  0
  189.0550  177.1500  145.4250 C   0  0  0  0  0  2  0  0  0  0  0  0
  189.9300  178.2600  145.0680 N   0  0  0  0  0  0  0  0  0  0  0  0
  188.0690  178.1030  138.8240 C   0  0  2  0  0  3  0  0  0  0  0  0
  186.8180  178.6940  138.3690 N   0  0  0  0  0  1  0  0  0  0  0  0
  190.1820  176.5440  140.2630 O   0  0  0  0  0  0  0  0  0  0  0  0
  190.8770  178.1950  144.1770 C   0  0  0  0  0  0  0  0  0  0  0  0
  187.9500  177.3930  143.1070 C   0  0  0  0  0  0  0  0  0  0  0  0
  187.7720  177.1550  144.5870 C   0  0  0  0  0  2  0  0  0  0  0  0
  188.3030  176.8030  138.0710 C   0  0  0  0  0  2  0  0  0  0  0  0
  191.2520  176.9240  143.4500 C   0  0  0  0  0  2  0  0  0  0  0  0
  189.7880  176.5510  137.8400 C   0  0  0  0  0  2  0  0  0  0  0  0
  188.0680  177.8510  140.3190 C   0  0  0  0  0  0  0  0  0  0  0  0
  192.1300  176.6340  138.7830 C   0  0  0  0  0  2  0  0  0  0  0  0
  193.6500  176.5650  136.7490 C   0  0  0  0  0  1  0  0  0  0  0  0
  192.4660  175.9300  137.4590 C   0  0  1  0  0  3  0  0  0  0  0  0
  192.6050  174.4450  137.5770 C   0  0  0  0  0  0  0  0  0  0  0  0
  193.8530  173.8610  137.7580 O   0  0  0  0  0  1  0  0  0  0  0  0
  191.5770  173.7200  137.5460 O   0  0  0  0  0  0  0  0  0  0  0  0
  1  4  1  0  0  0  0
  1 14  1  0  0  0  0
  2  1  2  0  0  0  0
  3 14  2  0  0  0  0
  4 17  1  0  0  0  0
  5 20  1  6  0  0  0
  5 12  1  0  0  0  0
  6 13  1  0  0  0  0
  7  3  1  0  0  0  0
  9  8  1  0  0  0  0
 10 11  1  6  0  0  0
 10 19  1  0  0  0  0
 12  2  1  0  0  0  0
 13  9  2  0  0  0  0
 14 15  1  0  0  0  0
 15  8  1  0  0  0  0
 16 10  1  0  0  0  0
 17 13  1  0  0  0  0
 18 16  1  0  0  0  0
 18  5  1  0  0  0  0
 19  2  1  0  0  0  0
 19  7  2  0  0  0  0
 22 21  1  1  0  0  0
 22 23  1  0  0  0  0
 22 20  1  0  0  0  0
 23 24  1  0  0  0  0
 25 23  2  0  0  0  0
M  END
>  <MODEL>
3

>  <REMARK>
 VINA RESULT:      -8.3      4.150      5.639
  Name = 
  3 active torsions:
  status: ('A' for Active; 'I' for Inactive)
    1  A    between atoms: C_2  and  C_25
    2  A    between atoms: C_6  and  C_15
    3  A    between atoms: C_15  and  C_25
                            x       y       z     vdW  Elec       q    Type
                         _______ _______ _______ _____ _____    ______ ____

>  <TORSDO>
F 3

$$$$
=
 OpenBabel10262419573D

 25 27  0  0  1  0  0  0  0  0999 V2000
  187.9870  177.2370  142.8010 C   0  0  0  0  0  0  0  0  0  0  0  0
  187.6640  177.7350  141.5230 C   0  0  0  0  0  0  0  0  0  0  0  0
  186.0570  178.3590  143.7410 C   0  0  0  0  0  3  0  0  0  0  0  0
  189.2390  176.4310  142.9820 C   0  0  0  0  0  2  0  0  0  0  0  0
  188.6160  178.1350  139.2350 C   0  0  2  0  0  3  0  0  0  0  0  0
  190.9270  179.6520  144.0420 N   0  0  0  0  0  1  0  0  0  0  0  0
  185.7120  178.8270  142.4770 C   0  0  0  0  0  3  0  0  0  0  0  0
  188.9220  177.0160  145.7510 C   0  0  0  0  0  2  0  0  0  0  0  0
  189.6260  178.2390  145.3830 N   0  0  0  0  0  0  0  0  0  0  0  0
  186.0510  179.0260  139.9920 C   0  0  2  0  0  3  0  0  0  0  0  0
  184.7070  179.5840  140.0230 N   0  0  0  0  0  1  0  0  0  0  0  0
  188.5320  177.4160  140.4620 O   0  0  0  0  0  0  0  0  0  0  0  0
  190.2780  178.4080  144.2700 C   0  0  0  0  0  0  0  0  0  0  0  0
  187.1900  177.5700  143.9210 C   0  0  0  0  0  0  0  0  0  0  0  0
  187.4520  177.0630  145.3190 C   0  0  0  0  0  2  0  0  0  0  0  0
  186.0950  177.9010  138.9690 C   0  0  0  0  0  2  0  0  0  0  0  0
  190.4630  177.3180  143.2380 C   0  0  0  0  0  2  0  0  0  0  0  0
  187.4570  177.8140  138.2910 C   0  0  0  0  0  2  0  0  0  0  0  0
  186.4880  178.5170  141.3510 C   0  0  0  0  0  0  0  0  0  0  0  0
  189.9680  177.9210  138.5450 C   0  0  0  0  0  2  0  0  0  0  0  0
  190.6790  175.5400  138.0230 C   0  0  0  0  0  1  0  0  0  0  0  0
  190.7860  176.7010  138.9960 C   0  0  1  0  0  3  0  0  0  0  0  0
  192.2050  177.0170  139.3490 C   0  0  0  0  0  0  0  0  0  0  0  0
  193.2350  176.7590  138.4510 O   0  0  0  0  0  0  0  0  0  0  0  0
  192.4660  177.5530  140.4570 O   0  0  0  0  0  1  0  0  0  0  0  0
  1  4  1  0  0  0  0
  1 14  1  0  0  0  0
  2  1  2  0  0  0  0
  3 14  2  0  0  0  0
  4 17  1  0  0  0  0
  5 20  1  6  0  0  0
  5 12  1  0  0  0  0
  6 13  1  0  0  0  0
  7  3  1  0  0  0  0
  9  8  1  0  0  0  0
 10 11  1  1  0  0  0
 10 19  1  0  0  0  0
 12  2  1  0  0  0  0
 13  9  2  0  0  0  0
 14 15  1  0  0  0  0
 15  8  1  0  0  0  0
 16 10  1  0  0  0  0
 17 13  1  0  0  0  0
 18 16  1  0  0  0  0
 18  5  1  0  0  0  0
 19  2  1  0  0  0  0
 19  7  2  0  0  0  0
 20 22  1  0  0  0  0
 22 21  1  6  0  0  0
 22 23  1  0  0  0  0
 23 25  1  0  0  0  0
 24 23  2  0  0  0  0
M  END
>  <MODEL>
4

>  <REMARK>
 VINA RESULT:      -8.2      3.078      4.333
  Name = 
  3 active torsions:
  status: ('A' for Active; 'I' for Inactive)
    1  A    between atoms: C_2  and  C_25
    2  A    between atoms: C_6  and  C_15
    3  A    between atoms: C_15  and  C_25
                            x       y       z     vdW  Elec       q    Type
                         _______ _______ _______ _____ _____    ______ ____

>  <TORSDO>
F 3

$$$$
=
 OpenBabel10262419573D

 25 27  0  0  1  0  0  0  0  0999 V2000
  188.4060  176.8300  144.7730 C   0  0  0  0  0  0  0  0  0  0  0  0
  187.2220  177.5740  144.9550 C   0  0  0  0  0  0  0  0  0  0  0  0
  189.3470  177.8100  146.7780 C   0  0  0  0  0  3  0  0  0  0  0  0
  188.5510  175.9650  143.5570 C   0  0  0  0  0  2  0  0  0  0  0  0
  185.1640  178.3760  143.7650 C   0  0  2  0  0  3  0  0  0  0  0  0
  190.3810  178.8690  141.9520 N   0  0  0  0  0  1  0  0  0  0  0  0
  188.1700  178.5230  146.9840 C   0  0  0  0  0  3  0  0  0  0  0  0
  191.3350  176.0170  144.1540 C   0  0  0  0  0  2  0  0  0  0  0  0
  191.2850  177.2650  143.4020 N   0  0  0  0  0  0  0  0  0  0  0  0
  185.8170  179.1850  146.3840 C   0  0  2  0  0  3  0  0  0  0  0  0
  185.8220  179.7680  147.7180 N   0  0  0  0  0  1  0  0  0  0  0  0
  186.2130  177.4380  143.9850 O   0  0  0  0  0  0  0  0  0  0  0  0
  190.2960  177.6240  142.6350 C   0  0  0  0  0  0  0  0  0  0  0  0
  189.4830  176.9660  145.6790 C   0  0  0  0  0  0  0  0  0  0  0  0
  190.7760  176.1930  145.5710 C   0  0  0  0  0  2  0  0  0  0  0  0
  184.6060  178.2760  146.2470 C   0  0  0  0  0  2  0  0  0  0  0  0
  189.0960  176.7480  142.3560 C   0  0  0  0  0  2  0  0  0  0  0  0
  184.0640  178.2780  144.8220 C   0  0  0  0  0  2  0  0  0  0  0  0
  187.0890  178.4110  146.0980 C   0  0  0  0  0  0  0  0  0  0  0  0
  184.5840  178.2560  142.3500 C   0  0  0  0  0  2  0  0  0  0  0  0
  186.7250  178.8330  141.1120 C   0  0  0  0  0  1  0  0  0  0  0  0
  185.2400  179.1190  141.2620 C   0  0  1  0  0  3  0  0  0  0  0  0
  184.5220  179.0930  139.9490 C   0  0  0  0  0  0  0  0  0  0  0  0
  184.4640  180.2290  139.1490 O   0  0  0  0  0  0  0  0  0  0  0  0
  183.9950  178.0230  139.5500 O   0  0  0  0  0  1  0  0  0  0  0  0
  1  2  2  0  0  0  0
  1 14  1  0  0  0  0
  2 19  1  0  0  0  0
  3  7  1  0  0  0  0
  4  1  1  0  0  0  0
  5 20  1  6  0  0  0
  5 12  1  0  0  0  0
  5 18  1  0  0  0  0
  6 13  1  0  0  0  0
  8 15  1  0  0  0  0
  9  8  1  0  0  0  0
 10 11  1  1  0  0  0
 12  2  1  0  0  0  0
 13  9  2  0  0  0  0
 14  3  2  0  0  0  0
 15 14  1  0  0  0  0
 16 10  1  0  0  0  0
 17 13  1  0  0  0  0
 17  4  1  0  0  0  0
 18 16  1  0  0  0  0
 19 10  1  0  0  0  0
 19  7  2  0  0  0  0
 22 21  1  6  0  0  0
 22 20  1  0  0  0  0
 23 22  1  0  0  0  0
 24 23  2  0  0  0  0
 25 23  1  0  0  0  0
M  END
>  <MODEL>
5

>  <REMARK>
 VINA RESULT:      -7.9      1.561      2.175
  Name = 
  3 active torsions:
  status: ('A' for Active; 'I' for Inactive)
    1  A    between atoms: C_2  and  C_25
    2  A    between atoms: C_6  and  C_15
    3  A    between atoms: C_15  and  C_25
                            x       y       z     vdW  Elec       q    Type
                         _______ _______ _______ _____ _____    ______ ____

>  <TORSDO>
F 3

$$$$
=
 OpenBabel10262419573D

 25 27  0  0  1  0  0  0  0  0999 V2000
  186.6430  178.5760  142.5790 C   0  0  0  0  0  0  0  0  0  0  0  0
  187.7410  177.9580  141.9460 C   0  0  0  0  0  0  0  0  0  0  0  0
  186.8120  177.0180  144.4260 C   0  0  0  0  0  3  0  0  0  0  0  0
  185.9280  179.6950  141.8810 C   0  0  0  0  0  2  0  0  0  0  0  0
  188.9070  177.7330  139.7350 C   0  0  2  0  0  3  0  0  0  0  0  0
  183.4740  177.0890  140.6390 N   0  0  0  0  0  1  0  0  0  0  0  0
  187.9170  176.4230  143.8250 C   0  0  0  0  0  3  0  0  0  0  0  0
  183.8180  179.1610  143.7180 C   0  0  0  0  0  2  0  0  0  0  0  0
  183.4560  178.1570  142.7250 N   0  0  0  0  0  0  0  0  0  0  0  0
  189.6360  176.2210  141.9990 C   0  0  2  0  0  3  0  0  0  0  0  0
  190.2880  175.3250  142.9440 N   0  0  0  0  0  1  0  0  0  0  0  0
  188.1310  178.4540  140.6890 O   0  0  0  0  0  0  0  0  0  0  0  0
  183.9180  178.1230  141.5090 C   0  0  0  0  0  0  0  0  0  0  0  0
  186.1620  178.0890  143.8160 C   0  0  0  0  0  0  0  0  0  0  0  0
  185.0080  178.7040  144.5700 C   0  0  0  0  0  2  0  0  0  0  0  0
  190.6360  177.2730  141.5460 C   0  0  0  0  0  2  0  0  0  0  0  0
  184.8360  179.1790  140.9360 C   0  0  0  0  0  2  0  0  0  0  0  0
  190.3910  177.6940  140.1020 C   0  0  0  0  0  2  0  0  0  0  0  0
  188.4110  176.8830  142.5950 C   0  0  0  0  0  0  0  0  0  0  0  0
  188.7020  178.2730  138.3150 C   0  0  0  0  0  2  0  0  0  0  0  0
  188.0860  175.9580  137.4730 C   0  0  0  0  0  1  0  0  0  0  0  0
  187.7970  177.4470  137.3880 C   0  0  1  0  0  3  0  0  0  0  0  0
  186.3390  177.7510  137.5310 C   0  0  0  0  0  0  0  0  0  0  0  0
  185.3820  176.7780  137.2700 O   0  0  0  0  0  0  0  0  0  0  0  0
  185.9780  178.8900  137.9250 O   0  0  0  0  0  1  0  0  0  0  0  0
  1 14  1  0  0  0  0
  2  1  2  0  0  0  0
  2 19  1  0  0  0  0
  4  1  1  0  0  0  0
  5 20  1  6  0  0  0
  5 18  1  0  0  0  0
  5 12  1  0  0  0  0
  6 13  1  0  0  0  0
  7  3  1  0  0  0  0
  8 15  1  0  0  0  0
  9  8  1  0  0  0  0
 10 19  1  0  0  0  0
 10 11  1  1  0  0  0
 12  2  1  0  0  0  0
 13  9  2  0  0  0  0
 14  3  2  0  0  0  0
 14 15  1  0  0  0  0
 16 10  1  0  0  0  0
 17 13  1  0  0  0  0
 17  4  1  0  0  0  0
 18 16  1  0  0  0  0
 19  7  2  0  0  0  0
 22 21  1  1  0  0  0
 22 23  1  0  0  0  0
 22 20  1  0  0  0  0
 23 25  1  0  0  0  0
 24 23  2  0  0  0  0
M  END
>  <MODEL>
6

>  <REMARK>
 VINA RESULT:      -7.8      2.258      5.192
  Name = 
  3 active torsions:
  status: ('A' for Active; 'I' for Inactive)
    1  A    between atoms: C_2  and  C_25
    2  A    between atoms: C_6  and  C_15
    3  A    between atoms: C_15  and  C_25
                            x       y       z     vdW  Elec       q    Type
                         _______ _______ _______ _____ _____    ______ ____

>  <TORSDO>
F 3

$$$$
=
 OpenBabel10262419573D

 25 27  0  0  1  0  0  0  0  0999 V2000
  188.7540  178.2570  143.1940 C   0  0  0  0  0  0  0  0  0  0  0  0
  187.6890  178.2150  144.1170 C   0  0  0  0  0  0  0  0  0  0  0  0
  187.1850  178.1320  141.3540 C   0  0  0  0  0  3  0  0  0  0  0  0
  190.1650  178.2730  143.7020 C   0  0  0  0  0  2  0  0  0  0  0  0
  187.1490  177.7750  146.5280 C   0  0  2  0  0  3  0  0  0  0  0  0
  190.1750  174.5160  143.2160 N   0  0  0  0  0  1  0  0  0  0  0  0
  186.1250  178.1230  142.2560 C   0  0  0  0  0  3  0  0  0  0  0  0
  190.8640  177.4760  141.0590 C   0  0  0  0  0  2  0  0  0  0  0  0
  190.5700  176.1470  141.5800 N   0  0  0  0  0  0  0  0  0  0  0  0
  185.1590  178.1990  144.5780 C   0  0  2  0  0  3  0  0  0  0  0  0
  183.9050  178.4040  143.8670 N   0  0  0  0  0  1  0  0  0  0  0  0
  188.0130  178.2210  145.4860 O   0  0  0  0  0  0  0  0  0  0  0  0
  190.4580  175.8590  142.8450 C   0  0  0  0  0  0  0  0  0  0  0  0
  188.5010  178.1930  141.8050 C   0  0  0  0  0  0  0  0  0  0  0  0
  189.5800  178.2550  140.7500 C   0  0  0  0  0  2  0  0  0  0  0  0
  185.3250  179.2980  145.6150 C   0  0  0  0  0  2  0  0  0  0  0  0
  190.7030  176.8590  143.9520 C   0  0  0  0  0  2  0  0  0  0  0  0
  186.0560  178.7930  146.8530 C   0  0  0  0  0  2  0  0  0  0  0  0
  186.3490  178.1790  143.6390 C   0  0  0  0  0  0  0  0  0  0  0  0
  187.9350  177.3860  147.7860 C   0  0  0  0  0  2  0  0  0  0  0  0
  189.6580  178.6280  149.1770 C   0  0  0  0  0  1  0  0  0  0  0  0
  189.3830  177.8910  147.8780 C   0  0  1  0  0  3  0  0  0  0  0  0
  190.4120  176.8440  147.5900 C   0  0  0  0  0  0  0  0  0  0  0  0
  191.7680  177.1260  147.7170 O   0  0  0  0  0  1  0  0  0  0  0  0
  190.0460  175.6850  147.2630 O   0  0  0  0  0  0  0  0  0  0  0  0
  1  4  1  0  0  0  0
  1  2  1  0  0  0  0
  2 12  1  0  0  0  0
  3 14  1  0  0  0  0
  3  7  2  0  0  0  0
  4 17  1  0  0  0  0
  5 18  1  0  0  0  0
  5 20  1  1  0  0  0
  7 19  1  0  0  0  0
  8  9  1  0  0  0  0
  9 13  2  0  0  0  0
 10 11  1  6  0  0  0
 10 16  1  0  0  0  0
 12  5  1  0  0  0  0
 13  6  1  0  0  0  0
 13 17  1  0  0  0  0
 14  1  2  0  0  0  0
 15  8  1  0  0  0  0
 15 14  1  0  0  0  0
 16 18  1  0  0  0  0
 19  2  2  0  0  0  0
 19 10  1  0  0  0  0
 20 22  1  0  0  0  0
 22 21  1  1  0  0  0
 23 24  1  0  0  0  0
 23 22  1  0  0  0  0
 25 23  2  0  0  0  0
M  END
>  <MODEL>
7

>  <REMARK>
 VINA RESULT:      -7.5      3.130      6.036
  Name = 
  3 active torsions:
  status: ('A' for Active; 'I' for Inactive)
    1  A    between atoms: C_2  and  C_25
    2  A    between atoms: C_6  and  C_15
    3  A    between atoms: C_15  and  C_25
                            x       y       z     vdW  Elec       q    Type
                         _______ _______ _______ _____ _____    ______ ____

>  <TORSDO>
F 3

$$$$
=
 OpenBabel10262419573D

 25 27  0  0  1  0  0  0  0  0999 V2000
  188.7530  178.3420  143.6700 C   0  0  0  0  0  0  0  0  0  0  0  0
  188.3110  178.1810  144.9990 C   0  0  0  0  0  0  0  0  0  0  0  0
  186.5170  177.8870  142.8570 C   0  0  0  0  0  3  0  0  0  0  0  0
  190.2070  178.6000  143.4050 C   0  0  0  0  0  2  0  0  0  0  0  0
  189.1220  177.7820  147.3400 C   0  0  2  0  0  3  0  0  0  0  0  0
  190.5640  174.8700  142.8470 N   0  0  0  0  0  1  0  0  0  0  0  0
  186.0650  177.7590  144.1660 C   0  0  0  0  0  3  0  0  0  0  0  0
  189.6100  177.7920  140.7400 C   0  0  0  0  0  2  0  0  0  0  0  0
  189.8290  176.4600  141.2920 N   0  0  0  0  0  0  0  0  0  0  0  0
  186.3870  177.7980  146.6610 C   0  0  2  0  0  3  0  0  0  0  0  0
  184.9310  177.7730  146.6800 N   0  0  0  0  0  1  0  0  0  0  0  0
  189.2680  178.3040  146.0230 O   0  0  0  0  0  0  0  0  0  0  0  0
  190.4090  176.2210  142.4320 C   0  0  0  0  0  0  0  0  0  0  0  0
  187.8550  178.1720  142.5910 C   0  0  0  0  0  0  0  0  0  0  0  0
  188.2390  178.3480  141.1420 C   0  0  0  0  0  2  0  0  0  0  0  0
  186.8720  178.9590  147.5150 C   0  0  0  0  0  2  0  0  0  0  0  0
  191.0130  177.2990  143.3030 C   0  0  0  0  0  2  0  0  0  0  0  0
  188.1920  178.6340  148.2040 C   0  0  0  0  0  2  0  0  0  0  0  0
  186.9360  177.9170  145.2540 C   0  0  0  0  0  0  0  0  0  0  0  0
  190.4800  177.5790  148.0230 C   0  0  0  0  0  2  0  0  0  0  0  0
  191.4540  176.2940  146.0610 C   0  0  0  0  0  1  0  0  0  0  0  0
  191.3030  176.3630  147.5710 C   0  0  1  0  0  3  0  0  0  0  0  0
  192.6130  176.2170  148.2800 C   0  0  0  0  0  0  0  0  0  0  0  0
  192.9960  177.1280  149.2580 O   0  0  0  0  0  1  0  0  0  0  0  0
  193.3600  175.2410  148.0110 O   0  0  0  0  0  0  0  0  0  0  0  0
  1  2  1  0  0  0  0
  2 19  2  0  0  0  0
  2 12  1  0  0  0  0
  3  7  2  0  0  0  0
  4  1  1  0  0  0  0
  5 20  1  1  0  0  0
  5 18  1  0  0  0  0
  7 19  1  0  0  0  0
  8 15  1  0  0  0  0
  8  9  1  0  0  0  0
  9 13  2  0  0  0  0
 10 11  1  6  0  0  0
 10 16  1  0  0  0  0
 12  5  1  0  0  0  0
 13  6  1  0  0  0  0
 13 17  1  0  0  0  0
 14  3  1  0  0  0  0
 14  1  2  0  0  0  0
 15 14  1  0  0  0  0
 16 18  1  0  0  0  0
 17  4  1  0  0  0  0
 19 10  1  0  0  0  0
 22 21  1  6  0  0  0
 22 20  1  0  0  0  0
 22 23  1  0  0  0  0
 23 24  1  0  0  0  0
 25 23  2  0  0  0  0
M  END
>  <MODEL>
8

>  <REMARK>
 VINA RESULT:      -7.3      3.512      6.693
  Name = 
  3 active torsions:
  status: ('A' for Active; 'I' for Inactive)
    1  A    between atoms: C_2  and  C_25
    2  A    between atoms: C_6  and  C_15
    3  A    between atoms: C_15  and  C_25
                            x       y       z     vdW  Elec       q    Type
                         _______ _______ _______ _____ _____    ______ ____

>  <TORSDO>
F 3

$$$$
=
 OpenBabel10262419573D

 25 27  0  0  1  0  0  0  0  0999 V2000
  186.0680  177.6180  143.6550 C   0  0  0  0  0  0  0  0  0  0  0  0
  187.3540  177.5800  143.0790 C   0  0  0  0  0  0  0  0  0  0  0  0
  185.3690  179.2620  142.0200 C   0  0  0  0  0  3  0  0  0  0  0  0
  185.7890  176.8060  144.8850 C   0  0  0  0  0  2  0  0  0  0  0  0
  189.7220  176.8770  143.5230 C   0  0  2  0  0  3  0  0  0  0  0  0
  186.5440  179.9360  146.8830 N   0  0  0  0  0  1  0  0  0  0  0  0
  186.6260  179.2060  141.4240 C   0  0  0  0  0  3  0  0  0  0  0  0
  183.5340  178.5170  145.2030 C   0  0  0  0  0  2  0  0  0  0  0  0
  184.5130  179.3790  145.8540 N   0  0  0  0  0  0  0  0  0  0  0  0
  188.9700  178.3170  141.2200 C   0  0  2  0  0  3  0  0  0  0  0  0
  188.9380  179.0040  139.9370 N   0  0  0  0  0  1  0  0  0  0  0  0
  188.3130  176.7450  143.6820 O   0  0  0  0  0  0  0  0  0  0  0  0
  185.6890  178.9890  146.2530 C   0  0  0  0  0  0  0  0  0  0  0  0
  185.0760  178.4810  143.1350 C   0  0  0  0  0  0  0  0  0  0  0  0
  183.6690  178.5680  143.6770 C   0  0  0  0  0  2  0  0  0  0  0  0
  189.3980  176.8750  140.9980 C   0  0  0  0  0  2  0  0  0  0  0  0
  186.1660  177.5570  146.1680 C   0  0  0  0  0  2  0  0  0  0  0  0
  190.2080  176.3440  142.1750 C   0  0  0  0  0  2  0  0  0  0  0  0
  187.6290  178.3640  141.9240 C   0  0  0  0  0  0  0  0  0  0  0  0
  190.4860  176.2270  144.6830 C   0  0  0  0  0  2  0  0  0  0  0  0
  189.5310  177.6360  146.5670 C   0  0  0  0  0  1  0  0  0  0  0  0
  190.7920  177.1220  145.8930 C   0  0  1  0  0  3  0  0  0  0  0  0
  191.7520  176.5190  146.8700 C   0  0  0  0  0  0  0  0  0  0  0  0
  191.9930  177.1280  148.0960 O   0  0  0  0  0  1  0  0  0  0  0  0
  192.3200  175.4320  146.5920 O   0  0  0  0  0  0  0  0  0  0  0  0
  1  4  1  0  0  0  0
  2  1  2  0  0  0  0
  2 12  1  0  0  0  0
  3 14  2  0  0  0  0
  4 17  1  0  0  0  0
  5 12  1  0  0  0  0
  5 20  1  1  0  0  0
  7 19  2  0  0  0  0
  7  3  1  0  0  0  0
  8  9  1  0  0  0  0
  9 13  2  0  0  0  0
 10 11  1  6  0  0  0
 10 19  1  0  0  0  0
 13  6  1  0  0  0  0
 14  1  1  0  0  0  0
 14 15  1  0  0  0  0
 15  8  1  0  0  0  0
 16 10  1  0  0  0  0
 16 18  1  0  0  0  0
 17 13  1  0  0  0  0
 18  5  1  0  0  0  0
 19  2  1  0  0  0  0
 20 22  1  0  0  0  0
 22 21  1  1  0  0  0
 22 23  1  0  0  0  0
 23 24  1  0  0  0  0
 25 23  2  0  0  0  0
M  END
>  <MODEL>
9

>  <REMARK>
 VINA RESULT:      -7.1      2.776      6.706
  Name = 
  3 active torsions:
  status: ('A' for Active; 'I' for Inactive)
    1  A    between atoms: C_2  and  C_25
    2  A    between atoms: C_6  and  C_15
    3  A    between atoms: C_15  and  C_25
                            x       y       z     vdW  Elec       q    Type
                         _______ _______ _______ _____ _____    ______ ____

>  <TORSDO>
F 3

$$$$
