=
 OpenBabel10262421483D

 30 32  0  0  1  0  0  0  0  0999 V2000
  184.8320  178.6200  144.7880 C   0  0  0  0  0  0  0  0  0  0  0  0
  184.6670  178.9860  146.0850 N   0  0  0  0  0  0  0  0  0  0  0  0
  183.5070  178.8950  143.6650 Cl  0  0  0  0  0  0  0  0  0  0  0  0
  187.0720  177.8230  145.3190 C   0  0  0  0  0  0  0  0  0  0  0  0
  185.6370  178.7960  147.0130 C   0  0  0  0  0  3  0  0  0  0  0  0
  186.0400  178.0290  144.3670 C   0  0  0  0  0  0  0  0  0  0  0  0
  186.8480  178.2140  146.6480 C   0  0  0  0  0  3  0  0  0  0  0  0
  190.9800  176.8180  143.4020 C   0  0  0  0  0  3  0  0  0  0  0  0
  191.4230  177.2620  144.5760 C   0  0  0  0  0  3  0  0  0  0  0  0
  189.7560  175.9780  143.2760 C   0  0  0  0  0  2  0  0  0  0  0  0
  189.4150  177.0740  146.0230 C   0  0  0  0  0  3  0  0  0  0  0  0
  188.5450  176.7240  143.7290 C   0  0  0  0  0  3  0  0  0  0  0  0
  190.7490  177.0580  145.8800 C   0  0  0  0  0  0  0  0  0  0  0  0
  188.3800  177.2110  144.9670 C   0  0  0  0  0  0  0  0  0  0  0  0
  192.4380  174.8560  146.8640 O   0  0  0  0  0  0  0  0  0  0  0  0
  192.3940  175.9450  147.4950 C   0  0  0  0  0  0  0  0  0  0  0  0
  191.5250  177.0070  147.0840 N   0  0  0  0  0  2  0  0  0  0  0  0
  193.1830  176.1110  148.6250 O   0  0  0  0  0  1  0  0  0  0  0  0
  186.1760  177.5640  142.9490 C   0  0  0  0  0  2  0  0  0  0  0  0
  186.1870  178.9890  141.8250 S   0  0  0  0  0  0  0  0  0  0  0  0
  187.7910  178.4910  141.1200 C   0  0  0  0  0  2  0  0  0  0  0  0
  187.8540  178.6450  139.5900 C   0  0  2  0  0  3  0  0  0  0  0  0
  186.6530  178.2810  138.9780 O   0  0  0  0  0  1  0  0  0  0  0  0
  189.7360  176.2140  137.3890 C   0  0  0  0  0  2  0  0  0  0  0  0
  188.9960  177.9820  138.9450 N   0  0  0  0  0  0  0  0  0  0  0  0
  191.1150  176.7390  139.4310 C   0  0  2  0  0  3  0  0  0  0  0  0
  189.9930  177.6420  139.9700 C   0  0  0  0  0  2  0  0  0  0  0  0
  188.5800  176.7750  138.2250 C   0  0  0  0  0  2  0  0  0  0  0  0
  192.4570  177.2460  139.9130 C   0  0  0  0  0  1  0  0  0  0  0  0
  191.1050  176.6650  137.9050 C   0  0  0  0  0  2  0  0  0  0  0  0
  1  2  1  0  0  0  0
  2  5  2  0  0  0  0
  3  1  1  0  0  0  0
  4  7  2  0  0  0  0
  6  1  2  0  0  0  0
  6  4  1  0  0  0  0
  7  5  1  0  0  0  0
  8  9  2  0  0  0  0
  9 13  1  0  0  0  0
 10  8  1  0  0  0  0
 10 12  1  0  0  0  0
 12 14  2  0  0  0  0
 13 11  2  0  0  0  0
 13 17  1  0  0  0  0
 14  4  1  0  0  0  0
 14 11  1  0  0  0  0
 15 16  2  0  0  0  0
 16 18  1  0  0  0  0
 17 16  1  0  0  0  0
 19  6  1  0  0  0  0
 20 19  1  0  0  0  0
 21 20  1  0  0  0  0
 22 23  1  6  0  0  0
 22 21  1  0  0  0  0
 24 30  1  0  0  0  0
 24 28  1  0  0  0  0
 25 22  1  0  0  0  0
 25 27  1  0  0  0  0
 26 29  1  6  0  0  0
 26 27  1  0  0  0  0
 28 25  1  0  0  0  0
 30 26  1  0  0  0  0
M  END
>  <MODEL>
1

>  <REMARK>
 VINA RESULT:      -9.4      0.000      0.000
  Name = 
  7 active torsions:
  status: ('A' for Active; 'I' for Inactive)
    1  A    between atoms: S_1  and  C_4
    2  A    between atoms: S_1  and  C_5
    3  A    between atoms: C_4  and  C_27
    4  A    between atoms: C_5  and  C_22
    5  A    between atoms: N_8  and  C_27
    6  A    between atoms: N_16  and  C_25
    7  A    between atoms: C_19  and  C_29
                            x       y       z     vdW  Elec       q    Type
                         _______ _______ _______ _____ _____    ______ ____

>  <TORSDO>
F 7

$$$$
=
 OpenBabel10262421483D

 30 32  0  0  1  0  0  0  0  0999 V2000
  184.3470  178.6610  144.7220 C   0  0  0  0  0  0  0  0  0  0  0  0
  184.1490  178.8620  146.0510 N   0  0  0  0  0  0  0  0  0  0  0  0
  183.0470  179.0710  143.6100 Cl  0  0  0  0  0  0  0  0  0  0  0  0
  186.5780  177.8100  145.2040 C   0  0  0  0  0  0  0  0  0  0  0  0
  185.0970  178.5600  146.9710 C   0  0  0  0  0  3  0  0  0  0  0  0
  185.5680  178.1300  144.2610 C   0  0  0  0  0  0  0  0  0  0  0  0
  186.3200  178.0310  146.5660 C   0  0  0  0  0  3  0  0  0  0  0  0
  190.4940  177.0070  143.2110 C   0  0  0  0  0  3  0  0  0  0  0  0
  190.9350  177.3950  144.4050 C   0  0  0  0  0  3  0  0  0  0  0  0
  189.2890  176.1460  143.0450 C   0  0  0  0  0  2  0  0  0  0  0  0
  188.9430  177.0790  145.8510 C   0  0  0  0  0  3  0  0  0  0  0  0
  188.0650  176.8360  143.5460 C   0  0  0  0  0  3  0  0  0  0  0  0
  190.2760  177.1030  145.6990 C   0  0  0  0  0  0  0  0  0  0  0  0
  187.8980  177.2490  144.8110 C   0  0  0  0  0  0  0  0  0  0  0  0
  192.2850  175.0650  146.3900 O   0  0  0  0  0  0  0  0  0  0  0  0
  192.0840  176.0380  147.1650 C   0  0  0  0  0  0  0  0  0  0  0  0
  191.0620  177.0030  146.8930 N   0  0  0  0  0  2  0  0  0  0  0  0
  192.8500  176.1620  148.3160 O   0  0  0  0  0  1  0  0  0  0  0  0
  185.7410  177.8460  142.8000 C   0  0  0  0  0  2  0  0  0  0  0  0
  185.8400  179.4030  141.8700 S   0  0  0  0  0  0  0  0  0  0  0  0
  185.8460  178.5170  140.2790 C   0  0  0  0  0  2  0  0  0  0  0  0
  184.6280  178.8480  139.3980 C   0  0  2  0  0  3  0  0  0  0  0  0
  184.5220  180.2180  139.1460 O   0  0  0  0  0  1  0  0  0  0  0  0
  181.7250  176.4470  139.7240 C   0  0  0  0  0  2  0  0  0  0  0  0
  183.3500  178.3000  139.8730 N   0  0  0  0  0  0  0  0  0  0  0  0
  180.9040  178.8060  140.0450 C   0  0  2  0  0  3  0  0  0  0  0  0
  182.3200  179.3460  139.7920 C   0  0  0  0  0  2  0  0  0  0  0  0
  182.9430  177.1300  139.0900 C   0  0  0  0  0  2  0  0  0  0  0  0
  180.1610  179.7340  140.9810 C   0  0  0  0  0  1  0  0  0  0  0  0
  180.9260  177.3930  140.6240 C   0  0  0  0  0  2  0  0  0  0  0  0
  1  2  1  0  0  0  0
  2  5  2  0  0  0  0
  3  1  1  0  0  0  0
  4  7  2  0  0  0  0
  6  1  2  0  0  0  0
  6  4  1  0  0  0  0
  7  5  1  0  0  0  0
  8  9  2  0  0  0  0
  9 13  1  0  0  0  0
 10  8  1  0  0  0  0
 10 12  1  0  0  0  0
 12 14  2  0  0  0  0
 13 11  2  0  0  0  0
 13 17  1  0  0  0  0
 14  4  1  0  0  0  0
 14 11  1  0  0  0  0
 15 16  2  0  0  0  0
 16 18  1  0  0  0  0
 17 16  1  0  0  0  0
 19  6  1  0  0  0  0
 20 19  1  0  0  0  0
 21 20  1  0  0  0  0
 22 23  1  1  0  0  0
 22 25  1  0  0  0  0
 22 21  1  0  0  0  0
 24 30  1  0  0  0  0
 26 30  1  0  0  0  0
 26 29  1  1  0  0  0
 27 25  1  0  0  0  0
 27 26  1  0  0  0  0
 28 24  1  0  0  0  0
 28 25  1  0  0  0  0
M  END
>  <MODEL>
2

>  <REMARK>
 VINA RESULT:      -9.4      2.915      4.489
  Name = 
  7 active torsions:
  status: ('A' for Active; 'I' for Inactive)
    1  A    between atoms: S_1  and  C_4
    2  A    between atoms: S_1  and  C_5
    3  A    between atoms: C_4  and  C_27
    4  A    between atoms: C_5  and  C_22
    5  A    between atoms: N_8  and  C_27
    6  A    between atoms: N_16  and  C_25
    7  A    between atoms: C_19  and  C_29
                            x       y       z     vdW  Elec       q    Type
                         _______ _______ _______ _____ _____    ______ ____

>  <TORSDO>
F 7

$$$$
=
 OpenBabel10262421483D

 30 32  0  0  1  0  0  0  0  0999 V2000
  184.3590  178.7080  144.8690 C   0  0  0  0  0  0  0  0  0  0  0  0
  184.2010  178.9050  146.2040 N   0  0  0  0  0  0  0  0  0  0  0  0
  183.0350  179.1470  143.7960 Cl  0  0  0  0  0  0  0  0  0  0  0  0
  186.5860  177.8150  145.2830 C   0  0  0  0  0  0  0  0  0  0  0  0
  185.1700  178.5810  147.0950 C   0  0  0  0  0  3  0  0  0  0  0  0
  185.5560  178.1580  144.3710 C   0  0  0  0  0  0  0  0  0  0  0  0
  186.3710  178.0330  146.6530 C   0  0  0  0  0  3  0  0  0  0  0  0
  190.4090  176.9270  143.1490 C   0  0  0  0  0  3  0  0  0  0  0  0
  190.9030  177.3440  144.3130 C   0  0  0  0  0  3  0  0  0  0  0  0
  189.1920  176.0720  143.0580 C   0  0  0  0  0  2  0  0  0  0  0  0
  188.9720  177.0830  145.8490 C   0  0  0  0  0  3  0  0  0  0  0  0
  187.9950  176.7850  143.5910 C   0  0  0  0  0  3  0  0  0  0  0  0
  190.2970  177.0920  145.6410 C   0  0  0  0  0  0  0  0  0  0  0  0
  187.8850  177.2330  144.8500 C   0  0  0  0  0  0  0  0  0  0  0  0
  192.1790  174.9580  146.3970 O   0  0  0  0  0  0  0  0  0  0  0  0
  192.0920  175.9970  147.1020 C   0  0  0  0  0  0  0  0  0  0  0  0
  191.1330  177.0180  146.8030 N   0  0  0  0  0  2  0  0  0  0  0  0
  192.9210  176.1450  148.2050 O   0  0  0  0  0  1  0  0  0  0  0  0
  185.6830  177.8800  142.9040 C   0  0  0  0  0  2  0  0  0  0  0  0
  185.7430  179.4400  141.9760 S   0  0  0  0  0  0  0  0  0  0  0  0
  186.1220  178.5660  140.4240 C   0  0  0  0  0  2  0  0  0  0  0  0
  187.6170  178.2300  140.2690 C   0  0  2  0  0  3  0  0  0  0  0  0
  188.4190  179.0210  141.0950 O   0  0  0  0  0  1  0  0  0  0  0  0
  187.5380  178.4370  136.4940 C   0  0  0  0  0  2  0  0  0  0  0  0
  188.1150  178.2390  138.8860 N   0  0  0  0  0  0  0  0  0  0  0  0
  189.3730  176.8680  137.2110 C   0  0  2  0  0  3  0  0  0  0  0  0
  188.9910  177.0750  138.6850 C   0  0  0  0  0  2  0  0  0  0  0  0
  187.0150  178.2160  137.9180 C   0  0  0  0  0  2  0  0  0  0  0  0
  190.8540  176.5740  137.1030 C   0  0  0  0  0  1  0  0  0  0  0  0
  189.0200  178.0810  136.3530 C   0  0  0  0  0  2  0  0  0  0  0  0
  1  2  1  0  0  0  0
  2  5  2  0  0  0  0
  3  1  1  0  0  0  0
  4  7  2  0  0  0  0
  6  1  2  0  0  0  0
  6  4  1  0  0  0  0
  7  5  1  0  0  0  0
  8  9  2  0  0  0  0
  9 13  1  0  0  0  0
 10  8  1  0  0  0  0
 10 12  1  0  0  0  0
 12 14  2  0  0  0  0
 13 11  2  0  0  0  0
 13 17  1  0  0  0  0
 14  4  1  0  0  0  0
 14 11  1  0  0  0  0
 15 16  2  0  0  0  0
 16 18  1  0  0  0  0
 17 16  1  0  0  0  0
 19  6  1  0  0  0  0
 20 19  1  0  0  0  0
 21 20  1  0  0  0  0
 22 21  1  0  0  0  0
 22 23  1  1  0  0  0
 24 28  1  0  0  0  0
 25 22  1  0  0  0  0
 26 29  1  1  0  0  0
 26 27  1  0  0  0  0
 27 25  1  0  0  0  0
 28 25  1  0  0  0  0
 30 24  1  0  0  0  0
 30 26  1  0  0  0  0
M  END
>  <MODEL>
3

>  <REMARK>
 VINA RESULT:      -9.4      1.113      1.467
  Name = 
  7 active torsions:
  status: ('A' for Active; 'I' for Inactive)
    1  A    between atoms: S_1  and  C_4
    2  A    between atoms: S_1  and  C_5
    3  A    between atoms: C_4  and  C_27
    4  A    between atoms: C_5  and  C_22
    5  A    between atoms: N_8  and  C_27
    6  A    between atoms: N_16  and  C_25
    7  A    between atoms: C_19  and  C_29
                            x       y       z     vdW  Elec       q    Type
                         _______ _______ _______ _____ _____    ______ ____

>  <TORSDO>
F 7

$$$$
=
 OpenBabel10262421483D

 30 32  0  0  1  0  0  0  0  0999 V2000
  184.6460  178.2400  143.0550 C   0  0  0  0  0  0  0  0  0  0  0  0
  183.6010  178.7050  143.7880 N   0  0  0  0  0  0  0  0  0  0  0  0
  184.3890  177.9150  141.3450 Cl  0  0  0  0  0  0  0  0  0  0  0  0
  186.0430  178.2930  145.0480 C   0  0  0  0  0  0  0  0  0  0  0  0
  183.7160  178.9680  145.1130 C   0  0  0  0  0  3  0  0  0  0  0  0
  185.8970  178.0220  143.6640 C   0  0  0  0  0  0  0  0  0  0  0  0
  184.9310  178.7660  145.7620 C   0  0  0  0  0  3  0  0  0  0  0  0
  189.3460  176.7050  147.6040 C   0  0  0  0  0  3  0  0  0  0  0  0
  189.9240  176.5940  146.4100 C   0  0  0  0  0  3  0  0  0  0  0  0
  188.5000  177.8740  147.9760 C   0  0  0  0  0  2  0  0  0  0  0  0
  188.5990  178.1610  145.0140 C   0  0  0  0  0  3  0  0  0  0  0  0
  187.2890  177.9570  147.1080 C   0  0  0  0  0  3  0  0  0  0  0  0
  189.7590  177.5440  145.2850 C   0  0  0  0  0  0  0  0  0  0  0  0
  187.3260  178.0970  145.7760 C   0  0  0  0  0  0  0  0  0  0  0  0
  190.6080  175.6670  143.1820 O   0  0  0  0  0  1  0  0  0  0  0  0
  191.1510  176.8000  143.2700 C   0  0  0  0  0  0  0  0  0  0  0  0
  190.8130  177.7050  144.3280 N   0  0  0  0  0  2  0  0  0  0  0  0
  192.1140  177.1690  142.3410 O   0  0  0  0  0  0  0  0  0  0  0  0
  187.0160  177.4390  142.8560 C   0  0  0  0  0  2  0  0  0  0  0  0
  187.5340  178.6130  141.5710 S   0  0  0  0  0  0  0  0  0  0  0  0
  188.6740  177.3950  140.8400 C   0  0  0  0  0  2  0  0  0  0  0  0
  189.4560  177.9460  139.6350 C   0  0  2  0  0  3  0  0  0  0  0  0
  188.7890  179.0080  139.0190 O   0  0  0  0  0  1  0  0  0  0  0  0
  191.6200  175.3580  137.9270 C   0  0  0  0  0  2  0  0  0  0  0  0
  189.8660  176.9390  138.6460 N   0  0  0  0  0  0  0  0  0  0  0  0
  190.2680  176.5940  136.1990 C   0  0  2  0  0  3  0  0  0  0  0  0
  189.6540  177.4790  137.2960 C   0  0  0  0  0  2  0  0  0  0  0  0
  191.2690  176.5530  138.8210 C   0  0  0  0  0  2  0  0  0  0  0  0
  189.2840  176.4340  135.0600 C   0  0  0  0  0  1  0  0  0  0  0  0
  190.6730  175.2210  136.7330 C   0  0  0  0  0  2  0  0  0  0  0  0
  1  6  2  0  0  0  0
  1  2  1  0  0  0  0
  2  5  2  0  0  0  0
  3  1  1  0  0  0  0
  4  7  2  0  0  0  0
  4 14  1  0  0  0  0
  5  7  1  0  0  0  0
  6  4  1  0  0  0  0
  8 10  1  0  0  0  0
  9  8  2  0  0  0  0
 11 13  2  0  0  0  0
 11 14  1  0  0  0  0
 12 10  1  0  0  0  0
 13  9  1  0  0  0  0
 14 12  2  0  0  0  0
 15 16  1  0  0  0  0
 16 17  1  0  0  0  0
 17 13  1  0  0  0  0
 18 16  2  0  0  0  0
 19  6  1  0  0  0  0
 20 19  1  0  0  0  0
 21 20  1  0  0  0  0
 22 23  1  6  0  0  0
 22 21  1  0  0  0  0
 24 28  1  0  0  0  0
 25 28  1  0  0  0  0
 25 22  1  0  0  0  0
 26 29  1  6  0  0  0
 26 30  1  0  0  0  0
 26 27  1  0  0  0  0
 27 25  1  0  0  0  0
 30 24  1  0  0  0  0
M  END
>  <MODEL>
4

>  <REMARK>
 VINA RESULT:      -9.1      2.027      3.041
  Name = 
  7 active torsions:
  status: ('A' for Active; 'I' for Inactive)
    1  A    between atoms: S_1  and  C_4
    2  A    between atoms: S_1  and  C_5
    3  A    between atoms: C_4  and  C_27
    4  A    between atoms: C_5  and  C_22
    5  A    between atoms: N_8  and  C_27
    6  A    between atoms: N_16  and  C_25
    7  A    between atoms: C_19  and  C_29
                            x       y       z     vdW  Elec       q    Type
                         _______ _______ _______ _____ _____    ______ ____

>  <TORSDO>
F 7

$$$$
=
 OpenBabel10262421483D

 30 32  0  0  1  0  0  0  0  0999 V2000
  184.5470  178.6510  145.0930 C   0  0  0  0  0  0  0  0  0  0  0  0
  184.4730  178.9360  146.4200 N   0  0  0  0  0  0  0  0  0  0  0  0
  183.1380  178.9700  144.0900 Cl  0  0  0  0  0  0  0  0  0  0  0  0
  186.8300  177.8640  145.4090 C   0  0  0  0  0  0  0  0  0  0  0  0
  185.5120  178.7070  147.2600 C   0  0  0  0  0  3  0  0  0  0  0  0
  185.7280  178.1080  144.5500 C   0  0  0  0  0  0  0  0  0  0  0  0
  186.7000  178.1690  146.7730 C   0  0  0  0  0  3  0  0  0  0  0  0
  190.6030  177.0520  143.1590 C   0  0  0  0  0  3  0  0  0  0  0  0
  191.1230  177.4220  144.3270 C   0  0  0  0  0  3  0  0  0  0  0  0
  189.3820  176.2040  143.0610 C   0  0  0  0  0  2  0  0  0  0  0  0
  189.2250  177.1050  145.8940 C   0  0  0  0  0  3  0  0  0  0  0  0
  188.1990  176.8980  143.6480 C   0  0  0  0  0  3  0  0  0  0  0  0
  190.5450  177.1200  145.6570 C   0  0  0  0  0  0  0  0  0  0  0  0
  188.1170  177.2970  144.9250 C   0  0  0  0  0  0  0  0  0  0  0  0
  192.2380  174.8370  146.4260 O   0  0  0  0  0  0  0  0  0  0  0  0
  192.2720  175.9000  147.1010 C   0  0  0  0  0  0  0  0  0  0  0  0
  191.4050  176.9990  146.7980 N   0  0  0  0  0  2  0  0  0  0  0  0
  193.1450  175.9980  148.1750 O   0  0  0  0  0  1  0  0  0  0  0  0
  185.7650  177.7330  143.1000 C   0  0  0  0  0  2  0  0  0  0  0  0
  185.8710  179.2260  142.0720 S   0  0  0  0  0  0  0  0  0  0  0  0
  184.5760  178.6120  140.9490 C   0  0  0  0  0  2  0  0  0  0  0  0
  184.8570  178.9310  139.4690 C   0  0  2  0  0  3  0  0  0  0  0  0
  184.3540  180.1810  139.0990 O   0  0  0  0  0  1  0  0  0  0  0  0
  185.0770  176.4820  136.5960 C   0  0  0  0  0  2  0  0  0  0  0  0
  184.4360  177.8920  138.5190 N   0  0  0  0  0  0  0  0  0  0  0  0
  182.7250  177.3650  136.7680 C   0  0  2  0  0  3  0  0  0  0  0  0
  183.1370  178.2680  137.9420 C   0  0  0  0  0  2  0  0  0  0  0  0
  185.4250  177.7040  137.4540 C   0  0  0  0  0  2  0  0  0  0  0  0
  181.2700  176.9730  136.9100 C   0  0  0  0  0  1  0  0  0  0  0  0
  183.5940  176.1130  136.6780 C   0  0  0  0  0  2  0  0  0  0  0  0
  1  2  1  0  0  0  0
  2  5  2  0  0  0  0
  3  1  1  0  0  0  0
  4  7  2  0  0  0  0
  6  1  2  0  0  0  0
  6  4  1  0  0  0  0
  7  5  1  0  0  0  0
  8  9  2  0  0  0  0
  9 13  1  0  0  0  0
 10  8  1  0  0  0  0
 10 12  1  0  0  0  0
 12 14  2  0  0  0  0
 13 11  2  0  0  0  0
 13 17  1  0  0  0  0
 14  4  1  0  0  0  0
 14 11  1  0  0  0  0
 15 16  2  0  0  0  0
 16 18  1  0  0  0  0
 17 16  1  0  0  0  0
 19  6  1  0  0  0  0
 20 19  1  0  0  0  0
 21 20  1  0  0  0  0
 22 23  1  6  0  0  0
 22 21  1  0  0  0  0
 24 30  1  0  0  0  0
 24 28  1  0  0  0  0
 25 22  1  0  0  0  0
 26 29  1  1  0  0  0
 26 27  1  0  0  0  0
 27 25  1  0  0  0  0
 28 25  1  0  0  0  0
 30 26  1  0  0  0  0
M  END
>  <MODEL>
5

>  <REMARK>
 VINA RESULT:      -9.1      2.697      3.689
  Name = 
  7 active torsions:
  status: ('A' for Active; 'I' for Inactive)
    1  A    between atoms: S_1  and  C_4
    2  A    between atoms: S_1  and  C_5
    3  A    between atoms: C_4  and  C_27
    4  A    between atoms: C_5  and  C_22
    5  A    between atoms: N_8  and  C_27
    6  A    between atoms: N_16  and  C_25
    7  A    between atoms: C_19  and  C_29
                            x       y       z     vdW  Elec       q    Type
                         _______ _______ _______ _____ _____    ______ ____

>  <TORSDO>
F 7

$$$$
=
 OpenBabel10262421483D

 30 32  0  0  1  0  0  0  0  0999 V2000
  190.0250  177.2500  146.1300 C   0  0  0  0  0  0  0  0  0  0  0  0
  189.8920  177.0450  147.4660 N   0  0  0  0  0  0  0  0  0  0  0  0
  191.6230  177.0880  145.4140 Cl  0  0  0  0  0  0  0  0  0  0  0  0
  187.6390  177.7170  145.9840 C   0  0  0  0  0  0  0  0  0  0  0  0
  188.6960  177.1630  148.0940 C   0  0  0  0  0  3  0  0  0  0  0  0
  188.9020  177.5920  145.3510 C   0  0  0  0  0  0  0  0  0  0  0  0
  187.5570  177.5010  147.3680 C   0  0  0  0  0  3  0  0  0  0  0  0
  183.9710  179.7530  144.4490 C   0  0  0  0  0  3  0  0  0  0  0  0
  184.7280  179.8190  143.3560 C   0  0  0  0  0  3  0  0  0  0  0  0
  183.9440  178.5520  145.3310 C   0  0  0  0  0  2  0  0  0  0  0  0
  186.4210  178.0500  143.7580 C   0  0  0  0  0  3  0  0  0  0  0  0
  185.2820  178.3080  145.9440 C   0  0  0  0  0  3  0  0  0  0  0  0
  185.6790  178.7760  142.9080 C   0  0  0  0  0  0  0  0  0  0  0  0
  186.3990  178.0700  145.2430 C   0  0  0  0  0  0  0  0  0  0  0  0
  183.8260  179.0000  140.6320 O   0  0  0  0  0  1  0  0  0  0  0  0
  185.0540  178.8160  140.4260 C   0  0  0  0  0  0  0  0  0  0  0  0
  185.9690  178.6270  141.5120 N   0  0  0  0  0  2  0  0  0  0  0  0
  185.5270  178.7680  139.1220 O   0  0  0  0  0  0  0  0  0  0  0  0
  189.0820  177.8870  143.8930 C   0  0  0  0  0  2  0  0  0  0  0  0
  189.2990  176.3410  142.9660 S   0  0  0  0  0  0  0  0  0  0  0  0
  189.3810  177.2370  141.3820 C   0  0  0  0  0  2  0  0  0  0  0  0
  190.5410  176.7710  140.4830 C   0  0  2  0  0  3  0  0  0  0  0  0
  191.7070  177.5060  140.7120 O   0  0  0  0  0  1  0  0  0  0  0  0
  191.0680  176.2160  136.7810 C   0  0  0  0  0  2  0  0  0  0  0  0
  190.2290  176.7120  139.0490 N   0  0  0  0  0  0  0  0  0  0  0  0
  189.4300  178.0980  137.1220 C   0  0  2  0  0  3  0  0  0  0  0  0
  189.5830  177.9700  138.6460 C   0  0  0  0  0  2  0  0  0  0  0  0
  191.4330  176.4840  138.2450 C   0  0  0  0  0  2  0  0  0  0  0  0
  188.0420  178.5980  136.7870 C   0  0  0  0  0  1  0  0  0  0  0  0
  189.6930  176.7740  136.4080 C   0  0  0  0  0  2  0  0  0  0  0  0
  1  2  1  0  0  0  0
  2  5  2  0  0  0  0
  3  1  1  0  0  0  0
  4  7  2  0  0  0  0
  6  4  1  0  0  0  0
  6  1  2  0  0  0  0
  7  5  1  0  0  0  0
  8 10  1  0  0  0  0
  9  8  2  0  0  0  0
 10 12  1  0  0  0  0
 11 14  1  0  0  0  0
 13  9  1  0  0  0  0
 13 11  2  0  0  0  0
 14 12  2  0  0  0  0
 14  4  1  0  0  0  0
 16 15  1  0  0  0  0
 16 17  1  0  0  0  0
 17 13  1  0  0  0  0
 18 16  2  0  0  0  0
 19  6  1  0  0  0  0
 20 19  1  0  0  0  0
 21 20  1  0  0  0  0
 22 23  1  6  0  0  0
 22 21  1  0  0  0  0
 24 28  1  0  0  0  0
 25 22  1  0  0  0  0
 26 29  1  1  0  0  0
 26 27  1  0  0  0  0
 27 25  1  0  0  0  0
 28 25  1  0  0  0  0
 30 24  1  0  0  0  0
 30 26  1  0  0  0  0
M  END
>  <MODEL>
6

>  <REMARK>
 VINA RESULT:      -9.1      3.079      5.740
  Name = 
  7 active torsions:
  status: ('A' for Active; 'I' for Inactive)
    1  A    between atoms: S_1  and  C_4
    2  A    between atoms: S_1  and  C_5
    3  A    between atoms: C_4  and  C_27
    4  A    between atoms: C_5  and  C_22
    5  A    between atoms: N_8  and  C_27
    6  A    between atoms: N_16  and  C_25
    7  A    between atoms: C_19  and  C_29
                            x       y       z     vdW  Elec       q    Type
                         _______ _______ _______ _____ _____    ______ ____

>  <TORSDO>
F 7

$$$$
=
 OpenBabel10262421483D

 30 32  0  0  1  0  0  0  0  0999 V2000
  185.6230  178.0620  144.2860 C   0  0  0  0  0  0  0  0  0  0  0  0
  184.8970  178.4370  145.3720 N   0  0  0  0  0  0  0  0  0  0  0  0
  184.8010  177.9320  142.7360 Cl  0  0  0  0  0  0  0  0  0  0  0  0
  187.6040  177.8940  145.6920 C   0  0  0  0  0  0  0  0  0  0  0  0
  185.4550  178.5480  146.6030 C   0  0  0  0  0  3  0  0  0  0  0  0
  186.9970  177.7810  144.4150 C   0  0  0  0  0  0  0  0  0  0  0  0
  186.8090  178.2790  146.7830 C   0  0  0  0  0  3  0  0  0  0  0  0
  191.5190  176.0050  146.7210 C   0  0  0  0  0  3  0  0  0  0  0  0
  191.6820  176.1370  145.4070 C   0  0  0  0  0  3  0  0  0  0  0  0
  190.8600  177.0510  147.5540 C   0  0  0  0  0  2  0  0  0  0  0  0
  190.0110  177.8760  144.8220 C   0  0  0  0  0  3  0  0  0  0  0  0
  189.4370  177.2400  147.1480 C   0  0  0  0  0  3  0  0  0  0  0  0
  191.1840  177.2690  144.5910 C   0  0  0  0  0  0  0  0  0  0  0  0
  189.0480  177.6220  145.9230 C   0  0  0  0  0  0  0  0  0  0  0  0
  190.8670  176.1660  141.8790 O   0  0  0  0  0  1  0  0  0  0  0  0
  191.6460  177.1360  142.0760 C   0  0  0  0  0  0  0  0  0  0  0  0
  191.8790  177.6450  143.3950 N   0  0  0  0  0  2  0  0  0  0  0  0
  192.3120  177.7050  141.0000 O   0  0  0  0  0  0  0  0  0  0  0  0
  187.7630  177.2980  143.2220 C   0  0  0  0  0  2  0  0  0  0  0  0
  188.1800  178.6960  142.1410 S   0  0  0  0  0  0  0  0  0  0  0  0
  187.9440  177.6830  140.6460 C   0  0  0  0  0  2  0  0  0  0  0  0
  189.0150  177.9330  139.5700 C   0  0  2  0  0  3  0  0  0  0  0  0
  188.6800  179.0040  138.7370 O   0  0  0  0  0  1  0  0  0  0  0  0
  191.1330  175.6640  137.4100 C   0  0  0  0  0  2  0  0  0  0  0  0
  189.3920  176.7510  138.7820 N   0  0  0  0  0  0  0  0  0  0  0  0
  188.7050  175.3660  136.8130 C   0  0  2  0  0  3  0  0  0  0  0  0
  188.3080  176.4390  137.8390 C   0  0  0  0  0  2  0  0  0  0  0  0
  190.6470  176.9670  138.0550 C   0  0  0  0  0  2  0  0  0  0  0  0
  187.5870  174.3550  136.6710 C   0  0  0  0  0  1  0  0  0  0  0  0
  190.0000  174.6560  137.2000 C   0  0  0  0  0  2  0  0  0  0  0  0
  1  6  2  0  0  0  0
  1  2  1  0  0  0  0
  2  5  2  0  0  0  0
  3  1  1  0  0  0  0
  4 14  1  0  0  0  0
  4  7  2  0  0  0  0
  5  7  1  0  0  0  0
  6  4  1  0  0  0  0
  8 10  1  0  0  0  0
  9  8  2  0  0  0  0
 11 14  1  0  0  0  0
 12 10  1  0  0  0  0
 13 11  2  0  0  0  0
 13  9  1  0  0  0  0
 14 12  2  0  0  0  0
 15 16  1  0  0  0  0
 16 17  1  0  0  0  0
 17 13  1  0  0  0  0
 18 16  2  0  0  0  0
 19  6  1  0  0  0  0
 20 19  1  0  0  0  0
 21 20  1  0  0  0  0
 22 23  1  6  0  0  0
 22 21  1  0  0  0  0
 24 28  1  0  0  0  0
 25 22  1  0  0  0  0
 26 29  1  1  0  0  0
 26 30  1  0  0  0  0
 26 27  1  0  0  0  0
 27 25  1  0  0  0  0
 28 25  1  0  0  0  0
 30 24  1  0  0  0  0
M  END
>  <MODEL>
7

>  <REMARK>
 VINA RESULT:      -9.0      2.167      3.113
  Name = 
  7 active torsions:
  status: ('A' for Active; 'I' for Inactive)
    1  A    between atoms: S_1  and  C_4
    2  A    between atoms: S_1  and  C_5
    3  A    between atoms: C_4  and  C_27
    4  A    between atoms: C_5  and  C_22
    5  A    between atoms: N_8  and  C_27
    6  A    between atoms: N_16  and  C_25
    7  A    between atoms: C_19  and  C_29
                            x       y       z     vdW  Elec       q    Type
                         _______ _______ _______ _____ _____    ______ ____

>  <TORSDO>
F 7

$$$$
=
 OpenBabel10262421483D

 30 32  0  0  1  0  0  0  0  0999 V2000
  190.9180  177.4410  144.5220 C   0  0  0  0  0  0  0  0  0  0  0  0
  191.4260  177.0020  145.7030 N   0  0  0  0  0  0  0  0  0  0  0  0
  192.0190  177.6670  143.1690 Cl  0  0  0  0  0  0  0  0  0  0  0  0
  188.7010  177.5190  145.5270 C   0  0  0  0  0  0  0  0  0  0  0  0
  190.6440  176.8150  146.7940 C   0  0  0  0  0  3  0  0  0  0  0  0
  189.5410  177.7110  144.4000 C   0  0  0  0  0  0  0  0  0  0  0  0
  189.2770  177.0700  146.7260 C   0  0  0  0  0  3  0  0  0  0  0  0
  184.6370  179.3390  145.8850 C   0  0  0  0  0  3  0  0  0  0  0  0
  184.7300  179.2770  144.5590 C   0  0  0  0  0  3  0  0  0  0  0  0
  185.1390  178.2530  146.7730 C   0  0  0  0  0  2  0  0  0  0  0  0
  186.5040  177.5770  144.2150 C   0  0  0  0  0  3  0  0  0  0  0  0
  186.6160  178.0890  146.6370 C   0  0  0  0  0  3  0  0  0  0  0  0
  185.3890  178.1920  143.7950 C   0  0  0  0  0  0  0  0  0  0  0  0
  187.2360  177.7740  145.4920 C   0  0  0  0  0  0  0  0  0  0  0  0
  185.7490  179.7630  141.3320 O   0  0  0  0  0  1  0  0  0  0  0  0
  185.1970  178.6320  141.2810 C   0  0  0  0  0  0  0  0  0  0  0  0
  184.9400  177.8780  142.4710 N   0  0  0  0  0  2  0  0  0  0  0  0
  184.8070  178.1190  140.0520 O   0  0  0  0  0  0  0  0  0  0  0  0
  189.0110  178.2640  143.1120 C   0  0  0  0  0  2  0  0  0  0  0  0
  189.1610  177.0260  141.7930 S   0  0  0  0  0  0  0  0  0  0  0  0
  188.5890  178.2140  140.5370 C   0  0  0  0  0  2  0  0  0  0  0  0
  189.4380  178.1920  139.2530 C   0  0  2  0  0  3  0  0  0  0  0  0
  189.0540  179.1900  138.3540 O   0  0  0  0  0  1  0  0  0  0  0  0
  190.9230  175.3250  137.2850 C   0  0  0  0  0  2  0  0  0  0  0  0
  189.5200  176.8860  138.5850 N   0  0  0  0  0  0  0  0  0  0  0  0
  188.4580  175.4900  136.7970 C   0  0  2  0  0  3  0  0  0  0  0  0
  188.3470  176.7190  137.7140 C   0  0  0  0  0  2  0  0  0  0  0  0
  190.7520  176.7580  137.8010 C   0  0  0  0  0  2  0  0  0  0  0  0
  187.1490  174.7300  136.7990 C   0  0  0  0  0  1  0  0  0  0  0  0
  189.5970  174.5640  137.2190 C   0  0  0  0  0  2  0  0  0  0  0  0
  1  2  1  0  0  0  0
  2  5  2  0  0  0  0
  3  1  1  0  0  0  0
  4  7  2  0  0  0  0
  6  1  2  0  0  0  0
  6  4  1  0  0  0  0
  7  5  1  0  0  0  0
  8 10  1  0  0  0  0
  9  8  2  0  0  0  0
 11 14  1  0  0  0  0
 12 10  1  0  0  0  0
 13 11  2  0  0  0  0
 13  9  1  0  0  0  0
 14  4  1  0  0  0  0
 14 12  2  0  0  0  0
 16 15  1  0  0  0  0
 16 17  1  0  0  0  0
 17 13  1  0  0  0  0
 18 16  2  0  0  0  0
 19  6  1  0  0  0  0
 20 19  1  0  0  0  0
 21 20  1  0  0  0  0
 22 23  1  6  0  0  0
 22 21  1  0  0  0  0
 24 28  1  0  0  0  0
 25 22  1  0  0  0  0
 26 29  1  1  0  0  0
 26 30  1  0  0  0  0
 26 27  1  0  0  0  0
 27 25  1  0  0  0  0
 28 25  1  0  0  0  0
 30 24  1  0  0  0  0
M  END
>  <MODEL>
8

>  <REMARK>
 VINA RESULT:      -9.0      3.488      5.607
  Name = 
  7 active torsions:
  status: ('A' for Active; 'I' for Inactive)
    1  A    between atoms: S_1  and  C_4
    2  A    between atoms: S_1  and  C_5
    3  A    between atoms: C_4  and  C_27
    4  A    between atoms: C_5  and  C_22
    5  A    between atoms: N_8  and  C_27
    6  A    between atoms: N_16  and  C_25
    7  A    between atoms: C_19  and  C_29
                            x       y       z     vdW  Elec       q    Type
                         _______ _______ _______ _____ _____    ______ ____

>  <TORSDO>
F 7

$$$$
=
 OpenBabel10262421483D

 30 32  0  0  1  0  0  0  0  0999 V2000
  188.8780  178.2590  139.4380 C   0  0  0  0  0  0  0  0  0  0  0  0
  188.4990  179.0030  138.3660 N   0  0  0  0  0  0  0  0  0  0  0  0
  188.2710  178.7110  141.0260 Cl  0  0  0  0  0  0  0  0  0  0  0  0
  190.2080  176.8490  137.9640 C   0  0  0  0  0  0  0  0  0  0  0  0
  188.9330  178.7260  137.1120 C   0  0  0  0  0  3  0  0  0  0  0  0
  189.7430  177.1610  139.2670 C   0  0  0  0  0  0  0  0  0  0  0  0
  189.7910  177.6520  136.8910 C   0  0  0  0  0  3  0  0  0  0  0  0
  192.6200  173.6410  136.0000 C   0  0  0  0  0  3  0  0  0  0  0  0
  193.6080  174.4150  136.4420 C   0  0  0  0  0  3  0  0  0  0  0  0
  191.3900  173.3800  136.8010 C   0  0  0  0  0  2  0  0  0  0  0  0
  192.5040  175.7480  138.2210 C   0  0  0  0  0  3  0  0  0  0  0  0
  190.6280  174.6400  137.0390 C   0  0  0  0  0  3  0  0  0  0  0  0
  193.6040  175.1660  137.7190 C   0  0  0  0  0  0  0  0  0  0  0  0
  191.1190  175.7060  137.6870 C   0  0  0  0  0  0  0  0  0  0  0  0
  195.3970  173.2780  139.0930 O   0  0  0  0  0  0  0  0  0  0  0  0
  195.7250  174.4890  138.9820 C   0  0  0  0  0  0  0  0  0  0  0  0
  194.8410  175.4450  138.3860 N   0  0  0  0  0  2  0  0  0  0  0  0
  196.9550  174.9090  139.4690 O   0  0  0  0  0  1  0  0  0  0  0  0
  190.2090  176.3990  140.4700 C   0  0  0  0  0  2  0  0  0  0  0  0
  191.4540  177.3620  141.3750 S   0  0  0  0  0  0  0  0  0  0  0  0
  190.6280  177.0400  142.9650 C   0  0  0  0  0  2  0  0  0  0  0  0
  190.7050  178.2300  143.9390 C   0  0  2  0  0  3  0  0  0  0  0  0
  192.0160  178.4900  144.3440 O   0  0  0  0  0  1  0  0  0  0  0  0
  189.4250  177.1920  147.3420 C   0  0  0  0  0  2  0  0  0  0  0  0
  189.8040  178.1450  145.0960 N   0  0  0  0  0  0  0  0  0  0  0  0
  187.4810  177.4980  145.7720 C   0  0  2  0  0  3  0  0  0  0  0  0
  188.4450  177.8380  144.6240 C   0  0  0  0  0  2  0  0  0  0  0  0
  190.2490  177.1250  146.0510 C   0  0  0  0  0  2  0  0  0  0  0  0
  186.1660  178.2200  145.5660 C   0  0  0  0  0  1  0  0  0  0  0  0
  188.0640  177.8610  147.1350 C   0  0  0  0  0  2  0  0  0  0  0  0
  1  3  1  0  0  0  0
  2  1  2  0  0  0  0
  4  6  2  0  0  0  0
  5  2  1  0  0  0  0
  6  1  1  0  0  0  0
  6 19  1  0  0  0  0
  7  5  2  0  0  0  0
  7  4  1  0  0  0  0
  8  9  2  0  0  0  0
  8 10  1  0  0  0  0
  9 13  1  0  0  0  0
 10 12  1  0  0  0  0
 12 14  2  0  0  0  0
 13 11  2  0  0  0  0
 13 17  1  0  0  0  0
 14  4  1  0  0  0  0
 14 11  1  0  0  0  0
 16 15  2  0  0  0  0
 16 18  1  0  0  0  0
 17 16  1  0  0  0  0
 19 20  1  0  0  0  0
 20 21  1  0  0  0  0
 21 22  1  0  0  0  0
 22 23  1  1  0  0  0
 22 25  1  0  0  0  0
 25 28  1  0  0  0  0
 26 29  1  6  0  0  0
 26 30  1  0  0  0  0
 27 25  1  0  0  0  0
 27 26  1  0  0  0  0
 28 24  1  0  0  0  0
 30 24  1  0  0  0  0
M  END
>  <MODEL>
9

>  <REMARK>
 VINA RESULT:      -8.8      3.523      7.916
  Name = 
  7 active torsions:
  status: ('A' for Active; 'I' for Inactive)
    1  A    between atoms: S_1  and  C_4
    2  A    between atoms: S_1  and  C_5
    3  A    between atoms: C_4  and  C_27
    4  A    between atoms: C_5  and  C_22
    5  A    between atoms: N_8  and  C_27
    6  A    between atoms: N_16  and  C_25
    7  A    between atoms: C_19  and  C_29
                            x       y       z     vdW  Elec       q    Type
                         _______ _______ _______ _____ _____    ______ ____

>  <TORSDO>
F 7

$$$$
