=
 OpenBabel10262419193D

 31 34  0  0  1  0  0  0  0  0999 V2000
  185.4800  178.3520  146.1450 C   0  0  0  0  0  0  0  0  0  0  0  0
  188.6290  177.4210  144.2890 C   0  0  0  0  0  0  0  0  0  0  0  0
  189.6080  177.1020  145.2890 C   0  0  0  0  0  0  0  0  0  0  0  0
  190.3090  176.8400  147.6210 C   0  0  0  0  0  3  0  0  0  0  0  0
  187.2900  177.8260  144.5840 C   0  0  0  0  0  0  0  0  0  0  0  0
  184.6270  178.6350  145.0810 C   0  0  0  0  0  3  0  0  0  0  0  0
  189.3370  177.1560  146.6690 C   0  0  0  0  0  3  0  0  0  0  0  0
  188.0730  177.6370  141.8910 C   0  0  0  0  0  0  0  0  0  0  0  0
  185.0370  178.4630  147.4190 F   0  0  0  0  0  0  0  0  0  0  0  0
  191.2550  176.6350  143.5550 C   0  0  0  0  0  3  0  0  0  0  0  0
  191.5850  176.4600  147.2100 C   0  0  0  0  0  0  0  0  0  0  0  0
  186.8210  178.0170  142.2360 N   0  0  0  0  0  0  0  0  0  0  0  0
  189.0120  177.3300  142.9130 C   0  0  0  0  0  0  0  0  0  0  0  0
  186.7950  177.9520  145.8960 C   0  0  0  0  0  3  0  0  0  0  0  0
  192.5770  176.1380  148.1770 N   0  0  0  0  0  1  0  0  0  0  0  0
  186.4060  178.1190  143.5180 C   0  0  0  0  0  0  0  0  0  0  0  0
  185.0900  178.5190  143.7710 C   0  0  0  0  0  3  0  0  0  0  0  0
  190.3160  176.9400  142.5820 C   0  0  0  0  0  3  0  0  0  0  0  0
  190.9150  176.7100  144.8970 C   0  0  0  0  0  0  0  0  0  0  0  0
  191.8870  176.3950  145.8510 C   0  0  0  0  0  3  0  0  0  0  0  0
  188.9090  178.5440  139.7090 C   0  0  0  0  0  3  0  0  0  0  0  0
  188.3470  177.5820  140.4350 C   0  0  0  0  0  3  0  0  0  0  0  0
  189.1280  178.3730  138.2440 C   0  0  0  0  0  2  0  0  0  0  0  0
  188.7610  176.5540  136.6540 N   0  0  0  0  0  1  0  0  0  0  0  0
  188.1200  177.4010  137.6480 C   0  0  2  0  0  3  0  0  0  0  0  0
  186.7570  178.0300  135.7890 O   0  0  0  0  0  0  0  0  0  0  0  0
  186.9840  178.1530  137.0230 C   0  0  0  0  0  0  0  0  0  0  0  0
  186.1720  179.0010  137.7820 O   0  0  0  0  0  0  0  0  0  0  0  0
  185.2890  178.5250  138.7880 C   0  0  2  0  0  3  0  0  0  0  0  0
  184.0470  177.9540  138.1370 C   0  0  0  0  0  1  0  0  0  0  0  0
  184.9250  179.5740  139.6340 O   0  0  0  0  0  1  0  0  0  0  0  0
  1  9  1  0  0  0  0
  2  5  1  0  0  0  0
  2  3  1  0  0  0  0
  3  7  1  0  0  0  0
  5 14  2  0  0  0  0
  6  1  2  0  0  0  0
  7  4  2  0  0  0  0
  8 12  2  0  0  0  0
  8 13  1  0  0  0  0
 10 19  1  0  0  0  0
 11  4  1  0  0  0  0
 11 15  1  0  0  0  0
 12 16  1  0  0  0  0
 13  2  2  0  0  0  0
 14  1  1  0  0  0  0
 16 17  2  0  0  0  0
 16  5  1  0  0  0  0
 17  6  1  0  0  0  0
 18 13  1  0  0  0  0
 18 10  2  0  0  0  0
 19  3  2  0  0  0  0
 19 20  1  0  0  0  0
 20 11  2  0  0  0  0
 21 22  2  0  0  0  0
 22  8  1  0  0  0  0
 23 21  1  0  0  0  0
 25 24  1  6  0  0  0
 25 23  1  0  0  0  0
 26 27  2  0  0  0  0
 27 25  1  0  0  0  0
 27 28  1  0  0  0  0
 28 29  1  0  0  0  0
 29 30  1  6  0  0  0
 29 31  1  0  0  0  0
M  END
>  <MODEL>
1

>  <REMARK>
 VINA RESULT:     -10.6      0.000      0.000
  Name = 
  6 active torsions:
  status: ('A' for Active; 'I' for Inactive)
    1  A    between atoms: C_1  and  O_24
    2  A    between atoms: C_3  and  C_9
    3  A    between atoms: C_3  and  C_22
    4  A    between atoms: C_15  and  C_23
    5  A    between atoms: C_19  and  C_22
    6  A    between atoms: C_19  and  O_24
                            x       y       z     vdW  Elec       q    Type
                         _______ _______ _______ _____ _____    ______ ____

>  <TORSDO>
F 6

$$$$
=
 OpenBabel10262419193D

 31 34  0  0  1  0  0  0  0  0999 V2000
  189.7340  177.7220  140.7280 C   0  0  0  0  0  0  0  0  0  0  0  0
  188.1860  177.7180  144.1670 C   0  0  0  0  0  0  0  0  0  0  0  0
  189.2320  177.3570  145.0810 C   0  0  0  0  0  0  0  0  0  0  0  0
  191.5480  176.7320  145.5770 C   0  0  0  0  0  3  0  0  0  0  0  0
  188.3650  177.8330  142.7530 C   0  0  0  0  0  0  0  0  0  0  0  0
  188.6360  178.0790  139.9500 C   0  0  0  0  0  3  0  0  0  0  0  0
  190.5490  177.0810  144.6650 C   0  0  0  0  0  3  0  0  0  0  0  0
  185.8190  178.3400  143.8280 C   0  0  0  0  0  0  0  0  0  0  0  0
  190.9340  177.4920  140.1440 F   0  0  0  0  0  0  0  0  0  0  0  0
  187.6810  177.5240  146.9520 C   0  0  0  0  0  3  0  0  0  0  0  0
  191.2500  176.6490  146.9350 C   0  0  0  0  0  0  0  0  0  0  0  0
  186.0530  178.4300  142.4980 N   0  0  0  0  0  0  0  0  0  0  0  0
  186.8830  177.9800  144.6980 C   0  0  0  0  0  0  0  0  0  0  0  0
  189.5970  177.6010  142.1130 C   0  0  0  0  0  3  0  0  0  0  0  0
  192.2650  176.2930  147.8660 N   0  0  0  0  0  1  0  0  0  0  0  0
  187.2630  178.1950  141.9430 C   0  0  0  0  0  0  0  0  0  0  0  0
  187.4030  178.3140  140.5570 C   0  0  0  0  0  3  0  0  0  0  0  0
  186.6650  177.8740  146.0780 C   0  0  0  0  0  3  0  0  0  0  0  0
  188.9550  177.2670  146.4700 C   0  0  0  0  0  0  0  0  0  0  0  0
  189.9570  176.9160  147.3810 C   0  0  0  0  0  3  0  0  0  0  0  0
  183.3630  178.6780  143.4630 C   0  0  0  0  0  3  0  0  0  0  0  0
  184.4300  178.6350  144.2550 C   0  0  0  0  0  3  0  0  0  0  0  0
  182.0120  178.9920  144.0100 C   0  0  0  0  0  2  0  0  0  0  0  0
  180.4360  180.4360  142.8260 N   0  0  0  0  0  1  0  0  0  0  0  0
  180.9770  179.0880  142.8980 C   0  0  2  0  0  3  0  0  0  0  0  0
  179.6500  177.6800  144.2980 O   0  0  0  0  0  0  0  0  0  0  0  0
  179.8720  178.1040  143.1320 C   0  0  0  0  0  0  0  0  0  0  0  0
  179.0830  177.6350  142.0780 O   0  0  0  0  0  0  0  0  0  0  0  0
  179.5880  176.7860  141.0560 C   0  0  2  0  0  3  0  0  0  0  0  0
  179.2860  177.3940  139.7030 C   0  0  0  0  0  1  0  0  0  0  0  0
  178.9860  175.5310  141.1420 O   0  0  0  0  0  1  0  0  0  0  0  0
  1 14  1  0  0  0  0
  2 13  2  0  0  0  0
  2  3  1  0  0  0  0
  3 19  1  0  0  0  0
  4 11  2  0  0  0  0
  5  2  1  0  0  0  0
  6 17  1  0  0  0  0
  6  1  2  0  0  0  0
  7  3  2  0  0  0  0
  7  4  1  0  0  0  0
  8 22  1  0  0  0  0
  8 13  1  0  0  0  0
  9  1  1  0  0  0  0
 11 20  1  0  0  0  0
 11 15  1  0  0  0  0
 12  8  2  0  0  0  0
 13 18  1  0  0  0  0
 14  5  2  0  0  0  0
 16 12  1  0  0  0  0
 16  5  1  0  0  0  0
 17 16  2  0  0  0  0
 18 10  2  0  0  0  0
 19 10  1  0  0  0  0
 19 20  2  0  0  0  0
 21 23  1  0  0  0  0
 21 22  2  0  0  0  0
 25 24  1  1  0  0  0
 25 27  1  0  0  0  0
 25 23  1  0  0  0  0
 27 26  2  0  0  0  0
 28 27  1  0  0  0  0
 29 30  1  6  0  0  0
 29 31  1  0  0  0  0
 29 28  1  0  0  0  0
M  END
>  <MODEL>
2

>  <REMARK>
 VINA RESULT:     -10.5      3.639      5.917
  Name = 
  6 active torsions:
  status: ('A' for Active; 'I' for Inactive)
    1  A    between atoms: C_1  and  O_24
    2  A    between atoms: C_3  and  C_9
    3  A    between atoms: C_3  and  C_22
    4  A    between atoms: C_15  and  C_23
    5  A    between atoms: C_19  and  C_22
    6  A    between atoms: C_19  and  O_24
                            x       y       z     vdW  Elec       q    Type
                         _______ _______ _______ _____ _____    ______ ____

>  <TORSDO>
F 6

$$$$
=
 OpenBabel10262419193D

 31 34  0  0  1  0  0  0  0  0999 V2000
  185.1500  178.3370  146.1940 C   0  0  0  0  0  0  0  0  0  0  0  0
  188.2870  177.6570  144.2150 C   0  0  0  0  0  0  0  0  0  0  0  0
  189.2980  177.2990  145.1700 C   0  0  0  0  0  0  0  0  0  0  0  0
  190.0570  176.8910  147.4630 C   0  0  0  0  0  3  0  0  0  0  0  0
  186.9420  177.9920  144.5650 C   0  0  0  0  0  0  0  0  0  0  0  0
  184.2650  178.6680  145.1710 C   0  0  0  0  0  3  0  0  0  0  0  0
  189.0550  177.2420  146.5560 C   0  0  0  0  0  3  0  0  0  0  0  0
  187.6740  178.0300  141.8520 C   0  0  0  0  0  0  0  0  0  0  0  0
  184.7300  178.3390  147.4810 F   0  0  0  0  0  0  0  0  0  0  0  0
  190.9220  177.0200  143.3760 C   0  0  0  0  0  3  0  0  0  0  0  0
  191.3360  176.5880  147.0010 C   0  0  0  0  0  0  0  0  0  0  0  0
  186.4170  178.3390  142.2470 N   0  0  0  0  0  0  0  0  0  0  0  0
  188.6430  177.6810  142.8300 C   0  0  0  0  0  0  0  0  0  0  0  0
  186.4720  178.0030  145.8910 C   0  0  0  0  0  3  0  0  0  0  0  0
  192.3580  176.2300  147.9230 N   0  0  0  0  0  1  0  0  0  0  0  0
  186.0260  178.3310  143.5410 C   0  0  0  0  0  0  0  0  0  0  0  0
  184.7030  178.6660  143.8480 C   0  0  0  0  0  3  0  0  0  0  0  0
  189.9530  177.3630  142.4470 C   0  0  0  0  0  3  0  0  0  0  0  0
  190.6090  176.9840  144.7250 C   0  0  0  0  0  0  0  0  0  0  0  0
  191.6100  176.6340  145.6360 C   0  0  0  0  0  3  0  0  0  0  0  0
  186.9900  178.0320  139.4400 C   0  0  0  0  0  3  0  0  0  0  0  0
  187.9180  178.0920  140.3910 C   0  0  0  0  0  3  0  0  0  0  0  0
  187.3610  178.0990  137.9980 C   0  0  0  0  0  2  0  0  0  0  0  0
  189.0430  179.7650  137.3900 N   0  0  0  0  0  1  0  0  0  0  0  0
  188.8450  178.3920  137.8250 C   0  0  2  0  0  3  0  0  0  0  0  0
  188.8240  177.1830  135.7650 O   0  0  0  0  0  0  0  0  0  0  0  0
  189.4460  177.4480  136.8290 C   0  0  0  0  0  0  0  0  0  0  0  0
  190.6850  176.8410  137.0600 O   0  0  0  0  0  0  0  0  0  0  0  0
  191.2560  176.7270  138.3570 C   0  0  2  0  0  3  0  0  0  0  0  0
  192.7370  176.4410  138.2300 C   0  0  0  0  0  1  0  0  0  0  0  0
  190.6430  175.6860  139.0540 O   0  0  0  0  0  1  0  0  0  0  0  0
  1  9  1  0  0  0  0
  2  5  1  0  0  0  0
  2  3  1  0  0  0  0
  3  7  1  0  0  0  0
  5 14  2  0  0  0  0
  6  1  2  0  0  0  0
  7  4  2  0  0  0  0
  8 12  2  0  0  0  0
  8 13  1  0  0  0  0
 10 19  1  0  0  0  0
 11  4  1  0  0  0  0
 11 15  1  0  0  0  0
 12 16  1  0  0  0  0
 13  2  2  0  0  0  0
 14  1  1  0  0  0  0
 16 17  2  0  0  0  0
 16  5  1  0  0  0  0
 17  6  1  0  0  0  0
 18 13  1  0  0  0  0
 18 10  2  0  0  0  0
 19  3  2  0  0  0  0
 19 20  1  0  0  0  0
 20 11  2  0  0  0  0
 21 22  2  0  0  0  0
 22  8  1  0  0  0  0
 23 21  1  0  0  0  0
 25 24  1  6  0  0  0
 25 23  1  0  0  0  0
 26 27  2  0  0  0  0
 27 28  1  0  0  0  0
 27 25  1  0  0  0  0
 28 29  1  0  0  0  0
 29 30  1  6  0  0  0
 29 31  1  0  0  0  0
M  END
>  <MODEL>
3

>  <REMARK>
 VINA RESULT:     -10.4      1.801      2.700
  Name = 
  6 active torsions:
  status: ('A' for Active; 'I' for Inactive)
    1  A    between atoms: C_1  and  O_24
    2  A    between atoms: C_3  and  C_9
    3  A    between atoms: C_3  and  C_22
    4  A    between atoms: C_15  and  C_23
    5  A    between atoms: C_19  and  C_22
    6  A    between atoms: C_19  and  O_24
                            x       y       z     vdW  Elec       q    Type
                         _______ _______ _______ _____ _____    ______ ____

>  <TORSDO>
F 6

$$$$
=
 OpenBabel10262419193D

 31 34  0  0  1  0  0  0  0  0999 V2000
  185.1190  178.2470  145.5950 C   0  0  0  0  0  0  0  0  0  0  0  0
  188.4600  177.7600  143.9130 C   0  0  0  0  0  0  0  0  0  0  0  0
  189.3830  177.3900  144.9490 C   0  0  0  0  0  0  0  0  0  0  0  0
  189.9260  176.9010  147.2860 C   0  0  0  0  0  3  0  0  0  0  0  0
  187.0750  178.0350  144.1400 C   0  0  0  0  0  0  0  0  0  0  0  0
  184.3290  178.5970  144.5040 C   0  0  0  0  0  3  0  0  0  0  0  0
  189.0070  177.2610  146.2990 C   0  0  0  0  0  3  0  0  0  0  0  0
  188.0690  178.2210  141.5180 C   0  0  0  0  0  0  0  0  0  0  0  0
  184.5750  178.1760  146.8330 F   0  0  0  0  0  0  0  0  0  0  0  0
  191.1860  177.2460  143.3160 C   0  0  0  0  0  3  0  0  0  0  0  0
  191.2550  176.6600  146.9430 C   0  0  0  0  0  0  0  0  0  0  0  0
  186.7690  178.4720  141.7980 N   0  0  0  0  0  0  0  0  0  0  0  0
  188.9500  177.8590  142.5730 C   0  0  0  0  0  0  0  0  0  0  0  0
  186.4760  177.9700  145.4120 C   0  0  0  0  0  3  0  0  0  0  0  0
  192.1940  176.2920  147.9460 N   0  0  0  0  0  1  0  0  0  0  0  0
  186.2530  178.3920  143.0450 C   0  0  0  0  0  0  0  0  0  0  0  0
  184.8950  178.6690  143.2320 C   0  0  0  0  0  3  0  0  0  0  0  0
  190.3010  177.6010  142.3100 C   0  0  0  0  0  3  0  0  0  0  0  0
  190.7420  177.1380  144.6240 C   0  0  0  0  0  0  0  0  0  0  0  0
  191.6610  176.7770  145.6150 C   0  0  0  0  0  3  0  0  0  0  0  0
  188.4680  177.3830  139.1910 C   0  0  0  0  0  3  0  0  0  0  0  0
  188.4540  178.3590  140.0930 C   0  0  0  0  0  3  0  0  0  0  0  0
  188.8820  177.6440  137.7820 C   0  0  0  0  0  2  0  0  0  0  0  0
  187.9980  175.4100  137.3320 N   0  0  0  0  0  1  0  0  0  0  0  0
  189.0680  176.3430  137.0140 C   0  0  2  0  0  3  0  0  0  0  0  0
  190.4460  174.5590  137.8070 O   0  0  0  0  0  0  0  0  0  0  0  0
  190.3960  175.7310  137.3460 C   0  0  0  0  0  0  0  0  0  0  0  0
  191.5860  176.4410  137.1660 O   0  0  0  0  0  0  0  0  0  0  0  0
  192.6980  176.3150  138.0420 C   0  0  2  0  0  3  0  0  0  0  0  0
  192.4030  177.0430  139.3370 C   0  0  0  0  0  1  0  0  0  0  0  0
  193.8330  176.8710  137.4500 O   0  0  0  0  0  1  0  0  0  0  0  0
  1  9  1  0  0  0  0
  2  5  1  0  0  0  0
  2  3  1  0  0  0  0
  3  7  1  0  0  0  0
  5 14  2  0  0  0  0
  6  1  2  0  0  0  0
  7  4  2  0  0  0  0
  8 12  2  0  0  0  0
  8 13  1  0  0  0  0
 10 19  1  0  0  0  0
 11  4  1  0  0  0  0
 11 15  1  0  0  0  0
 12 16  1  0  0  0  0
 13  2  2  0  0  0  0
 14  1  1  0  0  0  0
 16 17  2  0  0  0  0
 16  5  1  0  0  0  0
 17  6  1  0  0  0  0
 18 13  1  0  0  0  0
 18 10  2  0  0  0  0
 19  3  2  0  0  0  0
 19 20  1  0  0  0  0
 20 11  2  0  0  0  0
 21 22  2  0  0  0  0
 22  8  1  0  0  0  0
 23 21  1  0  0  0  0
 25 24  1  1  0  0  0
 25 27  1  0  0  0  0
 25 23  1  0  0  0  0
 27 26  2  0  0  0  0
 28 27  1  0  0  0  0
 28 29  1  0  0  0  0
 29 30  1  1  0  0  0
 31 29  1  0  0  0  0
M  END
>  <MODEL>
4

>  <REMARK>
 VINA RESULT:     -10.4      2.355      3.226
  Name = 
  6 active torsions:
  status: ('A' for Active; 'I' for Inactive)
    1  A    between atoms: C_1  and  O_24
    2  A    between atoms: C_3  and  C_9
    3  A    between atoms: C_3  and  C_22
    4  A    between atoms: C_15  and  C_23
    5  A    between atoms: C_19  and  C_22
    6  A    between atoms: C_19  and  O_24
                            x       y       z     vdW  Elec       q    Type
                         _______ _______ _______ _____ _____    ______ ____

>  <TORSDO>
F 6

$$$$
=
 OpenBabel10262419193D

 31 34  0  0  1  0  0  0  0  0999 V2000
  188.6840  177.3330  147.6320 C   0  0  0  0  0  0  0  0  0  0  0  0
  187.5080  177.9440  144.1010 C   0  0  0  0  0  0  0  0  0  0  0  0
  186.1080  178.2500  144.1890 C   0  0  0  0  0  0  0  0  0  0  0  0
  184.0460  178.5900  145.4660 C   0  0  0  0  0  3  0  0  0  0  0  0
  188.3320  177.6480  145.2310 C   0  0  0  0  0  0  0  0  0  0  0  0
  190.0300  177.0500  147.4120 C   0  0  0  0  0  3  0  0  0  0  0  0
  185.4090  178.2900  145.4100 C   0  0  0  0  0  3  0  0  0  0  0  0
  189.5020  177.6360  142.6760 C   0  0  0  0  0  0  0  0  0  0  0  0
  188.1850  177.3210  148.8910 F   0  0  0  0  0  0  0  0  0  0  0  0
  185.9940  178.5090  141.7690 C   0  0  0  0  0  3  0  0  0  0  0  0
  183.3460  178.8600  144.2920 C   0  0  0  0  0  0  0  0  0  0  0  0
  190.2280  177.3620  143.7850 N   0  0  0  0  0  0  0  0  0  0  0  0
  188.1190  177.9340  142.8080 C   0  0  0  0  0  0  0  0  0  0  0  0
  187.8480  177.6280  146.5530 C   0  0  0  0  0  3  0  0  0  0  0  0
  181.9580  179.1660  144.3460 N   0  0  0  0  0  1  0  0  0  0  0  0
  189.7030  177.3580  145.0300 C   0  0  0  0  0  0  0  0  0  0  0  0
  190.5370  177.0630  146.1130 C   0  0  0  0  0  3  0  0  0  0  0  0
  187.3450  178.2150  141.6750 C   0  0  0  0  0  3  0  0  0  0  0  0
  185.3720  178.5300  143.0070 C   0  0  0  0  0  0  0  0  0  0  0  0
  184.0080  178.8300  143.0660 C   0  0  0  0  0  3  0  0  0  0  0  0
  190.3890  176.5310  140.6090 C   0  0  0  0  0  3  0  0  0  0  0  0
  190.2490  177.5930  141.3960 C   0  0  0  0  0  3  0  0  0  0  0  0
  191.1720  176.6100  139.3430 C   0  0  0  0  0  2  0  0  0  0  0  0
  191.1320  174.5920  137.9650 N   0  0  0  0  0  1  0  0  0  0  0  0
  190.4720  175.8640  138.2160 C   0  0  2  0  0  3  0  0  0  0  0  0
  191.2210  176.3800  136.0070 O   0  0  0  0  0  0  0  0  0  0  0  0
  190.4690  176.6940  136.9690 C   0  0  0  0  0  0  0  0  0  0  0  0
  189.6530  177.8230  136.8520 O   0  0  0  0  0  0  0  0  0  0  0  0
  188.4650  177.9970  137.6120 C   0  0  2  0  0  3  0  0  0  0  0  0
  187.3290  178.3840  136.6880 C   0  0  0  0  0  1  0  0  0  0  0  0
  188.6510  179.0040  138.5600 O   0  0  0  0  0  1  0  0  0  0  0  0
  1  9  1  0  0  0  0
  2  3  1  0  0  0  0
  2  5  1  0  0  0  0
  3  7  2  0  0  0  0
  5 14  1  0  0  0  0
  6  1  1  0  0  0  0
  7  4  1  0  0  0  0
  8 13  1  0  0  0  0
  8 12  2  0  0  0  0
 10 19  1  0  0  0  0
 11 15  1  0  0  0  0
 11  4  2  0  0  0  0
 12 16  1  0  0  0  0
 13  2  2  0  0  0  0
 14  1  2  0  0  0  0
 16  5  2  0  0  0  0
 16 17  1  0  0  0  0
 17  6  2  0  0  0  0
 18 10  2  0  0  0  0
 18 13  1  0  0  0  0
 19 20  2  0  0  0  0
 19  3  1  0  0  0  0
 20 11  1  0  0  0  0
 21 22  2  0  0  0  0
 22  8  1  0  0  0  0
 23 21  1  0  0  0  0
 25 24  1  6  0  0  0
 25 23  1  0  0  0  0
 26 27  2  0  0  0  0
 27 25  1  0  0  0  0
 28 27  1  0  0  0  0
 28 29  1  0  0  0  0
 29 30  1  6  0  0  0
 29 31  1  0  0  0  0
M  END
>  <MODEL>
5

>  <REMARK>
 VINA RESULT:      -9.8      2.237      4.842
  Name = 
  6 active torsions:
  status: ('A' for Active; 'I' for Inactive)
    1  A    between atoms: C_1  and  O_24
    2  A    between atoms: C_3  and  C_9
    3  A    between atoms: C_3  and  C_22
    4  A    between atoms: C_15  and  C_23
    5  A    between atoms: C_19  and  C_22
    6  A    between atoms: C_19  and  O_24
                            x       y       z     vdW  Elec       q    Type
                         _______ _______ _______ _____ _____    ______ ____

>  <TORSDO>
F 6

$$$$
=
 OpenBabel10262419193D

 31 34  0  0  1  0  0  0  0  0999 V2000
  189.3110  177.2070  147.1910 C   0  0  0  0  0  0  0  0  0  0  0  0
  187.3190  178.0080  144.0900 C   0  0  0  0  0  0  0  0  0  0  0  0
  188.1960  177.7800  142.9760 C   0  0  0  0  0  0  0  0  0  0  0  0
  190.3570  177.1280  142.0250 C   0  0  0  0  0  3  0  0  0  0  0  0
  187.6970  177.8160  145.4550 C   0  0  0  0  0  0  0  0  0  0  0  0
  188.3650  177.4650  148.1800 C   0  0  0  0  0  3  0  0  0  0  0  0
  189.5250  177.3400  143.1270 C   0  0  0  0  0  3  0  0  0  0  0  0
  185.0850  178.6890  144.8950 C   0  0  0  0  0  0  0  0  0  0  0  0
  190.5530  176.7880  147.5310 F   0  0  0  0  0  0  0  0  0  0  0  0
  186.4320  178.4340  141.4290 C   0  0  0  0  0  3  0  0  0  0  0  0
  189.8750  177.3520  140.7370 C   0  0  0  0  0  0  0  0  0  0  0  0
  185.5050  178.4920  146.1670 N   0  0  0  0  0  0  0  0  0  0  0  0
  185.9860  178.4530  143.8220 C   0  0  0  0  0  0  0  0  0  0  0  0
  188.9780  177.3820  145.8450 C   0  0  0  0  0  3  0  0  0  0  0  0
  190.7200  177.1360  139.6140 N   0  0  0  0  0  1  0  0  0  0  0  0
  186.7520  178.0720  146.4760 C   0  0  0  0  0  0  0  0  0  0  0  0
  187.0890  177.8960  147.8230 C   0  0  0  0  0  3  0  0  0  0  0  0
  185.5780  178.6560  142.4970 C   0  0  0  0  0  3  0  0  0  0  0  0
  187.7290  178.0010  141.6540 C   0  0  0  0  0  0  0  0  0  0  0  0
  188.5640  177.7870  140.5530 C   0  0  0  0  0  3  0  0  0  0  0  0
  182.6970  178.4780  144.1640 C   0  0  0  0  0  3  0  0  0  0  0  0
  183.6840  179.1510  144.7480 C   0  0  0  0  0  3  0  0  0  0  0  0
  181.3240  179.0520  144.0730 C   0  0  0  0  0  2  0  0  0  0  0  0
  179.9990  180.5350  142.6540 N   0  0  0  0  0  1  0  0  0  0  0  0
  181.0040  179.4850  142.6490 C   0  0  2  0  0  3  0  0  0  0  0  0
  179.5360  177.6400  142.2630 O   0  0  0  0  0  0  0  0  0  0  0  0
  180.5170  178.3140  141.8490 C   0  0  0  0  0  0  0  0  0  0  0  0
  181.1390  177.9440  140.6530 O   0  0  0  0  0  0  0  0  0  0  0  0
  182.5510  177.8640  140.5120 C   0  0  2  0  0  3  0  0  0  0  0  0
  183.0430  179.0410  139.6970 C   0  0  0  0  0  1  0  0  0  0  0  0
  182.8950  176.6780  139.8630 O   0  0  0  0  0  1  0  0  0  0  0  0
  1  9  1  0  0  0  0
  1  6  1  0  0  0  0
  2  5  1  0  0  0  0
  3  7  2  0  0  0  0
  3  2  1  0  0  0  0
  4  7  1  0  0  0  0
  5 14  1  0  0  0  0
  5 16  2  0  0  0  0
  8 12  2  0  0  0  0
 10 19  1  0  0  0  0
 10 18  2  0  0  0  0
 11  4  2  0  0  0  0
 12 16  1  0  0  0  0
 13  2  2  0  0  0  0
 13  8  1  0  0  0  0
 14  1  2  0  0  0  0
 15 11  1  0  0  0  0
 16 17  1  0  0  0  0
 17  6  2  0  0  0  0
 18 13  1  0  0  0  0
 19  3  1  0  0  0  0
 20 11  1  0  0  0  0
 20 19  2  0  0  0  0
 21 22  2  0  0  0  0
 22  8  1  0  0  0  0
 23 21  1  0  0  0  0
 25 24  1  1  0  0  0
 25 23  1  0  0  0  0
 27 26  2  0  0  0  0
 27 25  1  0  0  0  0
 28 27  1  0  0  0  0
 29 30  1  6  0  0  0
 29 28  1  0  0  0  0
 31 29  1  0  0  0  0
M  END
>  <MODEL>
6

>  <REMARK>
 VINA RESULT:      -9.6      3.011      5.911
  Name = 
  6 active torsions:
  status: ('A' for Active; 'I' for Inactive)
    1  A    between atoms: C_1  and  O_24
    2  A    between atoms: C_3  and  C_9
    3  A    between atoms: C_3  and  C_22
    4  A    between atoms: C_15  and  C_23
    5  A    between atoms: C_19  and  C_22
    6  A    between atoms: C_19  and  O_24
                            x       y       z     vdW  Elec       q    Type
                         _______ _______ _______ _____ _____    ______ ____

>  <TORSDO>
F 6

$$$$
=
 OpenBabel10262419193D

 31 34  0  0  1  0  0  0  0  0999 V2000
  190.1920  176.8770  146.3150 C   0  0  0  0  0  0  0  0  0  0  0  0
  188.2530  177.7840  143.2100 C   0  0  0  0  0  0  0  0  0  0  0  0
  186.9200  178.0980  143.6430 C   0  0  0  0  0  0  0  0  0  0  0  0
  185.2190  178.3560  145.3850 C   0  0  0  0  0  3  0  0  0  0  0  0
  189.3060  177.3890  144.0920 C   0  0  0  0  0  0  0  0  0  0  0  0
  191.4420  176.5990  145.7670 C   0  0  0  0  0  3  0  0  0  0  0  0
  186.5230  178.0460  144.9920 C   0  0  0  0  0  3  0  0  0  0  0  0
  189.8550  177.5710  141.3420 C   0  0  0  0  0  0  0  0  0  0  0  0
  189.9960  176.7700  147.6500 F   0  0  0  0  0  0  0  0  0  0  0  0
  186.2590  178.5520  141.3420 C   0  0  0  0  0  3  0  0  0  0  0  0
  184.2750  178.7270  144.4300 C   0  0  0  0  0  0  0  0  0  0  0  0
  190.8090  177.2000  142.2280 N   0  0  0  0  0  0  0  0  0  0  0  0
  188.5490  177.8720  141.8130 C   0  0  0  0  0  0  0  0  0  0  0  0
  189.1390  177.2680  145.4840 C   0  0  0  0  0  3  0  0  0  0  0  0
  182.9470  179.0430  144.8270 N   0  0  0  0  0  1  0  0  0  0  0  0
  190.5840  177.1020  143.5570 C   0  0  0  0  0  0  0  0  0  0  0  0
  191.6370  176.7110  144.3920 C   0  0  0  0  0  3  0  0  0  0  0  0
  187.5430  178.2520  140.9150 C   0  0  0  0  0  3  0  0  0  0  0  0
  185.9400  178.4800  142.6890 C   0  0  0  0  0  0  0  0  0  0  0  0
  184.6360  178.7890  143.0850 C   0  0  0  0  0  3  0  0  0  0  0  0
  190.3920  176.5840  139.1010 C   0  0  0  0  0  3  0  0  0  0  0  0
  190.2850  177.6230  139.9240 C   0  0  0  0  0  3  0  0  0  0  0  0
  190.8420  176.7630  137.6910 C   0  0  0  0  0  2  0  0  0  0  0  0
  191.0920  174.3320  137.7150 N   0  0  0  0  0  1  0  0  0  0  0  0
  191.6690  175.5730  137.2240 C   0  0  2  0  0  3  0  0  0  0  0  0
  193.7020  176.7890  137.5320 O   0  0  0  0  0  0  0  0  0  0  0  0
  193.0830  175.7050  137.7030 C   0  0  0  0  0  0  0  0  0  0  0  0
  193.7370  174.6410  138.3310 O   0  0  0  0  0  0  0  0  0  0  0  0
  195.1430  174.4480  138.2520 C   0  0  2  0  0  3  0  0  0  0  0  0
  195.4490  172.9650  138.2660 C   0  0  0  0  0  1  0  0  0  0  0  0
  195.7670  175.0570  139.3420 O   0  0  0  0  0  1  0  0  0  0  0  0
  1  9  1  0  0  0  0
  2  3  1  0  0  0  0
  2  5  1  0  0  0  0
  3  7  2  0  0  0  0
  5 14  1  0  0  0  0
  6  1  1  0  0  0  0
  7  4  1  0  0  0  0
  8 13  1  0  0  0  0
  8 12  2  0  0  0  0
 10 19  1  0  0  0  0
 11 15  1  0  0  0  0
 11  4  2  0  0  0  0
 12 16  1  0  0  0  0
 13  2  2  0  0  0  0
 14  1  2  0  0  0  0
 16  5  2  0  0  0  0
 16 17  1  0  0  0  0
 17  6  2  0  0  0  0
 18 10  2  0  0  0  0
 18 13  1  0  0  0  0
 19 20  2  0  0  0  0
 19  3  1  0  0  0  0
 20 11  1  0  0  0  0
 21 22  2  0  0  0  0
 22  8  1  0  0  0  0
 23 21  1  0  0  0  0
 25 23  1  0  0  0  0
 25 27  1  0  0  0  0
 25 24  1  1  0  0  0
 26 27  2  0  0  0  0
 27 28  1  0  0  0  0
 29 30  1  1  0  0  0
 29 28  1  0  0  0  0
 29 31  1  0  0  0  0
M  END
>  <MODEL>
7

>  <REMARK>
 VINA RESULT:      -9.5      3.920      6.233
  Name = 
  6 active torsions:
  status: ('A' for Active; 'I' for Inactive)
    1  A    between atoms: C_1  and  O_24
    2  A    between atoms: C_3  and  C_9
    3  A    between atoms: C_3  and  C_22
    4  A    between atoms: C_15  and  C_23
    5  A    between atoms: C_19  and  C_22
    6  A    between atoms: C_19  and  O_24
                            x       y       z     vdW  Elec       q    Type
                         _______ _______ _______ _____ _____    ______ ____

>  <TORSDO>
F 6

$$$$
=
 OpenBabel10262419193D

 31 34  0  0  1  0  0  0  0  0999 V2000
  185.1090  178.2850  145.7720 C   0  0  0  0  0  0  0  0  0  0  0  0
  188.4080  177.7640  144.0200 C   0  0  0  0  0  0  0  0  0  0  0  0
  189.3530  177.3970  145.0380 C   0  0  0  0  0  0  0  0  0  0  0  0
  189.9450  176.9230  147.3670 C   0  0  0  0  0  3  0  0  0  0  0  0
  187.0310  178.0490  144.2760 C   0  0  0  0  0  0  0  0  0  0  0  0
  184.2960  178.6310  144.6950 C   0  0  0  0  0  3  0  0  0  0  0  0
  189.0050  177.2810  146.3970 C   0  0  0  0  0  3  0  0  0  0  0  0
  187.9680  178.2090  141.6310 C   0  0  0  0  0  0  0  0  0  0  0  0
  184.5920  178.2270  147.0220 F   0  0  0  0  0  0  0  0  0  0  0  0
  191.1170  177.2290  143.3670 C   0  0  0  0  0  3  0  0  0  0  0  0
  191.2640  176.6710  146.9960 C   0  0  0  0  0  0  0  0  0  0  0  0
  186.6750  178.4690  141.9380 N   0  0  0  0  0  0  0  0  0  0  0  0
  188.8690  177.8500  142.6690 C   0  0  0  0  0  0  0  0  0  0  0  0
  186.4600  177.9980  145.5610 C   0  0  0  0  0  3  0  0  0  0  0  0
  192.2230  176.3070  147.9810 N   0  0  0  0  0  1  0  0  0  0  0  0
  186.1870  178.4020  143.1960 C   0  0  0  0  0  0  0  0  0  0  0  0
  184.8350  178.6890  143.4110 C   0  0  0  0  0  3  0  0  0  0  0  0
  190.2130  177.5810  142.3770 C   0  0  0  0  0  3  0  0  0  0  0  0
  190.7030  177.1340  144.6850 C   0  0  0  0  0  0  0  0  0  0  0  0
  191.6410  176.7760  145.6580 C   0  0  0  0  0  3  0  0  0  0  0  0
  188.5350  177.3250  139.3550 C   0  0  0  0  0  3  0  0  0  0  0  0
  188.3220  178.3320  140.1960 C   0  0  0  0  0  3  0  0  0  0  0  0
  188.8920  177.5760  137.9290 C   0  0  0  0  0  2  0  0  0  0  0  0
  191.0240  176.6380  137.1900 N   0  0  0  0  0  1  0  0  0  0  0  0
  189.6000  176.3740  137.3200 C   0  0  2  0  0  3  0  0  0  0  0  0
  189.5730  176.4850  134.9340 O   0  0  0  0  0  0  0  0  0  0  0  0
  189.0150  176.0540  135.9790 C   0  0  0  0  0  0  0  0  0  0  0  0
  187.8480  175.2920  135.8600 O   0  0  0  0  0  0  0  0  0  0  0  0
  187.4120  174.3900  136.8670 C   0  0  2  0  0  3  0  0  0  0  0  0
  187.4660  172.9750  136.3320 C   0  0  0  0  0  1  0  0  0  0  0  0
  186.1010  174.6920  137.2390 O   0  0  0  0  0  1  0  0  0  0  0  0
  1  9  1  0  0  0  0
  2  5  1  0  0  0  0
  2  3  1  0  0  0  0
  3  7  1  0  0  0  0
  5 14  2  0  0  0  0
  6  1  2  0  0  0  0
  7  4  2  0  0  0  0
  8 12  2  0  0  0  0
  8 13  1  0  0  0  0
 10 19  1  0  0  0  0
 11  4  1  0  0  0  0
 11 15  1  0  0  0  0
 12 16  1  0  0  0  0
 13  2  2  0  0  0  0
 14  1  1  0  0  0  0
 16 17  2  0  0  0  0
 16  5  1  0  0  0  0
 17  6  1  0  0  0  0
 18 13  1  0  0  0  0
 18 10  2  0  0  0  0
 19  3  2  0  0  0  0
 19 20  1  0  0  0  0
 20 11  2  0  0  0  0
 21 22  2  0  0  0  0
 22  8  1  0  0  0  0
 23 21  1  0  0  0  0
 25 24  1  6  0  0  0
 25 23  1  0  0  0  0
 26 27  2  0  0  0  0
 27 25  1  0  0  0  0
 28 27  1  0  0  0  0
 28 29  1  0  0  0  0
 29 30  1  6  0  0  0
 29 31  1  0  0  0  0
M  END
>  <MODEL>
8

>  <REMARK>
 VINA RESULT:      -9.4      1.886      2.232
  Name = 
  6 active torsions:
  status: ('A' for Active; 'I' for Inactive)
    1  A    between atoms: C_1  and  O_24
    2  A    between atoms: C_3  and  C_9
    3  A    between atoms: C_3  and  C_22
    4  A    between atoms: C_15  and  C_23
    5  A    between atoms: C_19  and  C_22
    6  A    between atoms: C_19  and  O_24
                            x       y       z     vdW  Elec       q    Type
                         _______ _______ _______ _____ _____    ______ ____

>  <TORSDO>
F 6

$$$$
=
 OpenBabel10262419193D

 31 34  0  0  1  0  0  0  0  0999 V2000
  190.5210  177.4000  141.1040 C   0  0  0  0  0  0  0  0  0  0  0  0
  187.2470  178.1540  142.8170 C   0  0  0  0  0  0  0  0  0  0  0  0
  187.4610  177.9250  144.2180 C   0  0  0  0  0  0  0  0  0  0  0  0
  188.8790  177.2880  146.1110 C   0  0  0  0  0  3  0  0  0  0  0  0
  188.2530  177.9780  141.8160 C   0  0  0  0  0  0  0  0  0  0  0  0
  190.1840  177.6540  139.7770 C   0  0  0  0  0  3  0  0  0  0  0  0
  188.6980  177.5040  144.7430 C   0  0  0  0  0  3  0  0  0  0  0  0
  185.6940  178.8210  141.0150 C   0  0  0  0  0  0  0  0  0  0  0  0
  191.7740  176.9960  141.4200 F   0  0  0  0  0  0  0  0  0  0  0  0
  185.1520  178.5380  144.6920 C   0  0  0  0  0  3  0  0  0  0  0  0
  187.8180  177.4900  146.9920 C   0  0  0  0  0  0  0  0  0  0  0  0
  186.6890  178.6340  140.1160 N   0  0  0  0  0  0  0  0  0  0  0  0
  185.9500  178.5830  142.3920 C   0  0  0  0  0  0  0  0  0  0  0  0
  189.5650  177.5610  142.1090 C   0  0  0  0  0  3  0  0  0  0  0  0
  188.0000  177.2720  148.3860 N   0  0  0  0  0  1  0  0  0  0  0  0
  187.9310  178.2310  140.4610 C   0  0  0  0  0  0  0  0  0  0  0  0
  188.8920  178.0680  139.4570 C   0  0  0  0  0  3  0  0  0  0  0  0
  184.9350  178.7630  143.3410 C   0  0  0  0  0  3  0  0  0  0  0  0
  186.3970  178.1250  145.1360 C   0  0  0  0  0  0  0  0  0  0  0  0
  186.5810  177.9080  146.5050 C   0  0  0  0  0  3  0  0  0  0  0  0
  183.6040  178.5510  139.6580 C   0  0  0  0  0  3  0  0  0  0  0  0
  184.3970  179.2660  140.4510 C   0  0  0  0  0  3  0  0  0  0  0  0
  182.3210  179.1120  139.1470 C   0  0  0  0  0  2  0  0  0  0  0  0
  180.0940  178.2800  138.5770 N   0  0  0  0  0  1  0  0  0  0  0  0
  181.1360  178.2660  139.5920 C   0  0  2  0  0  3  0  0  0  0  0  0
  180.1610  179.9610  140.9640 O   0  0  0  0  0  0  0  0  0  0  0  0
  180.5920  178.7790  140.8910 C   0  0  0  0  0  0  0  0  0  0  0  0
  180.5630  177.9730  142.0330 O   0  0  0  0  0  0  0  0  0  0  0  0
  180.2370  178.4760  143.3220 C   0  0  2  0  0  3  0  0  0  0  0  0
  181.4930  178.9850  143.9960 C   0  0  0  0  0  1  0  0  0  0  0  0
  179.6760  177.4620  144.0980 O   0  0  0  0  0  1  0  0  0  0  0  0
  1  9  1  0  0  0  0
  1 14  1  0  0  0  0
  2  3  1  0  0  0  0
  3  7  2  0  0  0  0
  3 19  1  0  0  0  0
  4 11  2  0  0  0  0
  5 14  2  0  0  0  0
  5  2  1  0  0  0  0
  6  1  2  0  0  0  0
  7  4  1  0  0  0  0
  8 13  1  0  0  0  0
 10 19  1  0  0  0  0
 11 15  1  0  0  0  0
 12 16  1  0  0  0  0
 12  8  2  0  0  0  0
 13  2  2  0  0  0  0
 13 18  1  0  0  0  0
 16  5  1  0  0  0  0
 17  6  1  0  0  0  0
 17 16  2  0  0  0  0
 18 10  2  0  0  0  0
 19 20  2  0  0  0  0
 20 11  1  0  0  0  0
 21 22  2  0  0  0  0
 22  8  1  0  0  0  0
 23 25  1  0  0  0  0
 23 21  1  0  0  0  0
 25 24  1  6  0  0  0
 25 27  1  0  0  0  0
 27 26  2  0  0  0  0
 27 28  1  0  0  0  0
 28 29  1  0  0  0  0
 29 30  1  1  0  0  0
 29 31  1  0  0  0  0
M  END
>  <MODEL>
9

>  <REMARK>
 VINA RESULT:      -9.1      3.456      5.766
  Name = 
  6 active torsions:
  status: ('A' for Active; 'I' for Inactive)
    1  A    between atoms: C_1  and  O_24
    2  A    between atoms: C_3  and  C_9
    3  A    between atoms: C_3  and  C_22
    4  A    between atoms: C_15  and  C_23
    5  A    between atoms: C_19  and  C_22
    6  A    between atoms: C_19  and  O_24
                            x       y       z     vdW  Elec       q    Type
                         _______ _______ _______ _____ _____    ______ ____

>  <TORSDO>
F 6

$$$$
