=
 OpenBabel10262419143D

 34 38  0  0  1  0  0  0  0  0999 V2000
  187.2860  176.8260  136.9390 C   0  0  2  0  0  3  0  0  0  0  0  0
  189.8600  177.3990  137.1590 C   0  0  0  0  0  2  0  0  0  0  0  0
  188.2000  177.7580  139.2080 C   0  0  0  0  0  0  0  0  0  0  0  0
  188.8250  177.9560  141.5540 C   0  0  0  0  0  0  0  0  0  0  0  0
  190.4610  176.8690  140.0050 C   0  0  0  0  0  2  0  0  0  0  0  0
  188.4600  177.4020  137.7580 C   0  0  0  0  0  0  0  0  0  0  0  0
  191.5540  177.4180  140.9250 C   0  0  0  0  0  2  0  0  0  0  0  0
  189.8120  177.7870  142.6350 C   0  0  0  0  0  3  0  0  0  0  0  0
  186.9190  178.2620  139.5220 C   0  0  0  0  0  0  0  0  0  0  0  0
  185.9100  177.1430  137.5520 C   0  0  0  0  0  2  0  0  0  0  0  0
  188.9950  178.6300  137.0380 C   0  0  0  0  0  2  0  0  0  0  0  0
  187.5680  178.4770  141.8470 C   0  0  0  0  0  3  0  0  0  0  0  0
  186.5980  178.6290  140.8490 C   0  0  0  0  0  0  0  0  0  0  0  0
  191.0830  177.4850  142.3530 C   0  0  0  0  0  0  0  0  0  0  0  0
  189.1490  177.5750  140.2380 C   0  0  0  0  0  0  0  0  0  0  0  0
  185.9240  178.4140  138.4040 C   0  0  0  0  0  2  0  0  0  0  0  0
  184.0950  178.4630  143.1440 N   0  0  0  0  0  0  0  0  0  0  0  0
  182.8630  178.4440  142.3550 C   0  0  0  0  0  2  0  0  0  0  0  0
  185.3010  179.1450  141.2000 N   0  0  0  0  0  0  0  0  0  0  0  0
  183.1600  178.0180  140.9170 C   0  0  0  0  0  2  0  0  0  0  0  0
  184.9870  179.4800  142.5880 C   0  0  0  0  0  2  0  0  0  0  0  0
  184.1610  178.9900  140.3010 C   0  0  0  0  0  2  0  0  0  0  0  0
  183.7340  178.9090  144.4770 C   0  0  0  0  0  1  0  0  0  0  0  0
  187.4060  175.3210  136.6780 C   0  0  1  0  0  3  0  0  0  0  0  0
  186.2960  174.6460  137.1860 O   0  0  0  0  0  1  0  0  0  0  0  0
  187.5780  174.9970  135.2020 C   0  0  0  0  0  1  0  0  0  0  0  0
  192.0510  177.2460  143.4620 C   0  0  0  0  0  2  0  0  0  0  0  0
  191.7490  177.1660  145.8580 N   0  0  0  0  0  0  0  0  0  0  0  0
  191.3400  176.7950  144.6960 C   0  0  0  0  0  3  0  0  0  0  0  0
  191.3710  175.2800  147.3500 C   0  0  0  0  0  1  0  0  0  0  0  0
  191.0980  176.7510  147.0850 C   0  0  1  0  0  0  0  0  0  0  0  0
  191.6210  177.4900  148.1480 O   0  0  0  0  0  1  0  0  0  0  0  0
  189.1030  177.9840  148.0350 C   0  0  0  0  0  1  0  0  0  0  0  0
  189.5850  176.9680  147.0110 C   0  0  0  0  0  2  0  0  0  0  0  0
  1 24  1  1  0  0  0
  1 10  1  0  0  0  0
  1  6  1  0  0  0  0
  2  6  1  0  0  0  0
  3  9  2  0  0  0  0
  3 15  1  0  0  0  0
  4 12  1  0  0  0  0
  4  8  1  0  0  0  0
  5 15  1  0  0  0  0
  5  7  1  0  0  0  0
  6  3  1  0  0  0  0
  7 14  1  0  0  0  0
  9 13  1  0  0  0  0
 10 16  1  0  0  0  0
 11  2  1  0  0  0  0
 11  6  1  0  0  0  0
 13 19  1  0  0  0  0
 13 12  2  0  0  0  0
 14  8  2  0  0  0  0
 14 27  1  0  0  0  0
 15  4  2  0  0  0  0
 16  9  1  0  0  0  0
 17 23  1  0  0  0  0
 18 17  1  0  0  0  0
 19 21  1  0  0  0  0
 20 18  1  0  0  0  0
 21 17  1  0  0  0  0
 22 20  1  0  0  0  0
 22 19  1  0  0  0  0
 24 26  1  6  0  0  0
 24 25  1  0  0  0  0
 27 29  1  0  0  0  0
 28 31  1  0  0  0  0
 29 28  2  0  0  0  0
 31 30  1  1  0  0  0
 31 32  1  0  0  0  0
 34 31  1  0  0  0  0
 34 33  1  0  0  0  0
M  END
>  <MODEL>
1

>  <REMARK>
 VINA RESULT:      -8.8      0.000      0.000
  Name = 
  6 active torsions:
  status: ('A' for Active; 'I' for Inactive)
    1  A    between atoms: C_1  and  C_6
    2  A    between atoms: C_3  and  C_29
    3  A    between atoms: C_3  and  C_33
    4  A    between atoms: N_12  and  C_28
    5  A    between atoms: N_13  and  C_20
    6  A    between atoms: C_20  and  C_22
                            x       y       z     vdW  Elec       q    Type
                         _______ _______ _______ _____ _____    ______ ____

>  <TORSDO>
F 6

$$$$
=
 OpenBabel10262419143D

 34 38  0  0  1  0  0  0  0  0999 V2000
  181.9860  179.4870  139.2090 C   0  0  2  0  0  3  0  0  0  0  0  0
  181.0470  178.2800  141.3670 C   0  0  0  0  0  2  0  0  0  0  0  0
  183.6560  178.7100  141.0690 C   0  0  0  0  0  0  0  0  0  0  0  0
  185.3290  178.7220  142.8390 C   0  0  0  0  0  0  0  0  0  0  0  0
  182.9400  179.0670  143.4980 C   0  0  0  0  0  2  0  0  0  0  0  0
  182.2350  178.7500  140.5410 C   0  0  0  0  0  0  0  0  0  0  0  0
  183.3060  178.3930  144.8220 C   0  0  0  0  0  2  0  0  0  0  0  0
  185.6800  178.7840  144.2690 C   0  0  0  0  0  3  0  0  0  0  0  0
  184.6910  178.6280  140.1120 C   0  0  0  0  0  0  0  0  0  0  0  0
  183.2620  179.6550  138.3640 C   0  0  0  0  0  2  0  0  0  0  0  0
  181.7190  177.3260  140.4100 C   0  0  0  0  0  2  0  0  0  0  0  0
  186.3390  178.6130  141.8880 C   0  0  0  0  0  3  0  0  0  0  0  0
  186.0430  178.5750  140.5200 C   0  0  0  0  0  0  0  0  0  0  0  0
  184.7330  178.6820  145.2060 C   0  0  0  0  0  0  0  0  0  0  0  0
  183.9800  178.7890  142.4420 C   0  0  0  0  0  0  0  0  0  0  0  0
  184.3080  178.5780  138.6570 C   0  0  0  0  0  2  0  0  0  0  0  0
  187.3750  176.6870  138.0260 N   0  0  0  0  0  0  0  0  0  0  0  0
  188.8160  176.6950  138.2780 C   0  0  0  0  0  2  0  0  0  0  0  0
  187.1190  178.4910  139.5690 N   0  0  0  0  0  0  0  0  0  0  0  0
  189.0990  177.0800  139.7300 C   0  0  0  0  0  2  0  0  0  0  0  0
  186.8660  178.0470  138.1990 C   0  0  0  0  0  2  0  0  0  0  0  0
  188.5110  178.4600  140.0080 C   0  0  0  0  0  2  0  0  0  0  0  0
  187.1950  176.3490  136.6260 C   0  0  0  0  0  1  0  0  0  0  0  0
  181.2940  180.8430  139.3820 C   0  0  1  0  0  3  0  0  0  0  0  0
  181.9580  181.8290  138.6520 O   0  0  0  0  0  1  0  0  0  0  0  0
  179.8260  180.8040  138.9850 C   0  0  0  0  0  1  0  0  0  0  0  0
  185.0960  178.8200  146.6460 C   0  0  0  0  0  2  0  0  0  0  0  0
  187.1420  177.6230  147.1150 N   0  0  0  0  0  0  0  0  0  0  0  0
  186.5770  178.7420  146.8260 C   0  0  0  0  0  3  0  0  0  0  0  0
  189.0240  178.3620  148.4700 C   0  0  0  0  0  1  0  0  0  0  0  0
  188.5730  177.4960  147.3060 C   0  0  1  0  0  0  0  0  0  0  0  0
  188.8740  176.1670  147.6090 O   0  0  0  0  0  1  0  0  0  0  0  0
  188.9380  177.0980  144.8340 C   0  0  0  0  0  1  0  0  0  0  0  0
  189.3400  177.9170  146.0510 C   0  0  0  0  0  2  0  0  0  0  0  0
  1 24  1  1  0  0  0
  1  6  1  0  0  0  0
  3 15  1  0  0  0  0
  4  8  1  0  0  0  0
  5  7  1  0  0  0  0
  6  3  1  0  0  0  0
  6  2  1  0  0  0  0
  7 14  1  0  0  0  0
  8 14  2  0  0  0  0
  9 13  1  0  0  0  0
  9  3  2  0  0  0  0
 10 16  1  0  0  0  0
 10  1  1  0  0  0  0
 11  6  1  0  0  0  0
 11  2  1  0  0  0  0
 12  4  1  0  0  0  0
 13 12  2  0  0  0  0
 14 27  1  0  0  0  0
 15  4  2  0  0  0  0
 15  5  1  0  0  0  0
 16  9  1  0  0  0  0
 17 21  1  0  0  0  0
 17 18  1  0  0  0  0
 18 20  1  0  0  0  0
 19 22  1  0  0  0  0
 19 13  1  0  0  0  0
 20 22  1  0  0  0  0
 21 19  1  0  0  0  0
 23 17  1  0  0  0  0
 24 26  1  6  0  0  0
 25 24  1  0  0  0  0
 27 29  1  0  0  0  0
 28 31  1  0  0  0  0
 29 28  2  0  0  0  0
 31 32  1  0  0  0  0
 31 30  1  1  0  0  0
 33 34  1  0  0  0  0
 34 31  1  0  0  0  0
M  END
>  <MODEL>
2

>  <REMARK>
 VINA RESULT:      -8.7      2.598      6.078
  Name = 
  6 active torsions:
  status: ('A' for Active; 'I' for Inactive)
    1  A    between atoms: C_1  and  C_6
    2  A    between atoms: C_3  and  C_29
    3  A    between atoms: C_3  and  C_33
    4  A    between atoms: N_12  and  C_28
    5  A    between atoms: N_13  and  C_20
    6  A    between atoms: C_20  and  C_22
                            x       y       z     vdW  Elec       q    Type
                         _______ _______ _______ _____ _____    ______ ____

>  <TORSDO>
F 6

$$$$
=
 OpenBabel10262419143D

 34 38  0  0  1  0  0  0  0  0999 V2000
  191.6470  176.7730  144.1410 C   0  0  2  0  0  3  0  0  0  0  0  0
  190.2090  178.2870  145.7680 C   0  0  0  0  0  2  0  0  0  0  0  0
  189.3960  177.7980  143.2810 C   0  0  0  0  0  0  0  0  0  0  0  0
  187.1250  178.0290  142.4330 C   0  0  0  0  0  0  0  0  0  0  0  0
  187.4230  177.8000  144.9060 C   0  0  0  0  0  2  0  0  0  0  0  0
  190.4320  177.6930  144.3840 C   0  0  0  0  0  0  0  0  0  0  0  0
  186.1610  178.6550  145.0420 C   0  0  0  0  0  2  0  0  0  0  0  0
  185.6780  178.1710  142.6700 C   0  0  0  0  0  3  0  0  0  0  0  0
  189.8700  177.7330  141.9520 C   0  0  0  0  0  0  0  0  0  0  0  0
  191.8910  176.4760  142.6500 C   0  0  0  0  0  2  0  0  0  0  0  0
  190.9390  179.0870  144.7170 C   0  0  0  0  0  2  0  0  0  0  0  0
  187.6070  177.9920  141.1270 C   0  0  0  0  0  3  0  0  0  0  0  0
  188.9730  177.8350  140.8650 C   0  0  0  0  0  0  0  0  0  0  0  0
  185.2120  178.4140  143.8980 C   0  0  0  0  0  0  0  0  0  0  0  0
  188.0100  177.9150  143.5210 C   0  0  0  0  0  0  0  0  0  0  0  0
  191.3510  177.5760  141.7350 C   0  0  0  0  0  2  0  0  0  0  0  0
  187.9740  178.0170  137.6200 N   0  0  0  0  0  0  0  0  0  0  0  0
  188.6890  176.9330  136.9460 C   0  0  0  0  0  2  0  0  0  0  0  0
  189.4250  177.7720  139.5000 N   0  0  0  0  0  0  0  0  0  0  0  0
  189.1680  175.8980  137.9650 C   0  0  0  0  0  2  0  0  0  0  0  0
  188.9100  178.7100  138.5040 C   0  0  0  0  0  2  0  0  0  0  0  0
  190.0820  176.5770  138.9790 C   0  0  0  0  0  2  0  0  0  0  0  0
  187.5880  178.9670  136.5940 C   0  0  0  0  0  1  0  0  0  0  0  0
  191.5860  175.4620  144.9310 C   0  0  1  0  0  3  0  0  0  0  0  0
  192.3530  174.4780  144.3070 O   0  0  0  0  0  1  0  0  0  0  0  0
  192.0340  175.6300  146.3750 C   0  0  0  0  0  1  0  0  0  0  0  0
  183.7410  178.4820  144.1330 C   0  0  0  0  0  2  0  0  0  0  0  0
  181.7560  178.9520  142.8370 N   0  0  0  0  0  0  0  0  0  0  0  0
  183.0080  178.6550  142.8430 C   0  0  0  0  0  3  0  0  0  0  0  0
  179.9020  178.0750  141.5250 C   0  0  0  0  0  1  0  0  0  0  0  0
  180.9980  179.1240  141.6130 C   0  0  1  0  0  0  0  0  0  0  0  0
  180.3980  180.3830  141.6250 O   0  0  0  0  0  1  0  0  0  0  0  0
  181.5700  177.7690  139.5530 C   0  0  0  0  0  1  0  0  0  0  0  0
  181.9000  179.0020  140.3820 C   0  0  0  0  0  2  0  0  0  0  0  0
  1  6  1  0  0  0  0
  1 24  1  1  0  0  0
  3 15  1  0  0  0  0
  3  6  1  0  0  0  0
  4  8  1  0  0  0  0
  4 15  2  0  0  0  0
  5  7  1  0  0  0  0
  6 11  1  0  0  0  0
  6  2  1  0  0  0  0
  8 14  2  0  0  0  0
  9  3  2  0  0  0  0
 10  1  1  0  0  0  0
 11  2  1  0  0  0  0
 12  4  1  0  0  0  0
 13 12  2  0  0  0  0
 13  9  1  0  0  0  0
 14 27  1  0  0  0  0
 14  7  1  0  0  0  0
 15  5  1  0  0  0  0
 16  9  1  0  0  0  0
 16 10  1  0  0  0  0
 17 21  1  0  0  0  0
 18 17  1  0  0  0  0
 18 20  1  0  0  0  0
 19 13  1  0  0  0  0
 20 22  1  0  0  0  0
 21 19  1  0  0  0  0
 22 19  1  0  0  0  0
 23 17  1  0  0  0  0
 24 26  1  1  0  0  0
 25 24  1  0  0  0  0
 28 29  2  0  0  0  0
 29 27  1  0  0  0  0
 31 30  1  6  0  0  0
 31 32  1  0  0  0  0
 31 28  1  0  0  0  0
 33 34  1  0  0  0  0
 34 31  1  0  0  0  0
M  END
>  <MODEL>
3

>  <REMARK>
 VINA RESULT:      -8.7      2.706      8.023
  Name = 
  6 active torsions:
  status: ('A' for Active; 'I' for Inactive)
    1  A    between atoms: C_1  and  C_6
    2  A    between atoms: C_3  and  C_29
    3  A    between atoms: C_3  and  C_33
    4  A    between atoms: N_12  and  C_28
    5  A    between atoms: N_13  and  C_20
    6  A    between atoms: C_20  and  C_22
                            x       y       z     vdW  Elec       q    Type
                         _______ _______ _______ _____ _____    ______ ____

>  <TORSDO>
F 6

$$$$
=
 OpenBabel10262419143D

 34 38  0  0  1  0  0  0  0  0999 V2000
  179.6840  179.4480  140.0300 C   0  0  2  0  0  3  0  0  0  0  0  0
  179.6170  178.4270  142.4710 C   0  0  0  0  0  2  0  0  0  0  0  0
  181.9080  178.6090  141.1280 C   0  0  0  0  0  0  0  0  0  0  0  0
  184.1480  178.5500  142.0810 C   0  0  0  0  0  0  0  0  0  0  0  0
  182.2530  179.1370  143.6060 C   0  0  0  0  0  2  0  0  0  0  0  0
  180.4000  178.7520  141.2060 C   0  0  0  0  0  0  0  0  0  0  0  0
  183.0770  178.4930  144.7230 C   0  0  0  0  0  2  0  0  0  0  0  0
  185.0480  178.6440  143.2440 C   0  0  0  0  0  3  0  0  0  0  0  0
  182.4620  178.3920  139.8480 C   0  0  0  0  0  0  0  0  0  0  0  0
  180.5200  179.4630  138.7380 C   0  0  0  0  0  2  0  0  0  0  0  0
  179.7850  177.3750  141.4020 C   0  0  0  0  0  2  0  0  0  0  0  0
  184.6820  178.3090  140.8180 C   0  0  0  0  0  3  0  0  0  0  0  0
  183.8580  178.2360  139.6880 C   0  0  0  0  0  0  0  0  0  0  0  0
  184.5530  178.6700  144.4850 C   0  0  0  0  0  0  0  0  0  0  0  0
  182.7610  178.7200  142.2480 C   0  0  0  0  0  0  0  0  0  0  0  0
  181.5250  178.3110  138.6730 C   0  0  0  0  0  2  0  0  0  0  0  0
  185.0560  175.8530  137.5800 N   0  0  0  0  0  0  0  0  0  0  0  0
  186.2900  176.4190  137.0360 C   0  0  0  0  0  2  0  0  0  0  0  0
  184.4530  178.0140  138.3970 N   0  0  0  0  0  0  0  0  0  0  0  0
  186.7990  177.5460  137.9350 C   0  0  0  0  0  2  0  0  0  0  0  0
  184.0250  176.8900  137.5660 C   0  0  0  0  0  2  0  0  0  0  0  0
  185.7290  178.6270  138.0400 C   0  0  0  0  0  2  0  0  0  0  0  0
  184.6240  174.8220  136.6540 C   0  0  0  0  0  1  0  0  0  0  0  0
  179.2090  180.8660  140.3600 C   0  0  1  0  0  3  0  0  0  0  0  0
  179.6800  181.2630  141.6110 O   0  0  0  0  0  1  0  0  0  0  0  0
  179.6240  181.8810  139.3050 C   0  0  0  0  0  1  0  0  0  0  0  0
  185.4730  178.8400  145.6470 C   0  0  0  0  0  2  0  0  0  0  0  0
  187.7370  178.2950  144.9990 N   0  0  0  0  0  0  0  0  0  0  0  0
  186.6360  177.9070  145.5400 C   0  0  0  0  0  3  0  0  0  0  0  0
  190.1330  178.2520  144.5700 C   0  0  0  0  0  1  0  0  0  0  0  0
  188.8900  177.4280  144.8640 C   0  0  1  0  0  0  0  0  0  0  0  0
  189.0910  176.7510  146.0680 O   0  0  0  0  0  1  0  0  0  0  0  0
  188.4140  177.0880  142.4030 C   0  0  0  0  0  1  0  0  0  0  0  0
  188.6920  176.4120  143.7370 C   0  0  0  0  0  2  0  0  0  0  0  0
  1 24  1  1  0  0  0
  1  6  1  0  0  0  0
  3  6  1  0  0  0  0
  3 15  1  0  0  0  0
  4 15  2  0  0  0  0
  4  8  1  0  0  0  0
  5  7  1  0  0  0  0
  6 11  1  0  0  0  0
  6  2  1  0  0  0  0
  8 14  2  0  0  0  0
  9  3  2  0  0  0  0
 10  1  1  0  0  0  0
 11  2  1  0  0  0  0
 12  4  1  0  0  0  0
 13  9  1  0  0  0  0
 13 12  2  0  0  0  0
 14  7  1  0  0  0  0
 14 27  1  0  0  0  0
 15  5  1  0  0  0  0
 16 10  1  0  0  0  0
 16  9  1  0  0  0  0
 18 17  1  0  0  0  0
 18 20  1  0  0  0  0
 19 13  1  0  0  0  0
 20 22  1  0  0  0  0
 21 17  1  0  0  0  0
 21 19  1  0  0  0  0
 22 19  1  0  0  0  0
 23 17  1  0  0  0  0
 24 26  1  6  0  0  0
 24 25  1  0  0  0  0
 28 29  2  0  0  0  0
 29 27  1  0  0  0  0
 31 30  1  6  0  0  0
 31 28  1  0  0  0  0
 31 32  1  0  0  0  0
 33 34  1  0  0  0  0
 34 31  1  0  0  0  0
M  END
>  <MODEL>
4

>  <REMARK>
 VINA RESULT:      -8.3      3.182      6.864
  Name = 
  6 active torsions:
  status: ('A' for Active; 'I' for Inactive)
    1  A    between atoms: C_1  and  C_6
    2  A    between atoms: C_3  and  C_29
    3  A    between atoms: C_3  and  C_33
    4  A    between atoms: N_12  and  C_28
    5  A    between atoms: N_13  and  C_20
    6  A    between atoms: C_20  and  C_22
                            x       y       z     vdW  Elec       q    Type
                         _______ _______ _______ _____ _____    ______ ____

>  <TORSDO>
F 6

$$$$
=
 OpenBabel10262419143D

 34 38  0  0  1  0  0  0  0  0999 V2000
  181.6220  177.7030  136.7520 C   0  0  2  0  0  3  0  0  0  0  0  0
  180.8820  177.0050  139.1950 C   0  0  0  0  0  2  0  0  0  0  0  0
  183.3800  177.7700  138.6900 C   0  0  0  0  0  0  0  0  0  0  0  0
  185.0070  178.5580  140.3230 C   0  0  0  0  0  0  0  0  0  0  0  0
  182.5870  178.6640  140.9510 C   0  0  0  0  0  2  0  0  0  0  0  0
  181.9800  177.4200  138.2260 C   0  0  0  0  0  0  0  0  0  0  0  0
  183.0490  178.4590  142.3950 C   0  0  0  0  0  2  0  0  0  0  0  0
  185.3260  179.0750  141.6650 C   0  0  0  0  0  3  0  0  0  0  0  0
  184.4240  177.6010  137.7550 C   0  0  0  0  0  0  0  0  0  0  0  0
  182.8590  177.8420  135.8460 C   0  0  0  0  0  2  0  0  0  0  0  0
  181.7190  175.9510  138.5140 C   0  0  0  0  0  2  0  0  0  0  0  0
  186.0310  178.3600  139.4020 C   0  0  0  0  0  3  0  0  0  0  0  0
  185.7610  177.8920  138.1100 C   0  0  0  0  0  0  0  0  0  0  0  0
  184.4010  179.0800  142.6290 C   0  0  0  0  0  0  0  0  0  0  0  0
  183.6710  178.2820  139.9740 C   0  0  0  0  0  0  0  0  0  0  0  0
  184.0720  177.0820  136.3860 C   0  0  0  0  0  2  0  0  0  0  0  0
  188.8790  176.5970  137.7120 N   0  0  0  0  0  0  0  0  0  0  0  0
  189.6260  177.6300  136.9940 C   0  0  0  0  0  2  0  0  0  0  0  0
  186.8460  177.7300  137.1790 N   0  0  0  0  0  0  0  0  0  0  0  0
  188.9330  178.9850  137.1410 C   0  0  0  0  0  2  0  0  0  0  0  0
  187.5630  176.4590  137.0900 C   0  0  0  0  0  2  0  0  0  0  0  0
  187.5140  178.8870  136.5920 C   0  0  0  0  0  2  0  0  0  0  0  0
  189.5780  175.3450  137.4930 C   0  0  0  0  0  1  0  0  0  0  0  0
  180.7040  178.9160  136.5700 C   0  0  1  0  0  3  0  0  0  0  0  0
  179.3770  178.5680  136.8200 O   0  0  0  0  0  1  0  0  0  0  0  0
  181.1070  180.0900  137.4510 C   0  0  0  0  0  1  0  0  0  0  0  0
  184.7190  179.6740  143.9600 C   0  0  0  0  0  2  0  0  0  0  0  0
  186.5020  178.8710  145.3800 N   0  0  0  0  0  0  0  0  0  0  0  0
  185.3460  178.6570  144.8560 C   0  0  0  0  0  3  0  0  0  0  0  0
  187.2050  178.4470  147.6720 C   0  0  0  0  0  1  0  0  0  0  0  0
  187.1560  177.9140  146.2500 C   0  0  1  0  0  0  0  0  0  0  0  0
  186.4200  176.7280  146.2530 O   0  0  0  0  0  1  0  0  0  0  0  0
  188.6170  177.0500  144.3730 C   0  0  0  0  0  1  0  0  0  0  0  0
  188.5840  177.6240  145.7810 C   0  0  0  0  0  2  0  0  0  0  0  0
  1 24  1  1  0  0  0
  1  6  1  0  0  0  0
  3 15  1  0  0  0  0
  4  8  1  0  0  0  0
  5  7  1  0  0  0  0
  6 11  1  0  0  0  0
  6  3  1  0  0  0  0
  6  2  1  0  0  0  0
  7 14  1  0  0  0  0
  8 14  2  0  0  0  0
  9 13  1  0  0  0  0
  9  3  2  0  0  0  0
 10 16  1  0  0  0  0
 10  1  1  0  0  0  0
 11  2  1  0  0  0  0
 12  4  1  0  0  0  0
 13 12  2  0  0  0  0
 14 27  1  0  0  0  0
 15  4  2  0  0  0  0
 15  5  1  0  0  0  0
 16  9  1  0  0  0  0
 18 20  1  0  0  0  0
 18 17  1  0  0  0  0
 19 13  1  0  0  0  0
 21 19  1  0  0  0  0
 21 17  1  0  0  0  0
 22 20  1  0  0  0  0
 22 19  1  0  0  0  0
 23 17  1  0  0  0  0
 24 25  1  0  0  0  0
 24 26  1  1  0  0  0
 27 29  1  0  0  0  0
 28 31  1  0  0  0  0
 29 28  2  0  0  0  0
 31 32  1  0  0  0  0
 31 30  1  1  0  0  0
 33 34  1  0  0  0  0
 34 31  1  0  0  0  0
M  END
>  <MODEL>
5

>  <REMARK>
 VINA RESULT:      -7.5      3.031      6.273
  Name = 
  6 active torsions:
  status: ('A' for Active; 'I' for Inactive)
    1  A    between atoms: C_1  and  C_6
    2  A    between atoms: C_3  and  C_29
    3  A    between atoms: C_3  and  C_33
    4  A    between atoms: N_12  and  C_28
    5  A    between atoms: N_13  and  C_20
    6  A    between atoms: C_20  and  C_22
                            x       y       z     vdW  Elec       q    Type
                         _______ _______ _______ _____ _____    ______ ____

>  <TORSDO>
F 6

$$$$
=
 OpenBabel10262419143D

 34 38  0  0  1  0  0  0  0  0999 V2000
  179.1920  179.3220  141.3430 C   0  0  2  0  0  3  0  0  0  0  0  0
  179.7030  178.6790  143.8580 C   0  0  0  0  0  2  0  0  0  0  0  0
  181.5570  178.3920  141.9710 C   0  0  0  0  0  0  0  0  0  0  0  0
  183.9600  178.2060  142.3240 C   0  0  0  0  0  0  0  0  0  0  0  0
  182.5930  179.2280  144.1540 C   0  0  0  0  0  2  0  0  0  0  0  0
  180.1410  178.7230  142.4010 C   0  0  0  0  0  0  0  0  0  0  0  0
  183.6340  178.6590  145.1210 C   0  0  0  0  0  2  0  0  0  0  0  0
  185.1420  178.3600  143.1890 C   0  0  0  0  0  3  0  0  0  0  0  0
  181.7300  177.9290  140.6480 C   0  0  0  0  0  0  0  0  0  0  0  0
  179.6500  179.0510  139.8980 C   0  0  0  0  0  2  0  0  0  0  0  0
  179.4970  177.4720  142.9770 C   0  0  0  0  0  2  0  0  0  0  0  0
  184.1150  177.7240  141.0270 C   0  0  0  0  0  3  0  0  0  0  0  0
  183.0160  177.5870  140.1710 C   0  0  0  0  0  0  0  0  0  0  0  0
  185.0010  178.6230  144.4920 C   0  0  0  0  0  0  0  0  0  0  0  0
  182.6850  178.5620  142.8040 C   0  0  0  0  0  0  0  0  0  0  0  0
  180.5090  177.7900  139.7800 C   0  0  0  0  0  2  0  0  0  0  0  0
  181.7310  177.5680  137.0240 N   0  0  0  0  0  0  0  0  0  0  0  0
  181.8930  176.1900  136.5600 C   0  0  0  0  0  2  0  0  0  0  0  0
  183.2250  177.1120  138.8290 N   0  0  0  0  0  0  0  0  0  0  0  0
  182.0840  175.2490  137.7500 C   0  0  0  0  0  2  0  0  0  0  0  0
  182.9670  177.9840  137.6840 C   0  0  0  0  0  2  0  0  0  0  0  0
  183.3130  175.6830  138.5410 C   0  0  0  0  0  2  0  0  0  0  0  0
  181.5910  178.3950  135.8400 C   0  0  0  0  0  1  0  0  0  0  0  0
  178.9320  180.8190  141.5350 C   0  0  1  0  0  3  0  0  0  0  0  0
  179.6950  181.3170  142.5910 O   0  0  0  0  0  1  0  0  0  0  0  0
  179.2040  181.6250  140.2730 C   0  0  0  0  0  1  0  0  0  0  0  0
  186.2090  178.8490  145.3370 C   0  0  0  0  0  2  0  0  0  0  0  0
  188.4260  178.2540  144.5820 N   0  0  0  0  0  0  0  0  0  0  0  0
  187.2780  177.8580  145.0060 C   0  0  0  0  0  3  0  0  0  0  0  0
  190.2870  176.9680  145.4840 C   0  0  0  0  0  1  0  0  0  0  0  0
  189.4930  177.3330  144.2410 C   0  0  1  0  0  0  0  0  0  0  0  0
  188.9350  176.1650  143.7210 O   0  0  0  0  0  1  0  0  0  0  0  0
  191.4960  178.8330  143.8580 C   0  0  0  0  0  1  0  0  0  0  0  0
  190.4440  177.9450  143.2100 C   0  0  0  0  0  2  0  0  0  0  0  0
  1 24  1  1  0  0  0
  1  6  1  0  0  0  0
  3  6  1  0  0  0  0
  3 15  1  0  0  0  0
  4 15  2  0  0  0  0
  4  8  1  0  0  0  0
  5  7  1  0  0  0  0
  6 11  1  0  0  0  0
  6  2  1  0  0  0  0
  8 14  2  0  0  0  0
  9  3  2  0  0  0  0
 10  1  1  0  0  0  0
 11  2  1  0  0  0  0
 12  4  1  0  0  0  0
 13  9  1  0  0  0  0
 13 12  2  0  0  0  0
 14  7  1  0  0  0  0
 14 27  1  0  0  0  0
 15  5  1  0  0  0  0
 16 10  1  0  0  0  0
 16  9  1  0  0  0  0
 17 21  1  0  0  0  0
 18 17  1  0  0  0  0
 18 20  1  0  0  0  0
 19 13  1  0  0  0  0
 20 22  1  0  0  0  0
 21 19  1  0  0  0  0
 22 19  1  0  0  0  0
 23 17  1  0  0  0  0
 24 26  1  6  0  0  0
 24 25  1  0  0  0  0
 28 29  2  0  0  0  0
 29 27  1  0  0  0  0
 31 28  1  0  0  0  0
 31 30  1  1  0  0  0
 32 31  1  0  0  0  0
 34 33  1  0  0  0  0
 34 31  1  0  0  0  0
M  END
>  <MODEL>
6

>  <REMARK>
 VINA RESULT:      -7.4      3.610      7.146
  Name = 
  6 active torsions:
  status: ('A' for Active; 'I' for Inactive)
    1  A    between atoms: C_1  and  C_6
    2  A    between atoms: C_3  and  C_29
    3  A    between atoms: C_3  and  C_33
    4  A    between atoms: N_12  and  C_28
    5  A    between atoms: N_13  and  C_20
    6  A    between atoms: C_20  and  C_22
                            x       y       z     vdW  Elec       q    Type
                         _______ _______ _______ _____ _____    ______ ____

>  <TORSDO>
F 6

$$$$
=
 OpenBabel10262419143D

 34 38  0  0  1  0  0  0  0  0999 V2000
  187.2570  176.8170  136.4680 C   0  0  2  0  0  3  0  0  0  0  0  0
  189.6070  177.7270  137.2750 C   0  0  0  0  0  2  0  0  0  0  0  0
  187.4600  177.9130  138.8370 C   0  0  0  0  0  0  0  0  0  0  0  0
  187.4540  178.2450  141.2490 C   0  0  0  0  0  0  0  0  0  0  0  0
  189.5430  177.3460  140.2060 C   0  0  0  0  0  2  0  0  0  0  0  0
  188.1130  177.5610  137.5140 C   0  0  0  0  0  0  0  0  0  0  0  0
  190.2990  178.0550  141.3330 C   0  0  0  0  0  2  0  0  0  0  0  0
  188.1550  178.2320  142.5450 C   0  0  0  0  0  3  0  0  0  0  0  0
  186.0900  178.2520  138.8020 C   0  0  0  0  0  0  0  0  0  0  0  0
  185.7430  176.9650  136.7100 C   0  0  0  0  0  2  0  0  0  0  0  0
  188.6560  178.8310  136.8800 C   0  0  0  0  0  2  0  0  0  0  0  0
  186.1100  178.6040  141.1990 C   0  0  0  0  0  3  0  0  0  0  0  0
  185.4070  178.6040  139.9890 C   0  0  0  0  0  0  0  0  0  0  0  0
  189.4830  178.0920  142.5980 C   0  0  0  0  0  0  0  0  0  0  0  0
  188.1380  177.8790  140.0750 C   0  0  0  0  0  0  0  0  0  0  0  0
  185.3920  178.2470  137.4680 C   0  0  0  0  0  2  0  0  0  0  0  0
  182.2810  177.4560  139.3090 N   0  0  0  0  0  0  0  0  0  0  0  0
  181.6190  178.5580  138.6100 C   0  0  0  0  0  2  0  0  0  0  0  0
  184.0120  178.9540  139.9850 N   0  0  0  0  0  0  0  0  0  0  0  0
  182.6580  179.5250  138.0420 C   0  0  0  0  0  2  0  0  0  0  0  0
  183.0070  178.0020  140.4540 C   0  0  0  0  0  2  0  0  0  0  0  0
  183.5170  180.0670  139.1800 C   0  0  0  0  0  2  0  0  0  0  0  0
  181.2310  176.6090  139.8450 C   0  0  0  0  0  1  0  0  0  0  0  0
  187.6190  175.3350  136.3270 C   0  0  1  0  0  3  0  0  0  0  0  0
  186.4770  174.5410  136.4240 O   0  0  0  0  0  1  0  0  0  0  0  0
  188.3500  175.0350  135.0270 C   0  0  0  0  0  1  0  0  0  0  0  0
  190.1680  178.0080  143.9200 C   0  0  0  0  0  2  0  0  0  0  0  0
  189.0220  178.2530  146.0330 N   0  0  0  0  0  0  0  0  0  0  0  0
  189.2190  177.5450  144.9770 C   0  0  0  0  0  3  0  0  0  0  0  0
  188.6720  176.6290  147.8120 C   0  0  0  0  0  1  0  0  0  0  0  0
  188.1170  177.8450  147.0900 C   0  0  1  0  0  0  0  0  0  0  0  0
  188.0010  178.8850  148.0140 O   0  0  0  0  0  1  0  0  0  0  0  0
  185.9450  178.7470  146.1570 C   0  0  0  0  0  1  0  0  0  0  0  0
  186.7340  177.5020  146.5340 C   0  0  0  0  0  2  0  0  0  0  0  0
  1 24  1  1  0  0  0
  1 10  1  0  0  0  0
  1  6  1  0  0  0  0
  2  6  1  0  0  0  0
  3 15  1  0  0  0  0
  4  8  1  0  0  0  0
  5  7  1  0  0  0  0
  6  3  1  0  0  0  0
  7 14  1  0  0  0  0
  8 14  2  0  0  0  0
  9  3  2  0  0  0  0
  9 13  1  0  0  0  0
 10 16  1  0  0  0  0
 11  2  1  0  0  0  0
 11  6  1  0  0  0  0
 12  4  1  0  0  0  0
 13 12  2  0  0  0  0
 14 27  1  0  0  0  0
 15  5  1  0  0  0  0
 15  4  2  0  0  0  0
 16  9  1  0  0  0  0
 17 23  1  0  0  0  0
 17 21  1  0  0  0  0
 18 17  1  0  0  0  0
 19 13  1  0  0  0  0
 19 21  1  0  0  0  0
 20 18  1  0  0  0  0
 20 22  1  0  0  0  0
 22 19  1  0  0  0  0
 24 26  1  6  0  0  0
 24 25  1  0  0  0  0
 27 29  1  0  0  0  0
 28 31  1  0  0  0  0
 29 28  2  0  0  0  0
 31 30  1  1  0  0  0
 31 32  1  0  0  0  0
 33 34  1  0  0  0  0
 34 31  1  0  0  0  0
M  END
>  <MODEL>
7

>  <REMARK>
 VINA RESULT:      -7.4      1.761      2.386
  Name = 
  6 active torsions:
  status: ('A' for Active; 'I' for Inactive)
    1  A    between atoms: C_1  and  C_6
    2  A    between atoms: C_3  and  C_29
    3  A    between atoms: C_3  and  C_33
    4  A    between atoms: N_12  and  C_28
    5  A    between atoms: N_13  and  C_20
    6  A    between atoms: C_20  and  C_22
                            x       y       z     vdW  Elec       q    Type
                         _______ _______ _______ _____ _____    ______ ____

>  <TORSDO>
F 6

$$$$
=
 OpenBabel10262419143D

 34 38  0  0  1  0  0  0  0  0999 V2000
  189.8490  177.1020  144.9440 C   0  0  2  0  0  3  0  0  0  0  0  0
  191.0130  176.0610  142.8080 C   0  0  0  0  0  2  0  0  0  0  0  0
  188.6640  177.2990  142.6180 C   0  0  0  0  0  0  0  0  0  0  0  0
  187.6700  178.2060  140.5880 C   0  0  0  0  0  0  0  0  0  0  0  0
  190.1430  177.8250  140.6000 C   0  0  0  0  0  2  0  0  0  0  0  0
  189.8140  176.7520  143.4420 C   0  0  0  0  0  0  0  0  0  0  0  0
  190.0160  177.5720  139.0960 C   0  0  0  0  0  2  0  0  0  0  0  0
  187.7950  178.6440  139.1880 C   0  0  0  0  0  3  0  0  0  0  0  0
  187.4110  177.4030  143.2610 C   0  0  0  0  0  0  0  0  0  0  0  0
  188.4790  177.5400  145.4950 C   0  0  0  0  0  2  0  0  0  0  0  0
  189.8470  175.2390  143.2970 C   0  0  0  0  0  2  0  0  0  0  0  0
  186.4340  178.2780  141.2230 C   0  0  0  0  0  3  0  0  0  0  0  0
  186.2850  177.8920  142.5610 C   0  0  0  0  0  0  0  0  0  0  0  0
  188.9100  178.3970  138.4950 C   0  0  0  0  0  0  0  0  0  0  0  0
  188.8000  177.7330  141.2810 C   0  0  0  0  0  0  0  0  0  0  0  0
  187.3110  176.9600  144.6960 C   0  0  0  0  0  2  0  0  0  0  0  0
  183.1670  179.2040  142.2230 N   0  0  0  0  0  0  0  0  0  0  0  0
  182.8420  179.7440  143.5430 C   0  0  0  0  0  2  0  0  0  0  0  0
  184.9950  178.0100  143.1880 N   0  0  0  0  0  0  0  0  0  0  0  0
  184.1180  179.9580  144.3580 C   0  0  0  0  0  2  0  0  0  0  0  0
  183.7710  177.8850  142.3980 C   0  0  0  0  0  2  0  0  0  0  0  0
  184.8510  178.6290  144.5020 C   0  0  0  0  0  2  0  0  0  0  0  0
  181.9070  178.9990  141.5330 C   0  0  0  0  0  1  0  0  0  0  0  0
  190.9120  178.1460  145.3010 C   0  0  1  0  0  3  0  0  0  0  0  0
  192.0540  177.5270  145.8090 O   0  0  0  0  0  1  0  0  0  0  0  0
  191.2830  179.0290  144.1190 C   0  0  0  0  0  1  0  0  0  0  0  0
  189.0480  178.9120  137.1020 C   0  0  0  0  0  2  0  0  0  0  0  0
  187.7930  177.0070  136.3050 N   0  0  0  0  0  0  0  0  0  0  0  0
  188.0510  178.2630  136.1980 C   0  0  0  0  0  3  0  0  0  0  0  0
  186.0880  177.3400  134.5990 C   0  0  0  0  0  1  0  0  0  0  0  0
  186.8400  176.3290  135.4480 C   0  0  1  0  0  0  0  0  0  0  0  0
  187.5300  175.4690  134.5940 O   0  0  0  0  0  1  0  0  0  0  0  0
  184.9920  176.4170  137.1750 C   0  0  0  0  0  1  0  0  0  0  0  0
  185.8290  175.5260  136.2710 C   0  0  0  0  0  2  0  0  0  0  0  0
  1 24  1  6  0  0  0
  1 10  1  0  0  0  0
  2 11  1  0  0  0  0
  2  6  1  0  0  0  0
  3  9  1  0  0  0  0
  3  6  1  0  0  0  0
  4 12  2  0  0  0  0
  4 15  1  0  0  0  0
  5 15  1  0  0  0  0
  6  1  1  0  0  0  0
  7  5  1  0  0  0  0
  8  4  1  0  0  0  0
  9 16  1  0  0  0  0
 11  6  1  0  0  0  0
 12 13  1  0  0  0  0
 13 19  1  0  0  0  0
 13  9  2  0  0  0  0
 14  7  1  0  0  0  0
 14  8  2  0  0  0  0
 15  3  2  0  0  0  0
 16 10  1  0  0  0  0
 17 21  1  0  0  0  0
 17 18  1  0  0  0  0
 18 20  1  0  0  0  0
 19 22  1  0  0  0  0
 20 22  1  0  0  0  0
 21 19  1  0  0  0  0
 23 17  1  0  0  0  0
 24 26  1  6  0  0  0
 24 25  1  0  0  0  0
 27 14  1  0  0  0  0
 29 28  2  0  0  0  0
 29 27  1  0  0  0  0
 31 30  1  6  0  0  0
 31 34  1  0  0  0  0
 31 28  1  0  0  0  0
 32 31  1  0  0  0  0
 34 33  1  0  0  0  0
M  END
>  <MODEL>
8

>  <REMARK>
 VINA RESULT:      -7.3      2.120      7.342
  Name = 
  6 active torsions:
  status: ('A' for Active; 'I' for Inactive)
    1  A    between atoms: C_1  and  C_6
    2  A    between atoms: C_3  and  C_29
    3  A    between atoms: C_3  and  C_33
    4  A    between atoms: N_12  and  C_28
    5  A    between atoms: N_13  and  C_20
    6  A    between atoms: C_20  and  C_22
                            x       y       z     vdW  Elec       q    Type
                         _______ _______ _______ _____ _____    ______ ____

>  <TORSDO>
F 6

$$$$
=
 OpenBabel10262419143D

 34 38  0  0  1  0  0  0  0  0999 V2000
  189.4410  177.4070  144.6750 C   0  0  2  0  0  3  0  0  0  0  0  0
  190.6020  175.5430  143.1980 C   0  0  0  0  0  2  0  0  0  0  0  0
  188.8810  177.2650  142.1220 C   0  0  0  0  0  0  0  0  0  0  0  0
  188.6720  177.8090  139.7580 C   0  0  0  0  0  0  0  0  0  0  0  0
  190.8250  176.7960  140.5290 C   0  0  0  0  0  2  0  0  0  0  0  0
  189.5950  176.6780  143.3240 C   0  0  0  0  0  0  0  0  0  0  0  0
  190.9270  176.1810  139.1310 C   0  0  0  0  0  2  0  0  0  0  0  0
  189.2130  177.7940  138.3880 C   0  0  0  0  0  3  0  0  0  0  0  0
  187.6300  177.8760  142.3580 C   0  0  0  0  0  0  0  0  0  0  0  0
  188.2110  178.3310  144.7260 C   0  0  0  0  0  2  0  0  0  0  0  0
  189.1560  175.2330  143.5000 C   0  0  0  0  0  2  0  0  0  0  0  0
  187.4270  178.3850  139.9980 C   0  0  0  0  0  3  0  0  0  0  0  0
  186.8930  178.4370  141.2910 C   0  0  0  0  0  0  0  0  0  0  0  0
  190.3000  177.0740  138.0950 C   0  0  0  0  0  0  0  0  0  0  0  0
  189.4190  177.2600  140.8160 C   0  0  0  0  0  0  0  0  0  0  0  0
  187.1030  177.8900  143.7680 C   0  0  0  0  0  2  0  0  0  0  0  0
  184.1540  178.5090  143.3030 N   0  0  0  0  0  0  0  0  0  0  0  0
  183.0160  178.5890  142.3860 C   0  0  0  0  0  2  0  0  0  0  0  0
  185.6160  179.0660  141.5000 N   0  0  0  0  0  0  0  0  0  0  0  0
  183.4280  178.1250  140.9880 C   0  0  0  0  0  2  0  0  0  0  0  0
  185.1840  179.4400  142.8460 C   0  0  0  0  0  2  0  0  0  0  0  0
  184.5690  179.0010  140.4840 C   0  0  0  0  0  2  0  0  0  0  0  0
  183.6910  178.9980  144.5890 C   0  0  0  0  0  1  0  0  0  0  0  0
  190.6930  178.1820  145.0960 C   0  0  1  0  0  3  0  0  0  0  0  0
  191.6560  177.3140  145.6120 O   0  0  0  0  0  1  0  0  0  0  0  0
  191.2870  178.9950  143.9560 C   0  0  0  0  0  1  0  0  0  0  0  0
  190.8770  177.1280  136.7200 C   0  0  0  0  0  2  0  0  0  0  0  0
  193.1370  176.2720  136.6860 N   0  0  0  0  0  0  0  0  0  0  0  0
  191.8810  176.0390  136.5260 C   0  0  0  0  0  3  0  0  0  0  0  0
  193.9280  174.5240  135.1890 C   0  0  0  0  0  1  0  0  0  0  0  0
  194.1510  175.2530  136.5030 C   0  0  1  0  0  0  0  0  0  0  0  0
  195.4050  175.8630  136.4570 O   0  0  0  0  0  1  0  0  0  0  0  0
  195.3740  174.3080  138.5070 C   0  0  0  0  0  1  0  0  0  0  0  0
  194.1240  174.2330  137.6440 C   0  0  0  0  0  2  0  0  0  0  0  0
  1 10  1  0  0  0  0
  1 24  1  6  0  0  0
  2  6  1  0  0  0  0
  2 11  1  0  0  0  0
  3  9  1  0  0  0  0
  3  6  1  0  0  0  0
  4 12  2  0  0  0  0
  4 15  1  0  0  0  0
  5 15  1  0  0  0  0
  6 11  1  0  0  0  0
  6  1  1  0  0  0  0
  7  5  1  0  0  0  0
  8  4  1  0  0  0  0
  9 16  1  0  0  0  0
 12 13  1  0  0  0  0
 13 19  1  0  0  0  0
 13  9  2  0  0  0  0
 14  8  2  0  0  0  0
 14  7  1  0  0  0  0
 15  3  2  0  0  0  0
 16 10  1  0  0  0  0
 17 23  1  0  0  0  0
 18 17  1  0  0  0  0
 19 21  1  0  0  0  0
 20 18  1  0  0  0  0
 21 17  1  0  0  0  0
 22 20  1  0  0  0  0
 22 19  1  0  0  0  0
 24 26  1  6  0  0  0
 24 25  1  0  0  0  0
 27 14  1  0  0  0  0
 29 28  2  0  0  0  0
 29 27  1  0  0  0  0
 31 30  1  6  0  0  0
 31 28  1  0  0  0  0
 31 34  1  0  0  0  0
 32 31  1  0  0  0  0
 34 33  1  0  0  0  0
M  END
>  <MODEL>
9

>  <REMARK>
 VINA RESULT:      -7.3      3.153      6.741
  Name = 
  6 active torsions:
  status: ('A' for Active; 'I' for Inactive)
    1  A    between atoms: C_1  and  C_6
    2  A    between atoms: C_3  and  C_29
    3  A    between atoms: C_3  and  C_33
    4  A    between atoms: N_12  and  C_28
    5  A    between atoms: N_13  and  C_20
    6  A    between atoms: C_20  and  C_22
                            x       y       z     vdW  Elec       q    Type
                         _______ _______ _______ _____ _____    ______ ____

>  <TORSDO>
F 6

$$$$
