=
 OpenBabel10262419463D

 25 28  0  0  1  0  0  0  0  0999 V2000
  189.2930  177.6050  141.6360 C   0  0  0  0  0  0  0  0  0  0  0  0
  187.9440  177.9320  141.8610 C   0  0  0  0  0  0  0  0  0  0  0  0
  189.0250  178.2600  139.3230 C   0  0  0  0  0  3  0  0  0  0  0  0
  185.5370  177.9970  144.6550 N   0  0  0  0  0  2  0  0  0  0  0  0
  187.7200  178.5550  139.5540 N   0  0  0  0  0  0  0  0  0  0  0  0
  185.8150  178.7310  141.0160 C   0  0  0  0  0  0  0  0  0  0  0  0
  184.9380  179.2320  139.9190 C   0  0  0  0  0  1  0  0  0  0  0  0
  187.3900  177.8130  143.0980 N   0  0  0  0  0  0  0  0  0  0  0  0
  189.8330  177.7840  140.3580 C   0  0  0  0  0  3  0  0  0  0  0  0
  185.2800  178.5890  142.2990 C   0  0  0  0  0  3  0  0  0  0  0  0
  186.0880  178.1280  143.3400 C   0  0  0  0  0  0  0  0  0  0  0  0
  187.1610  178.4080  140.7870 C   0  0  0  0  0  0  0  0  0  0  0  0
  190.1580  177.0990  142.7190 C   0  0  0  0  0  0  0  0  0  0  0  0
  191.8030  176.0630  144.7410 C   0  0  0  0  0  3  0  0  0  0  0  0
  190.8040  177.9690  143.6220 C   0  0  0  0  0  0  0  0  0  0  0  0
  191.6220  177.4430  144.6270 C   0  0  0  0  0  3  0  0  0  0  0  0
  191.1570  175.1990  143.8550 C   0  0  0  0  0  3  0  0  0  0  0  0
  190.5770  179.7110  143.5630 Cl  0  0  0  0  0  0  0  0  0  0  0  0
  190.3350  175.7150  142.8500 C   0  0  0  0  0  3  0  0  0  0  0  0
  188.5560  177.6760  146.9530 C   0  0  0  0  0  2  0  0  0  0  0  0
  185.7560  178.2190  147.1080 C   0  0  0  0  0  2  0  0  0  0  0  0
  187.7600  178.2710  148.1260 C   0  0  0  0  0  2  0  0  0  0  0  0
  186.2880  177.5530  145.8260 C   0  0  2  0  0  3  0  0  0  0  0  0
  186.7110  179.0880  147.6690 O   0  0  0  0  0  0  0  0  0  0  0  0
  187.7910  177.7830  145.6310 C   0  0  0  0  0  2  0  0  0  0  0  0
  1  2  1  0  0  0  0
  1 13  1  0  0  0  0
  2  8  1  0  0  0  0
  3  5  2  0  0  0  0
  3  9  1  0  0  0  0
  5 12  1  0  0  0  0
  6 10  2  0  0  0  0
  7  6  1  0  0  0  0
  8 11  2  0  0  0  0
  9  1  2  0  0  0  0
 10 11  1  0  0  0  0
 11  4  1  0  0  0  0
 12  6  1  0  0  0  0
 12  2  2  0  0  0  0
 13 19  2  0  0  0  0
 13 15  1  0  0  0  0
 15 16  2  0  0  0  0
 16 14  1  0  0  0  0
 17 14  2  0  0  0  0
 18 15  1  0  0  0  0
 19 17  1  0  0  0  0
 20 22  1  0  0  0  0
 21 24  1  0  0  0  0
 23  4  1  6  0  0  0
 23 21  1  0  0  0  0
 24 22  1  0  0  0  0
 25 23  1  0  0  0  0
 25 20  1  0  0  0  0
M  END
>  <MODEL>
1

>  <REMARK>
 VINA RESULT:      -8.7      0.000      0.000
  Name = 
  2 active torsions:
  status: ('A' for Active; 'I' for Inactive)
    1  A    between atoms: C_1  and  C_5
    2  A    between atoms: N_6  and  C_15
                            x       y       z     vdW  Elec       q    Type
                         _______ _______ _______ _____ _____    ______ ____

>  <TORSDO>
F 2

$$$$
=
 OpenBabel10262419463D

 25 28  0  0  1  0  0  0  0  0999 V2000
  187.4850  177.7080  145.8330 C   0  0  0  0  0  0  0  0  0  0  0  0
  188.7720  177.2740  145.4700 C   0  0  0  0  0  0  0  0  0  0  0  0
  188.1700  177.6700  148.1530 C   0  0  0  0  0  3  0  0  0  0  0  0
  190.6780  176.5150  142.4040 N   0  0  0  0  0  2  0  0  0  0  0  0
  189.4030  177.2360  147.7850 N   0  0  0  0  0  0  0  0  0  0  0  0
  191.0120  176.5990  146.1110 C   0  0  0  0  0  0  0  0  0  0  0  0
  192.0620  176.3240  147.1330 C   0  0  0  0  0  1  0  0  0  0  0  0
  189.1110  177.1000  144.1640 N   0  0  0  0  0  0  0  0  0  0  0  0
  187.1930  177.9170  147.1860 C   0  0  0  0  0  3  0  0  0  0  0  0
  191.3210  176.4250  144.7590 C   0  0  0  0  0  3  0  0  0  0  0  0
  190.3520  176.6850  143.7880 C   0  0  0  0  0  0  0  0  0  0  0  0
  189.7300  177.0340  146.4790 C   0  0  0  0  0  0  0  0  0  0  0  0
  186.4430  177.9700  144.8230 C   0  0  0  0  0  0  0  0  0  0  0  0
  184.5080  178.4340  142.8450 C   0  0  0  0  0  3  0  0  0  0  0  0
  185.1260  178.3240  145.1880 C   0  0  0  0  0  0  0  0  0  0  0  0
  184.1690  178.5540  144.1950 C   0  0  0  0  0  3  0  0  0  0  0  0
  185.8110  178.0920  142.4800 C   0  0  0  0  0  3  0  0  0  0  0  0
  184.6500  178.5420  146.8660 Cl  0  0  0  0  0  0  0  0  0  0  0  0
  186.7750  177.8640  143.4660 C   0  0  0  0  0  3  0  0  0  0  0  0
  188.6160  178.6400  140.0110 C   0  0  0  0  0  2  0  0  0  0  0  0
  190.4020  176.4130  139.9490 C   0  0  0  0  0  2  0  0  0  0  0  0
  189.3370  178.0260  138.8010 C   0  0  0  0  0  2  0  0  0  0  0  0
  189.7610  176.7810  141.3000 C   0  0  2  0  0  3  0  0  0  0  0  0
  190.6140  177.5530  139.1530 O   0  0  0  0  0  0  0  0  0  0  0  0
  189.2710  178.2330  141.3350 C   0  0  0  0  0  2  0  0  0  0  0  0
  1  9  1  0  0  0  0
  2  1  2  0  0  0  0
  2 12  1  0  0  0  0
  4 11  1  0  0  0  0
  5  3  1  0  0  0  0
  6 12  1  0  0  0  0
  6  7  1  0  0  0  0
  8  2  1  0  0  0  0
  9  3  2  0  0  0  0
 10  6  2  0  0  0  0
 11  8  2  0  0  0  0
 11 10  1  0  0  0  0
 12  5  2  0  0  0  0
 13 15  1  0  0  0  0
 13  1  1  0  0  0  0
 14 16  1  0  0  0  0
 15 18  1  0  0  0  0
 16 15  2  0  0  0  0
 17 14  2  0  0  0  0
 17 19  1  0  0  0  0
 19 13  2  0  0  0  0
 20 25  1  0  0  0  0
 21 23  1  0  0  0  0
 22 24  1  0  0  0  0
 22 20  1  0  0  0  0
 23 25  1  0  0  0  0
 23  4  1  1  0  0  0
 24 21  1  0  0  0  0
M  END
>  <MODEL>
2

>  <REMARK>
 VINA RESULT:      -8.7      2.907      6.904
  Name = 
  2 active torsions:
  status: ('A' for Active; 'I' for Inactive)
    1  A    between atoms: C_1  and  C_5
    2  A    between atoms: N_6  and  C_15
                            x       y       z     vdW  Elec       q    Type
                         _______ _______ _______ _____ _____    ______ ____

>  <TORSDO>
F 2

$$$$
=
 OpenBabel10262419463D

 25 28  0  0  1  0  0  0  0  0999 V2000
  187.9790  177.9220  144.7170 C   0  0  0  0  0  0  0  0  0  0  0  0
  186.8980  178.1970  143.8620 C   0  0  0  0  0  0  0  0  0  0  0  0
  186.4470  177.9200  146.5900 C   0  0  0  0  0  3  0  0  0  0  0  0
  186.2670  178.6740  140.2590 N   0  0  0  0  0  2  0  0  0  0  0  0
  185.4160  178.2020  145.7510 N   0  0  0  0  0  0  0  0  0  0  0  0
  184.5290  178.6170  143.5510 C   0  0  0  0  0  0  0  0  0  0  0  0
  183.1430  178.7860  144.0730 C   0  0  0  0  0  1  0  0  0  0  0  0
  187.0770  178.3070  142.5180 N   0  0  0  0  0  0  0  0  0  0  0  0
  187.7420  177.7720  146.0890 C   0  0  0  0  0  3  0  0  0  0  0  0
  184.7540  178.7300  142.1770 C   0  0  0  0  0  3  0  0  0  0  0  0
  186.0440  178.5680  141.6700 C   0  0  0  0  0  0  0  0  0  0  0  0
  185.6040  178.3410  144.4090 C   0  0  0  0  0  0  0  0  0  0  0  0
  189.3530  177.7650  144.2030 C   0  0  0  0  0  0  0  0  0  0  0  0
  191.9880  177.5330  143.2690 C   0  0  0  0  0  3  0  0  0  0  0  0
  189.7690  176.5930  143.5380 C   0  0  0  0  0  0  0  0  0  0  0  0
  191.0840  176.4870  143.0750 C   0  0  0  0  0  3  0  0  0  0  0  0
  191.5780  178.6980  143.9200 C   0  0  0  0  0  3  0  0  0  0  0  0
  188.6660  175.2620  143.2160 Cl  0  0  0  0  0  0  0  0  0  0  0  0
  190.2640  178.8150  144.3820 C   0  0  0  0  0  3  0  0  0  0  0  0
  189.6850  177.1110  139.6530 C   0  0  0  0  0  2  0  0  0  0  0  0
  187.3930  177.9620  138.1770 C   0  0  0  0  0  2  0  0  0  0  0  0
  189.3080  176.7830  138.2000 C   0  0  0  0  0  2  0  0  0  0  0  0
  187.5620  178.4970  139.6100 C   0  0  2  0  0  3  0  0  0  0  0  0
  187.9150  176.6610  138.0490 O   0  0  0  0  0  0  0  0  0  0  0  0
  188.4810  177.6100  140.4580 C   0  0  0  0  0  2  0  0  0  0  0  0
  1  9  1  0  0  0  0
  2 12  1  0  0  0  0
  2  1  2  0  0  0  0
  4 11  1  0  0  0  0
  5  3  1  0  0  0  0
  6  7  1  0  0  0  0
  6 12  1  0  0  0  0
  8  2  1  0  0  0  0
  9  3  2  0  0  0  0
 10  6  2  0  0  0  0
 11 10  1  0  0  0  0
 11  8  2  0  0  0  0
 12  5  2  0  0  0  0
 13 19  1  0  0  0  0
 13  1  1  0  0  0  0
 14 17  1  0  0  0  0
 15 13  2  0  0  0  0
 16 14  2  0  0  0  0
 16 15  1  0  0  0  0
 17 19  2  0  0  0  0
 18 15  1  0  0  0  0
 20 25  1  0  0  0  0
 21 23  1  0  0  0  0
 22 20  1  0  0  0  0
 23  4  1  1  0  0  0
 23 25  1  0  0  0  0
 24 21  1  0  0  0  0
 24 22  1  0  0  0  0
M  END
>  <MODEL>
3

>  <REMARK>
 VINA RESULT:      -8.4      2.563      5.279
  Name = 
  2 active torsions:
  status: ('A' for Active; 'I' for Inactive)
    1  A    between atoms: C_1  and  C_5
    2  A    between atoms: N_6  and  C_15
                            x       y       z     vdW  Elec       q    Type
                         _______ _______ _______ _____ _____    ______ ____

>  <TORSDO>
F 2

$$$$
=
 OpenBabel10262419463D

 25 28  0  0  1  0  0  0  0  0999 V2000
  187.4160  178.0200  145.3060 C   0  0  0  0  0  0  0  0  0  0  0  0
  186.6710  178.2850  144.1440 C   0  0  0  0  0  0  0  0  0  0  0  0
  185.3720  178.1310  146.5940 C   0  0  0  0  0  3  0  0  0  0  0  0
  187.2280  178.6280  140.5140 N   0  0  0  0  0  2  0  0  0  0  0  0
  184.6700  178.4020  145.4630 N   0  0  0  0  0  0  0  0  0  0  0  0
  184.5380  178.7480  143.0840 C   0  0  0  0  0  0  0  0  0  0  0  0
  183.0650  178.9700  143.1330 C   0  0  0  0  0  1  0  0  0  0  0  0
  187.2700  178.3350  142.9230 N   0  0  0  0  0  0  0  0  0  0  0  0
  186.7530  177.9320  146.5350 C   0  0  0  0  0  3  0  0  0  0  0  0
  185.1900  178.7990  141.8490 C   0  0  0  0  0  3  0  0  0  0  0  0
  186.5680  178.5860  141.7830 C   0  0  0  0  0  0  0  0  0  0  0  0
  185.2770  178.4820  144.2470 C   0  0  0  0  0  0  0  0  0  0  0  0
  188.8750  177.8100  145.2590 C   0  0  0  0  0  0  0  0  0  0  0  0
  191.6550  177.4640  145.1080 C   0  0  0  0  0  3  0  0  0  0  0  0
  189.5690  177.1740  146.3100 C   0  0  0  0  0  0  0  0  0  0  0  0
  190.9550  177.0050  146.2260 C   0  0  0  0  0  3  0  0  0  0  0  0
  190.9710  178.0860  144.0630 C   0  0  0  0  0  3  0  0  0  0  0  0
  188.7390  176.5280  147.7190 Cl  0  0  0  0  0  0  0  0  0  0  0  0
  189.5860  178.2550  144.1370 C   0  0  0  0  0  3  0  0  0  0  0  0
  190.4360  176.5890  140.2920 C   0  0  0  0  0  2  0  0  0  0  0  0
  189.0540  178.6280  138.8460 C   0  0  0  0  0  2  0  0  0  0  0  0
  190.6720  177.0670  138.8510 C   0  0  0  0  0  2  0  0  0  0  0  0
  188.6560  178.3950  140.3150 C   0  0  2  0  0  3  0  0  0  0  0  0
  189.4650  177.4320  138.2290 O   0  0  0  0  0  0  0  0  0  0  0  0
  189.0550  177.0010  140.8120 C   0  0  0  0  0  2  0  0  0  0  0  0
  1  9  1  0  0  0  0
  2 12  1  0  0  0  0
  2  1  2  0  0  0  0
  4 11  1  0  0  0  0
  5  3  1  0  0  0  0
  6  7  1  0  0  0  0
  6 12  1  0  0  0  0
  8  2  1  0  0  0  0
  9  3  2  0  0  0  0
 10  6  2  0  0  0  0
 11 10  1  0  0  0  0
 11  8  2  0  0  0  0
 12  5  2  0  0  0  0
 13  1  1  0  0  0  0
 13 15  1  0  0  0  0
 14 16  1  0  0  0  0
 15 18  1  0  0  0  0
 16 15  2  0  0  0  0
 17 19  1  0  0  0  0
 17 14  2  0  0  0  0
 19 13  2  0  0  0  0
 20 25  1  0  0  0  0
 21 23  1  0  0  0  0
 22 20  1  0  0  0  0
 23  4  1  6  0  0  0
 23 25  1  0  0  0  0
 24 21  1  0  0  0  0
 24 22  1  0  0  0  0
M  END
>  <MODEL>
4

>  <REMARK>
 VINA RESULT:      -8.4      2.634      5.286
  Name = 
  2 active torsions:
  status: ('A' for Active; 'I' for Inactive)
    1  A    between atoms: C_1  and  C_5
    2  A    between atoms: N_6  and  C_15
                            x       y       z     vdW  Elec       q    Type
                         _______ _______ _______ _____ _____    ______ ____

>  <TORSDO>
F 2

$$$$
=
 OpenBabel10262419463D

 25 28  0  0  1  0  0  0  0  0999 V2000
  185.6570  178.4070  144.5680 C   0  0  0  0  0  0  0  0  0  0  0  0
  186.9830  177.9650  144.7150 C   0  0  0  0  0  0  0  0  0  0  0  0
  185.5230  178.6780  146.9680 C   0  0  0  0  0  3  0  0  0  0  0  0
  189.7930  176.8800  142.5860 N   0  0  0  0  0  2  0  0  0  0  0  0
  186.8010  178.2330  147.0930 N   0  0  0  0  0  0  0  0  0  0  0  0
  188.8670  177.4350  146.1490 C   0  0  0  0  0  0  0  0  0  0  0  0
  189.5080  177.3180  147.4890 C   0  0  0  0  0  1  0  0  0  0  0  0
  187.7370  177.6380  143.6300 N   0  0  0  0  0  0  0  0  0  0  0  0
  184.9310  178.7760  145.7070 C   0  0  0  0  0  3  0  0  0  0  0  0
  189.6080  177.1010  145.0120 C   0  0  0  0  0  3  0  0  0  0  0  0
  189.0250  177.2120  143.7480 C   0  0  0  0  0  0  0  0  0  0  0  0
  187.5430  177.8790  146.0080 C   0  0  0  0  0  0  0  0  0  0  0  0
  185.0180  178.5130  143.2430 C   0  0  0  0  0  0  0  0  0  0  0  0
  183.8730  178.6940  140.6880 C   0  0  0  0  0  3  0  0  0  0  0  0
  183.6160  178.5890  143.0970 C   0  0  0  0  0  0  0  0  0  0  0  0
  183.0550  178.6790  141.8190 C   0  0  0  0  0  3  0  0  0  0  0  0
  185.2610  178.6280  140.8290 C   0  0  0  0  0  3  0  0  0  0  0  0
  182.5350  178.6280  144.4830 Cl  0  0  0  0  0  0  0  0  0  0  0  0
  185.8300  178.5410  142.1020 C   0  0  0  0  0  3  0  0  0  0  0  0
  188.7850  178.6290  139.3580 C   0  0  0  0  0  2  0  0  0  0  0  0
  190.3150  176.3780  140.2220 C   0  0  0  0  0  2  0  0  0  0  0  0
  189.8060  177.8040  138.5600 C   0  0  0  0  0  2  0  0  0  0  0  0
  189.3040  176.9820  141.2140 C   0  0  2  0  0  3  0  0  0  0  0  0
  190.8610  177.3640  139.3800 O   0  0  0  0  0  0  0  0  0  0  0  0
  188.9450  178.4310  140.8680 C   0  0  0  0  0  2  0  0  0  0  0  0
  1  2  2  0  0  0  0
  1  9  1  0  0  0  0
  2 12  1  0  0  0  0
  3  5  1  0  0  0  0
  4 11  1  0  0  0  0
  6  7  1  0  0  0  0
  8 11  2  0  0  0  0
  8  2  1  0  0  0  0
  9  3  2  0  0  0  0
 10  6  2  0  0  0  0
 11 10  1  0  0  0  0
 12  6  1  0  0  0  0
 12  5  2  0  0  0  0
 13  1  1  0  0  0  0
 14 17  2  0  0  0  0
 14 16  1  0  0  0  0
 15 13  1  0  0  0  0
 15 18  1  0  0  0  0
 16 15  2  0  0  0  0
 17 19  1  0  0  0  0
 19 13  2  0  0  0  0
 20 25  1  0  0  0  0
 21 23  1  0  0  0  0
 22 20  1  0  0  0  0
 22 24  1  0  0  0  0
 23  4  1  1  0  0  0
 24 21  1  0  0  0  0
 25 23  1  0  0  0  0
M  END
>  <MODEL>
5

>  <REMARK>
 VINA RESULT:      -8.3      3.001      6.911
  Name = 
  2 active torsions:
  status: ('A' for Active; 'I' for Inactive)
    1  A    between atoms: C_1  and  C_5
    2  A    between atoms: N_6  and  C_15
                            x       y       z     vdW  Elec       q    Type
                         _______ _______ _______ _____ _____    ______ ____

>  <TORSDO>
F 2

$$$$
=
 OpenBabel10262419463D

 25 28  0  0  1  0  0  0  0  0999 V2000
  187.2450  177.8860  144.7540 C   0  0  0  0  0  0  0  0  0  0  0  0
  188.5330  177.4330  144.4200 C   0  0  0  0  0  0  0  0  0  0  0  0
  187.8690  177.8150  147.0900 C   0  0  0  0  0  3  0  0  0  0  0  0
  190.5040  176.6710  141.3970 N   0  0  0  0  0  2  0  0  0  0  0  0
  189.1040  177.3620  146.7500 N   0  0  0  0  0  0  0  0  0  0  0  0
  190.7450  176.7140  145.1120 C   0  0  0  0  0  0  0  0  0  0  0  0
  191.7630  176.4110  146.1570 C   0  0  0  0  0  1  0  0  0  0  0  0
  188.9030  177.2660  143.1210 N   0  0  0  0  0  0  0  0  0  0  0  0
  186.9220  178.0870  146.1010 C   0  0  0  0  0  3  0  0  0  0  0  0
  191.0850  176.5470  143.7660 C   0  0  0  0  0  3  0  0  0  0  0  0
  190.1460  176.8330  142.7740 C   0  0  0  0  0  0  0  0  0  0  0  0
  189.4610  177.1670  145.4510 C   0  0  0  0  0  0  0  0  0  0  0  0
  186.2330  178.1750  143.7210 C   0  0  0  0  0  0  0  0  0  0  0  0
  184.3610  178.6980  141.6980 C   0  0  0  0  0  3  0  0  0  0  0  0
  184.8870  178.4390  144.0510 C   0  0  0  0  0  0  0  0  0  0  0  0
  183.9610  178.6990  143.0360 C   0  0  0  0  0  3  0  0  0  0  0  0
  185.6940  178.4460  141.3680 C   0  0  0  0  0  3  0  0  0  0  0  0
  184.3320  178.5060  145.7180 Cl  0  0  0  0  0  0  0  0  0  0  0  0
  186.6270  178.1890  142.3760 C   0  0  0  0  0  3  0  0  0  0  0  0
  188.8490  178.8140  138.7210 C   0  0  0  0  0  2  0  0  0  0  0  0
  190.1110  176.2660  138.9890 C   0  0  0  0  0  2  0  0  0  0  0  0
  189.3700  177.8830  137.6150 C   0  0  0  0  0  2  0  0  0  0  0  0
  189.6210  176.9620  140.2720 C   0  0  2  0  0  3  0  0  0  0  0  0
  190.5300  177.2010  138.0250 O   0  0  0  0  0  0  0  0  0  0  0  0
  189.4550  178.4750  140.0860 C   0  0  0  0  0  2  0  0  0  0  0  0
  1  9  1  0  0  0  0
  2  1  2  0  0  0  0
  2 12  1  0  0  0  0
  4 11  1  0  0  0  0
  5  3  1  0  0  0  0
  6 12  1  0  0  0  0
  6  7  1  0  0  0  0
  8  2  1  0  0  0  0
  9  3  2  0  0  0  0
 10  6  2  0  0  0  0
 11  8  2  0  0  0  0
 11 10  1  0  0  0  0
 12  5  2  0  0  0  0
 13 15  1  0  0  0  0
 13  1  1  0  0  0  0
 14 16  1  0  0  0  0
 15 18  1  0  0  0  0
 16 15  2  0  0  0  0
 17 14  2  0  0  0  0
 17 19  1  0  0  0  0
 19 13  2  0  0  0  0
 20 25  1  0  0  0  0
 21 23  1  0  0  0  0
 22 24  1  0  0  0  0
 22 20  1  0  0  0  0
 23  4  1  1  0  0  0
 24 21  1  0  0  0  0
 25 23  1  0  0  0  0
M  END
>  <MODEL>
6

>  <REMARK>
 VINA RESULT:      -8.2      2.960      6.936
  Name = 
  2 active torsions:
  status: ('A' for Active; 'I' for Inactive)
    1  A    between atoms: C_1  and  C_5
    2  A    between atoms: N_6  and  C_15
                            x       y       z     vdW  Elec       q    Type
                         _______ _______ _______ _____ _____    ______ ____

>  <TORSDO>
F 2

$$$$
=
 OpenBabel10262419463D

 25 28  0  0  1  0  0  0  0  0999 V2000
  188.6760  177.7640  143.6850 C   0  0  0  0  0  0  0  0  0  0  0  0
  187.3340  177.9540  144.0590 C   0  0  0  0  0  0  0  0  0  0  0  0
  189.2950  177.8300  146.0220 C   0  0  0  0  0  3  0  0  0  0  0  0
  184.0190  178.1940  142.4580 N   0  0  0  0  0  2  0  0  0  0  0  0
  187.9960  178.0290  146.3650 N   0  0  0  0  0  0  0  0  0  0  0  0
  185.6710  178.2840  145.7930 C   0  0  0  0  0  0  0  0  0  0  0  0
  185.2710  178.4420  147.2210 C   0  0  0  0  0  1  0  0  0  0  0  0
  186.3440  177.9890  143.1260 N   0  0  0  0  0  0  0  0  0  0  0  0
  189.6570  177.6910  144.6810 C   0  0  0  0  0  3  0  0  0  0  0  0
  184.6830  178.3210  144.8060 C   0  0  0  0  0  3  0  0  0  0  0  0
  185.0380  178.1670  143.4640 C   0  0  0  0  0  0  0  0  0  0  0  0
  187.0110  178.0920  145.4260 C   0  0  0  0  0  0  0  0  0  0  0  0
  189.0730  177.6190  142.2720 C   0  0  0  0  0  0  0  0  0  0  0  0
  189.7950  177.4140  139.5690 C   0  0  0  0  0  3  0  0  0  0  0  0
  189.9870  176.6280  141.8540 C   0  0  0  0  0  0  0  0  0  0  0  0
  190.3400  176.5330  140.5050 C   0  0  0  0  0  3  0  0  0  0  0  0
  188.8850  178.3910  139.9760 C   0  0  0  0  0  3  0  0  0  0  0  0
  190.6670  175.4560  142.9750 Cl  0  0  0  0  0  0  0  0  0  0  0  0
  188.5230  178.4900  141.3230 C   0  0  0  0  0  3  0  0  0  0  0  0
  183.1080  177.6960  138.7950 C   0  0  0  0  0  2  0  0  0  0  0  0
  184.8360  179.3030  140.4040 C   0  0  0  0  0  2  0  0  0  0  0  0
  183.8580  178.9800  138.4060 C   0  0  0  0  0  2  0  0  0  0  0  0
  184.2630  178.0180  141.0290 C   0  0  2  0  0  3  0  0  0  0  0  0
  183.9340  179.8750  139.4890 O   0  0  0  0  0  0  0  0  0  0  0  0
  182.9950  177.5390  140.3140 C   0  0  0  0  0  2  0  0  0  0  0  0
  1  2  2  0  0  0  0
  1  9  1  0  0  0  0
  2 12  1  0  0  0  0
  3  5  1  0  0  0  0
  4 11  1  0  0  0  0
  6  7  1  0  0  0  0
  8 11  2  0  0  0  0
  8  2  1  0  0  0  0
  9  3  2  0  0  0  0
 10  6  2  0  0  0  0
 11 10  1  0  0  0  0
 12  6  1  0  0  0  0
 12  5  2  0  0  0  0
 13  1  1  0  0  0  0
 14 17  2  0  0  0  0
 14 16  1  0  0  0  0
 15 13  1  0  0  0  0
 15 18  1  0  0  0  0
 16 15  2  0  0  0  0
 17 19  1  0  0  0  0
 19 13  2  0  0  0  0
 20 25  1  0  0  0  0
 21 23  1  0  0  0  0
 22 20  1  0  0  0  0
 22 24  1  0  0  0  0
 23  4  1  1  0  0  0
 24 21  1  0  0  0  0
 25 23  1  0  0  0  0
M  END
>  <MODEL>
7

>  <REMARK>
 VINA RESULT:      -8.1      2.503      5.528
  Name = 
  2 active torsions:
  status: ('A' for Active; 'I' for Inactive)
    1  A    between atoms: C_1  and  C_5
    2  A    between atoms: N_6  and  C_15
                            x       y       z     vdW  Elec       q    Type
                         _______ _______ _______ _____ _____    ______ ____

>  <TORSDO>
F 2

$$$$
=
 OpenBabel10262419463D

 25 28  0  0  1  0  0  0  0  0999 V2000
  183.6790  178.4070  141.9250 C   0  0  0  0  0  0  0  0  0  0  0  0
  184.6810  178.2500  142.8990 C   0  0  0  0  0  0  0  0  0  0  0  0
  182.1440  179.0810  143.6680 C   0  0  0  0  0  3  0  0  0  0  0  0
  188.2480  177.3280  143.0830 N   0  0  0  0  0  2  0  0  0  0  0  0
  183.1190  178.9080  144.5980 N   0  0  0  0  0  0  0  0  0  0  0  0
  185.3740  178.3430  145.2220 C   0  0  0  0  0  0  0  0  0  0  0  0
  185.1050  178.5920  146.6670 C   0  0  0  0  0  1  0  0  0  0  0  0
  185.9420  177.8740  142.5540 N   0  0  0  0  0  0  0  0  0  0  0  0
  182.4070  178.8380  142.3180 C   0  0  0  0  0  3  0  0  0  0  0  0
  186.6570  177.9500  144.8300 C   0  0  0  0  0  3  0  0  0  0  0  0
  186.9290  177.7200  143.4800 C   0  0  0  0  0  0  0  0  0  0  0  0
  184.3720  178.5040  144.2530 C   0  0  0  0  0  0  0  0  0  0  0  0
  183.9420  178.1510  140.4960 C   0  0  0  0  0  0  0  0  0  0  0  0
  184.5140  177.7020  137.7860 C   0  0  0  0  0  3  0  0  0  0  0  0
  183.1660  177.2410  139.7480 C   0  0  0  0  0  0  0  0  0  0  0  0
  183.4580  177.0230  138.3980 C   0  0  0  0  0  3  0  0  0  0  0  0
  185.2790  178.6100  138.5200 C   0  0  0  0  0  3  0  0  0  0  0  0
  181.7910  176.3950  140.4460 Cl  0  0  0  0  0  0  0  0  0  0  0  0
  184.9920  178.8360  139.8690 C   0  0  0  0  0  3  0  0  0  0  0  0
  189.2780  178.2450  139.5340 C   0  0  0  0  0  2  0  0  0  0  0  0
  190.0810  176.4980  141.6460 C   0  0  0  0  0  2  0  0  0  0  0  0
  190.6010  177.4810  139.6920 C   0  0  0  0  0  2  0  0  0  0  0  0
  188.6590  177.0870  141.7030 C   0  0  2  0  0  3  0  0  0  0  0  0
  190.9830  177.3930  141.0430 O   0  0  0  0  0  0  0  0  0  0  0  0
  188.5230  178.3610  140.8620 C   0  0  0  0  0  2  0  0  0  0  0  0
  1  9  2  0  0  0  0
  1  2  1  0  0  0  0
  2 12  2  0  0  0  0
  3  5  2  0  0  0  0
  4 11  1  0  0  0  0
  6  7  1  0  0  0  0
  8  2  1  0  0  0  0
  8 11  2  0  0  0  0
  9  3  1  0  0  0  0
 10  6  2  0  0  0  0
 11 10  1  0  0  0  0
 12  5  1  0  0  0  0
 12  6  1  0  0  0  0
 13  1  1  0  0  0  0
 14 16  2  0  0  0  0
 14 17  1  0  0  0  0
 15 18  1  0  0  0  0
 15 13  2  0  0  0  0
 16 15  1  0  0  0  0
 17 19  2  0  0  0  0
 19 13  1  0  0  0  0
 20 22  1  0  0  0  0
 20 25  1  0  0  0  0
 21 23  1  0  0  0  0
 22 24  1  0  0  0  0
 23  4  1  1  0  0  0
 24 21  1  0  0  0  0
 25 23  1  0  0  0  0
M  END
>  <MODEL>
8

>  <REMARK>
 VINA RESULT:      -8.1      3.190      6.843
  Name = 
  2 active torsions:
  status: ('A' for Active; 'I' for Inactive)
    1  A    between atoms: C_1  and  C_5
    2  A    between atoms: N_6  and  C_15
                            x       y       z     vdW  Elec       q    Type
                         _______ _______ _______ _____ _____    ______ ____

>  <TORSDO>
F 2

$$$$
=
 OpenBabel10262419463D

 25 28  0  0  1  0  0  0  0  0999 V2000
  187.9180  177.8600  142.6780 C   0  0  0  0  0  0  0  0  0  0  0  0
  186.9560  178.1150  143.6710 C   0  0  0  0  0  0  0  0  0  0  0  0
  186.4050  178.7810  141.0310 C   0  0  0  0  0  3  0  0  0  0  0  0
  186.5840  177.7660  147.3250 N   0  0  0  0  0  2  0  0  0  0  0  0
  185.4800  179.0050  142.0000 N   0  0  0  0  0  0  0  0  0  0  0  0
  184.7630  178.9430  144.2980 C   0  0  0  0  0  0  0  0  0  0  0  0
  183.4400  179.5440  143.9680 C   0  0  0  0  0  1  0  0  0  0  0  0
  187.2050  177.8310  144.9790 N   0  0  0  0  0  0  0  0  0  0  0  0
  187.6380  178.2090  141.3520 C   0  0  0  0  0  3  0  0  0  0  0  0
  185.0530  178.6310  145.6290 C   0  0  0  0  0  3  0  0  0  0  0  0
  186.2900  178.0730  145.9570 C   0  0  0  0  0  0  0  0  0  0  0  0
  185.7210  178.6920  143.3040 C   0  0  0  0  0  0  0  0  0  0  0  0
  189.2240  177.2550  143.0030 C   0  0  0  0  0  0  0  0  0  0  0  0
  191.6800  176.0330  143.5870 C   0  0  0  0  0  3  0  0  0  0  0  0
  190.3330  178.0390  143.3830 C   0  0  0  0  0  0  0  0  0  0  0  0
  191.5540  177.4210  143.6730 C   0  0  0  0  0  3  0  0  0  0  0  0
  190.5830  175.2530  143.2180 C   0  0  0  0  0  3  0  0  0  0  0  0
  190.2240  179.7850  143.5610 Cl  0  0  0  0  0  0  0  0  0  0  0  0
  189.3580  175.8620  142.9310 C   0  0  0  0  0  3  0  0  0  0  0  0
  190.2480  176.7520  147.1080 C   0  0  0  0  0  2  0  0  0  0  0  0
  188.4660  178.0870  148.8960 C   0  0  0  0  0  2  0  0  0  0  0  0
  190.5910  177.6310  148.3210 C   0  0  0  0  0  2  0  0  0  0  0  0
  187.8490  177.2080  147.7930 C   0  0  2  0  0  3  0  0  0  0  0  0
  189.6680  178.6820  148.4680 O   0  0  0  0  0  0  0  0  0  0  0  0
  188.8130  176.9830  146.6230 C   0  0  0  0  0  2  0  0  0  0  0  0
  1 13  1  0  0  0  0
  1  2  1  0  0  0  0
  2  8  1  0  0  0  0
  3  9  1  0  0  0  0
  3  5  2  0  0  0  0
  5 12  1  0  0  0  0
  6 10  2  0  0  0  0
  7  6  1  0  0  0  0
  8 11  2  0  0  0  0
  9  1  2  0  0  0  0
 10 11  1  0  0  0  0
 11  4  1  0  0  0  0
 12  2  2  0  0  0  0
 12  6  1  0  0  0  0
 13 15  1  0  0  0  0
 14 16  1  0  0  0  0
 15 18  1  0  0  0  0
 15 16  2  0  0  0  0
 17 14  2  0  0  0  0
 19 13  2  0  0  0  0
 19 17  1  0  0  0  0
 20 22  1  0  0  0  0
 22 24  1  0  0  0  0
 23  4  1  6  0  0  0
 23 21  1  0  0  0  0
 24 21  1  0  0  0  0
 25 20  1  0  0  0  0
 25 23  1  0  0  0  0
M  END
>  <MODEL>
9

>  <REMARK>
 VINA RESULT:      -8.0      1.558      2.453
  Name = 
  2 active torsions:
  status: ('A' for Active; 'I' for Inactive)
    1  A    between atoms: C_1  and  C_5
    2  A    between atoms: N_6  and  C_15
                            x       y       z     vdW  Elec       q    Type
                         _______ _______ _______ _____ _____    ______ ____

>  <TORSDO>
F 2

$$$$
