=
 OpenBabel10262422513D

 37 41  0  0  1  0  0  0  0  0999 V2000
  186.0730  178.3020  139.5560 C   0  0  0  0  0  0  0  0  0  0  0  0
  185.3030  177.2710  137.5410 O   0  0  0  0  0  0  0  0  0  0  0  0
  184.6620  178.5390  140.0530 C   0  0  2  0  0  3  0  0  0  0  0  0
  186.2320  178.1940  138.0490 C   0  0  2  0  0  3  0  0  0  0  0  0
  184.5070  178.1700  141.5240 C   0  0  0  0  0  2  0  0  0  0  0  0
  187.6360  177.7700  137.6270 C   0  0  0  0  0  2  0  0  0  0  0  0
  184.0250  177.8400  137.7000 C   0  0  2  0  0  3  0  0  0  0  0  0
  187.1410  178.4160  140.3880 C   0  0  0  0  0  0  0  0  0  0  0  0
  188.6720  178.5680  138.3990 C   0  0  0  0  0  2  0  0  0  0  0  0
  188.5490  178.2330  139.8800 C   0  0  0  0  0  2  0  0  0  0  0  0
  183.6180  177.8130  139.1890 C   0  0  2  0  0  3  0  0  0  0  0  0
  185.5730  178.9060  142.3220 C   0  0  2  0  0  3  0  0  0  0  0  0
  186.9680  178.4550  141.8880 C   0  0  0  0  0  2  0  0  0  0  0  0
  182.0990  179.8670  138.9920 C   0  0  0  0  0  2  0  0  0  0  0  0
  181.5390  180.0210  137.5870 C   0  0  0  0  0  2  0  0  0  0  0  0
  179.3620  178.7860  137.7550 N   0  0  0  0  0  0  0  0  0  0  0  0
  180.0140  180.1020  137.6640 C   0  0  2  0  0  3  0  0  0  0  0  0
  179.7050  178.1030  139.0110 C   0  0  0  0  0  2  0  0  0  0  0  0
  181.0980  177.4520  138.9920 C   0  0  1  0  0  3  0  0  0  0  0  0
  179.6410  177.9440  136.5910 C   0  0  0  0  0  1  0  0  0  0  0  0
  182.2180  178.4030  139.4460 C   0  0  1  0  0  3  0  0  0  0  0  0
  180.2680  175.1120  139.2290 C   0  0  0  0  0  1  0  0  0  0  0  0
  181.0900  176.2130  139.8740 C   0  0  0  0  0  2  0  0  0  0  0  0
  180.5620  181.4830  135.6560 C   0  0  0  0  0  1  0  0  0  0  0  0
  179.4440  180.9140  136.5070 C   0  0  0  0  0  2  0  0  0  0  0  0
  184.1330  178.9990  144.3600 C   0  0  0  0  0  3  0  0  0  0  0  0
  185.3780  178.7070  143.7910 C   0  0  0  0  0  0  0  0  0  0  0  0
  186.4170  178.2320  144.6070 C   0  0  0  0  0  3  0  0  0  0  0  0
  187.3140  177.5500  146.8360 C   0  0  0  0  0  1  0  0  0  0  0  0
  184.9640  178.3470  146.5390 C   0  0  0  0  0  3  0  0  0  0  0  0
  186.2090  178.0530  145.9770 C   0  0  0  0  0  0  0  0  0  0  0  0
  183.9260  178.8200  145.7310 C   0  0  0  0  0  3  0  0  0  0  0  0
  183.0900  177.1100  136.9180 O   0  0  0  0  0  0  0  0  0  0  0  0
  183.3450  175.8050  136.4980 C   0  0  0  0  0  0  0  0  0  0  0  0
  183.6570  175.5950  135.2960 O   0  0  0  0  0  0  0  0  0  0  0  0
  183.2600  174.7440  137.4040 O   0  0  0  0  0  0  0  0  0  0  0  0
  184.3550  173.8770  137.6480 C   0  0  0  0  0  1  0  0  0  0  0  0
  1  3  1  0  0  0  0
  1  8  2  0  0  0  0
  2  7  1  0  0  0  0
  2  4  1  0  0  0  0
  3  5  1  1  0  0  0
  4  6  1  1  0  0  0
  4  1  1  0  0  0  0
  5 12  1  0  0  0  0
  6  9  1  0  0  0  0
  7 33  1  6  0  0  0
  7 11  1  0  0  0  0
  8 13  1  0  0  0  0
  9 10  1  0  0  0  0
 10  8  1  0  0  0  0
 11 21  1  6  0  0  0
 11  3  1  0  0  0  0
 12 27  1  1  0  0  0
 13 12  1  0  0  0  0
 15 17  1  0  0  0  0
 15 14  1  0  0  0  0
 16 18  1  0  0  0  0
 17 25  1  6  0  0  0
 17 16  1  0  0  0  0
 19 18  1  0  0  0  0
 19 21  1  0  0  0  0
 19 23  1  1  0  0  0
 20 16  1  0  0  0  0
 21 14  1  6  0  0  0
 22 23  1  0  0  0  0
 24 25  1  0  0  0  0
 26 32  1  0  0  0  0
 27 26  2  0  0  0  0
 27 28  1  0  0  0  0
 28 31  2  0  0  0  0
 31 30  1  0  0  0  0
 31 29  1  0  0  0  0
 32 30  2  0  0  0  0
 34 33  1  0  0  0  0
 34 36  1  0  0  0  0
 35 34  2  0  0  0  0
 36 37  1  0  0  0  0
M  END
>  <MODEL>
1

>  <REMARK>
 VINA RESULT:      -7.7      0.000      0.000
  Name = 
  7 active torsions:
  status: ('A' for Active; 'I' for Inactive)
    1  A    between atoms: O_3  and  C_21
    2  A    between atoms: C_6  and  C_31
    3  A    between atoms: C_17  and  C_23
    4  A    between atoms: C_20  and  O_25
    5  A    between atoms: C_21  and  O_25
    6  A    between atoms: C_27  and  C_33
    7  A    between atoms: C_29  and  C_36
                            x       y       z     vdW  Elec       q    Type
                         _______ _______ _______ _____ _____    ______ ____

>  <TORSDO>
F 7

$$$$
=
 OpenBabel10262422513D

 37 41  0  0  1  0  0  0  0  0999 V2000
  185.1370  178.2150  143.8750 C   0  0  0  0  0  0  0  0  0  0  0  0
  183.0480  179.3760  143.8100 O   0  0  0  0  0  0  0  0  0  0  0  0
  185.0480  177.8350  142.4120 C   0  0  2  0  0  3  0  0  0  0  0  0
  183.8120  178.4760  144.5720 C   0  0  2  0  0  3  0  0  0  0  0  0
  186.3700  178.0520  141.6860 C   0  0  0  0  0  2  0  0  0  0  0  0
  183.9790  179.0340  145.9830 C   0  0  0  0  0  2  0  0  0  0  0  0
  182.6770  178.7070  142.6290 C   0  0  2  0  0  3  0  0  0  0  0  0
  186.3030  178.0970  144.5640 C   0  0  0  0  0  0  0  0  0  0  0  0
  185.0350  178.2400  146.7310 C   0  0  0  0  0  2  0  0  0  0  0  0
  186.3770  178.4240  146.0340 C   0  0  0  0  0  2  0  0  0  0  0  0
  183.9000  178.5660  141.6970 C   0  0  2  0  0  3  0  0  0  0  0  0
  187.4660  177.3200  142.4470 C   0  0  2  0  0  3  0  0  0  0  0  0
  187.6200  177.9050  143.8510 C   0  0  0  0  0  2  0  0  0  0  0  0
  182.5480  176.7230  140.5370 C   0  0  0  0  0  2  0  0  0  0  0  0
  181.1150  177.1570  140.2750 C   0  0  0  0  0  2  0  0  0  0  0  0
  181.2720  178.1010  137.9560 N   0  0  0  0  0  0  0  0  0  0  0  0
  180.8050  176.9800  138.7880 C   0  0  2  0  0  3  0  0  0  0  0  0
  182.7380  178.2000  137.9620 C   0  0  0  0  0  2  0  0  0  0  0  0
  183.3010  178.8600  139.2320 C   0  0  1  0  0  3  0  0  0  0  0  0
  180.6450  179.3710  138.3290 C   0  0  0  0  0  1  0  0  0  0  0  0
  183.5710  177.8590  140.3680 C   0  0  1  0  0  3  0  0  0  0  0  0
  185.5880  178.6610  138.2570 C   0  0  0  0  0  1  0  0  0  0  0  0
  184.5830  179.6050  138.8910 C   0  0  0  0  0  2  0  0  0  0  0  0
  179.1090  175.9970  137.2400 C   0  0  0  0  0  1  0  0  0  0  0  0
  179.3220  176.7130  138.5600 C   0  0  0  0  0  2  0  0  0  0  0  0
  189.9630  177.3270  142.4180 C   0  0  0  0  0  3  0  0  0  0  0  0
  188.7610  177.3660  141.7010 C   0  0  0  0  0  0  0  0  0  0  0  0
  188.7930  177.4440  140.3000 C   0  0  0  0  0  3  0  0  0  0  0  0
  190.0450  177.5690  138.1420 C   0  0  0  0  0  1  0  0  0  0  0  0
  191.2130  177.4470  140.3470 C   0  0  0  0  0  3  0  0  0  0  0  0
  190.0170  177.4850  139.6260 C   0  0  0  0  0  0  0  0  0  0  0  0
  191.1860  177.3680  141.7430 C   0  0  0  0  0  3  0  0  0  0  0  0
  181.6460  179.4420  141.9830 O   0  0  0  0  0  0  0  0  0  0  0  0
  180.4220  179.6900  142.6040 C   0  0  0  0  0  0  0  0  0  0  0  0
  179.8880  178.7830  143.2960 O   0  0  0  0  0  0  0  0  0  0  0  0
  179.8010  180.9340  142.4630 O   0  0  0  0  0  0  0  0  0  0  0  0
  179.0650  181.2770  141.3000 C   0  0  0  0  0  1  0  0  0  0  0  0
  1  8  2  0  0  0  0
  1  4  1  0  0  0  0
  2  4  1  0  0  0  0
  3  5  1  6  0  0  0
  3  1  1  0  0  0  0
  4  6  1  1  0  0  0
  5 12  1  0  0  0  0
  6  9  1  0  0  0  0
  7 33  1  6  0  0  0
  7  2  1  0  0  0  0
  8 10  1  0  0  0  0
 10  9  1  0  0  0  0
 11 21  1  6  0  0  0
 11  3  1  0  0  0  0
 11  7  1  0  0  0  0
 12 27  1  6  0  0  0
 12 13  1  0  0  0  0
 13  8  1  0  0  0  0
 15 14  1  0  0  0  0
 16 18  1  0  0  0  0
 16 20  1  0  0  0  0
 16 17  1  0  0  0  0
 17 25  1  1  0  0  0
 17 15  1  0  0  0  0
 18 19  1  0  0  0  0
 19 23  1  6  0  0  0
 19 21  1  0  0  0  0
 21 14  1  1  0  0  0
 22 23  1  0  0  0  0
 24 25  1  0  0  0  0
 27 26  2  0  0  0  0
 28 27  1  0  0  0  0
 29 31  1  0  0  0  0
 30 32  2  0  0  0  0
 31 28  2  0  0  0  0
 31 30  1  0  0  0  0
 32 26  1  0  0  0  0
 33 34  1  0  0  0  0
 34 35  2  0  0  0  0
 36 34  1  0  0  0  0
 37 36  1  0  0  0  0
M  END
>  <MODEL>
2

>  <REMARK>
 VINA RESULT:      -7.5      2.837      5.967
  Name = 
  7 active torsions:
  status: ('A' for Active; 'I' for Inactive)
    1  A    between atoms: O_3  and  C_21
    2  A    between atoms: C_6  and  C_31
    3  A    between atoms: C_17  and  C_23
    4  A    between atoms: C_20  and  O_25
    5  A    between atoms: C_21  and  O_25
    6  A    between atoms: C_27  and  C_33
    7  A    between atoms: C_29  and  C_36
                            x       y       z     vdW  Elec       q    Type
                         _______ _______ _______ _____ _____    ______ ____

>  <TORSDO>
F 7

$$$$
=
 OpenBabel10262422513D

 37 41  0  0  1  0  0  0  0  0999 V2000
  186.8120  178.2460  140.2450 C   0  0  0  0  0  0  0  0  0  0  0  0
  188.8320  178.6430  141.4600 O   0  0  0  0  0  0  0  0  0  0  0  0
  186.0080  178.0550  141.5140 C   0  0  2  0  0  3  0  0  0  0  0  0
  188.2990  177.9570  140.3560 C   0  0  2  0  0  3  0  0  0  0  0  0
  184.6750  178.7940  141.4610 C   0  0  0  0  0  2  0  0  0  0  0  0
  189.0780  178.3470  139.1030 C   0  0  0  0  0  2  0  0  0  0  0  0
  188.2910  178.0510  142.6160 C   0  0  2  0  0  3  0  0  0  0  0  0
  186.2010  178.4340  139.0450 C   0  0  0  0  0  0  0  0  0  0  0  0
  188.3460  177.8590  137.8650 C   0  0  0  0  0  2  0  0  0  0  0  0
  187.0010  178.5700  137.7750 C   0  0  0  0  0  2  0  0  0  0  0  0
  186.8070  178.4490  142.7660 C   0  0  2  0  0  3  0  0  0  0  0  0
  183.9400  178.3750  140.1960 C   0  0  2  0  0  3  0  0  0  0  0  0
  184.7350  178.7870  138.9570 C   0  0  0  0  0  2  0  0  0  0  0  0
  187.0750  176.9020  144.7920 C   0  0  0  0  0  2  0  0  0  0  0  0
  187.8360  177.5800  145.9200 C   0  0  0  0  0  2  0  0  0  0  0  0
  185.9760  178.5660  147.2850 N   0  0  0  0  0  0  0  0  0  0  0  0
  186.9980  177.5110  147.1980 C   0  0  2  0  0  3  0  0  0  0  0  0
  184.9600  178.4160  146.2330 C   0  0  0  0  0  2  0  0  0  0  0  0
  185.4230  178.9270  144.8580 C   0  0  1  0  0  3  0  0  0  0  0  0
  186.5600  179.9090  147.2820 C   0  0  0  0  0  1  0  0  0  0  0  0
  186.1440  177.8550  144.0240 C   0  0  1  0  0  3  0  0  0  0  0  0
  182.9380  178.8790  144.6450 C   0  0  0  0  0  1  0  0  0  0  0  0
  184.2250  179.4570  144.0850 C   0  0  0  0  0  2  0  0  0  0  0  0
  189.3300  177.7530  148.0620 C   0  0  0  0  0  1  0  0  0  0  0  0
  187.8820  177.5050  148.4400 C   0  0  0  0  0  2  0  0  0  0  0  0
  182.1800  179.7510  139.0810 C   0  0  0  0  0  3  0  0  0  0  0  0
  182.5590  178.9470  140.1620 C   0  0  0  0  0  0  0  0  0  0  0  0
  181.6390  178.6900  141.1910 C   0  0  0  0  0  3  0  0  0  0  0  0
  179.3830  178.9620  142.2280 C   0  0  0  0  0  1  0  0  0  0  0  0
  179.9810  180.0390  140.0540 C   0  0  0  0  0  3  0  0  0  0  0  0
  180.3530  179.2360  141.1360 C   0  0  0  0  0  0  0  0  0  0  0  0
  180.8940  180.2970  139.0280 C   0  0  0  0  0  3  0  0  0  0  0  0
  189.0350  178.4790  143.7490 O   0  0  0  0  0  0  0  0  0  0  0  0
  190.4240  178.5980  143.7140 C   0  0  0  0  0  0  0  0  0  0  0  0
  190.9530  179.7080  143.9840 O   0  0  0  0  0  0  0  0  0  0  0  0
  191.2170  177.4940  143.3890 O   0  0  0  0  0  0  0  0  0  0  0  0
  191.2890  176.3500  144.2240 C   0  0  0  0  0  1  0  0  0  0  0  0
  1  4  1  0  0  0  0
  1  3  1  0  0  0  0
  2  7  1  0  0  0  0
  3  5  1  6  0  0  0
  3 11  1  0  0  0  0
  4  6  1  6  0  0  0
  4  2  1  0  0  0  0
  7 11  1  0  0  0  0
  7 33  1  1  0  0  0
  8  1  2  0  0  0  0
  9  6  1  0  0  0  0
 10  9  1  0  0  0  0
 10  8  1  0  0  0  0
 11 21  1  1  0  0  0
 12 27  1  6  0  0  0
 12  5  1  0  0  0  0
 13  8  1  0  0  0  0
 13 12  1  0  0  0  0
 14 15  1  0  0  0  0
 15 17  1  0  0  0  0
 17 16  1  0  0  0  0
 17 25  1  1  0  0  0
 18 16  1  0  0  0  0
 19 23  1  6  0  0  0
 19 18  1  0  0  0  0
 20 16  1  0  0  0  0
 21 14  1  1  0  0  0
 21 19  1  0  0  0  0
 23 22  1  0  0  0  0
 24 25  1  0  0  0  0
 26 27  1  0  0  0  0
 27 28  2  0  0  0  0
 30 31  2  0  0  0  0
 31 28  1  0  0  0  0
 31 29  1  0  0  0  0
 32 26  2  0  0  0  0
 32 30  1  0  0  0  0
 34 33  1  0  0  0  0
 34 35  2  0  0  0  0
 36 34  1  0  0  0  0
 36 37  1  0  0  0  0
M  END
>  <MODEL>
3

>  <REMARK>
 VINA RESULT:      -7.2      3.656      8.070
  Name = 
  7 active torsions:
  status: ('A' for Active; 'I' for Inactive)
    1  A    between atoms: O_3  and  C_21
    2  A    between atoms: C_6  and  C_31
    3  A    between atoms: C_17  and  C_23
    4  A    between atoms: C_20  and  O_25
    5  A    between atoms: C_21  and  O_25
    6  A    between atoms: C_27  and  C_33
    7  A    between atoms: C_29  and  C_36
                            x       y       z     vdW  Elec       q    Type
                         _______ _______ _______ _____ _____    ______ ____

>  <TORSDO>
F 7

$$$$
=
 OpenBabel10262422513D

 37 41  0  0  1  0  0  0  0  0999 V2000
  188.3940  177.7700  139.9320 C   0  0  0  0  0  0  0  0  0  0  0  0
  187.1220  177.2580  137.9740 O   0  0  0  0  0  0  0  0  0  0  0  0
  187.1930  178.3630  140.6390 C   0  0  2  0  0  3  0  0  0  0  0  0
  188.3440  177.7930  138.4130 C   0  0  2  0  0  3  0  0  0  0  0  0
  187.0940  177.8910  142.0850 C   0  0  0  0  0  2  0  0  0  0  0  0
  189.4890  177.0170  137.7670 C   0  0  0  0  0  2  0  0  0  0  0  0
  186.1140  178.1640  138.3530 C   0  0  2  0  0  3  0  0  0  0  0  0
  189.5300  177.4600  140.6120 C   0  0  0  0  0  0  0  0  0  0  0  0
  190.8010  177.3710  138.4440 C   0  0  0  0  0  2  0  0  0  0  0  0
  190.7430  176.9200  139.8980 C   0  0  0  0  0  2  0  0  0  0  0  0
  185.8860  178.0900  139.8780 C   0  0  2  0  0  3  0  0  0  0  0  0
  188.4190  178.1730  142.7780 C   0  0  2  0  0  3  0  0  0  0  0  0
  189.5450  177.3760  142.1190 C   0  0  0  0  0  2  0  0  0  0  0  0
  184.2260  179.9400  139.2560 C   0  0  0  0  0  2  0  0  0  0  0  0
  182.9820  179.3790  138.5870 C   0  0  0  0  0  2  0  0  0  0  0  0
  181.4420  179.0550  140.5410 N   0  0  0  0  0  0  0  0  0  0  0  0
  181.7470  179.8620  139.3480 C   0  0  2  0  0  3  0  0  0  0  0  0
  182.5010  179.1720  141.5530 C   0  0  0  0  0  2  0  0  0  0  0  0
  183.7400  178.3150  141.2440 C   0  0  1  0  0  3  0  0  0  0  0  0
  181.1650  177.6550  140.2110 C   0  0  0  0  0  1  0  0  0  0  0  0
  184.7790  179.0410  140.3740 C   0  0  1  0  0  3  0  0  0  0  0  0
  183.7900  178.6290  143.7180 C   0  0  0  0  0  1  0  0  0  0  0  0
  184.3860  177.8690  142.5470 C   0  0  0  0  0  2  0  0  0  0  0  0
  180.8830  180.7180  137.1670 C   0  0  0  0  0  1  0  0  0  0  0  0
  180.5330  179.9570  138.4310 C   0  0  0  0  0  2  0  0  0  0  0  0
  187.0910  177.9420  144.8810 C   0  0  0  0  0  3  0  0  0  0  0  0
  188.3350  177.8750  144.2410 C   0  0  0  0  0  0  0  0  0  0  0  0
  189.4760  177.5270  144.9800 C   0  0  0  0  0  3  0  0  0  0  0  0
  190.5830  176.8850  147.1250 C   0  0  0  0  0  1  0  0  0  0  0  0
  188.1270  177.3210  146.9800 C   0  0  0  0  0  3  0  0  0  0  0  0
  189.3710  177.2520  146.3460 C   0  0  0  0  0  0  0  0  0  0  0  0
  186.9880  177.6660  146.2470 C   0  0  0  0  0  3  0  0  0  0  0  0
  184.9160  177.8450  137.6580 O   0  0  0  0  0  0  0  0  0  0  0  0
  184.8730  176.8390  136.6930 C   0  0  0  0  0  0  0  0  0  0  0  0
  185.2190  177.1050  135.5120 O   0  0  0  0  0  0  0  0  0  0  0  0
  184.4560  175.5510  137.0370 O   0  0  0  0  0  0  0  0  0  0  0  0
  183.4970  175.3200  138.0570 C   0  0  0  0  0  1  0  0  0  0  0  0
  1  8  2  0  0  0  0
  1  3  1  0  0  0  0
  2  7  1  0  0  0  0
  2  4  1  0  0  0  0
  3  5  1  1  0  0  0
  4  6  1  6  0  0  0
  4  1  1  0  0  0  0
  5 12  1  0  0  0  0
  6  9  1  0  0  0  0
  7 33  1  6  0  0  0
  7 11  1  0  0  0  0
  8 13  1  0  0  0  0
  9 10  1  0  0  0  0
 10  8  1  0  0  0  0
 11 21  1  1  0  0  0
 11  3  1  0  0  0  0
 12 27  1  1  0  0  0
 13 12  1  0  0  0  0
 15 14  1  0  0  0  0
 15 17  1  0  0  0  0
 16 18  1  0  0  0  0
 17 25  1  6  0  0  0
 17 16  1  0  0  0  0
 19 18  1  0  0  0  0
 19 23  1  1  0  0  0
 20 16  1  0  0  0  0
 21 14  1  6  0  0  0
 21 19  1  0  0  0  0
 23 22  1  0  0  0  0
 24 25  1  0  0  0  0
 26 32  1  0  0  0  0
 27 26  2  0  0  0  0
 27 28  1  0  0  0  0
 28 31  2  0  0  0  0
 31 30  1  0  0  0  0
 31 29  1  0  0  0  0
 32 30  2  0  0  0  0
 34 36  1  0  0  0  0
 34 33  1  0  0  0  0
 35 34  2  0  0  0  0
 36 37  1  0  0  0  0
M  END
>  <MODEL>
4

>  <REMARK>
 VINA RESULT:      -6.8      1.666      2.952
  Name = 
  7 active torsions:
  status: ('A' for Active; 'I' for Inactive)
    1  A    between atoms: O_3  and  C_21
    2  A    between atoms: C_6  and  C_31
    3  A    between atoms: C_17  and  C_23
    4  A    between atoms: C_20  and  O_25
    5  A    between atoms: C_21  and  O_25
    6  A    between atoms: C_27  and  C_33
    7  A    between atoms: C_29  and  C_36
                            x       y       z     vdW  Elec       q    Type
                         _______ _______ _______ _____ _____    ______ ____

>  <TORSDO>
F 7

$$$$
=
 OpenBabel10262422513D

 37 41  0  0  1  0  0  0  0  0999 V2000
  187.9710  177.8770  139.8560 C   0  0  0  0  0  0  0  0  0  0  0  0
  186.7310  177.3400  137.8830 O   0  0  0  0  0  0  0  0  0  0  0  0
  186.7580  178.4800  140.5340 C   0  0  2  0  0  3  0  0  0  0  0  0
  187.9460  177.8800  138.3360 C   0  0  2  0  0  3  0  0  0  0  0  0
  186.6340  178.0270  141.9840 C   0  0  0  0  0  2  0  0  0  0  0  0
  189.1010  177.0950  137.7190 C   0  0  0  0  0  2  0  0  0  0  0  0
  185.7170  178.2510  138.2330 C   0  0  2  0  0  3  0  0  0  0  0  0
  189.0940  177.5760  140.5580 C   0  0  0  0  0  0  0  0  0  0  0  0
  190.4020  177.4580  138.4130 C   0  0  0  0  0  2  0  0  0  0  0  0
  190.3190  177.0270  139.8720 C   0  0  0  0  0  2  0  0  0  0  0  0
  185.4640  178.1970  139.7550 C   0  0  2  0  0  3  0  0  0  0  0  0
  187.9470  178.3180  142.6970 C   0  0  2  0  0  3  0  0  0  0  0  0
  189.0840  177.5120  142.0670 C   0  0  0  0  0  2  0  0  0  0  0  0
  183.8840  180.1080  139.1060 C   0  0  0  0  0  2  0  0  0  0  0  0
  182.6720  179.6010  138.3420 C   0  0  0  0  0  2  0  0  0  0  0  0
  181.0090  179.2410  140.1860 N   0  0  0  0  0  0  0  0  0  0  0  0
  181.4030  180.0840  139.0460 C   0  0  2  0  0  3  0  0  0  0  0  0
  182.0060  179.2950  141.2640 C   0  0  0  0  0  2  0  0  0  0  0  0
  183.2430  178.4210  140.9970 C   0  0  1  0  0  3  0  0  0  0  0  0
  180.7230  177.8610  139.7860 C   0  0  0  0  0  1  0  0  0  0  0  0
  184.3490  179.1540  140.2200 C   0  0  1  0  0  3  0  0  0  0  0  0
  183.3390  178.8000  143.4600 C   0  0  0  0  0  1  0  0  0  0  0  0
  183.7990  177.9120  142.3190 C   0  0  0  0  0  2  0  0  0  0  0  0
  180.2500  181.6360  137.4630 C   0  0  0  0  0  1  0  0  0  0  0  0
  180.2500  180.2420  138.0610 C   0  0  0  0  0  2  0  0  0  0  0  0
  188.9520  177.5370  144.8450 C   0  0  0  0  0  3  0  0  0  0  0  0
  187.8380  178.0390  144.1610 C   0  0  0  0  0  0  0  0  0  0  0  0
  186.6430  178.2720  144.8600 C   0  0  0  0  0  3  0  0  0  0  0  0
  185.3000  178.2520  146.9660 C   0  0  0  0  0  1  0  0  0  0  0  0
  187.6820  177.5030  146.9070 C   0  0  0  0  0  3  0  0  0  0  0  0
  186.5670  178.0040  146.2300 C   0  0  0  0  0  0  0  0  0  0  0  0
  188.8740  177.2690  146.2150 C   0  0  0  0  0  3  0  0  0  0  0  0
  184.5310  177.9230  137.5230 O   0  0  0  0  0  0  0  0  0  0  0  0
  184.4210  176.7470  136.7800 C   0  0  0  0  0  0  0  0  0  0  0  0
  184.5820  176.7910  135.5320 O   0  0  0  0  0  0  0  0  0  0  0  0
  184.1420  175.5360  137.4170 O   0  0  0  0  0  0  0  0  0  0  0  0
  183.0760  175.4040  138.3440 C   0  0  0  0  0  1  0  0  0  0  0  0
  1  3  1  0  0  0  0
  1  8  2  0  0  0  0
  2  7  1  0  0  0  0
  2  4  1  0  0  0  0
  3  5  1  1  0  0  0
  4  6  1  6  0  0  0
  4  1  1  0  0  0  0
  5 12  1  0  0  0  0
  6  9  1  0  0  0  0
  7 33  1  6  0  0  0
  7 11  1  0  0  0  0
  8 13  1  0  0  0  0
  9 10  1  0  0  0  0
 10  8  1  0  0  0  0
 11 21  1  6  0  0  0
 11  3  1  0  0  0  0
 12 27  1  1  0  0  0
 13 12  1  0  0  0  0
 15 17  1  0  0  0  0
 15 14  1  0  0  0  0
 16 18  1  0  0  0  0
 17 25  1  6  0  0  0
 17 16  1  0  0  0  0
 19 18  1  0  0  0  0
 19 23  1  1  0  0  0
 20 16  1  0  0  0  0
 21 14  1  6  0  0  0
 21 19  1  0  0  0  0
 23 22  1  0  0  0  0
 24 25  1  0  0  0  0
 26 32  1  0  0  0  0
 27 26  2  0  0  0  0
 27 28  1  0  0  0  0
 28 31  2  0  0  0  0
 31 30  1  0  0  0  0
 31 29  1  0  0  0  0
 32 30  2  0  0  0  0
 34 36  1  0  0  0  0
 34 33  1  0  0  0  0
 35 34  2  0  0  0  0
 36 37  1  0  0  0  0
M  END
>  <MODEL>
5

>  <REMARK>
 VINA RESULT:      -6.6      1.442      2.649
  Name = 
  7 active torsions:
  status: ('A' for Active; 'I' for Inactive)
    1  A    between atoms: O_3  and  C_21
    2  A    between atoms: C_6  and  C_31
    3  A    between atoms: C_17  and  C_23
    4  A    between atoms: C_20  and  O_25
    5  A    between atoms: C_21  and  O_25
    6  A    between atoms: C_27  and  C_33
    7  A    between atoms: C_29  and  C_36
                            x       y       z     vdW  Elec       q    Type
                         _______ _______ _______ _____ _____    ______ ____

>  <TORSDO>
F 7

$$$$
=
 OpenBabel10262422513D

 37 41  0  0  1  0  0  0  0  0999 V2000
  184.5660  177.8110  138.3180 C   0  0  0  0  0  0  0  0  0  0  0  0
  183.7210  176.3860  136.5940 O   0  0  0  0  0  0  0  0  0  0  0  0
  183.2260  177.8650  139.0220 C   0  0  2  0  0  3  0  0  0  0  0  0
  184.5170  177.5200  136.8270 C   0  0  2  0  0  3  0  0  0  0  0  0
  183.3680  177.6870  140.5290 C   0  0  0  0  0  2  0  0  0  0  0  0
  185.8970  177.2940  136.2180 C   0  0  0  0  0  2  0  0  0  0  0  0
  182.3950  176.7390  136.9080 C   0  0  2  0  0  3  0  0  0  0  0  0
  185.7030  178.2270  138.9340 C   0  0  0  0  0  0  0  0  0  0  0  0
  186.8600  178.3620  136.7050 C   0  0  0  0  0  2  0  0  0  0  0  0
  187.0270  178.2240  138.2140 C   0  0  0  0  0  2  0  0  0  0  0  0
  182.2280  176.8520  138.4380 C   0  0  2  0  0  3  0  0  0  0  0  0
  184.3760  178.7030  141.0440 C   0  0  2  0  0  3  0  0  0  0  0  0
  185.7520  178.4480  140.4280 C   0  0  0  0  0  2  0  0  0  0  0  0
  180.4070  176.6050  140.2240 C   0  0  0  0  0  2  0  0  0  0  0  0
  180.6400  177.5420  141.3990 C   0  0  0  0  0  2  0  0  0  0  0  0
  179.3030  179.5570  140.7290 N   0  0  0  0  0  0  0  0  0  0  0  0
  179.3840  178.3860  141.6180 C   0  0  2  0  0  3  0  0  0  0  0  0
  179.1700  179.1550  139.3220 C   0  0  0  0  0  2  0  0  0  0  0  0
  180.4990  178.7150  138.6840 C   0  0  1  0  0  3  0  0  0  0  0  0
  180.4240  180.4800  140.9220 C   0  0  0  0  0  1  0  0  0  0  0  0
  180.7940  177.2170  138.8670 C   0  0  1  0  0  3  0  0  0  0  0  0
  180.9080  180.4970  136.9880 C   0  0  0  0  0  1  0  0  0  0  0  0
  180.4850  179.0560  137.2010 C   0  0  0  0  0  2  0  0  0  0  0  0
  180.0510  177.8790  143.9710 C   0  0  0  0  0  1  0  0  0  0  0  0
  179.2430  178.8000  143.0780 C   0  0  0  0  0  2  0  0  0  0  0  0
  183.3290  179.0890  143.2780 C   0  0  0  0  0  3  0  0  0  0  0  0
  184.4460  178.6830  142.5380 C   0  0  0  0  0  0  0  0  0  0  0  0
  185.6060  178.2640  143.2080 C   0  0  0  0  0  3  0  0  0  0  0  0
  186.8760  177.8080  145.3090 C   0  0  0  0  0  1  0  0  0  0  0  0
  184.5280  178.6600  145.3390 C   0  0  0  0  0  3  0  0  0  0  0  0
  185.6450  178.2530  144.6050 C   0  0  0  0  0  0  0  0  0  0  0  0
  183.3700  179.0790  144.6760 C   0  0  0  0  0  3  0  0  0  0  0  0
  181.5150  175.7530  136.3860 O   0  0  0  0  0  0  0  0  0  0  0  0
  181.7280  174.3910  136.6010 C   0  0  0  0  0  0  0  0  0  0  0  0
  182.3660  173.7260  135.7430 O   0  0  0  0  0  0  0  0  0  0  0  0
  181.2430  173.7770  137.7580 O   0  0  0  0  0  0  0  0  0  0  0  0
  179.8540  173.6190  137.9980 C   0  0  0  0  0  1  0  0  0  0  0  0
  1  8  2  0  0  0  0
  1  3  1  0  0  0  0
  2  4  1  0  0  0  0
  2  7  1  0  0  0  0
  3  5  1  1  0  0  0
  4  6  1  1  0  0  0
  4  1  1  0  0  0  0
  5 12  1  0  0  0  0
  6  9  1  0  0  0  0
  7 33  1  1  0  0  0
  7 11  1  0  0  0  0
  8 13  1  0  0  0  0
  9 10  1  0  0  0  0
 10  8  1  0  0  0  0
 11 21  1  6  0  0  0
 11  3  1  0  0  0  0
 12 27  1  1  0  0  0
 13 12  1  0  0  0  0
 14 15  1  0  0  0  0
 15 17  1  0  0  0  0
 16 20  1  0  0  0  0
 16 17  1  0  0  0  0
 17 25  1  1  0  0  0
 18 16  1  0  0  0  0
 19 23  1  6  0  0  0
 19 21  1  0  0  0  0
 19 18  1  0  0  0  0
 21 14  1  1  0  0  0
 22 23  1  0  0  0  0
 25 24  1  0  0  0  0
 26 32  1  0  0  0  0
 27 28  1  0  0  0  0
 27 26  2  0  0  0  0
 28 31  2  0  0  0  0
 31 29  1  0  0  0  0
 31 30  1  0  0  0  0
 32 30  2  0  0  0  0
 33 34  1  0  0  0  0
 34 36  1  0  0  0  0
 35 34  2  0  0  0  0
 36 37  1  0  0  0  0
M  END
>  <MODEL>
6

>  <REMARK>
 VINA RESULT:      -6.6      1.768      3.238
  Name = 
  7 active torsions:
  status: ('A' for Active; 'I' for Inactive)
    1  A    between atoms: O_3  and  C_21
    2  A    between atoms: C_6  and  C_31
    3  A    between atoms: C_17  and  C_23
    4  A    between atoms: C_20  and  O_25
    5  A    between atoms: C_21  and  O_25
    6  A    between atoms: C_27  and  C_33
    7  A    between atoms: C_29  and  C_36
                            x       y       z     vdW  Elec       q    Type
                         _______ _______ _______ _____ _____    ______ ____

>  <TORSDO>
F 7

$$$$
=
 OpenBabel10262422513D

 37 41  0  0  1  0  0  0  0  0999 V2000
  186.4260  178.1400  142.0290 C   0  0  0  0  0  0  0  0  0  0  0  0
  186.9540  178.8930  139.8220 O   0  0  0  0  0  0  0  0  0  0  0  0
  187.7890  177.5070  142.2110 C   0  0  2  0  0  3  0  0  0  0  0  0
  185.9510  178.2820  140.5920 C   0  0  2  0  0  3  0  0  0  0  0  0
  188.3850  177.8240  143.5790 C   0  0  0  0  0  2  0  0  0  0  0  0
  184.6640  179.0920  140.4660 C   0  0  0  0  0  2  0  0  0  0  0  0
  188.0210  177.9780  139.7310 C   0  0  2  0  0  3  0  0  0  0  0  0
  185.5960  178.3460  143.0860 C   0  0  0  0  0  0  0  0  0  0  0  0
  183.6590  178.6330  141.5080 C   0  0  0  0  0  2  0  0  0  0  0  0
  184.2180  178.9260  142.8950 C   0  0  0  0  0  2  0  0  0  0  0  0
  188.7590  177.8950  141.0840 C   0  0  2  0  0  3  0  0  0  0  0  0
  187.3750  177.4340  144.6490 C   0  0  2  0  0  3  0  0  0  0  0  0
  186.1010  178.2670  144.5070 C   0  0  0  0  0  2  0  0  0  0  0  0
  189.9920  176.0530  139.7970 C   0  0  0  0  0  2  0  0  0  0  0  0
  190.8630  176.6270  138.6910 C   0  0  0  0  0  2  0  0  0  0  0  0
  193.0710  176.8920  139.8520 N   0  0  0  0  0  0  0  0  0  0  0  0
  192.2940  176.1180  138.8700 C   0  0  2  0  0  3  0  0  0  0  0  0
  192.5160  176.7530  141.2060 C   0  0  0  0  0  2  0  0  0  0  0  0
  191.2720  177.6240  141.4480 C   0  0  1  0  0  3  0  0  0  0  0  0
  193.2100  178.2980  139.4680 C   0  0  0  0  0  1  0  0  0  0  0  0
  189.9570  176.9260  141.0630 C   0  0  1  0  0  3  0  0  0  0  0  0
  191.6800  176.8960  143.7990 C   0  0  0  0  0  1  0  0  0  0  0  0
  191.2210  178.0380  142.9120 C   0  0  0  0  0  2  0  0  0  0  0  0
  193.9140  174.8130  137.4870 C   0  0  0  0  0  1  0  0  0  0  0  0
  193.0250  176.0410  137.5350 C   0  0  0  0  0  2  0  0  0  0  0  0
  187.1590  178.0690  147.0540 C   0  0  0  0  0  3  0  0  0  0  0  0
  187.9600  177.5760  146.0170 C   0  0  0  0  0  0  0  0  0  0  0  0
  189.2930  177.2230  146.2800 C   0  0  0  0  0  3  0  0  0  0  0  0
  191.2290  176.9910  147.8410 C   0  0  0  0  0  1  0  0  0  0  0  0
  189.0120  177.8580  148.5990 C   0  0  0  0  0  3  0  0  0  0  0  0
  189.8160  177.3650  147.5680 C   0  0  0  0  0  0  0  0  0  0  0  0
  187.6840  178.2100  148.3420 C   0  0  0  0  0  3  0  0  0  0  0  0
  188.9110  178.4020  138.7070 O   0  0  0  0  0  0  0  0  0  0  0  0
  188.5680  178.3250  137.3580 C   0  0  0  0  0  0  0  0  0  0  0  0
  189.1110  179.1140  136.5400 O   0  0  0  0  0  0  0  0  0  0  0  0
  187.6370  177.3790  136.9200 O   0  0  0  0  0  0  0  0  0  0  0  0
  186.3320  177.7470  136.5060 C   0  0  0  0  0  1  0  0  0  0  0  0
  1  3  1  0  0  0  0
  1  8  2  0  0  0  0
  2  4  1  0  0  0  0
  3  5  1  1  0  0  0
  4  6  1  1  0  0  0
  4  1  1  0  0  0  0
  5 12  1  0  0  0  0
  6  9  1  0  0  0  0
  7 33  1  6  0  0  0
  7  2  1  0  0  0  0
  7 11  1  0  0  0  0
  8 13  1  0  0  0  0
  9 10  1  0  0  0  0
 10  8  1  0  0  0  0
 11 21  1  6  0  0  0
 11  3  1  0  0  0  0
 12 27  1  1  0  0  0
 13 12  1  0  0  0  0
 15 17  1  0  0  0  0
 15 14  1  0  0  0  0
 16 18  1  0  0  0  0
 17 25  1  6  0  0  0
 17 16  1  0  0  0  0
 18 19  1  0  0  0  0
 19 23  1  1  0  0  0
 20 16  1  0  0  0  0
 21 14  1  6  0  0  0
 21 19  1  0  0  0  0
 23 22  1  0  0  0  0
 24 25  1  0  0  0  0
 26 32  1  0  0  0  0
 27 28  1  0  0  0  0
 27 26  2  0  0  0  0
 28 31  2  0  0  0  0
 31 29  1  0  0  0  0
 31 30  1  0  0  0  0
 32 30  2  0  0  0  0
 34 33  1  0  0  0  0
 35 34  2  0  0  0  0
 36 34  1  0  0  0  0
 37 36  1  0  0  0  0
M  END
>  <MODEL>
7

>  <REMARK>
 VINA RESULT:      -6.3      4.095      7.854
  Name = 
  7 active torsions:
  status: ('A' for Active; 'I' for Inactive)
    1  A    between atoms: O_3  and  C_21
    2  A    between atoms: C_6  and  C_31
    3  A    between atoms: C_17  and  C_23
    4  A    between atoms: C_20  and  O_25
    5  A    between atoms: C_21  and  O_25
    6  A    between atoms: C_27  and  C_33
    7  A    between atoms: C_29  and  C_36
                            x       y       z     vdW  Elec       q    Type
                         _______ _______ _______ _____ _____    ______ ____

>  <TORSDO>
F 7

$$$$
=
 OpenBabel10262422513D

 37 41  0  0  1  0  0  0  0  0999 V2000
  186.9960  178.1020  141.3290 C   0  0  0  0  0  0  0  0  0  0  0  0
  185.1700  179.6250  141.0810 O   0  0  0  0  0  0  0  0  0  0  0  0
  187.1020  177.8830  139.8340 C   0  0  2  0  0  3  0  0  0  0  0  0
  185.6300  178.5330  141.8360 C   0  0  2  0  0  3  0  0  0  0  0  0
  188.5490  177.9220  139.3550 C   0  0  0  0  0  2  0  0  0  0  0  0
  185.6370  178.9170  143.3130 C   0  0  0  0  0  2  0  0  0  0  0  0
  184.9060  179.1490  139.7830 C   0  0  2  0  0  3  0  0  0  0  0  0
  187.9870  177.7090  142.1710 C   0  0  0  0  0  0  0  0  0  0  0  0
  186.4010  177.8770  144.1150 C   0  0  0  0  0  2  0  0  0  0  0  0
  187.8560  177.8780  143.6630 C   0  0  0  0  0  2  0  0  0  0  0  0
  186.2330  178.8740  139.0440 C   0  0  2  0  0  3  0  0  0  0  0  0
  189.3600  176.9340  140.1820 C   0  0  2  0  0  3  0  0  0  0  0  0
  189.3590  177.3470  141.6540 C   0  0  0  0  0  2  0  0  0  0  0  0
  187.1880  178.7600  136.6680 C   0  0  0  0  0  2  0  0  0  0  0  0
  188.2560  177.6860  136.5420 C   0  0  0  0  0  2  0  0  0  0  0  0
  186.9140  175.7050  135.7850 N   0  0  0  0  0  0  0  0  0  0  0  0
  187.8810  176.7450  135.3960 C   0  0  2  0  0  3  0  0  0  0  0  0
  185.6150  176.2890  136.1500 C   0  0  0  0  0  2  0  0  0  0  0  0
  185.5920  176.8930  137.5640 C   0  0  1  0  0  3  0  0  0  0  0  0
  187.4290  174.8340  136.8440 C   0  0  0  0  0  1  0  0  0  0  0  0
  186.0310  178.3660  137.6030 C   0  0  1  0  0  3  0  0  0  0  0  0
  183.1490  176.9680  137.0680 C   0  0  0  0  0  1  0  0  0  0  0  0
  184.1940  176.7610  138.1490 C   0  0  0  0  0  2  0  0  0  0  0  0
  190.3040  177.0660  134.8790 C   0  0  0  0  0  1  0  0  0  0  0  0
  189.1200  176.1250  134.7610 C   0  0  0  0  0  2  0  0  0  0  0  0
  191.7900  177.4950  140.3090 C   0  0  0  0  0  3  0  0  0  0  0  0
  190.7550  176.8130  139.6590 C   0  0  0  0  0  0  0  0  0  0  0  0
  191.0450  176.0270  138.5320 C   0  0  0  0  0  3  0  0  0  0  0  0
  192.6590  175.0950  136.8700 C   0  0  0  0  0  1  0  0  0  0  0  0
  193.3860  176.6120  138.7170 C   0  0  0  0  0  3  0  0  0  0  0  0
  192.3580  175.9280  138.0630 C   0  0  0  0  0  0  0  0  0  0  0  0
  193.1020  177.3960  139.8390 C   0  0  0  0  0  3  0  0  0  0  0  0
  184.1390  180.1160  139.0800 O   0  0  0  0  0  0  0  0  0  0  0  0
  182.7440  180.1030  139.0990 C   0  0  0  0  0  0  0  0  0  0  0  0
  182.1120  180.9010  138.3580 O   0  0  0  0  0  0  0  0  0  0  0  0
  182.0600  179.2090  139.9260 O   0  0  0  0  0  0  0  0  0  0  0  0
  180.8680  178.5630  139.5090 C   0  0  0  0  0  1  0  0  0  0  0  0
  1  4  1  0  0  0  0
  1  8  2  0  0  0  0
  2  4  1  0  0  0  0
  3  5  1  6  0  0  0
  3  1  1  0  0  0  0
  4  6  1  1  0  0  0
  5 12  1  0  0  0  0
  6  9  1  0  0  0  0
  7 33  1  6  0  0  0
  7  2  1  0  0  0  0
  8 10  1  0  0  0  0
 10  9  1  0  0  0  0
 11 21  1  6  0  0  0
 11  7  1  0  0  0  0
 11  3  1  0  0  0  0
 12 27  1  6  0  0  0
 12 13  1  0  0  0  0
 13  8  1  0  0  0  0
 15 14  1  0  0  0  0
 16 18  1  0  0  0  0
 16 20  1  0  0  0  0
 17 25  1  1  0  0  0
 17 16  1  0  0  0  0
 17 15  1  0  0  0  0
 18 19  1  0  0  0  0
 19 21  1  0  0  0  0
 19 23  1  6  0  0  0
 21 14  1  6  0  0  0
 22 23  1  0  0  0  0
 25 24  1  0  0  0  0
 27 26  2  0  0  0  0
 28 27  1  0  0  0  0
 29 31  1  0  0  0  0
 30 32  2  0  0  0  0
 31 28  2  0  0  0  0
 31 30  1  0  0  0  0
 32 26  1  0  0  0  0
 33 34  1  0  0  0  0
 34 36  1  0  0  0  0
 35 34  2  0  0  0  0
 37 36  1  0  0  0  0
M  END
>  <MODEL>
8

>  <REMARK>
 VINA RESULT:      -6.2      3.018      6.757
  Name = 
  7 active torsions:
  status: ('A' for Active; 'I' for Inactive)
    1  A    between atoms: O_3  and  C_21
    2  A    between atoms: C_6  and  C_31
    3  A    between atoms: C_17  and  C_23
    4  A    between atoms: C_20  and  O_25
    5  A    between atoms: C_21  and  O_25
    6  A    between atoms: C_27  and  C_33
    7  A    between atoms: C_29  and  C_36
                            x       y       z     vdW  Elec       q    Type
                         _______ _______ _______ _____ _____    ______ ____

>  <TORSDO>
F 7

$$$$
=
 OpenBabel10262422513D

 37 41  0  0  1  0  0  0  0  0999 V2000
  186.2250  178.4530  140.2010 C   0  0  0  0  0  0  0  0  0  0  0  0
  185.6300  177.8720  142.4430 O   0  0  0  0  0  0  0  0  0  0  0  0
  187.7070  178.3490  140.4970 C   0  0  2  0  0  3  0  0  0  0  0  0
  185.3340  178.7580  141.3940 C   0  0  2  0  0  3  0  0  0  0  0  0
  188.4550  177.5980  139.4010 C   0  0  0  0  0  2  0  0  0  0  0  0
  183.8470  178.6630  141.0660 C   0  0  0  0  0  2  0  0  0  0  0  0
  186.9220  178.1920  142.9030 C   0  0  2  0  0  3  0  0  0  0  0  0
  185.7630  178.5020  138.9240 C   0  0  0  0  0  0  0  0  0  0  0  0
  183.5580  179.3770  139.7580 C   0  0  0  0  0  2  0  0  0  0  0  0
  184.2930  178.6600  138.6320 C   0  0  0  0  0  2  0  0  0  0  0  0
  187.9760  177.7260  141.8760 C   0  0  2  0  0  3  0  0  0  0  0  0
  188.1370  178.2500  138.0630 C   0  0  2  0  0  3  0  0  0  0  0  0
  186.6440  178.1310  137.7550 C   0  0  0  0  0  2  0  0  0  0  0  0
  189.5060  178.5780  143.7470 C   0  0  0  0  0  2  0  0  0  0  0  0
  189.7600  177.5080  144.7970 C   0  0  0  0  0  2  0  0  0  0  0  0
  191.8690  176.4420  143.9530 N   0  0  0  0  0  0  0  0  0  0  0  0
  191.2690  177.3260  144.9660 C   0  0  2  0  0  3  0  0  0  0  0  0
  191.7720  177.0240  142.6070 C   0  0  0  0  0  2  0  0  0  0  0  0
  190.3800  176.8680  141.9730 C   0  0  1  0  0  3  0  0  0  0  0  0
  191.3120  175.0880  143.9960 C   0  0  0  0  0  1  0  0  0  0  0  0
  189.4230  178.0220  142.3150 C   0  0  1  0  0  3  0  0  0  0  0  0
  191.9240  177.1410  140.0330 C   0  0  0  0  0  1  0  0  0  0  0  0
  190.5210  176.7520  140.4620 C   0  0  0  0  0  2  0  0  0  0  0  0
  190.3650  176.7700  147.2270 C   0  0  0  0  0  1  0  0  0  0  0  0
  191.6150  176.8550  146.3740 C   0  0  0  0  0  2  0  0  0  0  0  0
  188.5740  177.8590  135.6360 C   0  0  0  0  0  3  0  0  0  0  0  0
  188.9610  177.6550  136.9660 C   0  0  0  0  0  0  0  0  0  0  0  0
  190.1110  176.9010  137.2460 C   0  0  0  0  0  3  0  0  0  0  0  0
  192.0820  175.5590  136.5040 C   0  0  0  0  0  1  0  0  0  0  0  0
  190.4740  176.5630  134.8760 C   0  0  0  0  0  3  0  0  0  0  0  0
  190.8650  176.3570  136.2020 C   0  0  0  0  0  0  0  0  0  0  0  0
  189.3290  177.3130  134.5940 C   0  0  0  0  0  3  0  0  0  0  0  0
  187.1390  177.5590  144.1560 O   0  0  0  0  0  0  0  0  0  0  0  0
  186.3930  177.8920  145.2860 C   0  0  0  0  0  0  0  0  0  0  0  0
  186.4410  177.1430  146.2970 O   0  0  0  0  0  0  0  0  0  0  0  0
  185.6080  179.0480  145.2960 O   0  0  0  0  0  0  0  0  0  0  0  0
  184.2110  179.0040  145.5380 C   0  0  0  0  0  1  0  0  0  0  0  0
  1  3  1  0  0  0  0
  1  4  1  0  0  0  0
  2  7  1  0  0  0  0
  3  5  1  6  0  0  0
  3 11  1  0  0  0  0
  4  6  1  6  0  0  0
  4  2  1  0  0  0  0
  7 33  1  1  0  0  0
  8  1  2  0  0  0  0
  9  6  1  0  0  0  0
 10  8  1  0  0  0  0
 10  9  1  0  0  0  0
 11 21  1  1  0  0  0
 11  7  1  0  0  0  0
 12 27  1  6  0  0  0
 12  5  1  0  0  0  0
 13 12  1  0  0  0  0
 13  8  1  0  0  0  0
 14 15  1  0  0  0  0
 15 17  1  0  0  0  0
 16 20  1  0  0  0  0
 16 17  1  0  0  0  0
 17 25  1  1  0  0  0
 18 16  1  0  0  0  0
 19 23  1  6  0  0  0
 19 21  1  0  0  0  0
 19 18  1  0  0  0  0
 21 14  1  1  0  0  0
 22 23  1  0  0  0  0
 25 24  1  0  0  0  0
 26 27  1  0  0  0  0
 27 28  2  0  0  0  0
 30 31  2  0  0  0  0
 31 29  1  0  0  0  0
 31 28  1  0  0  0  0
 32 30  1  0  0  0  0
 32 26  2  0  0  0  0
 33 34  1  0  0  0  0
 34 36  1  0  0  0  0
 34 35  2  0  0  0  0
 36 37  1  0  0  0  0
M  END
>  <MODEL>
9

>  <REMARK>
 VINA RESULT:      -6.2      4.221      9.550
  Name = 
  7 active torsions:
  status: ('A' for Active; 'I' for Inactive)
    1  A    between atoms: O_3  and  C_21
    2  A    between atoms: C_6  and  C_31
    3  A    between atoms: C_17  and  C_23
    4  A    between atoms: C_20  and  O_25
    5  A    between atoms: C_21  and  O_25
    6  A    between atoms: C_27  and  C_33
    7  A    between atoms: C_29  and  C_36
                            x       y       z     vdW  Elec       q    Type
                         _______ _______ _______ _____ _____    ______ ____

>  <TORSDO>
F 7

$$$$
