=
 OpenBabel10262423013D

 37 36  0  0  1  0  0  0  0  0999 V2000
  190.0420  176.9390  140.9240 C   0  0  2  0  0  3  0  0  0  0  0  0
  190.0290  176.8930  142.4620 C   0  0  1  0  0  3  0  0  0  0  0  0
  188.2680  175.8030  143.0480 O   0  0  0  0  0  1  0  0  0  0  0  0
  189.5760  175.6650  142.9650 O   0  0  0  0  0  0  0  0  0  0  0  0
  191.4080  177.2230  143.0350 C   0  0  0  0  0  2  0  0  0  0  0  0
  191.3380  177.7750  144.4550 C   0  0  2  0  0  3  0  0  0  0  0  0
  192.1850  178.8770  144.5760 O   0  0  0  0  0  1  0  0  0  0  0  0
  191.7720  176.7070  145.4480 C   0  0  0  0  0  2  0  0  0  0  0  0
  191.0450  176.8010  146.7920 C   0  0  2  0  0  3  0  0  0  0  0  0
  191.4520  175.7980  147.6770 O   0  0  0  0  0  0  0  0  0  0  0  0
  192.6270  176.1990  148.1190 O   0  0  0  0  0  1  0  0  0  0  0  0
  189.5240  176.8520  146.6520 C   0  0  0  0  0  2  0  0  0  0  0  0
  188.8520  177.5460  147.8280 C   0  0  0  0  0  2  0  0  0  0  0  0
  187.4710  178.0080  147.4130 C   0  0  0  0  0  2  0  0  0  0  0  0
  185.8910  178.2000  145.5200 C   0  0  0  0  0  1  0  0  0  0  0  0
  187.2930  177.7940  145.9240 C   0  0  0  0  0  2  0  0  0  0  0  0
  191.4800  176.9550  140.4160 C   0  0  0  0  0  2  0  0  0  0  0  0
  193.0150  176.5560  138.4730 C   0  0  0  0  0  1  0  0  0  0  0  0
  191.5660  176.6300  138.9270 C   0  0  1  0  0  3  0  0  0  0  0  0
  191.1080  175.0130  137.1960 C   0  0  0  0  0  1  0  0  0  0  0  0
  190.8300  175.4120  138.5730 N   0  0  0  0  0  2  0  0  0  0  0  0
  189.3190  178.1650  140.3740 C   0  0  0  0  0  2  0  0  0  0  0  0
  187.8850  177.9120  140.2990 N   0  0  0  0  0  0  0  0  0  0  0  0
  187.1840  178.8090  141.2290 C   0  0  0  0  0  2  0  0  0  0  0  0
  184.8820  178.4420  142.0080 C   0  0  0  0  0  3  0  0  0  0  0  0
  185.6940  178.8380  141.0270 C   0  0  0  0  0  3  0  0  0  0  0  0
  183.3940  178.4500  141.8330 C   0  0  0  0  0  2  0  0  0  0  0  0
  183.0100  178.2910  140.3710 C   0  0  0  0  0  2  0  0  0  0  0  0
  181.6540  177.6120  140.2460 C   0  0  0  0  0  2  0  0  0  0  0  0
  180.5570  178.5110  140.7910 C   0  0  0  0  0  2  0  0  0  0  0  0
  179.7630  177.7880  141.8630 C   0  0  0  0  0  1  0  0  0  0  0  0
  187.4380  178.1500  138.9290 C   0  0  0  0  0  2  0  0  0  0  0  0
  188.6190  178.5090  138.0370 C   0  0  0  0  0  2  0  0  0  0  0  0
  189.2770  177.8010  135.8610 O   0  0  0  0  0  0  0  0  0  0  0  0
  188.3350  178.1770  136.6100 C   0  0  0  0  0  0  0  0  0  0  0  0
  187.0360  178.3030  136.1130 O   0  0  0  0  0  0  0  0  0  0  0  0
  186.5860  177.5600  134.9900 C   0  0  0  0  0  1  0  0  0  0  0  0
  1 22  1  1  0  0  0
  1  2  1  0  0  0  0
  2  4  1  0  0  0  0
  2  5  1  6  0  0  0
  4  3  1  0  0  0  0
  5  6  1  0  0  0  0
  6  7  1  6  0  0  0
  6  8  1  0  0  0  0
  9  8  1  6  0  0  0
  9 10  1  0  0  0  0
 10 11  1  0  0  0  0
 12  9  1  0  0  0  0
 12 13  1  0  0  0  0
 14 13  1  0  0  0  0
 15 16  1  0  0  0  0
 16 14  1  0  0  0  0
 17  1  1  0  0  0  0
 19 18  1  1  0  0  0
 19 17  1  0  0  0  0
 20 21  1  0  0  0  0
 21 19  1  0  0  0  0
 23 22  1  0  0  0  0
 23 24  1  0  0  0  0
 26 24  1  0  0  0  0
 26 25  2  0  0  0  0
 27 25  1  0  0  0  0
 28 27  1  0  0  0  0
 29 28  1  0  0  0  0
 29 30  1  0  0  0  0
 30 31  1  0  0  0  0
 32 23  1  0  0  0  0
 33 32  1  0  0  0  0
 34 35  2  0  0  0  0
 35 33  1  0  0  0  0
 36 35  1  0  0  0  0
 37 36  1  0  0  0  0
M  END
>  <MODEL>
1

>  <REMARK>
 VINA RESULT:      -5.9      0.000      0.000
  Name = 
  26 active torsions:
  status: ('A' for Active; 'I' for Inactive)
    1  A    between atoms: O_1  and  C_23
    2  A    between atoms: O_2  and  C_8
    3  A    between atoms: C_3  and  C_15
    4  A    between atoms: C_3  and  C_30
    5  A    between atoms: C_4  and  C_10
    6  A    between atoms: C_4  and  C_24
    7  A    between atoms: C_6  and  C_8
    8  A    between atoms: C_6  and  C_31
    9  A    between atoms: C_7  and  C_33
   10  A    between atoms: C_8  and  C_19
   11  A    between atoms: C_10  and  C_13
   12  A    between atoms: C_10  and  C_30
   13  A    between atoms: C_11  and  C_26
   14  A    between atoms: C_13  and  N_20
   15  A    between atoms: C_14  and  C_31
   16  A    between atoms: C_14  and  C_37
   17  A    between atoms: C_15  and  C_19
   18  A    between atoms: C_17  and  C_26
   19  A    between atoms: C_17  and  C_33
   20  A    between atoms: N_20  and  C_21
   21  A    between atoms: N_20  and  C_29
   22  A    between atoms: C_21  and  C_25
   23  A    between atoms: C_23  and  C_25
   24  A    between atoms: C_24  and  N_28
   25  A    between atoms: C_29  and  C_36
   26  A    between atoms: C_30  and  O_32
                            x       y       z     vdW  Elec       q    Type
                         _______ _______ _______ _____ _____    ______ ____

>  <TORSDO>
F 26

$$$$
=
 OpenBabel10262423013D

 37 36  0  0  1  0  0  0  0  0999 V2000
  187.8510  178.3710  141.4290 C   0  0  2  0  0  3  0  0  0  0  0  0
  187.8100  178.0090  139.9340 C   0  0  1  0  0  3  0  0  0  0  0  0
  187.0920  178.6820  138.0210 O   0  0  0  0  0  1  0  0  0  0  0  0
  186.7020  178.5550  139.2720 O   0  0  0  0  0  0  0  0  0  0  0  0
  189.1040  178.4240  139.2310 C   0  0  0  0  0  2  0  0  0  0  0  0
  190.0810  177.2650  139.0650 C   0  0  2  0  0  3  0  0  0  0  0  0
  191.2500  177.5280  139.7780 O   0  0  0  0  0  1  0  0  0  0  0  0
  190.4280  177.0860  137.5940 C   0  0  0  0  0  2  0  0  0  0  0  0
  191.2550  175.8280  137.3180 C   0  0  2  0  0  3  0  0  0  0  0  0
  191.0400  174.8400  138.2840 O   0  0  0  0  0  0  0  0  0  0  0  0
  190.3350  173.9150  137.6660 O   0  0  0  0  0  1  0  0  0  0  0  0
  192.7430  176.1150  137.1210 C   0  0  0  0  0  2  0  0  0  0  0  0
  193.6310  175.0210  137.6950 C   0  0  0  0  0  2  0  0  0  0  0  0
  194.3700  174.3340  136.5660 C   0  0  0  0  0  2  0  0  0  0  0  0
  196.7740  174.1800  137.1260 C   0  0  0  0  0  1  0  0  0  0  0  0
  195.7260  174.9810  136.3810 C   0  0  0  0  0  2  0  0  0  0  0  0
  188.0780  177.1140  142.2630 C   0  0  0  0  0  2  0  0  0  0  0  0
  190.2500  176.0000  142.8400 C   0  0  0  0  0  1  0  0  0  0  0  0
  189.3550  177.2030  143.0950 C   0  0  1  0  0  3  0  0  0  0  0  0
  191.3400  178.4690  143.6200 C   0  0  0  0  0  1  0  0  0  0  0  0
  190.0770  178.4620  142.8880 N   0  0  0  0  0  2  0  0  0  0  0  0
  186.5630  179.0390  141.9000 C   0  0  0  0  0  2  0  0  0  0  0  0
  185.6820  178.0540  142.5170 N   0  0  0  0  0  0  0  0  0  0  0  0
  185.4520  178.4190  143.9220 C   0  0  0  0  0  2  0  0  0  0  0  0
  186.7410  178.2890  146.0110 C   0  0  0  0  0  3  0  0  0  0  0  0
  186.3480  177.6910  144.8860 C   0  0  0  0  0  3  0  0  0  0  0  0
  187.6420  177.5930  146.9850 C   0  0  0  0  0  2  0  0  0  0  0  0
  189.1030  177.7590  146.6000 C   0  0  0  0  0  2  0  0  0  0  0  0
  189.9730  176.7780  147.3730 C   0  0  0  0  0  2  0  0  0  0  0  0
  191.3340  176.6390  146.7130 C   0  0  0  0  0  2  0  0  0  0  0  0
  192.1680  175.5960  147.4320 C   0  0  0  0  0  1  0  0  0  0  0  0
  184.4180  178.0330  141.7850 C   0  0  0  0  0  2  0  0  0  0  0  0
  183.3020  178.6370  142.6280 C   0  0  0  0  0  2  0  0  0  0  0  0
  181.0490  179.3540  142.3560 O   0  0  0  0  0  0  0  0  0  0  0  0
  182.0560  178.8130  141.8250 C   0  0  0  0  0  0  0  0  0  0  0  0
  182.0120  178.3640  140.5040 O   0  0  0  0  0  0  0  0  0  0  0  0
  181.2020  177.2650  140.1120 C   0  0  0  0  0  1  0  0  0  0  0  0
  1 22  1  1  0  0  0
  1 17  1  0  0  0  0
  2  5  1  6  0  0  0
  2  1  1  0  0  0  0
  3  4  1  0  0  0  0
  4  2  1  0  0  0  0
  6  5  1  0  0  0  0
  6  7  1  1  0  0  0
  8  6  1  0  0  0  0
  9 12  1  1  0  0  0
  9  8  1  0  0  0  0
  9 10  1  0  0  0  0
 11 10  1  0  0  0  0
 12 13  1  0  0  0  0
 14 13  1  0  0  0  0
 16 14  1  0  0  0  0
 16 15  1  0  0  0  0
 17 19  1  0  0  0  0
 19 18  1  6  0  0  0
 21 19  1  0  0  0  0
 21 20  1  0  0  0  0
 22 23  1  0  0  0  0
 23 24  1  0  0  0  0
 24 26  1  0  0  0  0
 25 27  1  0  0  0  0
 26 25  2  0  0  0  0
 28 27  1  0  0  0  0
 28 29  1  0  0  0  0
 30 29  1  0  0  0  0
 30 31  1  0  0  0  0
 32 23  1  0  0  0  0
 32 33  1  0  0  0  0
 35 34  2  0  0  0  0
 35 33  1  0  0  0  0
 36 35  1  0  0  0  0
 37 36  1  0  0  0  0
M  END
>  <MODEL>
2

>  <REMARK>
 VINA RESULT:      -5.8      2.968      8.153
  Name = 
  26 active torsions:
  status: ('A' for Active; 'I' for Inactive)
    1  A    between atoms: O_1  and  C_23
    2  A    between atoms: O_2  and  C_8
    3  A    between atoms: C_3  and  C_15
    4  A    between atoms: C_3  and  C_30
    5  A    between atoms: C_4  and  C_10
    6  A    between atoms: C_4  and  C_24
    7  A    between atoms: C_6  and  C_8
    8  A    between atoms: C_6  and  C_31
    9  A    between atoms: C_7  and  C_33
   10  A    between atoms: C_8  and  C_19
   11  A    between atoms: C_10  and  C_13
   12  A    between atoms: C_10  and  C_30
   13  A    between atoms: C_11  and  C_26
   14  A    between atoms: C_13  and  N_20
   15  A    between atoms: C_14  and  C_31
   16  A    between atoms: C_14  and  C_37
   17  A    between atoms: C_15  and  C_19
   18  A    between atoms: C_17  and  C_26
   19  A    between atoms: C_17  and  C_33
   20  A    between atoms: N_20  and  C_21
   21  A    between atoms: N_20  and  C_29
   22  A    between atoms: C_21  and  C_25
   23  A    between atoms: C_23  and  C_25
   24  A    between atoms: C_24  and  N_28
   25  A    between atoms: C_29  and  C_36
   26  A    between atoms: C_30  and  O_32
                            x       y       z     vdW  Elec       q    Type
                         _______ _______ _______ _____ _____    ______ ____

>  <TORSDO>
F 26

$$$$
=
 OpenBabel10262423013D

 37 36  0  0  1  0  0  0  0  0999 V2000
  188.6850  177.6210  140.9520 C   0  0  2  0  0  3  0  0  0  0  0  0
  189.6290  177.0980  142.0490 C   0  0  1  0  0  3  0  0  0  0  0  0
  190.2770  175.1990  142.8250 O   0  0  0  0  0  1  0  0  0  0  0  0
  190.2470  175.8890  141.7030 O   0  0  0  0  0  0  0  0  0  0  0  0
  190.6830  178.1460  142.4150 C   0  0  0  0  0  2  0  0  0  0  0  0
  190.6430  178.5290  143.8910 C   0  0  2  0  0  3  0  0  0  0  0  0
  190.9430  179.8830  144.0350 O   0  0  0  0  0  1  0  0  0  0  0  0
  191.6670  177.7110  144.6650 C   0  0  0  0  0  2  0  0  0  0  0  0
  191.1220  177.1560  145.9840 C   0  0  2  0  0  3  0  0  0  0  0  0
  191.8250  176.0230  146.4040 O   0  0  0  0  0  0  0  0  0  0  0  0
  192.3690  176.3750  147.5510 O   0  0  0  0  0  1  0  0  0  0  0  0
  189.6130  176.9100  145.9570 C   0  0  0  0  0  2  0  0  0  0  0  0
  189.0170  176.7810  147.3510 C   0  0  0  0  0  2  0  0  0  0  0  0
  188.7410  178.1620  147.9060 C   0  0  0  0  0  2  0  0  0  0  0  0
  186.5160  178.5480  146.8990 C   0  0  0  0  0  1  0  0  0  0  0  0
  187.2610  178.3050  148.1940 C   0  0  0  0  0  2  0  0  0  0  0  0
  189.4960  178.1160  139.7590 C   0  0  0  0  0  2  0  0  0  0  0  0
  190.2330  176.1930  138.3270 C   0  0  0  0  0  1  0  0  0  0  0  0
  189.2110  177.3060  138.4970 C   0  0  1  0  0  3  0  0  0  0  0  0
  187.4250  176.5020  137.0890 C   0  0  0  0  0  1  0  0  0  0  0  0
  187.8400  176.7860  138.4600 N   0  0  0  0  0  2  0  0  0  0  0  0
  187.8000  178.7630  141.4430 C   0  0  0  0  0  2  0  0  0  0  0  0
  186.4320  178.2930  141.6320 N   0  0  0  0  0  0  0  0  0  0  0  0
  186.1220  178.2640  143.0690 C   0  0  0  0  0  2  0  0  0  0  0  0
  183.8540  178.3060  144.0140 C   0  0  0  0  0  3  0  0  0  0  0  0
  184.8440  178.9740  143.4220 C   0  0  0  0  0  3  0  0  0  0  0  0
  182.5650  178.9840  144.3690 C   0  0  0  0  0  2  0  0  0  0  0  0
  181.8210  179.4400  143.1230 C   0  0  0  0  0  2  0  0  0  0  0  0
  181.5780  178.2630  142.1880 C   0  0  0  0  0  2  0  0  0  0  0  0
  180.0950  178.1100  141.9010 C   0  0  0  0  0  2  0  0  0  0  0  0
  179.8810  177.4860  140.5340 C   0  0  0  0  0  1  0  0  0  0  0  0
  185.5250  179.2010  140.9350 C   0  0  0  0  0  2  0  0  0  0  0  0
  184.6590  178.4350  139.9430 C   0  0  0  0  0  2  0  0  0  0  0  0
  184.1750  180.5740  139.0180 O   0  0  0  0  0  0  0  0  0  0  0  0
  183.8320  179.3660  139.1210 C   0  0  0  0  0  0  0  0  0  0  0  0
  182.6780  178.8960  138.4900 O   0  0  0  0  0  0  0  0  0  0  0  0
  182.6090  177.5960  137.9220 C   0  0  0  0  0  1  0  0  0  0  0  0
  1 17  1  6  0  0  0
  1 22  1  0  0  0  0
  1  2  1  0  0  0  0
  2  5  1  6  0  0  0
  4  2  1  0  0  0  0
  4  3  1  0  0  0  0
  5  6  1  0  0  0  0
  6  7  1  6  0  0  0
  6  8  1  0  0  0  0
  9  8  1  6  0  0  0
  9 10  1  0  0  0  0
 10 11  1  0  0  0  0
 12  9  1  0  0  0  0
 12 13  1  0  0  0  0
 13 14  1  0  0  0  0
 14 16  1  0  0  0  0
 15 16  1  0  0  0  0
 19 18  1  1  0  0  0
 19 17  1  0  0  0  0
 20 21  1  0  0  0  0
 21 19  1  0  0  0  0
 22 23  1  0  0  0  0
 23 24  1  0  0  0  0
 24 26  1  0  0  0  0
 25 27  1  0  0  0  0
 26 25  2  0  0  0  0
 28 27  1  0  0  0  0
 29 28  1  0  0  0  0
 30 29  1  0  0  0  0
 31 30  1  0  0  0  0
 32 23  1  0  0  0  0
 33 32  1  0  0  0  0
 34 35  2  0  0  0  0
 35 33  1  0  0  0  0
 36 35  1  0  0  0  0
 37 36  1  0  0  0  0
M  END
>  <MODEL>
3

>  <REMARK>
 VINA RESULT:      -5.7      1.991      2.732
  Name = 
  26 active torsions:
  status: ('A' for Active; 'I' for Inactive)
    1  A    between atoms: O_1  and  C_23
    2  A    between atoms: O_2  and  C_8
    3  A    between atoms: C_3  and  C_15
    4  A    between atoms: C_3  and  C_30
    5  A    between atoms: C_4  and  C_10
    6  A    between atoms: C_4  and  C_24
    7  A    between atoms: C_6  and  C_8
    8  A    between atoms: C_6  and  C_31
    9  A    between atoms: C_7  and  C_33
   10  A    between atoms: C_8  and  C_19
   11  A    between atoms: C_10  and  C_13
   12  A    between atoms: C_10  and  C_30
   13  A    between atoms: C_11  and  C_26
   14  A    between atoms: C_13  and  N_20
   15  A    between atoms: C_14  and  C_31
   16  A    between atoms: C_14  and  C_37
   17  A    between atoms: C_15  and  C_19
   18  A    between atoms: C_17  and  C_26
   19  A    between atoms: C_17  and  C_33
   20  A    between atoms: N_20  and  C_21
   21  A    between atoms: N_20  and  C_29
   22  A    between atoms: C_21  and  C_25
   23  A    between atoms: C_23  and  C_25
   24  A    between atoms: C_24  and  N_28
   25  A    between atoms: C_29  and  C_36
   26  A    between atoms: C_30  and  O_32
                            x       y       z     vdW  Elec       q    Type
                         _______ _______ _______ _____ _____    ______ ____

>  <TORSDO>
F 26

$$$$
=
 OpenBabel10262423013D

 37 36  0  0  1  0  0  0  0  0999 V2000
  188.2910  178.0040  141.4940 C   0  0  2  0  0  3  0  0  0  0  0  0
  188.4440  177.7530  139.9840 C   0  0  1  0  0  3  0  0  0  0  0  0
  188.9010  179.3680  138.6380 O   0  0  0  0  0  1  0  0  0  0  0  0
  187.8740  178.7680  139.2030 O   0  0  0  0  0  0  0  0  0  0  0  0
  189.9130  177.5540  139.6040 C   0  0  0  0  0  2  0  0  0  0  0  0
  190.1400  176.2960  138.7740 C   0  0  2  0  0  3  0  0  0  0  0  0
  191.3490  175.7030  139.1380 O   0  0  0  0  0  1  0  0  0  0  0  0
  190.1900  176.6530  137.2950 C   0  0  0  0  0  2  0  0  0  0  0  0
  189.6050  175.5640  136.3920 C   0  0  2  0  0  3  0  0  0  0  0  0
  189.0140  176.1000  135.2440 O   0  0  0  0  0  0  0  0  0  0  0  0
  187.7830  176.3960  135.6090 O   0  0  0  0  0  1  0  0  0  0  0  0
  188.6590  174.6150  137.1270 C   0  0  0  0  0  2  0  0  0  0  0  0
  188.8550  173.1630  136.7190 C   0  0  0  0  0  2  0  0  0  0  0  0
  187.6420  172.3580  137.1360 C   0  0  0  0  0  2  0  0  0  0  0  0
  185.3020  172.9940  137.6210 C   0  0  0  0  0  1  0  0  0  0  0  0
  186.3920  172.9980  136.5700 C   0  0  0  0  0  2  0  0  0  0  0  0
  188.4750  176.6990  142.2610 C   0  0  0  0  0  2  0  0  0  0  0  0
  190.6570  175.6480  142.9140 C   0  0  0  0  0  1  0  0  0  0  0  0
  189.6640  176.7590  143.2170 C   0  0  1  0  0  3  0  0  0  0  0  0
  191.7640  177.9400  143.0930 C   0  0  0  0  0  1  0  0  0  0  0  0
  190.3150  178.0730  143.2240 N   0  0  0  0  0  2  0  0  0  0  0  0
  186.9270  178.5880  141.8510 C   0  0  0  0  0  2  0  0  0  0  0  0
  186.3900  177.9240  143.0330 N   0  0  0  0  0  0  0  0  0  0  0  0
  186.7510  178.6970  144.2310 C   0  0  0  0  0  2  0  0  0  0  0  0
  187.9310  177.9440  146.2510 C   0  0  0  0  0  3  0  0  0  0  0  0
  186.8490  177.8610  145.4780 C   0  0  0  0  0  3  0  0  0  0  0  0
  188.0620  177.1160  147.4940 C   0  0  0  0  0  2  0  0  0  0  0  0
  189.4340  176.4690  147.5830 C   0  0  0  0  0  2  0  0  0  0  0  0
  190.4620  177.2900  146.8170 C   0  0  0  0  0  2  0  0  0  0  0  0
  191.6400  176.4220  146.4100 C   0  0  0  0  0  2  0  0  0  0  0  0
  192.3030  175.8200  147.6340 C   0  0  0  0  0  1  0  0  0  0  0  0
  184.9380  177.8380  142.9030 C   0  0  0  0  0  2  0  0  0  0  0  0
  184.3000  179.2030  143.1310 C   0  0  0  0  0  2  0  0  0  0  0  0
  183.4810  179.0900  145.3630 O   0  0  0  0  0  0  0  0  0  0  0  0
  183.1990  179.1220  144.1350 C   0  0  0  0  0  0  0  0  0  0  0  0
  181.8710  179.0630  143.7060 O   0  0  0  0  0  0  0  0  0  0  0  0
  181.5310  178.9350  142.3330 C   0  0  0  0  0  1  0  0  0  0  0  0
  1 22  1  6  0  0  0
  1 17  1  0  0  0  0
  2  5  1  1  0  0  0
  2  1  1  0  0  0  0
  3  4  1  0  0  0  0
  4  2  1  0  0  0  0
  6  7  1  1  0  0  0
  6  5  1  0  0  0  0
  8  6  1  0  0  0  0
  9 12  1  1  0  0  0
  9  8  1  0  0  0  0
 10 11  1  0  0  0  0
 10  9  1  0  0  0  0
 13 12  1  0  0  0  0
 13 14  1  0  0  0  0
 16 14  1  0  0  0  0
 16 15  1  0  0  0  0
 17 19  1  0  0  0  0
 19 18  1  6  0  0  0
 19 21  1  0  0  0  0
 20 21  1  0  0  0  0
 22 23  1  0  0  0  0
 23 24  1  0  0  0  0
 24 26  1  0  0  0  0
 25 27  1  0  0  0  0
 26 25  2  0  0  0  0
 27 28  1  0  0  0  0
 29 28  1  0  0  0  0
 30 29  1  0  0  0  0
 30 31  1  0  0  0  0
 32 23  1  0  0  0  0
 32 33  1  0  0  0  0
 33 35  1  0  0  0  0
 35 34  2  0  0  0  0
 36 35  1  0  0  0  0
 37 36  1  0  0  0  0
M  END
>  <MODEL>
4

>  <REMARK>
 VINA RESULT:      -5.6      3.161      8.289
  Name = 
  26 active torsions:
  status: ('A' for Active; 'I' for Inactive)
    1  A    between atoms: O_1  and  C_23
    2  A    between atoms: O_2  and  C_8
    3  A    between atoms: C_3  and  C_15
    4  A    between atoms: C_3  and  C_30
    5  A    between atoms: C_4  and  C_10
    6  A    between atoms: C_4  and  C_24
    7  A    between atoms: C_6  and  C_8
    8  A    between atoms: C_6  and  C_31
    9  A    between atoms: C_7  and  C_33
   10  A    between atoms: C_8  and  C_19
   11  A    between atoms: C_10  and  C_13
   12  A    between atoms: C_10  and  C_30
   13  A    between atoms: C_11  and  C_26
   14  A    between atoms: C_13  and  N_20
   15  A    between atoms: C_14  and  C_31
   16  A    between atoms: C_14  and  C_37
   17  A    between atoms: C_15  and  C_19
   18  A    between atoms: C_17  and  C_26
   19  A    between atoms: C_17  and  C_33
   20  A    between atoms: N_20  and  C_21
   21  A    between atoms: N_20  and  C_29
   22  A    between atoms: C_21  and  C_25
   23  A    between atoms: C_23  and  C_25
   24  A    between atoms: C_24  and  N_28
   25  A    between atoms: C_29  and  C_36
   26  A    between atoms: C_30  and  O_32
                            x       y       z     vdW  Elec       q    Type
                         _______ _______ _______ _____ _____    ______ ____

>  <TORSDO>
F 26

$$$$
=
 OpenBabel10262423013D

 37 36  0  0  1  0  0  0  0  0999 V2000
  186.8840  177.0420  137.4700 C   0  0  2  0  0  3  0  0  0  0  0  0
  188.2300  177.6590  137.8910 C   0  0  1  0  0  3  0  0  0  0  0  0
  188.8120  179.6530  137.3310 O   0  0  0  0  0  1  0  0  0  0  0  0
  188.1200  179.0090  138.2480 O   0  0  0  0  0  0  0  0  0  0  0  0
  188.8720  176.8600  139.0270 C   0  0  0  0  0  2  0  0  0  0  0  0
  189.3600  177.7480  140.1670 C   0  0  2  0  0  3  0  0  0  0  0  0
  190.7120  177.5050  140.4080 O   0  0  0  0  0  1  0  0  0  0  0  0
  188.5700  177.4470  141.4330 C   0  0  0  0  0  2  0  0  0  0  0  0
  189.4590  177.1250  142.6360 C   0  0  2  0  0  3  0  0  0  0  0  0
  189.2500  175.8260  143.1080 O   0  0  0  0  0  0  0  0  0  0  0  0
  190.3310  175.1630  142.7510 O   0  0  0  0  0  1  0  0  0  0  0  0
  189.3540  178.1600  143.7570 C   0  0  0  0  0  2  0  0  0  0  0  0
  189.9590  177.6690  145.0640 C   0  0  0  0  0  2  0  0  0  0  0  0
  188.9060  177.7150  146.1510 C   0  0  0  0  0  2  0  0  0  0  0  0
  190.8620  176.7400  147.3070 C   0  0  0  0  0  1  0  0  0  0  0  0
  189.3540  176.8700  147.3240 C   0  0  0  0  0  2  0  0  0  0  0  0
  186.9760  176.5180  136.0410 C   0  0  0  0  0  2  0  0  0  0  0  0
  187.7070  174.2190  136.7300 C   0  0  0  0  0  1  0  0  0  0  0  0
  186.6730  175.0240  135.9580 C   0  0  1  0  0  3  0  0  0  0  0  0
  185.3230  173.7110  137.4660 C   0  0  0  0  0  1  0  0  0  0  0  0
  185.3100  174.7000  136.3920 N   0  0  0  0  0  2  0  0  0  0  0  0
  185.7370  178.0430  137.5470 C   0  0  0  0  0  2  0  0  0  0  0  0
  184.9400  177.8040  138.7450 N   0  0  0  0  0  0  0  0  0  0  0  0
  184.6360  179.0890  139.3920 C   0  0  0  0  0  2  0  0  0  0  0  0
  183.9290  178.6420  141.7030 C   0  0  0  0  0  3  0  0  0  0  0  0
  183.5850  178.9890  140.4630 C   0  0  0  0  0  3  0  0  0  0  0  0
  182.9020  178.5240  142.7880 C   0  0  0  0  0  2  0  0  0  0  0  0
  183.4970  178.8590  144.1470 C   0  0  0  0  0  2  0  0  0  0  0  0
  184.9580  178.4390  144.2070 C   0  0  0  0  0  2  0  0  0  0  0  0
  185.6390  179.0530  145.4190 C   0  0  0  0  0  2  0  0  0  0  0  0
  185.1390  178.4010  146.6940 C   0  0  0  0  0  1  0  0  0  0  0  0
  183.7050  177.1260  138.3590 C   0  0  0  0  0  2  0  0  0  0  0  0
  183.1030  177.7780  137.1210 C   0  0  0  0  0  2  0  0  0  0  0  0
  180.9700  178.0070  136.0890 O   0  0  0  0  0  0  0  0  0  0  0  0
  181.6190  177.6150  137.0960 C   0  0  0  0  0  0  0  0  0  0  0  0
  180.9640  177.0490  138.1910 O   0  0  0  0  0  0  0  0  0  0  0  0
  180.1870  177.8300  139.0870 C   0  0  0  0  0  1  0  0  0  0  0  0
  1 17  1  6  0  0  0
  1 22  1  0  0  0  0
  1  2  1  0  0  0  0
  2  4  1  0  0  0  0
  2  5  1  1  0  0  0
  3  4  1  0  0  0  0
  5  6  1  0  0  0  0
  6  7  1  1  0  0  0
  6  8  1  0  0  0  0
  9  8  1  6  0  0  0
  9 10  1  0  0  0  0
  9 12  1  0  0  0  0
 11 10  1  0  0  0  0
 12 13  1  0  0  0  0
 13 14  1  0  0  0  0
 14 16  1  0  0  0  0
 15 16  1  0  0  0  0
 19 17  1  0  0  0  0
 19 21  1  0  0  0  0
 19 18  1  1  0  0  0
 21 20  1  0  0  0  0
 22 23  1  0  0  0  0
 23 24  1  0  0  0  0
 24 26  1  0  0  0  0
 25 27  1  0  0  0  0
 26 25  2  0  0  0  0
 27 28  1  0  0  0  0
 28 29  1  0  0  0  0
 29 30  1  0  0  0  0
 30 31  1  0  0  0  0
 32 23  1  0  0  0  0
 33 32  1  0  0  0  0
 34 35  2  0  0  0  0
 35 33  1  0  0  0  0
 35 36  1  0  0  0  0
 36 37  1  0  0  0  0
M  END
>  <MODEL>
5

>  <REMARK>
 VINA RESULT:      -5.5      2.668      5.199
  Name = 
  26 active torsions:
  status: ('A' for Active; 'I' for Inactive)
    1  A    between atoms: O_1  and  C_23
    2  A    between atoms: O_2  and  C_8
    3  A    between atoms: C_3  and  C_15
    4  A    between atoms: C_3  and  C_30
    5  A    between atoms: C_4  and  C_10
    6  A    between atoms: C_4  and  C_24
    7  A    between atoms: C_6  and  C_8
    8  A    between atoms: C_6  and  C_31
    9  A    between atoms: C_7  and  C_33
   10  A    between atoms: C_8  and  C_19
   11  A    between atoms: C_10  and  C_13
   12  A    between atoms: C_10  and  C_30
   13  A    between atoms: C_11  and  C_26
   14  A    between atoms: C_13  and  N_20
   15  A    between atoms: C_14  and  C_31
   16  A    between atoms: C_14  and  C_37
   17  A    between atoms: C_15  and  C_19
   18  A    between atoms: C_17  and  C_26
   19  A    between atoms: C_17  and  C_33
   20  A    between atoms: N_20  and  C_21
   21  A    between atoms: N_20  and  C_29
   22  A    between atoms: C_21  and  C_25
   23  A    between atoms: C_23  and  C_25
   24  A    between atoms: C_24  and  N_28
   25  A    between atoms: C_29  and  C_36
   26  A    between atoms: C_30  and  O_32
                            x       y       z     vdW  Elec       q    Type
                         _______ _______ _______ _____ _____    ______ ____

>  <TORSDO>
F 26

$$$$
=
 OpenBabel10262423013D

 37 36  0  0  1  0  0  0  0  0999 V2000
  183.3720  178.9420  141.9720 C   0  0  2  0  0  3  0  0  0  0  0  0
  184.7410  179.0290  142.6670 C   0  0  1  0  0  3  0  0  0  0  0  0
  186.5760  178.7580  141.5770 O   0  0  0  0  0  1  0  0  0  0  0  0
  185.7030  179.6920  141.8940 O   0  0  0  0  0  0  0  0  0  0  0  0
  184.6200  179.6890  144.0430 C   0  0  0  0  0  2  0  0  0  0  0  0
  184.8160  178.7010  145.1880 C   0  0  2  0  0  3  0  0  0  0  0  0
  183.7870  178.8480  146.1180 O   0  0  0  0  0  1  0  0  0  0  0  0
  186.1470  178.9650  145.8770 C   0  0  0  0  0  2  0  0  0  0  0  0
  186.9820  177.6990  146.0790 C   0  0  2  0  0  3  0  0  0  0  0  0
  188.0400  177.9070  146.9700 O   0  0  0  0  0  0  0  0  0  0  0  0
  188.0450  176.8370  147.7390 O   0  0  0  0  0  1  0  0  0  0  0  0
  187.4600  177.0750  144.7680 C   0  0  0  0  0  2  0  0  0  0  0  0
  188.5520  177.8920  144.0950 C   0  0  0  0  0  2  0  0  0  0  0  0
  189.8460  177.1060  144.1120 C   0  0  0  0  0  2  0  0  0  0  0  0
  191.4720  178.9600  143.9260 C   0  0  0  0  0  1  0  0  0  0  0  0
  190.8580  177.7770  143.2070 C   0  0  0  0  0  2  0  0  0  0  0  0
  182.2590  178.9090  143.0150 C   0  0  0  0  0  2  0  0  0  0  0  0
  179.8620  178.2190  143.2750 C   0  0  0  0  0  1  0  0  0  0  0  0
  180.8730  178.9100  142.3740 C   0  0  1  0  0  3  0  0  0  0  0  0
  179.8290  180.2580  140.6670 C   0  0  0  0  0  1  0  0  0  0  0  0
  180.4260  180.2560  142.0000 N   0  0  0  0  0  2  0  0  0  0  0  0
  183.2450  177.7050  141.0890 C   0  0  0  0  0  2  0  0  0  0  0  0
  182.8130  178.0840  139.7490 N   0  0  0  0  0  0  0  0  0  0  0  0
  183.8960  178.8180  139.0780 C   0  0  0  0  0  2  0  0  0  0  0  0
  186.1030  178.4170  138.0740 C   0  0  0  0  0  3  0  0  0  0  0  0
  184.9190  177.9230  138.4350 C   0  0  0  0  0  3  0  0  0  0  0  0
  187.1380  177.5520  137.4220 C   0  0  0  0  0  2  0  0  0  0  0  0
  188.4860  178.2540  137.3650 C   0  0  0  0  0  2  0  0  0  0  0  0
  188.9760  178.5810  138.7690 C   0  0  0  0  0  2  0  0  0  0  0  0
  189.2790  177.3060  139.5360 C   0  0  0  0  0  2  0  0  0  0  0  0
  190.7720  177.0350  139.5440 C   0  0  0  0  0  1  0  0  0  0  0  0
  182.4820  176.8730  139.0030 C   0  0  0  0  0  2  0  0  0  0  0  0
  181.2900  176.1660  139.6340 C   0  0  0  0  0  2  0  0  0  0  0  0
  179.2580  177.1720  138.9080 O   0  0  0  0  0  0  0  0  0  0  0  0
  180.0900  176.2380  138.7490 C   0  0  0  0  0  0  0  0  0  0  0  0
  179.8920  175.2650  137.7670 O   0  0  0  0  0  0  0  0  0  0  0  0
  180.4950  173.9820  137.8490 C   0  0  0  0  0  1  0  0  0  0  0  0
  1 22  1  1  0  0  0
  1  2  1  0  0  0  0
  1 17  1  0  0  0  0
  2  5  1  1  0  0  0
  3  4  1  0  0  0  0
  4  2  1  0  0  0  0
  5  6  1  0  0  0  0
  6  8  1  0  0  0  0
  6  7  1  1  0  0  0
  8  9  1  0  0  0  0
  9 12  1  6  0  0  0
  9 10  1  0  0  0  0
 10 11  1  0  0  0  0
 13 14  1  0  0  0  0
 13 12  1  0  0  0  0
 16 15  1  0  0  0  0
 16 14  1  0  0  0  0
 19 17  1  0  0  0  0
 19 18  1  1  0  0  0
 20 21  1  0  0  0  0
 21 19  1  0  0  0  0
 23 22  1  0  0  0  0
 24 23  1  0  0  0  0
 25 26  2  0  0  0  0
 26 24  1  0  0  0  0
 27 25  1  0  0  0  0
 28 27  1  0  0  0  0
 28 29  1  0  0  0  0
 29 30  1  0  0  0  0
 30 31  1  0  0  0  0
 32 33  1  0  0  0  0
 32 23  1  0  0  0  0
 35 34  2  0  0  0  0
 35 33  1  0  0  0  0
 36 37  1  0  0  0  0
 36 35  1  0  0  0  0
M  END
>  <MODEL>
6

>  <REMARK>
 VINA RESULT:      -5.4      3.335      7.456
  Name = 
  26 active torsions:
  status: ('A' for Active; 'I' for Inactive)
    1  A    between atoms: O_1  and  C_23
    2  A    between atoms: O_2  and  C_8
    3  A    between atoms: C_3  and  C_15
    4  A    between atoms: C_3  and  C_30
    5  A    between atoms: C_4  and  C_10
    6  A    between atoms: C_4  and  C_24
    7  A    between atoms: C_6  and  C_8
    8  A    between atoms: C_6  and  C_31
    9  A    between atoms: C_7  and  C_33
   10  A    between atoms: C_8  and  C_19
   11  A    between atoms: C_10  and  C_13
   12  A    between atoms: C_10  and  C_30
   13  A    between atoms: C_11  and  C_26
   14  A    between atoms: C_13  and  N_20
   15  A    between atoms: C_14  and  C_31
   16  A    between atoms: C_14  and  C_37
   17  A    between atoms: C_15  and  C_19
   18  A    between atoms: C_17  and  C_26
   19  A    between atoms: C_17  and  C_33
   20  A    between atoms: N_20  and  C_21
   21  A    between atoms: N_20  and  C_29
   22  A    between atoms: C_21  and  C_25
   23  A    between atoms: C_23  and  C_25
   24  A    between atoms: C_24  and  N_28
   25  A    between atoms: C_29  and  C_36
   26  A    between atoms: C_30  and  O_32
                            x       y       z     vdW  Elec       q    Type
                         _______ _______ _______ _____ _____    ______ ____

>  <TORSDO>
F 26

$$$$
=
 OpenBabel10262423013D

 37 36  0  0  1  0  0  0  0  0999 V2000
  185.3570  178.4670  141.9710 C   0  0  2  0  0  3  0  0  0  0  0  0
  184.3960  178.7220  140.7970 C   0  0  1  0  0  3  0  0  0  0  0  0
  184.5470  180.2090  139.2490 O   0  0  0  0  0  1  0  0  0  0  0  0
  185.0640  179.0520  139.6100 O   0  0  0  0  0  0  0  0  0  0  0  0
  183.4730  177.5230  140.5690 C   0  0  0  0  0  2  0  0  0  0  0  0
  182.2520  177.8720  139.7260 C   0  0  2  0  0  3  0  0  0  0  0  0
  181.0950  177.7370  140.4940 O   0  0  0  0  0  1  0  0  0  0  0  0
  182.1630  176.9370  138.5290 C   0  0  0  0  0  2  0  0  0  0  0  0
  183.0420  177.3750  137.3560 C   0  0  2  0  0  3  0  0  0  0  0  0
  182.3120  178.0680  136.3860 O   0  0  0  0  0  0  0  0  0  0  0  0
  181.1960  177.3800  136.2540 O   0  0  0  0  0  1  0  0  0  0  0  0
  183.8500  176.2290  136.7460 C   0  0  0  0  0  2  0  0  0  0  0  0
  185.3490  176.4830  136.7900 C   0  0  0  0  0  2  0  0  0  0  0  0
  185.7500  177.3180  135.5920 C   0  0  0  0  0  2  0  0  0  0  0  0
  187.0940  175.2970  135.1210 C   0  0  0  0  0  1  0  0  0  0  0  0
  187.0630  176.8080  135.0360 C   0  0  0  0  0  2  0  0  0  0  0  0
  185.0370  179.4170  143.1210 C   0  0  0  0  0  2  0  0  0  0  0  0
  184.3160  178.9360  145.4750 C   0  0  0  0  0  1  0  0  0  0  0  0
  183.9150  178.8840  144.0090 C   0  0  1  0  0  3  0  0  0  0  0  0
  181.5220  178.6310  143.8430 C   0  0  0  0  0  1  0  0  0  0  0  0
  182.6390  179.5690  143.7780 N   0  0  0  0  0  2  0  0  0  0  0  0
  186.8180  178.6570  141.5780 C   0  0  0  0  0  2  0  0  0  0  0  0
  187.6890  178.2990  142.6910 N   0  0  0  0  0  0  0  0  0  0  0  0
  187.3590  176.9410  143.1490 C   0  0  0  0  0  2  0  0  0  0  0  0
  187.7990  177.4800  145.5070 C   0  0  0  0  0  3  0  0  0  0  0  0
  187.0220  176.8670  144.6140 C   0  0  0  0  0  3  0  0  0  0  0  0
  187.4950  177.4150  146.9730 C   0  0  0  0  0  2  0  0  0  0  0  0
  188.7400  177.6730  147.8050 C   0  0  0  0  0  2  0  0  0  0  0  0
  189.9730  177.7350  146.9140 C   0  0  0  0  0  2  0  0  0  0  0  0
  190.9610  176.6470  147.2970 C   0  0  0  0  0  2  0  0  0  0  0  0
  191.7880  176.2340  146.0940 C   0  0  0  0  0  1  0  0  0  0  0  0
  189.0770  178.3570  142.2380 C   0  0  0  0  0  2  0  0  0  0  0  0
  189.6420  176.9530  142.0660 C   0  0  0  0  0  2  0  0  0  0  0  0
  191.7500  177.6020  141.1710 O   0  0  0  0  0  0  0  0  0  0  0  0
  190.6990  176.9250  141.0120 C   0  0  0  0  0  0  0  0  0  0  0  0
  190.5060  176.1670  139.8550 O   0  0  0  0  0  0  0  0  0  0  0  0
  191.2090  176.4410  138.6520 C   0  0  0  0  0  1  0  0  0  0  0  0
  1 22  1  6  0  0  0
  1 17  1  0  0  0  0
  2  5  1  6  0  0  0
  2  1  1  0  0  0  0
  3  4  1  0  0  0  0
  4  2  1  0  0  0  0
  6  7  1  1  0  0  0
  6  5  1  0  0  0  0
  8  6  1  0  0  0  0
  9 12  1  6  0  0  0
  9  8  1  0  0  0  0
 10  9  1  0  0  0  0
 11 10  1  0  0  0  0
 12 13  1  0  0  0  0
 14 13  1  0  0  0  0
 16 15  1  0  0  0  0
 16 14  1  0  0  0  0
 17 19  1  0  0  0  0
 19 18  1  1  0  0  0
 21 20  1  0  0  0  0
 21 19  1  0  0  0  0
 22 23  1  0  0  0  0
 23 24  1  0  0  0  0
 24 26  1  0  0  0  0
 25 27  1  0  0  0  0
 26 25  2  0  0  0  0
 27 28  1  0  0  0  0
 29 30  1  0  0  0  0
 29 28  1  0  0  0  0
 31 30  1  0  0  0  0
 32 23  1  0  0  0  0
 33 32  1  0  0  0  0
 35 34  2  0  0  0  0
 35 33  1  0  0  0  0
 36 35  1  0  0  0  0
 37 36  1  0  0  0  0
M  END
>  <MODEL>
7

>  <REMARK>
 VINA RESULT:      -5.4      2.835      9.331
  Name = 
  26 active torsions:
  status: ('A' for Active; 'I' for Inactive)
    1  A    between atoms: O_1  and  C_23
    2  A    between atoms: O_2  and  C_8
    3  A    between atoms: C_3  and  C_15
    4  A    between atoms: C_3  and  C_30
    5  A    between atoms: C_4  and  C_10
    6  A    between atoms: C_4  and  C_24
    7  A    between atoms: C_6  and  C_8
    8  A    between atoms: C_6  and  C_31
    9  A    between atoms: C_7  and  C_33
   10  A    between atoms: C_8  and  C_19
   11  A    between atoms: C_10  and  C_13
   12  A    between atoms: C_10  and  C_30
   13  A    between atoms: C_11  and  C_26
   14  A    between atoms: C_13  and  N_20
   15  A    between atoms: C_14  and  C_31
   16  A    between atoms: C_14  and  C_37
   17  A    between atoms: C_15  and  C_19
   18  A    between atoms: C_17  and  C_26
   19  A    between atoms: C_17  and  C_33
   20  A    between atoms: N_20  and  C_21
   21  A    between atoms: N_20  and  C_29
   22  A    between atoms: C_21  and  C_25
   23  A    between atoms: C_23  and  C_25
   24  A    between atoms: C_24  and  N_28
   25  A    between atoms: C_29  and  C_36
   26  A    between atoms: C_30  and  O_32
                            x       y       z     vdW  Elec       q    Type
                         _______ _______ _______ _____ _____    ______ ____

>  <TORSDO>
F 26

$$$$
=
 OpenBabel10262423013D

 37 36  0  0  1  0  0  0  0  0999 V2000
  188.3310  177.7720  142.7170 C   0  0  2  0  0  3  0  0  0  0  0  0
  188.8200  177.9980  141.2760 C   0  0  1  0  0  3  0  0  0  0  0  0
  190.8080  177.3870  140.7280 O   0  0  0  0  0  1  0  0  0  0  0  0
  189.5760  176.9260  140.7840 O   0  0  0  0  0  0  0  0  0  0  0  0
  187.6480  178.2960  140.3370 C   0  0  0  0  0  2  0  0  0  0  0  0
  187.9870  178.0340  138.8740 C   0  0  2  0  0  3  0  0  0  0  0  0
  188.8610  179.0160  138.4090 O   0  0  0  0  0  1  0  0  0  0  0  0
  186.7170  178.0630  138.0350 C   0  0  0  0  0  2  0  0  0  0  0  0
  186.5280  176.8060  137.1840 C   0  0  2  0  0  3  0  0  0  0  0  0
  185.2650  176.2350  137.3690 O   0  0  0  0  0  0  0  0  0  0  0  0
  184.8040  176.0390  136.1510 O   0  0  0  0  0  1  0  0  0  0  0  0
  187.6460  175.7800  137.3650 C   0  0  0  0  0  2  0  0  0  0  0  0
  188.2750  175.3600  136.0450 C   0  0  0  0  0  2  0  0  0  0  0  0
  189.7540  175.1110  136.2530 C   0  0  0  0  0  2  0  0  0  0  0  0
  191.3710  176.5800  137.4120 C   0  0  0  0  0  1  0  0  0  0  0  0
  190.5030  176.4250  136.1810 C   0  0  0  0  0  2  0  0  0  0  0  0
  189.0230  176.5520  143.3170 C   0  0  0  0  0  2  0  0  0  0  0  0
  191.4330  176.3060  143.9670 C   0  0  0  0  0  1  0  0  0  0  0  0
  190.0990  176.9420  144.3260 C   0  0  1  0  0  3  0  0  0  0  0  0
  191.5110  178.8680  143.9840 C   0  0  0  0  0  1  0  0  0  0  0  0
  190.2230  178.3950  144.4840 N   0  0  0  0  0  2  0  0  0  0  0  0
  186.8220  177.5590  142.7930 C   0  0  0  0  0  2  0  0  0  0  0  0
  186.2120  178.5800  143.6370 N   0  0  0  0  0  0  0  0  0  0  0  0
  185.1570  179.2700  142.8800 C   0  0  0  0  0  2  0  0  0  0  0  0
  183.9950  178.6890  140.7930 C   0  0  0  0  0  3  0  0  0  0  0  0
  184.3190  178.3450  142.0400 C   0  0  0  0  0  3  0  0  0  0  0  0
  183.1530  177.7940  139.9360 C   0  0  0  0  0  2  0  0  0  0  0  0
  182.8170  178.4580  138.6100 C   0  0  0  0  0  2  0  0  0  0  0  0
  181.4330  179.0890  138.6660 C   0  0  0  0  0  2  0  0  0  0  0  0
  181.2610  180.0930  137.5400 C   0  0  0  0  0  2  0  0  0  0  0  0
  181.0330  179.3770  136.2210 C   0  0  0  0  0  1  0  0  0  0  0  0
  185.6480  177.9340  144.8190 C   0  0  0  0  0  2  0  0  0  0  0  0
  186.7440  177.6200  145.8300 C   0  0  0  0  0  2  0  0  0  0  0  0
  185.6900  179.3040  147.1390 O   0  0  0  0  0  0  0  0  0  0  0  0
  186.5300  178.3660  147.1050 C   0  0  0  0  0  0  0  0  0  0  0  0
  187.2730  178.0300  148.2390 O   0  0  0  0  0  0  0  0  0  0  0  0
  188.6760  178.2420  148.3070 C   0  0  0  0  0  1  0  0  0  0  0  0
  1 22  1  6  0  0  0
  1 17  1  0  0  0  0
  2  5  1  6  0  0  0
  2  1  1  0  0  0  0
  3  4  1  0  0  0  0
  4  2  1  0  0  0  0
  6  7  1  6  0  0  0
  6  5  1  0  0  0  0
  8  6  1  0  0  0  0
  9 12  1  1  0  0  0
  9 10  1  0  0  0  0
  9  8  1  0  0  0  0
 11 10  1  0  0  0  0
 13 14  1  0  0  0  0
 13 12  1  0  0  0  0
 16 14  1  0  0  0  0
 16 15  1  0  0  0  0
 17 19  1  0  0  0  0
 19 18  1  6  0  0  0
 19 21  1  0  0  0  0
 20 21  1  0  0  0  0
 22 23  1  0  0  0  0
 23 32  1  0  0  0  0
 24 23  1  0  0  0  0
 25 26  2  0  0  0  0
 26 24  1  0  0  0  0
 27 25  1  0  0  0  0
 28 29  1  0  0  0  0
 28 27  1  0  0  0  0
 30 29  1  0  0  0  0
 31 30  1  0  0  0  0
 32 33  1  0  0  0  0
 33 35  1  0  0  0  0
 35 34  2  0  0  0  0
 35 36  1  0  0  0  0
 36 37  1  0  0  0  0
M  END
>  <MODEL>
8

>  <REMARK>
 VINA RESULT:      -5.3      2.591      7.783
  Name = 
  26 active torsions:
  status: ('A' for Active; 'I' for Inactive)
    1  A    between atoms: O_1  and  C_23
    2  A    between atoms: O_2  and  C_8
    3  A    between atoms: C_3  and  C_15
    4  A    between atoms: C_3  and  C_30
    5  A    between atoms: C_4  and  C_10
    6  A    between atoms: C_4  and  C_24
    7  A    between atoms: C_6  and  C_8
    8  A    between atoms: C_6  and  C_31
    9  A    between atoms: C_7  and  C_33
   10  A    between atoms: C_8  and  C_19
   11  A    between atoms: C_10  and  C_13
   12  A    between atoms: C_10  and  C_30
   13  A    between atoms: C_11  and  C_26
   14  A    between atoms: C_13  and  N_20
   15  A    between atoms: C_14  and  C_31
   16  A    between atoms: C_14  and  C_37
   17  A    between atoms: C_15  and  C_19
   18  A    between atoms: C_17  and  C_26
   19  A    between atoms: C_17  and  C_33
   20  A    between atoms: N_20  and  C_21
   21  A    between atoms: N_20  and  C_29
   22  A    between atoms: C_21  and  C_25
   23  A    between atoms: C_23  and  C_25
   24  A    between atoms: C_24  and  N_28
   25  A    between atoms: C_29  and  C_36
   26  A    between atoms: C_30  and  O_32
                            x       y       z     vdW  Elec       q    Type
                         _______ _______ _______ _____ _____    ______ ____

>  <TORSDO>
F 26

$$$$
=
 OpenBabel10262423013D

 37 36  0  0  1  0  0  0  0  0999 V2000
  187.5820  176.9870  138.1800 C   0  0  2  0  0  3  0  0  0  0  0  0
  188.7070  178.0290  138.3080 C   0  0  1  0  0  3  0  0  0  0  0  0
  188.8110  179.7270  136.9900 O   0  0  0  0  0  1  0  0  0  0  0  0
  188.2550  179.3420  138.1200 O   0  0  0  0  0  0  0  0  0  0  0  0
  189.4250  177.9020  139.6530 C   0  0  0  0  0  2  0  0  0  0  0  0
  188.4640  177.6560  140.8110 C   0  0  2  0  0  3  0  0  0  0  0  0
  187.9690  178.8730  141.2800 O   0  0  0  0  0  1  0  0  0  0  0  0
  189.1910  176.9490  141.9460 C   0  0  0  0  0  2  0  0  0  0  0  0
  189.4600  177.8560  143.1480 C   0  0  2  0  0  3  0  0  0  0  0  0
  190.7820  178.3100  143.1760 O   0  0  0  0  0  0  0  0  0  0  0  0
  191.5010  177.2650  142.8210 O   0  0  0  0  0  1  0  0  0  0  0  0
  189.0470  177.2300  144.4810 C   0  0  0  0  0  2  0  0  0  0  0  0
  189.5130  178.0440  145.6790 C   0  0  0  0  0  2  0  0  0  0  0  0
  189.7420  177.1180  146.8540 C   0  0  0  0  0  2  0  0  0  0  0  0
  188.1200  178.3070  148.2940 C   0  0  0  0  0  1  0  0  0  0  0  0
  189.5680  177.8890  148.1460 C   0  0  0  0  0  2  0  0  0  0  0  0
  188.0710  175.7890  137.3720 C   0  0  0  0  0  2  0  0  0  0  0  0
  190.3520  174.7620  137.1900 C   0  0  0  0  0  1  0  0  0  0  0  0
  189.5000  175.9810  136.8710 C   0  0  1  0  0  3  0  0  0  0  0  0
  190.8400  175.9250  134.8650 C   0  0  0  0  0  1  0  0  0  0  0  0
  189.5570  176.3160  135.4440 N   0  0  0  0  0  2  0  0  0  0  0  0
  186.3390  177.5540  137.5020 C   0  0  0  0  0  2  0  0  0  0  0  0
  185.1460  177.2050  138.2660 N   0  0  0  0  0  0  0  0  0  0  0  0
  184.6010  178.4160  138.8970 C   0  0  0  0  0  2  0  0  0  0  0  0
  184.1620  178.9680  141.2510 C   0  0  0  0  0  3  0  0  0  0  0  0
  183.9340  178.1550  140.2200 C   0  0  0  0  0  3  0  0  0  0  0  0
  183.5200  178.7280  142.5840 C   0  0  0  0  0  2  0  0  0  0  0  0
  184.4280  179.1700  143.7200 C   0  0  0  0  0  2  0  0  0  0  0  0
  183.8380  178.7630  145.0630 C   0  0  0  0  0  2  0  0  0  0  0  0
  184.9190  178.7220  146.1290 C   0  0  0  0  0  2  0  0  0  0  0  0
  185.9120  177.6130  145.8350 C   0  0  0  0  0  1  0  0  0  0  0  0
  184.1630  176.6200  137.3570 C   0  0  0  0  0  2  0  0  0  0  0  0
  183.9530  175.1450  137.6750 C   0  0  0  0  0  2  0  0  0  0  0  0
  185.6390  173.4930  137.3680 O   0  0  0  0  0  0  0  0  0  0  0  0
  184.8230  174.2830  136.8220 C   0  0  0  0  0  0  0  0  0  0  0  0
  184.7360  174.3710  135.4300 O   0  0  0  0  0  0  0  0  0  0  0  0
  185.8620  174.1500  134.5940 C   0  0  0  0  0  1  0  0  0  0  0  0
  1 17  1  6  0  0  0
  1  2  1  0  0  0  0
  2  5  1  1  0  0  0
  3  4  1  0  0  0  0
  4  2  1  0  0  0  0
  5  6  1  0  0  0  0
  6  7  1  1  0  0  0
  6  8  1  0  0  0  0
  9  8  1  6  0  0  0
  9 10  1  0  0  0  0
  9 12  1  0  0  0  0
 11 10  1  0  0  0  0
 12 13  1  0  0  0  0
 13 14  1  0  0  0  0
 14 16  1  0  0  0  0
 16 15  1  0  0  0  0
 19 18  1  6  0  0  0
 19 17  1  0  0  0  0
 20 21  1  0  0  0  0
 21 19  1  0  0  0  0
 22  1  1  0  0  0  0
 22 23  1  0  0  0  0
 23 24  1  0  0  0  0
 24 26  1  0  0  0  0
 25 27  1  0  0  0  0
 26 25  2  0  0  0  0
 27 28  1  0  0  0  0
 28 29  1  0  0  0  0
 29 30  1  0  0  0  0
 31 30  1  0  0  0  0
 32 33  1  0  0  0  0
 32 23  1  0  0  0  0
 35 34  2  0  0  0  0
 35 33  1  0  0  0  0
 36 35  1  0  0  0  0
 37 36  1  0  0  0  0
M  END
>  <MODEL>
9

>  <REMARK>
 VINA RESULT:      -5.1      2.448      4.418
  Name = 
  26 active torsions:
  status: ('A' for Active; 'I' for Inactive)
    1  A    between atoms: O_1  and  C_23
    2  A    between atoms: O_2  and  C_8
    3  A    between atoms: C_3  and  C_15
    4  A    between atoms: C_3  and  C_30
    5  A    between atoms: C_4  and  C_10
    6  A    between atoms: C_4  and  C_24
    7  A    between atoms: C_6  and  C_8
    8  A    between atoms: C_6  and  C_31
    9  A    between atoms: C_7  and  C_33
   10  A    between atoms: C_8  and  C_19
   11  A    between atoms: C_10  and  C_13
   12  A    between atoms: C_10  and  C_30
   13  A    between atoms: C_11  and  C_26
   14  A    between atoms: C_13  and  N_20
   15  A    between atoms: C_14  and  C_31
   16  A    between atoms: C_14  and  C_37
   17  A    between atoms: C_15  and  C_19
   18  A    between atoms: C_17  and  C_26
   19  A    between atoms: C_17  and  C_33
   20  A    between atoms: N_20  and  C_21
   21  A    between atoms: N_20  and  C_29
   22  A    between atoms: C_21  and  C_25
   23  A    between atoms: C_23  and  C_25
   24  A    between atoms: C_24  and  N_28
   25  A    between atoms: C_29  and  C_36
   26  A    between atoms: C_30  and  O_32
                            x       y       z     vdW  Elec       q    Type
                         _______ _______ _______ _____ _____    ______ ____

>  <TORSDO>
F 26

$$$$
