=
 OpenBabel10262421023D

 32 35  0  0  1  0  0  0  0  0999 V2000
  189.2420  175.3710  137.6990 C   0  0  1  0  0  3  0  0  0  0  0  0
  188.6080  176.6050  138.3750 C   0  0  2  0  0  3  0  0  0  0  0  0
  188.3690  174.6680  136.6410 C   0  0  2  0  0  3  0  0  0  0  0  0
  183.9700  177.4850  137.3450 C   0  0  0  0  0  3  0  0  0  0  0  0
  187.7340  177.4400  137.4540 C   0  0  0  0  0  2  0  0  0  0  0  0
  184.6460  175.1760  137.1310 C   0  0  0  0  0  3  0  0  0  0  0  0
  185.9960  175.5360  137.2190 C   0  0  0  0  0  0  0  0  0  0  0  0
  188.2600  175.3640  135.2770 C   0  0  0  0  0  2  0  0  0  0  0  0
  190.7200  175.4040  137.3990 C   0  0  0  0  0  0  0  0  0  0  0  0
  186.9810  174.3860  137.2170 C   0  0  0  0  0  2  0  0  0  0  0  0
  191.3310  176.1910  136.2720 C   0  0  0  0  0  2  0  0  0  0  0  0
  191.4630  174.7420  138.1020 O   0  0  0  0  0  0  0  0  0  0  0  0
  189.5960  175.5820  134.5940 C   0  0  0  0  0  2  0  0  0  0  0  0
  186.3320  176.9100  137.4010 C   0  0  0  0  0  0  0  0  0  0  0  0
  190.3280  176.7280  135.2660 C   0  0  0  0  0  2  0  0  0  0  0  0
  183.6390  176.1410  137.1880 C   0  0  0  0  0  3  0  0  0  0  0  0
  185.3090  177.8640  137.4470 C   0  0  0  0  0  3  0  0  0  0  0  0
  189.7170  178.6460  138.9740 O   0  0  0  0  0  1  0  0  0  0  0  0
  189.4010  177.3720  139.4620 C   0  0  1  0  0  0  0  0  0  0  0  0
  187.9810  176.9430  142.9360 C   0  0  0  0  0  3  0  0  0  0  0  0
  186.6930  178.6090  141.7800 C   0  0  0  0  0  3  0  0  0  0  0  0
  188.5490  177.5400  140.6700 N   0  0  0  0  0  0  0  0  0  0  0  0
  186.9290  177.8610  142.9350 C   0  0  0  0  0  0  0  0  0  0  0  0
  187.5100  178.4320  140.6640 C   0  0  0  0  0  3  0  0  0  0  0  0
  188.7790  176.7870  141.8020 C   0  0  0  0  0  0  0  0  0  0  0  0
  189.7150  175.9410  141.8380 O   0  0  0  0  0  0  0  0  0  0  0  0
  184.8430  178.4000  144.0100 N   0  0  0  0  0  2  0  0  0  0  0  0
  186.6220  177.8000  145.5000 C   0  0  0  0  0  1  0  0  0  0  0  0
  186.0780  178.0360  144.1310 C   0  0  0  0  0  0  0  0  0  0  0  0
  190.7270  176.6380  139.7920 C   0  0  0  0  0  2  0  0  0  0  0  0
  191.8490  177.5440  140.2840 C   0  0  0  0  0  2  0  0  0  0  0  0
  193.1560  177.1860  139.6050 C   0  0  0  0  0  1  0  0  0  0  0  0
  1  9  1  6  0  0  0
  1  2  1  0  0  0  0
  2 19  1  6  0  0  0
  3  8  1  6  0  0  0
  3 10  1  0  0  0  0
  3  1  1  0  0  0  0
  4 17  1  0  0  0  0
  5  2  1  0  0  0  0
  6 16  1  0  0  0  0
  6  7  2  0  0  0  0
  7 14  1  0  0  0  0
  9 12  2  0  0  0  0
 10  7  1  0  0  0  0
 11  9  1  0  0  0  0
 13 15  1  0  0  0  0
 13  8  1  0  0  0  0
 14 17  2  0  0  0  0
 14  5  1  0  0  0  0
 15 11  1  0  0  0  0
 16  4  2  0  0  0  0
 19 18  1  6  0  0  0
 19 30  1  0  0  0  0
 19 22  1  0  0  0  0
 21 23  1  0  0  0  0
 22 25  1  0  0  0  0
 23 20  2  0  0  0  0
 23 29  1  0  0  0  0
 24 22  1  0  0  0  0
 24 21  2  0  0  0  0
 25 26  2  0  0  0  0
 25 20  1  0  0  0  0
 27 29  2  0  0  0  0
 29 28  1  0  0  0  0
 30 31  1  0  0  0  0
 32 31  1  0  0  0  0
M  END
>  <MODEL>
1

>  <REMARK>
 VINA RESULT:      -6.2      0.000      0.000
  Name = 
  5 active torsions:
  status: ('A' for Active; 'I' for Inactive)
    1  A    between atoms: C_1  and  C_4
    2  A    between atoms: C_1  and  C_27
    3  A    between atoms: C_5  and  C_27
    4  A    between atoms: N_16  and  C_27
    5  A    between atoms: C_19  and  C_26
                            x       y       z     vdW  Elec       q    Type
                         _______ _______ _______ _____ _____    ______ ____

>  <TORSDO>
F 5

$$$$
=
 OpenBabel10262421023D

 32 35  0  0  1  0  0  0  0  0999 V2000
  188.4020  175.9340  137.8260 C   0  0  1  0  0  3  0  0  0  0  0  0
  187.8150  177.0810  138.6740 C   0  0  2  0  0  3  0  0  0  0  0  0
  187.4850  175.3910  136.7120 C   0  0  2  0  0  3  0  0  0  0  0  0
  183.1730  178.1780  137.9060 C   0  0  0  0  0  3  0  0  0  0  0  0
  186.9370  178.0460  137.8950 C   0  0  0  0  0  2  0  0  0  0  0  0
  183.7890  175.9030  137.3740 C   0  0  0  0  0  3  0  0  0  0  0  0
  185.1490  176.2230  137.4690 C   0  0  0  0  0  0  0  0  0  0  0  0
  187.3550  176.2610  135.4540 C   0  0  0  0  0  2  0  0  0  0  0  0
  189.8720  175.9760  137.4880 C   0  0  0  0  0  0  0  0  0  0  0  0
  186.1060  175.0630  137.2880 C   0  0  0  0  0  2  0  0  0  0  0  0
  190.4700  176.8910  136.4550 C   0  0  0  0  0  2  0  0  0  0  0  0
  190.6190  175.2140  138.0770 O   0  0  0  0  0  0  0  0  0  0  0  0
  188.6770  176.5400  134.7650 C   0  0  0  0  0  2  0  0  0  0  0  0
  185.5220  177.5550  137.8160 C   0  0  0  0  0  0  0  0  0  0  0  0
  189.4530  177.5740  135.5570 C   0  0  0  0  0  2  0  0  0  0  0  0
  182.8070  176.8720  137.5860 C   0  0  0  0  0  3  0  0  0  0  0  0
  184.5230  178.5150  138.0160 C   0  0  0  0  0  3  0  0  0  0  0  0
  189.1440  178.9330  139.4230 O   0  0  0  0  0  1  0  0  0  0  0  0
  188.6560  177.6850  139.8280 C   0  0  1  0  0  0  0  0  0  0  0  0
  187.1660  177.3560  143.2830 C   0  0  0  0  0  3  0  0  0  0  0  0
  185.9310  179.0200  142.0690 C   0  0  0  0  0  3  0  0  0  0  0  0
  187.7850  177.8940  141.0160 N   0  0  0  0  0  0  0  0  0  0  0  0
  186.1320  178.2930  143.2440 C   0  0  0  0  0  0  0  0  0  0  0  0
  186.7630  178.8040  140.9720 C   0  0  0  0  0  3  0  0  0  0  0  0
  187.9820  177.1610  142.1670 C   0  0  0  0  0  0  0  0  0  0  0  0
  188.9000  176.2990  142.2390 O   0  0  0  0  0  0  0  0  0  0  0  0
  183.9870  178.6510  144.2750 N   0  0  0  0  0  2  0  0  0  0  0  0
  185.8370  178.5690  145.7970 C   0  0  0  0  0  1  0  0  0  0  0  0
  185.2630  178.5090  144.4210 C   0  0  0  0  0  0  0  0  0  0  0  0
  189.8670  176.7740  140.1560 C   0  0  0  0  0  2  0  0  0  0  0  0
  191.2050  177.5000  140.2290 C   0  0  0  0  0  2  0  0  0  0  0  0
  191.7320  177.4990  141.6500 C   0  0  0  0  0  1  0  0  0  0  0  0
  1  9  1  6  0  0  0
  1  2  1  0  0  0  0
  2 19  1  6  0  0  0
  3  8  1  6  0  0  0
  3 10  1  0  0  0  0
  3  1  1  0  0  0  0
  4 17  1  0  0  0  0
  5  2  1  0  0  0  0
  6  7  2  0  0  0  0
  6 16  1  0  0  0  0
  7 14  1  0  0  0  0
  9 12  2  0  0  0  0
 10  7  1  0  0  0  0
 11  9  1  0  0  0  0
 13  8  1  0  0  0  0
 13 15  1  0  0  0  0
 14  5  1  0  0  0  0
 14 17  2  0  0  0  0
 15 11  1  0  0  0  0
 16  4  2  0  0  0  0
 19 18  1  6  0  0  0
 19 30  1  0  0  0  0
 19 22  1  0  0  0  0
 21 23  1  0  0  0  0
 22 25  1  0  0  0  0
 23 20  2  0  0  0  0
 23 29  1  0  0  0  0
 24 22  1  0  0  0  0
 24 21  2  0  0  0  0
 25 26  2  0  0  0  0
 25 20  1  0  0  0  0
 27 29  2  0  0  0  0
 29 28  1  0  0  0  0
 30 31  1  0  0  0  0
 31 32  1  0  0  0  0
M  END
>  <MODEL>
2

>  <REMARK>
 VINA RESULT:      -5.9      1.022      1.123
  Name = 
  5 active torsions:
  status: ('A' for Active; 'I' for Inactive)
    1  A    between atoms: C_1  and  C_4
    2  A    between atoms: C_1  and  C_27
    3  A    between atoms: C_5  and  C_27
    4  A    between atoms: N_16  and  C_27
    5  A    between atoms: C_19  and  C_26
                            x       y       z     vdW  Elec       q    Type
                         _______ _______ _______ _____ _____    ______ ____

>  <TORSDO>
F 5

$$$$
=
 OpenBabel10262421023D

 32 35  0  0  1  0  0  0  0  0999 V2000
  183.0520  176.7530  138.5390 C   0  0  1  0  0  3  0  0  0  0  0  0
  183.3040  178.0930  139.2620 C   0  0  2  0  0  3  0  0  0  0  0  0
  181.5810  176.2960  138.4770 C   0  0  2  0  0  3  0  0  0  0  0  0
  179.5200  180.0760  141.5180 C   0  0  0  0  0  3  0  0  0  0  0  0
  182.2090  179.1280  139.0590 C   0  0  0  0  0  2  0  0  0  0  0  0
  179.4190  177.6750  141.2670 C   0  0  0  0  0  3  0  0  0  0  0  0
  180.4870  177.7000  140.3620 C   0  0  0  0  0  0  0  0  0  0  0  0
  180.6860  177.0180  137.4600 C   0  0  0  0  0  2  0  0  0  0  0  0
  183.8790  176.4350  137.3190 C   0  0  0  0  0  0  0  0  0  0  0  0
  180.9610  176.3470  139.8750 C   0  0  0  0  0  2  0  0  0  0  0  0
  183.6670  177.0690  135.9710 C   0  0  0  0  0  2  0  0  0  0  0  0
  184.7640  175.6030  137.4260 O   0  0  0  0  0  0  0  0  0  0  0  0
  181.1840  176.9200  136.0300 C   0  0  0  0  0  2  0  0  0  0  0  0
  181.0990  178.9500  140.0520 C   0  0  0  0  0  0  0  0  0  0  0  0
  182.3690  177.8460  135.8410 C   0  0  0  0  0  2  0  0  0  0  0  0
  178.9340  178.8530  141.8380 C   0  0  0  0  0  3  0  0  0  0  0  0
  180.5920  180.1210  140.6270 C   0  0  0  0  0  3  0  0  0  0  0  0
  184.7590  179.9880  139.0460 O   0  0  0  0  0  1  0  0  0  0  0  0
  184.7520  178.6310  139.3900 C   0  0  1  0  0  0  0  0  0  0  0  0
  186.9670  178.4080  142.4400 C   0  0  0  0  0  3  0  0  0  0  0  0
  184.6760  178.2530  143.1420 C   0  0  0  0  0  3  0  0  0  0  0  0
  185.2010  178.5110  140.8030 N   0  0  0  0  0  0  0  0  0  0  0  0
  186.0330  178.2760  143.4690 C   0  0  0  0  0  0  0  0  0  0  0  0
  184.2840  178.3690  141.8100 C   0  0  0  0  0  3  0  0  0  0  0  0
  186.5440  178.5200  141.1150 C   0  0  0  0  0  0  0  0  0  0  0  0
  187.4190  178.6290  140.2130 O   0  0  0  0  0  0  0  0  0  0  0  0
  185.8080  178.7440  145.8200 N   0  0  0  0  0  2  0  0  0  0  0  0
  187.6820  177.3660  145.2390 C   0  0  0  0  0  1  0  0  0  0  0  0
  186.4700  178.1580  144.8760 C   0  0  0  0  0  0  0  0  0  0  0  0
  185.7010  177.8810  138.4190 C   0  0  0  0  0  2  0  0  0  0  0  0
  186.3970  178.7720  137.3970 C   0  0  0  0  0  2  0  0  0  0  0  0
  187.3940  177.9690  136.5860 C   0  0  0  0  0  1  0  0  0  0  0  0
  1  9  1  6  0  0  0
  1  2  1  0  0  0  0
  2 19  1  6  0  0  0
  3  8  1  6  0  0  0
  3  1  1  0  0  0  0
  3 10  1  0  0  0  0
  4 16  1  0  0  0  0
  5  2  1  0  0  0  0
  5 14  1  0  0  0  0
  6 16  2  0  0  0  0
  7  6  1  0  0  0  0
  9 12  2  0  0  0  0
 10  7  1  0  0  0  0
 11  9  1  0  0  0  0
 13  8  1  0  0  0  0
 14  7  2  0  0  0  0
 14 17  1  0  0  0  0
 15 11  1  0  0  0  0
 15 13  1  0  0  0  0
 17  4  2  0  0  0  0
 19 18  1  6  0  0  0
 19 22  1  0  0  0  0
 20 23  2  0  0  0  0
 21 23  1  0  0  0  0
 22 25  1  0  0  0  0
 22 24  1  0  0  0  0
 23 29  1  0  0  0  0
 24 21  2  0  0  0  0
 25 20  1  0  0  0  0
 26 25  2  0  0  0  0
 29 28  1  0  0  0  0
 29 27  2  0  0  0  0
 30 19  1  0  0  0  0
 31 30  1  0  0  0  0
 32 31  1  0  0  0  0
M  END
>  <MODEL>
3

>  <REMARK>
 VINA RESULT:      -5.8      3.363      5.748
  Name = 
  5 active torsions:
  status: ('A' for Active; 'I' for Inactive)
    1  A    between atoms: C_1  and  C_4
    2  A    between atoms: C_1  and  C_27
    3  A    between atoms: C_5  and  C_27
    4  A    between atoms: N_16  and  C_27
    5  A    between atoms: C_19  and  C_26
                            x       y       z     vdW  Elec       q    Type
                         _______ _______ _______ _____ _____    ______ ____

>  <TORSDO>
F 5

$$$$
=
 OpenBabel10262421023D

 32 35  0  0  1  0  0  0  0  0999 V2000
  180.7620  175.8380  137.2110 C   0  0  1  0  0  3  0  0  0  0  0  0
  182.2360  176.1700  137.5230 C   0  0  2  0  0  3  0  0  0  0  0  0
  180.4670  174.3620  136.8770 C   0  0  2  0  0  3  0  0  0  0  0  0
  185.4440  172.6270  136.8130 C   0  0  0  0  0  3  0  0  0  0  0  0
  182.9790  175.0730  138.2690 C   0  0  0  0  0  2  0  0  0  0  0  0
  183.4390  172.4770  135.4730 C   0  0  0  0  0  3  0  0  0  0  0  0
  182.8150  173.4590  136.2510 C   0  0  0  0  0  0  0  0  0  0  0  0
  180.4400  173.3880  138.0630 C   0  0  0  0  0  2  0  0  0  0  0  0
  179.6900  176.5480  137.9990 C   0  0  0  0  0  0  0  0  0  0  0  0
  181.4310  173.8720  135.7960 C   0  0  0  0  0  2  0  0  0  0  0  0
  179.3410  176.2230  139.4260 C   0  0  0  0  0  2  0  0  0  0  0  0
  179.0570  177.4290  137.4430 O   0  0  0  0  0  0  0  0  0  0  0  0
  179.4270  173.7530  139.1310 C   0  0  0  0  0  2  0  0  0  0  0  0
  183.5430  174.0550  137.3230 C   0  0  0  0  0  0  0  0  0  0  0  0
  179.9440  174.9270  139.9390 C   0  0  0  0  0  2  0  0  0  0  0  0
  184.7420  172.0590  135.7520 C   0  0  0  0  0  3  0  0  0  0  0  0
  184.8440  173.6160  137.5940 C   0  0  0  0  0  3  0  0  0  0  0  0
  182.2650  177.9060  139.1790 O   0  0  0  0  0  1  0  0  0  0  0  0
  182.6360  177.6290  137.8570 C   0  0  1  0  0  0  0  0  0  0  0  0
  186.1530  177.6050  136.4800 C   0  0  0  0  0  3  0  0  0  0  0  0
  186.2290  178.3290  138.7690 C   0  0  0  0  0  3  0  0  0  0  0  0
  184.1130  177.7730  137.7540 N   0  0  0  0  0  0  0  0  0  0  0  0
  186.8980  178.0400  137.5780 C   0  0  0  0  0  0  0  0  0  0  0  0
  184.8440  178.1880  138.8360 C   0  0  0  0  0  3  0  0  0  0  0  0
  184.7670  177.4710  136.5780 C   0  0  0  0  0  0  0  0  0  0  0  0
  184.1300  177.0670  135.5670 O   0  0  0  0  0  0  0  0  0  0  0  0
  188.9160  179.3520  137.5940 N   0  0  0  0  0  2  0  0  0  0  0  0
  189.2430  177.0020  137.2590 C   0  0  0  0  0  1  0  0  0  0  0  0
  188.3660  178.1880  137.4840 C   0  0  0  0  0  0  0  0  0  0  0  0
  181.8950  178.6250  136.9270 C   0  0  0  0  0  2  0  0  0  0  0  0
  181.4870  179.9330  137.5950 C   0  0  0  0  0  2  0  0  0  0  0  0
  180.8050  180.8480  136.5970 C   0  0  0  0  0  1  0  0  0  0  0  0
  1  2  1  0  0  0  0
  1  9  1  1  0  0  0
  2 19  1  1  0  0  0
  2  5  1  0  0  0  0
  3 10  1  6  0  0  0
  3  1  1  0  0  0  0
  3  8  1  0  0  0  0
  4 17  1  0  0  0  0
  6 16  1  0  0  0  0
  6  7  2  0  0  0  0
  7 14  1  0  0  0  0
  8 13  1  0  0  0  0
  9 11  1  0  0  0  0
 10  7  1  0  0  0  0
 11 15  1  0  0  0  0
 12  9  2  0  0  0  0
 13 15  1  0  0  0  0
 14 17  2  0  0  0  0
 14  5  1  0  0  0  0
 16  4  2  0  0  0  0
 19 18  1  1  0  0  0
 20 25  1  0  0  0  0
 20 23  2  0  0  0  0
 21 24  2  0  0  0  0
 22 19  1  0  0  0  0
 22 24  1  0  0  0  0
 23 21  1  0  0  0  0
 25 22  1  0  0  0  0
 26 25  2  0  0  0  0
 28 29  1  0  0  0  0
 29 23  1  0  0  0  0
 29 27  2  0  0  0  0
 30 31  1  0  0  0  0
 30 19  1  0  0  0  0
 32 31  1  0  0  0  0
M  END
>  <MODEL>
4

>  <REMARK>
 VINA RESULT:      -5.8      3.958      7.962
  Name = 
  5 active torsions:
  status: ('A' for Active; 'I' for Inactive)
    1  A    between atoms: C_1  and  C_4
    2  A    between atoms: C_1  and  C_27
    3  A    between atoms: C_5  and  C_27
    4  A    between atoms: N_16  and  C_27
    5  A    between atoms: C_19  and  C_26
                            x       y       z     vdW  Elec       q    Type
                         _______ _______ _______ _____ _____    ______ ____

>  <TORSDO>
F 5

$$$$
=
 OpenBabel10262421023D

 32 35  0  0  1  0  0  0  0  0999 V2000
  181.4340  177.8530  139.4950 C   0  0  1  0  0  3  0  0  0  0  0  0
  182.3730  179.0370  139.1830 C   0  0  2  0  0  3  0  0  0  0  0  0
  179.9350  178.1050  139.2400 C   0  0  2  0  0  3  0  0  0  0  0  0
  180.2540  183.2300  138.0520 C   0  0  0  0  0  3  0  0  0  0  0  0
  181.9500  179.8680  137.9820 C   0  0  0  0  0  2  0  0  0  0  0  0
  178.9300  181.7530  139.4320 C   0  0  0  0  0  3  0  0  0  0  0  0
  179.8120  180.6940  139.1870 C   0  0  0  0  0  0  0  0  0  0  0  0
  179.4810  178.0820  137.7730 C   0  0  0  0  0  2  0  0  0  0  0  0
  181.9170  176.4590  139.1830 C   0  0  0  0  0  0  0  0  0  0  0  0
  179.5030  179.4050  139.9200 C   0  0  0  0  0  2  0  0  0  0  0  0
  181.9880  175.8860  137.7930 C   0  0  0  0  0  2  0  0  0  0  0  0
  182.2590  175.7480  140.1120 O   0  0  0  0  0  0  0  0  0  0  0  0
  179.7830  176.7770  137.0610 C   0  0  0  0  0  2  0  0  0  0  0  0
  180.9580  180.9250  138.3710 C   0  0  0  0  0  0  0  0  0  0  0  0
  181.2630  176.7050  136.7400 C   0  0  0  0  0  2  0  0  0  0  0  0
  179.1450  183.0120  138.8660 C   0  0  0  0  0  3  0  0  0  0  0  0
  181.1510  182.1910  137.8050 C   0  0  0  0  0  3  0  0  0  0  0  0
  184.5430  180.0240  138.9190 O   0  0  0  0  0  1  0  0  0  0  0  0
  183.8970  178.8880  139.4200 C   0  0  1  0  0  0  0  0  0  0  0  0
  185.7090  178.7890  142.7330 C   0  0  0  0  0  3  0  0  0  0  0  0
  183.3490  178.6000  143.1420 C   0  0  0  0  0  3  0  0  0  0  0  0
  184.1640  178.8130  140.8820 N   0  0  0  0  0  0  0  0  0  0  0  0
  184.6530  178.6620  143.6380 C   0  0  0  0  0  0  0  0  0  0  0  0
  183.1290  178.6750  141.7680 C   0  0  0  0  0  3  0  0  0  0  0  0
  185.4560  178.8590  141.3620 C   0  0  0  0  0  0  0  0  0  0  0  0
  186.4360  178.9660  140.5760 O   0  0  0  0  0  0  0  0  0  0  0  0
  184.0170  178.9920  145.9360 N   0  0  0  0  0  2  0  0  0  0  0  0
  186.1990  178.0520  145.6170 C   0  0  0  0  0  1  0  0  0  0  0  0
  184.9090  178.5880  145.0920 C   0  0  0  0  0  0  0  0  0  0  0  0
  184.4470  177.6470  138.6710 C   0  0  0  0  0  2  0  0  0  0  0  0
  185.4060  177.9680  137.5310 C   0  0  0  0  0  2  0  0  0  0  0  0
  185.0700  177.1380  136.3070 C   0  0  0  0  0  1  0  0  0  0  0  0
  1  9  1  6  0  0  0
  2 19  1  6  0  0  0
  2  1  1  0  0  0  0
  3  8  1  6  0  0  0
  3  1  1  0  0  0  0
  3 10  1  0  0  0  0
  4 16  1  0  0  0  0
  5 14  1  0  0  0  0
  5  2  1  0  0  0  0
  7  6  1  0  0  0  0
  7 10  1  0  0  0  0
  9 12  2  0  0  0  0
 11  9  1  0  0  0  0
 13  8  1  0  0  0  0
 14  7  2  0  0  0  0
 15 13  1  0  0  0  0
 15 11  1  0  0  0  0
 16  6  2  0  0  0  0
 17  4  2  0  0  0  0
 17 14  1  0  0  0  0
 19 18  1  6  0  0  0
 19 22  1  0  0  0  0
 20 23  2  0  0  0  0
 21 23  1  0  0  0  0
 22 25  1  0  0  0  0
 22 24  1  0  0  0  0
 23 29  1  0  0  0  0
 24 21  2  0  0  0  0
 25 20  1  0  0  0  0
 26 25  2  0  0  0  0
 29 28  1  0  0  0  0
 29 27  2  0  0  0  0
 30 19  1  0  0  0  0
 31 30  1  0  0  0  0
 32 31  1  0  0  0  0
M  END
>  <MODEL>
5

>  <REMARK>
 VINA RESULT:      -5.7      4.098      6.995
  Name = 
  5 active torsions:
  status: ('A' for Active; 'I' for Inactive)
    1  A    between atoms: C_1  and  C_4
    2  A    between atoms: C_1  and  C_27
    3  A    between atoms: C_5  and  C_27
    4  A    between atoms: N_16  and  C_27
    5  A    between atoms: C_19  and  C_26
                            x       y       z     vdW  Elec       q    Type
                         _______ _______ _______ _____ _____    ______ ____

>  <TORSDO>
F 5

$$$$
=
 OpenBabel10262421023D

 32 35  0  0  1  0  0  0  0  0999 V2000
  180.5850  177.3940  138.5960 C   0  0  1  0  0  3  0  0  0  0  0  0
  180.5620  178.6440  139.5010 C   0  0  2  0  0  3  0  0  0  0  0  0
  180.9900  177.6410  137.1290 C   0  0  2  0  0  3  0  0  0  0  0  0
  181.2270  182.9020  137.3180 C   0  0  0  0  0  3  0  0  0  0  0  0
  181.6480  179.6610  139.1870 C   0  0  0  0  0  2  0  0  0  0  0  0
  180.3100  181.1640  135.9130 C   0  0  0  0  0  3  0  0  0  0  0  0
  180.6130  180.1930  136.8740 C   0  0  0  0  0  0  0  0  0  0  0  0
  182.4860  177.8640  136.8640 C   0  0  0  0  0  2  0  0  0  0  0  0
  181.0650  176.0930  139.1880 C   0  0  0  0  0  0  0  0  0  0  0  0
  180.1600  178.7850  136.5460 C   0  0  0  0  0  2  0  0  0  0  0  0
  182.5110  175.7780  139.4630 C   0  0  0  0  0  2  0  0  0  0  0  0
  180.2350  175.2390  139.4490 O   0  0  0  0  0  0  0  0  0  0  0  0
  183.3660  176.7160  137.3220 C   0  0  0  0  0  2  0  0  0  0  0  0
  181.2180  180.6000  138.0990 C   0  0  0  0  0  0  0  0  0  0  0  0
  183.4950  176.7480  138.8330 C   0  0  0  0  0  2  0  0  0  0  0  0
  180.6170  182.5090  136.1280 C   0  0  0  0  0  3  0  0  0  0  0  0
  181.5280  181.9510  138.2930 C   0  0  0  0  0  3  0  0  0  0  0  0
  179.5550  177.2490  141.1730 O   0  0  0  0  0  1  0  0  0  0  0  0
  180.1540  178.5020  140.9890 C   0  0  1  0  0  0  0  0  0  0  0  0
  182.4030  178.6180  144.0200 C   0  0  0  0  0  3  0  0  0  0  0  0
  183.7690  178.6980  142.0470 C   0  0  0  0  0  3  0  0  0  0  0  0
  181.3700  178.5620  141.8430 N   0  0  0  0  0  0  0  0  0  0  0  0
  183.6710  178.6840  143.4390 C   0  0  0  0  0  0  0  0  0  0  0  0
  182.6120  178.6390  141.2710 C   0  0  0  0  0  3  0  0  0  0  0  0
  181.2630  178.5620  143.2170 C   0  0  0  0  0  0  0  0  0  0  0  0
  180.1350  178.5110  143.7800 O   0  0  0  0  0  0  0  0  0  0  0  0
  184.9080  179.4690  145.3490 N   0  0  0  0  0  2  0  0  0  0  0  0
  186.1080  177.9680  143.9160 C   0  0  0  0  0  1  0  0  0  0  0  0
  184.8850  178.7420  144.2800 C   0  0  0  0  0  0  0  0  0  0  0  0
  179.1230  179.5930  141.3790 C   0  0  0  0  0  2  0  0  0  0  0  0
  179.6980  181.0010  141.4790 C   0  0  0  0  0  2  0  0  0  0  0  0
  178.9310  181.9520  140.5810 C   0  0  0  0  0  1  0  0  0  0  0  0
  1  9  1  1  0  0  0
  1  2  1  0  0  0  0
  2 19  1  1  0  0  0
  3 10  1  1  0  0  0
  3  1  1  0  0  0  0
  4 17  1  0  0  0  0
  5  2  1  0  0  0  0
  6 16  1  0  0  0  0
  6  7  2  0  0  0  0
  7 14  1  0  0  0  0
  8  3  1  0  0  0  0
  8 13  1  0  0  0  0
  9 12  2  0  0  0  0
  9 11  1  0  0  0  0
 10  7  1  0  0  0  0
 13 15  1  0  0  0  0
 14 17  2  0  0  0  0
 14  5  1  0  0  0  0
 15 11  1  0  0  0  0
 16  4  2  0  0  0  0
 19 18  1  1  0  0  0
 19 30  1  0  0  0  0
 19 22  1  0  0  0  0
 21 23  1  0  0  0  0
 22 25  1  0  0  0  0
 23 20  2  0  0  0  0
 23 29  1  0  0  0  0
 24 22  1  0  0  0  0
 24 21  2  0  0  0  0
 25 26  2  0  0  0  0
 25 20  1  0  0  0  0
 28 29  1  0  0  0  0
 29 27  2  0  0  0  0
 30 31  1  0  0  0  0
 32 31  1  0  0  0  0
M  END
>  <MODEL>
6

>  <REMARK>
 VINA RESULT:      -5.6      5.602      8.083
  Name = 
  5 active torsions:
  status: ('A' for Active; 'I' for Inactive)
    1  A    between atoms: C_1  and  C_4
    2  A    between atoms: C_1  and  C_27
    3  A    between atoms: C_5  and  C_27
    4  A    between atoms: N_16  and  C_27
    5  A    between atoms: C_19  and  C_26
                            x       y       z     vdW  Elec       q    Type
                         _______ _______ _______ _____ _____    ______ ____

>  <TORSDO>
F 5

$$$$
=
 OpenBabel10262421023D

 32 35  0  0  1  0  0  0  0  0999 V2000
  181.9420  178.8140  138.3160 C   0  0  1  0  0  3  0  0  0  0  0  0
  183.2990  178.1440  138.6180 C   0  0  2  0  0  3  0  0  0  0  0  0
  180.8240  177.8680  137.8370 C   0  0  2  0  0  3  0  0  0  0  0  0
  183.7100  173.4750  137.4460 C   0  0  0  0  0  3  0  0  0  0  0  0
  183.1880  176.7540  139.2220 C   0  0  0  0  0  2  0  0  0  0  0  0
  182.0870  174.7150  136.1560 C   0  0  0  0  0  3  0  0  0  0  0  0
  182.1590  175.7890  137.0510 C   0  0  0  0  0  0  0  0  0  0  0  0
  180.1600  176.9980  138.9130 C   0  0  0  0  0  2  0  0  0  0  0  0
  181.4930  179.9460  139.2050 C   0  0  0  0  0  0  0  0  0  0  0  0
  181.3330  177.0040  136.6820 C   0  0  0  0  0  2  0  0  0  0  0  0
  180.9590  179.7590  140.5990 C   0  0  0  0  0  2  0  0  0  0  0  0
  181.5530  181.0810  138.7640 O   0  0  0  0  0  0  0  0  0  0  0  0
  179.5350  177.7950  140.0430 C   0  0  0  0  0  2  0  0  0  0  0  0
  183.0540  175.7040  138.1590 C   0  0  0  0  0  0  0  0  0  0  0  0
  180.6260  178.3210  140.9550 C   0  0  0  0  0  2  0  0  0  0  0  0
  182.8520  173.5640  136.3520 C   0  0  0  0  0  3  0  0  0  0  0  0
  183.8060  174.5390  138.3430 C   0  0  0  0  0  3  0  0  0  0  0  0
  184.1800  180.3610  138.8740 O   0  0  0  0  0  1  0  0  0  0  0  0
  184.4910  179.0130  139.0930 C   0  0  1  0  0  0  0  0  0  0  0  0
  186.1520  178.4520  142.4390 C   0  0  0  0  0  3  0  0  0  0  0  0
  183.7790  178.6150  142.7760 C   0  0  0  0  0  3  0  0  0  0  0  0
  184.6940  178.8180  140.5540 N   0  0  0  0  0  0  0  0  0  0  0  0
  185.0590  178.4440  143.3080 C   0  0  0  0  0  0  0  0  0  0  0  0
  183.6200  178.7980  141.4030 C   0  0  0  0  0  3  0  0  0  0  0  0
  185.9600  178.6350  141.0680 C   0  0  0  0  0  0  0  0  0  0  0  0
  186.9710  178.6280  140.3140 O   0  0  0  0  0  0  0  0  0  0  0  0
  184.3970  178.7350  145.6040 N   0  0  0  0  0  2  0  0  0  0  0  0
  186.4300  177.5050  145.2870 C   0  0  0  0  0  1  0  0  0  0  0  0
  185.2510  178.2530  144.7610 C   0  0  0  0  0  0  0  0  0  0  0  0
  185.7710  178.6740  138.2850 C   0  0  0  0  0  2  0  0  0  0  0  0
  185.5220  177.8780  137.0090 C   0  0  0  0  0  2  0  0  0  0  0  0
  186.4680  176.6950  136.9290 C   0  0  0  0  0  1  0  0  0  0  0  0
  1  2  1  0  0  0  0
  1  9  1  1  0  0  0
  2 19  1  1  0  0  0
  2  5  1  0  0  0  0
  3 10  1  6  0  0  0
  3  1  1  0  0  0  0
  3  8  1  0  0  0  0
  4 17  1  0  0  0  0
  6 16  1  0  0  0  0
  6  7  2  0  0  0  0
  7 14  1  0  0  0  0
  8 13  1  0  0  0  0
  9 11  1  0  0  0  0
 10  7  1  0  0  0  0
 11 15  1  0  0  0  0
 12  9  2  0  0  0  0
 13 15  1  0  0  0  0
 14 17  2  0  0  0  0
 14  5  1  0  0  0  0
 16  4  2  0  0  0  0
 19 18  1  6  0  0  0
 19 22  1  0  0  0  0
 20 23  2  0  0  0  0
 21 23  1  0  0  0  0
 22 25  1  0  0  0  0
 22 24  1  0  0  0  0
 23 29  1  0  0  0  0
 24 21  2  0  0  0  0
 25 20  1  0  0  0  0
 26 25  2  0  0  0  0
 29 28  1  0  0  0  0
 29 27  2  0  0  0  0
 30 19  1  0  0  0  0
 31 30  1  0  0  0  0
 32 31  1  0  0  0  0
M  END
>  <MODEL>
7

>  <REMARK>
 VINA RESULT:      -5.6      3.381      6.408
  Name = 
  5 active torsions:
  status: ('A' for Active; 'I' for Inactive)
    1  A    between atoms: C_1  and  C_4
    2  A    between atoms: C_1  and  C_27
    3  A    between atoms: C_5  and  C_27
    4  A    between atoms: N_16  and  C_27
    5  A    between atoms: C_19  and  C_26
                            x       y       z     vdW  Elec       q    Type
                         _______ _______ _______ _____ _____    ______ ____

>  <TORSDO>
F 5

$$$$
=
 OpenBabel10262421023D

 32 35  0  0  1  0  0  0  0  0999 V2000
  183.6390  177.1370  135.5220 C   0  0  1  0  0  3  0  0  0  0  0  0
  183.9680  177.5090  136.9830 C   0  0  2  0  0  3  0  0  0  0  0  0
  184.8490  176.7690  134.6400 C   0  0  2  0  0  3  0  0  0  0  0  0
  188.6490  177.9130  138.1080 C   0  0  0  0  0  3  0  0  0  0  0  0
  185.1170  176.7170  137.5850 C   0  0  0  0  0  2  0  0  0  0  0  0
  188.1160  178.3070  135.7850 C   0  0  0  0  0  3  0  0  0  0  0  0
  186.8290  177.7890  135.9660 C   0  0  0  0  0  0  0  0  0  0  0  0
  185.4550  175.3760  134.8620 C   0  0  0  0  0  2  0  0  0  0  0  0
  182.3800  176.3510  135.2520 C   0  0  0  0  0  0  0  0  0  0  0  0
  185.9230  177.8510  134.7530 C   0  0  0  0  0  2  0  0  0  0  0  0
  182.2290  174.8820  135.5380 C   0  0  0  0  0  2  0  0  0  0  0  0
  181.4320  176.9380  134.7600 O   0  0  0  0  0  0  0  0  0  0  0  0
  184.4680  174.2410  134.6610 C   0  0  0  0  0  2  0  0  0  0  0  0
  186.4410  177.3450  137.2640 C   0  0  0  0  0  0  0  0  0  0  0  0
  183.5320  174.1670  135.8510 C   0  0  0  0  0  2  0  0  0  0  0  0
  189.0230  178.3660  136.8450 C   0  0  0  0  0  3  0  0  0  0  0  0
  187.3660  177.4030  138.3120 C   0  0  0  0  0  3  0  0  0  0  0  0
  181.9080  176.8480  138.0220 O   0  0  0  0  0  1  0  0  0  0  0  0
  182.8210  177.9070  137.9460 C   0  0  1  0  0  0  0  0  0  0  0  0
  184.7870  179.3780  140.8160 C   0  0  0  0  0  3  0  0  0  0  0  0
  183.5270  177.5020  141.6290 C   0  0  0  0  0  3  0  0  0  0  0  0
  183.3750  178.1360  139.3070 N   0  0  0  0  0  0  0  0  0  0  0  0
  184.4180  178.5480  141.8760 C   0  0  0  0  0  0  0  0  0  0  0  0
  183.0220  177.3130  140.3440 C   0  0  0  0  0  3  0  0  0  0  0  0
  184.2660  179.1620  139.5390 C   0  0  0  0  0  0  0  0  0  0  0  0
  184.6300  179.9280  138.6050 O   0  0  0  0  0  0  0  0  0  0  0  0
  184.5100  179.7280  143.9720 N   0  0  0  0  0  2  0  0  0  0  0  0
  186.0440  177.8970  143.7760 C   0  0  0  0  0  1  0  0  0  0  0  0
  184.9630  178.7690  143.2330 C   0  0  0  0  0  0  0  0  0  0  0  0
  182.0700  179.1560  137.4140 C   0  0  0  0  0  2  0  0  0  0  0  0
  180.8720  179.5820  138.2540 C   0  0  0  0  0  2  0  0  0  0  0  0
  181.2460  180.7370  139.1620 C   0  0  0  0  0  1  0  0  0  0  0  0
  1  9  1  1  0  0  0
  1  2  1  0  0  0  0
  2  5  1  0  0  0  0
  2 19  1  1  0  0  0
  3 10  1  1  0  0  0
  3  8  1  0  0  0  0
  3  1  1  0  0  0  0
  4 17  1  0  0  0  0
  6  7  2  0  0  0  0
  6 16  1  0  0  0  0
  7 14  1  0  0  0  0
  9 11  1  0  0  0  0
 10  7  1  0  0  0  0
 11 15  1  0  0  0  0
 12  9  2  0  0  0  0
 13  8  1  0  0  0  0
 13 15  1  0  0  0  0
 14  5  1  0  0  0  0
 14 17  2  0  0  0  0
 16  4  2  0  0  0  0
 19 18  1  1  0  0  0
 19 22  1  0  0  0  0
 20 23  2  0  0  0  0
 21 23  1  0  0  0  0
 22 25  1  0  0  0  0
 22 24  1  0  0  0  0
 23 29  1  0  0  0  0
 24 21  2  0  0  0  0
 25 20  1  0  0  0  0
 26 25  2  0  0  0  0
 29 28  1  0  0  0  0
 29 27  2  0  0  0  0
 30 19  1  0  0  0  0
 30 31  1  0  0  0  0
 31 32  1  0  0  0  0
M  END
>  <MODEL>
8

>  <REMARK>
 VINA RESULT:      -5.5      3.334      6.207
  Name = 
  5 active torsions:
  status: ('A' for Active; 'I' for Inactive)
    1  A    between atoms: C_1  and  C_4
    2  A    between atoms: C_1  and  C_27
    3  A    between atoms: C_5  and  C_27
    4  A    between atoms: N_16  and  C_27
    5  A    between atoms: C_19  and  C_26
                            x       y       z     vdW  Elec       q    Type
                         _______ _______ _______ _____ _____    ______ ____

>  <TORSDO>
F 5

$$$$
=
 OpenBabel10262421023D

 32 35  0  0  1  0  0  0  0  0999 V2000
  182.1370  178.4190  138.9970 C   0  0  1  0  0  3  0  0  0  0  0  0
  182.2290  178.3530  137.4580 C   0  0  2  0  0  3  0  0  0  0  0  0
  181.2850  179.5710  139.5650 C   0  0  2  0  0  3  0  0  0  0  0  0
  180.2920  182.0480  135.0190 C   0  0  0  0  0  3  0  0  0  0  0  0
  180.9540  178.7630  136.7390 C   0  0  0  0  0  2  0  0  0  0  0  0
  181.0160  182.5700  137.2640 C   0  0  0  0  0  3  0  0  0  0  0  0
  181.1650  181.2100  137.5600 C   0  0  0  0  0  0  0  0  0  0  0  0
  179.7620  179.3990  139.4780 C   0  0  0  0  0  2  0  0  0  0  0  0
  182.0620  177.1220  139.7630 C   0  0  0  0  0  0  0  0  0  0  0  0
  181.7160  180.8970  138.9350 C   0  0  0  0  0  2  0  0  0  0  0  0
  180.8290  176.2630  139.8420 C   0  0  0  0  0  2  0  0  0  0  0  0
  183.0550  176.7530  140.3660 O   0  0  0  0  0  0  0  0  0  0  0  0
  179.2460  178.1540  140.1760 C   0  0  0  0  0  2  0  0  0  0  0  0
  180.8910  180.2490  136.5420 C   0  0  0  0  0  0  0  0  0  0  0  0
  179.5640  176.9330  139.3350 C   0  0  0  0  0  2  0  0  0  0  0  0
  180.5790  182.9880  136.0060 C   0  0  0  0  0  3  0  0  0  0  0  0
  180.4450  180.6870  135.2900 C   0  0  0  0  0  3  0  0  0  0  0  0
  182.9970  177.3890  135.4000 O   0  0  0  0  0  1  0  0  0  0  0  0
  183.0740  177.2390  136.7900 C   0  0  1  0  0  0  0  0  0  0  0  0
  186.7860  176.6330  137.1350 C   0  0  0  0  0  3  0  0  0  0  0  0
  186.2040  178.5820  138.4120 C   0  0  0  0  0  3  0  0  0  0  0  0
  184.4980  177.3910  137.1920 N   0  0  0  0  0  0  0  0  0  0  0  0
  187.1760  177.6850  137.9660 C   0  0  0  0  0  0  0  0  0  0  0  0
  184.8770  178.4160  138.0180 C   0  0  0  0  0  3  0  0  0  0  0  0
  185.4490  176.4920  136.7590 C   0  0  0  0  0  0  0  0  0  0  0  0
  185.1340  175.5240  136.0140 O   0  0  0  0  0  0  0  0  0  0  0  0
  189.0440  179.0030  138.7180 N   0  0  0  0  0  2  0  0  0  0  0  0
  189.5200  176.6780  138.3790 C   0  0  0  0  0  1  0  0  0  0  0  0
  188.5890  177.8440  138.3680 C   0  0  0  0  0  0  0  0  0  0  0  0
  182.5190  175.8380  137.1580 C   0  0  0  0  0  2  0  0  0  0  0  0
  181.7830  175.1310  136.0270 C   0  0  0  0  0  2  0  0  0  0  0  0
  180.2840  175.2000  136.2440 C   0  0  0  0  0  1  0  0  0  0  0  0
  1  3  1  0  0  0  0
  1  9  1  6  0  0  0
  2 19  1  1  0  0  0
  2  1  1  0  0  0  0
  3 10  1  6  0  0  0
  4 17  2  0  0  0  0
  4 16  1  0  0  0  0
  5  2  1  0  0  0  0
  6  7  1  0  0  0  0
  7 10  1  0  0  0  0
  8  3  1  0  0  0  0
  8 13  1  0  0  0  0
  9 11  1  0  0  0  0
  9 12  2  0  0  0  0
 14  5  1  0  0  0  0
 14  7  2  0  0  0  0
 15 11  1  0  0  0  0
 15 13  1  0  0  0  0
 16  6  2  0  0  0  0
 17 14  1  0  0  0  0
 19 18  1  6  0  0  0
 19 30  1  0  0  0  0
 19 22  1  0  0  0  0
 20 23  2  0  0  0  0
 22 24  1  0  0  0  0
 23 29  1  0  0  0  0
 23 21  1  0  0  0  0
 24 21  2  0  0  0  0
 25 20  1  0  0  0  0
 25 22  1  0  0  0  0
 26 25  2  0  0  0  0
 29 28  1  0  0  0  0
 29 27  2  0  0  0  0
 31 32  1  0  0  0  0
 31 30  1  0  0  0  0
M  END
>  <MODEL>
9

>  <REMARK>
 VINA RESULT:      -5.4      4.165      8.136
  Name = 
  5 active torsions:
  status: ('A' for Active; 'I' for Inactive)
    1  A    between atoms: C_1  and  C_4
    2  A    between atoms: C_1  and  C_27
    3  A    between atoms: C_5  and  C_27
    4  A    between atoms: N_16  and  C_27
    5  A    between atoms: C_19  and  C_26
                            x       y       z     vdW  Elec       q    Type
                         _______ _______ _______ _____ _____    ______ ____

>  <TORSDO>
F 5

$$$$
