=
 OpenBabel10262421113D

 32 36  0  0  1  0  0  0  0  0999 V2000
  184.9030  179.5580  144.6590 O   0  0  0  0  0  0  0  0  0  0  0  0
  187.7850  176.9870  143.2250 C   0  0  2  0  0  3  0  0  0  0  0  0
  184.6840  178.6900  145.7360 C   0  0  0  0  0  2  0  0  0  0  0  0
  187.0570  176.7090  144.5440 C   0  0  0  0  0  2  0  0  0  0  0  0
  189.1550  177.6660  143.3950 C   0  0  2  0  0  3  0  0  0  0  0  0
  187.7600  177.8230  138.4310 C   0  0  0  0  0  2  0  0  0  0  0  0
  186.9470  177.7770  142.2010 C   0  0  1  0  0  3  0  0  0  0  0  0
  189.9640  177.9000  139.6520 C   0  0  0  0  0  2  0  0  0  0  0  0
  189.1320  177.4190  140.8490 C   0  0  1  0  0  3  0  0  0  0  0  0
  187.5160  177.7070  145.5970 C   0  0  2  0  0  3  0  0  0  0  0  0
  189.9910  177.4650  142.1270 C   0  0  0  0  0  2  0  0  0  0  0  0
  188.9830  177.4450  145.9480 C   0  0  0  0  0  2  0  0  0  0  0  0
  186.6580  177.6410  146.7680 N   0  0  0  0  0  2  0  0  0  0  0  0
  186.3390  179.0430  142.8070 C   0  0  0  0  0  2  0  0  0  0  0  0
  185.0370  178.7310  143.5370 C   0  0  2  0  0  3  0  0  0  0  0  0
  187.7880  178.1800  140.9740 C   0  0  1  0  0  3  0  0  0  0  0  0
  189.8660  177.2420  144.6960 C   0  0  2  0  0  3  0  0  0  0  0  0
  185.8100  178.8290  146.7570 C   0  0  0  0  0  2  0  0  0  0  0  0
  189.1210  178.5030  138.5230 C   0  0  0  0  0  2  0  0  0  0  0  0
  186.9360  178.0610  139.7020 C   0  0  0  0  0  2  0  0  0  0  0  0
  181.4690  178.8160  142.2330 C   0  0  0  0  0  0  0  0  0  0  0  0
  180.2070  178.6450  142.6980 F   0  0  0  0  0  0  0  0  0  0  0  0
  183.8660  178.8810  142.6130 C   0  0  0  0  0  0  0  0  0  0  0  0
  181.6750  179.0960  140.8790 C   0  0  0  0  0  3  0  0  0  0  0  0
  184.0650  179.1570  141.2530 C   0  0  0  0  0  3  0  0  0  0  0  0
  182.5620  178.7060  143.1010 C   0  0  0  0  0  0  0  0  0  0  0  0
  182.3520  178.4250  144.4120 F   0  0  0  0  0  0  0  0  0  0  0  0
  182.9720  179.2740  140.3890 C   0  0  0  0  0  0  0  0  0  0  0  0
  184.2970  180.3830  138.7850 O   0  0  0  0  0  1  0  0  0  0  0  0
  183.1920  179.5450  138.9440 C   0  0  0  0  0  2  0  0  0  0  0  0
  191.2000  177.9590  144.8790 C   0  0  0  0  0  2  0  0  0  0  0  0
  191.9590  177.3460  145.8780 O   0  0  0  0  0  1  0  0  0  0  0  0
  1  3  1  0  0  0  0
  2  5  1  0  0  0  0
  2  4  1  1  0  0  0
  3 18  1  0  0  0  0
  5 11  1  6  0  0  0
  5 17  1  0  0  0  0
  6 19  1  0  0  0  0
  6 20  1  0  0  0  0
  7 14  1  1  0  0  0
  7  2  1  0  0  0  0
  9  8  1  6  0  0  0
  9 16  1  0  0  0  0
  9 11  1  0  0  0  0
 10  4  1  6  0  0  0
 10 12  1  0  0  0  0
 10 13  1  0  0  0  0
 14 15  1  0  0  0  0
 15 23  1  6  0  0  0
 15  1  1  0  0  0  0
 16 20  1  6  0  0  0
 16  7  1  0  0  0  0
 17 31  1  1  0  0  0
 17 12  1  0  0  0  0
 18 13  1  0  0  0  0
 19  8  1  0  0  0  0
 21 22  1  0  0  0  0
 21 26  1  0  0  0  0
 23 26  2  0  0  0  0
 24 21  2  0  0  0  0
 25 23  1  0  0  0  0
 26 27  1  0  0  0  0
 28 24  1  0  0  0  0
 28 25  2  0  0  0  0
 29 30  1  0  0  0  0
 30 28  1  0  0  0  0
 31 32  1  0  0  0  0
M  END
>  <MODEL>
1

>  <REMARK>
 VINA RESULT:     -10.0      0.000      0.000
  Name = 
  3 active torsions:
  status: ('A' for Active; 'I' for Inactive)
    1  A    between atoms: C_13  and  C_29
    2  A    between atoms: C_15  and  C_26
    3  A    between atoms: C_16  and  C_27
                            x       y       z     vdW  Elec       q    Type
                         _______ _______ _______ _____ _____    ______ ____

>  <TORSDO>
F 3

$$$$
=
 OpenBabel10262421113D

 32 36  0  0  1  0  0  0  0  0999 V2000
  190.3930  175.7090  142.3720 O   0  0  0  0  0  0  0  0  0  0  0  0
  188.4950  178.4200  144.8270 C   0  0  2  0  0  3  0  0  0  0  0  0
  191.6300  176.1720  142.8400 C   0  0  0  0  0  2  0  0  0  0  0  0
  190.0210  178.2800  144.8260 C   0  0  0  0  0  2  0  0  0  0  0  0
  187.7920  177.6350  145.9470 C   0  0  2  0  0  3  0  0  0  0  0  0
  184.2870  179.2670  142.5310 C   0  0  0  0  0  2  0  0  0  0  0  0
  187.8350  178.0820  143.4750 C   0  0  1  0  0  3  0  0  0  0  0  0
  184.2190  178.6350  144.9710 C   0  0  0  0  0  2  0  0  0  0  0  0
  185.7470  178.7340  144.8720 C   0  0  1  0  0  3  0  0  0  0  0  0
  190.4080  176.9550  145.4680 C   0  0  2  0  0  3  0  0  0  0  0  0
  186.3850  178.2000  146.1690 C   0  0  0  0  0  2  0  0  0  0  0  0
  190.0620  176.9850  146.9580 C   0  0  0  0  0  2  0  0  0  0  0  0
  191.8160  176.6750  145.2430 N   0  0  0  0  0  2  0  0  0  0  0  0
  188.2930  176.7270  142.9310 C   0  0  0  0  0  2  0  0  0  0  0  0
  189.6140  176.8570  142.1810 C   0  0  2  0  0  3  0  0  0  0  0  0
  186.2970  178.0660  143.5860 C   0  0  1  0  0  3  0  0  0  0  0  0
  188.6460  177.5430  147.2280 C   0  0  2  0  0  3  0  0  0  0  0  0
  191.8980  175.6200  144.2380 C   0  0  0  0  0  2  0  0  0  0  0  0
  183.5240  178.5080  143.6110 C   0  0  0  0  0  2  0  0  0  0  0  0
  185.6810  178.6650  142.3140 C   0  0  0  0  0  2  0  0  0  0  0  0
  190.2140  177.2920  138.4540 C   0  0  0  0  0  0  0  0  0  0  0  0
  191.2380  177.2200  137.5690 F   0  0  0  0  0  0  0  0  0  0  0  0
  189.3710  177.1080  140.7230 C   0  0  0  0  0  0  0  0  0  0  0  0
  188.9350  177.6380  138.0060 C   0  0  0  0  0  3  0  0  0  0  0  0
  188.0920  177.4610  140.2680 C   0  0  0  0  0  3  0  0  0  0  0  0
  190.4340  177.0280  139.8110 C   0  0  0  0  0  0  0  0  0  0  0  0
  191.6810  176.7020  140.2380 F   0  0  0  0  0  0  0  0  0  0  0  0
  187.8730  177.7150  138.9100 C   0  0  0  0  0  0  0  0  0  0  0  0
  186.6290  178.8490  137.2590 O   0  0  0  0  0  1  0  0  0  0  0  0
  186.5190  178.1100  138.4380 C   0  0  0  0  0  2  0  0  0  0  0  0
  187.9610  176.7210  148.3150 C   0  0  0  0  0  2  0  0  0  0  0  0
  187.6050  177.5290  149.3970 O   0  0  0  0  0  1  0  0  0  0  0  0
  1  3  1  0  0  0  0
  2  4  1  6  0  0  0
  2  5  1  0  0  0  0
  3 18  1  0  0  0  0
  5 11  1  1  0  0  0
  5 17  1  0  0  0  0
  6 19  1  0  0  0  0
  7 14  1  1  0  0  0
  7 16  1  0  0  0  0
  7  2  1  0  0  0  0
  9  8  1  1  0  0  0
  9 11  1  0  0  0  0
 10  4  1  1  0  0  0
 10 12  1  0  0  0  0
 12 17  1  0  0  0  0
 13 10  1  0  0  0  0
 15 23  1  6  0  0  0
 15  1  1  0  0  0  0
 15 14  1  0  0  0  0
 16 20  1  6  0  0  0
 16  9  1  0  0  0  0
 17 31  1  1  0  0  0
 18 13  1  0  0  0  0
 19  8  1  0  0  0  0
 20  6  1  0  0  0  0
 21 26  1  0  0  0  0
 22 21  1  0  0  0  0
 24 21  2  0  0  0  0
 24 28  1  0  0  0  0
 25 23  1  0  0  0  0
 26 27  1  0  0  0  0
 26 23  2  0  0  0  0
 28 25  2  0  0  0  0
 29 30  1  0  0  0  0
 30 28  1  0  0  0  0
 31 32  1  0  0  0  0
M  END
>  <MODEL>
2

>  <REMARK>
 VINA RESULT:     -10.0      3.541      6.020
  Name = 
  3 active torsions:
  status: ('A' for Active; 'I' for Inactive)
    1  A    between atoms: C_13  and  C_29
    2  A    between atoms: C_15  and  C_26
    3  A    between atoms: C_16  and  C_27
                            x       y       z     vdW  Elec       q    Type
                         _______ _______ _______ _____ _____    ______ ____

>  <TORSDO>
F 3

$$$$
=
 OpenBabel10262421113D

 32 36  0  0  1  0  0  0  0  0999 V2000
  187.5490  179.1770  141.1000 O   0  0  0  0  0  0  0  0  0  0  0  0
  187.3250  176.8690  144.5060 C   0  0  2  0  0  3  0  0  0  0  0  0
  186.2670  178.7440  140.7380 C   0  0  0  0  0  2  0  0  0  0  0  0
  186.1470  176.9630  143.5290 C   0  0  0  0  0  2  0  0  0  0  0  0
  187.2150  177.8150  145.7140 C   0  0  2  0  0  3  0  0  0  0  0  0
  191.9820  175.8550  145.4900 C   0  0  0  0  0  2  0  0  0  0  0  0
  188.7040  177.0470  143.8420 C   0  0  1  0  0  3  0  0  0  0  0  0
  190.5440  176.8020  147.3310 C   0  0  0  0  0  2  0  0  0  0  0  0
  189.4120  176.6460  146.3060 C   0  0  1  0  0  3  0  0  0  0  0  0
  185.5230  178.3470  143.6190 C   0  0  2  0  0  3  0  0  0  0  0  0
  188.1360  177.3260  146.8370 C   0  0  0  0  0  2  0  0  0  0  0  0
  184.8560  178.5230  144.9850 C   0  0  0  0  0  2  0  0  0  0  0  0
  184.5860  178.5540  142.5270 N   0  0  0  0  0  2  0  0  0  0  0  0
  188.7690  178.3040  142.9720 C   0  0  0  0  0  2  0  0  0  0  0  0
  188.2050  178.0380  141.5810 C   0  0  2  0  0  3  0  0  0  0  0  0
  189.8310  177.1240  144.8920 C   0  0  1  0  0  3  0  0  0  0  0  0
  185.7540  178.0480  146.1500 C   0  0  2  0  0  3  0  0  0  0  0  0
  185.2150  179.4650  141.5760 C   0  0  0  0  0  2  0  0  0  0  0  0
  191.9440  176.7710  146.7080 C   0  0  0  0  0  2  0  0  0  0  0  0
  191.0710  176.3810  144.3740 C   0  0  0  0  0  2  0  0  0  0  0  0
  189.9800  176.6410  138.5250 C   0  0  0  0  0  0  0  0  0  0  0  0
  189.6690  176.1210  137.3130 F   0  0  0  0  0  0  0  0  0  0  0  0
  189.2930  177.6060  140.6450 C   0  0  0  0  0  0  0  0  0  0  0  0
  191.3190  176.7380  138.9140 C   0  0  0  0  0  3  0  0  0  0  0  0
  190.6380  177.6960  141.0300 C   0  0  0  0  0  3  0  0  0  0  0  0
  188.9660  177.0720  139.3890 C   0  0  0  0  0  0  0  0  0  0  0  0
  187.6680  176.9650  139.0060 F   0  0  0  0  0  0  0  0  0  0  0  0
  191.6500  177.2720  140.1620 C   0  0  0  0  0  0  0  0  0  0  0  0
  193.9050  177.1720  139.4800 O   0  0  0  0  0  1  0  0  0  0  0  0
  193.0730  177.3500  140.5860 C   0  0  0  0  0  2  0  0  0  0  0  0
  185.6540  179.0250  147.3170 C   0  0  0  0  0  2  0  0  0  0  0  0
  186.0030  180.3160  146.9130 O   0  0  0  0  0  1  0  0  0  0  0  0
  1 15  1  0  0  0  0
  2  4  1  6  0  0  0
  2  5  1  0  0  0  0
  3  1  1  0  0  0  0
  3 18  1  0  0  0  0
  5 17  1  0  0  0  0
  5 11  1  1  0  0  0
  6 19  1  0  0  0  0
  7 14  1  1  0  0  0
  7  2  1  0  0  0  0
  7 16  1  0  0  0  0
  9 11  1  1  0  0  0
  9  8  1  0  0  0  0
 10  4  1  1  0  0  0
 10 12  1  0  0  0  0
 12 17  1  0  0  0  0
 13 10  1  0  0  0  0
 15 23  1  6  0  0  0
 15 14  1  0  0  0  0
 16 20  1  6  0  0  0
 16  9  1  0  0  0  0
 17 31  1  1  0  0  0
 18 13  1  0  0  0  0
 19  8  1  0  0  0  0
 20  6  1  0  0  0  0
 21 24  2  0  0  0  0
 21 26  1  0  0  0  0
 22 21  1  0  0  0  0
 23 25  1  0  0  0  0
 24 28  1  0  0  0  0
 26 23  2  0  0  0  0
 27 26  1  0  0  0  0
 28 30  1  0  0  0  0
 28 25  2  0  0  0  0
 29 30  1  0  0  0  0
 32 31  1  0  0  0  0
M  END
>  <MODEL>
3

>  <REMARK>
 VINA RESULT:      -9.9      3.142      6.615
  Name = 
  3 active torsions:
  status: ('A' for Active; 'I' for Inactive)
    1  A    between atoms: C_13  and  C_29
    2  A    between atoms: C_15  and  C_26
    3  A    between atoms: C_16  and  C_27
                            x       y       z     vdW  Elec       q    Type
                         _______ _______ _______ _____ _____    ______ ____

>  <TORSDO>
F 3

$$$$
=
 OpenBabel10262421113D

 32 36  0  0  1  0  0  0  0  0999 V2000
  185.7770  177.2520  145.2230 O   0  0  0  0  0  0  0  0  0  0  0  0
  186.8520  179.1390  141.7230 C   0  0  2  0  0  3  0  0  0  0  0  0
  184.9430  178.3330  145.5350 C   0  0  0  0  0  2  0  0  0  0  0  0
  185.8170  179.7530  142.6720 C   0  0  0  0  0  2  0  0  0  0  0  0
  186.2420  178.3510  140.5520 C   0  0  2  0  0  3  0  0  0  0  0  0
  191.3030  177.3890  140.8190 C   0  0  0  0  0  2  0  0  0  0  0  0
  187.9090  178.2670  142.4290 C   0  0  1  0  0  3  0  0  0  0  0  0
  189.5800  177.2970  138.9810 C   0  0  0  0  0  2  0  0  0  0  0  0
  188.7200  178.0960  139.9700 C   0  0  1  0  0  3  0  0  0  0  0  0
  184.5360  178.9330  142.6220 C   0  0  2  0  0  3  0  0  0  0  0  0
  187.2790  178.2020  139.4340 C   0  0  0  0  0  2  0  0  0  0  0  0
  183.8810  179.0860  141.2470 C   0  0  0  0  0  2  0  0  0  0  0  0
  183.6400  179.3260  143.6970 N   0  0  0  0  0  2  0  0  0  0  0  0
  187.2750  177.2230  143.3500 C   0  0  0  0  0  2  0  0  0  0  0  0
  186.9500  177.8210  144.7140 C   0  0  2  0  0  3  0  0  0  0  0  0
  188.8090  177.5360  141.4120 C   0  0  1  0  0  3  0  0  0  0  0  0
  184.8920  178.9360  140.0880 C   0  0  2  0  0  3  0  0  0  0  0  0
  183.6670  178.2660  144.6990 C   0  0  0  0  0  2  0  0  0  0  0  0
  190.7680  176.5870  139.6380 C   0  0  0  0  0  2  0  0  0  0  0  0
  190.2540  177.5020  141.9310 C   0  0  0  0  0  2  0  0  0  0  0  0
  189.0520  177.8730  147.8790 C   0  0  0  0  0  0  0  0  0  0  0  0
  188.9370  178.2530  149.1750 F   0  0  0  0  0  0  0  0  0  0  0  0
  188.0970  177.6310  145.6600 C   0  0  0  0  0  0  0  0  0  0  0  0
  190.2590  177.3370  147.4190 C   0  0  0  0  0  3  0  0  0  0  0  0
  189.3120  177.0990  145.2050 C   0  0  0  0  0  3  0  0  0  0  0  0
  187.9710  178.0220  147.0020 C   0  0  0  0  0  0  0  0  0  0  0  0
  186.8070  178.5520  147.4560 F   0  0  0  0  0  0  0  0  0  0  0  0
  190.3880  176.9430  146.0850 C   0  0  0  0  0  0  0  0  0  0  0  0
  192.2900  175.6460  146.5940 O   0  0  0  0  0  1  0  0  0  0  0  0
  191.6800  176.3990  145.5890 C   0  0  0  0  0  2  0  0  0  0  0  0
  184.2720  178.1180  138.9590 C   0  0  0  0  0  2  0  0  0  0  0  0
  183.3890  177.1620  139.4670 O   0  0  0  0  0  1  0  0  0  0  0  0
  1  3  1  0  0  0  0
  2  7  1  0  0  0  0
  2  4  1  1  0  0  0
  5 11  1  6  0  0  0
  5  2  1  0  0  0  0
  6 20  1  0  0  0  0
  7 14  1  6  0  0  0
  8 19  1  0  0  0  0
  9  8  1  6  0  0  0
  9 16  1  0  0  0  0
 10 12  1  6  0  0  0
 10  4  1  0  0  0  0
 10 13  1  0  0  0  0
 11  9  1  0  0  0  0
 13 18  1  0  0  0  0
 14 15  1  0  0  0  0
 15  1  1  0  0  0  0
 15 23  1  1  0  0  0
 16 20  1  1  0  0  0
 16  7  1  0  0  0  0
 17 31  1  6  0  0  0
 17  5  1  0  0  0  0
 17 12  1  0  0  0  0
 18  3  1  0  0  0  0
 19  6  1  0  0  0  0
 21 22  1  0  0  0  0
 23 26  1  0  0  0  0
 24 21  1  0  0  0  0
 25 23  2  0  0  0  0
 25 28  1  0  0  0  0
 26 27  1  0  0  0  0
 26 21  2  0  0  0  0
 28 24  2  0  0  0  0
 30 28  1  0  0  0  0
 30 29  1  0  0  0  0
 31 32  1  0  0  0  0
M  END
>  <MODEL>
4

>  <REMARK>
 VINA RESULT:      -9.7      2.380      6.400
  Name = 
  3 active torsions:
  status: ('A' for Active; 'I' for Inactive)
    1  A    between atoms: C_13  and  C_29
    2  A    between atoms: C_15  and  C_26
    3  A    between atoms: C_16  and  C_27
                            x       y       z     vdW  Elec       q    Type
                         _______ _______ _______ _____ _____    ______ ____

>  <TORSDO>
F 3

$$$$
=
 OpenBabel10262421113D

 32 36  0  0  1  0  0  0  0  0999 V2000
  190.6710  175.8080  142.1060 O   0  0  0  0  0  0  0  0  0  0  0  0
  188.3270  178.5540  144.0900 C   0  0  2  0  0  3  0  0  0  0  0  0
  191.8060  176.3540  142.7180 C   0  0  0  0  0  2  0  0  0  0  0  0
  189.8410  178.4880  144.3190 C   0  0  0  0  0  2  0  0  0  0  0  0
  187.4990  177.7990  145.1440 C   0  0  2  0  0  3  0  0  0  0  0  0
  184.4720  179.0710  141.1640 C   0  0  0  0  0  2  0  0  0  0  0  0
  187.8860  178.1110  142.6810 C   0  0  1  0  0  3  0  0  0  0  0  0
  184.0710  178.5710  143.6030 C   0  0  0  0  0  2  0  0  0  0  0  0
  185.5920  178.7370  143.7190 C   0  0  1  0  0  3  0  0  0  0  0  0
  190.1820  177.2200  145.0890 C   0  0  2  0  0  3  0  0  0  0  0  0
  186.0530  178.3060  145.1250 C   0  0  0  0  0  2  0  0  0  0  0  0
  189.6200  177.3160  146.5100 C   0  0  0  0  0  2  0  0  0  0  0  0
  191.6180  176.9960  145.0880 N   0  0  0  0  0  2  0  0  0  0  0  0
  188.4730  176.7520  142.2930 C   0  0  0  0  0  2  0  0  0  0  0  0
  189.8840  176.9040  141.7350 C   0  0  2  0  0  3  0  0  0  0  0  0
  186.3510  178.0270  142.5700 C   0  0  1  0  0  3  0  0  0  0  0  0
  188.1580  177.8180  146.5380 C   0  0  2  0  0  3  0  0  0  0  0  0
  191.8880  175.8930  144.1710 C   0  0  0  0  0  2  0  0  0  0  0  0
  183.5890  178.3360  142.1670 C   0  0  0  0  0  2  0  0  0  0  0  0
  185.9050  178.5260  141.1880 C   0  0  0  0  0  2  0  0  0  0  0  0
  189.2640  178.3730  138.2850 C   0  0  0  0  0  0  0  0  0  0  0  0
  188.7580  179.5020  137.7320 F   0  0  0  0  0  0  0  0  0  0  0  0
  189.8470  177.0630  140.2440 C   0  0  0  0  0  0  0  0  0  0  0  0
  189.7180  177.3400  137.4590 C   0  0  0  0  0  3  0  0  0  0  0  0
  190.2970  176.0300  139.4090 C   0  0  0  0  0  3  0  0  0  0  0  0
  189.3260  178.2360  139.6770 C   0  0  0  0  0  0  0  0  0  0  0  0
  188.8740  179.2400  140.4710 F   0  0  0  0  0  0  0  0  0  0  0  0
  190.2410  176.1720  138.0200 C   0  0  0  0  0  0  0  0  0  0  0  0
  190.1670  173.8550  137.5910 O   0  0  0  0  0  1  0  0  0  0  0  0
  190.6990  175.0640  137.1410 C   0  0  0  0  0  2  0  0  0  0  0  0
  187.3540  177.0250  147.5630 C   0  0  0  0  0  2  0  0  0  0  0  0
  187.7650  177.3350  148.8610 O   0  0  0  0  0  1  0  0  0  0  0  0
  1  3  1  0  0  0  0
  2  4  1  1  0  0  0
  2  5  1  0  0  0  0
  3 18  1  0  0  0  0
  5 11  1  1  0  0  0
  5 17  1  0  0  0  0
  6 20  1  0  0  0  0
  6 19  1  0  0  0  0
  7 14  1  1  0  0  0
  7  2  1  0  0  0  0
  9  8  1  1  0  0  0
  9 11  1  0  0  0  0
 10  4  1  6  0  0  0
 10 12  1  0  0  0  0
 12 17  1  0  0  0  0
 13 10  1  0  0  0  0
 15 23  1  6  0  0  0
 15  1  1  0  0  0  0
 15 14  1  0  0  0  0
 16 20  1  6  0  0  0
 16  7  1  0  0  0  0
 16  9  1  0  0  0  0
 17 31  1  1  0  0  0
 18 13  1  0  0  0  0
 19  8  1  0  0  0  0
 21 26  1  0  0  0  0
 22 21  1  0  0  0  0
 24 28  1  0  0  0  0
 24 21  2  0  0  0  0
 25 23  1  0  0  0  0
 26 23  2  0  0  0  0
 26 27  1  0  0  0  0
 28 25  2  0  0  0  0
 30 29  1  0  0  0  0
 30 28  1  0  0  0  0
 31 32  1  0  0  0  0
M  END
>  <MODEL>
5

>  <REMARK>
 VINA RESULT:      -9.6      3.339      6.097
  Name = 
  3 active torsions:
  status: ('A' for Active; 'I' for Inactive)
    1  A    between atoms: C_13  and  C_29
    2  A    between atoms: C_15  and  C_26
    3  A    between atoms: C_16  and  C_27
                            x       y       z     vdW  Elec       q    Type
                         _______ _______ _______ _____ _____    ______ ____

>  <TORSDO>
F 3

$$$$
=
 OpenBabel10262421113D

 32 36  0  0  1  0  0  0  0  0999 V2000
  188.1640  178.9050  140.6450 O   0  0  0  0  0  0  0  0  0  0  0  0
  187.5680  176.8150  144.1450 C   0  0  2  0  0  3  0  0  0  0  0  0
  186.9100  178.4770  140.1910 C   0  0  0  0  0  2  0  0  0  0  0  0
  186.4880  176.8730  143.0600 C   0  0  0  0  0  2  0  0  0  0  0  0
  187.3730  177.8350  145.2800 C   0  0  2  0  0  3  0  0  0  0  0  0
  192.0870  175.7650  145.6160 C   0  0  0  0  0  2  0  0  0  0  0  0
  189.0070  176.9230  143.6030 C   0  0  1  0  0  3  0  0  0  0  0  0
  190.5120  176.8530  147.2560 C   0  0  0  0  0  2  0  0  0  0  0  0
  189.4750  176.6590  146.1420 C   0  0  1  0  0  3  0  0  0  0  0  0
  185.8950  178.2740  143.0090 C   0  0  2  0  0  3  0  0  0  0  0  0
  188.1740  177.3970  146.5100 C   0  0  0  0  0  2  0  0  0  0  0  0
  185.1110  178.5470  144.2950 C   0  0  0  0  0  2  0  0  0  0  0  0
  185.0680  178.4330  141.8250 N   0  0  0  0  0  2  0  0  0  0  0  0
  189.1840  178.1230  142.6710 C   0  0  0  0  0  2  0  0  0  0  0  0
  188.7430  177.7840  141.2510 C   0  0  2  0  0  3  0  0  0  0  0  0
  190.0340  177.0400  144.7470 C   0  0  1  0  0  3  0  0  0  0  0  0
  185.8860  178.1250  145.5640 C   0  0  2  0  0  3  0  0  0  0  0  0
  185.8050  179.2710  140.8840 C   0  0  0  0  0  2  0  0  0  0  0  0
  191.9620  176.7540  146.7690 C   0  0  0  0  0  2  0  0  0  0  0  0
  191.2960  176.2410  144.3920 C   0  0  0  0  0  2  0  0  0  0  0  0
  192.2930  177.1380  140.0590 C   0  0  0  0  0  0  0  0  0  0  0  0
  193.5630  177.4460  140.4190 F   0  0  0  0  0  0  0  0  0  0  0  0
  189.9000  177.2720  140.4470 C   0  0  0  0  0  0  0  0  0  0  0  0
  192.0650  176.3710  138.9120 C   0  0  0  0  0  3  0  0  0  0  0  0
  189.6790  176.5060  139.2930 C   0  0  0  0  0  3  0  0  0  0  0  0
  191.2130  177.5910  140.8260 C   0  0  0  0  0  0  0  0  0  0  0  0
  191.4440  178.3430  141.9330 F   0  0  0  0  0  0  0  0  0  0  0  0
  190.7590  176.0480  138.5330 C   0  0  0  0  0  0  0  0  0  0  0  0
  190.3100  173.9160  137.6320 O   0  0  0  0  0  1  0  0  0  0  0  0
  190.5160  175.2550  137.2990 C   0  0  0  0  0  2  0  0  0  0  0  0
  185.7050  179.1740  146.6570 C   0  0  0  0  0  2  0  0  0  0  0  0
  184.9360  178.6690  147.7060 O   0  0  0  0  0  1  0  0  0  0  0  0
  1 15  1  0  0  0  0
  2  4  1  6  0  0  0
  2  5  1  0  0  0  0
  3  1  1  0  0  0  0
  3 18  1  0  0  0  0
  5 17  1  0  0  0  0
  5 11  1  1  0  0  0
  6 19  1  0  0  0  0
  7 14  1  6  0  0  0
  7  2  1  0  0  0  0
  7 16  1  0  0  0  0
  9 11  1  1  0  0  0
  9  8  1  0  0  0  0
 10  4  1  1  0  0  0
 10 12  1  0  0  0  0
 12 17  1  0  0  0  0
 13 10  1  0  0  0  0
 15 23  1  6  0  0  0
 15 14  1  0  0  0  0
 16 20  1  6  0  0  0
 16  9  1  0  0  0  0
 17 31  1  1  0  0  0
 18 13  1  0  0  0  0
 19  8  1  0  0  0  0
 20  6  1  0  0  0  0
 21 22  1  0  0  0  0
 21 26  1  0  0  0  0
 23 26  2  0  0  0  0
 24 21  2  0  0  0  0
 25 23  1  0  0  0  0
 26 27  1  0  0  0  0
 28 24  1  0  0  0  0
 28 25  2  0  0  0  0
 30 29  1  0  0  0  0
 30 28  1  0  0  0  0
 31 32  1  0  0  0  0
M  END
>  <MODEL>
6

>  <REMARK>
 VINA RESULT:      -9.6      3.703      6.958
  Name = 
  3 active torsions:
  status: ('A' for Active; 'I' for Inactive)
    1  A    between atoms: C_13  and  C_29
    2  A    between atoms: C_15  and  C_26
    3  A    between atoms: C_16  and  C_27
                            x       y       z     vdW  Elec       q    Type
                         _______ _______ _______ _____ _____    ______ ____

>  <TORSDO>
F 3

$$$$
=
 OpenBabel10262421113D

 32 36  0  0  1  0  0  0  0  0999 V2000
  186.4980  177.0470  145.8020 O   0  0  0  0  0  0  0  0  0  0  0  0
  185.5320  179.3230  142.5070 C   0  0  2  0  0  3  0  0  0  0  0  0
  185.8950  178.0060  146.6250 C   0  0  0  0  0  2  0  0  0  0  0  0
  185.1060  179.7440  143.9170 C   0  0  0  0  0  2  0  0  0  0  0  0
  184.4420  178.5770  141.7180 C   0  0  2  0  0  3  0  0  0  0  0  0
  188.9570  178.1230  139.2630 C   0  0  0  0  0  2  0  0  0  0  0  0
  186.8400  178.5080  142.4650 C   0  0  1  0  0  3  0  0  0  0  0  0
  186.5400  178.0080  138.5560 C   0  0  0  0  0  2  0  0  0  0  0  0
  186.2760  178.6290  139.9350 C   0  0  1  0  0  3  0  0  0  0  0  0
  184.0200  178.8040  144.4210 C   0  0  2  0  0  3  0  0  0  0  0  0
  184.7610  178.6300  140.2210 C   0  0  0  0  0  2  0  0  0  0  0  0
  182.7450  179.0040  143.5990 C   0  0  0  0  0  2  0  0  0  0  0  0
  183.7890  179.0110  145.8410 N   0  0  0  0  0  2  0  0  0  0  0  0
  186.8180  177.3300  143.4410 C   0  0  0  0  0  2  0  0  0  0  0  0
  187.2150  177.7750  144.8450 C   0  0  2  0  0  3  0  0  0  0  0  0
  187.1190  177.9610  141.0510 C   0  0  1  0  0  3  0  0  0  0  0  0
  183.0210  179.0560  142.0790 C   0  0  2  0  0  3  0  0  0  0  0  0
  184.3760  177.8790  146.5500 C   0  0  0  0  0  2  0  0  0  0  0  0
  187.9270  177.3710  138.4270 C   0  0  0  0  0  2  0  0  0  0  0  0
  188.6250  178.0330  140.7580 C   0  0  0  0  0  2  0  0  0  0  0  0
  190.5690  177.0450  146.4740 C   0  0  0  0  0  0  0  0  0  0  0  0
  191.0530  176.5960  147.6580 F   0  0  0  0  0  0  0  0  0  0  0  0
  188.6920  177.6250  145.0470 C   0  0  0  0  0  0  0  0  0  0  0  0
  191.4560  177.4030  145.4550 C   0  0  0  0  0  3  0  0  0  0  0  0
  189.5880  177.9880  144.0310 C   0  0  0  0  0  3  0  0  0  0  0  0
  189.1870  177.1560  146.2730 C   0  0  0  0  0  0  0  0  0  0  0  0
  188.3340  176.8140  147.2730 F   0  0  0  0  0  0  0  0  0  0  0  0
  190.9670  177.8680  144.2310 C   0  0  0  0  0  0  0  0  0  0  0  0
  191.7810  177.4160  142.0650 O   0  0  0  0  0  1  0  0  0  0  0  0
  191.9110  178.2750  143.1570 C   0  0  0  0  0  2  0  0  0  0  0  0
  181.9460  178.2770  141.3270 C   0  0  0  0  0  2  0  0  0  0  0  0
  181.1790  179.1320  140.5330 O   0  0  0  0  0  1  0  0  0  0  0  0
  1  3  1  0  0  0  0
  2  4  1  1  0  0  0
  4 10  1  0  0  0  0
  5 11  1  6  0  0  0
  5 17  1  0  0  0  0
  5  2  1  0  0  0  0
  6 20  1  0  0  0  0
  7  2  1  0  0  0  0
  7 14  1  1  0  0  0
  9  8  1  6  0  0  0
  9 11  1  0  0  0  0
  9 16  1  0  0  0  0
 10 12  1  6  0  0  0
 10 13  1  0  0  0  0
 13 18  1  0  0  0  0
 14 15  1  0  0  0  0
 15 23  1  1  0  0  0
 15  1  1  0  0  0  0
 16 20  1  6  0  0  0
 16  7  1  0  0  0  0
 17 31  1  6  0  0  0
 17 12  1  0  0  0  0
 18  3  1  0  0  0  0
 19  8  1  0  0  0  0
 19  6  1  0  0  0  0
 21 22  1  0  0  0  0
 23 26  2  0  0  0  0
 24 21  2  0  0  0  0
 25 28  2  0  0  0  0
 25 23  1  0  0  0  0
 26 21  1  0  0  0  0
 26 27  1  0  0  0  0
 28 24  1  0  0  0  0
 29 30  1  0  0  0  0
 30 28  1  0  0  0  0
 32 31  1  0  0  0  0
M  END
>  <MODEL>
7

>  <REMARK>
 VINA RESULT:      -9.4      2.606      6.407
  Name = 
  3 active torsions:
  status: ('A' for Active; 'I' for Inactive)
    1  A    between atoms: C_13  and  C_29
    2  A    between atoms: C_15  and  C_26
    3  A    between atoms: C_16  and  C_27
                            x       y       z     vdW  Elec       q    Type
                         _______ _______ _______ _____ _____    ______ ____

>  <TORSDO>
F 3

$$$$
=
 OpenBabel10262421113D

 32 36  0  0  1  0  0  0  0  0999 V2000
  187.4100  177.0800  145.0530 O   0  0  0  0  0  0  0  0  0  0  0  0
  184.9320  179.4790  142.8000 C   0  0  2  0  0  3  0  0  0  0  0  0
  187.2800  177.9750  146.1240 C   0  0  0  0  0  2  0  0  0  0  0  0
  185.2490  179.8140  144.2610 C   0  0  0  0  0  2  0  0  0  0  0  0
  183.6010  178.7340  142.6010 C   0  0  2  0  0  3  0  0  0  0  0  0
  186.3350  178.5720  138.2280 C   0  0  0  0  0  2  0  0  0  0  0  0
  186.0580  178.7170  142.0730 C   0  0  1  0  0  3  0  0  0  0  0  0
  183.8830  178.4020  138.7890 C   0  0  0  0  0  2  0  0  0  0  0  0
  184.3240  178.9430  140.1560 C   0  0  1  0  0  3  0  0  0  0  0  0
  184.5590  178.8100  145.1730 C   0  0  2  0  0  3  0  0  0  0  0  0
  183.1450  178.8730  141.1450 C   0  0  0  0  0  2  0  0  0  0  0  0
  183.0420  179.0030  145.0940 C   0  0  0  0  0  2  0  0  0  0  0  0
  185.0520  178.9370  146.5340 N   0  0  0  0  0  2  0  0  0  0  0  0
  186.5270  177.4930  142.8610 C   0  0  0  0  0  2  0  0  0  0  0  0
  187.5580  177.8810  143.9150 C   0  0  2  0  0  3  0  0  0  0  0  0
  185.6120  178.2530  140.6720 C   0  0  1  0  0  3  0  0  0  0  0  0
  182.5360  179.1410  143.6390 C   0  0  2  0  0  3  0  0  0  0  0  0
  185.9210  177.7940  146.7940 C   0  0  0  0  0  2  0  0  0  0  0  0
  185.0340  177.8250  137.9580 C   0  0  0  0  0  2  0  0  0  0  0  0
  186.7800  178.3950  139.6850 C   0  0  0  0  0  2  0  0  0  0  0  0
  191.3380  178.1200  143.6020 C   0  0  0  0  0  0  0  0  0  0  0  0
  192.4010  178.5190  144.3430 F   0  0  0  0  0  0  0  0  0  0  0  0
  188.9460  177.7780  143.3590 C   0  0  0  0  0  0  0  0  0  0  0  0
  191.5390  177.6450  142.3020 C   0  0  0  0  0  3  0  0  0  0  0  0
  189.1550  177.3070  142.0540 C   0  0  0  0  0  3  0  0  0  0  0  0
  190.0430  178.1890  144.1320 C   0  0  0  0  0  0  0  0  0  0  0  0
  189.8570  178.6600  145.3910 F   0  0  0  0  0  0  0  0  0  0  0  0
  190.4500  177.2320  141.5310 C   0  0  0  0  0  0  0  0  0  0  0  0
  190.1780  177.7010  139.2360 O   0  0  0  0  0  1  0  0  0  0  0  0
  190.6610  176.7530  140.1390 C   0  0  0  0  0  2  0  0  0  0  0  0
  181.2380  178.3600  143.4640 C   0  0  0  0  0  2  0  0  0  0  0  0
  180.1700  179.2250  143.2150 O   0  0  0  0  0  1  0  0  0  0  0  0
  1  3  1  0  0  0  0
  2  4  1  1  0  0  0
  3 18  1  0  0  0  0
  5 11  1  6  0  0  0
  5  2  1  0  0  0  0
  5 17  1  0  0  0  0
  6 20  1  0  0  0  0
  7  2  1  0  0  0  0
  7 14  1  1  0  0  0
  9  8  1  6  0  0  0
  9 16  1  0  0  0  0
  9 11  1  0  0  0  0
 10  4  1  6  0  0  0
 10 13  1  0  0  0  0
 12 10  1  0  0  0  0
 13 18  1  0  0  0  0
 14 15  1  0  0  0  0
 15 23  1  6  0  0  0
 15  1  1  0  0  0  0
 16 20  1  6  0  0  0
 16  7  1  0  0  0  0
 17 31  1  1  0  0  0
 17 12  1  0  0  0  0
 19  6  1  0  0  0  0
 19  8  1  0  0  0  0
 21 26  1  0  0  0  0
 21 22  1  0  0  0  0
 23 26  2  0  0  0  0
 24 21  2  0  0  0  0
 25 23  1  0  0  0  0
 26 27  1  0  0  0  0
 28 25  2  0  0  0  0
 28 24  1  0  0  0  0
 29 30  1  0  0  0  0
 30 28  1  0  0  0  0
 32 31  1  0  0  0  0
M  END
>  <MODEL>
8

>  <REMARK>
 VINA RESULT:      -9.4      2.957      6.342
  Name = 
  3 active torsions:
  status: ('A' for Active; 'I' for Inactive)
    1  A    between atoms: C_13  and  C_29
    2  A    between atoms: C_15  and  C_26
    3  A    between atoms: C_16  and  C_27
                            x       y       z     vdW  Elec       q    Type
                         _______ _______ _______ _____ _____    ______ ____

>  <TORSDO>
F 3

$$$$
=
 OpenBabel10262421113D

 32 36  0  0  1  0  0  0  0  0999 V2000
  184.8400  179.5340  143.1380 O   0  0  0  0  0  0  0  0  0  0  0  0
  187.8030  176.8410  144.1100 C   0  0  2  0  0  3  0  0  0  0  0  0
  183.9730  178.8780  144.0220 C   0  0  0  0  0  2  0  0  0  0  0  0
  186.4300  176.7920  144.7890 C   0  0  0  0  0  2  0  0  0  0  0  0
  188.8770  177.5880  144.9180 C   0  0  2  0  0  3  0  0  0  0  0  0
  190.5980  176.7530  140.1260 C   0  0  0  0  0  2  0  0  0  0  0  0
  187.7700  177.3930  142.6710 C   0  0  1  0  0  3  0  0  0  0  0  0
  191.7020  177.1370  142.3600 C   0  0  0  0  0  2  0  0  0  0  0  0
  190.2990  176.8620  142.9180 C   0  0  1  0  0  3  0  0  0  0  0  0
  186.2830  177.9870  145.7200 C   0  0  2  0  0  3  0  0  0  0  0  0
  190.2700  177.1800  144.4250 C   0  0  0  0  0  2  0  0  0  0  0  0
  187.2560  177.8480  146.8930 C   0  0  0  0  0  2  0  0  0  0  0  0
  184.9070  178.1140  146.1690 N   0  0  0  0  0  2  0  0  0  0  0  0
  187.0310  178.7290  142.5820 C   0  0  0  0  0  2  0  0  0  0  0  0
  185.5260  178.5150  142.4650 C   0  0  2  0  0  3  0  0  0  0  0  0
  189.1930  177.5860  142.1080 C   0  0  1  0  0  3  0  0  0  0  0  0
  188.6780  177.4430  146.4400 C   0  0  2  0  0  3  0  0  0  0  0  0
  184.3180  179.2480  145.4630 C   0  0  0  0  0  2  0  0  0  0  0  0
  191.7100  177.4860  140.8680 C   0  0  0  0  0  2  0  0  0  0  0  0
  189.2170  177.1980  140.6220 C   0  0  0  0  0  2  0  0  0  0  0  0
  183.3720  178.2100  139.3500 C   0  0  0  0  0  0  0  0  0  0  0  0
  182.0640  178.0700  139.0220 F   0  0  0  0  0  0  0  0  0  0  0  0
  185.1120  178.4460  141.0260 C   0  0  0  0  0  0  0  0  0  0  0  0
  184.3380  178.2520  138.3400 C   0  0  0  0  0  3  0  0  0  0  0  0
  186.0760  178.4820  140.0080 C   0  0  0  0  0  3  0  0  0  0  0  0
  183.7560  178.3050  140.6930 C   0  0  0  0  0  0  0  0  0  0  0  0
  182.8120  178.2540  141.6670 F   0  0  0  0  0  0  0  0  0  0  0  0
  185.6890  178.3960  138.6680 C   0  0  0  0  0  0  0  0  0  0  0  0
  187.8880  179.0030  138.0740 O   0  0  0  0  0  1  0  0  0  0  0  0
  186.7180  178.4130  137.5940 C   0  0  0  0  0  2  0  0  0  0  0  0
  189.7190  178.2280  147.2310 C   0  0  0  0  0  2  0  0  0  0  0  0
  189.2060  178.6250  148.4680 O   0  0  0  0  0  1  0  0  0  0  0  0
  1  3  1  0  0  0  0
  2  4  1  1  0  0  0
  2  5  1  0  0  0  0
  3 18  1  0  0  0  0
  5 11  1  6  0  0  0
  5 17  1  0  0  0  0
  6 20  1  0  0  0  0
  6 19  1  0  0  0  0
  7 14  1  1  0  0  0
  7  2  1  0  0  0  0
  9  8  1  6  0  0  0
  9 11  1  0  0  0  0
 10  4  1  6  0  0  0
 10 13  1  0  0  0  0
 10 12  1  0  0  0  0
 15 23  1  6  0  0  0
 15 14  1  0  0  0  0
 15  1  1  0  0  0  0
 16 20  1  6  0  0  0
 16  7  1  0  0  0  0
 16  9  1  0  0  0  0
 17 12  1  0  0  0  0
 17 31  1  1  0  0  0
 18 13  1  0  0  0  0
 19  8  1  0  0  0  0
 21 26  1  0  0  0  0
 22 21  1  0  0  0  0
 24 28  1  0  0  0  0
 24 21  2  0  0  0  0
 25 23  1  0  0  0  0
 26 23  2  0  0  0  0
 26 27  1  0  0  0  0
 28 25  2  0  0  0  0
 30 29  1  0  0  0  0
 30 28  1  0  0  0  0
 31 32  1  0  0  0  0
M  END
>  <MODEL>
9

>  <REMARK>
 VINA RESULT:      -9.2      1.791      2.643
  Name = 
  3 active torsions:
  status: ('A' for Active; 'I' for Inactive)
    1  A    between atoms: C_13  and  C_29
    2  A    between atoms: C_15  and  C_26
    3  A    between atoms: C_16  and  C_27
                            x       y       z     vdW  Elec       q    Type
                         _______ _______ _______ _____ _____    ______ ____

>  <TORSDO>
F 3

$$$$
