=
 OpenBabel10262422113D

 43 48  0  0  1  0  0  0  0  0999 V2000
  191.2320  176.4760  146.8760 C   0  0  0  0  0  0  0  0  0  0  0  0
  186.6980  177.8990  145.1280 C   0  0  0  0  0  0  0  0  0  0  0  0
  186.9000  178.0590  142.3520 C   0  0  0  0  0  0  0  0  0  0  0  0
  188.9050  177.1250  146.6860 C   0  0  0  0  0  0  0  0  0  0  0  0
  191.3680  176.5360  145.4850 C   0  0  0  0  0  3  0  0  0  0  0  0
  192.3900  176.0870  147.7150 C   0  0  0  0  0  1  0  0  0  0  0  0
  189.0390  177.2080  145.2760 C   0  0  0  0  0  0  0  0  0  0  0  0
  190.0020  176.7640  147.4750 C   0  0  0  0  0  3  0  0  0  0  0  0
  190.2790  176.9020  144.6890 C   0  0  0  0  0  3  0  0  0  0  0  0
  188.0210  177.6890  143.0980 C   0  0  0  0  0  3  0  0  0  0  0  0
  187.9310  177.5990  144.4960 C   0  0  0  0  0  0  0  0  0  0  0  0
  186.5890  177.8050  146.5290 C   0  0  0  0  0  3  0  0  0  0  0  0
  185.6000  178.2870  144.3370 C   0  0  0  0  0  0  0  0  0  0  0  0
  185.7270  178.3360  142.9860 N   0  0  0  0  0  0  0  0  0  0  0  0
  187.6850  177.4230  147.3020 C   0  0  0  0  0  3  0  0  0  0  0  0
  186.9420  178.0730  140.8520 C   0  0  1  0  0  3  0  0  0  0  0  0
  185.7760  178.8590  140.2870 C   0  0  0  0  0  1  0  0  0  0  0  0
  188.2600  178.6250  140.3070 C   0  0  0  0  0  2  0  0  0  0  0  0
  189.5100  177.2780  138.5430 N   0  0  0  0  0  0  0  0  0  0  0  0
  189.4020  176.5170  137.3280 C   0  0  0  0  0  3  0  0  0  0  0  0
  191.4530  175.2820  137.9340 C   0  0  0  0  0  2  0  0  0  0  0  0
  188.4780  178.2190  138.8810 C   0  0  0  0  0  0  0  0  0  0  0  0
  190.6000  177.0190  139.4900 C   0  0  0  0  0  2  0  0  0  0  0  0
  187.6990  178.6550  137.9910 O   0  0  0  0  0  0  0  0  0  0  0  0
  190.3140  175.5890  137.0030 C   0  0  0  0  0  0  0  0  0  0  0  0
  191.8350  176.5060  138.7620 C   0  0  0  0  0  2  0  0  0  0  0  0
  190.2240  174.8310  135.7100 C   0  0  1  0  0  3  0  0  0  0  0  0
  191.5070  174.0650  135.4010 C   0  0  0  0  0  1  0  0  0  0  0  0
  189.0040  173.9610  135.6410 C   0  0  0  0  0  0  0  0  0  0  0  0
  186.8950  173.3330  134.6130 C   0  0  0  0  0  3  0  0  0  0  0  0
  187.7450  172.0750  136.5000 C   0  0  0  0  0  3  0  0  0  0  0  0
  186.7590  172.2890  135.5330 C   0  0  0  0  0  3  0  0  0  0  0  0
  188.8630  172.9110  136.5560 C   0  0  0  0  0  3  0  0  0  0  0  0
  188.0170  174.1640  134.6630 C   0  0  0  0  0  3  0  0  0  0  0  0
  184.2710  178.6020  144.9430 C   0  0  0  0  0  2  0  0  0  0  0  0
  183.5570  179.6630  144.1240 C   0  0  0  0  0  2  0  0  0  0  0  0
  182.1750  178.7760  141.8530 S   0  0  0  0  0  0  0  0  0  0  0  0
  180.5820  178.2520  141.9730 C   0  0  0  0  0  0  0  0  0  0  0  0
  181.1560  178.8030  144.1530 C   0  0  0  0  0  3  0  0  0  0  0  0
  182.3490  179.0760  143.4950 C   0  0  0  0  0  0  0  0  0  0  0  0
  180.1530  178.3370  143.2890 C   0  0  0  0  0  3  0  0  0  0  0  0
  179.0520  177.5380  139.9350 C   0  0  0  0  0  3  0  0  0  0  0  0
  179.7520  177.8690  140.8660 C   0  0  0  0  0  0  0  0  0  0  0  0
  1  8  1  0  0  0  0
  1  6  1  0  0  0  0
  2 12  1  0  0  0  0
  3 14  2  0  0  0  0
  3 10  1  0  0  0  0
  4 15  1  0  0  0  0
  4  8  2  0  0  0  0
  5  1  2  0  0  0  0
  7  4  1  0  0  0  0
  9  7  2  0  0  0  0
  9  5  1  0  0  0  0
 10 11  2  0  0  0  0
 11  2  1  0  0  0  0
 11  7  1  0  0  0  0
 12 15  2  0  0  0  0
 13 35  1  0  0  0  0
 13  2  2  0  0  0  0
 14 13  1  0  0  0  0
 16 17  1  6  0  0  0
 16  3  1  0  0  0  0
 18 16  1  0  0  0  0
 19 22  1  0  0  0  0
 19 23  1  0  0  0  0
 20 19  1  0  0  0  0
 21 26  1  0  0  0  0
 22 18  1  0  0  0  0
 24 22  2  0  0  0  0
 25 20  2  0  0  0  0
 25 21  1  0  0  0  0
 26 23  1  0  0  0  0
 27 28  1  1  0  0  0
 27 25  1  0  0  0  0
 29 27  1  0  0  0  0
 29 33  1  0  0  0  0
 30 34  1  0  0  0  0
 30 32  2  0  0  0  0
 31 33  2  0  0  0  0
 32 31  1  0  0  0  0
 34 29  2  0  0  0  0
 36 35  1  0  0  0  0
 37 38  1  0  0  0  0
 37 40  1  0  0  0  0
 38 41  2  0  0  0  0
 40 36  1  0  0  0  0
 40 39  2  0  0  0  0
 41 39  1  0  0  0  0
 42 43  3  0  0  0  0
 43 38  1  0  0  0  0
M  END
>  <MODEL>
1

>  <REMARK>
 VINA RESULT:     -10.2      0.000      0.000
  Name = 
  9 active torsions:
  status: ('A' for Active; 'I' for Inactive)
    1  A    between atoms: C_1  and  C_34
    2  A    between atoms: C_1  and  C_35
    3  A    between atoms: C_2  and  C_6
    4  A    between atoms: C_2  and  C_13
    5  A    between atoms: C_6  and  C_12
    6  A    between atoms: C_11  and  C_14
    7  A    between atoms: C_14  and  C_22
    8  A    between atoms: C_19  and  C_37
    9  A    between atoms: C_32  and  C_35
                            x       y       z     vdW  Elec       q    Type
                         _______ _______ _______ _____ _____    ______ ____

>  <TORSDO>
F 9

$$$$
=
 OpenBabel10262422113D

 43 48  0  0  1  0  0  0  0  0999 V2000
  191.4310  176.3810  147.0490 C   0  0  0  0  0  0  0  0  0  0  0  0
  189.1820  177.8310  142.7500 C   0  0  0  0  0  0  0  0  0  0  0  0
  186.4530  178.0490  143.2830 C   0  0  0  0  0  0  0  0  0  0  0  0
  190.9840  177.0770  144.7700 C   0  0  0  0  0  0  0  0  0  0  0  0
  190.0710  176.4890  147.3550 C   0  0  0  0  0  3  0  0  0  0  0  0
  192.3950  175.9680  148.0970 C   0  0  0  0  0  1  0  0  0  0  0  0
  189.5990  177.1700  145.0670 C   0  0  0  0  0  0  0  0  0  0  0  0
  191.8880  176.6810  145.7610 C   0  0  0  0  0  3  0  0  0  0  0  0
  189.1590  176.8790  146.3700 C   0  0  0  0  0  3  0  0  0  0  0  0
  187.3200  177.6540  144.3060 C   0  0  0  0  0  3  0  0  0  0  0  0
  188.6950  177.5460  144.0520 C   0  0  0  0  0  0  0  0  0  0  0  0
  190.5610  177.7360  142.4820 C   0  0  0  0  0  3  0  0  0  0  0  0
  188.2680  178.2060  141.7460 C   0  0  0  0  0  0  0  0  0  0  0  0
  186.9490  178.3210  142.0440 N   0  0  0  0  0  0  0  0  0  0  0  0
  191.4540  177.3610  143.4840 C   0  0  0  0  0  3  0  0  0  0  0  0
  184.9920  178.2610  143.5490 C   0  0  1  0  0  3  0  0  0  0  0  0
  184.7630  178.7150  144.9760 C   0  0  0  0  0  1  0  0  0  0  0  0
  184.3570  179.2540  142.5750 C   0  0  0  0  0  2  0  0  0  0  0  0
  183.7640  178.2020  140.3320 N   0  0  0  0  0  0  0  0  0  0  0  0
  183.0540  177.1460  139.6620 C   0  0  0  0  0  3  0  0  0  0  0  0
  184.6200  177.3170  137.7600 C   0  0  0  0  0  2  0  0  0  0  0  0
  183.3770  178.5790  141.6640 C   0  0  0  0  0  0  0  0  0  0  0  0
  184.9460  178.8150  139.7140 C   0  0  0  0  0  2  0  0  0  0  0  0
  182.2340  178.2800  142.1020 O   0  0  0  0  0  0  0  0  0  0  0  0
  183.4190  176.7250  138.4420 C   0  0  0  0  0  0  0  0  0  0  0  0
  184.8470  178.7620  138.1960 C   0  0  0  0  0  2  0  0  0  0  0  0
  182.6450  175.6560  137.7270 C   0  0  1  0  0  3  0  0  0  0  0  0
  181.6400  176.2380  136.7360 C   0  0  0  0  0  1  0  0  0  0  0  0
  183.5380  174.6250  137.1020 C   0  0  0  0  0  0  0  0  0  0  0  0
  184.5800  173.6120  135.1560 C   0  0  0  0  0  3  0  0  0  0  0  0
  185.0580  172.7550  137.3700 C   0  0  0  0  0  3  0  0  0  0  0  0
  185.2410  172.7010  135.9860 C   0  0  0  0  0  3  0  0  0  0  0  0
  184.2060  173.7130  137.9270 C   0  0  0  0  0  3  0  0  0  0  0  0
  183.7350  174.5750  135.7120 C   0  0  0  0  0  3  0  0  0  0  0  0
  188.7200  178.5330  140.3600 C   0  0  0  0  0  2  0  0  0  0  0  0
  188.3310  177.4200  139.4030 C   0  0  0  0  0  2  0  0  0  0  0  0
  189.6730  176.9680  136.9850 S   0  0  0  0  0  0  0  0  0  0  0  0
  191.1880  176.2400  136.9720 C   0  0  0  0  0  0  0  0  0  0  0  0
  190.6460  176.3650  139.2250 C   0  0  0  0  0  3  0  0  0  0  0  0
  189.5280  176.9650  138.6570 C   0  0  0  0  0  0  0  0  0  0  0  0
  191.5870  175.9530  138.2690 C   0  0  0  0  0  3  0  0  0  0  0  0
  192.5360  175.5620  134.7980 C   0  0  0  0  0  3  0  0  0  0  0  0
  191.9210  175.8760  135.7920 C   0  0  0  0  0  0  0  0  0  0  0  0
  1  5  1  0  0  0  0
  1  6  1  0  0  0  0
  2 11  1  0  0  0  0
  3 16  1  0  0  0  0
  3 10  1  0  0  0  0
  4  7  2  0  0  0  0
  4  8  1  0  0  0  0
  7  9  1  0  0  0  0
  8  1  2  0  0  0  0
  9  5  2  0  0  0  0
 11 10  2  0  0  0  0
 11  7  1  0  0  0  0
 12  2  1  0  0  0  0
 12 15  2  0  0  0  0
 13 14  1  0  0  0  0
 13  2  2  0  0  0  0
 14  3  2  0  0  0  0
 15  4  1  0  0  0  0
 16 17  1  1  0  0  0
 18 16  1  0  0  0  0
 19 22  1  0  0  0  0
 20 19  1  0  0  0  0
 21 26  1  0  0  0  0
 21 25  1  0  0  0  0
 22 24  2  0  0  0  0
 22 18  1  0  0  0  0
 23 19  1  0  0  0  0
 25 20  2  0  0  0  0
 26 23  1  0  0  0  0
 27 28  1  6  0  0  0
 27 25  1  0  0  0  0
 29 27  1  0  0  0  0
 29 33  1  0  0  0  0
 30 34  1  0  0  0  0
 30 32  2  0  0  0  0
 31 33  2  0  0  0  0
 32 31  1  0  0  0  0
 34 29  2  0  0  0  0
 35 13  1  0  0  0  0
 36 35  1  0  0  0  0
 37 40  1  0  0  0  0
 38 37  1  0  0  0  0
 38 41  2  0  0  0  0
 40 39  2  0  0  0  0
 40 36  1  0  0  0  0
 41 39  1  0  0  0  0
 42 43  3  0  0  0  0
 43 38  1  0  0  0  0
M  END
>  <MODEL>
2

>  <REMARK>
 VINA RESULT:     -10.1      2.737      6.565
  Name = 
  9 active torsions:
  status: ('A' for Active; 'I' for Inactive)
    1  A    between atoms: C_1  and  C_34
    2  A    between atoms: C_1  and  C_35
    3  A    between atoms: C_2  and  C_6
    4  A    between atoms: C_2  and  C_13
    5  A    between atoms: C_6  and  C_12
    6  A    between atoms: C_11  and  C_14
    7  A    between atoms: C_14  and  C_22
    8  A    between atoms: C_19  and  C_37
    9  A    between atoms: C_32  and  C_35
                            x       y       z     vdW  Elec       q    Type
                         _______ _______ _______ _____ _____    ______ ____

>  <TORSDO>
F 9

$$$$
=
 OpenBabel10262422113D

 43 48  0  0  1  0  0  0  0  0999 V2000
  190.7580  176.7520  146.2490 C   0  0  0  0  0  0  0  0  0  0  0  0
  186.9820  178.1530  143.1790 C   0  0  0  0  0  0  0  0  0  0  0  0
  188.0200  178.2530  140.5930 C   0  0  0  0  0  0  0  0  0  0  0  0
  188.6040  177.4060  145.3490 C   0  0  0  0  0  0  0  0  0  0  0  0
  191.3100  176.7820  144.9640 C   0  0  0  0  0  3  0  0  0  0  0  0
  191.6020  176.3770  147.4080 C   0  0  0  0  0  1  0  0  0  0  0  0
  189.1610  177.4580  144.0450 C   0  0  0  0  0  0  0  0  0  0  0  0
  189.4060  177.0570  146.4400 C   0  0  0  0  0  3  0  0  0  0  0  0
  190.5180  177.1350  143.8680 C   0  0  0  0  0  3  0  0  0  0  0  0
  188.8580  177.8950  141.6520 C   0  0  0  0  0  3  0  0  0  0  0  0
  188.3470  177.8360  142.9570 C   0  0  0  0  0  0  0  0  0  0  0  0
  186.4520  178.0900  144.4830 C   0  0  0  0  0  3  0  0  0  0  0  0
  186.1810  178.5290  142.0840 C   0  0  0  0  0  0  0  0  0  0  0  0
  186.7120  178.5480  140.8350 N   0  0  0  0  0  0  0  0  0  0  0  0
  187.2580  177.7200  145.5590 C   0  0  0  0  0  3  0  0  0  0  0  0
  188.5150  178.2360  139.1760 C   0  0  1  0  0  3  0  0  0  0  0  0
  190.0240  178.1160  139.1340 C   0  0  0  0  0  1  0  0  0  0  0  0
  187.8770  177.1210  138.3460 C   0  0  0  0  0  2  0  0  0  0  0  0
  185.7430  176.6770  137.0260 N   0  0  0  0  0  0  0  0  0  0  0  0
  184.3850  177.0830  136.7850 C   0  0  0  0  0  3  0  0  0  0  0  0
  183.8480  174.7930  136.0340 C   0  0  0  0  0  2  0  0  0  0  0  0
  186.6680  177.6110  137.6080 C   0  0  0  0  0  0  0  0  0  0  0  0
  186.1600  175.2890  136.7900 C   0  0  0  0  0  2  0  0  0  0  0  0
  186.4320  178.8490  137.5660 O   0  0  0  0  0  0  0  0  0  0  0  0
  183.4780  176.2250  136.2950 C   0  0  0  0  0  0  0  0  0  0  0  0
  185.3260  174.6590  135.6830 C   0  0  0  0  0  2  0  0  0  0  0  0
  182.0740  176.6670  135.9990 C   0  0  1  0  0  3  0  0  0  0  0  0
  181.4930  175.9590  134.7790 C   0  0  0  0  0  1  0  0  0  0  0  0
  181.1790  176.5720  137.2000 C   0  0  0  0  0  0  0  0  0  0  0  0
  180.7220  175.7960  139.4550 C   0  0  0  0  0  3  0  0  0  0  0  0
  179.1010  177.1710  138.2950 C   0  0  0  0  0  3  0  0  0  0  0  0
  179.4870  176.4510  139.4290 C   0  0  0  0  0  3  0  0  0  0  0  0
  179.9440  177.2290  137.1820 C   0  0  0  0  0  3  0  0  0  0  0  0
  181.5680  175.8600  138.3460 C   0  0  0  0  0  3  0  0  0  0  0  0
  184.7330  178.8610  142.2520 C   0  0  0  0  0  2  0  0  0  0  0  0
  183.8740  177.8810  141.4730 C   0  0  0  0  0  2  0  0  0  0  0  0
  183.0930  179.2810  139.1750 S   0  0  0  0  0  0  0  0  0  0  0  0
  181.5710  179.9910  139.0840 C   0  0  0  0  0  0  0  0  0  0  0  0
  181.5910  178.9760  141.1710 C   0  0  0  0  0  3  0  0  0  0  0  0
  182.8500  178.6220  140.6990 C   0  0  0  0  0  0  0  0  0  0  0  0
  180.8660  179.7540  140.2540 C   0  0  0  0  0  3  0  0  0  0  0  0
  180.7040  181.4920  137.0840 C   0  0  0  0  0  3  0  0  0  0  0  0
  181.1040  180.8080  137.9990 C   0  0  0  0  0  0  0  0  0  0  0  0
  1  8  1  0  0  0  0
  1  6  1  0  0  0  0
  2 12  1  0  0  0  0
  3 14  2  0  0  0  0
  3 10  1  0  0  0  0
  4 15  1  0  0  0  0
  4  8  2  0  0  0  0
  5  1  2  0  0  0  0
  7  4  1  0  0  0  0
  9  7  2  0  0  0  0
  9  5  1  0  0  0  0
 10 11  2  0  0  0  0
 11  2  1  0  0  0  0
 11  7  1  0  0  0  0
 12 15  2  0  0  0  0
 13 35  1  0  0  0  0
 13  2  2  0  0  0  0
 14 13  1  0  0  0  0
 16 17  1  1  0  0  0
 16  3  1  0  0  0  0
 18 16  1  0  0  0  0
 19 22  1  0  0  0  0
 20 19  1  0  0  0  0
 21 25  1  0  0  0  0
 22 18  1  0  0  0  0
 23 19  1  0  0  0  0
 24 22  2  0  0  0  0
 25 20  2  0  0  0  0
 26 21  1  0  0  0  0
 26 23  1  0  0  0  0
 27 28  1  6  0  0  0
 27 25  1  0  0  0  0
 27 29  1  0  0  0  0
 29 34  1  0  0  0  0
 31 32  2  0  0  0  0
 32 30  1  0  0  0  0
 33 29  2  0  0  0  0
 33 31  1  0  0  0  0
 34 30  2  0  0  0  0
 36 35  1  0  0  0  0
 37 40  1  0  0  0  0
 38 37  1  0  0  0  0
 38 41  2  0  0  0  0
 40 39  2  0  0  0  0
 40 36  1  0  0  0  0
 41 39  1  0  0  0  0
 42 43  3  0  0  0  0
 43 38  1  0  0  0  0
M  END
>  <MODEL>
3

>  <REMARK>
 VINA RESULT:     -10.0      2.663      5.027
  Name = 
  9 active torsions:
  status: ('A' for Active; 'I' for Inactive)
    1  A    between atoms: C_1  and  C_34
    2  A    between atoms: C_1  and  C_35
    3  A    between atoms: C_2  and  C_6
    4  A    between atoms: C_2  and  C_13
    5  A    between atoms: C_6  and  C_12
    6  A    between atoms: C_11  and  C_14
    7  A    between atoms: C_14  and  C_22
    8  A    between atoms: C_19  and  C_37
    9  A    between atoms: C_32  and  C_35
                            x       y       z     vdW  Elec       q    Type
                         _______ _______ _______ _____ _____    ______ ____

>  <TORSDO>
F 9

$$$$
=
 OpenBabel10262422113D

 43 48  0  0  1  0  0  0  0  0999 V2000
  191.2800  176.5110  147.0010 C   0  0  0  0  0  0  0  0  0  0  0  0
  186.7750  177.8940  145.1490 C   0  0  0  0  0  0  0  0  0  0  0  0
  187.0440  178.0710  142.3790 C   0  0  0  0  0  0  0  0  0  0  0  0
  188.9500  177.1360  146.7580 C   0  0  0  0  0  0  0  0  0  0  0  0
  191.4490  176.5790  145.6150 C   0  0  0  0  0  3  0  0  0  0  0  0
  192.4200  176.1290  147.8680 C   0  0  0  0  0  1  0  0  0  0  0  0
  189.1190  177.2280  145.3510 C   0  0  0  0  0  0  0  0  0  0  0  0
  190.0310  176.7820  147.5710 C   0  0  0  0  0  3  0  0  0  0  0  0
  190.3770  176.9380  144.7940 C   0  0  0  0  0  3  0  0  0  0  0  0
  188.1500  177.7090  143.1520 C   0  0  0  0  0  3  0  0  0  0  0  0
  188.0270  177.6110  144.5460 C   0  0  0  0  0  0  0  0  0  0  0  0
  186.6320  177.7920  146.5460 C   0  0  0  0  0  3  0  0  0  0  0  0
  185.6930  178.2750  144.3320 C   0  0  0  0  0  0  0  0  0  0  0  0
  185.8530  178.3320  142.9850 N   0  0  0  0  0  0  0  0  0  0  0  0
  187.7120  177.4170  147.3440 C   0  0  0  0  0  3  0  0  0  0  0  0
  187.1230  178.0930  140.8800 C   0  0  1  0  0  3  0  0  0  0  0  0
  185.9150  178.7890  140.2870 C   0  0  0  0  0  1  0  0  0  0  0  0
  188.4080  178.7460  140.3710 C   0  0  0  0  0  2  0  0  0  0  0  0
  189.7230  177.4100  138.6450 N   0  0  0  0  0  0  0  0  0  0  0  0
  189.6640  176.6750  137.4110 C   0  0  0  0  0  3  0  0  0  0  0  0
  191.6590  175.3900  138.0960 C   0  0  0  0  0  2  0  0  0  0  0  0
  188.6920  178.3640  138.9500 C   0  0  0  0  0  0  0  0  0  0  0  0
  190.7580  177.1120  139.6420 C   0  0  0  0  0  2  0  0  0  0  0  0
  187.9680  178.8320  138.0300 O   0  0  0  0  0  0  0  0  0  0  0  0
  190.5750  175.7370  137.1140 C   0  0  0  0  0  0  0  0  0  0  0  0
  192.0190  176.5900  138.9670 C   0  0  0  0  0  2  0  0  0  0  0  0
  190.5380  175.0070  135.8030 C   0  0  1  0  0  3  0  0  0  0  0  0
  190.1590  175.9240  134.6440 C   0  0  0  0  0  1  0  0  0  0  0  0
  191.8000  174.2390  135.5400 C   0  0  0  0  0  0  0  0  0  0  0  0
  193.0030  172.1440  135.2940 C   0  0  0  0  0  3  0  0  0  0  0  0
  194.1600  174.2480  134.9860 C   0  0  0  0  0  3  0  0  0  0  0  0
  194.1760  172.8510  135.0110 C   0  0  0  0  0  3  0  0  0  0  0  0
  192.9770  174.9410  135.2520 C   0  0  0  0  0  3  0  0  0  0  0  0
  191.8170  172.8350  135.5530 C   0  0  0  0  0  3  0  0  0  0  0  0
  184.3450  178.5720  144.9070 C   0  0  0  0  0  2  0  0  0  0  0  0
  183.6400  179.6280  144.0750 C   0  0  0  0  0  2  0  0  0  0  0  0
  182.2050  178.7290  141.8420 S   0  0  0  0  0  0  0  0  0  0  0  0
  180.6060  178.2330  141.9970 C   0  0  0  0  0  0  0  0  0  0  0  0
  181.2260  178.8080  144.1590 C   0  0  0  0  0  3  0  0  0  0  0  0
  182.4130  179.0520  143.4760 C   0  0  0  0  0  0  0  0  0  0  0  0
  180.2010  178.3450  143.3190 C   0  0  0  0  0  3  0  0  0  0  0  0
  179.0260  177.5150  139.9990 C   0  0  0  0  0  3  0  0  0  0  0  0
  179.7510  177.8460  140.9110 C   0  0  0  0  0  0  0  0  0  0  0  0
  1  8  1  0  0  0  0
  1  6  1  0  0  0  0
  2 12  1  0  0  0  0
  3 14  2  0  0  0  0
  3 10  1  0  0  0  0
  4 15  1  0  0  0  0
  4  8  2  0  0  0  0
  5  1  2  0  0  0  0
  7  4  1  0  0  0  0
  9  7  2  0  0  0  0
  9  5  1  0  0  0  0
 10 11  2  0  0  0  0
 11  2  1  0  0  0  0
 11  7  1  0  0  0  0
 12 15  2  0  0  0  0
 13 35  1  0  0  0  0
 13  2  2  0  0  0  0
 14 13  1  0  0  0  0
 16 17  1  6  0  0  0
 16  3  1  0  0  0  0
 18 16  1  0  0  0  0
 19 22  1  0  0  0  0
 19 23  1  0  0  0  0
 20 19  1  0  0  0  0
 21 26  1  0  0  0  0
 22 18  1  0  0  0  0
 24 22  2  0  0  0  0
 25 20  2  0  0  0  0
 25 21  1  0  0  0  0
 26 23  1  0  0  0  0
 27 28  1  6  0  0  0
 27 25  1  0  0  0  0
 29 34  1  0  0  0  0
 29 27  1  0  0  0  0
 30 34  2  0  0  0  0
 31 32  2  0  0  0  0
 31 33  1  0  0  0  0
 32 30  1  0  0  0  0
 33 29  2  0  0  0  0
 36 35  1  0  0  0  0
 37 38  1  0  0  0  0
 37 40  1  0  0  0  0
 38 41  2  0  0  0  0
 40 36  1  0  0  0  0
 40 39  2  0  0  0  0
 41 39  1  0  0  0  0
 42 43  3  0  0  0  0
 43 38  1  0  0  0  0
M  END
>  <MODEL>
4

>  <REMARK>
 VINA RESULT:      -9.9      1.331      2.144
  Name = 
  9 active torsions:
  status: ('A' for Active; 'I' for Inactive)
    1  A    between atoms: C_1  and  C_34
    2  A    between atoms: C_1  and  C_35
    3  A    between atoms: C_2  and  C_6
    4  A    between atoms: C_2  and  C_13
    5  A    between atoms: C_6  and  C_12
    6  A    between atoms: C_11  and  C_14
    7  A    between atoms: C_14  and  C_22
    8  A    between atoms: C_19  and  C_37
    9  A    between atoms: C_32  and  C_35
                            x       y       z     vdW  Elec       q    Type
                         _______ _______ _______ _____ _____    ______ ____

>  <TORSDO>
F 9

$$$$
=
 OpenBabel10262422113D

 43 48  0  0  1  0  0  0  0  0999 V2000
  184.7700  178.8560  139.4620 C   0  0  0  0  0  0  0  0  0  0  0  0
  189.4840  177.2840  138.4890 C   0  0  0  0  0  0  0  0  0  0  0  0
  190.9470  177.5620  140.8470 C   0  0  0  0  0  0  0  0  0  0  0  0
  186.7620  177.9770  138.3970 C   0  0  0  0  0  0  0  0  0  0  0  0
  185.4700  179.0000  140.6640 C   0  0  0  0  0  3  0  0  0  0  0  0
  183.3390  179.2320  139.3890 C   0  0  0  0  0  1  0  0  0  0  0  0
  187.4850  178.1380  139.6080 C   0  0  0  0  0  0  0  0  0  0  0  0
  185.4130  178.3390  138.3320 C   0  0  0  0  0  3  0  0  0  0  0  0
  186.8200  178.6460  140.7380 C   0  0  0  0  0  3  0  0  0  0  0  0
  189.6000  177.9330  140.8300 C   0  0  0  0  0  3  0  0  0  0  0  0
  188.8520  177.7930  139.6520 C   0  0  0  0  0  0  0  0  0  0  0  0
  188.7440  177.1280  137.3010 C   0  0  0  0  0  3  0  0  0  0  0  0
  190.8490  176.9420  138.5470 C   0  0  0  0  0  0  0  0  0  0  0  0
  191.5270  177.0720  139.7160 N   0  0  0  0  0  0  0  0  0  0  0  0
  187.3940  177.4740  137.2550 C   0  0  0  0  0  3  0  0  0  0  0  0
  191.7470  177.6150  142.1150 C   0  0  1  0  0  3  0  0  0  0  0  0
  191.2460  178.7180  143.0240 C   0  0  0  0  0  1  0  0  0  0  0  0
  191.7490  176.2800  142.8620 C   0  0  0  0  0  2  0  0  0  0  0  0
  190.4060  176.4660  145.0190 N   0  0  0  0  0  0  0  0  0  0  0  0
  189.1240  176.7570  145.6030 C   0  0  0  0  0  3  0  0  0  0  0  0
  190.2440  177.3970  147.7090 C   0  0  0  0  0  2  0  0  0  0  0  0
  190.4810  176.0820  143.6360 C   0  0  0  0  0  0  0  0  0  0  0  0
  191.6390  176.6690  145.7880 C   0  0  0  0  0  2  0  0  0  0  0  0
  189.4600  175.6420  143.0420 O   0  0  0  0  0  0  0  0  0  0  0  0
  189.0160  177.1730  146.8730 C   0  0  0  0  0  0  0  0  0  0  0  0
  191.3820  176.4770  147.2770 C   0  0  0  0  0  2  0  0  0  0  0  0
  187.6730  177.4290  147.4930 C   0  0  1  0  0  3  0  0  0  0  0  0
  187.7560  178.4000  148.6670 C   0  0  0  0  0  1  0  0  0  0  0  0
  186.6430  177.8370  146.4800 C   0  0  0  0  0  0  0  0  0  0  0  0
  184.5640  178.9430  145.8880 C   0  0  0  0  0  3  0  0  0  0  0  0
  185.9090  177.8920  144.1700 C   0  0  0  0  0  3  0  0  0  0  0  0
  184.7670  178.6050  144.5460 C   0  0  0  0  0  3  0  0  0  0  0  0
  186.8430  177.5070  145.1350 C   0  0  0  0  0  3  0  0  0  0  0  0
  185.5020  178.5650  146.8520 C   0  0  0  0  0  3  0  0  0  0  0  0
  191.5680  176.3880  137.3600 C   0  0  0  0  0  2  0  0  0  0  0  0
  193.0680  176.4270  137.5880 C   0  0  0  0  0  2  0  0  0  0  0  0
  192.9050  173.8450  136.5130 S   0  0  0  0  0  0  0  0  0  0  0  0
  194.0820  172.6970  136.8650 C   0  0  0  0  0  0  0  0  0  0  0  0
  194.7930  174.5940  137.9980 C   0  0  0  0  0  3  0  0  0  0  0  0
  193.6380  175.0730  137.3910 C   0  0  0  0  0  0  0  0  0  0  0  0
  195.0440  173.2450  137.7010 C   0  0  0  0  0  3  0  0  0  0  0  0
  194.0210  170.1670  136.0900 C   0  0  0  0  0  3  0  0  0  0  0  0
  194.0480  171.3230  136.4490 C   0  0  0  0  0  0  0  0  0  0  0  0
  1  5  1  0  0  0  0
  2 13  2  0  0  0  0
  2 11  1  0  0  0  0
  3 16  1  0  0  0  0
  4  7  2  0  0  0  0
  5  9  2  0  0  0  0
  6  1  1  0  0  0  0
  7 11  1  0  0  0  0
  7  9  1  0  0  0  0
  8  4  1  0  0  0  0
  8  1  2  0  0  0  0
 10  3  1  0  0  0  0
 11 10  2  0  0  0  0
 12  2  1  0  0  0  0
 13 14  1  0  0  0  0
 14  3  2  0  0  0  0
 15 12  2  0  0  0  0
 15  4  1  0  0  0  0
 16 18  1  0  0  0  0
 16 17  1  1  0  0  0
 18 22  1  0  0  0  0
 19 20  1  0  0  0  0
 19 23  1  0  0  0  0
 20 25  2  0  0  0  0
 22 19  1  0  0  0  0
 23 26  1  0  0  0  0
 24 22  2  0  0  0  0
 25 27  1  0  0  0  0
 25 21  1  0  0  0  0
 26 21  1  0  0  0  0
 27 28  1  1  0  0  0
 29 34  1  0  0  0  0
 29 27  1  0  0  0  0
 30 34  2  0  0  0  0
 31 32  2  0  0  0  0
 31 33  1  0  0  0  0
 32 30  1  0  0  0  0
 33 29  2  0  0  0  0
 35 36  1  0  0  0  0
 35 13  1  0  0  0  0
 37 38  1  0  0  0  0
 37 40  1  0  0  0  0
 38 41  2  0  0  0  0
 40 36  1  0  0  0  0
 40 39  2  0  0  0  0
 41 39  1  0  0  0  0
 42 43  3  0  0  0  0
 43 38  1  0  0  0  0
M  END
>  <MODEL>
5

>  <REMARK>
 VINA RESULT:      -9.8      3.448     10.396
  Name = 
  9 active torsions:
  status: ('A' for Active; 'I' for Inactive)
    1  A    between atoms: C_1  and  C_34
    2  A    between atoms: C_1  and  C_35
    3  A    between atoms: C_2  and  C_6
    4  A    between atoms: C_2  and  C_13
    5  A    between atoms: C_6  and  C_12
    6  A    between atoms: C_11  and  C_14
    7  A    between atoms: C_14  and  C_22
    8  A    between atoms: C_19  and  C_37
    9  A    between atoms: C_32  and  C_35
                            x       y       z     vdW  Elec       q    Type
                         _______ _______ _______ _____ _____    ______ ____

>  <TORSDO>
F 9

$$$$
=
 OpenBabel10262422113D

 43 48  0  0  1  0  0  0  0  0999 V2000
  181.1180  178.8490  143.1160 C   0  0  0  0  0  0  0  0  0  0  0  0
  186.0190  178.5850  141.8720 C   0  0  0  0  0  0  0  0  0  0  0  0
  186.1500  178.2970  139.1010 C   0  0  0  0  0  0  0  0  0  0  0  0
  183.5410  178.8130  143.1760 C   0  0  0  0  0  0  0  0  0  0  0  0
  181.1450  178.7150  141.7240 C   0  0  0  0  0  3  0  0  0  0  0  0
  179.8200  178.9530  143.8230 C   0  0  0  0  0  1  0  0  0  0  0  0
  183.5780  178.6570  141.7660 C   0  0  0  0  0  0  0  0  0  0  0  0
  182.3140  178.9040  143.8400 C   0  0  0  0  0  3  0  0  0  0  0  0
  182.3670  178.6170  141.0520 C   0  0  0  0  0  3  0  0  0  0  0  0
  184.9010  178.3890  139.7210 C   0  0  0  0  0  3  0  0  0  0  0  0
  184.8220  178.5400  141.1130 C   0  0  0  0  0  0  0  0  0  0  0  0
  185.9570  178.7460  143.2690 C   0  0  0  0  0  3  0  0  0  0  0  0
  187.2550  178.4680  141.2060 C   0  0  0  0  0  0  0  0  0  0  0  0
  187.2840  178.3490  139.8540 N   0  0  0  0  0  0  0  0  0  0  0  0
  184.7270  178.8570  143.9160 C   0  0  0  0  0  3  0  0  0  0  0  0
  186.2670  178.2280  137.6070 C   0  0  1  0  0  3  0  0  0  0  0  0
  187.5990  178.7810  137.1430 C   0  0  0  0  0  1  0  0  0  0  0  0
  186.0720  176.8100  137.0680 C   0  0  0  0  0  2  0  0  0  0  0  0
  184.1020  175.2090  136.8430 N   0  0  0  0  0  0  0  0  0  0  0  0
  182.6890  175.0260  137.0340 C   0  0  0  0  0  3  0  0  0  0  0  0
  183.0440  172.5900  137.2230 C   0  0  0  0  0  2  0  0  0  0  0  0
  184.6340  176.5410  136.7410 C   0  0  0  0  0  0  0  0  0  0  0  0
  185.0140  174.0590  136.8680 C   0  0  0  0  0  2  0  0  0  0  0  0
  183.8790  177.5060  136.4440 O   0  0  0  0  0  0  0  0  0  0  0  0
  182.1600  173.8040  137.1900 C   0  0  0  0  0  0  0  0  0  0  0  0
  184.3040  172.8010  136.3890 C   0  0  0  0  0  2  0  0  0  0  0  0
  180.6780  173.6130  137.3400 C   0  0  1  0  0  3  0  0  0  0  0  0
  180.2920  172.1390  137.4210 C   0  0  0  0  0  1  0  0  0  0  0  0
  180.1090  174.4200  138.4700 C   0  0  0  0  0  0  0  0  0  0  0  0
  179.1320  176.4650  139.3420 C   0  0  0  0  0  3  0  0  0  0  0  0
  179.4490  174.5570  140.7990 C   0  0  0  0  0  3  0  0  0  0  0  0
  179.0230  175.8740  140.6040 C   0  0  0  0  0  3  0  0  0  0  0  0
  179.9930  173.8330  139.7350 C   0  0  0  0  0  3  0  0  0  0  0  0
  179.6690  175.7390  138.2760 C   0  0  0  0  0  3  0  0  0  0  0  0
  188.5510  178.5230  141.9480 C   0  0  0  0  0  2  0  0  0  0  0  0
  189.0210  177.1210  142.2920 C   0  0  0  0  0  2  0  0  0  0  0  0
  191.0090  176.4780  144.1580 S   0  0  0  0  0  0  0  0  0  0  0  0
  190.7460  176.7130  145.8020 C   0  0  0  0  0  0  0  0  0  0  0  0
  188.7850  177.4570  144.8090 C   0  0  0  0  0  3  0  0  0  0  0  0
  189.5200  177.0910  143.6870 C   0  0  0  0  0  0  0  0  0  0  0  0
  189.4800  177.2410  146.0090 C   0  0  0  0  0  3  0  0  0  0  0  0
  192.4200  176.0040  147.7260 C   0  0  0  0  0  3  0  0  0  0  0  0
  191.6540  176.3320  146.8470 C   0  0  0  0  0  0  0  0  0  0  0  0
  1  6  1  0  0  0  0
  1  8  1  0  0  0  0
  2 12  1  0  0  0  0
  3 10  2  0  0  0  0
  3 14  1  0  0  0  0
  4  8  2  0  0  0  0
  4 15  1  0  0  0  0
  5  1  2  0  0  0  0
  7  4  1  0  0  0  0
  9  5  1  0  0  0  0
  9  7  2  0  0  0  0
 10 11  1  0  0  0  0
 11  7  1  0  0  0  0
 11  2  2  0  0  0  0
 12 15  2  0  0  0  0
 13  2  1  0  0  0  0
 13 35  1  0  0  0  0
 14 13  2  0  0  0  0
 16 17  1  1  0  0  0
 16  3  1  0  0  0  0
 18 16  1  0  0  0  0
 19 23  1  0  0  0  0
 19 20  1  0  0  0  0
 20 25  2  0  0  0  0
 22 19  1  0  0  0  0
 22 18  1  0  0  0  0
 24 22  2  0  0  0  0
 25 21  1  0  0  0  0
 25 27  1  0  0  0  0
 26 23  1  0  0  0  0
 26 21  1  0  0  0  0
 27 28  1  1  0  0  0
 27 29  1  0  0  0  0
 29 33  1  0  0  0  0
 30 32  2  0  0  0  0
 32 31  1  0  0  0  0
 33 31  2  0  0  0  0
 34 29  2  0  0  0  0
 34 30  1  0  0  0  0
 35 36  1  0  0  0  0
 36 40  1  0  0  0  0
 37 38  1  0  0  0  0
 38 41  2  0  0  0  0
 38 43  1  0  0  0  0
 39 41  1  0  0  0  0
 40 37  1  0  0  0  0
 40 39  2  0  0  0  0
 43 42  3  0  0  0  0
M  END
>  <MODEL>
6

>  <REMARK>
 VINA RESULT:      -9.6      3.113      8.238
  Name = 
  9 active torsions:
  status: ('A' for Active; 'I' for Inactive)
    1  A    between atoms: C_1  and  C_34
    2  A    between atoms: C_1  and  C_35
    3  A    between atoms: C_2  and  C_6
    4  A    between atoms: C_2  and  C_13
    5  A    between atoms: C_6  and  C_12
    6  A    between atoms: C_11  and  C_14
    7  A    between atoms: C_14  and  C_22
    8  A    between atoms: C_19  and  C_37
    9  A    between atoms: C_32  and  C_35
                            x       y       z     vdW  Elec       q    Type
                         _______ _______ _______ _____ _____    ______ ____

>  <TORSDO>
F 9

$$$$
=
 OpenBabel10262422113D

 43 48  0  0  1  0  0  0  0  0999 V2000
  191.4650  176.4010  147.0220 C   0  0  0  0  0  0  0  0  0  0  0  0
  187.3290  177.7360  144.4240 C   0  0  0  0  0  0  0  0  0  0  0  0
  188.0030  177.6810  141.7190 C   0  0  0  0  0  0  0  0  0  0  0  0
  189.2200  177.0600  146.3900 C   0  0  0  0  0  0  0  0  0  0  0  0
  191.8360  176.3530  145.6740 C   0  0  0  0  0  3  0  0  0  0  0  0
  192.4540  176.0650  148.0730 C   0  0  0  0  0  1  0  0  0  0  0  0
  189.5930  177.0330  145.0210 C   0  0  0  0  0  0  0  0  0  0  0  0
  190.1580  176.7480  147.3790 C   0  0  0  0  0  3  0  0  0  0  0  0
  190.9080  176.6700  144.6790 C   0  0  0  0  0  3  0  0  0  0  0  0
  188.9720  177.3570  142.6720 C   0  0  0  0  0  3  0  0  0  0  0  0
  188.6440  177.3760  144.0360 C   0  0  0  0  0  0  0  0  0  0  0  0
  186.9810  177.7510  145.7890 C   0  0  0  0  0  3  0  0  0  0  0  0
  186.3910  178.0750  143.4300 C   0  0  0  0  0  0  0  0  0  0  0  0
  186.7460  178.0190  142.1210 N   0  0  0  0  0  0  0  0  0  0  0  0
  187.9200  177.4170  146.7640 C   0  0  0  0  0  3  0  0  0  0  0  0
  188.2990  177.5800  140.2510 C   0  0  1  0  0  3  0  0  0  0  0  0
  187.1030  178.0120  139.4280 C   0  0  0  0  0  1  0  0  0  0  0  0
  189.5340  178.3850  139.8460 C   0  0  0  0  0  2  0  0  0  0  0  0
  190.7700  176.9420  138.1480 N   0  0  0  0  0  0  0  0  0  0  0  0
  192.0520  176.5340  137.6410 C   0  0  0  0  0  3  0  0  0  0  0  0
  191.0110  176.0180  135.4620 C   0  0  0  0  0  2  0  0  0  0  0  0
  190.6760  177.4880  139.4740 C   0  0  0  0  0  0  0  0  0  0  0  0
  189.5830  176.9130  137.2860 C   0  0  0  0  0  2  0  0  0  0  0  0
  191.5910  177.2770  140.3150 O   0  0  0  0  0  0  0  0  0  0  0  0
  192.1920  176.0720  136.3900 C   0  0  0  0  0  0  0  0  0  0  0  0
  189.7100  175.8190  136.2340 C   0  0  0  0  0  2  0  0  0  0  0  0
  193.5230  175.6000  135.8820 C   0  0  1  0  0  3  0  0  0  0  0  0
  194.5180  176.7470  135.7230 C   0  0  0  0  0  1  0  0  0  0  0  0
  194.0770  174.4670  136.6940 C   0  0  0  0  0  0  0  0  0  0  0  0
  194.3950  172.0920  137.0920 C   0  0  0  0  0  3  0  0  0  0  0  0
  195.3910  173.7150  138.5880 C   0  0  0  0  0  3  0  0  0  0  0  0
  195.1600  172.3860  138.2250 C   0  0  0  0  0  3  0  0  0  0  0  0
  194.8480  174.7530  137.8260 C   0  0  0  0  0  3  0  0  0  0  0  0
  193.8590  173.1300  136.3250 C   0  0  0  0  0  3  0  0  0  0  0  0
  184.9860  178.4500  143.7750 C   0  0  0  0  0  2  0  0  0  0  0  0
  184.4020  179.3490  142.7000 C   0  0  0  0  0  2  0  0  0  0  0  0
  182.5140  178.3670  140.8770 S   0  0  0  0  0  0  0  0  0  0  0  0
  180.9030  178.1970  141.3240 C   0  0  0  0  0  0  0  0  0  0  0  0
  181.9340  178.9990  143.2420 C   0  0  0  0  0  3  0  0  0  0  0  0
  183.0220  178.9110  142.3810 C   0  0  0  0  0  0  0  0  0  0  0  0
  180.7320  178.5960  142.6410 C   0  0  0  0  0  3  0  0  0  0  0  0
  178.9430  177.4650  139.7030 C   0  0  0  0  0  3  0  0  0  0  0  0
  179.8390  177.7960  140.4460 C   0  0  0  0  0  0  0  0  0  0  0  0
  1  8  1  0  0  0  0
  1  6  1  0  0  0  0
  2 12  1  0  0  0  0
  3 14  2  0  0  0  0
  3 10  1  0  0  0  0
  4 15  1  0  0  0  0
  4  8  2  0  0  0  0
  5  1  2  0  0  0  0
  7  4  1  0  0  0  0
  9  7  2  0  0  0  0
  9  5  1  0  0  0  0
 10 11  2  0  0  0  0
 11  2  1  0  0  0  0
 11  7  1  0  0  0  0
 12 15  2  0  0  0  0
 13 35  1  0  0  0  0
 13  2  2  0  0  0  0
 14 13  1  0  0  0  0
 16 17  1  6  0  0  0
 16  3  1  0  0  0  0
 18 16  1  0  0  0  0
 19 22  1  0  0  0  0
 20 19  1  0  0  0  0
 21 26  1  0  0  0  0
 21 25  1  0  0  0  0
 22 18  1  0  0  0  0
 22 24  2  0  0  0  0
 23 19  1  0  0  0  0
 25 20  2  0  0  0  0
 26 23  1  0  0  0  0
 27 28  1  1  0  0  0
 27 25  1  0  0  0  0
 27 29  1  0  0  0  0
 29 33  1  0  0  0  0
 30 32  2  0  0  0  0
 32 31  1  0  0  0  0
 33 31  2  0  0  0  0
 34 29  2  0  0  0  0
 34 30  1  0  0  0  0
 36 35  1  0  0  0  0
 37 38  1  0  0  0  0
 37 40  1  0  0  0  0
 38 41  2  0  0  0  0
 40 36  1  0  0  0  0
 40 39  2  0  0  0  0
 41 39  1  0  0  0  0
 42 43  3  0  0  0  0
 43 38  1  0  0  0  0
M  END
>  <MODEL>
7

>  <REMARK>
 VINA RESULT:      -9.6      1.941      3.182
  Name = 
  9 active torsions:
  status: ('A' for Active; 'I' for Inactive)
    1  A    between atoms: C_1  and  C_34
    2  A    between atoms: C_1  and  C_35
    3  A    between atoms: C_2  and  C_6
    4  A    between atoms: C_2  and  C_13
    5  A    between atoms: C_6  and  C_12
    6  A    between atoms: C_11  and  C_14
    7  A    between atoms: C_14  and  C_22
    8  A    between atoms: C_19  and  C_37
    9  A    between atoms: C_32  and  C_35
                            x       y       z     vdW  Elec       q    Type
                         _______ _______ _______ _____ _____    ______ ____

>  <TORSDO>
F 9

$$$$
=
 OpenBabel10262422113D

 43 48  0  0  1  0  0  0  0  0999 V2000
  181.4860  178.8630  143.0400 C   0  0  0  0  0  0  0  0  0  0  0  0
  186.4460  178.4810  142.0990 C   0  0  0  0  0  0  0  0  0  0  0  0
  186.7440  178.2530  139.3360 C   0  0  0  0  0  0  0  0  0  0  0  0
  183.8980  178.7520  143.2520 C   0  0  0  0  0  0  0  0  0  0  0  0
  181.5970  178.7610  141.6500 C   0  0  0  0  0  3  0  0  0  0  0  0
  180.1490  178.9900  143.6680 C   0  0  0  0  0  1  0  0  0  0  0  0
  184.0190  178.6280  141.8430 C   0  0  0  0  0  0  0  0  0  0  0  0
  182.6340  178.8650  143.8390 C   0  0  0  0  0  3  0  0  0  0  0  0
  182.8550  178.6410  141.0540 C   0  0  0  0  0  3  0  0  0  0  0  0
  185.4610  178.3680  139.8780 C   0  0  0  0  0  3  0  0  0  0  0  0
  185.2980  178.4890  141.2660 C   0  0  0  0  0  0  0  0  0  0  0  0
  186.3000  178.6100  143.4940 C   0  0  0  0  0  3  0  0  0  0  0  0
  187.7180  178.3420  141.5100 C   0  0  0  0  0  0  0  0  0  0  0  0
  187.8280  178.2530  140.1600 N   0  0  0  0  0  0  0  0  0  0  0  0
  185.0350  178.7430  144.0650 C   0  0  0  0  0  3  0  0  0  0  0  0
  186.9540  178.2150  137.8510 C   0  0  1  0  0  3  0  0  0  0  0  0
  188.4140  178.4230  137.5060 C   0  0  0  0  0  1  0  0  0  0  0  0
  186.4440  176.9190  137.2190 C   0  0  0  0  0  2  0  0  0  0  0  0
  183.9450  177.1330  136.7670 N   0  0  0  0  0  0  0  0  0  0  0  0
  182.9200  177.8500  136.0590 C   0  0  0  0  0  3  0  0  0  0  0  0
  181.2880  177.2040  137.7950 C   0  0  0  0  0  2  0  0  0  0  0  0
  185.2990  177.1760  136.2860 C   0  0  0  0  0  0  0  0  0  0  0  0
  183.6430  176.4550  138.0340 C   0  0  0  0  0  2  0  0  0  0  0  0
  185.5400  177.5030  135.0930 O   0  0  0  0  0  0  0  0  0  0  0  0
  181.6560  177.8800  136.5050 C   0  0  0  0  0  0  0  0  0  0  0  0
  182.1890  176.0040  138.0680 C   0  0  0  0  0  2  0  0  0  0  0  0
  180.5790  178.5890  135.7360 C   0  0  1  0  0  3  0  0  0  0  0  0
  179.1920  178.0280  136.0360 C   0  0  0  0  0  1  0  0  0  0  0  0
  180.6450  180.0790  135.9020 C   0  0  0  0  0  0  0  0  0  0  0  0
  180.5720  182.3260  134.9840 C   0  0  0  0  0  3  0  0  0  0  0  0
  180.8540  182.0000  137.3670 C   0  0  0  0  0  3  0  0  0  0  0  0
  180.7410  182.8550  136.2680 C   0  0  0  0  0  3  0  0  0  0  0  0
  180.8090  180.6150  137.1840 C   0  0  0  0  0  3  0  0  0  0  0  0
  180.5190  180.9430  134.8020 C   0  0  0  0  0  3  0  0  0  0  0  0
  188.9650  178.3400  142.3330 C   0  0  0  0  0  2  0  0  0  0  0  0
  189.3580  176.9180  142.6910 C   0  0  0  0  0  2  0  0  0  0  0  0
  191.3260  176.1180  144.5180 S   0  0  0  0  0  0  0  0  0  0  0  0
  191.1530  176.4460  146.1580 C   0  0  0  0  0  0  0  0  0  0  0  0
  189.2560  177.3770  145.1980 C   0  0  0  0  0  3  0  0  0  0  0  0
  189.9020  176.8840  144.0690 C   0  0  0  0  0  0  0  0  0  0  0  0
  189.9660  177.1270  146.3820 C   0  0  0  0  0  3  0  0  0  0  0  0
  192.8050  175.6340  148.0590 C   0  0  0  0  0  3  0  0  0  0  0  0
  192.0480  176.0020  147.1890 C   0  0  0  0  0  0  0  0  0  0  0  0
  1  6  1  0  0  0  0
  1  8  1  0  0  0  0
  2 12  1  0  0  0  0
  3 10  2  0  0  0  0
  3 14  1  0  0  0  0
  4  8  2  0  0  0  0
  4 15  1  0  0  0  0
  5  1  2  0  0  0  0
  7  4  1  0  0  0  0
  9  5  1  0  0  0  0
  9  7  2  0  0  0  0
 10 11  1  0  0  0  0
 11  7  1  0  0  0  0
 11  2  2  0  0  0  0
 12 15  2  0  0  0  0
 13  2  1  0  0  0  0
 13 35  1  0  0  0  0
 14 13  2  0  0  0  0
 16 17  1  1  0  0  0
 16  3  1  0  0  0  0
 18 16  1  0  0  0  0
 19 23  1  0  0  0  0
 20 25  2  0  0  0  0
 20 19  1  0  0  0  0
 21 26  1  0  0  0  0
 22 19  1  0  0  0  0
 22 18  1  0  0  0  0
 23 26  1  0  0  0  0
 24 22  2  0  0  0  0
 25 21  1  0  0  0  0
 27 29  1  0  0  0  0
 27 28  1  1  0  0  0
 27 25  1  0  0  0  0
 29 33  1  0  0  0  0
 30 32  2  0  0  0  0
 32 31  1  0  0  0  0
 33 31  2  0  0  0  0
 34 30  1  0  0  0  0
 34 29  2  0  0  0  0
 35 36  1  0  0  0  0
 36 40  1  0  0  0  0
 37 38  1  0  0  0  0
 38 41  2  0  0  0  0
 38 43  1  0  0  0  0
 39 41  1  0  0  0  0
 40 37  1  0  0  0  0
 40 39  2  0  0  0  0
 43 42  3  0  0  0  0
M  END
>  <MODEL>
8

>  <REMARK>
 VINA RESULT:      -9.6      3.573      8.678
  Name = 
  9 active torsions:
  status: ('A' for Active; 'I' for Inactive)
    1  A    between atoms: C_1  and  C_34
    2  A    between atoms: C_1  and  C_35
    3  A    between atoms: C_2  and  C_6
    4  A    between atoms: C_2  and  C_13
    5  A    between atoms: C_6  and  C_12
    6  A    between atoms: C_11  and  C_14
    7  A    between atoms: C_14  and  C_22
    8  A    between atoms: C_19  and  C_37
    9  A    between atoms: C_32  and  C_35
                            x       y       z     vdW  Elec       q    Type
                         _______ _______ _______ _____ _____    ______ ____

>  <TORSDO>
F 9

$$$$
=
 OpenBabel10262422113D

 43 48  0  0  1  0  0  0  0  0999 V2000
  187.8290  177.6080  144.9390 C   0  0  0  0  0  0  0  0  0  0  0  0
  190.8720  177.2050  140.9120 C   0  0  0  0  0  0  0  0  0  0  0  0
  189.2670  177.4300  138.6430 C   0  0  0  0  0  0  0  0  0  0  0  0
  189.7540  177.3750  143.4850 C   0  0  0  0  0  0  0  0  0  0  0  0
  186.9950  177.7350  143.8240 C   0  0  0  0  0  3  0  0  0  0  0  0
  187.2550  177.6780  146.3040 C   0  0  0  0  0  1  0  0  0  0  0  0
  188.9120  177.4830  142.3470 C   0  0  0  0  0  0  0  0  0  0  0  0
  189.2060  177.4350  144.7700 C   0  0  0  0  0  3  0  0  0  0  0  0
  187.5310  177.6710  142.5350 C   0  0  0  0  0  3  0  0  0  0  0  0
  188.6770  177.5010  139.9070 C   0  0  0  0  0  3  0  0  0  0  0  0
  189.4740  177.3950  141.0570 C   0  0  0  0  0  0  0  0  0  0  0  0
  191.6870  177.1050  142.0570 C   0  0  0  0  0  3  0  0  0  0  0  0
  191.4200  177.1190  139.6180 C   0  0  0  0  0  0  0  0  0  0  0  0
  190.6130  177.2530  138.5340 N   0  0  0  0  0  0  0  0  0  0  0  0
  191.1310  177.1880  143.3330 C   0  0  0  0  0  3  0  0  0  0  0  0
  188.4540  177.6330  137.3980 C   0  0  1  0  0  3  0  0  0  0  0  0
  189.2400  177.2330  136.1680 C   0  0  0  0  0  1  0  0  0  0  0  0
  187.1230  176.8810  137.4390 C   0  0  0  0  0  2  0  0  0  0  0  0
  184.7220  177.2700  138.1980 N   0  0  0  0  0  0  0  0  0  0  0  0
  183.8350  178.1020  138.9650 C   0  0  0  0  0  3  0  0  0  0  0  0
  182.2970  176.1900  139.2380 C   0  0  0  0  0  2  0  0  0  0  0  0
  185.9820  177.8000  137.7540 C   0  0  0  0  0  0  0  0  0  0  0  0
  184.4030  175.8560  137.9660 C   0  0  0  0  0  2  0  0  0  0  0  0
  186.1620  179.0460  137.6950 O   0  0  0  0  0  0  0  0  0  0  0  0
  182.6770  177.6290  139.4460 C   0  0  0  0  0  0  0  0  0  0  0  0
  182.8960  175.6410  137.9460 C   0  0  0  0  0  2  0  0  0  0  0  0
  181.7320  178.5150  140.2030 C   0  0  1  0  0  3  0  0  0  0  0  0
  180.2720  178.1340  139.9700 C   0  0  0  0  0  1  0  0  0  0  0  0
  182.0770  178.6050  141.6610 C   0  0  0  0  0  0  0  0  0  0  0  0
  183.7070  178.7280  143.4570 C   0  0  0  0  0  3  0  0  0  0  0  0
  181.3390  178.7940  143.9630 C   0  0  0  0  0  3  0  0  0  0  0  0
  182.6690  178.8080  144.3920 C   0  0  0  0  0  3  0  0  0  0  0  0
  181.0430  178.6900  142.6010 C   0  0  0  0  0  3  0  0  0  0  0  0
  183.4120  178.6320  142.0950 C   0  0  0  0  0  3  0  0  0  0  0  0
  192.8870  176.9340  139.4000 C   0  0  0  0  0  2  0  0  0  0  0  0
  193.1810  176.7510  137.9220 C   0  0  0  0  0  2  0  0  0  0  0  0
  194.8610  174.5460  138.3320 S   0  0  0  0  0  0  0  0  0  0  0  0
  194.6210  173.1190  137.4770 C   0  0  0  0  0  0  0  0  0  0  0  0
  192.9200  174.5110  136.7320 C   0  0  0  0  0  3  0  0  0  0  0  0
  193.5440  175.3390  137.6580 C   0  0  0  0  0  0  0  0  0  0  0  0
  193.5320  173.2520  136.6280 C   0  0  0  0  0  3  0  0  0  0  0  0
  196.1990  170.9970  137.5860 C   0  0  0  0  0  3  0  0  0  0  0  0
  195.4740  171.9650  137.5370 C   0  0  0  0  0  0  0  0  0  0  0  0
  1  6  1  0  0  0  0
  2 11  1  0  0  0  0
  2 12  1  0  0  0  0
  3 10  1  0  0  0  0
  4  8  2  0  0  0  0
  5  1  2  0  0  0  0
  7  9  2  0  0  0  0
  7  4  1  0  0  0  0
  8  1  1  0  0  0  0
  9  5  1  0  0  0  0
 10 11  2  0  0  0  0
 11  7  1  0  0  0  0
 12 15  2  0  0  0  0
 13  2  2  0  0  0  0
 14  3  2  0  0  0  0
 14 13  1  0  0  0  0
 15  4  1  0  0  0  0
 16 17  1  6  0  0  0
 16 18  1  0  0  0  0
 16  3  1  0  0  0  0
 18 22  1  0  0  0  0
 19 20  1  0  0  0  0
 20 25  2  0  0  0  0
 21 25  1  0  0  0  0
 22 19  1  0  0  0  0
 23 19  1  0  0  0  0
 24 22  2  0  0  0  0
 25 27  1  0  0  0  0
 26 23  1  0  0  0  0
 26 21  1  0  0  0  0
 27 28  1  1  0  0  0
 27 29  1  0  0  0  0
 29 34  2  0  0  0  0
 29 33  1  0  0  0  0
 30 32  2  0  0  0  0
 31 32  1  0  0  0  0
 33 31  2  0  0  0  0
 34 30  1  0  0  0  0
 35 13  1  0  0  0  0
 36 35  1  0  0  0  0
 38 43  1  0  0  0  0
 38 37  1  0  0  0  0
 39 40  2  0  0  0  0
 40 36  1  0  0  0  0
 40 37  1  0  0  0  0
 41 39  1  0  0  0  0
 41 38  2  0  0  0  0
 43 42  3  0  0  0  0
M  END
>  <MODEL>
9

>  <REMARK>
 VINA RESULT:      -9.5      3.190      9.310
  Name = 
  9 active torsions:
  status: ('A' for Active; 'I' for Inactive)
    1  A    between atoms: C_1  and  C_34
    2  A    between atoms: C_1  and  C_35
    3  A    between atoms: C_2  and  C_6
    4  A    between atoms: C_2  and  C_13
    5  A    between atoms: C_6  and  C_12
    6  A    between atoms: C_11  and  C_14
    7  A    between atoms: C_14  and  C_22
    8  A    between atoms: C_19  and  C_37
    9  A    between atoms: C_32  and  C_35
                            x       y       z     vdW  Elec       q    Type
                         _______ _______ _______ _____ _____    ______ ____

>  <TORSDO>
F 9

$$$$
