=
 OpenBabel10262420293D

 55 59  0  0  1  0  0  0  0  0999 V2000
  186.1030  178.4350  143.4510 N   0  0  0  0  0  0  0  0  0  0  0  0
  187.1100  178.1000  147.5720 C   0  0  0  0  0  3  0  0  0  0  0  0
  186.4460  178.3200  144.8500 C   0  0  0  0  0  0  0  0  0  0  0  0
  187.6320  177.6790  145.2490 C   0  0  0  0  0  3  0  0  0  0  0  0
  185.9290  178.7390  147.1900 C   0  0  0  0  0  3  0  0  0  0  0  0
  187.9630  177.5690  146.6030 C   0  0  0  0  0  3  0  0  0  0  0  0
  185.5970  178.8480  145.8360 C   0  0  0  0  0  3  0  0  0  0  0  0
  185.0260  179.3250  143.0180 C   0  0  0  0  0  2  0  0  0  0  0  0
  184.1080  178.6360  142.0180 C   0  0  0  0  0  2  0  0  0  0  0  0
  182.3930  178.9400  143.8330 C   0  0  0  0  0  1  0  0  0  0  0  0
  180.4790  178.5070  141.7810 O   0  0  0  0  0  0  0  0  0  0  0  0
  181.6690  178.7570  141.4410 C   0  0  0  0  0  0  0  0  0  0  0  0
  182.7140  178.7560  142.4240 N   0  0  0  0  0  0  0  0  0  0  0  0
  181.9950  179.0730  140.0040 C   0  0  1  0  0  3  0  0  0  0  0  0
  184.9480  175.7720  136.0750 O   0  0  0  0  0  1  0  0  0  0  0  0
  182.9920  172.3610  136.4530 C   0  0  0  0  0  0  0  0  0  0  0  0
  182.0500  175.9780  136.7060 C   0  0  0  0  0  2  0  0  0  0  0  0
  183.9900  171.4750  136.8540 O   0  0  0  0  0  1  0  0  0  0  0  0
  181.0360  176.8670  139.4150 C   0  0  0  0  0  1  0  0  0  0  0  0
  181.7660  174.4970  136.9480 C   0  0  0  0  0  2  0  0  0  0  0  0
  183.1680  177.5920  138.2940 C   0  0  0  0  0  0  0  0  0  0  0  0
  184.4430  175.6500  137.3730 C   0  0  2  0  0  3  0  0  0  0  0  0
  184.1640  178.3670  138.2730 O   0  0  0  0  0  0  0  0  0  0  0  0
  184.1620  174.1840  137.6850 C   0  0  0  0  0  2  0  0  0  0  0  0
  182.0700  171.9520  135.6940 O   0  0  0  0  0  0  0  0  0  0  0  0
  183.0070  173.7160  136.9200 N   0  0  0  0  0  0  0  0  0  0  0  0
  182.0450  177.8820  139.1540 N   0  0  0  0  0  0  0  0  0  0  0  0
  183.2000  176.4010  137.4980 N   0  0  0  0  0  0  0  0  0  0  0  0
  179.8390  180.3680  139.5840 C   0  0  0  0  0  3  0  0  0  0  0  0
  179.1470  181.4100  138.9560 C   0  0  0  0  0  3  0  0  0  0  0  0
  181.8960  181.1000  138.5300 C   0  0  0  0  0  3  0  0  0  0  0  0
  181.2040  182.1440  137.9050 C   0  0  0  0  0  3  0  0  0  0  0  0
  179.8270  182.2980  138.1140 C   0  0  0  0  0  3  0  0  0  0  0  0
  181.2210  180.2080  139.3770 C   0  0  0  0  0  0  0  0  0  0  0  0
  186.8170  177.6580  142.4380 C   0  0  0  0  0  2  0  0  0  0  0  0
  187.7790  178.5490  141.6560 C   0  0  0  0  0  2  0  0  0  0  0  0
  187.8220  178.1530  140.1830 C   0  0  0  0  0  2  0  0  0  0  0  0
  189.2100  178.3750  139.5820 C   0  0  0  0  0  2  0  0  0  0  0  0
  188.8210  174.4190  136.8060 C   0  0  1  0  0  3  0  0  0  0  0  0
  189.6390  177.3500  138.5170 C   0  0  2  0  0  0  0  0  0  0  0  0
  188.6800  176.9120  136.2750 C   0  0  0  0  0  2  0  0  0  0  0  0
  191.6070  175.8560  137.7770 C   0  0  0  0  0  2  0  0  0  0  0  0
  191.0620  176.8380  138.8130 C   0  0  0  0  0  2  0  0  0  0  0  0
  189.5520  177.8740  137.0650 C   0  0  1  0  0  3  0  0  0  0  0  0
  188.2590  175.7920  137.2150 C   0  0  2  0  0  3  0  0  0  0  0  0
  188.1360  173.9740  135.5200 C   0  0  0  0  0  1  0  0  0  0  0  0
  189.0100  179.2890  136.8920 C   0  0  0  0  0  1  0  0  0  0  0  0
  188.6560  176.1930  138.6210 C   0  0  0  0  0  2  0  0  0  0  0  0
  190.9580  174.6250  137.8980 O   0  0  0  0  0  0  0  0  0  0  0  0
  190.3530  174.4050  136.6590 C   0  0  1  0  0  3  0  0  0  0  0  0
  190.8610  173.0800  136.0970 C   0  0  0  0  0  2  0  0  0  0  0  0
  192.0340  173.3020  135.3820 O   0  0  0  0  0  0  0  0  0  0  0  0
  192.9900  172.5030  136.0140 C   0  0  0  0  0  2  0  0  0  0  0  0
  194.5890  173.9700  136.4470 C   0  0  0  0  0  1  0  0  0  0  0  0
  194.2660  172.8980  135.6090 O   0  0  0  0  0  0  0  0  0  0  0  0
  1  3  1  0  0  0  0
  3  4  2  0  0  0  0
  3  7  1  0  0  0  0
  4  6  1  0  0  0  0
  5  2  1  0  0  0  0
  6  2  2  0  0  0  0
  7  5  2  0  0  0  0
  8  1  1  0  0  0  0
  9 13  1  0  0  0  0
  9  8  1  0  0  0  0
 12 11  2  0  0  0  0
 12 13  1  0  0  0  0
 13 10  1  0  0  0  0
 14 12  1  1  0  0  0
 16 18  1  0  0  0  0
 16 26  1  0  0  0  0
 17 20  1  0  0  0  0
 17 28  1  0  0  0  0
 21 27  1  0  0  0  0
 22 15  1  6  0  0  0
 22 28  1  0  0  0  0
 22 24  1  0  0  0  0
 23 21  2  0  0  0  0
 25 16  2  0  0  0  0
 26 20  1  0  0  0  0
 26 24  1  0  0  0  0
 27 19  1  0  0  0  0
 27 14  1  0  0  0  0
 28 21  1  0  0  0  0
 30 29  2  0  0  0  0
 31 34  2  0  0  0  0
 32 33  2  0  0  0  0
 32 31  1  0  0  0  0
 33 30  1  0  0  0  0
 34 29  1  0  0  0  0
 34 14  1  0  0  0  0
 35  1  1  0  0  0  0
 36 35  1  0  0  0  0
 37 36  1  0  0  0  0
 38 37  1  0  0  0  0
 39 46  1  6  0  0  0
 39 45  1  0  0  0  0
 40 48  1  0  0  0  0
 40 43  1  0  0  0  0
 40 38  1  1  0  0  0
 41 44  1  0  0  0  0
 42 49  1  0  0  0  0
 42 43  1  0  0  0  0
 44 47  1  1  0  0  0
 44 40  1  0  0  0  0
 45 41  1  6  0  0  0
 45 48  1  0  0  0  0
 50 51  1  1  0  0  0
 50 39  1  0  0  0  0
 50 49  1  0  0  0  0
 52 53  1  0  0  0  0
 52 51  1  0  0  0  0
 55 53  1  0  0  0  0
 55 54  1  0  0  0  0
M  END
>  <MODEL>
1

>  <REMARK>
 VINA RESULT:      -7.5      0.000      0.000
  Name = 
  16 active torsions:
  status: ('A' for Active; 'I' for Inactive)
    1  A    between atoms: C_3  and  O_25
    2  A    between atoms: C_3  and  O_38
    3  A    between atoms: C_6  and  C_22
    4  A    between atoms: C_8  and  C_43
    5  A    between atoms: C_8  and  C_54
    6  A    between atoms: C_19  and  C_45
    7  A    between atoms: C_22  and  C_43
    8  A    between atoms: C_26  and  C_45
    9  A    between atoms: C_27  and  N_51
   10  A    between atoms: C_29  and  O_38
   11  A    between atoms: C_29  and  C_53
   12  A    between atoms: C_35  and  C_40
   13  A    between atoms: C_35  and  N_51
   14  A    between atoms: N_37  and  C_40
   15  A    between atoms: C_45  and  N_49
   16  A    between atoms: N_51  and  C_54
                            x       y       z     vdW  Elec       q    Type
                         _______ _______ _______ _____ _____    ______ ____

>  <TORSDO>
F 16

$$$$
=
 OpenBabel10262420293D

 55 59  0  0  1  0  0  0  0  0999 V2000
  188.3070  177.9440  139.2470 N   0  0  0  0  0  0  0  0  0  0  0  0
  188.0900  176.5250  135.2410 C   0  0  0  0  0  3  0  0  0  0  0  0
  188.2340  177.4600  137.8870 C   0  0  0  0  0  0  0  0  0  0  0  0
  187.9190  176.1160  137.6180 C   0  0  0  0  0  3  0  0  0  0  0  0
  188.4040  177.8610  135.4930 C   0  0  0  0  0  3  0  0  0  0  0  0
  187.8480  175.6500  136.3010 C   0  0  0  0  0  3  0  0  0  0  0  0
  188.4770  178.3270  136.8100 C   0  0  0  0  0  3  0  0  0  0  0  0
  187.1210  177.9440  140.1030 C   0  0  0  0  0  2  0  0  0  0  0  0
  185.9290  178.5730  139.3970 C   0  0  0  0  0  2  0  0  0  0  0  0
  185.1560  179.2770  141.6850 C   0  0  0  0  0  1  0  0  0  0  0  0
  182.5630  178.5610  140.7770 O   0  0  0  0  0  0  0  0  0  0  0  0
  183.4780  178.6930  139.9170 C   0  0  0  0  0  0  0  0  0  0  0  0
  184.8440  178.8260  140.3350 N   0  0  0  0  0  0  0  0  0  0  0  0
  183.1380  178.7280  138.4500 C   0  0  1  0  0  3  0  0  0  0  0  0
  184.5820  174.3580  134.7250 O   0  0  0  0  0  1  0  0  0  0  0  0
  182.5240  171.3940  136.3310 C   0  0  0  0  0  0  0  0  0  0  0  0
  182.0040  175.0900  136.0130 C   0  0  0  0  0  2  0  0  0  0  0  0
  183.5150  170.4660  136.6480 O   0  0  0  0  0  1  0  0  0  0  0  0
  181.8680  176.6100  138.6260 C   0  0  0  0  0  1  0  0  0  0  0  0
  181.6730  173.7370  136.6390 C   0  0  0  0  0  2  0  0  0  0  0  0
  183.6550  176.7990  136.8670 C   0  0  0  0  0  0  0  0  0  0  0  0
  184.4510  174.5570  136.1030 C   0  0  2  0  0  3  0  0  0  0  0  0
  184.6690  177.4060  136.4220 O   0  0  0  0  0  0  0  0  0  0  0  0
  184.1440  173.2310  136.7900 C   0  0  0  0  0  2  0  0  0  0  0  0
  181.3950  170.9840  135.9410 O   0  0  0  0  0  0  0  0  0  0  0  0
  182.7850  172.7960  136.4680 N   0  0  0  0  0  0  0  0  0  0  0  0
  182.8460  177.4030  137.8990 N   0  0  0  0  0  0  0  0  0  0  0  0
  183.3620  175.4870  136.3720 N   0  0  0  0  0  0  0  0  0  0  0  0
  182.1340  181.0680  138.5690 C   0  0  0  0  0  3  0  0  0  0  0  0
  181.1670  182.0000  138.1740 C   0  0  0  0  0  3  0  0  0  0  0  0
  181.1590  179.4260  137.0760 C   0  0  0  0  0  3  0  0  0  0  0  0
  180.1950  180.3600  136.6780 C   0  0  0  0  0  3  0  0  0  0  0  0
  180.1960  181.6470  137.2300 C   0  0  0  0  0  3  0  0  0  0  0  0
  182.1380  179.7740  138.0200 C   0  0  0  0  0  0  0  0  0  0  0  0
  189.5640  178.4540  139.7940 C   0  0  0  0  0  2  0  0  0  0  0  0
  190.5500  177.3130  140.0300 C   0  0  0  0  0  2  0  0  0  0  0  0
  189.9700  176.2730  140.9840 C   0  0  0  0  0  2  0  0  0  0  0  0
  190.5790  176.3910  142.3820 C   0  0  0  0  0  2  0  0  0  0  0  0
  188.7260  177.1760  146.7930 C   0  0  1  0  0  3  0  0  0  0  0  0
  189.6830  177.0630  143.4370 C   0  0  2  0  0  0  0  0  0  0  0  0
  190.3070  178.5420  145.3240 C   0  0  0  0  0  2  0  0  0  0  0  0
  187.2470  177.7600  143.9210 C   0  0  0  0  0  2  0  0  0  0  0  0
  188.2160  177.0610  142.9680 C   0  0  0  0  0  2  0  0  0  0  0  0
  190.1190  178.4970  143.8170 C   0  0  1  0  0  3  0  0  0  0  0  0
  189.9610  177.1660  145.8740 C   0  0  2  0  0  3  0  0  0  0  0  0
  189.0810  177.9090  148.0810 C   0  0  0  0  0  1  0  0  0  0  0  0
  191.3880  179.0140  143.1450 C   0  0  0  0  0  1  0  0  0  0  0  0
  189.8090  176.2220  144.6990 C   0  0  0  0  0  2  0  0  0  0  0  0
  187.0580  176.9820  145.0650 O   0  0  0  0  0  0  0  0  0  0  0  0
  187.4770  177.7830  146.1290 C   0  0  1  0  0  3  0  0  0  0  0  0
  186.3200  177.9290  147.1140 C   0  0  0  0  0  2  0  0  0  0  0  0
  185.8960  179.2540  147.1350 O   0  0  0  0  0  0  0  0  0  0  0  0
  185.1880  179.4180  145.9420 C   0  0  0  0  0  2  0  0  0  0  0  0
  183.3580  178.9410  144.7930 C   0  0  0  0  0  1  0  0  0  0  0  0
  183.9320  178.8210  146.0610 O   0  0  0  0  0  0  0  0  0  0  0  0
  1 35  1  0  0  0  0
  1  8  1  0  0  0  0
  2  5  2  0  0  0  0
  2  6  1  0  0  0  0
  3  1  1  0  0  0  0
  4  3  1  0  0  0  0
  5  7  1  0  0  0  0
  6  4  2  0  0  0  0
  7  3  2  0  0  0  0
  9  8  1  0  0  0  0
  9 13  1  0  0  0  0
 12 13  1  0  0  0  0
 12 11  2  0  0  0  0
 13 10  1  0  0  0  0
 14 12  1  1  0  0  0
 16 26  1  0  0  0  0
 16 18  1  0  0  0  0
 17 28  1  0  0  0  0
 17 20  1  0  0  0  0
 21 27  1  0  0  0  0
 22 15  1  6  0  0  0
 22 28  1  0  0  0  0
 22 24  1  0  0  0  0
 23 21  2  0  0  0  0
 25 16  2  0  0  0  0
 26 20  1  0  0  0  0
 26 24  1  0  0  0  0
 27 14  1  0  0  0  0
 27 19  1  0  0  0  0
 28 21  1  0  0  0  0
 30 29  1  0  0  0  0
 31 34  1  0  0  0  0
 32 31  2  0  0  0  0
 32 33  1  0  0  0  0
 33 30  2  0  0  0  0
 34 14  1  0  0  0  0
 34 29  2  0  0  0  0
 35 36  1  0  0  0  0
 36 37  1  0  0  0  0
 37 38  1  0  0  0  0
 39 46  1  1  0  0  0
 40 38  1  6  0  0  0
 40 44  1  0  0  0  0
 40 48  1  0  0  0  0
 41 45  1  0  0  0  0
 42 49  1  0  0  0  0
 43 40  1  0  0  0  0
 43 42  1  0  0  0  0
 44 47  1  6  0  0  0
 44 41  1  0  0  0  0
 45 48  1  6  0  0  0
 45 39  1  0  0  0  0
 49 50  1  0  0  0  0
 50 39  1  0  0  0  0
 50 51  1  1  0  0  0
 51 52  1  0  0  0  0
 53 55  1  0  0  0  0
 53 52  1  0  0  0  0
 54 55  1  0  0  0  0
M  END
>  <MODEL>
2

>  <REMARK>
 VINA RESULT:      -7.3      2.758      7.041
  Name = 
  16 active torsions:
  status: ('A' for Active; 'I' for Inactive)
    1  A    between atoms: C_3  and  O_25
    2  A    between atoms: C_3  and  O_38
    3  A    between atoms: C_6  and  C_22
    4  A    between atoms: C_8  and  C_43
    5  A    between atoms: C_8  and  C_54
    6  A    between atoms: C_19  and  C_45
    7  A    between atoms: C_22  and  C_43
    8  A    between atoms: C_26  and  C_45
    9  A    between atoms: C_27  and  N_51
   10  A    between atoms: C_29  and  O_38
   11  A    between atoms: C_29  and  C_53
   12  A    between atoms: C_35  and  C_40
   13  A    between atoms: C_35  and  N_51
   14  A    between atoms: N_37  and  C_40
   15  A    between atoms: C_45  and  N_49
   16  A    between atoms: N_51  and  C_54
                            x       y       z     vdW  Elec       q    Type
                         _______ _______ _______ _____ _____    ______ ____

>  <TORSDO>
F 16

$$$$
=
 OpenBabel10262420293D

 55 59  0  0  1  0  0  0  0  0999 V2000
  187.8300  178.0850  138.8800 N   0  0  0  0  0  0  0  0  0  0  0  0
  186.2310  176.8040  135.1500 C   0  0  0  0  0  3  0  0  0  0  0  0
  187.2870  177.6520  137.6130 C   0  0  0  0  0  0  0  0  0  0  0  0
  187.2890  178.5100  136.4990 C   0  0  0  0  0  3  0  0  0  0  0  0
  186.2220  175.9420  136.2480 C   0  0  0  0  0  3  0  0  0  0  0  0
  186.7640  178.0880  135.2730 C   0  0  0  0  0  3  0  0  0  0  0  0
  186.7450  176.3640  137.4750 C   0  0  0  0  0  3  0  0  0  0  0  0
  186.9580  178.2810  140.0380 C   0  0  0  0  0  2  0  0  0  0  0  0
  185.5430  178.6400  139.6100 C   0  0  0  0  0  2  0  0  0  0  0  0
  185.3030  179.2680  142.0340 C   0  0  0  0  0  1  0  0  0  0  0  0
  182.5560  178.6400  141.6880 O   0  0  0  0  0  0  0  0  0  0  0  0
  183.2660  178.7870  140.6550 C   0  0  0  0  0  0  0  0  0  0  0  0
  184.6930  178.8770  140.7690 N   0  0  0  0  0  0  0  0  0  0  0  0
  182.6180  178.8870  139.2980 C   0  0  1  0  0  3  0  0  0  0  0  0
  181.9270  175.1740  134.7390 O   0  0  0  0  0  1  0  0  0  0  0  0
  181.3600  171.7930  136.7000 C   0  0  0  0  0  0  0  0  0  0  0  0
  180.5210  175.3850  137.3490 C   0  0  0  0  0  2  0  0  0  0  0  0
  182.4100  170.9940  136.2490 O   0  0  0  0  0  0  0  0  0  0  0  0
  181.8170  176.5980  139.8000 C   0  0  0  0  0  1  0  0  0  0  0  0
  180.6960  173.9420  137.8170 C   0  0  0  0  0  2  0  0  0  0  0  0
  182.2500  177.2240  137.4020 C   0  0  0  0  0  0  0  0  0  0  0  0
  182.6010  175.2120  135.9630 C   0  0  2  0  0  3  0  0  0  0  0  0
  182.7830  178.0150  136.5750 O   0  0  0  0  0  0  0  0  0  0  0  0
  182.8300  173.7930  136.4730 C   0  0  0  0  0  2  0  0  0  0  0  0
  180.2420  171.2630  136.9470 O   0  0  0  0  0  1  0  0  0  0  0  0
  181.5630  173.1980  136.8990 N   0  0  0  0  0  0  0  0  0  0  0  0
  182.1470  177.5960  138.7940 N   0  0  0  0  0  0  0  0  0  0  0  0
  181.8090  175.9400  136.9460 N   0  0  0  0  0  0  0  0  0  0  0  0
  181.7790  181.0180  138.1790 C   0  0  0  0  0  3  0  0  0  0  0  0
  180.8340  182.0460  138.0700 C   0  0  0  0  0  3  0  0  0  0  0  0
  180.4720  180.0090  139.9550 C   0  0  0  0  0  3  0  0  0  0  0  0
  179.5270  181.0350  139.8420 C   0  0  0  0  0  3  0  0  0  0  0  0
  179.7090  182.0570  138.9020 C   0  0  0  0  0  3  0  0  0  0  0  0
  181.6020  179.9900  139.1220 C   0  0  0  0  0  0  0  0  0  0  0  0
  189.2610  178.3500  139.0300 C   0  0  0  0  0  2  0  0  0  0  0  0
  189.9830  177.1130  139.5570 C   0  0  0  0  0  2  0  0  0  0  0  0
  190.8920  177.4640  140.7310 C   0  0  0  0  0  2  0  0  0  0  0  0
  190.1010  178.0640  141.8940 C   0  0  0  0  0  2  0  0  0  0  0  0
  190.4010  177.5620  146.7070 C   0  0  1  0  0  3  0  0  0  0  0  0
  190.2190  177.3090  143.2300 C   0  0  2  0  0  0  0  0  0  0  0  0
  188.5450  177.0300  145.0360 C   0  0  0  0  0  2  0  0  0  0  0  0
  191.5850  175.4930  144.4510 C   0  0  0  0  0  2  0  0  0  0  0  0
  191.4150  176.3380  143.1890 C   0  0  0  0  0  2  0  0  0  0  0  0
  188.9340  176.5550  143.6450 C   0  0  1  0  0  3  0  0  0  0  0  0
  189.5910  178.0390  145.4880 C   0  0  2  0  0  3  0  0  0  0  0  0
  189.4860  177.5450  147.9250 C   0  0  0  0  0  1  0  0  0  0  0  0
  187.7340  176.7100  142.7160 C   0  0  0  0  0  1  0  0  0  0  0  0
  190.4660  178.3670  144.2960 C   0  0  0  0  0  2  0  0  0  0  0  0
  192.0510  176.2890  145.4990 O   0  0  0  0  0  0  0  0  0  0  0  0
  191.0770  176.1960  146.4950 C   0  0  1  0  0  3  0  0  0  0  0  0
  191.7320  175.6780  147.7720 C   0  0  0  0  0  2  0  0  0  0  0  0
  192.5080  176.6880  148.3340 O   0  0  0  0  0  0  0  0  0  0  0  0
  193.5330  176.0150  149.0040 C   0  0  0  0  0  2  0  0  0  0  0  0
  193.3290  177.8250  150.2620 C   0  0  0  0  0  1  0  0  0  0  0  0
  194.2740  176.9290  149.7550 O   0  0  0  0  0  0  0  0  0  0  0  0
  1 35  1  0  0  0  0
  1  8  1  0  0  0  0
  2  6  2  0  0  0  0
  2  5  1  0  0  0  0
  3  1  1  0  0  0  0
  4  3  2  0  0  0  0
  5  7  2  0  0  0  0
  6  4  1  0  0  0  0
  7  3  1  0  0  0  0
  9  8  1  0  0  0  0
  9 13  1  0  0  0  0
 12 13  1  0  0  0  0
 12 11  2  0  0  0  0
 13 10  1  0  0  0  0
 14 12  1  1  0  0  0
 16 26  1  0  0  0  0
 16 25  1  0  0  0  0
 17 20  1  0  0  0  0
 18 16  2  0  0  0  0
 21 27  1  0  0  0  0
 22 15  1  6  0  0  0
 22 24  1  0  0  0  0
 22 28  1  0  0  0  0
 23 21  2  0  0  0  0
 24 26  1  0  0  0  0
 26 20  1  0  0  0  0
 27 14  1  0  0  0  0
 27 19  1  0  0  0  0
 28 17  1  0  0  0  0
 28 21  1  0  0  0  0
 29 34  1  0  0  0  0
 30 29  2  0  0  0  0
 30 33  1  0  0  0  0
 32 31  1  0  0  0  0
 33 32  2  0  0  0  0
 34 14  1  0  0  0  0
 34 31  2  0  0  0  0
 35 36  1  0  0  0  0
 36 37  1  0  0  0  0
 37 38  1  0  0  0  0
 39 46  1  1  0  0  0
 40 38  1  6  0  0  0
 40 44  1  0  0  0  0
 40 48  1  0  0  0  0
 41 45  1  0  0  0  0
 42 49  1  0  0  0  0
 43 40  1  0  0  0  0
 43 42  1  0  0  0  0
 44 47  1  6  0  0  0
 44 41  1  0  0  0  0
 45 48  1  6  0  0  0
 45 39  1  0  0  0  0
 49 50  1  0  0  0  0
 50 39  1  0  0  0  0
 50 51  1  1  0  0  0
 51 52  1  0  0  0  0
 52 53  1  0  0  0  0
 53 55  1  0  0  0  0
 55 54  1  0  0  0  0
M  END
>  <MODEL>
3

>  <REMARK>
 VINA RESULT:      -6.9      3.461      6.810
  Name = 
  16 active torsions:
  status: ('A' for Active; 'I' for Inactive)
    1  A    between atoms: C_3  and  O_25
    2  A    between atoms: C_3  and  O_38
    3  A    between atoms: C_6  and  C_22
    4  A    between atoms: C_8  and  C_43
    5  A    between atoms: C_8  and  C_54
    6  A    between atoms: C_19  and  C_45
    7  A    between atoms: C_22  and  C_43
    8  A    between atoms: C_26  and  C_45
    9  A    between atoms: C_27  and  N_51
   10  A    between atoms: C_29  and  O_38
   11  A    between atoms: C_29  and  C_53
   12  A    between atoms: C_35  and  C_40
   13  A    between atoms: C_35  and  N_51
   14  A    between atoms: N_37  and  C_40
   15  A    between atoms: C_45  and  N_49
   16  A    between atoms: N_51  and  C_54
                            x       y       z     vdW  Elec       q    Type
                         _______ _______ _______ _____ _____    ______ ____

>  <TORSDO>
F 16

$$$$
=
 OpenBabel10262420293D

 55 59  0  0  1  0  0  0  0  0999 V2000
  189.1120  176.9630  143.2800 N   0  0  0  0  0  0  0  0  0  0  0  0
  189.3880  177.3480  147.5090 C   0  0  0  0  0  3  0  0  0  0  0  0
  189.2050  177.0950  144.7160 C   0  0  0  0  0  0  0  0  0  0  0  0
  188.0810  177.4610  145.4780 C   0  0  0  0  0  3  0  0  0  0  0  0
  190.5120  176.9840  146.7650 C   0  0  0  0  0  3  0  0  0  0  0  0
  188.1710  177.5870  146.8680 C   0  0  0  0  0  3  0  0  0  0  0  0
  190.4220  176.8600  145.3750 C   0  0  0  0  0  3  0  0  0  0  0  0
  189.9250  175.9770  142.5680 C   0  0  0  0  0  2  0  0  0  0  0  0
  190.1830  176.4060  141.1310 C   0  0  0  0  0  2  0  0  0  0  0  0
  191.8980  177.8990  142.2070 C   0  0  0  0  0  1  0  0  0  0  0  0
  193.0060  178.1190  139.6020 O   0  0  0  0  0  0  0  0  0  0  0  0
  192.1660  177.2000  139.8150 C   0  0  0  0  0  0  0  0  0  0  0  0
  191.4100  177.1850  141.0340 N   0  0  0  0  0  0  0  0  0  0  0  0
  191.9650  176.1070  138.7980 C   0  0  1  0  0  3  0  0  0  0  0  0
  187.5310  173.6590  135.7320 O   0  0  0  0  0  1  0  0  0  0  0  0
  184.9720  176.6670  135.7280 C   0  0  0  0  0  0  0  0  0  0  0  0
  188.7060  176.3890  135.6730 C   0  0  0  0  0  2  0  0  0  0  0  0
  183.8570  176.1270  136.3680 O   0  0  0  0  0  1  0  0  0  0  0  0
  190.1320  177.5960  138.0550 C   0  0  0  0  0  1  0  0  0  0  0  0
  187.4230  177.1910  135.8770 C   0  0  0  0  0  2  0  0  0  0  0  0
  190.0290  175.1590  137.4380 C   0  0  0  0  0  0  0  0  0  0  0  0
  187.7030  174.4370  136.8820 C   0  0  2  0  0  3  0  0  0  0  0  0
  190.4420  173.9820  137.6300 O   0  0  0  0  0  0  0  0  0  0  0  0
  186.4390  175.2460  137.1540 C   0  0  0  0  0  2  0  0  0  0  0  0
  184.8040  177.4910  134.7860 O   0  0  0  0  0  0  0  0  0  0  0  0
  186.2900  176.3030  136.1540 N   0  0  0  0  0  0  0  0  0  0  0  0
  190.7430  176.2770  138.0100 N   0  0  0  0  0  0  0  0  0  0  0  0
  188.8180  175.3570  136.6990 N   0  0  0  0  0  0  0  0  0  0  0  0
  193.4060  176.3750  136.7110 C   0  0  0  0  0  3  0  0  0  0  0  0
  194.5070  175.9950  135.9350 C   0  0  0  0  0  3  0  0  0  0  0  0
  194.0360  174.7490  138.3960 C   0  0  0  0  0  3  0  0  0  0  0  0
  195.1390  174.3720  137.6210 C   0  0  0  0  0  3  0  0  0  0  0  0
  195.3730  174.9920  136.3860 C   0  0  0  0  0  3  0  0  0  0  0  0
  193.1640  175.7550  137.9500 C   0  0  0  0  0  0  0  0  0  0  0  0
  188.2150  177.8200  142.5050 C   0  0  0  0  0  2  0  0  0  0  0  0
  186.7640  177.5990  142.9280 C   0  0  0  0  0  2  0  0  0  0  0  0
  185.8140  178.4610  142.1030 C   0  0  0  0  0  2  0  0  0  0  0  0
  184.3710  177.9660  142.2090 C   0  0  0  0  0  2  0  0  0  0  0  0
  181.3430  177.2780  138.4850 C   0  0  1  0  0  3  0  0  0  0  0  0
  183.4470  178.3720  141.0470 C   0  0  2  0  0  0  0  0  0  0  0  0
  180.9850  178.1770  140.8480 C   0  0  0  0  0  2  0  0  0  0  0  0
  183.3280  179.8530  138.9380 C   0  0  0  0  0  2  0  0  0  0  0  0
  184.1800  179.3400  140.0990 C   0  0  0  0  0  2  0  0  0  0  0  0
  182.0990  178.9830  141.4960 C   0  0  1  0  0  3  0  0  0  0  0  0
  181.6330  177.1030  139.9870 C   0  0  2  0  0  3  0  0  0  0  0  0
  179.8700  176.9830  138.2340 C   0  0  0  0  0  1  0  0  0  0  0  0
  181.8560  179.0440  143.0000 C   0  0  0  0  0  1  0  0  0  0  0  0
  183.1160  177.0890  140.2990 C   0  0  0  0  0  2  0  0  0  0  0  0
  183.1220  178.8300  138.0090 O   0  0  0  0  0  0  0  0  0  0  0  0
  181.7380  178.6640  137.9450 C   0  0  1  0  0  3  0  0  0  0  0  0
  181.2890  178.8620  136.4990 C   0  0  0  0  0  2  0  0  0  0  0  0
  180.7240  180.1260  136.3610 O   0  0  0  0  0  0  0  0  0  0  0  0
  180.7860  180.3930  134.9910 C   0  0  0  0  0  2  0  0  0  0  0  0
  180.4830  182.3570  135.9650 C   0  0  0  0  0  1  0  0  0  0  0  0
  180.3230  181.6870  134.7490 O   0  0  0  0  0  0  0  0  0  0  0  0
  1  3  1  0  0  0  0
  3  7  2  0  0  0  0
  3  4  1  0  0  0  0
  4  6  2  0  0  0  0
  5  2  2  0  0  0  0
  6  2  1  0  0  0  0
  7  5  1  0  0  0  0
  8  1  1  0  0  0  0
  9  8  1  0  0  0  0
 11 12  2  0  0  0  0
 12 13  1  0  0  0  0
 13  9  1  0  0  0  0
 13 10  1  0  0  0  0
 14 12  1  6  0  0  0
 16 26  1  0  0  0  0
 16 18  1  0  0  0  0
 17 20  1  0  0  0  0
 17 28  1  0  0  0  0
 20 26  1  0  0  0  0
 21 23  2  0  0  0  0
 21 27  1  0  0  0  0
 22 15  1  6  0  0  0
 22 24  1  0  0  0  0
 25 16  2  0  0  0  0
 26 24  1  0  0  0  0
 27 19  1  0  0  0  0
 27 14  1  0  0  0  0
 28 22  1  0  0  0  0
 28 21  1  0  0  0  0
 29 34  1  0  0  0  0
 30 33  1  0  0  0  0
 30 29  2  0  0  0  0
 32 31  1  0  0  0  0
 33 32  2  0  0  0  0
 34 31  2  0  0  0  0
 34 14  1  0  0  0  0
 35 36  1  0  0  0  0
 35  1  1  0  0  0  0
 37 38  1  0  0  0  0
 37 36  1  0  0  0  0
 39 46  1  1  0  0  0
 39 45  1  0  0  0  0
 40 44  1  0  0  0  0
 40 38  1  1  0  0  0
 41 44  1  0  0  0  0
 42 43  1  0  0  0  0
 43 40  1  0  0  0  0
 44 47  1  1  0  0  0
 45 48  1  6  0  0  0
 45 41  1  0  0  0  0
 48 40  1  0  0  0  0
 49 42  1  0  0  0  0
 50 51  1  6  0  0  0
 50 49  1  0  0  0  0
 50 39  1  0  0  0  0
 52 51  1  0  0  0  0
 53 52  1  0  0  0  0
 55 53  1  0  0  0  0
 55 54  1  0  0  0  0
M  END
>  <MODEL>
4

>  <REMARK>
 VINA RESULT:      -6.9      2.644      9.124
  Name = 
  16 active torsions:
  status: ('A' for Active; 'I' for Inactive)
    1  A    between atoms: C_3  and  O_25
    2  A    between atoms: C_3  and  O_38
    3  A    between atoms: C_6  and  C_22
    4  A    between atoms: C_8  and  C_43
    5  A    between atoms: C_8  and  C_54
    6  A    between atoms: C_19  and  C_45
    7  A    between atoms: C_22  and  C_43
    8  A    between atoms: C_26  and  C_45
    9  A    between atoms: C_27  and  N_51
   10  A    between atoms: C_29  and  O_38
   11  A    between atoms: C_29  and  C_53
   12  A    between atoms: C_35  and  C_40
   13  A    between atoms: C_35  and  N_51
   14  A    between atoms: N_37  and  C_40
   15  A    between atoms: C_45  and  N_49
   16  A    between atoms: N_51  and  C_54
                            x       y       z     vdW  Elec       q    Type
                         _______ _______ _______ _____ _____    ______ ____

>  <TORSDO>
F 16

$$$$
=
 OpenBabel10262420293D

 55 59  0  0  1  0  0  0  0  0999 V2000
  187.4180  177.4050  143.6820 N   0  0  0  0  0  0  0  0  0  0  0  0
  187.8080  178.1500  147.8530 C   0  0  0  0  0  3  0  0  0  0  0  0
  187.5510  177.6570  145.0980 C   0  0  0  0  0  0  0  0  0  0  0  0
  188.7870  177.4810  145.7460 C   0  0  0  0  0  3  0  0  0  0  0  0
  186.5750  178.3290  147.2230 C   0  0  0  0  0  3  0  0  0  0  0  0
  188.9150  177.7260  147.1170 C   0  0  0  0  0  3  0  0  0  0  0  0
  186.4460  178.0820  145.8530 C   0  0  0  0  0  3  0  0  0  0  0  0
  188.6000  177.1800  142.8500 C   0  0  0  0  0  2  0  0  0  0  0  0
  188.2270  177.0600  141.3790 C   0  0  0  0  0  2  0  0  0  0  0  0
  189.2250  179.3680  141.3330 C   0  0  0  0  0  1  0  0  0  0  0  0
  188.8770  179.2130  138.5200 O   0  0  0  0  0  0  0  0  0  0  0  0
  188.7890  178.1460  139.1890 C   0  0  0  0  0  0  0  0  0  0  0  0
  188.7270  178.1980  140.6210 N   0  0  0  0  0  0  0  0  0  0  0  0
  188.7640  176.8130  138.4880 C   0  0  1  0  0  3  0  0  0  0  0  0
  185.2420  173.0770  135.5390 O   0  0  0  0  0  1  0  0  0  0  0  0
  181.8640  175.1210  135.6290 C   0  0  0  0  0  0  0  0  0  0  0  0
  185.4920  176.0380  135.4630 C   0  0  0  0  0  2  0  0  0  0  0  0
  180.9980  174.2570  136.2980 O   0  0  0  0  0  1  0  0  0  0  0  0
  186.5320  177.6420  137.8080 C   0  0  0  0  0  1  0  0  0  0  0  0
  184.0270  176.3940  135.7090 C   0  0  0  0  0  2  0  0  0  0  0  0
  187.1880  175.2970  137.1800 C   0  0  0  0  0  0  0  0  0  0  0  0
  185.1940  173.8730  136.6880 C   0  0  2  0  0  3  0  0  0  0  0  0
  187.9570  174.3100  137.3520 O   0  0  0  0  0  0  0  0  0  0  0  0
  183.7480  174.2420  137.0020 C   0  0  0  0  0  2  0  0  0  0  0  0
  181.4160  175.8460  134.6980 O   0  0  0  0  0  0  0  0  0  0  0  0
  183.2420  175.1940  136.0140 N   0  0  0  0  0  0  0  0  0  0  0  0
  187.5280  176.5850  137.7370 N   0  0  0  0  0  0  0  0  0  0  0  0
  185.9550  175.0980  136.4790 N   0  0  0  0  0  0  0  0  0  0  0  0
  190.1090  176.7020  136.3240 C   0  0  0  0  0  3  0  0  0  0  0  0
  191.2560  176.3140  135.6220 C   0  0  0  0  0  3  0  0  0  0  0  0
  191.0540  175.7960  138.3650 C   0  0  0  0  0  3  0  0  0  0  0  0
  192.2030  175.4120  137.6630 C   0  0  0  0  0  3  0  0  0  0  0  0
  192.3030  175.6670  136.2890 C   0  0  0  0  0  3  0  0  0  0  0  0
  190.0010  176.4470  137.7030 C   0  0  0  0  0  0  0  0  0  0  0  0
  186.1010  177.3800  143.0450 C   0  0  0  0  0  2  0  0  0  0  0  0
  185.5970  178.8010  142.7990 C   0  0  0  0  0  2  0  0  0  0  0  0
  184.0930  178.8160  142.5480 C   0  0  0  0  0  2  0  0  0  0  0  0
  183.7200  177.9900  141.3170 C   0  0  0  0  0  2  0  0  0  0  0  0
  181.3810  180.3160  137.7640 C   0  0  1  0  0  3  0  0  0  0  0  0
  182.5020  178.4990  140.5260 C   0  0  2  0  0  0  0  0  0  0  0  0
  181.6900  177.8350  138.2810 C   0  0  0  0  0  2  0  0  0  0  0  0
  180.2490  179.7270  140.7880 C   0  0  0  0  0  2  0  0  0  0  0  0
  181.5260  179.2320  141.4660 C   0  0  0  0  0  2  0  0  0  0  0  0
  181.7560  177.3980  139.7360 C   0  0  1  0  0  3  0  0  0  0  0  0
  182.3560  179.1990  138.1780 C   0  0  2  0  0  3  0  0  0  0  0  0
  180.9720  180.0960  136.3130 C   0  0  0  0  0  1  0  0  0  0  0  0
  182.3570  175.9980  139.8050 C   0  0  0  0  0  1  0  0  0  0  0  0
  183.0430  179.4820  139.4980 C   0  0  0  0  0  2  0  0  0  0  0  0
  180.5380  180.8170  139.9640 O   0  0  0  0  0  0  0  0  0  0  0  0
  180.1500  180.4230  138.6820 C   0  0  1  0  0  3  0  0  0  0  0  0
  179.1280  181.4260  138.1530 C   0  0  0  0  0  2  0  0  0  0  0  0
  179.4360  182.6960  138.6310 O   0  0  0  0  0  0  0  0  0  0  0  0
  179.5960  183.4770  137.4840 C   0  0  0  0  0  2  0  0  0  0  0  0
  180.9940  184.8940  136.5180 C   0  0  0  0  0  1  0  0  0  0  0  0
  180.9540  183.7170  137.2710 O   0  0  0  0  0  0  0  0  0  0  0  0
  1  3  1  0  0  0  0
  3  4  2  0  0  0  0
  3  7  1  0  0  0  0
  4  6  1  0  0  0  0
  5  2  1  0  0  0  0
  6  2  2  0  0  0  0
  7  5  2  0  0  0  0
  8  1  1  0  0  0  0
  9  8  1  0  0  0  0
 11 12  2  0  0  0  0
 12 13  1  0  0  0  0
 13 10  1  0  0  0  0
 13  9  1  0  0  0  0
 14 12  1  6  0  0  0
 16 26  1  0  0  0  0
 16 18  1  0  0  0  0
 17 20  1  0  0  0  0
 17 28  1  0  0  0  0
 20 26  1  0  0  0  0
 21 23  2  0  0  0  0
 21 27  1  0  0  0  0
 22 15  1  6  0  0  0
 22 24  1  0  0  0  0
 25 16  2  0  0  0  0
 26 24  1  0  0  0  0
 27 19  1  0  0  0  0
 27 14  1  0  0  0  0
 28 22  1  0  0  0  0
 28 21  1  0  0  0  0
 29 34  1  0  0  0  0
 30 33  1  0  0  0  0
 30 29  2  0  0  0  0
 32 31  1  0  0  0  0
 33 32  2  0  0  0  0
 34 31  2  0  0  0  0
 34 14  1  0  0  0  0
 35  1  1  0  0  0  0
 36 35  1  0  0  0  0
 37 36  1  0  0  0  0
 38 37  1  0  0  0  0
 39 46  1  6  0  0  0
 39 45  1  0  0  0  0
 39 50  1  0  0  0  0
 40 38  1  1  0  0  0
 40 43  1  0  0  0  0
 41 44  1  0  0  0  0
 42 43  1  0  0  0  0
 44 47  1  6  0  0  0
 44 40  1  0  0  0  0
 45 41  1  1  0  0  0
 45 48  1  0  0  0  0
 48 40  1  0  0  0  0
 49 42  1  0  0  0  0
 50 51  1  6  0  0  0
 50 49  1  0  0  0  0
 51 52  1  0  0  0  0
 53 52  1  0  0  0  0
 54 55  1  0  0  0  0
 55 53  1  0  0  0  0
M  END
>  <MODEL>
5

>  <REMARK>
 VINA RESULT:      -6.7      2.253      8.455
  Name = 
  16 active torsions:
  status: ('A' for Active; 'I' for Inactive)
    1  A    between atoms: C_3  and  O_25
    2  A    between atoms: C_3  and  O_38
    3  A    between atoms: C_6  and  C_22
    4  A    between atoms: C_8  and  C_43
    5  A    between atoms: C_8  and  C_54
    6  A    between atoms: C_19  and  C_45
    7  A    between atoms: C_22  and  C_43
    8  A    between atoms: C_26  and  C_45
    9  A    between atoms: C_27  and  N_51
   10  A    between atoms: C_29  and  O_38
   11  A    between atoms: C_29  and  C_53
   12  A    between atoms: C_35  and  C_40
   13  A    between atoms: C_35  and  N_51
   14  A    between atoms: N_37  and  C_40
   15  A    between atoms: C_45  and  N_49
   16  A    between atoms: N_51  and  C_54
                            x       y       z     vdW  Elec       q    Type
                         _______ _______ _______ _____ _____    ______ ____

>  <TORSDO>
F 16

$$$$
=
 OpenBabel10262420293D

 55 59  0  0  1  0  0  0  0  0999 V2000
  191.0380  177.3590  140.0590 N   0  0  0  0  0  0  0  0  0  0  0  0
  193.1410  174.9650  137.2390 C   0  0  0  0  0  3  0  0  0  0  0  0
  191.7510  176.5450  139.1020 C   0  0  0  0  0  0  0  0  0  0  0  0
  191.0970  175.5100  138.4100 C   0  0  0  0  0  3  0  0  0  0  0  0
  193.8030  175.9880  137.9190 C   0  0  0  0  0  3  0  0  0  0  0  0
  191.7880  174.7230  137.4830 C   0  0  0  0  0  3  0  0  0  0  0  0
  193.1130  176.7740  138.8480 C   0  0  0  0  0  3  0  0  0  0  0  0
  191.5390  177.5150  141.4250 C   0  0  0  0  0  2  0  0  0  0  0  0
  190.4020  177.7630  142.4060 C   0  0  0  0  0  2  0  0  0  0  0  0
  190.5440  175.2640  142.6500 C   0  0  0  0  0  1  0  0  0  0  0  0
  187.8640  175.4310  143.5720 O   0  0  0  0  0  0  0  0  0  0  0  0
  188.5390  176.4970  143.5100 C   0  0  0  0  0  0  0  0  0  0  0  0
  189.8080  176.5070  142.8420 N   0  0  0  0  0  0  0  0  0  0  0  0
  188.0220  177.7580  144.1510 C   0  0  1  0  0  3  0  0  0  0  0  0
  184.4630  179.8740  139.9200 O   0  0  0  0  0  1  0  0  0  0  0  0
  180.9880  178.5210  141.2210 C   0  0  0  0  0  0  0  0  0  0  0  0
  184.1400  179.6940  142.8690 C   0  0  0  0  0  2  0  0  0  0  0  0
  180.5540  177.7170  140.1670 O   0  0  0  0  0  0  0  0  0  0  0  0
  185.5800  177.6200  144.5380 C   0  0  0  0  0  1  0  0  0  0  0  0
  182.7960  178.9700  142.9050 C   0  0  0  0  0  2  0  0  0  0  0  0
  186.4050  178.6770  142.4090 C   0  0  0  0  0  0  0  0  0  0  0  0
  184.6480  178.6860  140.6320 C   0  0  2  0  0  3  0  0  0  0  0  0
  187.3520  178.8610  141.5940 O   0  0  0  0  0  0  0  0  0  0  0  0
  183.3400  177.9020  140.6810 C   0  0  0  0  0  2  0  0  0  0  0  0
  180.1400  179.1820  141.8830 O   0  0  0  0  0  1  0  0  0  0  0  0
  182.3800  178.5740  141.5560 N   0  0  0  0  0  0  0  0  0  0  0  0
  186.6710  178.1120  143.7110 N   0  0  0  0  0  0  0  0  0  0  0  0
  185.0670  178.9810  141.9960 N   0  0  0  0  0  0  0  0  0  0  0  0
  189.3840  177.4680  146.2870 C   0  0  0  0  0  3  0  0  0  0  0  0
  189.4970  177.5490  147.6800 C   0  0  0  0  0  3  0  0  0  0  0  0
  187.1280  178.3450  146.4210 C   0  0  0  0  0  3  0  0  0  0  0  0
  187.2430  178.4300  147.8130 C   0  0  0  0  0  3  0  0  0  0  0  0
  188.4270  178.0270  148.4450 C   0  0  0  0  0  3  0  0  0  0  0  0
  188.1980  177.8680  145.6470 C   0  0  0  0  0  0  0  0  0  0  0  0
  189.7940  178.0350  139.6890 C   0  0  0  0  0  2  0  0  0  0  0  0
  188.7140  177.0150  139.3370 C   0  0  0  0  0  2  0  0  0  0  0  0
  188.0790  177.3310  137.9860 C   0  0  0  0  0  2  0  0  0  0  0  0
  187.7940  176.0580  137.1890 C   0  0  0  0  0  2  0  0  0  0  0  0
  183.0200  176.9030  137.1520 C   0  0  1  0  0  3  0  0  0  0  0  0
  186.3290  175.8630  136.7580 C   0  0  2  0  0  0  0  0  0  0  0  0
  184.8600  177.3630  135.4420 C   0  0  0  0  0  2  0  0  0  0  0  0
  184.5070  174.0690  136.4240 C   0  0  0  0  0  2  0  0  0  0  0  0
  185.9300  174.3810  136.8850 C   0  0  0  0  0  2  0  0  0  0  0  0
  186.0150  176.3810  135.3350 C   0  0  1  0  0  3  0  0  0  0  0  0
  184.4450  177.4300  136.9050 C   0  0  2  0  0  3  0  0  0  0  0  0
  182.0250  177.8790  136.5360 C   0  0  0  0  0  1  0  0  0  0  0  0
  187.1670  177.0500  134.5940 C   0  0  0  0  0  1  0  0  0  0  0  0
  185.4900  176.6940  137.7180 C   0  0  0  0  0  2  0  0  0  0  0  0
  183.5860  174.5700  137.3470 O   0  0  0  0  0  0  0  0  0  0  0  0
  182.7990  175.4730  136.6290 C   0  0  1  0  0  3  0  0  0  0  0  0
  181.3390  175.0430  136.7410 C   0  0  0  0  0  2  0  0  0  0  0  0
  180.9850  174.3120  135.6110 O   0  0  0  0  0  0  0  0  0  0  0  0
  179.8800  173.5550  136.0100 C   0  0  0  0  0  2  0  0  0  0  0  0
  179.9370  171.8630  137.4350 C   0  0  0  0  0  1  0  0  0  0  0  0
  179.9890  173.2580  137.3700 O   0  0  0  0  0  0  0  0  0  0  0  0
  1  8  1  0  0  0  0
  2  6  2  0  0  0  0
  2  5  1  0  0  0  0
  3  1  1  0  0  0  0
  4  3  2  0  0  0  0
  5  7  2  0  0  0  0
  6  4  1  0  0  0  0
  7  3  1  0  0  0  0
  8  9  1  0  0  0  0
  9 13  1  0  0  0  0
 10 13  1  0  0  0  0
 12 11  2  0  0  0  0
 13 12  1  0  0  0  0
 14 12  1  1  0  0  0
 14 34  1  0  0  0  0
 16 26  1  0  0  0  0
 16 25  1  0  0  0  0
 17 20  1  0  0  0  0
 18 16  2  0  0  0  0
 21 27  1  0  0  0  0
 22 15  1  6  0  0  0
 22 24  1  0  0  0  0
 22 28  1  0  0  0  0
 23 21  2  0  0  0  0
 24 26  1  0  0  0  0
 26 20  1  0  0  0  0
 27 14  1  0  0  0  0
 27 19  1  0  0  0  0
 28 21  1  0  0  0  0
 28 17  1  0  0  0  0
 29 30  1  0  0  0  0
 30 33  2  0  0  0  0
 31 32  2  0  0  0  0
 32 33  1  0  0  0  0
 34 29  2  0  0  0  0
 34 31  1  0  0  0  0
 35  1  1  0  0  0  0
 36 35  1  0  0  0  0
 37 36  1  0  0  0  0
 38 37  1  0  0  0  0
 39 46  1  6  0  0  0
 40 43  1  0  0  0  0
 40 38  1  1  0  0  0
 40 48  1  0  0  0  0
 42 43  1  0  0  0  0
 42 49  1  0  0  0  0
 44 47  1  1  0  0  0
 44 41  1  0  0  0  0
 44 40  1  0  0  0  0
 45 41  1  6  0  0  0
 45 39  1  0  0  0  0
 45 48  1  0  0  0  0
 50 51  1  1  0  0  0
 50 39  1  0  0  0  0
 50 49  1  0  0  0  0
 52 53  1  0  0  0  0
 52 51  1  0  0  0  0
 53 55  1  0  0  0  0
 55 54  1  0  0  0  0
M  END
>  <MODEL>
6

>  <REMARK>
 VINA RESULT:      -6.5      3.047      8.367
  Name = 
  16 active torsions:
  status: ('A' for Active; 'I' for Inactive)
    1  A    between atoms: C_3  and  O_25
    2  A    between atoms: C_3  and  O_38
    3  A    between atoms: C_6  and  C_22
    4  A    between atoms: C_8  and  C_43
    5  A    between atoms: C_8  and  C_54
    6  A    between atoms: C_19  and  C_45
    7  A    between atoms: C_22  and  C_43
    8  A    between atoms: C_26  and  C_45
    9  A    between atoms: C_27  and  N_51
   10  A    between atoms: C_29  and  O_38
   11  A    between atoms: C_29  and  C_53
   12  A    between atoms: C_35  and  C_40
   13  A    between atoms: C_35  and  N_51
   14  A    between atoms: N_37  and  C_40
   15  A    between atoms: C_45  and  N_49
   16  A    between atoms: N_51  and  C_54
                            x       y       z     vdW  Elec       q    Type
                         _______ _______ _______ _____ _____    ______ ____

>  <TORSDO>
F 16

$$$$
=
 OpenBabel10262420293D

 55 59  0  0  1  0  0  0  0  0999 V2000
  187.2160  177.9000  137.7400 N   0  0  0  0  0  0  0  0  0  0  0  0
  185.1470  175.3200  135.0620 C   0  0  0  0  0  3  0  0  0  0  0  0
  186.5150  177.0220  136.8310 C   0  0  0  0  0  0  0  0  0  0  0  0
  186.2990  175.6720  137.1590 C   0  0  0  0  0  3  0  0  0  0  0  0
  185.3550  176.6580  134.7240 C   0  0  0  0  0  3  0  0  0  0  0  0
  185.6190  174.8240  136.2790 C   0  0  0  0  0  3  0  0  0  0  0  0
  186.0370  177.5060  135.6030 C   0  0  0  0  0  3  0  0  0  0  0  0
  186.6370  178.2470  139.0380 C   0  0  0  0  0  2  0  0  0  0  0  0
  185.1590  178.5890  138.9100 C   0  0  0  0  0  2  0  0  0  0  0  0
  185.4390  179.2240  141.3280 C   0  0  0  0  0  1  0  0  0  0  0  0
  182.6610  178.6810  141.5540 O   0  0  0  0  0  0  0  0  0  0  0  0
  183.1500  178.8060  140.3970 C   0  0  0  0  0  0  0  0  0  0  0  0
  184.5720  178.8520  140.2170 N   0  0  0  0  0  0  0  0  0  0  0  0
  182.2410  178.9250  139.2010 C   0  0  1  0  0  3  0  0  0  0  0  0
  180.7290  175.2740  134.7920 O   0  0  0  0  0  1  0  0  0  0  0  0
  180.5410  171.8630  136.7750 C   0  0  0  0  0  0  0  0  0  0  0  0
  179.8280  175.4410  137.6200 C   0  0  0  0  0  2  0  0  0  0  0  0
  181.4910  171.0750  136.1260 O   0  0  0  0  0  0  0  0  0  0  0  0
  181.5510  176.6260  139.8070 C   0  0  0  0  0  1  0  0  0  0  0  0
  180.0900  173.9930  138.0260 C   0  0  0  0  0  2  0  0  0  0  0  0
  181.5340  177.2880  137.3800 C   0  0  0  0  0  0  0  0  0  0  0  0
  181.6170  175.2980  135.8720 C   0  0  2  0  0  3  0  0  0  0  0  0
  181.9020  178.0930  136.4810 O   0  0  0  0  0  0  0  0  0  0  0  0
  181.9390  173.8720  136.3090 C   0  0  0  0  0  2  0  0  0  0  0  0
  179.4890  171.3240  137.2160 O   0  0  0  0  0  1  0  0  0  0  0  0
  180.7740  173.2650  136.9540 N   0  0  0  0  0  0  0  0  0  0  0  0
  181.6880  177.6390  138.7730 N   0  0  0  0  0  0  0  0  0  0  0  0
  181.0190  176.0080  136.9950 N   0  0  0  0  0  0  0  0  0  0  0  0
  181.2680  181.1480  138.4180 C   0  0  0  0  0  3  0  0  0  0  0  0
  180.3080  182.1620  138.5240 C   0  0  0  0  0  3  0  0  0  0  0  0
  180.1690  179.9250  140.2000 C   0  0  0  0  0  3  0  0  0  0  0  0
  179.2080  180.9370  140.3030 C   0  0  0  0  0  3  0  0  0  0  0  0
  179.2790  182.0600  139.4670 C   0  0  0  0  0  3  0  0  0  0  0  0
  181.2030  180.0200  139.2560 C   0  0  0  0  0  0  0  0  0  0  0  0
  188.5140  178.4700  137.3800 C   0  0  0  0  0  2  0  0  0  0  0  0
  189.5750  178.0800  138.4070 C   0  0  0  0  0  2  0  0  0  0  0  0
  189.1860  176.8020  139.1420 C   0  0  0  0  0  2  0  0  0  0  0  0
  190.2870  176.3460  140.0990 C   0  0  0  0  0  2  0  0  0  0  0  0
  190.4550  176.4070  144.9440 C   0  0  1  0  0  3  0  0  0  0  0  0
  190.2380  176.9690  141.5050 C   0  0  2  0  0  0  0  0  0  0  0  0
  192.0580  177.2780  143.1580 C   0  0  0  0  0  2  0  0  0  0  0  0
  188.8350  178.5160  143.0190 C   0  0  0  0  0  2  0  0  0  0  0  0
  188.9530  177.8030  141.6720 C   0  0  0  0  0  2  0  0  0  0  0  0
  191.4780  177.8220  141.8630 C   0  0  1  0  0  3  0  0  0  0  0  0
  191.1740  176.1260  143.6120 C   0  0  2  0  0  3  0  0  0  0  0  0
  191.4880  176.4230  146.0640 C   0  0  0  0  0  1  0  0  0  0  0  0
  192.5810  177.8770  140.8110 C   0  0  0  0  0  1  0  0  0  0  0  0
  190.2130  175.8050  142.4850 C   0  0  0  0  0  2  0  0  0  0  0  0
  188.5650  177.5880  144.0280 O   0  0  0  0  0  0  0  0  0  0  0  0
  189.6260  177.7050  144.9280 C   0  0  1  0  0  3  0  0  0  0  0  0
  189.0620  178.0380  146.3060 C   0  0  0  0  0  2  0  0  0  0  0  0
  188.0660  177.1220  146.6310 O   0  0  0  0  0  0  0  0  0  0  0  0
  187.0990  177.8740  147.3040 C   0  0  0  0  0  2  0  0  0  0  0  0
  185.2180  178.3140  146.2250 C   0  0  0  0  0  1  0  0  0  0  0  0
  186.5200  178.7840  146.4190 O   0  0  0  0  0  0  0  0  0  0  0  0
  1  8  1  0  0  0  0
  2  6  1  0  0  0  0
  3  4  1  0  0  0  0
  3  1  1  0  0  0  0
  5  2  2  0  0  0  0
  5  7  1  0  0  0  0
  6  4  2  0  0  0  0
  7  3  2  0  0  0  0
  9  8  1  0  0  0  0
  9 13  1  0  0  0  0
 12 11  2  0  0  0  0
 13 12  1  0  0  0  0
 13 10  1  0  0  0  0
 14 34  1  0  0  0  0
 14 12  1  1  0  0  0
 16 26  1  0  0  0  0
 16 25  1  0  0  0  0
 17 20  1  0  0  0  0
 18 16  2  0  0  0  0
 21 27  1  0  0  0  0
 22 15  1  6  0  0  0
 22 24  1  0  0  0  0
 22 28  1  0  0  0  0
 23 21  2  0  0  0  0
 24 26  1  0  0  0  0
 26 20  1  0  0  0  0
 27 14  1  0  0  0  0
 27 19  1  0  0  0  0
 28 21  1  0  0  0  0
 28 17  1  0  0  0  0
 29 30  2  0  0  0  0
 29 34  1  0  0  0  0
 30 33  1  0  0  0  0
 31 32  1  0  0  0  0
 33 32  2  0  0  0  0
 34 31  2  0  0  0  0
 35  1  1  0  0  0  0
 35 36  1  0  0  0  0
 36 37  1  0  0  0  0
 37 38  1  0  0  0  0
 39 46  1  1  0  0  0
 40 38  1  6  0  0  0
 40 43  1  0  0  0  0
 40 44  1  0  0  0  0
 40 48  1  0  0  0  0
 41 45  1  0  0  0  0
 42 49  1  0  0  0  0
 43 42  1  0  0  0  0
 44 47  1  6  0  0  0
 44 41  1  0  0  0  0
 45 48  1  6  0  0  0
 45 39  1  0  0  0  0
 49 50  1  0  0  0  0
 50 39  1  0  0  0  0
 50 51  1  1  0  0  0
 51 52  1  0  0  0  0
 52 53  1  0  0  0  0
 54 55  1  0  0  0  0
 55 53  1  0  0  0  0
M  END
>  <MODEL>
7

>  <REMARK>
 VINA RESULT:      -6.2      3.214      6.657
  Name = 
  16 active torsions:
  status: ('A' for Active; 'I' for Inactive)
    1  A    between atoms: C_3  and  O_25
    2  A    between atoms: C_3  and  O_38
    3  A    between atoms: C_6  and  C_22
    4  A    between atoms: C_8  and  C_43
    5  A    between atoms: C_8  and  C_54
    6  A    between atoms: C_19  and  C_45
    7  A    between atoms: C_22  and  C_43
    8  A    between atoms: C_26  and  C_45
    9  A    between atoms: C_27  and  N_51
   10  A    between atoms: C_29  and  O_38
   11  A    between atoms: C_29  and  C_53
   12  A    between atoms: C_35  and  C_40
   13  A    between atoms: C_35  and  N_51
   14  A    between atoms: N_37  and  C_40
   15  A    between atoms: C_45  and  N_49
   16  A    between atoms: N_51  and  C_54
                            x       y       z     vdW  Elec       q    Type
                         _______ _______ _______ _____ _____    ______ ____

>  <TORSDO>
F 16

$$$$
=
 OpenBabel10262420293D

 55 59  0  0  1  0  0  0  0  0999 V2000
  184.2870  176.1030  137.3530 N   0  0  0  0  0  0  0  0  0  0  0  0
  182.6040  172.2280  136.8450 C   0  0  0  0  0  3  0  0  0  0  0  0
  183.7170  174.7860  137.1800 C   0  0  0  0  0  0  0  0  0  0  0  0
  184.4950  173.6330  137.3860 C   0  0  0  0  0  3  0  0  0  0  0  0
  181.8190  173.3640  136.6370 C   0  0  0  0  0  3  0  0  0  0  0  0
  183.9420  172.3600  137.2190 C   0  0  0  0  0  3  0  0  0  0  0  0
  182.3730  174.6370  136.8020 C   0  0  0  0  0  3  0  0  0  0  0  0
  185.1940  176.6610  136.3500 C   0  0  0  0  0  2  0  0  0  0  0  0
  186.5890  176.0650  136.4720 C   0  0  0  0  0  2  0  0  0  0  0  0
  187.1030  177.9820  134.9260 C   0  0  0  0  0  1  0  0  0  0  0  0
  189.7880  177.0660  135.0560 O   0  0  0  0  0  0  0  0  0  0  0  0
  188.9680  176.6280  135.9110 C   0  0  0  0  0  0  0  0  0  0  0  0
  187.5640  176.8750  135.7550 N   0  0  0  0  0  0  0  0  0  0  0  0
  189.4630  175.8590  137.1090 C   0  0  1  0  0  3  0  0  0  0  0  0
  195.3570  175.4000  136.7820 O   0  0  0  0  0  1  0  0  0  0  0  0
  195.7310  171.4680  136.8230 C   0  0  0  0  0  0  0  0  0  0  0  0
  193.1770  173.8560  135.4790 C   0  0  0  0  0  2  0  0  0  0  0  0
  196.5070  171.2430  137.9590 O   0  0  0  0  0  1  0  0  0  0  0  0
  190.4130  173.6120  136.6860 C   0  0  0  0  0  1  0  0  0  0  0  0
  193.6160  172.4530  135.8920 C   0  0  0  0  0  2  0  0  0  0  0  0
  191.9870  175.5610  136.9110 C   0  0  0  0  0  0  0  0  0  0  0  0
  194.3020  174.8250  137.4970 C   0  0  2  0  0  3  0  0  0  0  0  0
  192.1790  176.7530  137.2800 O   0  0  0  0  0  0  0  0  0  0  0  0
  194.6910  173.4260  137.9610 C   0  0  0  0  0  2  0  0  0  0  0  0
  195.8920  170.7320  135.8100 O   0  0  0  0  0  0  0  0  0  0  0  0
  194.7500  172.5120  136.8200 N   0  0  0  0  0  0  0  0  0  0  0  0
  190.6420  175.0420  136.8160 N   0  0  0  0  0  0  0  0  0  0  0  0
  193.1200  174.7260  136.6500 N   0  0  0  0  0  0  0  0  0  0  0  0
  190.1560  176.0700  139.5530 C   0  0  0  0  0  3  0  0  0  0  0  0
  190.2280  176.8100  140.7400 C   0  0  0  0  0  3  0  0  0  0  0  0
  189.1050  177.9520  138.4450 C   0  0  0  0  0  3  0  0  0  0  0  0
  189.1800  178.6930  139.6300 C   0  0  0  0  0  3  0  0  0  0  0  0
  189.7390  178.1210  140.7810 C   0  0  0  0  0  3  0  0  0  0  0  0
  189.5960  176.6380  138.3960 C   0  0  0  0  0  0  0  0  0  0  0  0
  183.9820  176.9020  138.5400 C   0  0  0  0  0  2  0  0  0  0  0  0
  184.4690  178.3380  138.3600 C   0  0  0  0  0  2  0  0  0  0  0  0
  185.5940  178.6640  139.3370 C   0  0  0  0  0  2  0  0  0  0  0  0
  185.0690  179.3770  140.5830 C   0  0  0  0  0  2  0  0  0  0  0  0
  185.9080  179.0890  145.3490 C   0  0  1  0  0  3  0  0  0  0  0  0
  185.3850  178.6860  141.9210 C   0  0  2  0  0  0  0  0  0  0  0  0
  183.9370  178.3510  143.9030 C   0  0  0  0  0  2  0  0  0  0  0  0
  187.0120  177.0310  143.0440 C   0  0  0  0  0  2  0  0  0  0  0  0
  186.6440  177.8100  141.7820 C   0  0  0  0  0  2  0  0  0  0  0  0
  184.2150  177.8530  142.4940 C   0  0  1  0  0  3  0  0  0  0  0  0
  184.9390  179.4540  144.2090 C   0  0  2  0  0  3  0  0  0  0  0  0
  185.1290  179.0500  146.6580 C   0  0  0  0  0  1  0  0  0  0  0  0
  182.9170  177.8790  141.6940 C   0  0  0  0  0  1  0  0  0  0  0  0
  185.6560  179.8010  142.9210 C   0  0  0  0  0  2  0  0  0  0  0  0
  187.5200  177.9010  144.0110 O   0  0  0  0  0  0  0  0  0  0  0  0
  186.6650  177.7720  145.1080 C   0  0  1  0  0  3  0  0  0  0  0  0
  187.4900  177.3560  146.3230 C   0  0  0  0  0  2  0  0  0  0  0  0
  188.7130  176.8450  145.8970 O   0  0  0  0  0  0  0  0  0  0  0  0
  189.6660  177.5330  146.6530 C   0  0  0  0  0  2  0  0  0  0  0  0
  191.4180  176.3670  147.3370 C   0  0  0  0  0  1  0  0  0  0  0  0
  190.9450  177.1290  146.2660 O   0  0  0  0  0  0  0  0  0  0  0  0
  1 35  1  0  0  0  0
  2  6  1  0  0  0  0
  3  1  1  0  0  0  0
  3  4  1  0  0  0  0
  5  7  1  0  0  0  0
  5  2  2  0  0  0  0
  6  4  2  0  0  0  0
  7  3  2  0  0  0  0
  8  9  1  0  0  0  0
  8  1  1  0  0  0  0
 10 13  1  0  0  0  0
 11 12  2  0  0  0  0
 13 12  1  0  0  0  0
 13  9  1  0  0  0  0
 14 12  1  6  0  0  0
 14 34  1  0  0  0  0
 16 18  1  0  0  0  0
 17 20  1  0  0  0  0
 17 28  1  0  0  0  0
 19 27  1  0  0  0  0
 20 26  1  0  0  0  0
 21 23  2  0  0  0  0
 22 15  1  6  0  0  0
 22 24  1  0  0  0  0
 25 16  2  0  0  0  0
 26 16  1  0  0  0  0
 26 24  1  0  0  0  0
 27 21  1  0  0  0  0
 27 14  1  0  0  0  0
 28 21  1  0  0  0  0
 28 22  1  0  0  0  0
 29 30  1  0  0  0  0
 30 33  2  0  0  0  0
 31 32  2  0  0  0  0
 32 33  1  0  0  0  0
 34 31  1  0  0  0  0
 34 29  2  0  0  0  0
 36 35  1  0  0  0  0
 36 37  1  0  0  0  0
 37 38  1  0  0  0  0
 39 46  1  1  0  0  0
 40 38  1  6  0  0  0
 40 44  1  0  0  0  0
 40 48  1  0  0  0  0
 41 45  1  0  0  0  0
 42 49  1  0  0  0  0
 43 40  1  0  0  0  0
 43 42  1  0  0  0  0
 44 47  1  6  0  0  0
 44 41  1  0  0  0  0
 45 48  1  6  0  0  0
 45 39  1  0  0  0  0
 49 50  1  0  0  0  0
 50 39  1  0  0  0  0
 50 51  1  1  0  0  0
 52 51  1  0  0  0  0
 52 53  1  0  0  0  0
 55 53  1  0  0  0  0
 55 54  1  0  0  0  0
M  END
>  <MODEL>
8

>  <REMARK>
 VINA RESULT:      -6.0      3.451      9.790
  Name = 
  16 active torsions:
  status: ('A' for Active; 'I' for Inactive)
    1  A    between atoms: C_3  and  O_25
    2  A    between atoms: C_3  and  O_38
    3  A    between atoms: C_6  and  C_22
    4  A    between atoms: C_8  and  C_43
    5  A    between atoms: C_8  and  C_54
    6  A    between atoms: C_19  and  C_45
    7  A    between atoms: C_22  and  C_43
    8  A    between atoms: C_26  and  C_45
    9  A    between atoms: C_27  and  N_51
   10  A    between atoms: C_29  and  O_38
   11  A    between atoms: C_29  and  C_53
   12  A    between atoms: C_35  and  C_40
   13  A    between atoms: C_35  and  N_51
   14  A    between atoms: N_37  and  C_40
   15  A    between atoms: C_45  and  N_49
   16  A    between atoms: N_51  and  C_54
                            x       y       z     vdW  Elec       q    Type
                         _______ _______ _______ _____ _____    ______ ____

>  <TORSDO>
F 16

$$$$
=
 OpenBabel10262420293D

 55 59  0  0  1  0  0  0  0  0999 V2000
  188.9440  177.0090  143.2440 N   0  0  0  0  0  0  0  0  0  0  0  0
  190.9540  176.7280  146.9850 C   0  0  0  0  0  3  0  0  0  0  0  0
  189.6270  176.9130  144.5140 C   0  0  0  0  0  0  0  0  0  0  0  0
  190.9810  176.5340  144.5750 C   0  0  0  0  0  3  0  0  0  0  0  0
  189.6100  177.1050  146.9390 C   0  0  0  0  0  3  0  0  0  0  0  0
  191.6410  176.4420  145.8040 C   0  0  0  0  0  3  0  0  0  0  0  0
  188.9490  177.1950  145.7100 C   0  0  0  0  0  3  0  0  0  0  0  0
  189.6740  177.3760  142.0310 C   0  0  0  0  0  2  0  0  0  0  0  0
  188.9420  176.9090  140.7820 C   0  0  0  0  0  2  0  0  0  0  0  0
  189.0380  179.3750  140.2950 C   0  0  0  0  0  1  0  0  0  0  0  0
  187.6710  178.7220  137.8950 O   0  0  0  0  0  0  0  0  0  0  0  0
  188.2040  177.7830  138.5490 C   0  0  0  0  0  0  0  0  0  0  0  0
  188.7040  178.0210  139.8720 N   0  0  0  0  0  0  0  0  0  0  0  0
  188.3330  176.4120  137.9370 C   0  0  1  0  0  3  0  0  0  0  0  0
  184.9740  171.9140  136.0570 O   0  0  0  0  0  1  0  0  0  0  0  0
  181.4860  173.7470  135.7770 C   0  0  0  0  0  0  0  0  0  0  0  0
  185.0520  174.7830  135.2840 C   0  0  0  0  0  2  0  0  0  0  0  0
  180.6840  173.0220  136.6570 O   0  0  0  0  0  1  0  0  0  0  0  0
  186.0450  176.9440  137.1560 C   0  0  0  0  0  1  0  0  0  0  0  0
  183.5740  175.1120  135.4880 C   0  0  0  0  0  2  0  0  0  0  0  0
  186.8210  174.5530  137.0710 C   0  0  0  0  0  0  0  0  0  0  0  0
  184.9030  172.9540  136.9890 C   0  0  2  0  0  3  0  0  0  0  0  0
  187.6490  173.6750  137.4430 O   0  0  0  0  0  0  0  0  0  0  0  0
  183.4440  173.3120  137.2550 C   0  0  0  0  0  2  0  0  0  0  0  0
  180.9790  174.2090  134.7170 O   0  0  0  0  0  0  0  0  0  0  0  0
  182.8650  173.9780  136.0890 N   0  0  0  0  0  0  0  0  0  0  0  0
  187.0980  175.9510  137.3010 N   0  0  0  0  0  0  0  0  0  0  0  0
  185.5880  174.1330  136.4750 N   0  0  0  0  0  0  0  0  0  0  0  0
  189.6240  176.6060  135.7470 C   0  0  0  0  0  3  0  0  0  0  0  0
  190.7590  176.3340  134.9730 C   0  0  0  0  0  3  0  0  0  0  0  0
  190.6350  175.4620  137.6300 C   0  0  0  0  0  3  0  0  0  0  0  0
  191.7710  175.1930  136.8580 C   0  0  0  0  0  3  0  0  0  0  0  0
  191.8320  175.6250  135.5260 C   0  0  0  0  0  3  0  0  0  0  0  0
  189.5560  176.1730  137.0830 C   0  0  0  0  0  0  0  0  0  0  0  0
  187.5070  176.7550  143.1450 C   0  0  0  0  0  2  0  0  0  0  0  0
  186.7360  178.0690  143.0370 C   0  0  0  0  0  2  0  0  0  0  0  0
  185.3790  177.8570  142.3730 C   0  0  0  0  0  2  0  0  0  0  0  0
  185.0460  178.9910  141.4020 C   0  0  0  0  0  2  0  0  0  0  0  0
  181.7380  176.5660  138.8160 C   0  0  1  0  0  3  0  0  0  0  0  0
  183.7560  178.8000  140.5830 C   0  0  2  0  0  0  0  0  0  0  0  0
  181.6870  177.5680  141.1640 C   0  0  0  0  0  2  0  0  0  0  0  0
  182.4180  179.7710  138.6040 C   0  0  0  0  0  2  0  0  0  0  0  0
  183.6920  179.8360  139.4440 C   0  0  0  0  0  2  0  0  0  0  0  0
  182.4600  178.8510  141.4240 C   0  0  1  0  0  3  0  0  0  0  0  0
  182.4780  176.7500  140.1530 C   0  0  2  0  0  3  0  0  0  0  0  0
  180.5410  175.6500  139.0400 C   0  0  0  0  0  1  0  0  0  0  0  0
  182.6410  179.0220  142.9290 C   0  0  0  0  0  1  0  0  0  0  0  0
  183.8350  177.4020  139.9870 C   0  0  0  0  0  2  0  0  0  0  0  0
  182.4380  178.6320  137.7940 O   0  0  0  0  0  0  0  0  0  0  0  0
  181.3120  177.8950  138.1670 C   0  0  1  0  0  3  0  0  0  0  0  0
  180.4430  177.6750  136.9320 C   0  0  0  0  0  2  0  0  0  0  0  0
  181.2550  177.5890  135.8050 O   0  0  0  0  0  0  0  0  0  0  0  0
  180.6030  178.3580  134.8390 C   0  0  0  0  0  2  0  0  0  0  0  0
  180.4280  180.5530  134.6160 C   0  0  0  0  0  1  0  0  0  0  0  0
  180.0510  179.4900  135.4410 O   0  0  0  0  0  0  0  0  0  0  0  0
  1  3  1  0  0  0  0
  3  4  2  0  0  0  0
  3  7  1  0  0  0  0
  4  6  1  0  0  0  0
  5  2  1  0  0  0  0
  6  2  2  0  0  0  0
  7  5  2  0  0  0  0
  8  1  1  0  0  0  0
  9  8  1  0  0  0  0
 11 12  2  0  0  0  0
 12 13  1  0  0  0  0
 13 10  1  0  0  0  0
 13  9  1  0  0  0  0
 14 12  1  6  0  0  0
 16 26  1  0  0  0  0
 16 18  1  0  0  0  0
 17 20  1  0  0  0  0
 17 28  1  0  0  0  0
 19 27  1  0  0  0  0
 20 26  1  0  0  0  0
 21 27  1  0  0  0  0
 21 23  2  0  0  0  0
 22 15  1  6  0  0  0
 22 24  1  0  0  0  0
 25 16  2  0  0  0  0
 26 24  1  0  0  0  0
 27 14  1  0  0  0  0
 28 22  1  0  0  0  0
 28 21  1  0  0  0  0
 29 34  1  0  0  0  0
 30 33  1  0  0  0  0
 30 29  2  0  0  0  0
 32 31  1  0  0  0  0
 33 32  2  0  0  0  0
 34 31  2  0  0  0  0
 34 14  1  0  0  0  0
 35  1  1  0  0  0  0
 36 35  1  0  0  0  0
 37 36  1  0  0  0  0
 38 37  1  0  0  0  0
 39 46  1  1  0  0  0
 39 45  1  0  0  0  0
 40 38  1  1  0  0  0
 40 44  1  0  0  0  0
 41 44  1  0  0  0  0
 42 43  1  0  0  0  0
 43 40  1  0  0  0  0
 44 47  1  1  0  0  0
 45 48  1  6  0  0  0
 45 41  1  0  0  0  0
 48 40  1  0  0  0  0
 49 50  1  0  0  0  0
 49 42  1  0  0  0  0
 50 51  1  6  0  0  0
 50 39  1  0  0  0  0
 52 51  1  0  0  0  0
 53 55  1  0  0  0  0
 53 52  1  0  0  0  0
 54 55  1  0  0  0  0
M  END
>  <MODEL>
9

>  <REMARK>
 VINA RESULT:      -5.8      2.648      7.720
  Name = 
  16 active torsions:
  status: ('A' for Active; 'I' for Inactive)
    1  A    between atoms: C_3  and  O_25
    2  A    between atoms: C_3  and  O_38
    3  A    between atoms: C_6  and  C_22
    4  A    between atoms: C_8  and  C_43
    5  A    between atoms: C_8  and  C_54
    6  A    between atoms: C_19  and  C_45
    7  A    between atoms: C_22  and  C_43
    8  A    between atoms: C_26  and  C_45
    9  A    between atoms: C_27  and  N_51
   10  A    between atoms: C_29  and  O_38
   11  A    between atoms: C_29  and  C_53
   12  A    between atoms: C_35  and  C_40
   13  A    between atoms: C_35  and  N_51
   14  A    between atoms: N_37  and  C_40
   15  A    between atoms: C_45  and  N_49
   16  A    between atoms: N_51  and  C_54
                            x       y       z     vdW  Elec       q    Type
                         _______ _______ _______ _____ _____    ______ ____

>  <TORSDO>
F 16

$$$$
