=
 OpenBabel10262421573D

 30 33  0  0  1  0  0  0  0  0999 V2000
  187.9360  177.4650  143.7440 C   0  0  0  0  0  2  0  0  0  0  0  0
  187.1950  177.6520  146.1250 C   0  0  0  0  0  0  0  0  0  0  0  0
  183.8800  178.4830  142.5840 C   0  0  0  0  0  2  0  0  0  0  0  0
  187.7420  178.1570  142.3990 C   0  0  2  0  0  3  0  0  0  0  0  0
  183.6480  178.3330  141.0720 C   0  0  0  0  0  2  0  0  0  0  0  0
  186.2580  177.9920  147.1020 C   0  0  0  0  0  3  0  0  0  0  0  0
  188.3770  177.1040  146.5050 F   0  0  0  0  0  0  0  0  0  0  0  0
  185.3510  178.7570  142.9490 C   0  0  2  0  0  3  0  0  0  0  0  0
  185.0360  178.5570  146.7370 C   0  0  0  0  0  3  0  0  0  0  0  0
  186.9170  177.8800  144.7680 C   0  0  0  0  0  0  0  0  0  0  0  0
  186.2860  178.0850  141.9340 C   0  0  1  0  0  3  0  0  0  0  0  0
  184.6520  179.1580  140.2680 C   0  0  0  0  0  2  0  0  0  0  0  0
  186.0990  178.7200  140.5460 C   0  0  0  0  0  2  0  0  0  0  0  0
  184.7460  178.7760  145.3900 C   0  0  0  0  0  3  0  0  0  0  0  0
  185.6630  178.4180  144.3900 C   0  0  0  0  0  0  0  0  0  0  0  0
  190.5000  176.2710  140.8530 O   0  0  0  0  0  0  0  0  0  0  0  0
  189.9670  177.0260  141.7120 C   0  0  0  0  0  0  0  0  0  0  0  0
  188.6920  177.6420  141.4070 N   0  0  0  0  0  0  0  0  0  0  0  0
  190.9350  176.2170  143.8510 N   0  0  0  0  0  0  0  0  0  0  0  0
  191.2160  178.3840  143.4080 N   0  0  0  0  0  2  0  0  0  0  0  0
  190.6910  177.2210  142.9870 C   0  0  0  0  0  0  0  0  0  0  0  0
  191.6280  176.8290  144.8330 C   0  0  0  0  0  3  0  0  0  0  0  0
  191.7990  178.1370  144.5670 N   0  0  0  0  0  0  0  0  0  0  0  0
  188.1890  177.5840  140.0410 C   0  0  0  0  0  2  0  0  0  0  0  0
  189.0360  178.4610  139.1350 C   0  0  0  0  0  2  0  0  0  0  0  0
  189.1010  177.8670  137.7400 C   0  0  0  0  0  2  0  0  0  0  0  0
  189.1470  176.4150  137.8190 N   0  0  0  0  0  2  0  0  0  0  0  0
  191.4160  176.2830  137.2810 O   0  0  0  0  0  0  0  0  0  0  0  0
  190.3480  175.6840  137.5750 C   0  0  0  0  0  0  0  0  0  0  0  0
  190.3390  174.2990  137.6640 O   0  0  0  0  0  1  0  0  0  0  0  0
  1 10  1  0  0  0  0
  2  7  1  0  0  0  0
  2  6  1  0  0  0  0
  4 18  1  6  0  0  0
  4  1  1  0  0  0  0
  5  3  1  0  0  0  0
  8  3  1  6  0  0  0
  8 15  1  0  0  0  0
  9  6  2  0  0  0  0
 10  2  2  0  0  0  0
 11 13  1  6  0  0  0
 11  4  1  0  0  0  0
 11  8  1  0  0  0  0
 12 13  1  0  0  0  0
 12  5  1  0  0  0  0
 14  9  1  0  0  0  0
 15 10  1  0  0  0  0
 15 14  2  0  0  0  0
 16 17  2  0  0  0  0
 17 21  1  0  0  0  0
 18 17  1  0  0  0  0
 19 22  1  0  0  0  0
 20 23  1  0  0  0  0
 21 20  1  0  0  0  0
 21 19  2  0  0  0  0
 23 22  2  0  0  0  0
 24 18  1  0  0  0  0
 25 24  1  0  0  0  0
 26 27  1  0  0  0  0
 26 25  1  0  0  0  0
 28 29  2  0  0  0  0
 29 30  1  0  0  0  0
 29 27  1  0  0  0  0
M  END
>  <MODEL>
1

>  <REMARK>
 VINA RESULT:      -9.2      0.000      0.000
  Name = 
  6 active torsions:
  status: ('A' for Active; 'I' for Inactive)
    1  A    between atoms: C_4  and  N_13
    2  A    between atoms: N_7  and  C_16
    3  A    between atoms: C_8  and  C_12
    4  A    between atoms: N_13  and  C_27
    5  A    between atoms: C_16  and  C_30
    6  A    between atoms: C_27  and  C_30
                            x       y       z     vdW  Elec       q    Type
                         _______ _______ _______ _____ _____    ______ ____

>  <TORSDO>
F 6

$$$$
=
 OpenBabel10262421573D

 30 33  0  0  1  0  0  0  0  0999 V2000
  188.0570  177.4210  143.9610 C   0  0  0  0  0  2  0  0  0  0  0  0
  187.2690  177.6310  146.3250 C   0  0  0  0  0  0  0  0  0  0  0  0
  184.0280  178.4440  142.7110 C   0  0  0  0  0  2  0  0  0  0  0  0
  187.8920  178.1030  142.6060 C   0  0  2  0  0  3  0  0  0  0  0  0
  183.8260  178.2820  141.1970 C   0  0  0  0  0  2  0  0  0  0  0  0
  186.3140  177.9810  147.2800 C   0  0  0  0  0  3  0  0  0  0  0  0
  188.4410  177.0820  146.7330 F   0  0  0  0  0  0  0  0  0  0  0  0
  185.4930  178.7150  143.1040 C   0  0  2  0  0  3  0  0  0  0  0  0
  185.1020  178.5480  146.8860 C   0  0  0  0  0  3  0  0  0  0  0  0
  187.0180  177.8480  144.9610 C   0  0  0  0  0  0  0  0  0  0  0  0
  186.4450  178.0320  142.1130 C   0  0  1  0  0  3  0  0  0  0  0  0
  184.8490  179.0970  140.4050 C   0  0  0  0  0  2  0  0  0  0  0  0
  186.2880  178.6560  140.7160 C   0  0  0  0  0  2  0  0  0  0  0  0
  184.8390  178.7560  145.5320 C   0  0  0  0  0  3  0  0  0  0  0  0
  185.7740  178.3870  144.5540 C   0  0  0  0  0  0  0  0  0  0  0  0
  190.6560  176.1750  141.1250 O   0  0  0  0  0  0  0  0  0  0  0  0
  190.1130  176.9330  141.9740 C   0  0  0  0  0  0  0  0  0  0  0  0
  188.8590  177.5760  141.6380 N   0  0  0  0  0  0  0  0  0  0  0  0
  191.0660  176.0800  144.1030 N   0  0  0  0  0  0  0  0  0  0  0  0
  191.2800  178.2700  143.7440 N   0  0  0  0  0  2  0  0  0  0  0  0
  190.8050  177.1060  143.2710 C   0  0  0  0  0  0  0  0  0  0  0  0
  191.7180  176.6780  145.1200 C   0  0  0  0  0  3  0  0  0  0  0  0
  191.8480  178.0000  144.9060 N   0  0  0  0  0  0  0  0  0  0  0  0
  188.3940  177.5380  140.2580 C   0  0  0  0  0  2  0  0  0  0  0  0
  189.3590  178.2940  139.3600 C   0  0  0  0  0  2  0  0  0  0  0  0
  189.2730  177.7710  137.9380 C   0  0  0  0  0  2  0  0  0  0  0  0
  187.9170  177.3270  137.6530 N   0  0  0  0  0  2  0  0  0  0  0  0
  187.2630  179.3580  136.7030 O   0  0  0  0  0  0  0  0  0  0  0  0
  186.9590  178.1800  137.0300 C   0  0  0  0  0  0  0  0  0  0  0  0
  185.6780  177.7060  136.7800 O   0  0  0  0  0  1  0  0  0  0  0  0
  1 10  1  0  0  0  0
  2  7  1  0  0  0  0
  2  6  1  0  0  0  0
  4 18  1  6  0  0  0
  4  1  1  0  0  0  0
  5  3  1  0  0  0  0
  8  3  1  6  0  0  0
  8 15  1  0  0  0  0
  9  6  2  0  0  0  0
 10  2  2  0  0  0  0
 11 13  1  6  0  0  0
 11  4  1  0  0  0  0
 11  8  1  0  0  0  0
 12 13  1  0  0  0  0
 12  5  1  0  0  0  0
 14  9  1  0  0  0  0
 15 10  1  0  0  0  0
 15 14  2  0  0  0  0
 16 17  2  0  0  0  0
 17 21  1  0  0  0  0
 18 17  1  0  0  0  0
 19 22  1  0  0  0  0
 20 23  1  0  0  0  0
 21 20  1  0  0  0  0
 21 19  2  0  0  0  0
 23 22  2  0  0  0  0
 24 18  1  0  0  0  0
 25 24  1  0  0  0  0
 26 25  1  0  0  0  0
 27 26  1  0  0  0  0
 28 29  2  0  0  0  0
 29 27  1  0  0  0  0
 30 29  1  0  0  0  0
M  END
>  <MODEL>
2

>  <REMARK>
 VINA RESULT:      -9.2      1.535      1.668
  Name = 
  6 active torsions:
  status: ('A' for Active; 'I' for Inactive)
    1  A    between atoms: C_4  and  N_13
    2  A    between atoms: N_7  and  C_16
    3  A    between atoms: C_8  and  C_12
    4  A    between atoms: N_13  and  C_27
    5  A    between atoms: C_16  and  C_30
    6  A    between atoms: C_27  and  C_30
                            x       y       z     vdW  Elec       q    Type
                         _______ _______ _______ _____ _____    ______ ____

>  <TORSDO>
F 6

$$$$
=
 OpenBabel10262421573D

 30 33  0  0  1  0  0  0  0  0999 V2000
  187.2310  178.1740  142.2200 C   0  0  0  0  0  2  0  0  0  0  0  0
  184.8770  178.7320  141.5870 C   0  0  0  0  0  0  0  0  0  0  0  0
  186.0150  178.5290  146.3720 C   0  0  0  0  0  2  0  0  0  0  0  0
  188.0050  177.3610  143.2530 C   0  0  2  0  0  3  0  0  0  0  0  0
  187.2070  178.4640  147.3380 C   0  0  0  0  0  2  0  0  0  0  0  0
  183.5350  178.9570  141.9010 C   0  0  0  0  0  3  0  0  0  0  0  0
  185.2860  178.8650  140.3000 F   0  0  0  0  0  0  0  0  0  0  0  0
  186.2730  177.8060  145.0370 C   0  0  2  0  0  3  0  0  0  0  0  0
  183.0900  178.8260  143.2160 C   0  0  0  0  0  3  0  0  0  0  0  0
  185.7870  178.3700  142.5930 C   0  0  0  0  0  0  0  0  0  0  0  0
  187.7630  177.8760  144.6720 C   0  0  1  0  0  3  0  0  0  0  0  0
  188.0240  177.1890  147.1340 C   0  0  0  0  0  2  0  0  0  0  0  0
  188.5960  177.1040  145.7100 C   0  0  0  0  0  2  0  0  0  0  0  0
  183.9910  178.4780  144.2250 C   0  0  0  0  0  3  0  0  0  0  0  0
  185.3480  178.2730  143.9350 C   0  0  0  0  0  0  0  0  0  0  0  0
  191.2110  177.9320  141.5360 O   0  0  0  0  0  0  0  0  0  0  0  0
  189.9850  177.6430  141.6100 C   0  0  0  0  0  0  0  0  0  0  0  0
  189.4260  177.2880  142.8980 N   0  0  0  0  0  0  0  0  0  0  0  0
  188.9430  176.6040  139.6090 N   0  0  0  0  0  0  0  0  0  0  0  0
  188.6250  178.7970  139.8500 N   0  0  0  0  0  2  0  0  0  0  0  0
  189.1990  177.6940  140.3570 C   0  0  0  0  0  0  0  0  0  0  0  0
  188.1900  177.1000  138.6060 C   0  0  0  0  0  3  0  0  0  0  0  0
  187.9970  178.4240  138.7500 N   0  0  0  0  0  0  0  0  0  0  0  0
  190.3290  177.0280  144.0120 C   0  0  0  0  0  2  0  0  0  0  0  0
  191.1900  175.8120  143.7130 C   0  0  0  0  0  2  0  0  0  0  0  0
  192.0210  175.4460  144.9290 C   0  0  0  0  0  2  0  0  0  0  0  0
  191.9640  176.5170  145.9110 N   0  0  0  0  0  2  0  0  0  0  0  0
  191.8160  175.0710  147.7390 O   0  0  0  0  0  0  0  0  0  0  0  0
  191.8610  176.2540  147.3100 C   0  0  0  0  0  0  0  0  0  0  0  0
  191.8100  177.3130  148.2060 O   0  0  0  0  0  1  0  0  0  0  0  0
  1 10  1  0  0  0  0
  1  4  1  0  0  0  0
  2  6  2  0  0  0  0
  2 10  1  0  0  0  0
  3  5  1  0  0  0  0
  4 18  1  6  0  0  0
  4 11  1  0  0  0  0
  6  9  1  0  0  0  0
  7  2  1  0  0  0  0
  8  3  1  1  0  0  0
  9 14  2  0  0  0  0
 10 15  2  0  0  0  0
 11  8  1  0  0  0  0
 11 13  1  1  0  0  0
 12  5  1  0  0  0  0
 13 12  1  0  0  0  0
 15 14  1  0  0  0  0
 15  8  1  0  0  0  0
 16 17  2  0  0  0  0
 17 18  1  0  0  0  0
 18 24  1  0  0  0  0
 19 21  2  0  0  0  0
 20 21  1  0  0  0  0
 21 17  1  0  0  0  0
 22 23  2  0  0  0  0
 22 19  1  0  0  0  0
 23 20  1  0  0  0  0
 25 24  1  0  0  0  0
 25 26  1  0  0  0  0
 26 27  1  0  0  0  0
 27 29  1  0  0  0  0
 29 28  2  0  0  0  0
 29 30  1  0  0  0  0
M  END
>  <MODEL>
3

>  <REMARK>
 VINA RESULT:      -8.9      2.670      5.798
  Name = 
  6 active torsions:
  status: ('A' for Active; 'I' for Inactive)
    1  A    between atoms: C_4  and  N_13
    2  A    between atoms: N_7  and  C_16
    3  A    between atoms: C_8  and  C_12
    4  A    between atoms: N_13  and  C_27
    5  A    between atoms: C_16  and  C_30
    6  A    between atoms: C_27  and  C_30
                            x       y       z     vdW  Elec       q    Type
                         _______ _______ _______ _____ _____    ______ ____

>  <TORSDO>
F 6

$$$$
=
 OpenBabel10262421573D

 30 33  0  0  1  0  0  0  0  0999 V2000
  184.0310  177.8610  141.4360 C   0  0  0  0  0  2  0  0  0  0  0  0
  185.5850  178.0740  143.3840 C   0  0  0  0  0  0  0  0  0  0  0  0
  180.7710  178.7430  144.1620 C   0  0  0  0  0  2  0  0  0  0  0  0
  182.7850  178.5200  140.8530 C   0  0  2  0  0  3  0  0  0  0  0  0
  179.3940  178.5560  143.5070 C   0  0  0  0  0  2  0  0  0  0  0  0
  185.8600  178.4070  144.7110 C   0  0  0  0  0  3  0  0  0  0  0  0
  186.5770  177.5670  142.6100 F   0  0  0  0  0  0  0  0  0  0  0  0
  181.8870  179.0640  143.1500 C   0  0  2  0  0  3  0  0  0  0  0  0
  184.8570  178.9310  145.5260 C   0  0  0  0  0  3  0  0  0  0  0  0
  184.2970  178.2670  142.8580 C   0  0  0  0  0  0  0  0  0  0  0  0
  181.5890  178.3990  141.7990 C   0  0  1  0  0  3  0  0  0  0  0  0
  179.2610  179.3920  142.2350 C   0  0  0  0  0  2  0  0  0  0  0  0
  180.3130  179.0000  141.1860 C   0  0  0  0  0  2  0  0  0  0  0  0
  183.5710  179.1150  145.0170 C   0  0  0  0  0  3  0  0  0  0  0  0
  183.2660  178.7620  143.6930 C   0  0  0  0  0  0  0  0  0  0  0  0
  182.6110  178.2600  137.1850 O   0  0  0  0  0  0  0  0  0  0  0  0
  182.4470  178.8190  138.3040 C   0  0  0  0  0  0  0  0  0  0  0  0
  182.5100  178.0110  139.5050 N   0  0  0  0  0  0  0  0  0  0  0  0
  181.0450  180.8290  137.9050 N   0  0  0  0  0  0  0  0  0  0  0  0
  183.0790  181.2060  138.7340 N   0  0  0  0  0  2  0  0  0  0  0  0
  182.2070  180.2790  138.3050 C   0  0  0  0  0  0  0  0  0  0  0  0
  181.2550  182.1470  138.0990 C   0  0  0  0  0  3  0  0  0  0  0  0
  182.4830  182.3770  138.6000 N   0  0  0  0  0  0  0  0  0  0  0  0
  182.5030  176.5600  139.3810 C   0  0  0  0  0  2  0  0  0  0  0  0
  181.4140  176.1240  138.4140 C   0  0  0  0  0  2  0  0  0  0  0  0
  180.1010  175.9390  139.1510 C   0  0  0  0  0  2  0  0  0  0  0  0
  180.0940  174.6600  139.8430 N   0  0  0  0  0  2  0  0  0  0  0  0
  179.0460  175.5000  141.7540 O   0  0  0  0  0  0  0  0  0  0  0  0
  179.5470  174.5140  141.1530 C   0  0  0  0  0  0  0  0  0  0  0  0
  179.5660  173.2700  141.7700 O   0  0  0  0  0  1  0  0  0  0  0  0
  1 10  1  0  0  0  0
  2  6  1  0  0  0  0
  4 18  1  6  0  0  0
  4  1  1  0  0  0  0
  4 11  1  0  0  0  0
  5  3  1  0  0  0  0
  6  9  2  0  0  0  0
  7  2  1  0  0  0  0
  8 15  1  0  0  0  0
  8  3  1  1  0  0  0
 10  2  2  0  0  0  0
 10 15  1  0  0  0  0
 11 13  1  6  0  0  0
 11  8  1  0  0  0  0
 12  5  1  0  0  0  0
 13 12  1  0  0  0  0
 14  9  1  0  0  0  0
 15 14  2  0  0  0  0
 16 17  2  0  0  0  0
 17 21  1  0  0  0  0
 17 18  1  0  0  0  0
 19 22  1  0  0  0  0
 19 21  2  0  0  0  0
 21 20  1  0  0  0  0
 22 23  2  0  0  0  0
 23 20  1  0  0  0  0
 24 18  1  0  0  0  0
 25 26  1  0  0  0  0
 25 24  1  0  0  0  0
 26 27  1  0  0  0  0
 27 29  1  0  0  0  0
 29 28  2  0  0  0  0
 29 30  1  0  0  0  0
M  END
>  <MODEL>
4

>  <REMARK>
 VINA RESULT:      -8.8      5.520      7.791
  Name = 
  6 active torsions:
  status: ('A' for Active; 'I' for Inactive)
    1  A    between atoms: C_4  and  N_13
    2  A    between atoms: N_7  and  C_16
    3  A    between atoms: C_8  and  C_12
    4  A    between atoms: N_13  and  C_27
    5  A    between atoms: C_16  and  C_30
    6  A    between atoms: C_27  and  C_30
                            x       y       z     vdW  Elec       q    Type
                         _______ _______ _______ _____ _____    ______ ____

>  <TORSDO>
F 6

$$$$
=
 OpenBabel10262421573D

 30 33  0  0  1  0  0  0  0  0999 V2000
  184.1720  177.8130  141.5160 C   0  0  0  0  0  2  0  0  0  0  0  0
  185.7090  178.0540  143.4740 C   0  0  0  0  0  0  0  0  0  0  0  0
  180.8890  178.7400  144.2000 C   0  0  0  0  0  2  0  0  0  0  0  0
  182.9320  178.4650  140.9130 C   0  0  2  0  0  3  0  0  0  0  0  0
  179.5180  178.5450  143.5370 C   0  0  0  0  0  2  0  0  0  0  0  0
  185.9730  178.4070  144.7980 C   0  0  0  0  0  3  0  0  0  0  0  0
  186.7070  177.5340  142.7160 F   0  0  0  0  0  0  0  0  0  0  0  0
  182.0150  179.0450  143.1940 C   0  0  2  0  0  3  0  0  0  0  0  0
  184.9640  178.9440  145.5970 C   0  0  0  0  0  3  0  0  0  0  0  0
  184.4260  178.2410  142.9350 C   0  0  0  0  0  0  0  0  0  0  0  0
  181.7280  178.3600  141.8500 C   0  0  1  0  0  3  0  0  0  0  0  0
  179.3970  179.3630  142.2510 C   0  0  0  0  0  2  0  0  0  0  0  0
  180.4580  178.9540  141.2170 C   0  0  0  0  0  2  0  0  0  0  0  0
  183.6830  179.1220  145.0740 C   0  0  0  0  0  3  0  0  0  0  0  0
  183.3890  178.7500  143.7530 C   0  0  0  0  0  0  0  0  0  0  0  0
  182.7330  178.1780  137.2480 O   0  0  0  0  0  0  0  0  0  0  0  0
  182.5540  178.7350  138.3660 C   0  0  0  0  0  0  0  0  0  0  0  0
  182.6670  177.9370  139.5700 N   0  0  0  0  0  0  0  0  0  0  0  0
  181.0420  180.6710  138.0040 N   0  0  0  0  0  0  0  0  0  0  0  0
  183.0880  181.1530  138.7460 N   0  0  0  0  0  2  0  0  0  0  0  0
  182.2440  180.1810  138.3630 C   0  0  0  0  0  0  0  0  0  0  0  0
  181.1970  181.9990  138.1770 C   0  0  0  0  0  3  0  0  0  0  0  0
  182.4310  182.2930  138.6240 N   0  0  0  0  0  0  0  0  0  0  0  0
  182.7280  176.4870  139.4530 C   0  0  0  0  0  2  0  0  0  0  0  0
  181.3240  175.9050  139.4220 C   0  0  0  0  0  2  0  0  0  0  0  0
  181.1020  175.1390  138.1300 C   0  0  0  0  0  2  0  0  0  0  0  0
  182.3790  174.7120  137.5800 N   0  0  0  0  0  2  0  0  0  0  0  0
  181.5910  172.6150  136.9170 O   0  0  0  0  0  1  0  0  0  0  0  0
  182.5520  173.4270  136.9850 C   0  0  0  0  0  0  0  0  0  0  0  0
  183.7920  173.0680  136.4740 O   0  0  0  0  0  0  0  0  0  0  0  0
  1 10  1  0  0  0  0
  2  6  1  0  0  0  0
  4 18  1  6  0  0  0
  4  1  1  0  0  0  0
  4 11  1  0  0  0  0
  5  3  1  0  0  0  0
  6  9  2  0  0  0  0
  7  2  1  0  0  0  0
  8 15  1  0  0  0  0
  8  3  1  1  0  0  0
 10  2  2  0  0  0  0
 10 15  1  0  0  0  0
 11 13  1  6  0  0  0
 11  8  1  0  0  0  0
 12  5  1  0  0  0  0
 13 12  1  0  0  0  0
 14  9  1  0  0  0  0
 15 14  2  0  0  0  0
 16 17  2  0  0  0  0
 17 18  1  0  0  0  0
 19 22  1  0  0  0  0
 19 21  2  0  0  0  0
 21 17  1  0  0  0  0
 21 20  1  0  0  0  0
 22 23  2  0  0  0  0
 23 20  1  0  0  0  0
 24 18  1  0  0  0  0
 25 24  1  0  0  0  0
 26 25  1  0  0  0  0
 27 26  1  0  0  0  0
 28 29  1  0  0  0  0
 29 27  1  0  0  0  0
 30 29  2  0  0  0  0
M  END
>  <MODEL>
5

>  <REMARK>
 VINA RESULT:      -8.8      5.301      7.120
  Name = 
  6 active torsions:
  status: ('A' for Active; 'I' for Inactive)
    1  A    between atoms: C_4  and  N_13
    2  A    between atoms: N_7  and  C_16
    3  A    between atoms: C_8  and  C_12
    4  A    between atoms: N_13  and  C_27
    5  A    between atoms: C_16  and  C_30
    6  A    between atoms: C_27  and  C_30
                            x       y       z     vdW  Elec       q    Type
                         _______ _______ _______ _____ _____    ______ ____

>  <TORSDO>
F 6

$$$$
=
 OpenBabel10262421573D

 30 33  0  0  1  0  0  0  0  0999 V2000
  187.5710  178.3880  141.0720 C   0  0  0  0  0  2  0  0  0  0  0  0
  185.5070  178.9800  142.3550 C   0  0  0  0  0  0  0  0  0  0  0  0
  189.3500  177.1620  144.8360 C   0  0  0  0  0  2  0  0  0  0  0  0
  188.6510  177.3130  141.0220 C   0  0  2  0  0  3  0  0  0  0  0  0
  190.8440  176.8350  144.6980 C   0  0  0  0  0  2  0  0  0  0  0  0
  184.7410  178.9910  143.5210 C   0  0  0  0  0  3  0  0  0  0  0  0
  185.0260  179.5890  141.2420 F   0  0  0  0  0  0  0  0  0  0  0  0
  188.5630  176.9800  143.5250 C   0  0  2  0  0  3  0  0  0  0  0  0
  185.2130  178.3710  144.6780 C   0  0  0  0  0  3  0  0  0  0  0  0
  186.7590  178.3440  142.3370 C   0  0  0  0  0  0  0  0  0  0  0  0
  189.4650  177.2730  142.3170 C   0  0  1  0  0  3  0  0  0  0  0  0
  191.0880  175.7720  143.6270 C   0  0  0  0  0  2  0  0  0  0  0  0
  190.6010  176.2380  142.2450 C   0  0  0  0  0  2  0  0  0  0  0  0
  186.4620  177.7460  144.6730 C   0  0  0  0  0  3  0  0  0  0  0  0
  187.2600  177.7480  143.5190 C   0  0  0  0  0  0  0  0  0  0  0  0
  189.7740  178.2660  137.6480 O   0  0  0  0  0  0  0  0  0  0  0  0
  188.9850  177.7650  138.4950 C   0  0  0  0  0  0  0  0  0  0  0  0
  189.4810  177.4650  139.8230 N   0  0  0  0  0  0  0  0  0  0  0  0
  186.6470  178.4870  138.0710 N   0  0  0  0  0  0  0  0  0  0  0  0
  187.1170  176.3620  137.5900 N   0  0  0  0  0  2  0  0  0  0  0  0
  187.5890  177.5250  138.0650 C   0  0  0  0  0  0  0  0  0  0  0  0
  185.5640  177.8470  137.5840 C   0  0  0  0  0  3  0  0  0  0  0  0
  185.8450  176.5640  137.2930 N   0  0  0  0  0  0  0  0  0  0  0  0
  190.9170  177.5070  140.0650 C   0  0  0  0  0  2  0  0  0  0  0  0
  191.6340  176.5500  139.1260 C   0  0  0  0  0  2  0  0  0  0  0  0
  193.1030  176.9150  139.0270 C   0  0  0  0  0  2  0  0  0  0  0  0
  193.5670  176.7460  137.6580 N   0  0  0  0  0  2  0  0  0  0  0  0
  194.2790  174.5460  137.9850 O   0  0  0  0  0  1  0  0  0  0  0  0
  194.1490  175.5250  137.2040 C   0  0  0  0  0  0  0  0  0  0  0  0
  194.5750  175.4160  135.8870 O   0  0  0  0  0  0  0  0  0  0  0  0
  1 10  1  0  0  0  0
  2  6  1  0  0  0  0
  4 18  1  6  0  0  0
  4  1  1  0  0  0  0
  4 11  1  0  0  0  0
  5  3  1  0  0  0  0
  6  9  2  0  0  0  0
  7  2  1  0  0  0  0
  8  3  1  1  0  0  0
 10  2  2  0  0  0  0
 10 15  1  0  0  0  0
 11 13  1  6  0  0  0
 11  8  1  0  0  0  0
 12  5  1  0  0  0  0
 13 12  1  0  0  0  0
 14  9  1  0  0  0  0
 15  8  1  0  0  0  0
 15 14  2  0  0  0  0
 16 17  2  0  0  0  0
 17 18  1  0  0  0  0
 18 24  1  0  0  0  0
 20 21  1  0  0  0  0
 21 19  2  0  0  0  0
 21 17  1  0  0  0  0
 22 19  1  0  0  0  0
 23 22  2  0  0  0  0
 23 20  1  0  0  0  0
 25 24  1  0  0  0  0
 26 25  1  0  0  0  0
 27 26  1  0  0  0  0
 29 27  1  0  0  0  0
 29 28  1  0  0  0  0
 30 29  2  0  0  0  0
M  END
>  <MODEL>
6

>  <REMARK>
 VINA RESULT:      -8.5      2.562      5.144
  Name = 
  6 active torsions:
  status: ('A' for Active; 'I' for Inactive)
    1  A    between atoms: C_4  and  N_13
    2  A    between atoms: N_7  and  C_16
    3  A    between atoms: C_8  and  C_12
    4  A    between atoms: N_13  and  C_27
    5  A    between atoms: C_16  and  C_30
    6  A    between atoms: C_27  and  C_30
                            x       y       z     vdW  Elec       q    Type
                         _______ _______ _______ _____ _____    ______ ____

>  <TORSDO>
F 6

$$$$
=
 OpenBabel10262421573D

 30 33  0  0  1  0  0  0  0  0999 V2000
  185.3610  178.8710  142.6250 C   0  0  0  0  0  2  0  0  0  0  0  0
  184.2130  179.0880  144.8360 C   0  0  0  0  0  0  0  0  0  0  0  0
  188.8630  177.4740  144.7750 C   0  0  0  0  0  2  0  0  0  0  0  0
  186.3150  177.9370  141.8860 C   0  0  2  0  0  3  0  0  0  0  0  0
  190.0920  177.3350  143.8650 C   0  0  0  0  0  2  0  0  0  0  0  0
  184.1470  178.8890  146.2160 C   0  0  0  0  0  3  0  0  0  0  0  0
  183.2050  179.7490  144.2140 F   0  0  0  0  0  0  0  0  0  0  0  0
  187.5270  177.3390  144.0190 C   0  0  2  0  0  3  0  0  0  0  0  0
  185.1710  178.2120  146.8780 C   0  0  0  0  0  3  0  0  0  0  0  0
  185.3090  178.6040  144.1030 C   0  0  0  0  0  0  0  0  0  0  0  0
  187.6750  177.8560  142.5820 C   0  0  1  0  0  3  0  0  0  0  0  0
  189.8050  176.4230  142.6720 C   0  0  0  0  0  2  0  0  0  0  0  0
  188.6620  176.9700  141.8020 C   0  0  0  0  0  2  0  0  0  0  0  0
  186.2700  177.7380  146.1600 C   0  0  0  0  0  3  0  0  0  0  0  0
  186.3690  177.9490  144.7760 C   0  0  0  0  0  0  0  0  0  0  0  0
  185.4960  179.3090  138.5700 O   0  0  0  0  0  0  0  0  0  0  0  0
  185.2890  178.6300  139.6130 C   0  0  0  0  0  0  0  0  0  0  0  0
  186.4110  178.3050  140.4700 N   0  0  0  0  0  0  0  0  0  0  0  0
  182.9140  179.0950  140.1710 N   0  0  0  0  0  0  0  0  0  0  0  0
  183.4420  176.9530  139.8530 N   0  0  0  0  0  2  0  0  0  0  0  0
  183.8950  178.2170  139.8890 C   0  0  0  0  0  0  0  0  0  0  0  0
  181.8350  178.3010  140.3190 C   0  0  0  0  0  3  0  0  0  0  0  0
  182.1510  177.0070  140.1270 N   0  0  0  0  0  0  0  0  0  0  0  0
  187.7630  178.5440  139.9830 C   0  0  0  0  0  2  0  0  0  0  0  0
  187.9380  177.9290  138.6050 C   0  0  0  0  0  2  0  0  0  0  0  0
  189.4130  177.7470  138.2950 C   0  0  0  0  0  2  0  0  0  0  0  0
  189.7580  176.3340  138.3280 N   0  0  0  0  0  2  0  0  0  0  0  0
  191.9750  176.6800  137.6800 O   0  0  0  0  0  0  0  0  0  0  0  0
  191.0680  175.8700  138.0060 C   0  0  0  0  0  0  0  0  0  0  0  0
  191.3450  174.5100  138.0530 O   0  0  0  0  0  1  0  0  0  0  0  0
  1 10  1  0  0  0  0
  2  6  1  0  0  0  0
  4 18  1  6  0  0  0
  4 11  1  0  0  0  0
  4  1  1  0  0  0  0
  5  3  1  0  0  0  0
  6  9  2  0  0  0  0
  7  2  1  0  0  0  0
  8  3  1  1  0  0  0
  8 15  1  0  0  0  0
 10 15  1  0  0  0  0
 10  2  2  0  0  0  0
 11 13  1  6  0  0  0
 11  8  1  0  0  0  0
 12  5  1  0  0  0  0
 13 12  1  0  0  0  0
 14  9  1  0  0  0  0
 15 14  2  0  0  0  0
 16 17  2  0  0  0  0
 17 21  1  0  0  0  0
 17 18  1  0  0  0  0
 19 22  1  0  0  0  0
 20 21  1  0  0  0  0
 20 23  1  0  0  0  0
 21 19  2  0  0  0  0
 23 22  2  0  0  0  0
 24 18  1  0  0  0  0
 25 24  1  0  0  0  0
 26 27  1  0  0  0  0
 26 25  1  0  0  0  0
 28 29  2  0  0  0  0
 29 30  1  0  0  0  0
 29 27  1  0  0  0  0
M  END
>  <MODEL>
7

>  <REMARK>
 VINA RESULT:      -8.4      2.709      5.009
  Name = 
  6 active torsions:
  status: ('A' for Active; 'I' for Inactive)
    1  A    between atoms: C_4  and  N_13
    2  A    between atoms: N_7  and  C_16
    3  A    between atoms: C_8  and  C_12
    4  A    between atoms: N_13  and  C_27
    5  A    between atoms: C_16  and  C_30
    6  A    between atoms: C_27  and  C_30
                            x       y       z     vdW  Elec       q    Type
                         _______ _______ _______ _____ _____    ______ ____

>  <TORSDO>
F 6

$$$$
=
 OpenBabel10262421573D

 30 33  0  0  1  0  0  0  0  0999 V2000
  186.9150  178.6190  144.5410 C   0  0  0  0  0  2  0  0  0  0  0  0
  186.7520  178.5450  147.0350 C   0  0  0  0  0  0  0  0  0  0  0  0
  190.8230  176.7680  144.9130 C   0  0  0  0  0  2  0  0  0  0  0  0
  187.4060  177.7700  143.3730 C   0  0  2  0  0  3  0  0  0  0  0  0
  191.5770  176.7180  143.5760 C   0  0  0  0  0  2  0  0  0  0  0  0
  187.2130  178.1420  148.2900 C   0  0  0  0  0  3  0  0  0  0  0  0
  185.6520  179.3340  146.9570 F   0  0  0  0  0  0  0  0  0  0  0  0
  189.2920  176.8050  144.7480 C   0  0  2  0  0  3  0  0  0  0  0  0
  188.3420  177.3300  148.3960 C   0  0  0  0  0  3  0  0  0  0  0  0
  187.4200  178.1330  145.8700 C   0  0  0  0  0  0  0  0  0  0  0  0
  188.9140  177.5280  143.4470 C   0  0  1  0  0  3  0  0  0  0  0  0
  190.7570  176.0120  142.4970 C   0  0  0  0  0  2  0  0  0  0  0  0
  189.4250  176.7310  142.2340 C   0  0  0  0  0  2  0  0  0  0  0  0
  189.0190  176.9250  147.2440 C   0  0  0  0  0  3  0  0  0  0  0  0
  188.5890  177.3410  145.9750 C   0  0  0  0  0  0  0  0  0  0  0  0
  185.6470  179.8420  140.8900 O   0  0  0  0  0  0  0  0  0  0  0  0
  185.7330  179.0590  141.8750 C   0  0  0  0  0  0  0  0  0  0  0  0
  186.9750  178.3450  142.0940 N   0  0  0  0  0  0  0  0  0  0  0  0
  184.3690  179.6750  143.8560 N   0  0  0  0  0  0  0  0  0  0  0  0
  183.5070  178.1090  142.5240 N   0  0  0  0  0  2  0  0  0  0  0  0
  184.5450  178.9310  142.7480 C   0  0  0  0  0  0  0  0  0  0  0  0
  183.1700  179.2560  144.3100 C   0  0  0  0  0  3  0  0  0  0  0  0
  182.6470  178.3110  143.5070 N   0  0  0  0  0  0  0  0  0  0  0  0
  187.9870  178.3510  141.0470 C   0  0  0  0  0  2  0  0  0  0  0  0
  187.3610  177.9780  139.7130 C   0  0  0  0  0  2  0  0  0  0  0  0
  188.4030  178.0280  138.6110 C   0  0  0  0  0  2  0  0  0  0  0  0
  188.8900  176.6880  138.3250 N   0  0  0  0  0  2  0  0  0  0  0  0
  191.0580  177.1240  139.0770 O   0  0  0  0  0  1  0  0  0  0  0  0
  190.2390  176.3030  138.5840 C   0  0  0  0  0  0  0  0  0  0  0  0
  190.6520  175.0100  138.2920 O   0  0  0  0  0  0  0  0  0  0  0  0
  1 10  1  0  0  0  0
  2  6  1  0  0  0  0
  4 18  1  6  0  0  0
  4 11  1  0  0  0  0
  4  1  1  0  0  0  0
  5  3  1  0  0  0  0
  6  9  2  0  0  0  0
  7  2  1  0  0  0  0
  8  3  1  1  0  0  0
  8 15  1  0  0  0  0
 10 15  1  0  0  0  0
 10  2  2  0  0  0  0
 11 13  1  6  0  0  0
 11  8  1  0  0  0  0
 12  5  1  0  0  0  0
 13 12  1  0  0  0  0
 14  9  1  0  0  0  0
 15 14  2  0  0  0  0
 16 17  2  0  0  0  0
 17 18  1  0  0  0  0
 17 21  1  0  0  0  0
 19 22  1  0  0  0  0
 20 21  1  0  0  0  0
 20 23  1  0  0  0  0
 21 19  2  0  0  0  0
 23 22  2  0  0  0  0
 24 18  1  0  0  0  0
 25 24  1  0  0  0  0
 26 25  1  0  0  0  0
 27 29  1  0  0  0  0
 27 26  1  0  0  0  0
 29 28  1  0  0  0  0
 30 29  2  0  0  0  0
M  END
>  <MODEL>
8

>  <REMARK>
 VINA RESULT:      -8.4      2.544      4.829
  Name = 
  6 active torsions:
  status: ('A' for Active; 'I' for Inactive)
    1  A    between atoms: C_4  and  N_13
    2  A    between atoms: N_7  and  C_16
    3  A    between atoms: C_8  and  C_12
    4  A    between atoms: N_13  and  C_27
    5  A    between atoms: C_16  and  C_30
    6  A    between atoms: C_27  and  C_30
                            x       y       z     vdW  Elec       q    Type
                         _______ _______ _______ _____ _____    ______ ____

>  <TORSDO>
F 6

$$$$
=
 OpenBabel10262421573D

 30 33  0  0  1  0  0  0  0  0999 V2000
  182.4550  179.0160  142.4130 C   0  0  0  0  0  2  0  0  0  0  0  0
  183.7510  178.8130  144.5420 C   0  0  0  0  0  0  0  0  0  0  0  0
  186.1990  178.4770  140.2850 C   0  0  0  0  0  2  0  0  0  0  0  0
  182.3900  178.4030  141.0170 C   0  0  2  0  0  3  0  0  0  0  0  0
  186.0530  178.7110  138.7740 C   0  0  0  0  0  2  0  0  0  0  0  0
  184.9190  178.5350  145.2530 C   0  0  0  0  0  3  0  0  0  0  0  0
  182.6460  179.2180  145.2180 F   0  0  0  0  0  0  0  0  0  0  0  0
  184.8880  178.0360  140.9620 C   0  0  2  0  0  3  0  0  0  0  0  0
  186.0680  178.1160  144.5800 C   0  0  0  0  0  3  0  0  0  0  0  0
  183.7210  178.6700  143.1450 C   0  0  0  0  0  0  0  0  0  0  0  0
  183.6820  178.6450  140.2350 C   0  0  1  0  0  3  0  0  0  0  0  0
  184.9690  177.8180  138.1720 C   0  0  0  0  0  2  0  0  0  0  0  0
  183.5940  178.0900  138.8030 C   0  0  0  0  0  2  0  0  0  0  0  0
  186.0510  177.9830  143.1910 C   0  0  0  0  0  3  0  0  0  0  0  0
  184.8950  178.2830  142.4550 C   0  0  0  0  0  0  0  0  0  0  0  0
  178.9310  178.5930  139.7720 O   0  0  0  0  0  0  0  0  0  0  0  0
  180.0350  178.0310  140.0070 C   0  0  0  0  0  0  0  0  0  0  0  0
  181.1890  178.8540  140.3060 N   0  0  0  0  0  0  0  0  0  0  0  0
  179.4110  175.7820  140.8550 N   0  0  0  0  0  0  0  0  0  0  0  0
  180.7050  175.8180  139.0400 N   0  0  0  0  0  2  0  0  0  0  0  0
  180.0680  176.5520  139.9670 C   0  0  0  0  0  0  0  0  0  0  0  0
  179.6890  174.5330  140.4300 C   0  0  0  0  0  3  0  0  0  0  0  0
  180.4700  174.5520  139.3350 N   0  0  0  0  0  0  0  0  0  0  0  0
  181.1100  180.2910  140.0780 C   0  0  0  0  0  2  0  0  0  0  0  0
  181.0480  180.5800  138.5870 C   0  0  0  0  0  2  0  0  0  0  0  0
  181.5380  181.9890  138.3060 C   0  0  0  0  0  2  0  0  0  0  0  0
  180.8810  182.5170  137.1200 N   0  0  0  0  0  2  0  0  0  0  0  0
  182.0260  184.5520  137.1760 O   0  0  0  0  0  1  0  0  0  0  0  0
  181.1760  183.8160  136.6090 C   0  0  0  0  0  0  0  0  0  0  0  0
  180.5190  184.2720  135.4740 O   0  0  0  0  0  0  0  0  0  0  0  0
  1 10  1  0  0  0  0
  2  7  1  0  0  0  0
  2  6  1  0  0  0  0
  4 18  1  6  0  0  0
  4  1  1  0  0  0  0
  5  3  1  0  0  0  0
  8  3  1  6  0  0  0
  8 15  1  0  0  0  0
  9  6  2  0  0  0  0
 10  2  2  0  0  0  0
 11 13  1  6  0  0  0
 11  8  1  0  0  0  0
 11  4  1  0  0  0  0
 12  5  1  0  0  0  0
 12 13  1  0  0  0  0
 14  9  1  0  0  0  0
 15 10  1  0  0  0  0
 15 14  2  0  0  0  0
 16 17  2  0  0  0  0
 17 18  1  0  0  0  0
 20 23  1  0  0  0  0
 20 21  1  0  0  0  0
 21 17  1  0  0  0  0
 21 19  2  0  0  0  0
 22 19  1  0  0  0  0
 23 22  2  0  0  0  0
 24 18  1  0  0  0  0
 25 24  1  0  0  0  0
 26 25  1  0  0  0  0
 27 26  1  0  0  0  0
 29 27  1  0  0  0  0
 29 28  1  0  0  0  0
 30 29  2  0  0  0  0
M  END
>  <MODEL>
9

>  <REMARK>
 VINA RESULT:      -8.2      6.136      8.290
  Name = 
  6 active torsions:
  status: ('A' for Active; 'I' for Inactive)
    1  A    between atoms: C_4  and  N_13
    2  A    between atoms: N_7  and  C_16
    3  A    between atoms: C_8  and  C_12
    4  A    between atoms: N_13  and  C_27
    5  A    between atoms: C_16  and  C_30
    6  A    between atoms: C_27  and  C_30
                            x       y       z     vdW  Elec       q    Type
                         _______ _______ _______ _____ _____    ______ ____

>  <TORSDO>
F 6

$$$$
