=
 OpenBabel10262421013D

 32 36  0  0  1  0  0  0  0  0999 V2000
  181.4470  179.0760  141.9020 C   0  0  2  0  0  3  0  0  0  0  0  0
  181.1650  178.4780  139.3860 C   0  0  1  0  0  3  0  0  0  0  0  0
  181.0150  179.5290  140.4990 C   0  0  1  0  0  3  0  0  0  0  0  0
  181.7950  179.1290  138.1540 C   0  0  2  0  0  3  0  0  0  0  0  0
  181.9600  174.7270  136.8820 C   0  0  0  0  0  2  0  0  0  0  0  0
  181.9780  177.2440  139.8260 C   0  0  2  0  0  3  0  0  0  0  0  0
  183.2200  176.4620  136.1930 C   0  0  0  0  0  2  0  0  0  0  0  0
  182.9030  177.3270  137.4260 C   0  0  1  0  0  3  0  0  0  0  0  0
  181.1070  180.4320  137.7190 C   0  0  0  0  0  2  0  0  0  0  0  0
  179.8130  180.4900  140.3500 C   0  0  1  0  0  3  0  0  0  0  0  0
  181.8470  178.2010  137.1070 O   0  0  0  0  0  0  0  0  0  0  0  0
  178.9310  180.1580  139.1350 C   0  0  0  0  0  2  0  0  0  0  0  0
  179.0220  180.5010  141.5000 O   0  0  0  0  0  1  0  0  0  0  0  0
  183.0270  177.5980  140.7810 N   0  0  0  0  0  0  0  0  0  0  0  0
  179.0850  181.6070  137.2340 O   0  0  0  0  0  1  0  0  0  0  0  0
  182.8040  178.4130  141.7750 C   0  0  0  0  0  0  0  0  0  0  0  0
  182.5450  176.4410  138.6470 C   0  0  2  0  0  3  0  0  0  0  0  0
  179.5710  180.4080  137.7540 C   0  0  1  0  0  3  0  0  0  0  0  0
  183.2680  175.0900  136.5080 O   0  0  0  0  0  0  0  0  0  0  0  0
  181.6070  175.2940  138.2640 C   0  0  0  0  0  2  0  0  0  0  0  0
  186.0820  177.4950  143.1020 C   0  0  0  0  0  2  0  0  0  0  0  0
  186.5620  178.0150  144.4550 C   0  0  0  0  0  2  0  0  0  0  0  0
  184.5870  179.4970  145.0150 C   0  0  0  0  0  2  0  0  0  0  0  0
  183.8910  178.7210  142.7300 C   0  0  0  0  0  0  0  0  0  0  0  0
  185.4010  178.2680  145.4170 C   0  0  2  0  0  3  0  0  0  0  0  0
  183.5820  179.1520  143.9620 C   0  0  0  0  0  3  0  0  0  0  0  0
  185.3190  178.5370  142.2800 C   0  0  1  0  0  3  0  0  0  0  0  0
  186.0280  179.8070  142.2120 N   0  0  0  0  0  1  0  0  0  0  0  0
  187.2410  177.8860  146.9280 C   0  0  0  0  0  1  0  0  0  0  0  0
  185.8650  178.3610  146.8040 N   0  0  0  0  0  2  0  0  0  0  0  0
  180.4320  178.1070  142.5060 C   0  0  0  0  0  2  0  0  0  0  0  0
  180.1440  178.4660  143.9500 C   0  0  0  0  0  1  0  0  0  0  0  0
  1 31  1  6  0  0  0
  2  6  1  0  0  0  0
  2  3  1  0  0  0  0
  3  1  1  0  0  0  0
  4  2  1  0  0  0  0
  5 20  1  0  0  0  0
  6 14  1  0  0  0  0
  7 19  1  0  0  0  0
  7  8  1  0  0  0  0
  8 17  1  0  0  0  0
  9 18  1  0  0  0  0
  9  4  1  0  0  0  0
 10  3  1  0  0  0  0
 10 13  1  0  0  0  0
 11  8  1  0  0  0  0
 11  4  1  0  0  0  0
 12 10  1  0  0  0  0
 14 16  2  0  0  0  0
 15 18  1  0  0  0  0
 16  1  1  0  0  0  0
 16 24  1  0  0  0  0
 17  6  1  0  0  0  0
 18 12  1  0  0  0  0
 19  5  1  0  0  0  0
 20 17  1  0  0  0  0
 21 22  1  0  0  0  0
 22 25  1  0  0  0  0
 23 25  1  0  0  0  0
 24 26  2  0  0  0  0
 25 30  1  0  0  0  0
 26 23  1  0  0  0  0
 27 24  1  0  0  0  0
 27 21  1  0  0  0  0
 28 27  1  0  0  0  0
 30 29  1  0  0  0  0
 31 32  1  0  0  0  0
M  END
>  <MODEL>
1

>  <REMARK>
 VINA RESULT:      -7.0      0.000      0.000
  Name = 
  3 active torsions:
  status: ('A' for Active; 'I' for Inactive)
    1  A    between atoms: C_1  and  C_4
    2  A    between atoms: C_16  and  C_27
    3  A    between atoms: C_19  and  N_26
                            x       y       z     vdW  Elec       q    Type
                         _______ _______ _______ _____ _____    ______ ____

>  <TORSDO>
F 3

$$$$
=
 OpenBabel10262421013D

 32 36  0  0  1  0  0  0  0  0999 V2000
  185.4410  177.0840  137.5700 C   0  0  2  0  0  3  0  0  0  0  0  0
  182.9340  177.4660  138.1520 C   0  0  1  0  0  3  0  0  0  0  0  0
  184.0700  176.4640  137.8830 C   0  0  1  0  0  3  0  0  0  0  0  0
  182.1400  177.0150  139.3790 C   0  0  2  0  0  3  0  0  0  0  0  0
  180.3220  181.1780  138.7580 C   0  0  0  0  0  2  0  0  0  0  0  0
  183.4350  178.9140  138.3300 C   0  0  2  0  0  3  0  0  0  0  0  0
  180.4310  179.9310  140.6300 C   0  0  0  0  0  2  0  0  0  0  0  0
  181.5860  179.0540  140.1140 C   0  0  1  0  0  3  0  0  0  0  0  0
  181.7020  175.5440  139.3290 C   0  0  0  0  0  2  0  0  0  0  0  0
  183.6510  175.1560  137.1730 C   0  0  1  0  0  3  0  0  0  0  0  0
  181.0490  177.8710  139.5730 O   0  0  0  0  0  0  0  0  0  0  0  0
  182.1610  175.1360  136.7920 C   0  0  0  0  0  2  0  0  0  0  0  0
  184.4180  174.9270  136.0300 O   0  0  0  0  0  1  0  0  0  0  0  0
  184.7510  178.9580  138.9650 N   0  0  0  0  0  0  0  0  0  0  0  0
  180.7090  173.7530  138.1010 O   0  0  0  0  0  1  0  0  0  0  0  0
  185.7120  178.1520  138.6110 C   0  0  0  0  0  0  0  0  0  0  0  0
  182.4320  179.8160  139.0600 C   0  0  2  0  0  3  0  0  0  0  0  0
  181.1690  175.0630  137.9710 C   0  0  1  0  0  3  0  0  0  0  0  0
  180.5150  181.2530  140.1500 O   0  0  0  0  0  0  0  0  0  0  0  0
  181.5520  180.5760  138.0640 C   0  0  0  0  0  2  0  0  0  0  0  0
  189.1280  176.8760  138.8580 C   0  0  0  0  0  2  0  0  0  0  0  0
  189.9890  177.1550  140.0880 C   0  0  0  0  0  2  0  0  0  0  0  0
  188.3710  178.6280  141.3610 C   0  0  0  0  0  2  0  0  0  0  0  0
  187.0350  178.2530  139.2670 C   0  0  0  0  0  0  0  0  0  0  0  0
  189.1480  177.3120  141.3540 C   0  0  2  0  0  3  0  0  0  0  0  0
  187.0990  178.5020  140.5840 C   0  0  0  0  0  3  0  0  0  0  0  0
  188.2730  178.0710  138.4250 C   0  0  1  0  0  3  0  0  0  0  0  0
  189.0510  179.2980  138.3410 N   0  0  0  0  0  1  0  0  0  0  0  0
  190.1810  175.7550  142.8780 C   0  0  0  0  0  1  0  0  0  0  0  0
  189.9650  177.1650  142.5620 N   0  0  0  0  0  2  0  0  0  0  0  0
  185.4680  177.6850  136.1670 C   0  0  0  0  0  2  0  0  0  0  0  0
  186.7550  177.3220  135.4530 C   0  0  0  0  0  1  0  0  0  0  0  0
  1 31  1  6  0  0  0
  1  3  1  0  0  0  0
  1 16  1  0  0  0  0
  2  6  1  0  0  0  0
  2  4  1  0  0  0  0
  3  2  1  0  0  0  0
  4 11  1  0  0  0  0
  5 19  1  0  0  0  0
  6 14  1  0  0  0  0
  6 17  1  0  0  0  0
  8  7  1  0  0  0  0
  9  4  1  0  0  0  0
 10  3  1  0  0  0  0
 11  8  1  0  0  0  0
 12 10  1  0  0  0  0
 12 18  1  0  0  0  0
 13 10  1  0  0  0  0
 16 14  2  0  0  0  0
 16 24  1  0  0  0  0
 17  8  1  0  0  0  0
 18 15  1  0  0  0  0
 18  9  1  0  0  0  0
 19  7  1  0  0  0  0
 20  5  1  0  0  0  0
 20 17  1  0  0  0  0
 21 22  1  0  0  0  0
 22 25  1  0  0  0  0
 24 26  2  0  0  0  0
 25 23  1  0  0  0  0
 25 30  1  0  0  0  0
 26 23  1  0  0  0  0
 27 21  1  0  0  0  0
 27 24  1  0  0  0  0
 28 27  1  0  0  0  0
 30 29  1  0  0  0  0
 32 31  1  0  0  0  0
M  END
>  <MODEL>
2

>  <REMARK>
 VINA RESULT:      -6.6      2.893      5.821
  Name = 
  3 active torsions:
  status: ('A' for Active; 'I' for Inactive)
    1  A    between atoms: C_1  and  C_4
    2  A    between atoms: C_16  and  C_27
    3  A    between atoms: C_19  and  N_26
                            x       y       z     vdW  Elec       q    Type
                         _______ _______ _______ _____ _____    ______ ____

>  <TORSDO>
F 3

$$$$
=
 OpenBabel10262421013D

 32 36  0  0  1  0  0  0  0  0999 V2000
  191.5630  176.2630  139.5970 C   0  0  2  0  0  3  0  0  0  0  0  0
  190.0660  175.9120  137.4980 C   0  0  1  0  0  3  0  0  0  0  0  0
  191.1950  175.3780  138.3960 C   0  0  1  0  0  3  0  0  0  0  0  0
  189.0940  174.7760  137.1750 C   0  0  2  0  0  3  0  0  0  0  0  0
  186.7210  178.3300  135.5160 C   0  0  0  0  0  2  0  0  0  0  0  0
  189.3160  177.1090  138.1180 C   0  0  2  0  0  3  0  0  0  0  0  0
  185.9830  176.3220  136.2170 C   0  0  0  0  0  2  0  0  0  0  0  0
  187.2420  176.0240  137.0500 C   0  0  1  0  0  3  0  0  0  0  0  0
  189.7780  173.5010  136.6580 C   0  0  0  0  0  2  0  0  0  0  0  0
  192.3080  174.5880  137.6690 C   0  0  1  0  0  3  0  0  0  0  0  0
  188.1170  175.2330  136.2830 O   0  0  0  0  0  0  0  0  0  0  0  0
  192.1130  174.5500  136.1440 C   0  0  0  0  0  2  0  0  0  0  0  0
  193.5720  175.1040  137.9560 O   0  0  0  0  0  1  0  0  0  0  0  0
  189.2430  177.0080  139.5750 N   0  0  0  0  0  0  0  0  0  0  0  0
  191.3590  172.4910  135.1800 O   0  0  0  0  0  1  0  0  0  0  0  0
  190.2740  176.6570  140.2910 C   0  0  0  0  0  0  0  0  0  0  0  0
  187.9290  177.3390  137.5040 C   0  0  2  0  0  3  0  0  0  0  0  0
  190.9080  173.7270  135.6430 C   0  0  1  0  0  3  0  0  0  0  0  0
  185.6700  177.6950  136.2030 O   0  0  0  0  0  0  0  0  0  0  0  0
  187.9940  178.3670  136.3720 C   0  0  0  0  0  2  0  0  0  0  0  0
  189.0780  178.2550  143.3520 C   0  0  0  0  0  2  0  0  0  0  0  0
  189.6330  177.8620  144.7180 C   0  0  0  0  0  2  0  0  0  0  0  0
  191.1880  176.0060  143.9790 C   0  0  0  0  0  2  0  0  0  0  0  0
  190.1570  176.5940  141.7650 C   0  0  0  0  0  0  0  0  0  0  0  0
  191.0820  177.3830  144.6340 C   0  0  2  0  0  3  0  0  0  0  0  0
  191.1840  176.1210  142.4870 C   0  0  0  0  0  3  0  0  0  0  0  0
  188.8770  177.0670  142.4060 C   0  0  1  0  0  3  0  0  0  0  0  0
  188.1610  175.9740  143.0480 N   0  0  0  0  0  1  0  0  0  0  0  0
  191.9400  176.0490  146.4490 C   0  0  0  0  0  1  0  0  0  0  0  0
  191.7310  177.4040  145.9470 N   0  0  0  0  0  2  0  0  0  0  0  0
  192.3320  177.5050  139.1510 C   0  0  0  0  0  2  0  0  0  0  0  0
  193.5550  177.7180  140.0220 C   0  0  0  0  0  1  0  0  0  0  0  0
  1 31  1  6  0  0  0
  1 16  1  0  0  0  0
  2  6  1  0  0  0  0
  2  3  1  0  0  0  0
  3  1  1  0  0  0  0
  4  2  1  0  0  0  0
  5 19  1  0  0  0  0
  5 20  1  0  0  0  0
  6 14  1  0  0  0  0
  7  8  1  0  0  0  0
  8 17  1  0  0  0  0
  9  4  1  0  0  0  0
 10 13  1  0  0  0  0
 10  3  1  0  0  0  0
 11  8  1  0  0  0  0
 11  4  1  0  0  0  0
 12 10  1  0  0  0  0
 14 16  2  0  0  0  0
 15 18  1  0  0  0  0
 16 24  1  0  0  0  0
 17  6  1  0  0  0  0
 18 12  1  0  0  0  0
 18  9  1  0  0  0  0
 19  7  1  0  0  0  0
 20 17  1  0  0  0  0
 21 22  1  0  0  0  0
 23 25  1  0  0  0  0
 24 27  1  0  0  0  0
 24 26  2  0  0  0  0
 25 22  1  0  0  0  0
 25 30  1  0  0  0  0
 26 23  1  0  0  0  0
 27 28  1  0  0  0  0
 27 21  1  0  0  0  0
 30 29  1  0  0  0  0
 31 32  1  0  0  0  0
M  END
>  <MODEL>
3

>  <REMARK>
 VINA RESULT:      -6.6      6.073      9.098
  Name = 
  3 active torsions:
  status: ('A' for Active; 'I' for Inactive)
    1  A    between atoms: C_1  and  C_4
    2  A    between atoms: C_16  and  C_27
    3  A    between atoms: C_19  and  N_26
                            x       y       z     vdW  Elec       q    Type
                         _______ _______ _______ _____ _____    ______ ____

>  <TORSDO>
F 3

$$$$
=
 OpenBabel10262421013D

 32 36  0  0  1  0  0  0  0  0999 V2000
  190.1870  175.8870  138.3180 C   0  0  2  0  0  3  0  0  0  0  0  0
  188.2320  175.2160  136.7390 C   0  0  1  0  0  3  0  0  0  0  0  0
  189.4430  174.7670  137.5750 C   0  0  1  0  0  3  0  0  0  0  0  0
  187.0610  174.2650  136.9890 C   0  0  2  0  0  3  0  0  0  0  0  0
  184.9150  177.5320  134.5940 C   0  0  0  0  0  2  0  0  0  0  0  0
  187.8160  176.6760  137.0120 C   0  0  2  0  0  3  0  0  0  0  0  0
  184.0690  176.0450  136.0580 C   0  0  0  0  0  2  0  0  0  0  0  0
  185.4240  175.7680  136.7320 C   0  0  1  0  0  3  0  0  0  0  0  0
  187.4260  172.7790  136.8470 C   0  0  0  0  0  2  0  0  0  0  0  0
  190.2440  173.5760  137.0020 C   0  0  1  0  0  3  0  0  0  0  0  0
  185.9880  174.6120  136.1600 O   0  0  0  0  0  0  0  0  0  0  0  0
  189.7160  173.1040  135.6370 C   0  0  0  0  0  2  0  0  0  0  0  0
  191.6010  173.8810  136.8870 O   0  0  0  0  0  1  0  0  0  0  0  0
  188.0500  177.0540  138.4050 N   0  0  0  0  0  0  0  0  0  0  0  0
  188.4840  171.0510  135.5830 O   0  0  0  0  0  1  0  0  0  0  0  0
  189.1520  176.7380  139.0260 C   0  0  0  0  0  0  0  0  0  0  0  0
  186.3750  176.9850  136.5850 C   0  0  2  0  0  3  0  0  0  0  0  0
  188.3260  172.4350  135.6510 C   0  0  1  0  0  3  0  0  0  0  0  0
  183.9600  177.3780  135.6160 O   0  0  0  0  0  0  0  0  0  0  0  0
  186.3370  177.5690  135.1710 C   0  0  0  0  0  2  0  0  0  0  0  0
  190.2280  175.8230  142.3970 C   0  0  0  0  0  2  0  0  0  0  0  0
  189.8140  176.6510  143.6110 C   0  0  0  0  0  2  0  0  0  0  0  0
  188.5450  178.4820  142.4100 C   0  0  0  0  0  2  0  0  0  0  0  0
  189.3530  177.1660  140.4290 C   0  0  0  0  0  0  0  0  0  0  0  0
  188.4590  177.3290  143.4090 C   0  0  2  0  0  3  0  0  0  0  0  0
  188.4540  177.9800  141.0040 C   0  0  0  0  0  3  0  0  0  0  0  0
  190.5700  176.6690  141.1660 C   0  0  1  0  0  3  0  0  0  0  0  0
  191.4850  177.7540  141.4870 N   0  0  0  0  0  1  0  0  0  0  0  0
  186.4300  177.8860  144.5850 C   0  0  0  0  0  1  0  0  0  0  0  0
  187.8820  177.7650  144.6830 N   0  0  0  0  0  2  0  0  0  0  0  0
  191.0090  176.7380  137.3520 C   0  0  0  0  0  2  0  0  0  0  0  0
  192.4820  176.6830  137.7110 C   0  0  0  0  0  1  0  0  0  0  0  0
  1 31  1  6  0  0  0
  1 16  1  0  0  0  0
  2  4  1  0  0  0  0
  2  6  1  0  0  0  0
  2  3  1  0  0  0  0
  3  1  1  0  0  0  0
  5 20  1  0  0  0  0
  5 19  1  0  0  0  0
  6 14  1  0  0  0  0
  7  8  1  0  0  0  0
  9  4  1  0  0  0  0
 10  3  1  0  0  0  0
 11  8  1  0  0  0  0
 11  4  1  0  0  0  0
 12 18  1  0  0  0  0
 12 10  1  0  0  0  0
 13 10  1  0  0  0  0
 14 16  2  0  0  0  0
 15 18  1  0  0  0  0
 16 24  1  0  0  0  0
 17  8  1  0  0  0  0
 17  6  1  0  0  0  0
 18  9  1  0  0  0  0
 19  7  1  0  0  0  0
 20 17  1  0  0  0  0
 21 22  1  0  0  0  0
 23 25  1  0  0  0  0
 24 26  2  0  0  0  0
 24 27  1  0  0  0  0
 25 22  1  0  0  0  0
 25 30  1  0  0  0  0
 26 23  1  0  0  0  0
 27 28  1  0  0  0  0
 27 21  1  0  0  0  0
 29 30  1  0  0  0  0
 31 32  1  0  0  0  0
M  END
>  <MODEL>
4

>  <REMARK>
 VINA RESULT:      -6.4      5.094      8.191
  Name = 
  3 active torsions:
  status: ('A' for Active; 'I' for Inactive)
    1  A    between atoms: C_1  and  C_4
    2  A    between atoms: C_16  and  C_27
    3  A    between atoms: C_19  and  N_26
                            x       y       z     vdW  Elec       q    Type
                         _______ _______ _______ _____ _____    ______ ____

>  <TORSDO>
F 3

$$$$
=
 OpenBabel10262421013D

 32 36  0  0  1  0  0  0  0  0999 V2000
  181.6810  178.4180  136.9190 C   0  0  2  0  0  3  0  0  0  0  0  0
  183.7410  177.8350  138.3960 C   0  0  1  0  0  3  0  0  0  0  0  0
  183.1210  177.8900  136.9890 C   0  0  1  0  0  3  0  0  0  0  0  0
  185.1640  178.3940  138.3470 C   0  0  2  0  0  3  0  0  0  0  0  0
  184.6190  178.0460  142.8850 C   0  0  0  0  0  2  0  0  0  0  0  0
  182.9010  178.5780  139.4560 C   0  0  2  0  0  3  0  0  0  0  0  0
  186.0040  179.3780  141.7100 C   0  0  0  0  0  2  0  0  0  0  0  0
  185.1920  179.2620  140.4080 C   0  0  1  0  0  3  0  0  0  0  0  0
  186.0330  177.7820  137.2370 C   0  0  0  0  0  2  0  0  0  0  0  0
  183.5640  176.7670  136.0220 C   0  0  1  0  0  3  0  0  0  0  0  0
  185.7650  178.2590  139.6040 O   0  0  0  0  0  0  0  0  0  0  0  0
  184.4990  175.7430  136.6860 C   0  0  0  0  0  2  0  0  0  0  0  0
  182.4660  176.0990  135.4780 O   0  0  0  0  0  1  0  0  0  0  0  0
  182.2230  179.7430  138.8900 N   0  0  0  0  0  0  0  0  0  0  0  0
  186.8210  175.8320  136.1050 O   0  0  0  0  0  1  0  0  0  0  0  0
  181.6160  179.6920  137.7370 C   0  0  0  0  0  0  0  0  0  0  0  0
  183.7020  178.9520  140.7100 C   0  0  2  0  0  3  0  0  0  0  0  0
  185.9020  176.2620  137.0630 C   0  0  1  0  0  3  0  0  0  0  0  0
  185.1800  179.3360  142.8520 O   0  0  0  0  0  0  0  0  0  0  0  0
  183.5510  177.8830  141.7950 C   0  0  0  0  0  2  0  0  0  0  0  0
  181.0210  181.9140  134.8970 C   0  0  0  0  0  2  0  0  0  0  0  0
  180.4560  183.3180  135.0960 C   0  0  0  0  0  2  0  0  0  0  0  0
  180.1120  183.2390  137.6030 C   0  0  0  0  0  2  0  0  0  0  0  0
  180.9230  180.8930  137.2190 C   0  0  0  0  0  0  0  0  0  0  0  0
  180.8530  183.9100  136.4480 C   0  0  2  0  0  3  0  0  0  0  0  0
  180.7910  181.9690  138.0090 C   0  0  0  0  0  3  0  0  0  0  0  0
  180.3850  180.8610  135.8100 C   0  0  1  0  0  3  0  0  0  0  0  0
  178.9310  180.9270  135.7890 N   0  0  0  0  0  1  0  0  0  0  0  0
  179.6680  185.7540  137.4520 C   0  0  0  0  0  1  0  0  0  0  0  0
  180.6750  185.3650  136.4690 N   0  0  0  0  0  2  0  0  0  0  0  0
  180.6880  177.3880  137.4540 C   0  0  0  0  0  2  0  0  0  0  0  0
  179.3580  177.5020  136.7340 C   0  0  0  0  0  1  0  0  0  0  0  0
  1  3  1  0  0  0  0
  1 31  1  1  0  0  0
  1 16  1  0  0  0  0
  2  6  1  0  0  0  0
  3  2  1  0  0  0  0
  4  2  1  0  0  0  0
  4 11  1  0  0  0  0
  6 17  1  0  0  0  0
  7 19  1  0  0  0  0
  8 17  1  0  0  0  0
  8  7  1  0  0  0  0
  9  4  1  0  0  0  0
 10 12  1  0  0  0  0
 10  3  1  0  0  0  0
 11  8  1  0  0  0  0
 12 18  1  0  0  0  0
 13 10  1  0  0  0  0
 14  6  1  0  0  0  0
 15 18  1  0  0  0  0
 16 14  2  0  0  0  0
 17 20  1  0  0  0  0
 18  9  1  0  0  0  0
 19  5  1  0  0  0  0
 20  5  1  0  0  0  0
 21 22  1  0  0  0  0
 21 27  1  0  0  0  0
 22 25  1  0  0  0  0
 23 26  1  0  0  0  0
 24 16  1  0  0  0  0
 24 26  2  0  0  0  0
 25 30  1  0  0  0  0
 25 23  1  0  0  0  0
 27 24  1  0  0  0  0
 28 27  1  0  0  0  0
 30 29  1  0  0  0  0
 32 31  1  0  0  0  0
M  END
>  <MODEL>
5

>  <REMARK>
 VINA RESULT:      -6.1      3.392      7.717
  Name = 
  3 active torsions:
  status: ('A' for Active; 'I' for Inactive)
    1  A    between atoms: C_1  and  C_4
    2  A    between atoms: C_16  and  C_27
    3  A    between atoms: C_19  and  N_26
                            x       y       z     vdW  Elec       q    Type
                         _______ _______ _______ _____ _____    ______ ____

>  <TORSDO>
F 3

$$$$
=
 OpenBabel10262421013D

 32 36  0  0  1  0  0  0  0  0999 V2000
  182.5250  176.9570  138.0650 C   0  0  2  0  0  3  0  0  0  0  0  0
  185.0260  176.6020  137.4430 C   0  0  1  0  0  3  0  0  0  0  0  0
  183.5550  176.2430  137.1760 C   0  0  1  0  0  3  0  0  0  0  0  0
  185.7410  176.8390  136.1130 C   0  0  2  0  0  3  0  0  0  0  0  0
  188.9820  178.2950  139.0100 C   0  0  0  0  0  2  0  0  0  0  0  0
  185.1920  177.8210  138.3740 C   0  0  2  0  0  3  0  0  0  0  0  0
  188.6560  178.8280  136.8470 C   0  0  0  0  0  2  0  0  0  0  0  0
  187.1810  178.3870  136.8440 C   0  0  1  0  0  3  0  0  0  0  0  0
  185.5300  175.7160  135.0850 C   0  0  0  0  0  2  0  0  0  0  0  0
  183.2940  174.7830  136.7370 C   0  0  1  0  0  3  0  0  0  0  0  0
  187.1020  177.0730  136.3460 O   0  0  0  0  0  0  0  0  0  0  0  0
  184.5710  173.9270  136.7270 C   0  0  0  0  0  2  0  0  0  0  0  0
  182.3380  174.1700  137.5490 O   0  0  0  0  0  1  0  0  0  0  0  0
  184.1180  178.7960  138.1860 N   0  0  0  0  0  0  0  0  0  0  0  0
  185.5120  173.3790  134.5940 O   0  0  0  0  0  1  0  0  0  0  0  0
  182.8710  178.4330  138.0780 C   0  0  0  0  0  0  0  0  0  0  0  0
  186.5720  178.4820  138.2670 C   0  0  2  0  0  3  0  0  0  0  0  0
  185.6110  174.2880  135.6460 C   0  0  1  0  0  3  0  0  0  0  0  0
  189.0460  179.3590  138.0910 O   0  0  0  0  0  0  0  0  0  0  0  0
  187.5250  177.9350  139.3330 C   0  0  0  0  0  2  0  0  0  0  0  0
  180.7840  180.3560  135.7750 C   0  0  0  0  0  2  0  0  0  0  0  0
  180.0980  181.6450  136.2190 C   0  0  0  0  0  2  0  0  0  0  0  0
  180.8120  181.6410  138.6480 C   0  0  0  0  0  2  0  0  0  0  0  0
  181.8190  179.4600  137.9130 C   0  0  0  0  0  0  0  0  0  0  0  0
  180.8880  182.3710  137.3080 C   0  0  2  0  0  3  0  0  0  0  0  0
  181.8190  180.5360  138.7140 C   0  0  0  0  0  3  0  0  0  0  0  0
  180.7760  179.2570  136.8430 C   0  0  1  0  0  3  0  0  0  0  0  0
  179.4510  179.0610  137.4140 N   0  0  0  0  0  1  0  0  0  0  0  0
  181.1800  184.6170  136.4810 C   0  0  0  0  0  1  0  0  0  0  0  0
  180.4670  183.7690  137.4340 N   0  0  0  0  0  2  0  0  0  0  0  0
  182.5370  176.3930  139.4840 C   0  0  0  0  0  2  0  0  0  0  0  0
  181.1460  176.4330  140.0880 C   0  0  0  0  0  1  0  0  0  0  0  0
  1 16  1  0  0  0  0
  1 31  1  1  0  0  0
  2  6  1  0  0  0  0
  3  2  1  0  0  0  0
  3  1  1  0  0  0  0
  4 11  1  0  0  0  0
  4  2  1  0  0  0  0
  5 20  1  0  0  0  0
  7 19  1  0  0  0  0
  8  7  1  0  0  0  0
  8 17  1  0  0  0  0
  9 18  1  0  0  0  0
  9  4  1  0  0  0  0
 10  3  1  0  0  0  0
 10 13  1  0  0  0  0
 11  8  1  0  0  0  0
 12 10  1  0  0  0  0
 14  6  1  0  0  0  0
 15 18  1  0  0  0  0
 16 14  2  0  0  0  0
 17  6  1  0  0  0  0
 17 20  1  0  0  0  0
 18 12  1  0  0  0  0
 19  5  1  0  0  0  0
 21 22  1  0  0  0  0
 21 27  1  0  0  0  0
 22 25  1  0  0  0  0
 23 26  1  0  0  0  0
 24 16  1  0  0  0  0
 24 26  2  0  0  0  0
 25 30  1  0  0  0  0
 25 23  1  0  0  0  0
 27 28  1  0  0  0  0
 27 24  1  0  0  0  0
 29 30  1  0  0  0  0
 31 32  1  0  0  0  0
M  END
>  <MODEL>
6

>  <REMARK>
 VINA RESULT:      -6.1      4.291      7.441
  Name = 
  3 active torsions:
  status: ('A' for Active; 'I' for Inactive)
    1  A    between atoms: C_1  and  C_4
    2  A    between atoms: C_16  and  C_27
    3  A    between atoms: C_19  and  N_26
                            x       y       z     vdW  Elec       q    Type
                         _______ _______ _______ _____ _____    ______ ____

>  <TORSDO>
F 3

$$$$
=
 OpenBabel10262421013D

 32 36  0  0  1  0  0  0  0  0999 V2000
  188.2010  177.8080  139.1270 C   0  0  2  0  0  3  0  0  0  0  0  0
  188.3010  178.1080  141.7090 C   0  0  1  0  0  3  0  0  0  0  0  0
  187.4360  177.8830  140.4570 C   0  0  1  0  0  3  0  0  0  0  0  0
  187.8460  177.1570  142.8180 C   0  0  2  0  0  3  0  0  0  0  0  0
  191.6820  178.7960  144.7200 C   0  0  0  0  0  2  0  0  0  0  0  0
  189.8100  177.9450  141.4380 C   0  0  2  0  0  3  0  0  0  0  0  0
  190.6040  176.8600  145.1180 C   0  0  0  0  0  2  0  0  0  0  0  0
  189.8460  176.8760  143.7790 C   0  0  1  0  0  3  0  0  0  0  0  0
  186.3310  177.1780  143.0710 C   0  0  0  0  0  2  0  0  0  0  0  0
  186.0350  178.5370  140.4890 C   0  0  1  0  0  3  0  0  0  0  0  0
  188.5660  177.4220  143.9890 O   0  0  0  0  0  0  0  0  0  0  0  0
  185.7950  179.3710  141.7580 C   0  0  0  0  0  2  0  0  0  0  0  0
  185.8210  179.3400  139.3680 O   0  0  0  0  0  1  0  0  0  0  0  0
  190.0710  176.9300  140.4180 N   0  0  0  0  0  0  0  0  0  0  0  0
  184.3390  178.4490  143.4220 O   0  0  0  0  0  1  0  0  0  0  0  0
  189.3710  176.8630  139.3210 C   0  0  0  0  0  0  0  0  0  0  0  0
  190.6290  177.6820  142.7090 C   0  0  2  0  0  3  0  0  0  0  0  0
  185.6840  178.5720  143.0730 C   0  0  1  0  0  3  0  0  0  0  0  0
  191.8850  177.4340  145.0080 O   0  0  0  0  0  0  0  0  0  0  0  0
  191.1920  178.9860  143.2780 C   0  0  0  0  0  2  0  0  0  0  0  0
  190.9350  176.0910  136.1100 C   0  0  0  0  0  2  0  0  0  0  0  0
  190.5820  174.8180  135.3440 C   0  0  0  0  0  2  0  0  0  0  0  0
  188.9860  173.7940  137.0210 C   0  0  0  0  0  2  0  0  0  0  0  0
  189.6900  175.8340  138.3070 C   0  0  0  0  0  0  0  0  0  0  0  0
  189.1470  174.3650  135.6130 C   0  0  2  0  0  3  0  0  0  0  0  0
  188.7830  174.8870  138.0220 C   0  0  0  0  0  3  0  0  0  0  0  0
  191.0340  175.8870  137.6250 C   0  0  1  0  0  3  0  0  0  0  0  0
  191.8570  174.7370  137.9690 N   0  0  0  0  0  1  0  0  0  0  0  0
  188.1430  172.2110  135.2090 C   0  0  0  0  0  1  0  0  0  0  0  0
  188.6820  173.4210  134.5940 N   0  0  0  0  0  2  0  0  0  0  0  0
  188.6940  179.1880  138.6950 C   0  0  0  0  0  2  0  0  0  0  0  0
  189.0480  179.1920  137.2210 C   0  0  0  0  0  1  0  0  0  0  0  0
  1 31  1  1  0  0  0
  1 16  1  0  0  0  0
  1  3  1  0  0  0  0
  2  4  1  0  0  0  0
  3 10  1  0  0  0  0
  3  2  1  0  0  0  0
  4  9  1  0  0  0  0
  4 11  1  0  0  0  0
  5 19  1  0  0  0  0
  6  2  1  0  0  0  0
  6 17  1  0  0  0  0
  8 11  1  0  0  0  0
  8  7  1  0  0  0  0
  9 18  1  0  0  0  0
 10 12  1  0  0  0  0
 12 18  1  0  0  0  0
 13 10  1  0  0  0  0
 14  6  1  0  0  0  0
 16 14  2  0  0  0  0
 17 20  1  0  0  0  0
 17  8  1  0  0  0  0
 18 15  1  0  0  0  0
 19  7  1  0  0  0  0
 20  5  1  0  0  0  0
 21 27  1  0  0  0  0
 22 25  1  0  0  0  0
 22 21  1  0  0  0  0
 23 26  1  0  0  0  0
 24 16  1  0  0  0  0
 25 23  1  0  0  0  0
 26 24  2  0  0  0  0
 27 28  1  0  0  0  0
 27 24  1  0  0  0  0
 30 29  1  0  0  0  0
 30 25  1  0  0  0  0
 32 31  1  0  0  0  0
M  END
>  <MODEL>
7

>  <REMARK>
 VINA RESULT:      -5.7      5.902      9.464
  Name = 
  3 active torsions:
  status: ('A' for Active; 'I' for Inactive)
    1  A    between atoms: C_1  and  C_4
    2  A    between atoms: C_16  and  C_27
    3  A    between atoms: C_19  and  N_26
                            x       y       z     vdW  Elec       q    Type
                         _______ _______ _______ _____ _____    ______ ____

>  <TORSDO>
F 3

$$$$
=
 OpenBabel10262421013D

 32 36  0  0  1  0  0  0  0  0999 V2000
  186.4600  176.7000  136.6170 C   0  0  2  0  0  3  0  0  0  0  0  0
  183.9420  176.0630  136.7720 C   0  0  1  0  0  3  0  0  0  0  0  0
  185.3940  175.5950  136.5670 C   0  0  1  0  0  3  0  0  0  0  0  0
  183.2360  175.1160  137.7440 C   0  0  2  0  0  3  0  0  0  0  0  0
  180.0810  178.4290  137.4490 C   0  0  0  0  0  2  0  0  0  0  0  0
  183.8410  177.5210  137.2630 C   0  0  2  0  0  3  0  0  0  0  0  0
  180.4270  176.9280  139.0910 C   0  0  0  0  0  2  0  0  0  0  0  0
  181.8780  176.6330  138.6700 C   0  0  1  0  0  3  0  0  0  0  0  0
  183.3880  173.6300  137.3840 C   0  0  0  0  0  2  0  0  0  0  0  0
  185.5800  174.4060  135.5960 C   0  0  1  0  0  3  0  0  0  0  0  0
  181.8900  175.4820  137.8600 O   0  0  0  0  0  0  0  0  0  0  0  0
  184.2610  173.9560  134.9450 C   0  0  0  0  0  2  0  0  0  0  0  0
  186.5060  174.7040  134.5960 O   0  0  0  0  0  1  0  0  0  0  0  0
  184.9610  177.8800  138.1330 N   0  0  0  0  0  0  0  0  0  0  0  0
  183.2880  171.9120  135.7280 O   0  0  0  0  0  1  0  0  0  0  0  0
  186.1880  177.5480  137.8430 C   0  0  0  0  0  0  0  0  0  0  0  0
  182.4950  177.8460  137.9250 C   0  0  2  0  0  3  0  0  0  0  0  0
  183.2380  173.2960  135.8920 C   0  0  1  0  0  3  0  0  0  0  0  0
  180.0670  178.2670  138.8470 O   0  0  0  0  0  0  0  0  0  0  0  0
  181.5190  178.4500  136.9120 C   0  0  0  0  0  2  0  0  0  0  0  0
  189.6440  177.0200  138.9080 C   0  0  0  0  0  2  0  0  0  0  0  0
  190.1450  177.5380  140.2530 C   0  0  0  0  0  2  0  0  0  0  0  0
  188.0380  178.7140  141.0180 C   0  0  0  0  0  2  0  0  0  0  0  0
  187.2900  177.9560  138.7430 C   0  0  0  0  0  0  0  0  0  0  0  0
  189.0320  177.5890  141.3000 C   0  0  2  0  0  3  0  0  0  0  0  0
  187.0150  178.2860  140.0130 C   0  0  0  0  0  3  0  0  0  0  0  0
  188.6950  177.9860  138.1930 C   0  0  1  0  0  3  0  0  0  0  0  0
  189.2250  179.3410  138.1500 N   0  0  0  0  0  1  0  0  0  0  0  0
  188.5410  177.4180  143.6540 C   0  0  0  0  0  1  0  0  0  0  0  0
  189.5760  177.6800  142.6570 N   0  0  0  0  0  2  0  0  0  0  0  0
  186.4240  177.5580  135.3540 C   0  0  0  0  0  2  0  0  0  0  0  0
  187.8150  177.7050  134.7670 C   0  0  0  0  0  1  0  0  0  0  0  0
  1 31  1  6  0  0  0
  1 16  1  0  0  0  0
  2  6  1  0  0  0  0
  2  4  1  0  0  0  0
  3  1  1  0  0  0  0
  3  2  1  0  0  0  0
  4 11  1  0  0  0  0
  5 19  1  0  0  0  0
  6 17  1  0  0  0  0
  6 14  1  0  0  0  0
  8  7  1  0  0  0  0
  9  4  1  0  0  0  0
 10  3  1  0  0  0  0
 11  8  1  0  0  0  0
 12 10  1  0  0  0  0
 12 18  1  0  0  0  0
 13 10  1  0  0  0  0
 15 18  1  0  0  0  0
 16 14  2  0  0  0  0
 16 24  1  0  0  0  0
 17  8  1  0  0  0  0
 18  9  1  0  0  0  0
 19  7  1  0  0  0  0
 20  5  1  0  0  0  0
 20 17  1  0  0  0  0
 21 22  1  0  0  0  0
 22 25  1  0  0  0  0
 23 25  1  0  0  0  0
 24 26  2  0  0  0  0
 25 30  1  0  0  0  0
 26 23  1  0  0  0  0
 27 24  1  0  0  0  0
 27 21  1  0  0  0  0
 28 27  1  0  0  0  0
 30 29  1  0  0  0  0
 32 31  1  0  0  0  0
M  END
>  <MODEL>
8

>  <REMARK>
 VINA RESULT:      -5.7      3.214      6.461
  Name = 
  3 active torsions:
  status: ('A' for Active; 'I' for Inactive)
    1  A    between atoms: C_1  and  C_4
    2  A    between atoms: C_16  and  C_27
    3  A    between atoms: C_19  and  N_26
                            x       y       z     vdW  Elec       q    Type
                         _______ _______ _______ _____ _____    ______ ____

>  <TORSDO>
F 3

$$$$
=
 OpenBabel10262421013D

 32 36  0  0  1  0  0  0  0  0999 V2000
  184.8170  177.7560  139.1580 C   0  0  2  0  0  3  0  0  0  0  0  0
  182.3720  178.2630  138.4290 C   0  0  1  0  0  3  0  0  0  0  0  0
  183.4470  177.2060  138.7330 C   0  0  1  0  0  3  0  0  0  0  0  0
  181.0540  177.8520  139.0870 C   0  0  2  0  0  3  0  0  0  0  0  0
  179.9680  182.1020  137.7540 C   0  0  0  0  0  2  0  0  0  0  0  0
  182.7800  179.6840  138.8690 C   0  0  2  0  0  3  0  0  0  0  0  0
  179.0770  180.8490  139.4000 C   0  0  0  0  0  2  0  0  0  0  0  0
  180.2960  179.9150  139.5020 C   0  0  1  0  0  3  0  0  0  0  0  0
  180.6350  176.4040  138.7870 C   0  0  0  0  0  2  0  0  0  0  0  0
  183.3800  175.9210  137.8740 C   0  0  1  0  0  3  0  0  0  0  0  0
  180.0490  178.7610  138.7360 O   0  0  0  0  0  0  0  0  0  0  0  0
  182.2780  175.9770  136.8040 C   0  0  0  0  0  2  0  0  0  0  0  0
  184.6030  175.6550  137.2570 O   0  0  0  0  0  1  0  0  0  0  0  0
  183.6070  179.6610  140.0750 N   0  0  0  0  0  0  0  0  0  0  0  0
  180.3080  174.6670  137.1820 O   0  0  0  0  0  1  0  0  0  0  0  0
  184.5810  178.8070  140.2240 C   0  0  0  0  0  0  0  0  0  0  0  0
  181.5860  180.6350  139.0280 C   0  0  2  0  0  3  0  0  0  0  0  0
  180.8280  175.9520  137.3320 C   0  0  1  0  0  3  0  0  0  0  0  0
  179.4460  182.1650  139.0600 O   0  0  0  0  0  0  0  0  0  0  0  0
  181.3520  181.4390  137.7470 C   0  0  0  0  0  2  0  0  0  0  0  0
  187.3100  177.3100  142.1370 C   0  0  0  0  0  2  0  0  0  0  0  0
  187.4650  177.5730  143.6330 C   0  0  0  0  0  2  0  0  0  0  0  0
  185.5470  179.1980  143.9350 C   0  0  0  0  0  2  0  0  0  0  0  0
  185.4050  178.8410  141.4520 C   0  0  0  0  0  0  0  0  0  0  0  0
  186.1200  177.8320  144.3120 C   0  0  2  0  0  3  0  0  0  0  0  0
  184.8250  179.1320  142.6260 C   0  0  0  0  0  3  0  0  0  0  0  0
  186.8790  178.5440  141.3390 C   0  0  1  0  0  3  0  0  0  0  0  0
  187.6880  179.7110  141.6580 N   0  0  0  0  0  1  0  0  0  0  0  0
  185.6320  178.8200  146.4570 C   0  0  0  0  0  1  0  0  0  0  0  0
  186.2140  177.6720  145.7660 N   0  0  0  0  0  2  0  0  0  0  0  0
  185.5630  178.3570  137.9690 C   0  0  0  0  0  2  0  0  0  0  0  0
  187.0010  177.8740  137.9400 C   0  0  0  0  0  1  0  0  0  0  0  0
  1 31  1  6  0  0  0
  1 16  1  0  0  0  0
  2  3  1  0  0  0  0
  2  6  1  0  0  0  0
  2  4  1  0  0  0  0
  3  1  1  0  0  0  0
  5 19  1  0  0  0  0
  6 17  1  0  0  0  0
  6 14  1  0  0  0  0
  7  8  1  0  0  0  0
  9  4  1  0  0  0  0
 10  3  1  0  0  0  0
 11  4  1  0  0  0  0
 11  8  1  0  0  0  0
 12 18  1  0  0  0  0
 12 10  1  0  0  0  0
 13 10  1  0  0  0  0
 14 16  2  0  0  0  0
 15 18  1  0  0  0  0
 16 24  1  0  0  0  0
 17  8  1  0  0  0  0
 18  9  1  0  0  0  0
 19  7  1  0  0  0  0
 20  5  1  0  0  0  0
 20 17  1  0  0  0  0
 21 22  1  0  0  0  0
 22 25  1  0  0  0  0
 23 25  1  0  0  0  0
 24 26  2  0  0  0  0
 25 30  1  0  0  0  0
 26 23  1  0  0  0  0
 27 24  1  0  0  0  0
 27 28  1  0  0  0  0
 27 21  1  0  0  0  0
 30 29  1  0  0  0  0
 32 31  1  0  0  0  0
M  END
>  <MODEL>
9

>  <REMARK>
 VINA RESULT:      -5.4      1.873      4.709
  Name = 
  3 active torsions:
  status: ('A' for Active; 'I' for Inactive)
    1  A    between atoms: C_1  and  C_4
    2  A    between atoms: C_16  and  C_27
    3  A    between atoms: C_19  and  N_26
                            x       y       z     vdW  Elec       q    Type
                         _______ _______ _______ _____ _____    ______ ____

>  <TORSDO>
F 3

$$$$
